data_PCOD9295894
_publ_section_title
;
Structure prediction by ZEFSAII (Michael W. Deem and Ramdas Pophale) SiO2 
 PCOD9295894
Probable space group: C 2/C
;
_chemical_formula_sum "Si O2"
_cell_formula_units_Z 56
_cell_length_a 20.821936
_cell_length_b 18.069583
_cell_length_c 8.405238
_cell_angle_alpha 90.000000
_cell_angle_beta 121.666382
_cell_angle_gamma 90.000000
_cell_volume 2691.594807
_symmetry_space_group_name_H-M "C 2/C"
_symmetry_group_IT_number 15
_symmetry_cell_setting 'monoclinic'
loop_
_space_group_symop_operation_xyz
x,y,z
-x,y,1/2-z
-x,-y,-z
x,-y,1/2+z
1/2+x,1/2+y,z
1/2-x,1/2+y,1/2-z
1/2-x,1/2-y,-z
1/2+x,1/2-y,1/2+z
loop_
_atom_site_type_symbol
_atom_site_label
_atom_site_fract_x
_atom_site_fract_y
_atom_site_fract_z
Si Si1 0.000000 0.322882 0.750000
Si Si2 0.117822 0.787485 0.491718
Si Si3 0.519938 0.582151 0.962563
Si Si4 0.598623 0.303987 0.087034
Si Si5 0.260841 0.195968 0.660640
Si Si6 0.373729 0.086723 0.646128
Si Si7 0.000000 0.308424 0.250000
Si Si8 0.072920 0.553847 0.130765
O O1 0.047070 0.267827 0.923933
O O2 0.051542 0.377769 0.714609
O O3 0.096941 0.865932 0.551246
O O4 0.117291 0.791010 0.298608
O O5 0.190185 0.744080 0.650478
O O6 0.500000 0.581028 0.750000
O O7 0.462491 0.631523 0.988759
O O8 0.500000 0.500000 0.000000
O O9 0.678795 0.324580 0.117116
O O10 0.558971 0.240287 0.928590
O O11 0.250000 0.250000 0.500000
O O12 0.306610 0.127493 0.647914
O O13 0.448111 0.135523 0.784660
O O14 0.383062 0.081410 0.467780
O O15 0.375866 0.002977 0.706093
O O16 0.000000 0.500000 0.000000
#
# Coordination Sequence:
#
# PCOD9295894 Si02
#       8
#     4   8   8   8   8   8   4   8
#     4  12  21  38  77 102 138 172 226 290 331 418
#     4  11  24  44  72 104 133 178 231 285 348 408
#     4  10  23  43  72 102 130 172 235 293 345 403
#     4  11  24  44  70 104 133 178 225 285 348 410
#     4  12  27  43  67  99 142 179 228 284 347 413
#     4  12  25  41  62 102 140 180 225 274 343 409
#     4  12  21  40  77 100 126 168 240 282 323 400
#     4  12  22  38  64 101 141 178 220 274 337 398
#
# _framework density 20.805508
#
# number of rings (size 3 to 8) (size 9 to 14) (size 15 to 20)
#    0.000    0.571    6.429    3.000    1.000    0.000 
#    0.000    4.286    0.000    0.000    0.000    0.000 
#    0.000    0.000    0.000    0.000    0.000    0.000 
#
# Total GULP energy -156143.553888 kJ/mol
# GULP energy per Si atom -5576.555496 kJ/mol
# Density = 2.075815 g / cm^3
# Si number density = 20.805508 Si / 1000 Ang^3
#
#
#
# Elastic Constant Matrix: (Units=GPa)
#
#
# Indices 1 2 3 4 5 6 
#
# 1 142.9923 35.1992 13.6021 0.0000 -15.2581 0.0000
# 2 35.1992 125.2033 13.3542 0.0000 -15.4625 0.0000
# 3 13.6021 13.3542 50.8388 0.0000 -8.3484 0.0000
# 4 0.0000 0.0000 0.0000 29.7881 0.0000 -22.1008
# 5 -15.2581 -15.4625 -8.3484 0.0000 26.5167 0.0000
# 6 0.0000 0.0000 0.0000 -22.1008 0.0000 20.2996
#
#
#
# Elastic Compliance Matrix: (Units=1/GPa)
#
#
# Indices 1 2 3 4 5 6 
#
# 1 0.007858 -0.001696 -0.001135 0.000000 0.003175 0.000000
# 2 -0.001696 0.009085 -0.001290 0.000000 0.003916 0.000000
# 3 -0.001135 -0.001290 0.021177 0.000000 0.005262 0.000000
# 4 0.000000 0.000000 0.000000 0.174633 0.000000 0.190128
# 5 0.003175 0.003916 0.005262 0.000000 0.043479 0.000000
# 6 0.000000 0.000000 0.000000 0.190128 0.000000 0.256259
#
#
# Mechanical properties :
#
#
# Convention : Reuss Voigt Hill
#
# Bulk Modulus (GPa) = 33.47031 49.26059 41.36545
# Shear Modulus (GPa) = 9.42168 32.44615 20.93391
#
# Velocity S-wave (km/s) = 2.13032 3.95333 3.17546
# Velocity P-wave (km/s) = 4.70884 6.67582 5.77667
#
# Compressibility (1/GPa) = 0.02987723
#
# Stress axis : x y z
#
# Youngs Moduli (GPa) = 127.26458 110.07242 47.22189
#
# Poissons Ratio (x) = 0.18667 0.05362
# Poissons Ratio (y) = 0.21582 0.06090
# Poissons Ratio (z) = 0.14451 0.14195
#
# Static dielectric constant tensor:
#      x y z
#    x 1.712200 0.000000 0.013360 
#    y 0.000000 1.786480 0.000000 
#    z 0.013360 0.000000 1.817510 
# 
# From -- ./inp_files/56745.got.cif
#   From: 2010.05.17/outbox.cif.g08.bks.cpg/sg15_29_cif.got.tgz:56745.got - 2010.06.03 18:47:42.
