data_PCOD9295447
_publ_section_title
;
Structure prediction by ZEFSAII (Michael W. Deem and Ramdas Pophale) SiO2 
 PCOD9295447
Probable space group: C 2/C
;
_chemical_formula_sum "Si O2"
_cell_formula_units_Z 32
_cell_length_a 5.728915
_cell_length_b 27.715909
_cell_length_c 10.062179
_cell_angle_alpha 90.000000
_cell_angle_beta 75.797463
_cell_angle_gamma 90.000000
_cell_volume 1548.859449
_symmetry_space_group_name_H-M "C 2/C"
_symmetry_group_IT_number 15
_symmetry_cell_setting 'monoclinic'
loop_
_space_group_symop_operation_xyz
x,y,z
-x,y,1/2-z
-x,-y,-z
x,-y,1/2+z
1/2+x,1/2+y,z
1/2-x,1/2+y,1/2-z
1/2-x,1/2-y,-z
1/2+x,1/2-y,1/2+z
loop_
_atom_site_type_symbol
_atom_site_label
_atom_site_fract_x
_atom_site_fract_y
_atom_site_fract_z
Si Si1 0.504659 0.231842 0.099289
Si Si2 0.275098 0.468827 0.671381
Si Si3 0.188180 0.672577 0.605502
Si Si4 0.441203 0.426209 0.103772
O O1 0.500000 0.214659 0.250000
O O2 0.339484 0.279721 0.122125
O O3 0.423117 0.188536 0.017629
O O4 0.750000 0.250000 0.000000
O O5 0.500000 0.463197 0.750000
O O6 0.347651 0.440170 0.527915
O O7 0.278165 0.525611 0.631194
O O8 0.000000 0.456467 0.750000
O O9 0.328845 0.623219 0.569306
O O10 0.000000 0.665172 0.750000
O O11 0.500000 0.417353 0.250000
#
# Coordination Sequence:
#
# PCOD9295447 Si02
#       4
#     8   8   8   8
#     4  11  23  44  66  94 135 173 214 289 349 408
#     4  10  23  46  70 103 148 185 230 296 354 408
#     4  11  23  40  68  97 128 175 234 274 341 424
#     4  10  23  42  71  99 134 185 234 282 345 425
#
# _framework density 20.660366
#
# number of rings (size 3 to 8) (size 9 to 14) (size 15 to 20)
#    0.000    1.500    2.500    1.500    0.000   11.000 
#    4.500    0.000    0.000    0.000    0.000    0.000 
#    0.000    0.000    0.000    0.000    0.000    0.000 
#
# Total GULP energy -89273.509313 kJ/mol
# GULP energy per Si atom -5579.594332 kJ/mol
# Density = 2.061334 g / cm^3
# Si number density = 20.660366 Si / 1000 Ang^3
#
#
#
# Elastic Constant Matrix: (Units=GPa)
#
#
# Indices 1 2 3 4 5 6 
#
# 1 83.6673 50.5247 78.1737 0.0000 -6.9613 0.0000
# 2 50.5247 134.5967 74.5894 0.0000 11.1482 0.0000
# 3 78.1737 74.5894 176.8096 0.0000 0.8718 0.0000
# 4 0.0000 0.0000 0.0000 115.2921 0.0000 22.2672
# 5 -6.9613 11.1482 0.8718 0.0000 41.5707 0.0000
# 6 0.0000 0.0000 0.0000 22.2672 0.0000 13.3447
#
#
#
# Elastic Compliance Matrix: (Units=1/GPa)
#
#
# Indices 1 2 3 4 5 6 
#
# 1 0.022709 -0.004403 -0.008209 0.000000 0.005156 0.000000
# 2 -0.004403 0.010820 -0.002600 0.000000 -0.003584 0.000000
# 3 -0.008209 -0.002600 0.010387 0.000000 -0.000895 0.000000
# 4 0.000000 0.000000 0.000000 0.012798 0.000000 -0.021355
# 5 0.005156 -0.003584 -0.000895 0.000000 0.025899 0.000000
# 6 0.000000 0.000000 0.000000 -0.021355 0.000000 0.110570
#
#
# Mechanical properties :
#
#
# Convention : Reuss Voigt Hill
#
# Bulk Modulus (GPa) = 74.11425 89.07213 81.59319
# Shear Modulus (GPa) = 21.91981 46.82723 34.37352
#
# Velocity S-wave (km/s) = 3.26077 4.76597 4.08332
# Velocity P-wave (km/s) = 7.08007 8.57275 7.86192
#
# Compressibility (1/GPa) = 0.01349268
#
# Stress axis : x y z
#
# Youngs Moduli (GPa) = 44.03452 92.41962 96.27783
#
# Poissons Ratio (x) = 0.40689 0.79032
# Poissons Ratio (y) = 0.19387 0.25036
# Poissons Ratio (z) = 0.36147 0.24033
#
# Static dielectric constant tensor:
#      x y z
#    x 1.831800 0.000000 0.033380 
#    y 0.000000 1.628370 0.000000 
#    z 0.033380 0.000000 1.714950 
# 
# From -- ./inp_files/20138.got.cif
#   From: 2010.05.17/outbox.cif.g08.bks.cpg/sg15_11_cif.got.tgz:20138.got - 2010.06.03 18:47:42.
