data_PCOD9295021
_publ_section_title
;
Structure prediction by ZEFSAII (Michael W. Deem and Ramdas Pophale) SiO2 
 PCOD9295021
Probable space group: C 2/C
;
_chemical_formula_sum "Si O2"
_cell_formula_units_Z 48
_cell_length_a 13.332832
_cell_length_b 16.631376
_cell_length_c 11.532185
_cell_angle_alpha 90.000000
_cell_angle_beta 108.074416
_cell_angle_gamma 90.000000
_cell_volume 2430.999306
_symmetry_space_group_name_H-M "C 2/C"
_symmetry_group_IT_number 15
_symmetry_cell_setting 'monoclinic'
loop_
_space_group_symop_operation_xyz
x,y,z
-x,y,1/2-z
-x,-y,-z
x,-y,1/2+z
1/2+x,1/2+y,z
1/2-x,1/2+y,1/2-z
1/2-x,1/2-y,-z
1/2+x,1/2-y,1/2+z
loop_
_atom_site_type_symbol
_atom_site_label
_atom_site_fract_x
_atom_site_fract_y
_atom_site_fract_z
Si Si1 0.883704 0.921230 0.747061
Si Si2 0.204009 0.096520 0.804340
Si Si3 0.375422 0.953125 0.187686
Si Si4 0.611652 0.237420 0.227455
Si Si5 0.298043 0.831394 0.963345
Si Si6 0.246909 0.115444 0.087314
O O1 0.796422 0.878802 0.634855
O O2 0.855413 0.897950 0.868669
O O3 0.000000 0.897926 0.750000
O O4 0.865941 0.016509 0.728909
O O5 0.314317 0.076211 0.781061
O O6 0.148806 0.171353 0.722449
O O7 0.220187 0.118959 0.943592
O O8 0.500000 0.960536 0.250000
O O9 0.322994 0.038542 0.136112
O O10 0.348170 0.888701 0.078056
O O11 0.500000 0.234822 0.250000
O O12 0.618868 0.191795 0.107408
O O13 0.694239 0.193015 0.341682
O O14 0.250000 0.750000 0.000000
#
# Coordination Sequence:
#
# PCOD9295021 Si02
#       6
#     8   8   8   8   8   8
#     4  10  23  42  67  93 126 171 209 258 322 373
#     4  11  22  42  63  94 132 163 214 257 315 386
#     4  11  24  42  68  92 124 176 214 259 320 372
#     4  11  24  40  63  95 129 168 208 263 326 370
#     4  11  23  45  64  93 132 161 220 266 302 391
#     4  10  23  42  61  96 129 160 217 266 305 389
#
# _framework density 19.744966999999999
#
# number of rings (size 3 to 8) (size 9 to 14) (size 15 to 20)
#    0.000    1.333    3.333    1.500    2.333    3.333 
#    0.000    0.000    0.000    0.000    0.000    0.000 
#    0.000    0.000    0.000    0.000    0.000    0.000 
#
# Total GULP energy -134201.573508 kJ/mol
# GULP energy per Si atom -5591.732230 kJ/mol
# Density = 1.970003 g / cm^3
# Si number density = 19.744967 Si / 1000 Ang^3
#
#
#
# Elastic Constant Matrix: (Units=GPa)
#
#
# Indices 1 2 3 4 5 6 
#
# 1 145.4676 18.0225 21.7354 0.0000 -9.2112 0.0000
# 2 18.0225 100.1354 -0.1863 0.0000 -1.2814 0.0000
# 3 21.7354 -0.1863 68.4098 0.0000 -19.3671 0.0000
# 4 0.0000 0.0000 0.0000 19.0215 0.0000 -11.7258
# 5 -9.2112 -1.2814 -19.3671 0.0000 18.7949 0.0000
# 6 0.0000 0.0000 0.0000 -11.7258 0.0000 18.1397
#
#
#
# Elastic Compliance Matrix: (Units=1/GPa)
#
#
# Indices 1 2 3 4 5 6 
#
# 1 0.007424 -0.001320 -0.001917 0.000000 0.001573 0.000000
# 2 -0.001320 0.010234 0.000652 0.000000 0.000723 0.000000
# 3 -0.001917 0.000652 0.021143 0.000000 0.020892 0.000000
# 4 0.000000 0.000000 0.000000 0.087399 0.000000 0.056496
# 5 0.001573 0.000723 0.020892 0.000000 0.075554 0.000000
# 6 0.000000 0.000000 0.000000 0.056496 0.000000 0.091648
#
#
# Mechanical properties :
#
#
# Convention : Reuss Voigt Hill
#
# Bulk Modulus (GPa) = 29.73384 43.68402 36.70893
# Shear Modulus (GPa) = 16.14034 29.48731 22.81383
#
# Velocity S-wave (km/s) = 2.86219 3.86866 3.40284
# Velocity P-wave (km/s) = 5.10044 6.49057 5.83704
#
# Compressibility (1/GPa) = 0.03363171
#
# Stress axis : x y z
#
# Youngs Moduli (GPa) = 134.69984 97.70932 47.29658
#
# Poissons Ratio (x) = 0.12894 0.09067
# Poissons Ratio (y) = 0.17775 -0.03082
# Poissons Ratio (z) = 0.25822 -0.06368
#
# Static dielectric constant tensor:
#      x y z
#    x 1.667750 0.000000 -0.020840 
#    y 0.000000 1.688320 0.000000 
#    z -0.020840 0.000000 1.668180 
# 
# From -- ./inp_files/87469.got.cif
#   From: 2010.05.17/outbox.cif.g08.bks.cpg/sg15_44_cif.got.tgz:87469.got - 2010.06.03 18:47:42.
