data_PCOD9295195
_publ_section_title
;
Structure prediction by ZEFSAII (Michael W. Deem and Ramdas Pophale) SiO2 
 PCOD9295195
Probable space group: C 2/C
;
_chemical_formula_sum "Si O2"
_cell_formula_units_Z 52
_cell_length_a 14.040077
_cell_length_b 20.107809
_cell_length_c 11.532386
_cell_angle_alpha 90.000000
_cell_angle_beta 130.969390
_cell_angle_gamma 90.000000
_cell_volume 2458.299863
_symmetry_space_group_name_H-M "C 2/C"
_symmetry_group_IT_number 15
_symmetry_cell_setting 'monoclinic'
loop_
_space_group_symop_operation_xyz
x,y,z
-x,y,1/2-z
-x,-y,-z
x,-y,1/2+z
1/2+x,1/2+y,z
1/2-x,1/2+y,1/2-z
1/2-x,1/2-y,-z
1/2+x,1/2-y,1/2+z
loop_
_atom_site_type_symbol
_atom_site_label
_atom_site_fract_x
_atom_site_fract_y
_atom_site_fract_z
Si Si1 0.694587 0.343827 0.062056
Si Si2 0.662986 0.926863 0.149393
Si Si3 0.000000 0.267206 0.750000
Si Si4 0.778373 0.194281 0.175615
Si Si5 0.965843 0.173843 0.517898
Si Si6 0.625729 0.925947 0.664413
Si Si7 0.778942 0.371843 0.541589
O O1 0.806157 0.387881 0.207234
O O2 0.714288 0.265261 0.103373
O O3 0.571661 0.367624 0.034959
O O4 0.684268 0.341867 0.915037
O O5 0.688816 0.005397 0.175756
O O6 0.516753 0.922359 0.994375
O O7 0.737501 0.893547 0.103042
O O8 0.972695 0.223469 0.841050
O O9 0.126079 0.308969 0.878493
O O10 0.893975 0.209055 0.353977
O O11 0.691087 0.140707 0.170143
O O12 0.855617 0.138959 0.504582
O O13 0.644169 0.924081 0.817812
#
# Coordination Sequence:
#
# PCOD9295195 Si02
#       7
#     8   8   4   8   8   8   8
#     4  11  24  40  66  95 130 179 219 258 329 388
#     4  11  23  41  68  95 130 166 221 270 319 398
#     4  12  20  36  66  96 128 164 212 266 332 380
#     4  10  24  42  63  94 134 172 217 270 315 386
#     4  11  22  39  62  93 133 168 207 267 324 389
#     4  10  23  42  66  95 129 168 214 272 328 373
#     4  11  22  39  62  96 125 165 214 269 326 380
#
# _framework density 21.152830000000002
#
# number of rings (size 3 to 8) (size 9 to 14) (size 15 to 20)
#    0.000    1.231    1.538    4.615    4.308    0.615 
#    0.000    3.077    6.769    0.000    0.000    0.000 
#    0.000    0.000    0.000    0.000    0.000    0.000 
#
# Total GULP energy -145117.025423 kJ/mol
# GULP energy per Si atom -5581.424055 kJ/mol
# Density = 2.110469 g / cm^3
# Si number density = 21.152830 Si / 1000 Ang^3
#
#
#
# Elastic Constant Matrix: (Units=GPa)
#
#
# Indices 1 2 3 4 5 6 
#
# 1 71.1464 2.5689 8.6741 0.0000 -8.6962 0.0000
# 2 2.5689 62.6427 4.5897 0.0000 -0.2011 0.0000
# 3 8.6741 4.5897 62.8045 0.0000 -27.0181 0.0000
# 4 0.0000 0.0000 0.0000 16.8060 0.0000 -4.6817
# 5 -8.6962 -0.2011 -27.0181 0.0000 34.4162 0.0000
# 6 0.0000 0.0000 0.0000 -4.6817 0.0000 6.8838
#
#
#
# Elastic Compliance Matrix: (Units=1/GPa)
#
#
# Indices 1 2 3 4 5 6 
#
# 1 0.014539 -0.000543 -0.000588 0.000000 0.003209 0.000000
# 2 -0.000543 0.016105 -0.001692 0.000000 -0.001371 0.000000
# 3 -0.000588 -0.001692 0.024248 0.000000 0.018877 0.000000
# 4 0.000000 0.000000 0.000000 0.073411 0.000000 0.049927
# 5 0.003209 -0.001371 0.018877 0.000000 0.044678 0.000000
# 6 0.000000 0.000000 0.000000 0.049927 0.000000 0.179224
#
#
# Mechanical properties :
#
#
# Convention : Reuss Voigt Hill
#
# Bulk Modulus (GPa) = 20.30565 25.36212 22.83388
# Shear Modulus (GPa) = 13.35947 23.67194 18.51570
#
# Velocity S-wave (km/s) = 2.51583 3.34891 2.96181
# Velocity P-wave (km/s) = 4.24965 5.19322 4.74495
#
# Compressibility (1/GPa) = 0.04924739
#
# Stress axis : x y z
#
# Youngs Moduli (GPa) = 68.78039 62.09111 41.24021
#
# Poissons Ratio (x) = 0.03371 0.02424
# Poissons Ratio (y) = 0.03734 0.06977
# Poissons Ratio (z) = 0.04043 0.10505
#
# Static dielectric constant tensor:
#      x y z
#    x 1.812620 0.000000 0.012690 
#    y 0.000000 1.773800 0.000000 
#    z 0.012690 0.000000 1.787930 
# 
# From -- ./inp_files/99842.got.cif
#   From: 2010.05.17/outbox.cif.g08.bks.cpg/sg15_50_cif.got.tgz:99842.got - 2010.06.03 18:47:42.
