data_PCOD9295772
_publ_section_title
;
Structure prediction by ZEFSAII (Michael W. Deem and Ramdas Pophale) SiO2 
 PCOD9295772
Probable space group: C 2/C
;
_chemical_formula_sum "Si O2"
_cell_formula_units_Z 36
_cell_length_a 14.063273
_cell_length_b 5.378849
_cell_length_c 33.041679
_cell_angle_alpha 90.000000
_cell_angle_beta 145.013203
_cell_angle_gamma 90.000000
_cell_volume 1433.132052
_symmetry_space_group_name_H-M "C 2/C"
_symmetry_group_IT_number 15
_symmetry_cell_setting 'monoclinic'
loop_
_space_group_symop_operation_xyz
x,y,z
-x,y,1/2-z
-x,-y,-z
x,-y,1/2+z
1/2+x,1/2+y,z
1/2-x,1/2+y,1/2-z
1/2-x,1/2-y,-z
1/2+x,1/2-y,1/2+z
loop_
_atom_site_type_symbol
_atom_site_label
_atom_site_fract_x
_atom_site_fract_y
_atom_site_fract_z
Si Si1 0.346340 0.833963 0.772081
Si Si2 0.946010 0.727948 0.022900
Si Si3 0.729750 0.387667 0.895106
Si Si4 0.500000 0.637508 0.750000
Si Si5 0.869976 0.520141 0.575356
O O1 0.247195 0.589554 0.751000
O O2 0.384745 0.804432 0.738244
O O3 0.519002 0.846350 0.856833
O O4 0.952082 0.517521 0.060267
O O5 0.130511 0.799712 0.074184
O O6 0.844629 0.612991 0.950167
O O7 0.821828 0.937388 0.996113
O O8 0.605079 0.467895 0.817037
O O9 0.638487 0.273008 0.902184
#
# Coordination Sequence:
#
# PCOD9295772 Si02
#       5
#     8   8   8   4   8
#     4  12  28  49  74 110 150 198 251 303 375 442
#     4  10  23  43  69 105 137 190 244 302 365 436
#     4  11  23  45  69 105 141 190 243 298 370 437
#     4  12  26  48  74 106 150 194 244 310 370 446
#     4  11  23  44  71 100 143 189 244 304 361 436
#
# _framework density 25.119806000000001
#
# number of rings (size 3 to 8) (size 9 to 14) (size 15 to 20)
#    0.000    0.889    2.222    4.000    0.000    5.333 
#   16.000    0.000    0.000    0.000    0.000    0.000 
#    0.000    0.000    0.000    0.000    0.000    0.000 
#
# Total GULP energy -100789.549779 kJ/mol
# GULP energy per Si atom -5599.419432 kJ/mol
# Density = 2.506263 g / cm^3
# Si number density = 25.119806 Si / 1000 Ang^3
#
#
#
# Elastic Constant Matrix: (Units=GPa)
#
#
# Indices 1 2 3 4 5 6 
#
# 1 87.9552 38.6685 18.3476 0.0007 -13.5587 0.0003
# 2 38.6685 104.1848 32.5481 -0.0020 0.1387 0.0005
# 3 18.3476 32.5481 130.3196 0.0012 -18.7774 -0.0001
# 4 0.0007 -0.0020 0.0012 39.5685 0.0005 -2.1871
# 5 -13.5587 0.1387 -18.7774 0.0005 42.1967 -0.0001
# 6 0.0003 0.0005 -0.0001 -2.1871 -0.0001 5.3124
#
#
#
# Elastic Compliance Matrix: (Units=1/GPa)
#
#
# Indices 1 2 3 4 5 6 
#
# 1 0.014448 -0.005361 -0.000025 -0.000001 0.004649 0.000000
# 2 -0.005361 0.012464 -0.002791 0.000001 -0.003006 -0.000001
# 3 -0.000025 -0.002791 0.008948 0.000000 0.003983 0.000000
# 4 -0.000001 0.000001 0.000000 0.025861 -0.000001 0.010647
# 5 0.004649 -0.003006 0.003983 -0.000001 0.026974 0.000000
# 6 0.000000 -0.000001 0.000000 0.010647 0.000000 0.192622
#
#
# Mechanical properties :
#
#
# Convention : Reuss Voigt Hill
#
# Bulk Modulus (GPa) = 51.26815 55.73199 53.50007
# Shear Modulus (GPa) = 16.43795 32.94189 24.68992
#
# Velocity S-wave (km/s) = 2.56086 3.62524 3.13850
# Velocity P-wave (km/s) = 5.40350 6.30538 5.87178
#
# Compressibility (1/GPa) = 0.01950529
#
# Stress axis : x y z
#
# Youngs Moduli (GPa) = 69.21312 80.23119 111.75626
#
# Poissons Ratio (x) = 0.43010 0.00284
# Poissons Ratio (y) = 0.37103 0.31194
# Poissons Ratio (z) = 0.00176 0.22395
#
# Static dielectric constant tensor:
#      x y z
#    x 2.044090 0.000000 0.028680 
#    y 0.000000 2.082930 0.000000 
#    z 0.028680 0.000000 1.943090 
# 
# From -- ./inp_files/241439.got.cif
#   From: 2010.05.17/outbox.cif.g08.bks.cpg/sg15_121_cif.got.tgz:241439.got - 2010.06.03 18:47:42.
