data_PCOD9295639
_publ_section_title
;
Structure prediction by ZEFSAII (Michael W. Deem and Ramdas Pophale) SiO2 
 PCOD9295639
Probable space group: C 2/C
;
_chemical_formula_sum "Si O2"
_cell_formula_units_Z 36
_cell_length_a 12.476980
_cell_length_b 5.996684
_cell_length_c 20.425038
_cell_angle_alpha 90.000000
_cell_angle_beta 110.559004
_cell_angle_gamma 90.000000
_cell_volume 1430.881479
_symmetry_space_group_name_H-M "C 2/C"
_symmetry_group_IT_number 15
_symmetry_cell_setting 'monoclinic'
loop_
_space_group_symop_operation_xyz
x,y,z
-x,y,1/2-z
-x,-y,-z
x,-y,1/2+z
1/2+x,1/2+y,z
1/2-x,1/2+y,1/2-z
1/2-x,1/2-y,-z
1/2+x,1/2-y,1/2+z
loop_
_atom_site_type_symbol
_atom_site_label
_atom_site_fract_x
_atom_site_fract_y
_atom_site_fract_z
Si Si1 0.681090 0.549036 0.950629
Si Si2 0.088238 0.399122 0.670621
Si Si3 0.000000 0.299720 0.250000
Si Si4 0.088713 0.708457 0.029846
Si Si5 0.328006 0.414230 0.195915
O O1 0.782080 0.381024 0.950889
O O2 0.634623 0.632585 0.870590
O O3 0.750000 0.750000 0.000000
O O4 0.594740 0.416128 0.980405
O O5 0.070496 0.248281 0.603006
O O6 0.192520 0.560694 0.671789
O O7 0.129556 0.260905 0.742073
O O8 0.993517 0.560099 0.681455
O O9 0.111011 0.145044 0.272324
O O10 0.000000 0.500000 0.000000
#
# Coordination Sequence:
#
# PCOD9295639 Si02
#       5
#     8   8   4   8   8
#     4  10  24  41  67  98 138 179 230 292 351 418
#     4  11  24  41  69  97 140 180 229 290 342 416
#     4  12  24  42  68  98 134 184 230 280 352 408
#     4  10  23  43  66  99 136 184 233 286 353 424
#     4  11  24  42  66 100 137 180 229 287 346 415
#
# _framework density 25.159316
#
# number of rings (size 3 to 8) (size 9 to 14) (size 15 to 20)
#    0.000    1.333    2.222    2.000    3.111    6.222 
#    0.000    0.000    0.000    0.000    0.000    0.000 
#    0.000    0.000    0.000    0.000    0.000    0.000 
#
# Total GULP energy -100617.130897 kJ/mol
# GULP energy per Si atom -5589.840605 kJ/mol
# Density = 2.510205 g / cm^3
# Si number density = 25.159316 Si / 1000 Ang^3
#
#
#
# Elastic Constant Matrix: (Units=GPa)
#
#
# Indices 1 2 3 4 5 6 
#
# 1 97.0710 4.4138 14.6964 0.0000 -44.5605 0.0000
# 2 4.4138 46.3613 37.5477 0.0000 -20.8560 0.0000
# 3 14.6964 37.5477 193.2066 0.0000 -44.5501 0.0000
# 4 0.0000 0.0000 0.0000 154.8086 0.0000 -92.0543
# 5 -44.5605 -20.8560 -44.5501 0.0000 49.5917 0.0000
# 6 0.0000 0.0000 0.0000 -92.0543 0.0000 147.3969
#
#
#
# Elastic Compliance Matrix: (Units=1/GPa)
#
#
# Indices 1 2 3 4 5 6 
#
# 1 0.020294 0.006451 0.002564 0.000000 0.023251 0.000000
# 2 0.006451 0.030395 -0.002666 0.000000 0.016185 0.000000
# 3 0.002564 -0.002666 0.007279 0.000000 0.007722 0.000000
# 4 0.000000 0.000000 0.000000 0.010276 0.000000 0.006417
# 5 0.023251 0.016185 0.007722 0.000000 0.054801 0.000000
# 6 0.000000 0.000000 0.000000 0.006417 0.000000 0.010792
#
#
# Mechanical properties :
#
#
# Convention : Reuss Voigt Hill
#
# Bulk Modulus (GPa) = 14.15085 49.99498 32.07291
# Shear Modulus (GPa) = 34.55564 89.02484 61.79024
#
# Velocity S-wave (km/s) = 3.71006 5.95494 4.96114
# Velocity P-wave (km/s) = 4.89790 8.19733 6.75224
#
# Compressibility (1/GPa) = 0.07066715
#
# Stress axis : x y z
#
# Youngs Moduli (GPa) = 49.27645 32.89965 137.37350
#
# Poissons Ratio (x) = -0.21224 -0.35222
# Poissons Ratio (y) = -0.31789 0.36621
# Poissons Ratio (z) = -0.12634 0.08770
#
# Static dielectric constant tensor:
#      x y z
#    x 1.886760 0.000000 0.085630 
#    y 0.000000 2.130920 0.000000 
#    z 0.085630 0.000000 1.952950 
# 
# From -- ./inp_files/241519.got.cif
#   From: 2010.05.17/outbox.cif.g08.bks.cpg/sg15_121_cif.got.tgz:241519.got - 2010.06.03 18:47:42.
