data_PCOD9295154
_publ_section_title
;
Structure prediction by ZEFSAII (Michael W. Deem and Ramdas Pophale) SiO2 
 PCOD9295154
Probable space group: C 2/C
;
_chemical_formula_sum "Si O2"
_cell_formula_units_Z 36
_cell_length_a 12.888351
_cell_length_b 5.159064
_cell_length_c 24.189992
_cell_angle_alpha 90.000000
_cell_angle_beta 110.457128
_cell_angle_gamma 90.000000
_cell_volume 1506.999061
_symmetry_space_group_name_H-M "C 2/C"
_symmetry_group_IT_number 15
_symmetry_cell_setting 'monoclinic'
loop_
_space_group_symop_operation_xyz
x,y,z
-x,y,1/2-z
-x,-y,-z
x,-y,1/2+z
1/2+x,1/2+y,z
1/2-x,1/2+y,1/2-z
1/2-x,1/2-y,-z
1/2+x,1/2-y,1/2+z
loop_
_atom_site_type_symbol
_atom_site_label
_atom_site_fract_x
_atom_site_fract_y
_atom_site_fract_z
Si Si1 0.286427 0.161893 0.659742
Si Si2 0.193446 0.166499 0.906288
Si Si3 0.060868 0.748719 0.534611
Si Si4 0.500000 0.369676 0.750000
Si Si5 0.540504 0.439708 0.135493
O O1 0.300872 0.366983 0.612191
O O2 0.384460 0.218099 0.720662
O O3 0.159198 0.197261 0.653633
O O4 0.302371 0.867972 0.643622
O O5 0.309459 0.231546 0.956789
O O6 0.070469 0.201098 0.907456
O O7 0.000000 0.500000 0.500000
O O8 0.052944 0.801744 0.599690
O O9 0.000000 0.000000 0.500000
O O10 0.483868 0.517405 0.804588
#
# Coordination Sequence:
#
# PCOD9295154 Si02
#       5
#     8   8   8   4   8
#     4  10  23  42  65  97 134 169 213 267 324 391
#     4  10  23  43  67  96 128 172 220 265 328 386
#     4  11  24  43  67  95 129 172 220 269 322 384
#     4  10  24  42  70 102 130 174 218 264 330 390
#     4  10  24  44  68  97 134 171 216 271 325 387
#
# _framework density 23.888534
#
# number of rings (size 3 to 8) (size 9 to 14) (size 15 to 20)
#    0.000    1.778    0.000    2.667    0.000   24.889 
#    0.000    0.000    0.000    0.000    0.000    0.000 
#    0.000    0.000    0.000    0.000    0.000    0.000 
#
# Total GULP energy -100493.995924 kJ/mol
# GULP energy per Si atom -5582.999774 kJ/mol
# Density = 2.383416 g / cm^3
# Si number density = 23.888534 Si / 1000 Ang^3
#
#
#
# Elastic Constant Matrix: (Units=GPa)
#
#
# Indices 1 2 3 4 5 6 
#
# 1 241.8817 29.8210 64.9208 0.0000 54.3758 0.0000
# 2 29.8210 67.4256 29.4900 0.0000 13.4414 0.0000
# 3 64.9208 29.4900 110.1316 0.0000 26.2347 0.0000
# 4 0.0000 0.0000 0.0000 35.5601 0.0000 13.0916
# 5 54.3758 13.4414 26.2347 0.0000 73.3375 0.0000
# 6 0.0000 0.0000 0.0000 13.0916 0.0000 40.2905
#
#
#
# Elastic Compliance Matrix: (Units=1/GPa)
#
#
# Indices 1 2 3 4 5 6 
#
# 1 0.005563 -0.000823 -0.002309 0.000000 -0.003148 0.000000
# 2 -0.000823 0.017095 -0.003817 0.000000 -0.001158 0.000000
# 3 -0.002309 -0.003817 0.011903 0.000000 -0.001846 0.000000
# 4 0.000000 0.000000 0.000000 0.031943 0.000000 -0.010379
# 5 -0.003148 -0.001158 -0.001846 0.000000 0.016842 0.000000
# 6 0.000000 0.000000 0.000000 -0.010379 0.000000 0.028192
#
#
# Mechanical properties :
#
#
# Convention : Reuss Voigt Hill
#
# Bulk Modulus (GPa) = 48.39369 74.21141 61.30255
# Shear Modulus (GPa) = 37.78600 49.51808 43.65204
#
# Velocity S-wave (km/s) = 3.98145 4.55783 4.27936
# Velocity P-wave (km/s) = 6.43724 7.67017 7.08059
#
# Compressibility (1/GPa) = 0.02066385
#
# Stress axis : x y z
#
# Youngs Moduli (GPa) = 179.75429 58.49573 84.01181
#
# Poissons Ratio (x) = 0.04814 0.19400
# Poissons Ratio (y) = 0.14793 0.32065
# Poissons Ratio (z) = 0.41508 0.22326
#
# Static dielectric constant tensor:
#      x y z
#    x 1.933360 0.000000 -0.007120 
#    y 0.000000 1.863250 0.000000 
#    z -0.007120 0.000000 1.993120 
# 
# From -- ./inp_files/267032.got.cif
#   From: 2010.05.17/outbox.cif.g08.bks.cpg/sg15_134_cif.got.tgz:267032.got - 2010.06.03 18:47:42.
