data_PCOD9295698
_publ_section_title
;
Structure prediction by ZEFSAII (Michael W. Deem and Ramdas Pophale) SiO2 
 PCOD9295698
Probable space group: C 2/C
;
_chemical_formula_sum "Si O2"
_cell_formula_units_Z 48
_cell_length_a 12.566231
_cell_length_b 11.034162
_cell_length_c 17.746148
_cell_angle_alpha 90.000000
_cell_angle_beta 67.102009
_cell_angle_gamma 90.000000
_cell_volume 2266.741391
_symmetry_space_group_name_H-M "C 2/C"
_symmetry_group_IT_number 15
_symmetry_cell_setting 'monoclinic'
loop_
_space_group_symop_operation_xyz
x,y,z
-x,y,1/2-z
-x,-y,-z
x,-y,1/2+z
1/2+x,1/2+y,z
1/2-x,1/2+y,1/2-z
1/2-x,1/2-y,-z
1/2+x,1/2-y,1/2+z
loop_
_atom_site_type_symbol
_atom_site_label
_atom_site_fract_x
_atom_site_fract_y
_atom_site_fract_z
Si Si1 0.932088 0.370169 0.347462
Si Si2 0.481372 0.572835 0.670420
Si Si3 0.894999 0.820924 0.650737
Si Si4 0.517882 0.081563 0.421882
Si Si5 0.781240 0.750016 0.173308
Si Si6 0.133110 0.816201 0.011932
O O1 0.808595 0.307689 0.362889
O O2 0.000000 0.369711 0.250000
O O3 0.007090 0.281978 0.379854
O O4 0.949723 0.505005 0.376271
O O5 0.500000 0.618552 0.750000
O O6 0.446925 0.433441 0.681221
O O7 0.375549 0.647398 0.664558
O O8 0.592002 0.588022 0.585615
O O9 0.789056 0.773257 0.729945
O O10 0.864007 0.860855 0.574705
O O11 0.649509 0.125435 0.367024
O O12 0.457787 0.208150 0.454807
O O13 0.500000 0.000000 0.500000
O O14 0.250000 0.750000 0.000000
#
# Coordination Sequence:
#
# PCOD9295698 Si02
#       6
#     8   8   8   8   8   8
#     4  10  23  43  67  99 132 179 233 279 342 420
#     4  11  24  43  65  97 134 176 224 278 345 410
#     4  11  23  44  67  95 134 177 225 275 346 411
#     4  11  24  44  67  99 137 176 223 280 349 412
#     4  10  25  41  69 101 132 178 230 285 339 416
#     4  11  25  42  66 100 134 173 224 282 340 410
#
# _framework density 21.175771000000001
#
# number of rings (size 3 to 8) (size 9 to 14) (size 15 to 20)
#    0.000    1.333    1.667    3.000    7.000    6.000 
#    0.000    0.000    0.000    0.000    0.000    0.000 
#    0.000    0.000    0.000    0.000    0.000    0.000 
#
# Total GULP energy -133901.651317 kJ/mol
# GULP energy per Si atom -5579.235472 kJ/mol
# Density = 2.112757 g / cm^3
# Si number density = 21.175771 Si / 1000 Ang^3
#
#
#
# Elastic Constant Matrix: (Units=GPa)
#
#
# Indices 1 2 3 4 5 6 
#
# 1 94.9575 6.9465 57.0141 0.0000 -4.4942 0.0000
# 2 6.9465 67.2854 9.2746 0.0000 -7.8598 0.0000
# 3 57.0141 9.2746 88.2828 0.0000 6.9302 0.0000
# 4 0.0000 0.0000 0.0000 23.3242 0.0000 -7.5963
# 5 -4.4942 -7.8598 6.9302 0.0000 32.3345 0.0000
# 6 0.0000 0.0000 0.0000 -7.5963 0.0000 26.6838
#
#
#
# Elastic Compliance Matrix: (Units=1/GPa)
#
#
# Indices 1 2 3 4 5 6 
#
# 1 0.017994 0.000412 -0.012072 0.000000 0.005189 0.000000
# 2 0.000412 0.015637 -0.002250 0.000000 0.004340 0.000000
# 3 -0.012072 -0.002250 0.019869 0.000000 -0.006483 0.000000
# 4 0.000000 0.000000 0.000000 0.047255 0.000000 0.013452
# 5 0.005189 0.004340 -0.006483 0.000000 0.034092 0.000000
# 6 0.000000 0.000000 0.000000 0.013452 0.000000 0.041306
#
#
# Mechanical properties :
#
#
# Convention : Reuss Voigt Hill
#
# Bulk Modulus (GPa) = 38.93855 44.11068 41.52461
# Shear Modulus (GPa) = 23.52594 28.28787 25.90691
#
# Velocity S-wave (km/s) = 3.33676 3.65891 3.50154
# Velocity P-wave (km/s) = 5.76831 6.22303 5.99998
#
# Compressibility (1/GPa) = 0.02568149
#
# Stress axis : x y z
#
# Youngs Moduli (GPa) = 55.57257 63.95243 50.33083
#
# Poissons Ratio (x) = -0.02637 0.60758
# Poissons Ratio (y) = -0.02291 0.11323
# Poissons Ratio (z) = 0.67085 0.14387
#
# Static dielectric constant tensor:
#      x y z
#    x 1.814880 0.000000 -0.009260 
#    y 0.000000 1.723070 0.000000 
#    z -0.009260 0.000000 1.832280 
# 
# From -- ./inp_files/196465.got.cif
#   From: 2010.05.17/outbox.cif.g08.bks.cpg/sg15_99_cif.got.tgz:196465.got - 2010.06.03 18:47:42.
