data_PCOD9295848
_publ_section_title
;
Structure prediction by ZEFSAII (Michael W. Deem and Ramdas Pophale) SiO2 
 PCOD9295848
Probable space group: C 2/C
;
_chemical_formula_sum "Si O2"
_cell_formula_units_Z 52
_cell_length_a 29.164514
_cell_length_b 16.552170
_cell_length_c 5.590925
_cell_angle_alpha 90.000000
_cell_angle_beta 64.808793
_cell_angle_gamma 90.000000
_cell_volume 2442.250919
_symmetry_space_group_name_H-M "C 2/C"
_symmetry_group_IT_number 15
_symmetry_cell_setting 'monoclinic'
loop_
_space_group_symop_operation_xyz
x,y,z
-x,y,1/2-z
-x,-y,-z
x,-y,1/2+z
1/2+x,1/2+y,z
1/2-x,1/2+y,1/2-z
1/2-x,1/2-y,-z
1/2+x,1/2-y,1/2+z
loop_
_atom_site_type_symbol
_atom_site_label
_atom_site_fract_x
_atom_site_fract_y
_atom_site_fract_z
Si Si1 0.138942 0.205777 0.244813
Si Si2 0.000000 0.107559 0.250000
Si Si3 0.217497 0.548837 0.083428
Si Si4 0.133472 0.316886 0.861537
Si Si5 0.605849 0.542326 0.121042
Si Si6 0.208418 0.811080 0.993591
Si Si7 0.952519 0.759218 0.206791
O O1 0.130249 0.129912 0.093166
O O2 0.193094 0.190799 0.249269
O O3 0.088750 0.203623 0.520570
O O4 0.136923 0.294899 0.133263
O O5 0.954882 0.054410 0.243300
O O6 0.973742 0.167935 0.498118
O O7 0.216509 0.494717 0.327530
O O8 0.168158 0.607994 0.213144
O O9 0.268591 0.603015 0.988643
O O10 0.159555 0.235913 0.698987
O O11 0.076793 0.308152 0.886101
O O12 0.619996 0.495389 0.333289
O O13 0.250000 0.750000 0.000000
O O14 0.000000 0.726104 0.250000
#
# Coordination Sequence:
#
# PCOD9295848 Si02
#       7
#     8   4   8   8   8   8   8
#     4  11  23  39  66  91 135 176 240 271 331 400
#     4  12  22  40  58  92 128 190 230 282 320 398
#     4  11  27  46  72 104 137 173 222 281 352 414
#     4  10  23  43  70  98 133 180 223 282 331 401
#     4  12  26  39  57  88 134 180 220 274 329 377
#     4   9  23  42  68  96 129 177 222 274 336 403
#     4  11  20  38  67  97 128 176 239 282 322 393
#
# _framework density 21.291833
#
# number of rings (size 3 to 8) (size 9 to 14) (size 15 to 20)
#    0.000    1.231    3.077    1.385   10.769    2.462 
#    0.000    0.000    0.000    0.923    0.000    0.000 
#    0.000    0.000    0.000    0.000    0.000    0.000 
#
# Total GULP energy -144968.284099 kJ/mol
# GULP energy per Si atom -5575.703235 kJ/mol
# Density = 2.124337 g / cm^3
# Si number density = 21.291833 Si / 1000 Ang^3
#
#
#
# Elastic Constant Matrix: (Units=GPa)
#
#
# Indices 1 2 3 4 5 6 
#
# 1 145.0559 36.0875 16.1257 0.0000 23.1482 0.0000
# 2 36.0875 83.9885 41.5645 0.0000 10.9150 0.0000
# 3 16.1257 41.5645 75.3917 0.0000 11.4871 0.0000
# 4 0.0000 0.0000 0.0000 32.7684 0.0000 -13.8564
# 5 23.1482 10.9150 11.4871 0.0000 26.2629 0.0000
# 6 0.0000 0.0000 0.0000 -13.8564 0.0000 37.1797
#
#
#
# Elastic Compliance Matrix: (Units=1/GPa)
#
#
# Indices 1 2 3 4 5 6 
#
# 1 0.008688 -0.003366 0.001019 0.000000 -0.006704 0.000000
# 2 -0.003366 0.017911 -0.009077 0.000000 -0.000507 0.000000
# 3 0.001019 -0.009077 0.018870 0.000000 -0.005379 0.000000
# 4 0.000000 0.000000 0.000000 0.036226 0.000000 0.013501
# 5 -0.006704 -0.000507 -0.005379 0.000000 0.046549 0.000000
# 6 0.000000 0.000000 0.000000 0.013501 0.000000 0.031928
#
#
# Mechanical properties :
#
#
# Convention : Reuss Voigt Hill
#
# Bulk Modulus (GPa) = 44.20830 54.66573 49.43702
# Shear Modulus (GPa) = 26.23837 33.28609 29.76223
#
# Velocity S-wave (km/s) = 3.51425 3.95818 3.74280
# Velocity P-wave (km/s) = 6.10530 6.82787 6.47667
#
# Compressibility (1/GPa) = 0.02262019
#
# Stress axis : x y z
#
# Youngs Moduli (GPa) = 115.10277 55.83270 52.99381
#
# Poissons Ratio (x) = 0.18793 -0.05400
# Poissons Ratio (y) = 0.38743 0.48104
# Poissons Ratio (z) = -0.11728 0.50681
#
# Static dielectric constant tensor:
#      x y z
#    x 1.861560 0.000000 0.163660 
#    y 0.000000 1.702810 0.000000 
#    z 0.163660 0.000000 2.159560 
# 
# From -- ./inp_files/18203.got.cif
#   From: 2010.05.17/outbox.cif.g08.bks.cpg/sg15_10_cif.got.tgz:18203.got - 2010.06.03 18:47:42.
