data_PCOD9295234
_publ_section_title
;
Structure prediction by ZEFSAII (Michael W. Deem and Ramdas Pophale) SiO2 
 PCOD9295234
Probable space group: C 2/C
;
_chemical_formula_sum "Si O2"
_cell_formula_units_Z 52
_cell_length_a 29.585311
_cell_length_b 15.980789
_cell_length_c 15.140402
_cell_angle_alpha 90.000000
_cell_angle_beta 18.162217
_cell_angle_gamma 90.000000
_cell_volume 2231.311857
_symmetry_space_group_name_H-M "C 2/C"
_symmetry_group_IT_number 15
_symmetry_cell_setting 'monoclinic'
loop_
_space_group_symop_operation_xyz
x,y,z
-x,y,1/2-z
-x,-y,-z
x,-y,1/2+z
1/2+x,1/2+y,z
1/2-x,1/2+y,1/2-z
1/2-x,1/2-y,-z
1/2+x,1/2-y,1/2+z
loop_
_atom_site_type_symbol
_atom_site_label
_atom_site_fract_x
_atom_site_fract_y
_atom_site_fract_z
Si Si1 0.503131 0.396845 0.841874
Si Si2 0.740360 0.359824 0.545657
Si Si3 0.250804 0.942436 0.061584
Si Si4 0.000000 0.196486 0.750000
Si Si5 0.065457 0.547123 0.033935
Si Si6 0.686929 0.566412 0.488070
Si Si7 0.626948 0.210801 0.858562
O O1 0.500000 0.357105 0.750000
O O2 0.605917 0.354159 0.725102
O O3 0.574706 0.488863 0.696330
O O4 0.346530 0.410377 0.177319
O O5 0.741510 0.455939 0.573208
O O6 0.718738 0.293838 0.663802
O O7 0.876757 0.331712 0.232303
O O8 0.420921 0.925683 0.751093
O O9 0.188749 0.904827 0.086155
O O10 0.135812 0.135585 0.514475
O O11 0.009742 0.250636 0.643115
O O12 0.000000 0.525946 0.250000
O O13 0.157002 0.472018 0.824412
O O14 0.169323 0.628415 0.836707
#
# Coordination Sequence:
#
# PCOD9295234 Si02
#       7
#     8   8   8   4   8   8   8
#     4  11  20  37  67 100 126 168 230 274 310 391
#     4  10  23  42  67  91 133 179 218 260 342 399
#     4  11  23  41  72  97 131 173 229 274 327 394
#     4  12  24  42  72 100 134 174 232 268 336 396
#     4  12  25  43  69 100 132 175 223 280 335 386
#     4  11  23  42  68  99 130 177 228 269 320 406
#     4  11  23  42  67  94 137 177 208 276 343 395
#
# _framework density 23.304676000000001
#
# number of rings (size 3 to 8) (size 9 to 14) (size 15 to 20)
#    0.000    0.923    4.615    5.077    2.154    0.000 
#    0.000    4.615    0.000    0.000    0.000    0.000 
#    0.000    0.000    0.000    0.000    0.000    0.000 
#
# Total GULP energy -144971.290131 kJ/mol
# GULP energy per Si atom -5575.818851 kJ/mol
# Density = 2.325163 g / cm^3
# Si number density = 23.304676 Si / 1000 Ang^3
#
#
#
# Elastic Constant Matrix: (Units=GPa)
#
#
# Indices 1 2 3 4 5 6 
#
# 1 94.6925 25.7967 47.6596 -0.0003 7.9545 0.0003
# 2 25.7967 80.8523 29.5874 -0.0002 8.1972 0.0003
# 3 47.6596 29.5874 130.2405 -0.0002 27.2853 0.0002
# 4 -0.0003 -0.0002 -0.0002 17.1946 0.0002 8.5322
# 5 7.9545 8.1972 27.2853 0.0002 48.9531 -0.0003
# 6 0.0003 0.0003 0.0002 8.5322 -0.0003 11.1070
#
#
#
# Elastic Compliance Matrix: (Units=1/GPa)
#
#
# Indices 1 2 3 4 5 6 
#
# 1 0.013497 -0.002746 -0.004474 0.000000 0.000761 0.000000
# 2 -0.002746 0.014065 -0.002027 0.000000 -0.000779 -0.000001
# 3 -0.004474 -0.002027 0.010815 0.000000 -0.004962 0.000000
# 4 0.000000 0.000000 0.000000 0.093982 -0.000001 -0.072195
# 5 0.000761 -0.000779 -0.004962 -0.000001 0.023200 0.000001
# 6 0.000000 -0.000001 0.000000 -0.072195 0.000001 0.145491
#
#
# Mechanical properties :
#
#
# Convention : Reuss Voigt Hill
#
# Bulk Modulus (GPa) = 50.29645 56.87475 53.58560
# Shear Modulus (GPa) = 15.32927 28.96705 22.14816
#
# Velocity S-wave (km/s) = 2.56750 3.52940 3.08616
# Velocity P-wave (km/s) = 5.51529 6.40834 5.97851
#
# Compressibility (1/GPa) = 0.01988212
#
# Stress axis : x y z
#
# Youngs Moduli (GPa) = 74.09212 71.09751 92.46003
#
# Poissons Ratio (x) = 0.19523 0.41371
# Poissons Ratio (y) = 0.20345 0.18743
# Poissons Ratio (z) = 0.33152 0.14413
#
# Static dielectric constant tensor:
#      x y z
#    x 1.933520 0.000000 -0.034150 
#    y 0.000000 1.868570 0.000000 
#    z -0.034150 0.000000 1.929080 
# 
# From -- ./inp_files/182850.got.cif
#   From: 2010.05.17/outbox.cif.g08.bks.cpg/sg15_92_cif.got.tgz:182850.got - 2010.06.03 18:47:42.
