data_PCOD9295462
_publ_section_title
;
Structure prediction by ZEFSAII (Michael W. Deem and Ramdas Pophale) SiO2 
 PCOD9295462
Probable space group: C 2/C
;
_chemical_formula_sum "Si O2"
_cell_formula_units_Z 32
_cell_length_a 7.453220
_cell_length_b 7.389671
_cell_length_c 26.011425
_cell_angle_alpha 90.000000
_cell_angle_beta 52.835299
_cell_angle_gamma 90.000000
_cell_volume 1141.663831
_symmetry_space_group_name_H-M "C 2/C"
_symmetry_group_IT_number 15
_symmetry_cell_setting 'monoclinic'
loop_
_space_group_symop_operation_xyz
x,y,z
-x,y,1/2-z
-x,-y,-z
x,-y,1/2+z
1/2+x,1/2+y,z
1/2-x,1/2+y,1/2-z
1/2-x,1/2-y,-z
1/2+x,1/2-y,1/2+z
loop_
_atom_site_type_symbol
_atom_site_label
_atom_site_fract_x
_atom_site_fract_y
_atom_site_fract_z
Si Si1 0.681338 0.136202 0.945006
Si Si2 0.760868 0.159059 0.712465
Si Si3 0.132459 0.020714 0.908221
Si Si4 0.879284 0.539753 0.657041
O O1 0.731466 0.057775 0.879003
O O2 0.899923 0.128180 0.943694
O O3 0.595900 0.336692 0.945622
O O4 0.500000 0.000000 0.000000
O O5 0.500000 0.212074 0.750000
O O6 0.903295 0.330257 0.669538
O O7 0.804072 0.999131 0.663757
O O8 0.766309 0.116735 0.771163
O O9 0.361857 0.111384 0.890034
#
# Coordination Sequence:
#
# PCOD9295462 Si02
#       4
#     8   8   8   8
#     4  12  28  46  72 104 144 201 258 308 377 457
#     4  10  23  42  72 110 137 192 238 311 393 465
#     4  11  25  48  69 105 143 192 245 311 380 448
#     4  11  25  45  73 102 152 182 245 307 389 452
#
# _framework density 28.029267000000001
#
# number of rings (size 3 to 8) (size 9 to 14) (size 15 to 20)
#    0.000    1.000    2.500    2.250   10.500    2.000 
#    0.000    0.000    0.000    0.000    0.000    0.000 
#    0.000    0.000    0.000    0.000    0.000    0.000 
#
# Total GULP energy -89685.314130 kJ/mol
# GULP energy per Si atom -5605.332133 kJ/mol
# Density = 2.796547 g / cm^3
# Si number density = 28.029267 Si / 1000 Ang^3
#
#
#
# Elastic Constant Matrix: (Units=GPa)
#
#
# Indices 1 2 3 4 5 6 
#
# 1 202.1926 44.6869 43.3166 0.0000 -9.7154 0.0000
# 2 44.6869 115.7636 37.0824 0.0000 15.0164 0.0000
# 3 43.3166 37.0824 126.8250 0.0000 40.3923 0.0000
# 4 0.0000 0.0000 0.0000 54.7541 0.0000 1.2891
# 5 -9.7154 15.0164 40.3923 0.0000 62.6078 0.0000
# 6 0.0000 0.0000 0.0000 1.2891 0.0000 44.0778
#
#
#
# Elastic Compliance Matrix: (Units=1/GPa)
#
#
# Indices 1 2 3 4 5 6 
#
# 1 0.006041 -0.001935 -0.002447 0.000000 0.002980 0.000000
# 2 -0.001935 0.010169 -0.001813 0.000000 -0.001570 0.000000
# 3 -0.002447 -0.001813 0.011621 0.000000 -0.007442 0.000000
# 4 0.000000 0.000000 0.000000 0.018276 0.000000 -0.000534
# 5 0.002980 -0.001570 -0.007442 0.000000 0.021613 0.000000
# 6 0.000000 0.000000 0.000000 -0.000534 0.000000 0.022703
#
#
# Mechanical properties :
#
#
# Convention : Reuss Voigt Hill
#
# Bulk Modulus (GPa) = 64.75393 77.21700 70.98546
# Shear Modulus (GPa) = 46.31436 53.60095 49.95766
#
# Velocity S-wave (km/s) = 4.06933 4.37775 4.22636
# Velocity P-wave (km/s) = 6.72545 7.29119 7.01403
#
# Compressibility (1/GPa) = 0.01544308
#
# Stress axis : x y z
#
# Youngs Moduli (GPa) = 165.54450 98.33427 86.05306
#
# Poissons Ratio (x) = 0.19024 0.21053
# Poissons Ratio (y) = 0.32027 0.15599
# Poissons Ratio (z) = 0.40501 0.17825
#
# Static dielectric constant tensor:
#      x y z
#    x 2.135830 0.000000 -0.066740 
#    y 0.000000 2.216160 0.000000 
#    z -0.066740 0.000000 2.245060 
# 
# From -- ./inp_files/229252.got.cif
#   From: 2010.05.17/outbox.cif.g08.bks.cpg/sg15_115_cif.got.tgz:229252.got - 2010.06.03 18:47:42.
