data_PCOD9295435
_publ_section_title
;
Structure prediction by ZEFSAII (Michael W. Deem and Ramdas Pophale) SiO2 
 PCOD9295435
Probable space group: C 2/C
;
_chemical_formula_sum "Si O2"
_cell_formula_units_Z 44
_cell_length_a 19.838361
_cell_length_b 16.911437
_cell_length_c 5.171970
_cell_angle_alpha 90.000000
_cell_angle_beta 83.509741
_cell_angle_gamma 90.000000
_cell_volume 1724.050509
_symmetry_space_group_name_H-M "C 2/C"
_symmetry_group_IT_number 15
_symmetry_cell_setting 'monoclinic'
loop_
_space_group_symop_operation_xyz
x,y,z
-x,y,1/2-z
-x,-y,-z
x,-y,1/2+z
1/2+x,1/2+y,z
1/2-x,1/2+y,1/2-z
1/2-x,1/2-y,-z
1/2+x,1/2-y,1/2+z
loop_
_atom_site_type_symbol
_atom_site_label
_atom_site_fract_x
_atom_site_fract_y
_atom_site_fract_z
Si Si1 0.000000 0.183066 0.750000
Si Si2 0.371313 0.046919 0.295523
Si Si3 0.689504 0.751292 0.225019
Si Si4 0.610008 0.446391 0.341331
Si Si5 0.559866 0.822349 0.387008
Si Si6 0.734151 0.383892 0.003736
O O1 0.941275 0.126459 0.664240
O O2 0.032305 0.242255 0.528001
O O3 0.412178 0.120151 0.401008
O O4 0.289542 0.060078 0.349261
O O5 0.386486 0.977205 0.496198
O O6 0.619942 0.791598 0.172384
O O7 0.682895 0.662681 0.336110
O O8 0.716935 0.813735 0.422011
O O9 0.750000 0.750000 0.000000
O O10 0.598854 0.491301 0.613570
O O11 0.687452 0.418175 0.250780
O O12 0.500000 0.860200 0.250000
#
# Coordination Sequence:
#
# PCOD9295435 Si02
#       6
#     4   8   8   8   8   8
#     4  12  28  48  72 106 154 200 262 302 378 466
#     4  11  27  49  74 111 153 194 254 319 384 456
#     4  10  23  42  74 110 150 191 262 316 379 450
#     4  12  28  47  74 109 153 199 246 313 388 456
#     4  11  28  46  78 109 150 212 254 319 380 460
#     4  10  23  42  71 111 143 200 244 321 378 459
#
# _framework density 25.521294000000001
#
# number of rings (size 3 to 8) (size 9 to 14) (size 15 to 20)
#    0.000    1.091    1.818    1.636   15.273    0.727 
#    0.000    0.000    0.000    0.000    0.000    0.000 
#    0.000    0.000    0.000    0.000    0.000    0.000 
#
# Total GULP energy -123188.501969 kJ/mol
# GULP energy per Si atom -5599.477362 kJ/mol
# Density = 2.546321 g / cm^3
# Si number density = 25.521294 Si / 1000 Ang^3
#
#
#
# Elastic Constant Matrix: (Units=GPa)
#
#
# Indices 1 2 3 4 5 6 
#
# 1 121.0413 48.3630 3.3756 0.0000 -13.3760 0.0000
# 2 48.3630 114.4309 15.4012 0.0000 -1.6792 0.0000
# 3 3.3756 15.4012 49.5339 0.0000 -5.3396 0.0000
# 4 0.0000 0.0000 0.0000 42.0236 0.0000 -8.1795
# 5 -13.3760 -1.6792 -5.3396 0.0000 32.5460 0.0000
# 6 0.0000 0.0000 0.0000 -8.1795 0.0000 46.5541
#
#
#
# Elastic Compliance Matrix: (Units=1/GPa)
#
#
# Indices 1 2 3 4 5 6 
#
# 1 0.010515 -0.004537 0.001155 0.000000 0.004277 0.000000
# 2 -0.004537 0.011078 -0.003334 0.000000 -0.001840 0.000000
# 3 0.001155 -0.003334 0.021560 0.000000 0.003840 0.000000
# 4 0.000000 0.000000 0.000000 0.024639 0.000000 0.004329
# 5 0.004277 -0.001840 0.003840 0.000000 0.033019 0.000000
# 6 0.000000 0.000000 0.000000 0.004329 0.000000 0.022241
#
#
# Mechanical properties :
#
#
# Convention : Reuss Voigt Hill
#
# Bulk Modulus (GPa) = 33.64487 46.58730 40.11608
# Shear Modulus (GPa) = 34.15569 38.74915 36.45242
#
# Velocity S-wave (km/s) = 3.66228 3.90077 3.78340
# Velocity P-wave (km/s) = 5.57626 6.21144 5.90240
#
# Compressibility (1/GPa) = 0.02972222
#
# Stress axis : x y z
#
# Youngs Moduli (GPa) = 95.10488 90.26966 46.38245
#
# Poissons Ratio (x) = 0.40952 -0.05357
# Poissons Ratio (y) = 0.43146 0.15462
# Poissons Ratio (z) = -0.10985 0.30092
#
# Static dielectric constant tensor:
#      x y z
#    x 2.067960 0.000000 -0.043760 
#    y 0.000000 2.029970 0.000000 
#    z -0.043760 0.000000 1.528750 
# 
# From -- ./inp_files/12874.got.cif
#   From: 2010.05.17/outbox.cif.g08.bks.cpg/sg15_7_cif.got.tgz:12874.got - 2010.06.03 18:47:42.
