data_PCOD9295111
_publ_section_title
;
Structure prediction by ZEFSAII (Michael W. Deem and Ramdas Pophale) SiO2 
 PCOD9295111
Probable space group: C 2/C
;
_chemical_formula_sum "Si O2"
_cell_formula_units_Z 52
_cell_length_a 7.186772
_cell_length_b 15.885569
_cell_length_c 27.229209
_cell_angle_alpha 90.000000
_cell_angle_beta 46.203551
_cell_angle_gamma 90.000000
_cell_volume 2243.832452
_symmetry_space_group_name_H-M "C 2/C"
_symmetry_group_IT_number 15
_symmetry_cell_setting 'monoclinic'
loop_
_space_group_symop_operation_xyz
x,y,z
-x,y,1/2-z
-x,-y,-z
x,-y,1/2+z
1/2+x,1/2+y,z
1/2-x,1/2+y,1/2-z
1/2-x,1/2-y,-z
1/2+x,1/2-y,1/2+z
loop_
_atom_site_type_symbol
_atom_site_label
_atom_site_fract_x
_atom_site_fract_y
_atom_site_fract_z
Si Si1 0.226969 0.270654 0.635406
Si Si2 0.486646 0.371308 0.849115
Si Si3 0.000000 0.147164 0.750000
Si Si4 0.889174 0.103446 0.467116
Si Si5 0.725465 0.788055 0.168449
Si Si6 0.204828 0.493882 0.256810
Si Si7 0.789428 0.448285 0.400269
O O1 0.249534 0.350628 0.668063
O O2 0.210757 0.199130 0.680572
O O3 0.463288 0.304868 0.558243
O O4 0.982465 0.248349 0.647442
O O5 0.298209 0.402483 0.927115
O O6 0.369649 0.287546 0.848822
O O7 0.585358 0.435072 0.791025
O O8 0.136372 0.091525 0.766139
O O9 0.702029 0.092729 0.547285
O O10 0.078682 0.022645 0.437216
O O11 0.500000 0.797738 0.250000
O O12 0.764626 0.873202 0.129272
O O13 0.000000 0.490828 0.250000
O O14 0.047891 0.495209 0.336060
#
# Coordination Sequence:
#
# PCOD9295111 Si02
#       7
#     8   8   4   8   8   8   8
#     4  10  23  42  64  98 139 168 215 283 329 394
#     4  10  25  43  66  99 132 180 217 274 340 394
#     4  12  26  40  68 110 126 174 230 272 344 400
#     4   9  24  43  69  91 135 186 218 265 345 404
#     4  12  26  38  70 105 129 171 230 277 334 401
#     4  12  24  42  73  95 137 171 222 288 325 390
#     4  11  22  43  69  97 129 185 223 269 342 392
#
# _framework density 23.174634999999999
#
# number of rings (size 3 to 8) (size 9 to 14) (size 15 to 20)
#    0.923    0.308    1.538    4.154    8.615    1.231 
#    0.000    0.000    0.000    2.769    0.000    0.000 
#    0.000    0.000    0.000    0.000    0.000    0.000 
#
# Total GULP energy -144818.839669 kJ/mol
# GULP energy per Si atom -5569.955372 kJ/mol
# Density = 2.312189 g / cm^3
# Si number density = 23.174635 Si / 1000 Ang^3
#
#
#
# Elastic Constant Matrix: (Units=GPa)
#
#
# Indices 1 2 3 4 5 6 
#
# 1 75.2485 23.1759 11.7443 -0.0104 6.0153 -0.0028
# 2 23.1759 87.7260 26.0046 -0.0014 6.7693 -0.0017
# 3 11.7443 26.0046 123.0204 -0.0226 22.0306 -0.0093
# 4 -0.0104 -0.0014 -0.0226 32.3115 0.0125 10.8305
# 5 6.0153 6.7693 22.0306 0.0125 19.3528 0.0088
# 6 -0.0028 -0.0017 -0.0093 10.8305 0.0088 15.0921
#
#
#
# Elastic Compliance Matrix: (Units=1/GPa)
#
#
# Indices 1 2 3 4 5 6 
#
# 1 0.014668 -0.003608 -0.000059 0.000006 -0.003230 0.000000
# 2 -0.003608 0.013092 -0.002266 -0.000002 -0.000879 0.000002
# 3 -0.000059 -0.002266 0.010636 0.000010 -0.011297 0.000006
# 4 0.000006 -0.000002 0.000010 0.040751 -0.000025 -0.029244
# 5 -0.003230 -0.000879 -0.011297 -0.000025 0.065844 -0.000028
# 6 0.000000 0.000002 0.000006 -0.029244 -0.000028 0.087246
#
#
# Mechanical properties :
#
#
# Convention : Reuss Voigt Hill
#
# Bulk Modulus (GPa) = 37.69306 45.31603 41.50454
# Shear Modulus (GPa) = 19.76703 28.35597 24.06150
#
# Velocity S-wave (km/s) = 2.92372 3.50176 3.22571
# Velocity P-wave (km/s) = 5.26285 5.99553 5.64110
#
# Compressibility (1/GPa) = 0.02653008
#
# Stress axis : x y z
#
# Youngs Moduli (GPa) = 68.17537 76.38380 94.01656
#
# Poissons Ratio (x) = 0.27562 0.00556
# Poissons Ratio (y) = 0.24600 0.21300
# Poissons Ratio (z) = 0.00404 0.17305
#
# Static dielectric constant tensor:
#      x y z
#    x 1.905220 -0.000010 0.023900 
#    y -0.000010 1.916450 0.000000 
#    z 0.023900 0.000000 1.971640 
# 
# From -- ./inp_files/308181.got.cif
#   From: 2010.05.17/outbox.cif.g08.bks.cpg/sg15_155_cif.got.tgz:308181.got - 2010.06.03 18:47:42.
