data_PCOD9295466
_publ_section_title
;
Structure prediction by ZEFSAII (Michael W. Deem and Ramdas Pophale) SiO2 
 PCOD9295466
Probable space group: C 2/C
;
_chemical_formula_sum "Si O2"
_cell_formula_units_Z 48
_cell_length_a 22.876929
_cell_length_b 5.278947
_cell_length_c 18.315448
_cell_angle_alpha 90.000000
_cell_angle_beta 119.843036
_cell_angle_gamma 90.000000
_cell_volume 1918.571307
_symmetry_space_group_name_H-M "C 2/C"
_symmetry_group_IT_number 15
_symmetry_cell_setting 'monoclinic'
loop_
_space_group_symop_operation_xyz
x,y,z
-x,y,1/2-z
-x,-y,-z
x,-y,1/2+z
1/2+x,1/2+y,z
1/2-x,1/2+y,1/2-z
1/2-x,1/2-y,-z
1/2+x,1/2-y,1/2+z
loop_
_atom_site_type_symbol
_atom_site_label
_atom_site_fract_x
_atom_site_fract_y
_atom_site_fract_z
Si Si1 0.700987 0.529702 0.897039
Si Si2 0.155537 0.614188 0.493269
Si Si3 0.529765 0.328285 0.956350
Si Si4 0.717313 0.166357 0.262155
Si Si5 0.069496 0.742894 0.836434
Si Si6 0.400752 0.971550 0.401634
O O1 0.778268 0.434415 0.952450
O O2 0.709637 0.744159 0.840254
O O3 0.635800 0.355261 0.837188
O O4 0.682552 0.653285 0.962490
O O5 0.100398 0.483395 0.405399
O O6 0.131337 0.715161 0.557806
O O7 0.545038 0.433382 0.886432
O O8 0.471016 0.116719 0.912808
O O9 0.500000 0.500000 0.000000
O O10 0.591079 0.197904 0.035569
O O11 0.735340 0.426402 0.229229
O O12 0.646661 0.057922 0.191181
O O13 0.000000 0.686480 0.750000
#
# Coordination Sequence:
#
# PCOD9295466 Si02
#       6
#     8   8   8   8   8   8
#     4  11  25  44  75 103 149 204 258 323 394 465
#     4  10  23  47  71 103 145 201 259 316 396 463
#     4  10  23  42  72  98 146 197 246 302 382 459
#     4  12  29  47  77 116 154 198 264 328 389 452
#     4  11  26  42  68 110 150 199 256 317 392 466
#     4  10  23  44  69 106 144 194 250 314 378 461
#
# _framework density 25.018613999999999
#
# number of rings (size 3 to 8) (size 9 to 14) (size 15 to 20)
#    0.000    1.333    1.667    1.500    9.333    6.000 
#    0.000    0.000    0.000    0.000    0.000    0.000 
#    0.000    0.000    0.000    0.000    0.000    0.000 
#
# Total GULP energy -133858.619447 kJ/mol
# GULP energy per Si atom -5577.442477 kJ/mol
# Density = 2.496167 g / cm^3
# Si number density = 25.018614 Si / 1000 Ang^3
#
#
#
# Elastic Constant Matrix: (Units=GPa)
#
#
# Indices 1 2 3 4 5 6 
#
# 1 151.0762 24.3500 53.9860 0.0000 24.7045 0.0000
# 2 24.3500 69.9984 19.1329 -0.0002 4.5078 0.0003
# 3 53.9860 19.1329 123.1379 -0.0001 26.7534 0.0000
# 4 0.0000 -0.0002 -0.0001 21.3329 0.0000 -10.6096
# 5 24.7045 4.5078 26.7534 0.0000 60.0551 0.0000
# 6 0.0000 0.0003 0.0000 -10.6096 0.0000 18.3884
#
#
#
# Elastic Compliance Matrix: (Units=1/GPa)
#
#
# Indices 1 2 3 4 5 6 
#
# 1 0.008296 -0.001965 -0.002903 0.000000 -0.001972 0.000000
# 2 -0.001965 0.015386 -0.001609 0.000000 0.000371 0.000000
# 3 -0.002903 -0.001609 0.010361 0.000000 -0.003301 0.000000
# 4 0.000000 0.000000 0.000000 0.065740 0.000000 0.037930
# 5 -0.001972 0.000371 -0.003301 0.000000 0.018905 0.000000
# 6 0.000000 0.000000 0.000000 0.037930 0.000000 0.076267
#
#
# Mechanical properties :
#
#
# Convention : Reuss Voigt Hill
#
# Bulk Modulus (GPa) = 47.42391 59.90558 53.66475
# Shear Modulus (GPa) = 23.26234 36.40486 29.83360
#
# Velocity S-wave (km/s) = 3.05257 3.81873 3.45694
# Velocity P-wave (km/s) = 5.60543 6.59090 6.11804
#
# Compressibility (1/GPa) = 0.02108641
#
# Stress axis : x y z
#
# Youngs Moduli (GPa) = 120.54242 64.99516 96.51580
#
# Poissons Ratio (x) = 0.12773 0.28021
# Poissons Ratio (y) = 0.23690 0.15534
# Poissons Ratio (z) = 0.34997 0.10461
#
# Static dielectric constant tensor:
#      x y z
#    x 14.265600 0.000680 -3.819670 
#    y 0.000680 -0.845270 -0.000220 
#    z -3.819670 -0.000220 3.168930 
# 
# From -- ./inp_files/217806.got.cif
#   From: 2010.05.17/outbox.cif.g08.bks.cpg/sg15_109_cif.got.tgz:217806.got - 2010.06.03 18:47:42.
