data_PCOD9295224
_publ_section_title
;
Structure prediction by ZEFSAII (Michael W. Deem and Ramdas Pophale) SiO2 
 PCOD9295224
Probable space group: C 2/C
;
_chemical_formula_sum "Si O2"
_cell_formula_units_Z 40
_cell_length_a 16.505189
_cell_length_b 12.200021
_cell_length_c 15.781530
_cell_angle_alpha 90.000000
_cell_angle_beta 150.424669
_cell_angle_gamma 90.000000
_cell_volume 1568.471749
_symmetry_space_group_name_H-M "C 2/C"
_symmetry_group_IT_number 15
_symmetry_cell_setting 'monoclinic'
loop_
_space_group_symop_operation_xyz
x,y,z
-x,y,1/2-z
-x,-y,-z
x,-y,1/2+z
1/2+x,1/2+y,z
1/2-x,1/2+y,1/2-z
1/2-x,1/2-y,-z
1/2+x,1/2-y,1/2+z
loop_
_atom_site_type_symbol
_atom_site_label
_atom_site_fract_x
_atom_site_fract_y
_atom_site_fract_z
Si Si1 0.575729 0.821439 0.042035
Si Si2 0.099748 0.640903 0.958575
Si Si3 0.270276 0.629940 0.879632
Si Si4 0.749177 0.922557 0.053682
Si Si5 0.084689 0.897899 0.459648
O O1 0.426923 0.870377 0.962528
O O2 0.727705 0.843803 0.243039
O O3 0.599498 0.876575 0.972873
O O4 0.579991 0.692444 0.027796
O O5 0.917146 0.618690 0.757481
O O6 0.148005 0.768015 0.998078
O O7 0.227059 0.553966 0.038417
O O8 0.377028 0.521416 0.978629
O O9 0.772160 0.877066 0.980425
O O10 0.914510 0.894067 0.254262
#
# Coordination Sequence:
#
# PCOD9295224 Si02
#       5
#     8   8   8   8   8
#     4  10  24  41  70 101 135 180 230 284 339 412
#     4  10  23  42  67 103 134 183 228 285 339 416
#     4  10  24  41  70  99 138 181 231 285 338 412
#     4  11  24  44  72 100 142 180 225 286 355 412
#     4  11  25  45  69 104 140 181 227 288 350 411
#
# _framework density 25.502531999999999
#
# number of rings (size 3 to 8) (size 9 to 14) (size 15 to 20)
#    1.200    0.400    0.000    3.600    2.800    4.800 
#    0.000    0.000    0.000    0.000    0.000    0.000 
#    0.000    0.000    0.000    0.000    0.000    0.000 
#
# Total GULP energy -111845.244484 kJ/mol
# GULP energy per Si atom -5592.262224 kJ/mol
# Density = 2.544449 g / cm^3
# Si number density = 25.502532 Si / 1000 Ang^3
#
#
#
# Elastic Constant Matrix: (Units=GPa)
#
#
# Indices 1 2 3 4 5 6 
#
# 1 122.0235 -1.1136 0.2286 0.0000 6.1478 0.0000
# 2 -1.1136 79.2422 -12.6402 0.0000 -6.7337 0.0000
# 3 0.2286 -12.6402 43.1349 0.0000 -8.3478 0.0001
# 4 0.0000 0.0000 0.0000 10.2712 0.0000 4.0601
# 5 6.1478 -6.7337 -8.3478 0.0000 17.4767 0.0001
# 6 0.0000 0.0000 0.0001 4.0601 0.0001 37.7312
#
#
#
# Elastic Compliance Matrix: (Units=1/GPa)
#
#
# Indices 1 2 3 4 5 6 
#
# 1 0.008367 -0.000302 -0.000799 0.000000 -0.003441 0.000000
# 2 -0.000302 0.014251 0.005797 0.000000 0.008366 0.000000
# 3 -0.000799 0.005797 0.027957 0.000000 0.015868 0.000000
# 4 0.000000 0.000000 0.000000 0.101685 0.000000 -0.010942
# 5 -0.003441 0.008366 0.015868 0.000000 0.069232 0.000000
# 6 0.000000 0.000000 0.000000 -0.010942 0.000000 0.027681
#
#
# Mechanical properties :
#
#
# Convention : Reuss Voigt Hill
#
# Bulk Modulus (GPa) = 16.67617 24.15002 20.41309
# Shear Modulus (GPa) = 19.24773 30.29087 24.76930
#
# Velocity S-wave (km/s) = 2.75023 3.45013 3.11987
# Velocity P-wave (km/s) = 4.07900 5.03601 4.58256
#
# Compressibility (1/GPa) = 0.05996582
#
# Stress axis : x y z
#
# Youngs Moduli (GPa) = 119.51338 70.17143 35.76938
#
# Poissons Ratio (x) = 0.02121 0.02858
# Poissons Ratio (y) = 0.03613 -0.20734
# Poissons Ratio (z) = 0.09548 -0.40676
#
# Static dielectric constant tensor:
#      x y z
#    x 2.166860 0.000000 0.006920 
#    y 0.000000 2.020390 0.000000 
#    z 0.006920 0.000000 1.944800 
# 
# From -- ./inp_files/210818.got.cif
#   From: 2010.05.17/outbox.cif.g08.bks.cpg/sg15_106_cif.got.tgz:210818.got - 2010.06.03 18:47:42.
