data_PCOD9295150
_publ_section_title
;
Structure prediction by ZEFSAII (Michael W. Deem and Ramdas Pophale) SiO2 
 PCOD9295150
Probable space group: C 2/C
;
_chemical_formula_sum "Si O2"
_cell_formula_units_Z 36
_cell_length_a 16.481801
_cell_length_b 19.100864
_cell_length_c 9.975963
_cell_angle_alpha 90.000000
_cell_angle_beta 146.550952
_cell_angle_gamma 90.000000
_cell_volume 1731.083203
_symmetry_space_group_name_H-M "C 2/C"
_symmetry_group_IT_number 15
_symmetry_cell_setting 'monoclinic'
loop_
_space_group_symop_operation_xyz
x,y,z
-x,y,1/2-z
-x,-y,-z
x,-y,1/2+z
1/2+x,1/2+y,z
1/2-x,1/2+y,1/2-z
1/2-x,1/2-y,-z
1/2+x,1/2-y,1/2+z
loop_
_atom_site_type_symbol
_atom_site_label
_atom_site_fract_x
_atom_site_fract_y
_atom_site_fract_z
Si Si1 0.665252 0.580841 0.002919
Si Si2 0.632352 0.813184 0.826000
Si Si3 0.500000 0.555782 0.250000
Si Si4 0.931451 0.708593 0.799185
Si Si5 0.183379 0.857850 0.814447
O O1 0.500000 0.611152 0.750000
O O2 0.635809 0.497960 0.956354
O O3 0.774131 0.614843 0.045471
O O4 0.713021 0.603517 0.216989
O O5 0.500000 0.809430 0.750000
O O6 0.554996 0.810283 0.574843
O O7 0.750000 0.750000 0.000000
O O8 0.457277 0.604419 0.314500
O O9 0.850784 0.775765 0.751579
O O10 0.817706 0.646738 0.605290
O O11 0.000000 0.729456 0.750000
#
# Coordination Sequence:
#
# PCOD9295150 Si02
#       5
#     8   8   4   8   8
#     4  10  23  42  65  96 133 183 227 272 338 409
#     4  12  25  43  68 103 138 175 224 283 341 405
#     4  10  24  40  70  92 136 184 228 276 340 416
#     4  11  23  39  70  96 132 171 222 290 337 388
#     4  11  21  42  64 100 128 173 235 276 343 403
#
# _framework density 20.796227999999999
#
# number of rings (size 3 to 8) (size 9 to 14) (size 15 to 20)
#    0.667    0.444    3.333    4.000    3.111    1.778 
#    0.000    2.222    0.000    0.000    0.000    0.000 
#    0.000    0.000    0.000    0.000    0.000    0.000 
#
# Total GULP energy -100390.286988 kJ/mol
# GULP energy per Si atom -5577.238166 kJ/mol
# Density = 2.074890 g / cm^3
# Si number density = 20.796228 Si / 1000 Ang^3
#
#
#
# Elastic Constant Matrix: (Units=GPa)
#
#
# Indices 1 2 3 4 5 6 
#
# 1 107.9865 23.5470 10.5624 0.0000 14.3325 0.0000
# 2 23.5470 78.3565 23.8220 0.0000 7.9714 0.0000
# 3 10.5624 23.8220 110.5905 0.0000 2.7581 0.0000
# 4 0.0000 0.0000 0.0000 -40.3440 0.0000 11.4787
# 5 14.3325 7.9714 2.7581 0.0000 32.2838 0.0000
# 6 0.0000 0.0000 0.0000 11.4787 0.0000 31.7352
#
#
#
# Elastic Compliance Matrix: (Units=1/GPa)
#
#
# Indices 1 2 3 4 5 6 
#
# 1 0.010386 -0.002621 -0.000329 0.000000 -0.003936 0.000000
# 2 -0.002621 0.014640 -0.002848 0.000000 -0.002208 0.000000
# 3 -0.000329 -0.002848 0.009687 0.000000 0.000022 0.000000
# 4 0.000000 0.000000 0.000000 -0.022474 0.000000 0.008129
# 5 -0.003936 -0.002208 0.000022 0.000000 0.033266 0.000000
# 6 0.000000 0.000000 0.000000 0.008129 0.000000 0.028570
#
#
# Mechanical properties :
#
#
# Convention : Reuss Voigt Hill
#
# Bulk Modulus (GPa) = 43.25823 45.86626 44.56224
# Shear Modulus (GPa) = 53.54559 20.66847 37.10703
#
# Velocity S-wave (km/s) = 5.07973 3.15597 4.22870
# Velocity P-wave (km/s) = 7.43310 5.94837 6.73180
#
# Compressibility (1/GPa) = 0.02311699
#
# Stress axis : x y z
#
# Youngs Moduli (GPa) = 96.27904 68.30459 103.23316
#
# Poissons Ratio (x) = 0.17901 0.03400
# Poissons Ratio (y) = 0.25232 0.29404
# Poissons Ratio (z) = 0.03171 0.19455
#
# Static dielectric constant tensor:
#      x y z
#    x 1.792080 0.000000 0.051900 
#    y 0.000000 1.730880 0.000000 
#    z 0.051900 0.000000 1.805920 
# 
# From -- ./inp_files/41310.got.cif
#   From: 2010.05.17/outbox.cif.g08.bks.cpg/sg15_21_cif.got.tgz:41310.got - 2010.06.03 18:47:42.
