data_PCOD9295991
_publ_section_title
;
Structure prediction by ZEFSAII (Michael W. Deem and Ramdas Pophale) SiO2 
 PCOD9295991
Probable space group: C 2/C
;
_chemical_formula_sum "Si O2"
_cell_formula_units_Z 40
_cell_length_a 4.753586
_cell_length_b 26.930830
_cell_length_c 12.553729
_cell_angle_alpha 90.000000
_cell_angle_beta 90.775782
_cell_angle_gamma 90.000000
_cell_volume 1606.956173
_symmetry_space_group_name_H-M "C 2/C"
_symmetry_group_IT_number 15
_symmetry_cell_setting 'monoclinic'
loop_
_space_group_symop_operation_xyz
x,y,z
-x,y,1/2-z
-x,-y,-z
x,-y,1/2+z
1/2+x,1/2+y,z
1/2-x,1/2+y,1/2-z
1/2-x,1/2-y,-z
1/2+x,1/2-y,1/2+z
loop_
_atom_site_type_symbol
_atom_site_label
_atom_site_fract_x
_atom_site_fract_y
_atom_site_fract_z
Si Si1 0.298627 0.942551 0.556436
Si Si2 0.811736 0.154610 0.855173
Si Si3 0.000000 0.263261 0.250000
Si Si4 0.000000 0.307066 0.750000
Si Si5 0.636158 0.544348 0.639460
Si Si6 0.329259 0.374941 0.584555
O O1 0.599322 0.917002 0.553015
O O2 0.117376 0.946966 0.446711
O O3 0.101650 0.905192 0.624836
O O4 0.316237 0.997559 0.603227
O O5 0.593641 0.199080 0.843423
O O6 0.714193 0.097399 0.842434
O O7 0.000000 0.161778 0.750000
O O8 0.922110 0.154172 0.977166
O O9 0.747570 0.229172 0.291154
O O10 0.164613 0.339510 0.663755
O O11 0.500000 0.529997 0.750000
#
# Coordination Sequence:
#
# PCOD9295991 Si02
#       6
#     8   8   4   4   8   8
#     4  10  23  44  64 108 138 185 226 270 339 421
#     4  10  24  46  69 102 135 178 224 288 339 406
#     4  12  26  48  71 100 137 174 248 292 350 408
#     4  12  28  48  69 104 133 186 238 290 356 404
#     4   9  21  40  69 103 141 183 222 276 338 414
#     4  11  26  45  73  97 146 179 230 284 342 416
#
# _framework density 24.891781000000002
#
# number of rings (size 3 to 8) (size 9 to 14) (size 15 to 20)
#    0.000    1.600    1.000    1.200   11.200    8.800 
#    0.000    0.000    0.000    0.000    0.000    0.000 
#    0.000    0.000    0.000    0.000    0.000    0.000 
#
# Total GULP energy -111821.690076 kJ/mol
# GULP energy per Si atom -5591.084504 kJ/mol
# Density = 2.483513 g / cm^3
# Si number density = 24.891781 Si / 1000 Ang^3
#
#
#
# Elastic Constant Matrix: (Units=GPa)
#
#
# Indices 1 2 3 4 5 6 
#
# 1 120.1877 48.0566 10.9930 0.0000 -21.6367 0.0000
# 2 48.0566 143.9602 45.9291 0.0000 -9.6870 0.0000
# 3 10.9930 45.9291 96.4534 0.0000 -33.3516 0.0000
# 4 0.0000 0.0000 0.0000 6.1886 0.0000 38.2601
# 5 -21.6367 -9.6870 -33.3516 0.0000 32.1631 0.0000
# 6 0.0000 0.0000 0.0000 38.2601 0.0000 -54.3756
#
#
#
# Elastic Compliance Matrix: (Units=1/GPa)
#
#
# Indices 1 2 3 4 5 6 
#
# 1 0.011875 -0.004758 0.004956 0.000000 0.011695 0.000000
# 2 -0.004758 0.010224 -0.006810 0.000000 -0.007183 0.000000
# 3 0.004956 -0.006810 0.021030 0.000000 0.023090 0.000000
# 4 0.000000 0.000000 0.000000 0.030203 0.000000 0.021252
# 5 0.011695 -0.007183 0.023090 0.000000 0.060738 0.000000
# 6 0.000000 0.000000 0.000000 0.021252 0.000000 -0.003437
#
#
# Mechanical properties :
#
#
# Convention : Reuss Voigt Hill
#
# Bulk Modulus (GPa) = 33.44014 63.39541 48.41777
# Shear Modulus (GPa) = 32.50452 13.83672 23.17062
#
# Velocity S-wave (km/s) = 3.61755 2.36026 3.05430
# Velocity P-wave (km/s) = 5.55988 5.74034 5.65083
#
# Compressibility (1/GPa) = 0.02990418
#
# Stress axis : x y z
#
# Youngs Moduli (GPa) = 84.21103 97.80808 47.55204
#
# Poissons Ratio (x) = 0.46541 -0.23568
# Poissons Ratio (y) = 0.40071 0.32383
# Poissons Ratio (z) = -0.41737 0.66608
#
# Static dielectric constant tensor:
#      x y z
#    x 2.010870 0.000000 -0.012570 
#    y 0.000000 1.962980 0.000000 
#    z -0.012570 0.000000 2.054630 
# 
# From -- ./inp_files/73257.got.cif
#   From: 2010.05.17/outbox.cif.g08.bks.cpg/sg15_37_cif.got.tgz:73257.got - 2010.06.03 18:47:42.
