data_PCOD9295707
_publ_section_title
;
Structure prediction by ZEFSAII (Michael W. Deem and Ramdas Pophale) SiO2 
 PCOD9295707
Probable space group: C 2/C
;
_chemical_formula_sum "Si O2"
_cell_formula_units_Z 60
_cell_length_a 11.131168
_cell_length_b 28.343784
_cell_length_c 9.103528
_cell_angle_alpha 90.000000
_cell_angle_beta 105.301360
_cell_angle_gamma 90.000000
_cell_volume 2770.343139
_symmetry_space_group_name_H-M "C 2/C"
_symmetry_group_IT_number 15
_symmetry_cell_setting 'monoclinic'
loop_
_space_group_symop_operation_xyz
x,y,z
-x,y,1/2-z
-x,-y,-z
x,-y,1/2+z
1/2+x,1/2+y,z
1/2-x,1/2+y,1/2-z
1/2-x,1/2-y,-z
1/2+x,1/2-y,1/2+z
loop_
_atom_site_type_symbol
_atom_site_label
_atom_site_fract_x
_atom_site_fract_y
_atom_site_fract_z
Si Si1 0.362198 0.399148 0.655986
Si Si2 0.376014 0.693499 0.969978
Si Si3 0.706442 0.561943 0.892974
Si Si4 0.103591 0.624498 0.154271
Si Si5 0.089180 0.294274 0.412046
Si Si6 0.500000 0.363017 0.250000
Si Si7 0.859104 0.016310 0.930588
Si Si8 0.519377 0.949755 0.084224
O O1 0.500000 0.414584 0.750000
O O2 0.380599 0.348157 0.589303
O O3 0.249087 0.388535 0.734263
O O4 0.330166 0.437673 0.519399
O O5 0.440799 0.740960 0.047815
O O6 0.230678 0.705156 0.898344
O O7 0.435300 0.670297 0.846639
O O8 0.603950 0.603107 0.859670
O O9 0.663131 0.528113 0.745140
O O10 0.716354 0.528672 0.037683
O O11 0.846366 0.574686 0.897194
O O12 0.000000 0.622279 0.250000
O O13 0.089613 0.673015 0.057659
O O14 0.073721 0.585334 0.023568
O O15 0.000000 0.310040 0.250000
O O16 0.000000 0.000000 0.000000
O O17 0.500000 0.955734 0.250000
O O18 0.500000 0.000000 0.000000
#
# Coordination Sequence:
#
# PCOD9295707 Si02
#       8
#     8   8   8   8   8   4   8   8
#     4  11  22  41  68  91 133 178 222 281 344 404
#     4  10  23  43  68 100 139 169 228 288 350 419
#     4  12  24  41  64  95 137 179 226 283 338 402
#     4  11  26  44  67 102 137 175 234 284 343 420
#     4  10  23  46  74  96 132 184 225 280 358 423
#     4  12  24  40  66 104 138 170 230 290 348 410
#     4  12  22  39  60  95 129 177 225 273 333 404
#     4  12  26  44  69  94 138 186 233 284 343 409
#
# _framework density 21.657966999999999
#
# number of rings (size 3 to 8) (size 9 to 14) (size 15 to 20)
#    0.000    0.800    2.667    4.400    4.667    3.200 
#    0.000    0.667    0.000    0.000    0.000    0.000 
#    0.000    0.000    0.000    0.000    0.000    0.000 
#
# Total GULP energy -167695.246754 kJ/mol
# GULP energy per Si atom -5589.841558 kJ/mol
# Density = 2.160867 g / cm^3
# Si number density = 21.657967 Si / 1000 Ang^3
#
#
#
# Elastic Constant Matrix: (Units=GPa)
#
#
# Indices 1 2 3 4 5 6 
#
# 1 123.2606 20.5657 31.4775 0.0000 -13.7401 0.0000
# 2 20.5657 134.2634 32.5892 0.0000 -21.3357 0.0000
# 3 31.4775 32.5892 76.2739 0.0000 -12.8531 0.0000
# 4 0.0000 0.0000 0.0000 31.3084 0.0000 -4.0623
# 5 -13.7401 -21.3357 -12.8531 0.0000 40.6434 0.0000
# 6 0.0000 0.0000 0.0000 -4.0623 0.0000 27.3986
#
#
#
# Elastic Compliance Matrix: (Units=1/GPa)
#
#
# Indices 1 2 3 4 5 6 
#
# 1 0.009233 -0.000296 -0.003364 0.000000 0.001903 0.000000
# 2 -0.000296 0.008796 -0.003037 0.000000 0.003557 0.000000
# 3 -0.003364 -0.003037 0.016199 0.000000 0.002392 0.000000
# 4 0.000000 0.000000 0.000000 0.032567 0.000000 0.004829
# 5 0.001903 0.003557 0.002392 0.000000 0.027871 0.000000
# 6 0.000000 0.000000 0.000000 0.004829 0.000000 0.037214
#
#
# Mechanical properties :
#
#
# Convention : Reuss Voigt Hill
#
# Bulk Modulus (GPa) = 47.99269 55.89585 51.94427
# Shear Modulus (GPa) = 32.84778 36.48112 34.66445
#
# Velocity S-wave (km/s) = 3.89866 4.10862 4.00502
# Velocity P-wave (km/s) = 6.51717 6.95501 6.73965
#
# Compressibility (1/GPa) = 0.02083651
#
# Stress axis : x y z
#
# Youngs Moduli (GPa) = 108.30409 113.69258 61.73119
#
# Poissons Ratio (x) = 0.03360 0.20764
# Poissons Ratio (y) = 0.03201 0.18746
# Poissons Ratio (z) = 0.36429 0.34525
#
# Static dielectric constant tensor:
#      x y z
#    x 1.901260 0.000000 0.016160 
#    y 0.000000 1.808080 0.000000 
#    z 0.016160 0.000000 1.830820 
# 
# From -- ./inp_files/35739.got.cif
#   From: 2010.05.17/outbox.cif.g08.bks.cpg/sg15_18_cif.got.tgz:35739.got - 2010.06.03 18:47:42.
