data_PCOD9295680
_publ_section_title
;
Structure prediction by ZEFSAII (Michael W. Deem and Ramdas Pophale) SiO2 
 PCOD9295680
Probable space group: C 2/C
;
_chemical_formula_sum "Si O2"
_cell_formula_units_Z 48
_cell_length_a 11.444522
_cell_length_b 11.922154
_cell_length_c 16.972184
_cell_angle_alpha 90.000000
_cell_angle_beta 79.352309
_cell_angle_gamma 90.000000
_cell_volume 2275.869019
_symmetry_space_group_name_H-M "C 2/C"
_symmetry_group_IT_number 15
_symmetry_cell_setting 'monoclinic'
loop_
_space_group_symop_operation_xyz
x,y,z
-x,y,1/2-z
-x,-y,-z
x,-y,1/2+z
1/2+x,1/2+y,z
1/2-x,1/2+y,1/2-z
1/2-x,1/2-y,-z
1/2+x,1/2-y,1/2+z
loop_
_atom_site_type_symbol
_atom_site_label
_atom_site_fract_x
_atom_site_fract_y
_atom_site_fract_z
Si Si1 0.541367 0.310529 0.481567
Si Si2 0.456702 0.574568 0.145771
Si Si3 0.344190 0.810243 0.198827
Si Si4 0.915416 0.855622 0.333469
Si Si5 0.752381 0.585421 0.865694
Si Si6 0.971893 0.425086 0.429648
O O1 0.487674 0.397211 0.551371
O O2 0.461986 0.309139 0.411762
O O3 0.670769 0.345541 0.435575
O O4 0.550041 0.196239 0.528736
O O5 0.416769 0.693675 0.186119
O O6 0.561784 0.492016 0.163764
O O7 0.339079 0.498269 0.164218
O O8 0.217857 0.815356 0.168457
O O9 0.313473 0.838405 0.292316
O O10 0.425099 0.904678 0.147084
O O11 0.000000 0.818680 0.250000
O O12 0.856673 0.527483 0.900505
O O13 0.000000 0.500000 0.500000
#
# Coordination Sequence:
#
# PCOD9295680 Si02
#       6
#     8   8   8   8   8   8
#     4  10  23  43  67  96 127 177 223 281 330 406
#     4  10  24  41  71  99 131 175 221 289 326 402
#     4  11  25  44  67  99 135 174 222 282 334 412
#     4  11  21  43  70 100 127 170 233 268 345 402
#     4  11  22  46  64  97 132 171 228 271 342 409
#     4  11  27  41  62  95 135 177 216 278 346 398
#
# _framework density 21.090843
#
# number of rings (size 3 to 8) (size 9 to 14) (size 15 to 20)
#    0.000    1.333    3.333    3.000    7.000    5.333 
#    0.000    0.000    0.000    0.000    0.000    0.000 
#    0.000    0.000    0.000    0.000    0.000    0.000 
#
# Total GULP energy -134004.692263 kJ/mol
# GULP energy per Si atom -5583.528844 kJ/mol
# Density = 2.104284 g / cm^3
# Si number density = 21.090843 Si / 1000 Ang^3
#
#
#
# Elastic Constant Matrix: (Units=GPa)
#
#
# Indices 1 2 3 4 5 6 
#
# 1 111.6536 -0.9875 20.0881 0.0000 3.3949 0.0000
# 2 -0.9875 59.7091 6.8797 0.0000 -10.4566 0.0000
# 3 20.0881 6.8797 119.2650 0.0000 -15.8466 0.0000
# 4 0.0000 0.0000 0.0000 35.0616 0.0000 -5.1041
# 5 3.3949 -10.4566 -15.8466 0.0000 36.6783 0.0000
# 6 0.0000 0.0000 0.0000 -5.1041 0.0000 15.7071
#
#
#
# Elastic Compliance Matrix: (Units=1/GPa)
#
#
# Indices 1 2 3 4 5 6 
#
# 1 0.009328 0.000078 -0.001790 0.000000 -0.001615 0.000000
# 2 0.000078 0.017644 -0.000386 0.000000 0.004856 0.000000
# 3 -0.001790 -0.000386 0.009247 0.000000 0.004051 0.000000
# 4 0.000000 0.000000 0.000000 0.029937 0.000000 0.009728
# 5 -0.001615 0.004856 0.004051 0.000000 0.030548 0.000000
# 6 0.000000 0.000000 0.000000 0.009728 0.000000 0.066827
#
#
# Mechanical properties :
#
#
# Convention : Reuss Voigt Hill
#
# Bulk Modulus (GPa) = 31.22778 38.06538 34.64658
# Shear Modulus (GPa) = 28.02664 35.13254 31.57959
#
# Velocity S-wave (km/s) = 3.64930 4.08582 3.87371
# Velocity P-wave (km/s) = 5.70920 6.35185 6.03908
#
# Compressibility (1/GPa) = 0.03202277
#
# Stress axis : x y z
#
# Youngs Moduli (GPa) = 107.20258 56.67631 108.14700
#
# Poissons Ratio (x) = -0.00441 0.19360
# Poissons Ratio (y) = -0.00834 0.04170
# Poissons Ratio (z) = 0.19191 0.02186
#
# Static dielectric constant tensor:
#      x y z
#    x 1.769570 0.000000 0.025000 
#    y 0.000000 1.836470 0.000000 
#    z 0.025000 0.000000 1.756610 
# 
# From -- ./inp_files/196529.got.cif
#   From: 2010.05.17/outbox.cif.g08.bks.cpg/sg15_99_cif.got.tgz:196529.got - 2010.06.03 18:47:42.
