data_PCOD9295156
_publ_section_title
;
Structure prediction by ZEFSAII (Michael W. Deem and Ramdas Pophale) SiO2 
 PCOD9295156
Probable space group: C 2/C
;
_chemical_formula_sum "Si O2"
_cell_formula_units_Z 56
_cell_length_a 21.589603
_cell_length_b 14.807232
_cell_length_c 18.434812
_cell_angle_alpha 90.000000
_cell_angle_beta 27.507622
_cell_angle_gamma 90.000000
_cell_volume 2721.910334
_symmetry_space_group_name_H-M "C 2/C"
_symmetry_group_IT_number 15
_symmetry_cell_setting 'monoclinic'
loop_
_space_group_symop_operation_xyz
x,y,z
-x,y,1/2-z
-x,-y,-z
x,-y,1/2+z
1/2+x,1/2+y,z
1/2-x,1/2+y,1/2-z
1/2-x,1/2-y,-z
1/2+x,1/2-y,1/2+z
loop_
_atom_site_type_symbol
_atom_site_label
_atom_site_fract_x
_atom_site_fract_y
_atom_site_fract_z
Si Si1 0.355262 0.577028 0.882438
Si Si2 0.394287 0.821012 0.792929
Si Si3 0.669228 0.360042 0.239436
Si Si4 0.658106 0.374564 0.579620
Si Si5 0.467171 0.912715 0.982595
Si Si6 0.439955 0.257578 0.022962
Si Si7 0.704930 0.268869 0.664211
O O1 0.500000 0.615115 0.750000
O O2 0.359725 0.565519 0.791104
O O3 0.339245 0.480408 0.936321
O O4 0.238500 0.640784 0.031511
O O5 0.500000 0.807793 0.750000
O O6 0.352022 0.733429 0.786892
O O7 0.452247 0.897296 0.676968
O O8 0.813403 0.390298 0.120563
O O9 0.576291 0.341449 0.405363
O O10 0.500000 0.347813 0.750000
O O11 0.726436 0.349463 0.585229
O O12 0.742250 0.319498 0.433108
O O13 0.509625 0.827901 0.986045
O O14 0.500000 0.000000 0.000000
O O15 0.550188 0.271671 0.846908
O O16 0.296059 0.230912 0.140376
#
# Coordination Sequence:
#
# PCOD9295156 Si02
#       7
#     8   8   8   8   8   8   8
#     4  11  25  41  68  98 140 174 228 291 352 408
#     4  11  24  43  73 102 136 186 237 287 353 418
#     4  11  24  43  65 101 137 177 229 278 348 422
#     4  10  23  42  65  98 130 173 231 291 343 402
#     4  11  26  43  66 103 140 177 233 290 347 418
#     4  11  24  40  70  91 135 180 216 276 349 414
#     4  11  22  43  67  94 129 178 232 276 343 423
#
# _framework density 20.573785000000001
#
# number of rings (size 3 to 8) (size 9 to 14) (size 15 to 20)
#    0.000    1.143    4.286    0.857    8.000    0.000 
#    0.000    0.714    0.000    0.000    0.000    0.000 
#    0.000    0.000    0.000    0.000    0.000    0.000 
#
# Total GULP energy -156000.320062 kJ/mol
# GULP energy per Si atom -5571.440002 kJ/mol
# Density = 2.052696 g / cm^3
# Si number density = 20.573785 Si / 1000 Ang^3
#
#
#
# Elastic Constant Matrix: (Units=GPa)
#
#
# Indices 1 2 3 4 5 6 
#
# 1 110.3849 35.1867 26.2649 -0.0001 -2.2084 -0.0001
# 2 35.1867 52.1674 45.9603 0.0001 -8.3128 -0.0001
# 3 26.2649 45.9603 121.6162 -0.0002 -1.8343 -0.0001
# 4 -0.0001 0.0001 -0.0002 12.6359 0.0001 -0.4688
# 5 -2.2084 -8.3128 -1.8343 0.0001 28.1432 0.0001
# 6 -0.0001 -0.0001 -0.0001 -0.4688 0.0001 25.0537
#
#
#
# Elastic Compliance Matrix: (Units=1/GPa)
#
#
# Indices 1 2 3 4 5 6 
#
# 1 0.011648 -0.008814 0.000791 0.000000 -0.001638 0.000000
# 2 -0.008814 0.037219 -0.012019 -0.000001 0.009519 0.000000
# 3 0.000791 -0.012019 0.012554 0.000000 -0.002670 0.000000
# 4 0.000000 -0.000001 0.000000 0.079194 -0.000001 0.001482
# 5 -0.001638 0.009519 -0.002670 -0.000001 0.038042 0.000000
# 6 0.000000 0.000000 0.000000 0.001482 0.000000 0.039942
#
#
# Mechanical properties :
#
#
# Convention : Reuss Voigt Hill
#
# Bulk Modulus (GPa) = 46.86702 55.44359 51.15530
# Shear Modulus (GPa) = 18.81148 24.95035 21.88092
#
# Velocity S-wave (km/s) = 3.02709 3.48620 3.26472
# Velocity P-wave (km/s) = 5.92006 6.57358 6.25536
#
# Compressibility (1/GPa) = 0.02133697
#
# Stress axis : x y z
#
# Youngs Moduli (GPa) = 85.85229 26.86766 79.65885
#
# Poissons Ratio (x) = 0.23681 -0.06299
# Poissons Ratio (y) = 0.75671 0.95739
# Poissons Ratio (z) = -0.06788 0.32291
#
# Static dielectric constant tensor:
#      x y z
#    x 1.737850 0.000000 0.066990 
#    y 0.000000 1.721190 0.000000 
#    z 0.066990 0.000000 1.738040 
# 
# From -- ./inp_files/215711.got.cif
#   From: 2010.05.17/outbox.cif.g08.bks.cpg/sg15_108_cif.got.tgz:215711.got - 2010.06.03 18:47:42.
