data_PCOD9295603
_publ_section_title
;
Structure prediction by ZEFSAII (Michael W. Deem and Ramdas Pophale) SiO2 
 PCOD9295603
Probable space group: C 2/C
;
_chemical_formula_sum "Si O2"
_cell_formula_units_Z 32
_cell_length_a 13.771288
_cell_length_b 11.819649
_cell_length_c 7.175762
_cell_angle_alpha 90.000000
_cell_angle_beta 90.963606
_cell_angle_gamma 90.000000
_cell_volume 1167.846447
_symmetry_space_group_name_H-M "C 2/C"
_symmetry_group_IT_number 15
_symmetry_cell_setting 'monoclinic'
loop_
_space_group_symop_operation_xyz
x,y,z
-x,y,1/2-z
-x,-y,-z
x,-y,1/2+z
1/2+x,1/2+y,z
1/2-x,1/2+y,1/2-z
1/2-x,1/2-y,-z
1/2+x,1/2-y,1/2+z
loop_
_atom_site_type_symbol
_atom_site_label
_atom_site_fract_x
_atom_site_fract_y
_atom_site_fract_z
Si Si1 0.654191 0.830559 0.534801
Si Si2 0.020118 0.851464 0.960105
Si Si3 0.158196 0.076790 0.787307
Si Si4 0.207164 0.580249 0.399334
O O1 0.750000 0.750000 0.500000
O O2 0.555152 0.777742 0.451727
O O3 0.644084 0.843737 0.759795
O O4 0.665055 0.956753 0.450836
O O5 0.000000 0.891199 0.750000
O O6 0.111245 0.894187 0.086587
O O7 0.929139 0.890267 0.078432
O O8 0.203566 0.954133 0.736580
O O9 0.249988 0.128998 0.906725
#
# Coordination Sequence:
#
# PCOD9295603 Si02
#       4
#     8   8   8   8
#     4  11  22  46  70 104 144 184 234 296 345 421
#     4  11  24  42  66  98 145 181 222 282 365 405
#     4  10  23  43  66 103 134 182 231 290 353 407
#     4  10  23  45  74 105 134 183 245 290 348 416
#
# _framework density 27.400862
#
# number of rings (size 3 to 8) (size 9 to 14) (size 15 to 20)
#    0.000    1.500    2.500    1.500    3.500    5.000 
#   18.000    1.250    0.000    0.000    0.000    0.000 
#    0.000    0.000    0.000    0.000    0.000    0.000 
#
# Total GULP energy -89193.882319 kJ/mol
# GULP energy per Si atom -5574.617645 kJ/mol
# Density = 2.733850 g / cm^3
# Si number density = 27.400862 Si / 1000 Ang^3
#
#
#
# Elastic Constant Matrix: (Units=GPa)
#
#
# Indices 1 2 3 4 5 6 
#
# 1 64.4084 25.9572 31.6434 0.0000 -6.9045 0.0000
# 2 25.9572 106.8603 50.3871 0.0000 4.4809 0.0000
# 3 31.6434 50.3871 236.6446 0.0000 10.9533 0.0000
# 4 0.0000 0.0000 0.0000 66.2594 0.0000 7.4506
# 5 -6.9045 4.4809 10.9533 0.0000 39.3193 0.0000
# 6 0.0000 0.0000 0.0000 7.4506 0.0000 53.2568
#
#
#
# Elastic Compliance Matrix: (Units=1/GPa)
#
#
# Indices 1 2 3 4 5 6 
#
# 1 0.018404 -0.003773 -0.001851 0.000000 0.004177 0.000000
# 2 -0.003773 0.011189 -0.001812 0.000000 -0.001433 0.000000
# 3 -0.001851 -0.001812 0.004928 0.000000 -0.001491 0.000000
# 4 0.000000 0.000000 0.000000 0.015333 0.000000 -0.002145
# 5 0.004177 -0.001433 -0.001491 0.000000 0.026745 0.000000
# 6 0.000000 0.000000 0.000000 -0.002145 0.000000 0.019077
#
#
# Mechanical properties :
#
#
# Convention : Reuss Voigt Hill
#
# Bulk Modulus (GPa) = 50.89107 69.32097 60.10602
# Shear Modulus (GPa) = 42.69997 51.76213 47.23105
#
# Velocity S-wave (km/s) = 3.95187 4.35106 4.15626
# Velocity P-wave (km/s) = 6.27982 7.11309 6.70940
#
# Compressibility (1/GPa) = 0.01964981
#
# Stress axis : x y z
#
# Youngs Moduli (GPa) = 54.33748 89.37577 202.92246
#
# Poissons Ratio (x) = 0.33719 0.37559
# Poissons Ratio (y) = 0.20500 0.36760
# Poissons Ratio (z) = 0.10057 0.16191
#
# Static dielectric constant tensor:
#      x y z
#    x 2.199410 0.000000 -0.112120 
#    y 0.000000 2.493040 0.000000 
#    z -0.112120 0.000000 2.145090 
# 
# From -- ./inp_files/45760.got.cif
#   From: 2010.05.17/outbox.cif.g08.bks.cpg/sg15_23_cif.got.tgz:45760.got - 2010.06.03 18:47:42.
