data_PCOD9295457
_publ_section_title
;
Structure prediction by ZEFSAII (Michael W. Deem and Ramdas Pophale) SiO2 
 PCOD9295457
Probable space group: C 2/C
;
_chemical_formula_sum "Si O2"
_cell_formula_units_Z 48
_cell_length_a 19.409961
_cell_length_b 14.517070
_cell_length_c 12.081793
_cell_angle_alpha 90.000000
_cell_angle_beta 141.180631
_cell_angle_gamma 90.000000
_cell_volume 2134.079499
_symmetry_space_group_name_H-M "C 2/C"
_symmetry_group_IT_number 15
_symmetry_cell_setting 'monoclinic'
loop_
_space_group_symop_operation_xyz
x,y,z
-x,y,1/2-z
-x,-y,-z
x,-y,1/2+z
1/2+x,1/2+y,z
1/2-x,1/2+y,1/2-z
1/2-x,1/2-y,-z
1/2+x,1/2-y,1/2+z
loop_
_atom_site_type_symbol
_atom_site_label
_atom_site_fract_x
_atom_site_fract_y
_atom_site_fract_z
Si Si1 0.000000 0.930950 0.750000
Si Si2 0.158864 0.911564 0.368148
Si Si3 0.500000 0.262872 0.250000
Si Si4 0.108179 0.475174 0.810242
Si Si5 0.131660 0.162023 0.597767
Si Si6 0.814484 0.330808 0.148978
Si Si7 0.533984 0.165323 0.061718
O O1 0.966799 0.867265 0.606287
O O2 0.898210 0.997184 0.653986
O O3 0.105847 0.828636 0.371473
O O4 0.290205 0.909505 0.531309
O O5 0.122634 0.898405 0.196329
O O6 0.496261 0.205129 0.133291
O O7 0.163264 0.575676 0.890500
O O8 0.075662 0.436445 0.647215
O O9 0.000000 0.474714 0.750000
O O10 0.239326 0.146556 0.660524
O O11 0.127755 0.267834 0.631917
O O12 0.935432 0.318034 0.352608
O O13 0.750000 0.250000 0.000000
#
# Coordination Sequence:
#
# PCOD9295457 Si02
#       7
#     4   8   4   8   8   8   8
#     4  11  20  46  66 109 146 192 259 310 382 443
#     4  10  23  42  72 105 146 195 248 316 370 452
#     4   9  22  44  72 109 142 194 255 308 372 445
#     4  12  26  48  74 106 153 193 247 308 381 456
#     4  11  24  43  72 101 144 192 248 311 378 452
#     4  12  28  49  70 106 145 200 246 313 383 454
#     4  11  25  44  74 108 148 192 249 309 378 455
#
# _framework density 22.492132999999999
#
# number of rings (size 3 to 8) (size 9 to 14) (size 15 to 20)
#    0.000    1.000    2.500    3.000    4.667    1.333 
#    0.000    0.000    0.000    0.000    0.000    0.000 
#    0.000    0.000    0.000    0.000    0.000    0.000 
#
# Total GULP energy -133977.404724 kJ/mol
# GULP energy per Si atom -5582.391864 kJ/mol
# Density = 2.244094 g / cm^3
# Si number density = 22.492133 Si / 1000 Ang^3
#
#
#
# Elastic Constant Matrix: (Units=GPa)
#
#
# Indices 1 2 3 4 5 6 
#
# 1 81.2586 5.3780 -3.0625 0.0000 17.9228 0.0000
# 2 5.3780 88.0898 24.0007 0.0000 -1.0410 0.0000
# 3 -3.0625 24.0007 106.5429 0.0000 0.4218 0.0000
# 4 0.0000 0.0000 0.0000 29.6090 0.0000 0.1443
# 5 17.9228 -1.0410 0.4218 0.0000 37.0009 0.0000
# 6 0.0000 0.0000 0.0000 0.1443 0.0000 18.2073
#
#
#
# Elastic Compliance Matrix: (Units=1/GPa)
#
#
# Indices 1 2 3 4 5 6 
#
# 1 0.013899 -0.001113 0.000677 0.000000 -0.006772 0.000000
# 2 -0.001113 0.012189 -0.002781 0.000000 0.000914 0.000000
# 3 0.000677 -0.002781 0.010034 0.000000 -0.000521 0.000000
# 4 0.000000 0.000000 0.000000 0.033775 0.000000 -0.000268
# 5 -0.006772 0.000914 -0.000521 0.000000 0.030338 0.000000
# 6 0.000000 0.000000 0.000000 -0.000268 0.000000 0.054925
#
#
# Mechanical properties :
#
#
# Convention : Reuss Voigt Hill
#
# Bulk Modulus (GPa) = 33.68470 36.50266 35.09368
# Shear Modulus (GPa) = 29.15623 33.60178 31.37900
#
# Velocity S-wave (km/s) = 3.60430 3.86934 3.73917
# Velocity P-wave (km/s) = 5.68595 6.01886 5.85477
#
# Compressibility (1/GPa) = 0.02968706
#
# Stress axis : x y z
#
# Youngs Moduli (GPa) = 71.94690 82.04396 99.66165
#
# Poissons Ratio (x) = 0.09132 -0.06748
# Poissons Ratio (y) = 0.08008 0.27719
# Poissons Ratio (z) = -0.04871 0.22819
#
# Static dielectric constant tensor:
#      x y z
#    x 1.806580 0.000000 0.034480 
#    y 0.000000 1.897880 0.000000 
#    z 0.034480 0.000000 1.866930 
# 
# From -- ./inp_files/113006.got.cif
#   From: 2010.05.17/outbox.cif.g08.bks.cpg/sg15_57_cif.got.tgz:113006.got - 2010.06.03 18:47:42.
