data_PCOD9295782
_publ_section_title
;
Structure prediction by ZEFSAII (Michael W. Deem and Ramdas Pophale) SiO2 
 PCOD9295782
Probable space group: C 2/C
;
_chemical_formula_sum "Si O2"
_cell_formula_units_Z 56
_cell_length_a 9.534470
_cell_length_b 27.033080
_cell_length_c 10.993067
_cell_angle_alpha 90.000000
_cell_angle_beta 62.499624
_cell_angle_gamma 90.000000
_cell_volume 2513.265684
_symmetry_space_group_name_H-M "C 2/C"
_symmetry_group_IT_number 15
_symmetry_cell_setting 'monoclinic'
loop_
_space_group_symop_operation_xyz
x,y,z
-x,y,1/2-z
-x,-y,-z
x,-y,1/2+z
1/2+x,1/2+y,z
1/2-x,1/2+y,1/2-z
1/2-x,1/2-y,-z
1/2+x,1/2-y,1/2+z
loop_
_atom_site_type_symbol
_atom_site_label
_atom_site_fract_x
_atom_site_fract_y
_atom_site_fract_z
Si Si1 0.635621 0.782727 0.770526
Si Si2 0.500000 0.526285 0.750000
Si Si3 0.747420 0.951317 0.769905
Si Si4 0.282848 0.307087 0.955294
Si Si5 0.927662 0.794154 0.506146
Si Si6 0.000000 0.484377 0.250000
Si Si7 0.747874 0.409364 0.462124
Si Si8 0.100971 0.902985 0.013202
O O1 0.500000 0.810909 0.750000
O O2 0.720982 0.812235 0.843541
O O3 0.775077 0.767081 0.622832
O O4 0.538468 0.738473 0.874768
O O5 0.389271 0.491362 0.713923
O O6 0.388429 0.560802 0.876682
O O7 0.763341 0.923351 0.891156
O O8 0.778838 0.916962 0.641360
O O9 0.584409 0.980550 0.815257
O O10 0.466172 0.310736 0.919290
O O11 0.202238 0.351382 0.063481
O O12 0.250000 0.250000 0.000000
O O13 0.880295 0.845429 0.461988
O O14 0.866467 0.448463 0.357237
O O15 0.576942 0.411559 0.466874
#
# Coordination Sequence:
#
# PCOD9295782 Si02
#       8
#     8   4   8   8   8   4   8   8
#     4  11  22  42  64  99 133 175 217 287 338 398
#     4  12  22  40  68  95 125 174 224 278 324 408
#     4  12  23  43  70  93 136 177 226 280 337 406
#     4   9  21  44  67  94 129 178 227 273 337 411
#     4  10  23  43  69  94 133 177 229 270 339 413
#     4  12  26  42  62 107 143 172 224 290 354 390
#     4  11  22  44  68  98 134 180 226 283 340 415
#     4  11  23  43  70  96 128 179 233 265 336 419
#
# _framework density 22.281765
#
# number of rings (size 3 to 8) (size 9 to 14) (size 15 to 20)
#    0.000    1.143    2.857    3.429    1.000    2.286 
#   23.143    0.000    0.000    0.000    0.000    0.000 
#    0.000    0.000    0.000    0.000    0.000    0.000 
#
# Total GULP energy -156356.483331 kJ/mol
# GULP energy per Si atom -5584.160119 kJ/mol
# Density = 2.223105 g / cm^3
# Si number density = 22.281765 Si / 1000 Ang^3
#
#
#
# Elastic Constant Matrix: (Units=GPa)
#
#
# Indices 1 2 3 4 5 6 
#
# 1 68.3612 0.4650 -2.8334 0.0000 -5.8889 0.0000
# 2 0.4650 96.8488 14.2377 0.0000 -14.5031 0.0000
# 3 -2.8334 14.2377 76.6652 0.0000 -14.7033 0.0000
# 4 0.0000 0.0000 0.0000 28.0539 0.0000 -2.8457
# 5 -5.8889 -14.5031 -14.7033 0.0000 33.1345 0.0000
# 6 0.0000 0.0000 0.0000 -2.8457 0.0000 17.3366
#
#
#
# Elastic Compliance Matrix: (Units=1/GPa)
#
#
# Indices 1 2 3 4 5 6 
#
# 1 0.014955 0.000251 0.001133 0.000000 0.003271 0.000000
# 2 0.000251 0.011161 -0.001222 0.000000 0.004388 0.000000
# 3 0.001133 -0.001222 0.014481 0.000000 0.006092 0.000000
# 4 0.000000 0.000000 0.000000 0.036249 0.000000 0.005950
# 5 0.003271 0.004388 0.006092 0.000000 0.035385 0.000000
# 6 0.000000 0.000000 0.000000 0.005950 0.000000 0.058658
#
#
# Mechanical properties :
#
#
# Convention : Reuss Voigt Hill
#
# Bulk Modulus (GPa) = 24.43637 29.51265 26.97451
# Shear Modulus (GPa) = 27.14371 31.03875 29.09123
#
# Velocity S-wave (km/s) = 3.49406 3.73636 3.61724
# Velocity P-wave (km/s) = 5.22195 5.64692 5.43859
#
# Compressibility (1/GPa) = 0.04092261
#
# Stress axis : x y z
#
# Youngs Moduli (GPa) = 66.86635 89.59897 69.05605
#
# Poissons Ratio (x) = -0.02253 -0.07826
# Poissons Ratio (y) = -0.01681 0.08438
# Poissons Ratio (z) = -0.07578 0.10948
#
# Static dielectric constant tensor:
#      x y z
#    x 1.836380 0.000000 0.025230 
#    y 0.000000 1.864390 0.000000 
#    z 0.025230 0.000000 1.810840 
# 
# From -- ./inp_files/82497.got.cif
#   From: 2010.05.17/outbox.cif.g08.bks.cpg/sg15_42_cif.got.tgz:82497.got - 2010.06.03 18:47:42.
