data_PCOD9295028
_publ_section_title
;
Structure prediction by ZEFSAII (Michael W. Deem and Ramdas Pophale) SiO2 
 PCOD9295028
Probable space group: C 2/C
;
_chemical_formula_sum "Si O2"
_cell_formula_units_Z 40
_cell_length_a 15.089409
_cell_length_b 19.832110
_cell_length_c 7.963498
_cell_angle_alpha 90.000000
_cell_angle_beta 43.476661
_cell_angle_gamma 90.000000
_cell_volume 1639.723932
_symmetry_space_group_name_H-M "C 2/C"
_symmetry_group_IT_number 15
_symmetry_cell_setting 'monoclinic'
loop_
_space_group_symop_operation_xyz
x,y,z
-x,y,1/2-z
-x,-y,-z
x,-y,1/2+z
1/2+x,1/2+y,z
1/2-x,1/2+y,1/2-z
1/2-x,1/2-y,-z
1/2+x,1/2-y,1/2+z
loop_
_atom_site_type_symbol
_atom_site_label
_atom_site_fract_x
_atom_site_fract_y
_atom_site_fract_z
Si Si1 0.957337 0.788102 0.997841
Si Si2 0.884128 0.092023 0.807123
Si Si3 0.364020 0.963896 0.029036
Si Si4 0.705058 0.294558 0.810603
Si Si5 0.861946 0.606754 0.896383
O O1 0.073607 0.756363 0.946697
O O2 0.000000 0.785977 0.750000
O O3 0.946913 0.865611 0.069995
O O4 0.821238 0.752161 0.207481
O O5 0.000000 0.055705 0.750000
O O6 0.762414 0.053322 0.904179
O O7 0.830440 0.150327 0.002530
O O8 0.500000 0.947018 0.750000
O O9 0.357918 0.045402 0.037702
O O10 0.357501 0.927231 0.218564
O O11 0.754680 0.337667 0.581513
O O12 0.000000 0.638959 0.750000
#
# Coordination Sequence:
#
# PCOD9295028 Si02
#       5
#     8   8   8   8   8
#     4  11  23  39  60  88 122 164 209 255 305 362
#     4  10  23  42  62  92 129 164 204 254 310 368
#     4  11  22  40  67  95 124 163 207 253 307 369
#     4  11  23  41  62  89 125 164 207 255 306 364
#     4  11  22  40  65  96 126 161 205 257 309 367
#
# _framework density 24.394352000000001
#
# number of rings (size 3 to 8) (size 9 to 14) (size 15 to 20)
#    0.000    1.200    0.000    7.800    0.000    3.200 
#    0.000   10.000    0.000    0.000    0.000    0.000 
#    0.000    0.000    0.000    0.000    0.000    0.000 
#
# Total GULP energy -111967.753921 kJ/mol
# GULP energy per Si atom -5598.387696 kJ/mol
# Density = 2.433883 g / cm^3
# Si number density = 24.394352 Si / 1000 Ang^3
#
#
#
# Elastic Constant Matrix: (Units=GPa)
#
#
# Indices 1 2 3 4 5 6 
#
# 1 157.9870 35.6585 59.3581 0.0000 -47.7302 0.0000
# 2 35.6585 41.9079 19.4962 0.0000 -7.2455 0.0000
# 3 59.3581 19.4962 77.0510 0.0000 -17.9349 0.0000
# 4 0.0000 0.0000 0.0000 24.8244 0.0000 -5.3559
# 5 -47.7302 -7.2455 -17.9349 0.0000 62.0585 0.0000
# 6 0.0000 0.0000 0.0000 -5.3559 0.0000 32.5421
#
#
#
# Elastic Compliance Matrix: (Units=1/GPa)
#
#
# Indices 1 2 3 4 5 6 
#
# 1 0.012116 -0.006265 -0.006164 0.000000 0.006805 0.000000
# 2 -0.006265 0.030378 -0.003384 0.000000 -0.002250 0.000000
# 3 -0.006164 -0.003384 0.018642 0.000000 0.000251 0.000000
# 4 0.000000 0.000000 0.000000 0.041766 0.000000 0.006874
# 5 0.006805 -0.002250 0.000251 0.000000 0.021158 0.000000
# 6 0.000000 0.000000 0.000000 0.006874 0.000000 0.031861
#
#
# Mechanical properties :
#
#
# Convention : Reuss Voigt Hill
#
# Bulk Modulus (GPa) = 33.88748 56.21904 45.05326
# Shear Modulus (GPa) = 25.33152 34.71387 30.02269
#
# Velocity S-wave (km/s) = 3.22594 3.77640 3.51197
# Velocity P-wave (km/s) = 5.27231 6.48929 5.91220
#
# Compressibility (1/GPa) = 0.02950943
#
# Stress axis : x y z
#
# Youngs Moduli (GPa) = 82.53773 32.91895 53.64212
#
# Poissons Ratio (x) = 0.20622 0.33067
# Poissons Ratio (y) = 0.51706 0.18152
# Poissons Ratio (z) = 0.50880 0.11140
#
# Static dielectric constant tensor:
#      x y z
#    x 1.972580 0.000000 -0.013970 
#    y 0.000000 1.922300 0.000000 
#    z -0.013970 0.000000 2.004740 
# 
# From -- ./inp_files/41957.got.cif
#   From: 2010.05.17/outbox.cif.g08.bks.cpg/sg15_21_cif.got.tgz:41957.got - 2010.06.03 18:47:42.
