data_PCOD9295497
_publ_section_title
;
Structure prediction by ZEFSAII (Michael W. Deem and Ramdas Pophale) SiO2 
 PCOD9295497
Probable space group: C 2/C
;
_chemical_formula_sum "Si O2"
_cell_formula_units_Z 56
_cell_length_a 25.409912
_cell_length_b 8.104974
_cell_length_c 12.125080
_cell_angle_alpha 90.000000
_cell_angle_beta 78.244916
_cell_angle_gamma 90.000000
_cell_volume 2444.748824
_symmetry_space_group_name_H-M "C 2/C"
_symmetry_group_IT_number 15
_symmetry_cell_setting 'monoclinic'
loop_
_space_group_symop_operation_xyz
x,y,z
-x,y,1/2-z
-x,-y,-z
x,-y,1/2+z
1/2+x,1/2+y,z
1/2-x,1/2+y,1/2-z
1/2-x,1/2-y,-z
1/2+x,1/2-y,1/2+z
loop_
_atom_site_type_symbol
_atom_site_label
_atom_site_fract_x
_atom_site_fract_y
_atom_site_fract_z
Si Si1 0.912008 0.058484 0.047409
Si Si2 0.807392 0.033902 0.696022
Si Si3 0.556434 0.041693 0.534305
Si Si4 0.991117 0.840052 0.870437
Si Si5 0.845874 0.364636 0.659024
Si Si6 0.140857 0.712502 0.092874
Si Si7 0.222152 0.328986 0.378539
O O1 0.951934 0.183023 0.093172
O O2 0.870893 0.000637 0.159321
O O3 0.874648 0.119323 0.962883
O O4 0.952715 0.933996 0.972001
O O5 0.806895 0.213891 0.633156
O O6 0.778016 0.082230 0.823012
O O7 0.781918 0.860847 0.662930
O O8 0.539693 0.170254 0.636051
O O9 0.599021 0.124363 0.432092
O O10 0.500000 0.000000 0.500000
O O11 0.591048 0.897429 0.571914
O O12 0.000000 0.928762 0.750000
O O13 0.857348 0.314957 0.779215
O O14 0.819210 0.546090 0.666457
O O15 0.197790 0.662374 0.012034
#
# Coordination Sequence:
#
# PCOD9295497 Si02
#       7
#     8   8   8   8   8   8   8
#     4  10  23  43  58  96 131 164 217 269 320 387
#     4  11  21  43  70  91 136 173 208 277 327 381
#     4  11  23  42  63  91 133 166 219 267 321 389
#     4  11  24  39  63  92 128 170 215 264 322 387
#     4  11  24  44  68  95 130 178 214 268 335 383
#     4  10  24  41  66  94 128 167 218 271 322 389
#     4  10  23  44  67  97 133 166 219 270 326 392
#
# _framework density 22.906237999999998
#
# number of rings (size 3 to 8) (size 9 to 14) (size 15 to 20)
#    0.000    1.429    4.286    0.000    4.000    0.571 
#    0.000    0.714    0.000    0.000    0.000    0.000 
#    0.000    0.000    0.000    0.000    0.000    0.000 
#
# Total GULP energy -155890.917397 kJ/mol
# GULP energy per Si atom -5567.532764 kJ/mol
# Density = 2.285410 g / cm^3
# Si number density = 22.906238 Si / 1000 Ang^3
#
#
#
# Elastic Constant Matrix: (Units=GPa)
#
#
# Indices 1 2 3 4 5 6 
#
# 1 93.8228 24.7001 48.5925 0.0000 -19.9994 0.0000
# 2 24.7001 97.7145 28.8940 0.0000 -1.6843 0.0000
# 3 48.5925 28.8940 123.1536 0.0000 -17.3078 0.0000
# 4 0.0000 0.0000 0.0000 25.0159 0.0000 -4.9815
# 5 -19.9994 -1.6843 -17.3078 0.0000 43.0542 0.0000
# 6 0.0000 0.0000 0.0000 -4.9815 0.0000 24.4537
#
#
#
# Elastic Compliance Matrix: (Units=1/GPa)
#
#
# Indices 1 2 3 4 5 6 
#
# 1 0.014663 -0.002272 -0.004566 0.000000 0.004887 0.000000
# 2 -0.002272 0.011366 -0.001967 0.000000 -0.001402 0.000000
# 3 -0.004566 -0.001967 0.010677 0.000000 0.002095 0.000000
# 4 0.000000 0.000000 0.000000 0.041665 0.000000 0.008488
# 5 0.004887 -0.001402 0.002095 0.000000 0.026284 0.000000
# 6 0.000000 0.000000 0.000000 0.008488 0.000000 0.042623
#
#
# Mechanical properties :
#
#
# Convention : Reuss Voigt Hill
#
# Bulk Modulus (GPa) = 52.36650 57.67379 55.02014
# Shear Modulus (GPa) = 29.19672 32.67171 30.93421
#
# Velocity S-wave (km/s) = 3.57405 3.78077 3.67886
# Velocity P-wave (km/s) = 6.32002 6.65521 6.48978
#
# Compressibility (1/GPa) = 0.01909618
#
# Stress axis : x y z
#
# Youngs Moduli (GPa) = 68.19944 87.98367 93.65706
#
# Poissons Ratio (x) = 0.19991 0.42760
# Poissons Ratio (y) = 0.15496 0.18423
# Poissons Ratio (z) = 0.31137 0.17307
#
# Static dielectric constant tensor:
#      x y z
#    x 1.905660 0.000000 0.011100 
#    y 0.000000 1.982390 0.000000 
#    z 0.011100 0.000000 1.863080 
# 
# From -- ./inp_files/125825.got.cif
#   From: 2010.05.17/outbox.cif.g08.bks.cpg/sg15_63_cif.got.tgz:125825.got - 2010.06.03 18:47:42.
