data_PCOD9295147
_publ_section_title
;
Structure prediction by ZEFSAII (Michael W. Deem and Ramdas Pophale) SiO2 
 PCOD9295147
Probable space group: C 2/C
;
_chemical_formula_sum "Si O2"
_cell_formula_units_Z 32
_cell_length_a 11.063263
_cell_length_b 22.709920
_cell_length_c 8.304398
_cell_angle_alpha 90.000000
_cell_angle_beta 45.692676
_cell_angle_gamma 90.000000
_cell_volume 1493.067432
_symmetry_space_group_name_H-M "C 2/C"
_symmetry_group_IT_number 15
_symmetry_cell_setting 'monoclinic'
loop_
_space_group_symop_operation_xyz
x,y,z
-x,y,1/2-z
-x,-y,-z
x,-y,1/2+z
1/2+x,1/2+y,z
1/2-x,1/2+y,1/2-z
1/2-x,1/2-y,-z
1/2+x,1/2-y,1/2+z
loop_
_atom_site_type_symbol
_atom_site_label
_atom_site_fract_x
_atom_site_fract_y
_atom_site_fract_z
Si Si1 0.163618 0.425208 0.233719
Si Si2 0.189732 0.026407 0.588730
Si Si3 0.799718 0.183889 0.409008
Si Si4 0.873206 0.624787 0.223955
O O1 0.289757 0.450007 0.250741
O O2 0.996486 0.412718 0.493143
O O3 0.182065 0.474912 0.080130
O O4 0.213211 0.363464 0.108009
O O5 0.237649 0.081233 0.430474
O O6 0.000000 0.004262 0.750000
O O7 0.750000 0.250000 0.500000
O O8 0.727270 0.169662 0.297612
O O9 0.000000 0.176732 0.250000
O O10 0.000000 0.646953 0.250000
#
# Coordination Sequence:
#
# PCOD9295147 Si02
#       4
#     8   8   8   8
#     4  11  22  38  62  94 129 169 211 259 317 377
#     4  11  21  37  62  97 133 168 209 263 319 377
#     4  12  25  45  68  93 125 168 214 262 314 376
#     4  10  23  42  65  96 130 167 210 260 317 376
#
# _framework density 21.432388
#
# number of rings (size 3 to 8) (size 9 to 14) (size 15 to 20)
#    0.000    1.000    0.000    7.500    0.000    4.000 
#    0.000   12.500    0.000    0.000    0.000    0.000 
#    0.000    0.000    0.000    0.000    0.000    0.000 
#
# Total GULP energy -89411.428940 kJ/mol
# GULP energy per Si atom -5588.214309 kJ/mol
# Density = 2.138361 g / cm^3
# Si number density = 21.432388 Si / 1000 Ang^3
#
#
#
# Elastic Constant Matrix: (Units=GPa)
#
#
# Indices 1 2 3 4 5 6 
#
# 1 178.9164 54.1964 55.1291 0.0000 11.4593 0.0000
# 2 54.1964 113.3093 16.9365 0.0000 39.8134 0.0000
# 3 55.1291 16.9365 92.1061 0.0000 9.4967 0.0000
# 4 0.0000 0.0000 0.0000 26.0646 0.0000 8.8143
# 5 11.4593 39.8134 9.4967 0.0000 37.6668 0.0000
# 6 0.0000 0.0000 0.0000 8.8143 0.0000 30.8594
#
#
#
# Elastic Compliance Matrix: (Units=1/GPa)
#
#
# Indices 1 2 3 4 5 6 
#
# 1 0.008031 -0.004324 -0.004344 0.000000 0.003223 0.000000
# 2 -0.004324 0.016473 0.001251 0.000000 -0.016412 0.000000
# 3 -0.004344 0.001251 0.013580 0.000000 -0.003425 0.000000
# 4 0.000000 0.000000 0.000000 0.042468 0.000000 -0.012130
# 5 0.003223 -0.016412 -0.003425 0.000000 0.043779 0.000000
# 6 0.000000 0.000000 0.000000 -0.012130 0.000000 0.035870
#
#
# Mechanical properties :
#
#
# Convention : Reuss Voigt Hill
#
# Bulk Modulus (GPa) = 43.00971 70.76174 56.88572
# Shear Modulus (GPa) = 27.35430 36.12282 31.73856
#
# Velocity S-wave (km/s) = 3.57642 4.10985 3.85238
# Velocity P-wave (km/s) = 6.09636 7.45715 6.81083
#
# Compressibility (1/GPa) = 0.02325056
#
# Stress axis : x y z
#
# Youngs Moduli (GPa) = 124.51311 60.70359 73.63658
#
# Poissons Ratio (x) = 0.26251 0.31989
# Poissons Ratio (y) = 0.53845 -0.09215
# Poissons Ratio (z) = 0.54090 -0.07597
#
# Static dielectric constant tensor:
#      x y z
#    x 1.866410 0.000000 0.029240 
#    y 0.000000 1.720340 0.000000 
#    z 0.029240 0.000000 1.754320 
# 
# From -- ./inp_files/30027.got.cif
#   From: 2010.05.17/outbox.cif.g08.bks.cpg/sg15_16_cif.got.tgz:30027.got - 2010.06.03 18:47:42.
