data_PCOD9295374
_publ_section_title
;
Structure prediction by ZEFSAII (Michael W. Deem and Ramdas Pophale) SiO2 
 PCOD9295374
Probable space group: C 2/C
;
_chemical_formula_sum "Si O2"
_cell_formula_units_Z 60
_cell_length_a 22.550059
_cell_length_b 9.674790
_cell_length_c 13.953726
_cell_angle_alpha 90.000000
_cell_angle_beta 115.799497
_cell_angle_gamma 90.000000
_cell_volume 2740.801407
_symmetry_space_group_name_H-M "C 2/C"
_symmetry_group_IT_number 15
_symmetry_cell_setting 'monoclinic'
loop_
_space_group_symop_operation_xyz
x,y,z
-x,y,1/2-z
-x,-y,-z
x,-y,1/2+z
1/2+x,1/2+y,z
1/2-x,1/2+y,1/2-z
1/2-x,1/2-y,-z
1/2+x,1/2-y,1/2+z
loop_
_atom_site_type_symbol
_atom_site_label
_atom_site_fract_x
_atom_site_fract_y
_atom_site_fract_z
Si Si1 0.867266 0.068225 0.438463
Si Si2 0.947464 0.696203 0.915411
Si Si3 0.064504 0.180202 0.618361
Si Si4 0.240401 0.093253 0.379238
Si Si5 0.141299 0.545082 0.170623
Si Si6 0.000000 0.787139 0.750000
Si Si7 0.731183 0.917035 0.376144
Si Si8 0.101246 0.027471 0.826441
O O1 0.885612 0.199470 0.386819
O O2 0.883110 0.097341 0.561140
O O3 0.914620 0.945692 0.435268
O O4 0.793515 0.007406 0.383531
O O5 0.919627 0.544067 0.909982
O O6 0.978942 0.708415 0.831588
O O7 0.999902 0.750009 0.029492
O O8 0.120640 0.296442 0.659556
O O9 0.060618 0.116888 0.721653
O O10 0.296106 0.026429 0.353465
O O11 0.264112 0.083583 0.505912
O O12 0.234828 0.255846 0.350019
O O13 0.170483 0.016051 0.326656
O O14 0.165067 0.484961 0.288925
O O15 0.061179 0.887174 0.817889
#
# Coordination Sequence:
#
# PCOD9295374 Si02
#       8
#     8   8   8   8   8   4   8   8
#     4  11  22  43  71 101 136 177 238 288 348 413
#     4  12  27  44  70 101 140 188 238 289 354 425
#     4  12  24  45  66 103 141 183 233 295 352 414
#     4  10  23  44  69 103 143 182 236 291 356 420
#     4  12  27  43  71 103 147 186 230 292 368 425
#     4  12  22  42  70 100 136 184 240 276 338 426
#     4  10  23  42  70 103 137 186 231 290 353 430
#     4  11  23  40  73 104 135 181 235 297 340 412
#
# _framework density 21.891407999999998
#
# number of rings (size 3 to 8) (size 9 to 14) (size 15 to 20)
#    0.000    0.800    4.000    3.200    1.867    2.133 
#    0.000    4.667    0.000    0.000    0.000    0.000 
#    0.000    0.000    0.000    0.000    0.000    0.000 
#
# Total GULP energy -167884.890918 kJ/mol
# GULP energy per Si atom -5596.163031 kJ/mol
# Density = 2.184158 g / cm^3
# Si number density = 21.891408 Si / 1000 Ang^3
#
#
#
# Elastic Constant Matrix: (Units=GPa)
#
#
# Indices 1 2 3 4 5 6 
#
# 1 84.8269 13.3551 29.3403 0.0000 -17.4906 0.0000
# 2 13.3551 60.7502 13.3465 0.0000 -15.9865 0.0000
# 3 29.3403 13.3465 111.3730 0.0000 0.0706 0.0000
# 4 0.0000 0.0000 0.0000 10.3420 0.0000 5.6162
# 5 -17.4906 -15.9865 0.0706 0.0000 31.6983 0.0000
# 6 0.0000 0.0000 0.0000 5.6162 0.0000 34.9112
#
#
#
# Elastic Compliance Matrix: (Units=1/GPa)
#
#
# Indices 1 2 3 4 5 6 
#
# 1 0.014835 -0.000292 -0.003878 0.000000 0.008048 0.000000
# 2 -0.000292 0.019583 -0.002276 0.000000 0.009721 0.000000
# 3 -0.003878 -0.002276 0.010275 0.000000 -0.003311 0.000000
# 4 0.000000 0.000000 0.000000 0.105948 0.000000 -0.017044
# 5 0.008048 0.009721 -0.003311 0.000000 0.040898 0.000000
# 6 0.000000 0.000000 0.000000 -0.017044 0.000000 0.031386
#
#
# Mechanical properties :
#
#
# Convention : Reuss Voigt Hill
#
# Bulk Modulus (GPa) = 31.44492 41.00376 36.22434
# Shear Modulus (GPa) = 20.29068 28.78418 24.53743
#
# Velocity S-wave (km/s) = 3.04777 3.63004 3.35157
# Velocity P-wave (km/s) = 5.17498 6.02833 5.61788
#
# Compressibility (1/GPa) = 0.03180164
#
# Stress axis : x y z
#
# Youngs Moduli (GPa) = 67.40616 51.06481 97.31954
#
# Poissons Ratio (x) = 0.01489 0.37745
# Poissons Ratio (y) = 0.01965 0.22151
# Poissons Ratio (z) = 0.26143 0.11623
#
# Static dielectric constant tensor:
#      x y z
#    x 1.807930 0.000000 0.013900 
#    y 0.000000 1.761100 0.000000 
#    z 0.013900 0.000000 1.818130 
# 
# From -- ./inp_files/172444.got.cif
#   From: 2010.05.17/outbox.cif.g08.bks.cpg/sg15_87_cif.got.tgz:172444.got - 2010.06.03 18:47:42.
