data_PCOD9295245
_publ_section_title
;
Structure prediction by ZEFSAII (Michael W. Deem and Ramdas Pophale) SiO2 
 PCOD9295245
Probable space group: C 2/C
;
_chemical_formula_sum "Si O2"
_cell_formula_units_Z 52
_cell_length_a 6.429551
_cell_length_b 17.008142
_cell_length_c 25.869969
_cell_angle_alpha 90.000000
_cell_angle_beta 63.521859
_cell_angle_gamma 90.000000
_cell_volume 2532.253500
_symmetry_space_group_name_H-M "C 2/C"
_symmetry_group_IT_number 15
_symmetry_cell_setting 'monoclinic'
loop_
_space_group_symop_operation_xyz
x,y,z
-x,y,1/2-z
-x,-y,-z
x,-y,1/2+z
1/2+x,1/2+y,z
1/2-x,1/2+y,1/2-z
1/2-x,1/2-y,-z
1/2+x,1/2-y,1/2+z
loop_
_atom_site_type_symbol
_atom_site_label
_atom_site_fract_x
_atom_site_fract_y
_atom_site_fract_z
Si Si1 0.759880 0.923510 0.809142
Si Si2 0.702409 0.779855 0.339780
Si Si3 0.502782 0.653121 0.602871
Si Si4 0.500000 0.835353 0.750000
Si Si5 0.942028 0.426864 0.367409
Si Si6 0.268301 0.306881 0.906870
Si Si7 0.494716 0.910117 0.018998
O O1 0.577783 0.884924 0.789923
O O2 0.793514 0.864635 0.854125
O O3 0.000000 0.937090 0.750000
O O4 0.618744 0.000997 0.842407
O O5 0.569324 0.851834 0.328884
O O6 0.518941 0.729404 0.393637
O O7 0.905177 0.816576 0.351987
O O8 0.791247 0.721047 0.287571
O O9 0.385807 0.730124 0.590277
O O10 0.732203 0.623169 0.548112
O O11 0.318781 0.580832 0.625697
O O12 0.922375 0.409631 0.430806
O O13 0.153182 0.356624 0.965042
O O14 0.500000 0.000000 0.000000
#
# Coordination Sequence:
#
# PCOD9295245 Si02
#       7
#     8   8   8   4   8   8   8
#     4  12  25  44  67 100 134 176 225 284 345 406
#     4  10  23  42  67  94 131 174 229 276 332 407
#     4  10  23  43  66  96 133 176 221 274 335 405
#     4  12  24  42  68  96 124 182 222 280 344 402
#     4  10  25  45  65  99 135 176 222 277 343 405
#     4  11  22  43  68  97 134 174 228 275 336 411
#     4  11  23  41  69 100 138 176 220 281 338 401
#
# _framework density 20.535067999999999
#
# number of rings (size 3 to 8) (size 9 to 14) (size 15 to 20)
#    0.000    1.231    4.615    0.462    1.077   11.077 
#    0.000    0.000    0.000    0.000    0.000    0.000 
#    0.000    0.000    0.000    0.000    0.000    0.000 
#
# Total GULP energy -145094.795607 kJ/mol
# GULP energy per Si atom -5580.569062 kJ/mol
# Density = 2.048833 g / cm^3
# Si number density = 20.535068 Si / 1000 Ang^3
#
#
#
# Elastic Constant Matrix: (Units=GPa)
#
#
# Indices 1 2 3 4 5 6 
#
# 1 75.3418 19.8377 20.5897 0.0000 -6.7856 0.0000
# 2 19.8377 102.7013 39.3848 0.0000 -14.1896 0.0000
# 3 20.5897 39.3848 82.2780 0.0000 -8.5521 0.0000
# 4 0.0000 0.0000 0.0000 83.6193 0.0000 69.3287
# 5 -6.7856 -14.1896 -8.5521 0.0000 23.3956 0.0000
# 6 0.0000 0.0000 0.0000 69.3287 0.0000 94.5377
#
#
#
# Elastic Compliance Matrix: (Units=1/GPa)
#
#
# Indices 1 2 3 4 5 6 
#
# 1 0.014610 -0.001455 -0.002714 0.000000 0.002363 0.000000
# 2 -0.001455 0.012752 -0.005177 0.000000 0.005420 0.000000
# 3 -0.002714 -0.005177 0.015492 0.000000 0.001736 0.000000
# 4 0.000000 0.000000 0.000000 0.030509 0.000000 -0.022373
# 5 0.002363 0.005420 0.001736 0.000000 0.047350 0.000000
# 6 0.000000 0.000000 0.000000 -0.022373 0.000000 0.026985
#
#
# Mechanical properties :
#
#
# Convention : Reuss Voigt Hill
#
# Bulk Modulus (GPa) = 41.38625 46.66063 44.02344
# Shear Modulus (GPa) = 28.66252 52.34444 40.50348
#
# Velocity S-wave (km/s) = 3.74007 5.05427 4.44600
# Velocity P-wave (km/s) = 6.23286 7.53874 6.91669
#
# Compressibility (1/GPa) = 0.02416262
#
# Stress axis : x y z
#
# Youngs Moduli (GPa) = 68.44404 78.41891 64.55128
#
# Poissons Ratio (x) = 0.11408 0.17521
# Poissons Ratio (y) = 0.09957 0.33416
# Poissons Ratio (z) = 0.18577 0.40595
#
# Static dielectric constant tensor:
#      x y z
#    x 1.766870 0.000000 -0.059230 
#    y 0.000000 1.740930 0.000000 
#    z -0.059230 0.000000 1.790120 
# 
# From -- ./inp_files/285970.got.cif
#   From: 2010.05.17/outbox.cif.g08.bks.cpg/sg15_143_cif.got.tgz:285970.got - 2010.06.03 18:47:42.
