data_PCOD9295241
_publ_section_title
;
Structure prediction by ZEFSAII (Michael W. Deem and Ramdas Pophale) SiO2 
 PCOD9295241
Probable space group: C 2/C
;
_chemical_formula_sum "Si O2"
_cell_formula_units_Z 60
_cell_length_a 24.539225
_cell_length_b 13.936770
_cell_length_c 7.602690
_cell_angle_alpha 90.000000
_cell_angle_beta 88.991040
_cell_angle_gamma 90.000000
_cell_volume 2599.698102
_symmetry_space_group_name_H-M "C 2/C"
_symmetry_group_IT_number 15
_symmetry_cell_setting 'monoclinic'
loop_
_space_group_symop_operation_xyz
x,y,z
-x,y,1/2-z
-x,-y,-z
x,-y,1/2+z
1/2+x,1/2+y,z
1/2-x,1/2+y,1/2-z
1/2-x,1/2-y,-z
1/2+x,1/2-y,1/2+z
loop_
_atom_site_type_symbol
_atom_site_label
_atom_site_fract_x
_atom_site_fract_y
_atom_site_fract_z
Si Si1 0.388417 0.397144 0.141570
Si Si2 0.361697 0.390846 0.528212
Si Si3 0.812621 0.172637 0.364591
Si Si4 0.500000 0.301633 0.250000
Si Si5 0.459985 0.252983 0.615599
Si Si6 0.556168 0.056515 0.945123
Si Si7 0.706322 0.114835 0.537174
Si Si8 0.640781 0.060802 0.223026
O O1 0.351743 0.385788 0.320448
O O2 0.386062 0.505663 0.074455
O O3 0.447830 0.366029 0.205116
O O4 0.367886 0.336870 0.975556
O O5 0.314093 0.370118 0.669286
O O6 0.406624 0.312908 0.581090
O O7 0.769710 0.110771 0.481920
O O8 0.799671 0.285387 0.359148
O O9 0.489287 0.240452 0.425222
O O10 0.500000 0.304191 0.750000
O O11 0.449671 0.146157 0.685400
O O12 0.594819 0.980391 0.853695
O O13 0.599832 0.102817 0.081147
O O14 0.500000 0.000000 0.000000
O O15 0.677126 0.125799 0.347553
O O16 0.679140 0.023914 0.638005
#
# Coordination Sequence:
#
# PCOD9295241 Si02
#       8
#     8   8   8   4   8   8   8   8
#     4  11  24  41  66  96 133 178 224 276 336 407
#     4  11  24  40  66  97 131 177 223 281 331 406
#     4  11  24  47  68 100 133 176 229 283 338 412
#     4  10  26  38  62  94 128 174 216 270 334 400
#     4  11  24  39  61  94 132 175 219 277 330 403
#     4  11  23  40  64  97 129 178 225 269 341 405
#     4  10  25  44  70  97 132 177 221 284 348 395
#     4  10  23  42  67  93 136 171 220 284 330 415
#
# _framework density 23.079602000000001
#
# number of rings (size 3 to 8) (size 9 to 14) (size 15 to 20)
#    0.000    1.333    1.333    2.800    8.400    3.200 
#    2.400    1.333    0.000    0.000    0.000    0.000 
#    0.000    0.000    0.000    0.000    0.000    0.000 
#
# Total GULP energy -167351.434998 kJ/mol
# GULP energy per Si atom -5578.381167 kJ/mol
# Density = 2.302707 g / cm^3
# Si number density = 23.079602 Si / 1000 Ang^3
#
#
#
# Elastic Constant Matrix: (Units=GPa)
#
#
# Indices 1 2 3 4 5 6 
#
# 1 52.8438 -2.5241 9.6891 0.0000 -8.2776 0.0000
# 2 -2.5241 49.0334 -18.7948 0.0000 -11.5689 0.0000
# 3 9.6891 -18.7948 71.6674 0.0000 -1.0827 0.0000
# 4 0.0000 0.0000 0.0000 71.0658 0.0000 19.3110
# 5 -8.2776 -11.5689 -1.0827 0.0000 39.1715 0.0000
# 6 0.0000 0.0000 0.0000 19.3110 0.0000 35.8314
#
#
#
# Elastic Compliance Matrix: (Units=1/GPa)
#
#
# Indices 1 2 3 4 5 6 
#
# 1 0.020122 0.001214 -0.002333 0.000000 0.004546 0.000000
# 2 0.001214 0.024755 0.006445 0.000000 0.007746 0.000000
# 3 -0.002333 0.006445 0.015987 0.000000 0.001852 0.000000
# 4 0.000000 0.000000 0.000000 0.016486 0.000000 -0.008885
# 5 0.004546 0.007746 0.001852 0.000000 0.028828 0.000000
# 6 0.000000 0.000000 0.000000 -0.008885 0.000000 0.032697
#
#
# Mechanical properties :
#
#
# Convention : Reuss Voigt Hill
#
# Bulk Modulus (GPa) = 13.98322 16.69833 15.34077
# Shear Modulus (GPa) = 32.88151 41.55870 37.22011
#
# Velocity S-wave (km/s) = 3.77862 4.24803 4.02018
# Velocity P-wave (km/s) = 5.01090 5.59570 5.31135
#
# Compressibility (1/GPa) = 0.07151429
#
# Stress axis : x y z
#
# Youngs Moduli (GPa) = 49.69780 40.39647 62.55111
#
# Poissons Ratio (x) = -0.04904 0.14595
# Poissons Ratio (y) = -0.06033 -0.40313
# Poissons Ratio (z) = 0.11596 -0.26035
#
# Static dielectric constant tensor:
#      x y z
#    x 2.091700 0.000000 0.133400 
#    y 0.000000 1.826340 0.000000 
#    z 0.133400 0.000000 2.164260 
# 
# From -- ./inp_files/61547.got.cif
#   From: 2010.05.17/outbox.cif.g08.bks.cpg/sg15_31_cif.got.tgz:61547.got - 2010.06.03 18:47:42.
