data_PCOD9295936
_publ_section_title
;
Structure prediction by ZEFSAII (Michael W. Deem and Ramdas Pophale) SiO2 
 PCOD9295936
Probable space group: C 2/C
;
_chemical_formula_sum "Si O2"
_cell_formula_units_Z 40
_cell_length_a 19.455149
_cell_length_b 10.100126
_cell_length_c 12.430122
_cell_angle_alpha 90.000000
_cell_angle_beta 135.527459
_cell_angle_gamma 90.000000
_cell_volume 1711.144330
_symmetry_space_group_name_H-M "C 2/C"
_symmetry_group_IT_number 15
_symmetry_cell_setting 'monoclinic'
loop_
_space_group_symop_operation_xyz
x,y,z
-x,y,1/2-z
-x,-y,-z
x,-y,1/2+z
1/2+x,1/2+y,z
1/2-x,1/2+y,1/2-z
1/2-x,1/2-y,-z
1/2+x,1/2-y,1/2+z
loop_
_atom_site_type_symbol
_atom_site_label
_atom_site_fract_x
_atom_site_fract_y
_atom_site_fract_z
Si Si1 0.232084 0.955403 0.271645
Si Si2 0.934260 0.865884 0.931693
Si Si3 0.190201 0.684325 0.837335
Si Si4 0.420812 0.671792 0.739993
Si Si5 0.114575 0.451088 0.886040
O O1 0.248256 0.841572 0.202462
O O2 0.163050 0.911004 0.295102
O O3 0.334503 0.987241 0.443861
O O4 0.170765 0.074331 0.148665
O O5 0.902091 0.778110 0.794547
O O6 0.002960 0.776764 0.083687
O O7 0.000000 0.000000 0.000000
O O8 0.162070 0.539606 0.846682
O O9 0.250000 0.750000 0.000000
O O10 0.500000 0.598787 0.750000
O O11 0.374838 0.795268 0.626789
O O12 0.000000 0.479921 0.750000
#
# Coordination Sequence:
#
# PCOD9295936 Si02
#       5
#     8   8   8   8   8
#     4  11  25  43  71 106 145 186 240 302 350 437
#     4  10  24  45  67 104 140 187 240 292 355 425
#     4  12  26  44  73 104 148 192 242 297 367 423
#     4  10  23  43  74 103 142 189 242 290 361 427
#     4  11  25  44  70 103 142 192 239 297 361 421
#
# _framework density 23.376169000000001
#
# number of rings (size 3 to 8) (size 9 to 14) (size 15 to 20)
#    0.000    1.200    2.000    3.000    5.600    6.400 
#    0.000    1.000    0.000    0.000    0.000    0.000 
#    0.000    0.000    0.000    0.000    0.000    0.000 
#
# Total GULP energy -111546.335287 kJ/mol
# GULP energy per Si atom -5577.316764 kJ/mol
# Density = 2.332296 g / cm^3
# Si number density = 23.376169 Si / 1000 Ang^3
#
#
#
# Elastic Constant Matrix: (Units=GPa)
#
#
# Indices 1 2 3 4 5 6 
#
# 1 90.6640 12.8279 -3.8234 0.0000 -0.6452 0.0000
# 2 12.8279 56.5242 -12.5627 0.0000 -1.4622 0.0000
# 3 -3.8234 -12.5627 151.8105 0.0000 15.9743 0.0000
# 4 0.0000 0.0000 0.0000 38.4209 0.0000 1.3891
# 5 -0.6452 -1.4622 15.9743 0.0000 28.5331 0.0000
# 6 0.0000 0.0000 0.0000 1.3891 0.0000 39.0754
#
#
#
# Elastic Compliance Matrix: (Units=1/GPa)
#
#
# Indices 1 2 3 4 5 6 
#
# 1 0.011397 -0.002570 0.000065 0.000000 0.000090 0.000000
# 2 -0.002570 0.018603 0.001467 0.000000 0.000074 0.000000
# 3 0.000065 0.001467 0.007122 0.000000 -0.003910 0.000000
# 4 0.000000 0.000000 0.000000 0.026061 0.000000 -0.000926
# 5 0.000090 0.000074 -0.003910 0.000000 0.037242 0.000000
# 6 0.000000 0.000000 0.000000 -0.000926 0.000000 0.025624
#
#
# Mechanical properties :
#
#
# Convention : Reuss Voigt Hill
#
# Bulk Modulus (GPa) = 28.53441 32.43136 30.48288
# Shear Modulus (GPa) = 35.76384 41.37633 38.57009
#
# Velocity S-wave (km/s) = 3.91567 4.21173 4.06639
# Velocity P-wave (km/s) = 5.71633 6.12824 5.92587
#
# Compressibility (1/GPa) = 0.03504540
#
# Stress axis : x y z
#
# Youngs Moduli (GPa) = 87.74476 53.75580 140.41666
#
# Poissons Ratio (x) = 0.13813 -0.00912
# Poissons Ratio (y) = 0.22547 -0.20598
# Poissons Ratio (z) = -0.00570 -0.07886
#
# Static dielectric constant tensor:
#      x y z
#    x 1.945590 0.000000 -0.034110 
#    y 0.000000 1.926210 0.000000 
#    z -0.034110 0.000000 1.932030 
# 
# From -- ./inp_files/95534.got.cif
#   From: 2010.05.17/outbox.cif.g08.bks.cpg/sg15_48_cif.got.tgz:95534.got - 2010.06.03 18:47:42.
