data_PCOD9295671
_publ_section_title
;
Structure prediction by ZEFSAII (Michael W. Deem and Ramdas Pophale) SiO2 
 PCOD9295671
Probable space group: C 2/C
;
_chemical_formula_sum "Si O2"
_cell_formula_units_Z 48
_cell_length_a 14.372361
_cell_length_b 13.122320
_cell_length_c 25.059067
_cell_angle_alpha 90.000000
_cell_angle_beta 150.557644
_cell_angle_gamma 90.000000
_cell_volume 2323.107338
_symmetry_space_group_name_H-M "C 2/C"
_symmetry_group_IT_number 15
_symmetry_cell_setting 'monoclinic'
loop_
_space_group_symop_operation_xyz
x,y,z
-x,y,1/2-z
-x,-y,-z
x,-y,1/2+z
1/2+x,1/2+y,z
1/2-x,1/2+y,1/2-z
1/2-x,1/2-y,-z
1/2+x,1/2-y,1/2+z
loop_
_atom_site_type_symbol
_atom_site_label
_atom_site_fract_x
_atom_site_fract_y
_atom_site_fract_z
Si Si1 0.855936 0.073772 0.896381
Si Si2 0.488512 0.098817 0.956956
Si Si3 0.194142 0.101519 0.993930
Si Si4 0.689063 0.705728 0.879194
Si Si5 0.826479 0.754726 0.627317
Si Si6 0.004485 0.428162 0.347512
O O1 0.798380 0.171958 0.902277
O O2 0.652601 0.035087 0.773684
O O3 0.978364 0.100636 0.905518
O O4 0.000000 0.000000 0.000000
O O5 0.357040 0.178860 0.922369
O O6 0.416739 0.068540 0.862602
O O7 0.690530 0.152056 0.046709
O O8 0.500000 0.000000 0.000000
O O9 0.288901 0.187110 0.079165
O O10 0.311668 0.999259 0.062487
O O11 0.200457 0.127938 0.934685
O O12 0.500000 0.700107 0.750000
O O13 0.000000 0.792209 0.750000
O O14 0.927348 0.686571 0.632308
#
# Coordination Sequence:
#
# PCOD9295671 Si02
#       6
#     8   8   8   8   8   8
#     4  11  22  40  69  98 129 166 217 271 331 379
#     4  12  24  45  64  93 133 175 216 262 331 393
#     4  11  23  43  66 102 128 171 224 265 327 389
#     4  11  25  42  67  94 138 174 213 270 326 389
#     4  10  23  43  67  94 131 173 220 272 327 390
#     4  11  24  42  68  99 130 170 220 272 322 394
#
# _framework density 20.661981999999998
#
# number of rings (size 3 to 8) (size 9 to 14) (size 15 to 20)
#    0.000    1.000    5.000    1.500    2.333    0.667 
#    3.000    1.667    0.000    0.000    0.000    0.000 
#    0.000    0.000    0.000    0.000    0.000    0.000 
#
# Total GULP energy -133988.357988 kJ/mol
# GULP energy per Si atom -5582.848249 kJ/mol
# Density = 2.061495 g / cm^3
# Si number density = 20.661982 Si / 1000 Ang^3
#
#
#
# Elastic Constant Matrix: (Units=GPa)
#
#
# Indices 1 2 3 4 5 6 
#
# 1 93.8141 -1.4110 23.5377 0.0000 -10.6646 0.0000
# 2 -1.4110 47.6225 39.1940 0.0001 -12.1443 0.0000
# 3 23.5377 39.1940 135.2406 0.0003 -11.6241 0.0000
# 4 0.0000 0.0001 0.0003 24.2148 -0.0001 4.4469
# 5 -10.6646 -12.1443 -11.6241 -0.0001 22.3265 0.0000
# 6 0.0000 0.0000 0.0000 4.4469 0.0000 18.3790
#
#
#
# Elastic Compliance Matrix: (Units=1/GPa)
#
#
# Indices 1 2 3 4 5 6 
#
# 1 0.012201 0.004405 -0.002819 0.000000 0.006756 0.000000
# 2 0.004405 0.032215 -0.008810 0.000000 0.015040 0.000000
# 3 -0.002819 -0.008810 0.010375 0.000000 -0.000737 0.000000
# 4 0.000000 0.000000 0.000000 0.043217 0.000000 -0.010457
# 5 0.006756 0.015040 -0.000737 0.000000 0.055814 0.000000
# 6 0.000000 0.000000 0.000000 -0.010457 0.000000 0.056940
#
#
# Mechanical properties :
#
#
# Convention : Reuss Voigt Hill
#
# Bulk Modulus (GPa) = 24.78832 44.36874 34.57853
# Shear Modulus (GPa) = 20.95035 27.34116 24.14575
#
# Velocity S-wave (km/s) = 3.18772 3.64161 3.42220
# Velocity P-wave (km/s) = 5.05686 6.26115 5.69095
#
# Compressibility (1/GPa) = 0.04034159
#
# Stress axis : x y z
#
# Youngs Moduli (GPa) = 81.96041 31.04111 96.38725
#
# Poissons Ratio (x) = -0.13673 0.27175
# Poissons Ratio (y) = -0.36102 0.84919
# Poissons Ratio (z) = 0.23108 0.27348
#
# Static dielectric constant tensor:
#      x y z
#    x 1.763970 0.000000 -0.021990 
#    y 0.000000 1.737190 0.000000 
#    z -0.021990 0.000000 1.741140 
# 
# From -- ./inp_files/96868.got.cif
#   From: 2010.05.17/outbox.cif.g08.bks.cpg/sg15_49_cif.got.tgz:96868.got - 2010.06.03 18:47:42.
