data_PCOD9295759
_publ_section_title
;
Structure prediction by ZEFSAII (Michael W. Deem and Ramdas Pophale) SiO2 
 PCOD9295759
Probable space group: C 2/C
;
_chemical_formula_sum "Si O2"
_cell_formula_units_Z 48
_cell_length_a 18.792035
_cell_length_b 14.506277
_cell_length_c 10.671002
_cell_angle_alpha 90.000000
_cell_angle_beta 46.388311
_cell_angle_gamma 90.000000
_cell_volume 2106.164241
_symmetry_space_group_name_H-M "C 2/C"
_symmetry_group_IT_number 15
_symmetry_cell_setting 'monoclinic'
loop_
_space_group_symop_operation_xyz
x,y,z
-x,y,1/2-z
-x,-y,-z
x,-y,1/2+z
1/2+x,1/2+y,z
1/2-x,1/2+y,1/2-z
1/2-x,1/2-y,-z
1/2+x,1/2-y,1/2+z
loop_
_atom_site_type_symbol
_atom_site_label
_atom_site_fract_x
_atom_site_fract_y
_atom_site_fract_z
Si Si1 0.768848 0.513000 0.631038
Si Si2 0.864744 0.687150 0.642430
Si Si3 0.556360 0.771272 0.810500
Si Si4 0.733260 0.837645 0.720932
Si Si5 0.383424 0.149324 0.895561
Si Si6 0.553103 0.552072 0.819489
O O1 0.808787 0.607308 0.637301
O O2 0.750431 0.444400 0.771873
O O3 0.849972 0.457436 0.452431
O O4 0.666911 0.521156 0.681479
O O5 0.833150 0.781817 0.612939
O O6 0.840387 0.686932 0.818363
O O7 0.982000 0.676076 0.493336
O O8 0.500000 0.785960 0.750000
O O9 0.665166 0.813047 0.687056
O O10 0.557567 0.662392 0.836487
O O11 0.666948 0.805123 0.921365
O O12 0.500000 0.159094 0.750000
O O13 0.500000 0.535307 0.750000
O O14 0.500000 0.500000 0.000000
#
# Coordination Sequence:
#
# PCOD9295759 Si02
#       6
#     8   8   8   8   8   8
#     4  10  25  40  69 105 131 184 225 287 342 416
#     4  12  22  45  70  95 141 177 224 292 345 406
#     4  11  25  44  69 100 138 185 227 283 349 412
#     4  10  23  44  65 104 133 174 232 273 348 406
#     4  10  23  43  69 101 132 172 237 284 343 408
#     4  11  25  48  70 105 144 185 238 286 351 419
#
# _framework density 22.790246
#
# number of rings (size 3 to 8) (size 9 to 14) (size 15 to 20)
#    1.000    0.333    3.333    1.500    2.333    5.333 
#    3.000    0.000    0.000    0.000    0.000    0.000 
#    0.000    0.000    0.000    0.000    0.000    0.000 
#
# Total GULP energy -134080.065435 kJ/mol
# GULP energy per Si atom -5586.669393 kJ/mol
# Density = 2.273837 g / cm^3
# Si number density = 22.790246 Si / 1000 Ang^3
#
#
#
# Elastic Constant Matrix: (Units=GPa)
#
#
# Indices 1 2 3 4 5 6 
#
# 1 138.9513 22.3839 25.0166 0.0000 -6.5813 0.0000
# 2 22.3839 64.3880 -14.0746 0.0000 2.6641 0.0000
# 3 25.0166 -14.0746 55.2569 0.0000 -2.3914 0.0000
# 4 0.0000 0.0000 0.0000 27.1858 0.0000 -1.9678
# 5 -6.5813 2.6641 -2.3914 0.0000 41.5017 0.0000
# 6 0.0000 0.0000 0.0000 -1.9678 0.0000 31.2949
#
#
#
# Elastic Compliance Matrix: (Units=1/GPa)
#
#
# Indices 1 2 3 4 5 6 
#
# 1 0.008849 -0.004232 -0.005024 0.000000 0.001385 0.000000
# 2 -0.004232 0.018498 0.006563 0.000000 -0.001480 0.000000
# 3 -0.005024 0.006563 0.022046 0.000000 0.000052 0.000000
# 4 0.000000 0.000000 0.000000 0.036952 0.000000 0.002324
# 5 0.001385 -0.001480 0.000052 0.000000 0.024413 0.000000
# 6 0.000000 0.000000 0.000000 0.002324 0.000000 0.032100
#
#
# Mechanical properties :
#
#
# Convention : Reuss Voigt Hill
#
# Bulk Modulus (GPa) = 22.72323 36.13867 29.43095
# Shear Modulus (GPa) = 30.69156 35.01450 32.85303
#
# Velocity S-wave (km/s) = 3.67372 3.92392 3.80088
# Velocity P-wave (km/s) = 5.29029 6.03499 5.67487
#
# Compressibility (1/GPa) = 0.04400782
#
# Stress axis : x y z
#
# Youngs Moduli (GPa) = 113.01281 54.06033 45.36015
#
# Poissons Ratio (x) = 0.22876 0.22789
# Poissons Ratio (y) = 0.47823 -0.29771
# Poissons Ratio (z) = 0.56777 -0.35482
#
# Static dielectric constant tensor:
#      x y z
#    x 1.844070 0.000000 0.043310 
#    y 0.000000 1.806410 0.000000 
#    z 0.043310 0.000000 1.904980 
# 
# From -- ./inp_files/112942.got.cif
#   From: 2010.05.17/outbox.cif.g08.bks.cpg/sg15_57_cif.got.tgz:112942.got - 2010.06.03 18:47:42.
