data_PCOD9295425
_publ_section_title
;
Structure prediction by ZEFSAII (Michael W. Deem and Ramdas Pophale) SiO2 
 PCOD9295425
Probable space group: C 2/C
;
_chemical_formula_sum "Si O2"
_cell_formula_units_Z 56
_cell_length_a 16.101061
_cell_length_b 14.857815
_cell_length_c 21.321401
_cell_angle_alpha 90.000000
_cell_angle_beta 27.514647
_cell_angle_gamma 90.000000
_cell_volume 2356.372715
_symmetry_space_group_name_H-M "C 2/C"
_symmetry_group_IT_number 15
_symmetry_cell_setting 'monoclinic'
loop_
_space_group_symop_operation_xyz
x,y,z
-x,y,1/2-z
-x,-y,-z
x,-y,1/2+z
1/2+x,1/2+y,z
1/2-x,1/2+y,1/2-z
1/2-x,1/2-y,-z
1/2+x,1/2-y,1/2+z
loop_
_atom_site_type_symbol
_atom_site_label
_atom_site_fract_x
_atom_site_fract_y
_atom_site_fract_z
Si Si1 0.321991 0.023845 0.037331
Si Si2 0.479560 0.590001 0.093193
Si Si3 0.382275 0.694526 0.276561
Si Si4 0.224130 0.433709 0.302433
Si Si5 0.556810 0.294541 0.425189
Si Si6 0.203085 0.738455 0.103282
Si Si7 0.685331 0.972081 0.601124
O O1 0.189519 0.107109 0.137957
O O2 0.280315 0.952172 0.120187
O O3 0.520493 0.065621 0.914422
O O4 0.304492 0.980231 0.980938
O O5 0.490874 0.660310 0.143030
O O6 0.310616 0.525562 0.217495
O O7 0.473562 0.638265 0.031522
O O8 0.651479 0.527105 0.980526
O O9 0.500000 0.746221 0.250000
O O10 0.211721 0.743368 0.359880
O O11 0.343725 0.350429 0.197209
O O12 0.387511 0.235271 0.515845
O O13 0.192784 0.630455 0.118979
O O14 0.000000 0.775173 0.250000
O O15 0.250000 0.750000 0.000000
O O16 0.500000 0.012076 0.750000
#
# Coordination Sequence:
#
# PCOD9295425 Si02
#       7
#     8   8   8   8   8   8   8
#     4  10  23  43  73 104 142 183 250 293 367 437
#     4  11  24  46  74 102 143 183 248 299 361 442
#     4  11  26  46  71 108 149 190 236 303 372 442
#     4  10  23  42  71 104 134 193 236 298 361 436
#     4  12  27  44  74 103 152 193 244 303 374 433
#     4  11  29  48  71 109 149 195 250 306 372 438
#     4  11  23  45  77 105 138 187 244 306 355 441
#
# _framework density 23.765340999999999
#
# number of rings (size 3 to 8) (size 9 to 14) (size 15 to 20)
#    0.000    1.143    2.857    1.286    8.000    5.714 
#    0.000    0.000    0.000    0.000    0.000    0.000 
#    0.000    0.000    0.000    0.000    0.000    0.000 
#
# Total GULP energy -156734.618843 kJ/mol
# GULP energy per Si atom -5597.664959 kJ/mol
# Density = 2.371125 g / cm^3
# Si number density = 23.765341 Si / 1000 Ang^3
#
#
#
# Elastic Constant Matrix: (Units=GPa)
#
#
# Indices 1 2 3 4 5 6 
#
# 1 125.6481 18.3212 41.2837 -0.0067 -21.2710 0.0031
# 2 18.3212 50.4036 16.3326 0.0063 -5.4780 0.0006
# 3 41.2837 16.3326 126.5292 0.0042 -7.5982 0.0020
# 4 -0.0067 0.0063 0.0042 14.7987 0.0009 -1.6566
# 5 -21.2710 -5.4780 -7.5982 0.0009 38.4975 -0.0025
# 6 0.0031 0.0006 0.0020 -1.6566 -0.0025 32.1968
#
#
#
# Elastic Compliance Matrix: (Units=1/GPa)
#
#
# Indices 1 2 3 4 5 6 
#
# 1 0.009954 -0.002245 -0.002679 0.000006 0.004652 0.000000
# 2 -0.002245 0.021443 -0.001950 -0.000010 0.001426 0.000000
# 3 -0.002679 -0.001950 0.009030 -0.000003 0.000025 0.000000
# 4 0.000006 -0.000010 -0.000003 0.067965 0.000000 0.003497
# 5 0.004652 0.001426 0.000025 0.000000 0.028754 0.000002
# 6 0.000000 0.000000 0.000000 0.003497 0.000002 0.031239
#
#
# Mechanical properties :
#
#
# Convention : Reuss Voigt Hill
#
# Bulk Modulus (GPa) = 37.48031 50.49509 43.98770
# Shear Modulus (GPa) = 26.17478 32.20817 29.19147
#
# Velocity S-wave (km/s) = 3.32231 3.68538 3.50854
# Velocity P-wave (km/s) = 5.52469 6.27717 5.91291
#
# Compressibility (1/GPa) = 0.02668067
#
# Stress axis : x y z
#
# Youngs Moduli (GPa) = 100.46648 46.63628 110.73639
#
# Poissons Ratio (x) = 0.10468 0.29662
# Poissons Ratio (y) = 0.22550 0.21592
# Poissons Ratio (z) = 0.26911 0.09093
#
# Static dielectric constant tensor:
#      x y z
#    x 2.035290 0.000000 -0.027440 
#    y 0.000000 1.916010 -0.000010 
#    z -0.027440 -0.000010 1.804290 
# 
# From -- ./inp_files/245111.got.cif
#   From: 2010.05.17/outbox.cif.g08.bks.cpg/sg15_123_cif.got.tgz:245111.got - 2010.06.03 18:47:42.
