data_PCOD9295285
_publ_section_title
;
Structure prediction by ZEFSAII (Michael W. Deem and Ramdas Pophale) SiO2 
 PCOD9295285
Probable space group: C 2/C
;
_chemical_formula_sum "Si O2"
_cell_formula_units_Z 40
_cell_length_a 13.667036
_cell_length_b 7.774145
_cell_length_c 14.030230
_cell_angle_alpha 90.000000
_cell_angle_beta 106.348838
_cell_angle_gamma 90.000000
_cell_volume 1430.429587
_symmetry_space_group_name_H-M "C 2/C"
_symmetry_group_IT_number 15
_symmetry_cell_setting 'monoclinic'
loop_
_space_group_symop_operation_xyz
x,y,z
-x,y,1/2-z
-x,-y,-z
x,-y,1/2+z
1/2+x,1/2+y,z
1/2-x,1/2+y,1/2-z
1/2-x,1/2-y,-z
1/2+x,1/2-y,1/2+z
loop_
_atom_site_type_symbol
_atom_site_label
_atom_site_fract_x
_atom_site_fract_y
_atom_site_fract_z
Si Si1 0.049011 0.060896 0.669924
Si Si2 0.161498 0.446297 0.999835
Si Si3 0.226021 0.131906 0.316601
Si Si4 0.623419 0.990053 0.788191
Si Si5 0.507029 0.742262 0.460547
O O1 0.000000 0.145279 0.750000
O O2 0.044836 0.155824 0.568408
O O3 0.155868 0.989536 0.733462
O O4 0.986939 0.887022 0.625350
O O5 0.168948 0.388337 0.892867
O O6 0.075223 0.592498 0.963354
O O7 0.254405 0.542741 0.075433
O O8 0.109115 0.301931 0.050924
O O9 0.176660 0.320528 0.305924
O O10 0.335076 0.112817 0.292523
O O11 0.500000 0.008256 0.750000
#
# Coordination Sequence:
#
# PCOD9295285 Si02
#       5
#     8   8   8   8   8
#     4  11  24  44  68 102 147 190 236 301 361 423
#     4  11  23  43  69 101 140 186 239 300 358 422
#     4  12  25  44  73 107 142 191 248 294 360 440
#     4  12  27  48  73 106 150 194 239 301 364 424
#     4  10  23  42  68 101 140 189 243 290 358 438
#
# _framework density 27.963629000000001
#
# number of rings (size 3 to 8) (size 9 to 14) (size 15 to 20)
#    0.000    0.800    0.000    8.400    0.000    7.200 
#    0.000    5.000    0.000    0.000    0.000    0.000 
#    0.000    0.000    0.000    0.000    0.000    0.000 
#
# Total GULP energy -112242.562694 kJ/mol
# GULP energy per Si atom -5612.128135 kJ/mol
# Density = 2.789998 g / cm^3
# Si number density = 27.963629 Si / 1000 Ang^3
#
#
#
# Elastic Constant Matrix: (Units=GPa)
#
#
# Indices 1 2 3 4 5 6 
#
# 1 137.0596 27.6250 37.6873 0.0000 22.6457 0.0000
# 2 27.6250 91.7537 26.4278 0.0000 8.6002 0.0000
# 3 37.6873 26.4278 168.0499 0.0000 10.5194 0.0000
# 4 0.0000 0.0000 0.0000 56.9279 0.0000 -2.1603
# 5 22.6457 8.6002 10.5194 0.0000 47.7190 0.0000
# 6 0.0000 0.0000 0.0000 -2.1603 0.0000 40.1571
#
#
#
# Elastic Compliance Matrix: (Units=1/GPa)
#
#
# Indices 1 2 3 4 5 6 
#
# 1 0.008634 -0.001865 -0.001427 0.000000 -0.003447 0.000000
# 2 -0.001865 0.011954 -0.001401 0.000000 -0.000960 0.000000
# 3 -0.001427 -0.001401 0.006523 0.000000 -0.000508 0.000000
# 4 0.000000 0.000000 0.000000 0.017602 0.000000 0.000947
# 5 -0.003447 -0.000960 -0.000508 0.000000 0.022877 0.000000
# 6 0.000000 0.000000 0.000000 0.000947 0.000000 0.024953
#
#
# Mechanical properties :
#
#
# Convention : Reuss Voigt Hill
#
# Bulk Modulus (GPa) = 56.42442 64.48261 60.45352
# Shear Modulus (GPa) = 46.36567 49.30232 47.83399
#
# Velocity S-wave (km/s) = 4.07636 4.20347 4.14040
# Velocity P-wave (km/s) = 6.50978 6.83143 6.67254
#
# Compressibility (1/GPa) = 0.01772282
#
# Stress axis : x y z
#
# Youngs Moduli (GPa) = 115.82169 83.65377 153.30664
#
# Poissons Ratio (x) = 0.15605 0.21880
# Poissons Ratio (y) = 0.21605 0.21485
# Poissons Ratio (z) = 0.16530 0.11724
#
# Static dielectric constant tensor:
#      x y z
#    x 2.284830 0.000000 -0.082860 
#    y 0.000000 2.201460 0.000000 
#    z -0.082860 0.000000 2.100250 
# 
# From -- ./inp_files/150768.got.cif
#   From: 2010.05.17/outbox.cif.g08.bks.cpg/sg15_76_cif.got.tgz:150768.got - 2010.06.03 18:47:42.
