data_PCOD9295866
_publ_section_title
;
Structure prediction by ZEFSAII (Michael W. Deem and Ramdas Pophale) SiO2 
 PCOD9295866
Probable space group: C 2/C
;
_chemical_formula_sum "Si O2"
_cell_formula_units_Z 48
_cell_length_a 8.077562
_cell_length_b 19.177563
_cell_length_c 25.975662
_cell_angle_alpha 90.000000
_cell_angle_beta 150.015768
_cell_angle_gamma 90.000000
_cell_volume 2010.959239
_symmetry_space_group_name_H-M "C 2/C"
_symmetry_group_IT_number 15
_symmetry_cell_setting 'monoclinic'
loop_
_space_group_symop_operation_xyz
x,y,z
-x,y,1/2-z
-x,-y,-z
x,-y,1/2+z
1/2+x,1/2+y,z
1/2-x,1/2+y,1/2-z
1/2-x,1/2-y,-z
1/2+x,1/2-y,1/2+z
loop_
_atom_site_type_symbol
_atom_site_label
_atom_site_fract_x
_atom_site_fract_y
_atom_site_fract_z
Si Si1 0.344116 0.195548 0.471068
Si Si2 0.127602 0.421185 0.670579
Si Si3 0.646851 0.444373 0.231629
Si Si4 0.135465 0.682361 0.839749
Si Si5 0.208514 0.297914 0.858199
Si Si6 0.254569 0.088252 0.974933
O O1 0.194392 0.258466 0.397346
O O2 0.686469 0.224642 0.587710
O O3 0.430528 0.132635 0.458076
O O4 0.072591 0.174361 0.439769
O O5 0.500000 0.408830 0.750000
O O6 0.151021 0.483643 0.717679
O O7 0.974464 0.351266 0.653470
O O8 0.890082 0.450766 0.561254
O O9 0.500000 0.441881 0.250000
O O10 0.386937 0.446530 0.114587
O O11 0.876728 0.377011 0.286560
O O12 0.475630 0.642139 0.919509
O O13 0.000000 0.713958 0.750000
O O14 0.000000 0.289233 0.750000
#
# Coordination Sequence:
#
# PCOD9295866 Si02
#       6
#     8   8   8   8   8   8
#     4  11  25  43  70 108 140 184 231 285 364 416
#     4  11  25  49  69 100 140 192 239 291 353 411
#     4  10  26  45  71 100 138 187 242 293 352 413
#     4  10  23  43  71 103 139 187 228 294 352 421
#     4  11  26  42  69 106 143 181 230 297 343 421
#     4  11  24  45  71 102 141 187 230 292 355 418
#
# _framework density 23.869205000000001
#
# number of rings (size 3 to 8) (size 9 to 14) (size 15 to 20)
#    0.000    1.333    1.667    1.500    9.333    6.000 
#    3.000    0.000    0.000    0.000    0.000    0.000 
#    0.000    0.000    0.000    0.000    0.000    0.000 
#
# Total GULP energy -134357.383771 kJ/mol
# GULP energy per Si atom -5598.224324 kJ/mol
# Density = 2.381488 g / cm^3
# Si number density = 23.869205 Si / 1000 Ang^3
#
#
#
# Elastic Constant Matrix: (Units=GPa)
#
#
# Indices 1 2 3 4 5 6 
#
# 1 89.6188 21.5022 32.6358 0.0082 0.4220 0.0042
# 2 21.5022 56.9144 38.9348 -0.0023 -1.9507 0.0099
# 3 32.6358 38.9348 157.1673 0.0068 -38.1790 0.0117
# 4 0.0082 -0.0023 0.0068 32.7574 0.0067 6.8468
# 5 0.4220 -1.9507 -38.1790 0.0067 36.2083 0.0063
# 6 0.0042 0.0099 0.0117 6.8468 0.0063 4.7589
#
#
#
# Elastic Compliance Matrix: (Units=1/GPa)
#
#
# Indices 1 2 3 4 5 6 
#
# 1 0.012898 -0.003166 -0.002651 -0.000005 -0.003116 0.000013
# 2 -0.003166 0.022913 -0.006332 0.000013 -0.005405 -0.000041
# 3 -0.002651 -0.006332 0.011301 0.000002 0.011606 -0.000030
# 4 -0.000005 0.000013 0.000002 0.043656 0.000005 -0.062809
# 5 -0.003116 -0.005405 0.011606 0.000005 0.039600 -0.000074
# 6 0.000013 -0.000041 -0.000030 -0.062809 -0.000074 0.300501
#
#
# Mechanical properties :
#
#
# Convention : Reuss Voigt Hill
#
# Bulk Modulus (GPa) = 43.83239 54.42733 49.12986
# Shear Modulus (GPa) = 10.80450 28.78678 19.79564
#
# Velocity S-wave (km/s) = 2.12988 3.47655 2.88295
# Velocity P-wave (km/s) = 4.94489 6.24236 5.63112
#
# Compressibility (1/GPa) = 0.02281418
#
# Stress axis : x y z
#
# Youngs Moduli (GPa) = 77.53107 43.64416 88.48878
#
# Poissons Ratio (x) = 0.13819 0.23457
# Poissons Ratio (y) = 0.24548 0.56027
# Poissons Ratio (z) = 0.20552 0.27634
#
# Static dielectric constant tensor:
#      x y z
#    x 1.910270 0.000000 -0.005270 
#    y 0.000000 1.896230 0.000000 
#    z -0.005270 0.000000 1.942220 
# 
# From -- ./inp_files/290146.got.cif
#   From: 2010.05.17/outbox.cif.g08.bks.cpg/sg15_146_cif.got.tgz:290146.got - 2010.06.03 18:47:42.
