data_PCOD9295175
_publ_section_title
;
Structure prediction by ZEFSAII (Michael W. Deem and Ramdas Pophale) SiO2 
 PCOD9295175
Probable space group: C 2/C
;
_chemical_formula_sum "Si O2"
_cell_formula_units_Z 52
_cell_length_a 8.095392
_cell_length_b 18.209472
_cell_length_c 24.351094
_cell_angle_alpha 90.000000
_cell_angle_beta 137.705238
_cell_angle_gamma 90.000000
_cell_volume 2415.645579
_symmetry_space_group_name_H-M "C 2/C"
_symmetry_group_IT_number 15
_symmetry_cell_setting 'monoclinic'
loop_
_space_group_symop_operation_xyz
x,y,z
-x,y,1/2-z
-x,-y,-z
x,-y,1/2+z
1/2+x,1/2+y,z
1/2-x,1/2+y,1/2-z
1/2-x,1/2-y,-z
1/2+x,1/2-y,1/2+z
loop_
_atom_site_type_symbol
_atom_site_label
_atom_site_fract_x
_atom_site_fract_y
_atom_site_fract_z
Si Si1 0.500000 0.108721 0.750000
Si Si2 0.770728 0.775924 0.931024
Si Si3 0.026948 0.147029 0.913401
Si Si4 0.735414 0.141352 0.206169
Si Si5 0.043658 0.505359 0.356515
Si Si6 0.360436 0.621560 0.361359
Si Si7 0.261107 0.012577 0.477562
O O1 0.750650 0.151968 0.823181
O O2 0.537322 0.056471 0.706024
O O3 0.724732 0.689743 0.924571
O O4 0.495619 0.810562 0.869992
O O5 0.872617 0.804428 0.898978
O O6 0.934904 0.811631 0.019210
O O7 0.098181 0.061771 0.935578
O O8 0.674938 0.057139 0.175198
O O9 0.743733 0.138680 0.274288
O O10 0.000000 0.165097 0.250000
O O11 0.212377 0.562439 0.362908
O O12 0.179673 0.474972 0.443508
O O13 0.617558 0.581372 0.417454
O O14 0.500000 0.000000 0.500000
#
# Coordination Sequence:
#
# PCOD9295175 Si02
#       7
#     4   8   8   8   8   8   8
#     4  12  22  38  68 100 124 174 224 288 332 396
#     4  10  23  42  66  89 130 181 218 266 331 413
#     4  11  23  42  65  93 135 169 225 270 342 389
#     4  11  21  36  64  98 126 165 223 275 323 397
#     4  11  19  37  62  94 128 171 219 269 340 399
#     4  11  20  39  65  96 127 174 224 268 332 405
#     4  12  23  39  66 100 134 170 218 286 336 391
#
# _framework density 21.526337000000002
#
# number of rings (size 3 to 8) (size 9 to 14) (size 15 to 20)
#    0.000    0.923    6.154    3.692    1.077    0.000 
#    0.000    3.846    0.000    0.000    0.000    0.000 
#    0.000    0.000    0.000    0.000    0.000    0.000 
#
# Total GULP energy -145315.880358 kJ/mol
# GULP energy per Si atom -5589.072321 kJ/mol
# Density = 2.147734 g / cm^3
# Si number density = 21.526337 Si / 1000 Ang^3
#
#
#
# Elastic Constant Matrix: (Units=GPa)
#
#
# Indices 1 2 3 4 5 6 
#
# 1 59.6563 -5.7942 23.3879 -0.0001 5.5545 0.0000
# 2 -5.7942 63.9466 28.2057 0.0002 -6.3231 0.0001
# 3 23.3879 28.2057 138.1576 0.0008 -6.1762 0.0002
# 4 -0.0001 0.0002 0.0008 13.2434 0.0001 0.1394
# 5 5.5545 -6.3231 -6.1762 0.0001 30.2340 0.0000
# 6 0.0000 0.0001 0.0002 0.1394 0.0000 30.5211
#
#
#
# Elastic Compliance Matrix: (Units=1/GPa)
#
#
# Indices 1 2 3 4 5 6 
#
# 1 0.018981 0.003130 -0.004015 0.000000 -0.003653 0.000000
# 2 0.003130 0.017958 -0.004091 0.000000 0.002345 0.000000
# 3 -0.004015 -0.004091 0.008828 0.000000 0.001686 0.000000
# 4 0.000000 0.000000 0.000000 0.075513 -0.000001 -0.000345
# 5 -0.003653 0.002345 0.001686 -0.000001 0.034581 0.000000
# 6 0.000000 0.000000 0.000000 -0.000345 0.000000 0.032766
#
#
# Mechanical properties :
#
#
# Convention : Reuss Voigt Hill
#
# Bulk Modulus (GPa) = 27.92221 39.26215 33.59218
# Shear Modulus (GPa) = 23.75080 29.19711 26.47395
#
# Velocity S-wave (km/s) = 3.32525 3.68685 3.51071
# Velocity P-wave (km/s) = 5.26711 6.03345 5.66326
#
# Compressibility (1/GPa) = 0.03581378
#
# Stress axis : x y z
#
# Youngs Moduli (GPa) = 52.68426 55.68518 113.27000
#
# Poissons Ratio (x) = -0.17428 0.45483
# Poissons Ratio (y) = -0.16489 0.46342
# Poissons Ratio (z) = 0.21155 0.22782
#
# Static dielectric constant tensor:
#      x y z
#    x 1.814430 0.000000 0.030260 
#    y 0.000000 1.797030 0.000000 
#    z 0.030260 0.000000 1.798210 
# 
# From -- ./inp_files/266166.got.cif
#   From: 2010.05.17/outbox.cif.g08.bks.cpg/sg15_134_cif.got.tgz:266166.got - 2010.06.03 18:47:42.
