data_PCOD9295124
_publ_section_title
;
Structure prediction by ZEFSAII (Michael W. Deem and Ramdas Pophale) SiO2 
 PCOD9295124
Probable space group: C 2/C
;
_chemical_formula_sum "Si O2"
_cell_formula_units_Z 28
_cell_length_a 19.087566
_cell_length_b 9.028033
_cell_length_c 12.778875
_cell_angle_alpha 90.000000
_cell_angle_beta 28.644372
_cell_angle_gamma 90.000000
_cell_volume 1055.622563
_symmetry_space_group_name_H-M "C 2/C"
_symmetry_group_IT_number 15
_symmetry_cell_setting 'monoclinic'
loop_
_space_group_symop_operation_xyz
x,y,z
-x,y,1/2-z
-x,-y,-z
x,-y,1/2+z
1/2+x,1/2+y,z
1/2-x,1/2+y,1/2-z
1/2-x,1/2-y,-z
1/2+x,1/2-y,1/2+z
loop_
_atom_site_type_symbol
_atom_site_label
_atom_site_fract_x
_atom_site_fract_y
_atom_site_fract_z
Si Si1 0.484260 0.378966 0.389995
Si Si2 0.328336 0.168361 0.226823
Si Si3 0.000000 0.836598 0.750000
Si Si4 0.081381 0.434591 0.237226
O O1 0.500000 0.326825 0.250000
O O2 0.613153 0.313566 0.290645
O O3 0.324762 0.320911 0.632185
O O4 0.481199 0.555899 0.374336
O O5 0.311227 0.039875 0.339260
O O6 0.457028 0.114870 0.982488
O O7 0.877850 0.716330 0.877659
O O8 0.000000 0.520893 0.250000
#
# Coordination Sequence:
#
# PCOD9295124 Si02
#       4
#     8   8   4   8
#     4  10  23  42  65 104 127 179 211 279 316 406
#     4  11  22  43  72  93 136 174 225 258 348 376
#     4   8  22  42  60  98 134 160 218 272 328 366
#     4   9  22  44  64 100 129 178 212 286 313 402
#
# _framework density 26.524630999999999
#
# number of rings (size 3 to 8) (size 9 to 14) (size 15 to 20)
#    1.714    0.571    0.000    1.714    0.000    6.857 
#    5.143    0.000    0.000    0.000    0.000    0.000 
#    0.000    0.000    0.000    0.000    0.000    0.000 
#
# Total GULP energy -78070.699937 kJ/mol
# GULP energy per Si atom -5576.478567 kJ/mol
# Density = 2.646426 g / cm^3
# Si number density = 26.524631 Si / 1000 Ang^3
#
#
#
# Elastic Constant Matrix: (Units=GPa)
#
#
# Indices 1 2 3 4 5 6 
#
# 1 67.7182 50.9003 8.2394 0.0000 -2.8217 0.0000
# 2 50.9003 166.7397 13.6741 0.0000 -4.0403 0.0000
# 3 8.2394 13.6741 51.1752 0.0000 -7.5671 0.0000
# 4 0.0000 0.0000 0.0000 -23.1349 0.0000 -5.5724
# 5 -2.8217 -4.0403 -7.5671 0.0000 55.9678 0.0000
# 6 0.0000 0.0000 0.0000 -5.5724 0.0000 -33.1233
#
#
#
# Elastic Compliance Matrix: (Units=1/GPa)
#
#
# Indices 1 2 3 4 5 6 
#
# 1 0.019293 -0.005757 -0.001516 0.000000 0.000352 0.000000
# 2 -0.005757 0.007852 -0.001153 0.000000 0.000121 0.000000
# 3 -0.001516 -0.001153 0.020479 0.000000 0.002609 0.000000
# 4 0.000000 0.000000 0.000000 -0.045050 0.000000 0.007579
# 5 0.000352 0.000121 0.002609 0.000000 0.018247 0.000000
# 6 0.000000 0.000000 0.000000 0.007579 0.000000 -0.031465
#
#
# Mechanical properties :
#
#
# Convention : Reuss Voigt Hill
#
# Bulk Modulus (GPa) = 32.49715 47.91786 40.20751
# Shear Modulus (GPa) = 303.67213 14.12989 158.90101
#
# Velocity S-wave (km/s) = 10.71146 2.31055 7.74836
# Velocity P-wave (km/s) = 12.85530 5.02223 9.75914
#
# Compressibility (1/GPa) = 0.03077193
#
# Stress axis : x y z
#
# Youngs Moduli (GPa) = 51.83157 127.35218 48.83097
#
# Poissons Ratio (x) = 0.73314 0.07403
# Poissons Ratio (y) = 0.29838 0.05632
# Poissons Ratio (z) = 0.07858 0.14689
#
# Static dielectric constant tensor:
#      x y z
#    x 2.175360 0.000000 -0.050640 
#    y 0.000000 2.147680 0.000000 
#    z -0.050640 0.000000 2.118260 
# 
# From -- ./inp_files/93309.got.cif
#   From: 2010.05.17/outbox.cif.g08.bks.cpg/sg15_47_cif.got.tgz:93309.got - 2010.06.03 18:47:42.
