data_PCOD9295365
_publ_section_title
;
Structure prediction by ZEFSAII (Michael W. Deem and Ramdas Pophale) SiO2 
 PCOD9295365
Probable space group: C 2/C
;
_chemical_formula_sum "Si O2"
_cell_formula_units_Z 40
_cell_length_a 31.161692
_cell_length_b 5.148366
_cell_length_c 14.362241
_cell_angle_alpha 90.000000
_cell_angle_beta 134.755386
_cell_angle_gamma 90.000000
_cell_volume 1636.228319
_symmetry_space_group_name_H-M "C 2/C"
_symmetry_group_IT_number 15
_symmetry_cell_setting 'monoclinic'
loop_
_space_group_symop_operation_xyz
x,y,z
-x,y,1/2-z
-x,-y,-z
x,-y,1/2+z
1/2+x,1/2+y,z
1/2-x,1/2+y,1/2-z
1/2-x,1/2-y,-z
1/2+x,1/2-y,1/2+z
loop_
_atom_site_type_symbol
_atom_site_label
_atom_site_fract_x
_atom_site_fract_y
_atom_site_fract_z
Si Si1 0.377850 0.360627 0.962685
Si Si2 0.496337 0.252688 0.427239
Si Si3 0.364628 0.180338 0.143621
Si Si4 0.316614 0.320353 0.666915
Si Si5 0.721302 0.281852 0.156820
O O1 0.351629 0.309242 0.820163
O O2 0.349346 0.646927 0.940454
O O3 0.448058 0.295977 0.058323
O O4 0.355178 0.207562 0.019032
O O5 0.500000 0.500000 0.500000
O O6 0.433465 0.244773 0.276245
O O7 0.500000 0.000000 0.500000
O O8 0.324684 0.395404 0.136152
O O9 0.349426 0.898982 0.158260
O O10 0.248362 0.261125 0.595625
O O11 0.743994 0.039639 0.252175
#
# Coordination Sequence:
#
# PCOD9295365 Si02
#       5
#     8   8   8   8   8
#     4  11  25  45  72  98 142 180 231 283 343 412
#     4  12  24  45  70  98 139 183 223 289 347 408
#     4  12  25  43  71 104 133 184 227 281 347 412
#     4  11  24  45  67 100 144 172 231 282 341 409
#     4  10  23  42  70 100 136 189 228 283 349 408
#
# _framework density 24.446466000000001
#
# number of rings (size 3 to 8) (size 9 to 14) (size 15 to 20)
#    0.000    0.800    4.000    3.000    0.000    8.000 
#    0.000    4.000    0.000    0.000    0.000    0.000 
#    0.000    0.000    0.000    0.000    0.000    0.000 
#
# Total GULP energy -112012.621355 kJ/mol
# GULP energy per Si atom -5600.631068 kJ/mol
# Density = 2.439083 g / cm^3
# Si number density = 24.446466 Si / 1000 Ang^3
#
#
#
# Elastic Constant Matrix: (Units=GPa)
#
#
# Indices 1 2 3 4 5 6 
#
# 1 147.2063 24.2363 31.1015 -0.0001 -5.4564 0.0002
# 2 24.2363 121.7217 21.2453 -0.0006 -13.7474 0.0011
# 3 31.1015 21.2453 120.8462 0.0000 -1.9735 0.0001
# 4 -0.0001 -0.0006 0.0000 37.5547 0.0000 -2.8339
# 5 -5.4564 -13.7474 -1.9735 0.0000 65.3822 0.0000
# 6 0.0002 0.0011 0.0001 -2.8339 0.0000 44.1450
#
#
#
# Elastic Compliance Matrix: (Units=1/GPa)
#
#
# Indices 1 2 3 4 5 6 
#
# 1 0.007348 -0.001132 -0.001687 0.000000 0.000324 0.000000
# 2 -0.001132 0.008852 -0.001237 0.000000 0.001729 0.000000
# 3 -0.001687 -0.001237 0.008924 0.000000 -0.000131 0.000000
# 4 0.000000 0.000000 0.000000 0.026757 0.000000 0.001718
# 5 0.000324 0.001729 -0.000131 0.000000 0.015681 0.000000
# 6 0.000000 0.000000 0.000000 0.001718 0.000000 0.022763
#
#
# Mechanical properties :
#
#
# Convention : Reuss Voigt Hill
#
# Bulk Modulus (GPa) = 58.77708 60.32671 59.55190
# Shear Modulus (GPa) = 48.02697 50.29580 49.16138
#
# Velocity S-wave (km/s) = 4.43716 4.54076 4.48926
# Velocity P-wave (km/s) = 7.09553 7.22648 7.16131
#
# Compressibility (1/GPa) = 0.01701343
#
# Stress axis : x y z
#
# Youngs Moduli (GPa) = 136.09203 112.96835 112.05278
#
# Poissons Ratio (x) = 0.12788 0.18901
# Poissons Ratio (y) = 0.15406 0.13857
# Poissons Ratio (z) = 0.22956 0.13970
#
# Static dielectric constant tensor:
#      x y z
#    x 2.000280 0.000000 0.028780 
#    y 0.000000 1.946820 0.000000 
#    z 0.028780 0.000000 2.068580 
# 
# From -- ./inp_files/179859.got.cif
#   From: 2010.05.17/outbox.cif.g08.bks.cpg/sg15_90_cif.got.tgz:179859.got - 2010.06.03 18:47:42.
