data_PCOD9295702
_publ_section_title
;
Structure prediction by ZEFSAII (Michael W. Deem and Ramdas Pophale) SiO2 
 PCOD9295702
Probable space group: C 2/C
;
_chemical_formula_sum "Si O2"
_cell_formula_units_Z 56
_cell_length_a 12.706647
_cell_length_b 16.454591
_cell_length_c 14.266105
_cell_angle_alpha 90.000000
_cell_angle_beta 60.204049
_cell_angle_gamma 90.000000
_cell_volume 2588.471603
_symmetry_space_group_name_H-M "C 2/C"
_symmetry_group_IT_number 15
_symmetry_cell_setting 'monoclinic'
loop_
_space_group_symop_operation_xyz
x,y,z
-x,y,1/2-z
-x,-y,-z
x,-y,1/2+z
1/2+x,1/2+y,z
1/2-x,1/2+y,1/2-z
1/2-x,1/2-y,-z
1/2+x,1/2-y,1/2+z
loop_
_atom_site_type_symbol
_atom_site_label
_atom_site_fract_x
_atom_site_fract_y
_atom_site_fract_z
Si Si1 0.630179 0.658050 0.237012
Si Si2 0.135369 0.804945 0.209096
Si Si3 0.775776 0.591516 0.007975
Si Si4 0.822863 0.614070 0.287573
Si Si5 0.945652 0.465038 0.132385
Si Si6 0.795272 0.660858 0.805342
Si Si7 0.785621 0.579946 0.520727
O O1 0.500000 0.634790 0.250000
O O2 0.685372 0.614575 0.305102
O O3 0.634358 0.755418 0.246531
O O4 0.736609 0.641179 0.115189
O O5 0.139759 0.708563 0.226499
O O6 0.186066 0.844315 0.280880
O O7 0.216805 0.840204 0.088287
O O8 0.000000 0.830159 0.250000
O O9 0.749018 0.646030 0.929921
O O10 0.916475 0.565419 0.937036
O O11 0.709510 0.504185 0.048290
O O12 0.906549 0.555520 0.185274
O O13 0.827551 0.589988 0.394858
O O14 0.883573 0.411618 0.239715
O O15 0.882546 0.439028 0.061550
#
# Coordination Sequence:
#
# PCOD9295702 Si02
#       7
#     8   8   8   8   8   8   8
#     4  11  25  44  64  99 140 180 224 276 339 410
#     4  10  25  44  66  98 142 180 221 274 335 416
#     4  12  23  40  70 101 133 174 226 285 332 390
#     4  11  24  44  70 100 133 181 227 279 341 393
#     4  11  23  43  69 106 131 169 230 290 327 388
#     4  10  23  43  68 100 134 178 230 280 336 392
#     4  11  24  41  66 101 137 169 227 277 337 397
#
# _framework density 21.63439
#
# number of rings (size 3 to 8) (size 9 to 14) (size 15 to 20)
#    0.000    1.143    2.857    2.571    2.000    2.857 
#    0.000    1.429    0.000    0.000    0.000    0.000 
#    0.000    0.000    0.000    0.000    0.000    0.000 
#
# Total GULP energy -156119.576592 kJ/mol
# GULP energy per Si atom -5575.699164 kJ/mol
# Density = 2.158515 g / cm^3
# Si number density = 21.634390 Si / 1000 Ang^3
#
#
#
# Elastic Constant Matrix: (Units=GPa)
#
#
# Indices 1 2 3 4 5 6 
#
# 1 156.9257 24.1331 56.3819 0.0000 5.7606 0.0000
# 2 24.1331 72.8690 18.7152 0.0000 -10.9677 0.0000
# 3 56.3819 18.7152 96.0622 0.0000 25.2936 0.0000
# 4 0.0000 0.0000 0.0000 26.8766 0.0000 11.1821
# 5 5.7606 -10.9677 25.2936 0.0000 29.8390 0.0000
# 6 0.0000 0.0000 0.0000 11.1821 0.0000 15.6307
#
#
#
# Elastic Compliance Matrix: (Units=1/GPa)
#
#
# Indices 1 2 3 4 5 6 
#
# 1 0.008372 -0.000993 -0.005405 0.000000 0.002600 0.000000
# 2 -0.000993 0.017264 -0.005795 0.000000 0.011450 0.000000
# 3 -0.005405 -0.005795 0.019306 0.000000 -0.017452 0.000000
# 4 0.000000 0.000000 0.000000 0.052974 0.000000 -0.037897
# 5 0.002600 0.011450 -0.017452 0.000000 0.052014 0.000000
# 6 0.000000 0.000000 0.000000 -0.037897 0.000000 0.091088
#
#
# Mechanical properties :
#
#
# Convention : Reuss Voigt Hill
#
# Bulk Modulus (GPa) = 48.64835 58.25748 53.45292
# Shear Modulus (GPa) = 18.36506 29.57771 23.97138
#
# Velocity S-wave (km/s) = 2.91672 3.70153 3.33231
# Velocity P-wave (km/s) = 5.82052 6.72719 6.29021
#
# Compressibility (1/GPa) = 0.02055568
#
# Stress axis : x y z
#
# Youngs Moduli (GPa) = 119.45189 57.92422 51.79620
#
# Poissons Ratio (x) = 0.05752 0.27994
# Poissons Ratio (y) = 0.11862 0.30018
# Poissons Ratio (z) = 0.64560 0.33569
#
# Static dielectric constant tensor:
#      x y z
#    x 1.840750 0.000000 0.014030 
#    y 0.000000 1.861360 0.000000 
#    z 0.014030 0.000000 1.818280 
# 
# From -- ./inp_files/145992.got.cif
#   From: 2010.05.17/outbox.cif.g08.bks.cpg/sg15_73_cif.got.tgz:145992.got - 2010.06.03 18:47:42.
