data_PCOD9295883
_publ_section_title
;
Structure prediction by ZEFSAII (Michael W. Deem and Ramdas Pophale) SiO2 
 PCOD9295883
Probable space group: C 2/C
;
_chemical_formula_sum "Si O2"
_cell_formula_units_Z 28
_cell_length_a 10.248796
_cell_length_b 9.984799
_cell_length_c 14.050005
_cell_angle_alpha 90.000000
_cell_angle_beta 50.868911
_cell_angle_gamma 90.000000
_cell_volume 1115.282102
_symmetry_space_group_name_H-M "C 2/C"
_symmetry_group_IT_number 15
_symmetry_cell_setting 'monoclinic'
loop_
_space_group_symop_operation_xyz
x,y,z
-x,y,1/2-z
-x,-y,-z
x,-y,1/2+z
1/2+x,1/2+y,z
1/2-x,1/2+y,1/2-z
1/2-x,1/2-y,-z
1/2+x,1/2-y,1/2+z
loop_
_atom_site_type_symbol
_atom_site_label
_atom_site_fract_x
_atom_site_fract_y
_atom_site_fract_z
Si Si1 0.637952 0.853902 0.992601
Si Si2 0.468625 0.628071 0.578945
Si Si3 0.500000 0.753343 0.750000
Si Si4 0.155115 0.483714 0.793249
O O1 0.509475 0.757609 0.995817
O O2 0.721276 0.932131 0.865665
O O3 0.750000 0.750000 0.000000
O O4 0.530943 0.955707 0.104837
O O5 0.500000 0.500000 0.500000
O O6 0.561139 0.660589 0.634875
O O7 0.275710 0.598551 0.698760
O O8 0.635180 0.855589 0.733994
#
# Coordination Sequence:
#
# PCOD9295883 Si02
#       4
#     8   8   4   8
#     4  10  23  43  71  97 133 181 227 285 341 405
#     4  11  26  42  70 104 135 182 228 280 348 413
#     4  10  24  46  68  96 140 176 222 290 334 406
#     4  10  23  46  66  99 139 177 225 283 343 402
#
# _framework density 25.105756
#
# number of rings (size 3 to 8) (size 9 to 14) (size 15 to 20)
#    0.000    1.714    0.000    1.714   12.000    1.143 
#    0.000    0.000    0.000    0.000    0.000    0.000 
#    0.000    0.000    0.000    0.000    0.000    0.000 
#
# Total GULP energy -78251.679359 kJ/mol
# GULP energy per Si atom -5589.405668 kJ/mol
# Density = 2.504861 g / cm^3
# Si number density = 25.105756 Si / 1000 Ang^3
#
#
#
# Elastic Constant Matrix: (Units=GPa)
#
#
# Indices 1 2 3 4 5 6 
#
# 1 93.5644 40.3003 47.5624 0.0000 32.7471 0.0000
# 2 40.3003 131.6671 41.3669 0.0000 24.5467 0.0000
# 3 47.5624 41.3669 92.5744 0.0000 27.1325 0.0000
# 4 0.0000 0.0000 0.0000 47.2650 0.0000 13.6616
# 5 32.7471 24.5467 27.1325 0.0000 35.1464 0.0000
# 6 0.0000 0.0000 0.0000 13.6616 0.0000 63.0837
#
#
#
# Elastic Compliance Matrix: (Units=1/GPa)
#
#
# Indices 1 2 3 4 5 6 
#
# 1 0.018147 -0.001765 -0.005093 0.000000 -0.011744 0.000000
# 2 -0.001765 0.009473 -0.002416 0.000000 -0.003107 0.000000
# 3 -0.005093 -0.002416 0.016301 0.000000 -0.006152 0.000000
# 4 0.000000 0.000000 0.000000 0.022570 0.000000 -0.004888
# 5 -0.011744 -0.003107 -0.006152 0.000000 0.046314 0.000000
# 6 0.000000 0.000000 0.000000 -0.004888 0.000000 0.016910
#
#
# Mechanical properties :
#
#
# Convention : Reuss Voigt Hill
#
# Bulk Modulus (GPa) = 39.40930 64.02946 51.71938
# Shear Modulus (GPa) = 31.90362 41.67079 36.78720
#
# Velocity S-wave (km/s) = 3.56865 4.07850 3.83206
# Velocity P-wave (km/s) = 5.71942 6.90928 6.34231
#
# Compressibility (1/GPa) = 0.02537472
#
# Stress axis : x y z
#
# Youngs Moduli (GPa) = 55.10430 105.55960 61.34491
#
# Poissons Ratio (x) = 0.18631 0.31242
# Poissons Ratio (y) = 0.09726 0.14820
# Poissons Ratio (z) = 0.28064 0.25501
#
# Static dielectric constant tensor:
#      x y z
#    x 2.002050 0.000000 0.047640 
#    y 0.000000 1.991240 0.000000 
#    z 0.047640 0.000000 2.054660 
# 
# From -- ./inp_files/132107.got.cif
#   From: 2010.05.17/outbox.cif.g08.bks.cpg/sg15_67_cif.got.tgz:132107.got - 2010.06.03 18:47:42.
