data_PCOD9295180
_publ_section_title
;
Structure prediction by ZEFSAII (Michael W. Deem and Ramdas Pophale) SiO2 
 PCOD9295180
Probable space group: C 2/C
;
_chemical_formula_sum "Si O2"
_cell_formula_units_Z 64
_cell_length_a 25.124759
_cell_length_b 14.130443
_cell_length_c 9.299525
_cell_angle_alpha 90.000000
_cell_angle_beta 93.605040
_cell_angle_gamma 90.000000
_cell_volume 3295.021219
_symmetry_space_group_name_H-M "C 2/C"
_symmetry_group_IT_number 15
_symmetry_cell_setting 'monoclinic'
loop_
_space_group_symop_operation_xyz
x,y,z
-x,y,1/2-z
-x,-y,-z
x,-y,1/2+z
1/2+x,1/2+y,z
1/2-x,1/2+y,1/2-z
1/2-x,1/2-y,-z
1/2+x,1/2-y,1/2+z
loop_
_atom_site_type_symbol
_atom_site_label
_atom_site_fract_x
_atom_site_fract_y
_atom_site_fract_z
Si Si1 0.340704 0.807528 0.532655
Si Si2 0.685926 0.449993 0.114209
Si Si3 0.557112 0.889330 0.442892
Si Si4 0.702879 0.853428 0.682854
Si Si5 0.567752 0.919446 0.112412
Si Si6 0.740299 0.952813 0.115710
Si Si7 0.175119 0.845159 0.689645
Si Si8 0.861440 0.232846 0.027177
O O1 0.336730 0.814104 0.702618
O O2 0.392721 0.854391 0.472431
O O3 0.291622 0.871203 0.467480
O O4 0.332509 0.704390 0.464556
O O5 0.725815 0.414453 0.245108
O O6 0.659916 0.544826 0.175047
O O7 0.721784 0.490782 0.989242
O O8 0.648141 0.366825 0.054132
O O9 0.577490 0.914343 0.285098
O O10 0.493179 0.886051 0.423774
O O11 0.585332 0.792109 0.492545
O O12 0.571746 0.973940 0.553312
O O13 0.763517 0.837868 0.746335
O O14 0.686850 0.800891 0.534043
O O15 0.699879 0.966633 0.666018
O O16 0.142409 0.790083 0.804966
#
# Coordination Sequence:
#
# PCOD9295180 Si02
#       8
#     8   8   8   8   8   8   8   8
#     4  12  23  36  59  88 122 165 207 253 305 371
#     4  11  23  39  56  83 126 169 207 255 290 368
#     4  10  23  44  65  93 120 162 197 263 311 374
#     4  11  24  35  55  88 124 166 202 250 299 381
#     4  10  23  42  66  92 125 152 204 254 317 371
#     4  11  22  37  53  86 130 167 203 251 305 361
#     4  11  23  39  56  86 124 169 210 253 301 364
#     4  12  23  40  62  87 120 172 215 247 317 368
#
# _framework density 19.423244
#
# number of rings (size 3 to 8) (size 9 to 14) (size 15 to 20)
#    0.000    1.000    6.250    2.250    7.000    0.000 
#    0.000    0.000    0.000    0.750    0.000    0.000 
#    0.000    0.000    0.000    0.000    0.000    0.000 
#
# Total GULP energy -178905.339286 kJ/mol
# GULP energy per Si atom -5590.791853 kJ/mol
# Density = 1.937904 g / cm^3
# Si number density = 19.423244 Si / 1000 Ang^3
#
#
#
# Elastic Constant Matrix: (Units=GPa)
#
#
# Indices 1 2 3 4 5 6 
#
# 1 59.7081 34.8524 18.5101 0.0000 -8.4916 0.0000
# 2 34.8524 98.9916 15.3533 0.0000 7.6798 0.0000
# 3 18.5101 15.3533 72.3246 0.0000 4.3164 0.0000
# 4 0.0000 0.0000 0.0000 32.1810 0.0000 -2.0993
# 5 -8.4916 7.6798 4.3164 0.0000 19.7185 0.0000
# 6 0.0000 0.0000 0.0000 -2.0993 0.0000 31.4756
#
#
#
# Elastic Compliance Matrix: (Units=1/GPa)
#
#
# Indices 1 2 3 4 5 6 
#
# 1 0.026546 -0.009739 -0.005710 0.000000 0.016474 0.000000
# 2 -0.009739 0.014281 0.000044 0.000000 -0.009766 0.000000
# 3 -0.005710 0.000044 0.015631 0.000000 -0.005897 0.000000
# 4 0.000000 0.000000 0.000000 0.031210 0.000000 0.002082
# 5 0.016474 -0.009766 -0.005897 0.000000 0.062903 0.000000
# 6 0.000000 0.000000 0.000000 0.002082 0.000000 0.031909
#
#
# Mechanical properties :
#
#
# Convention : Reuss Voigt Hill
#
# Bulk Modulus (GPa) = 38.98925 40.93955 39.96440
# Shear Modulus (GPa) = 22.53885 27.49558 25.01722
#
# Velocity S-wave (km/s) = 3.41017 3.76653 3.59277
# Velocity P-wave (km/s) = 5.96848 6.32764 6.15068
#
# Compressibility (1/GPa) = 0.02564810
#
# Stress axis : x y z
#
# Youngs Moduli (GPa) = 37.67080 70.02097 63.97720
#
# Poissons Ratio (x) = 0.68191 0.36529
# Poissons Ratio (y) = 0.36686 -0.00278
# Poissons Ratio (z) = 0.21509 -0.00305
#
# Static dielectric constant tensor:
#      x y z
#    x 1.671680 0.000000 -0.010870 
#    y 0.000000 1.695820 0.000000 
#    z -0.010870 0.000000 1.732090 
# 
# From -- ./inp_files/61936.got.cif
#   From: 2010.05.17/outbox.cif.g08.bks.cpg/sg15_31_cif.got.tgz:61936.got - 2010.06.03 18:47:42.
