data_PCOD9295242
_publ_section_title
;
Structure prediction by ZEFSAII (Michael W. Deem and Ramdas Pophale) SiO2 
 PCOD9295242
Probable space group: C 2/C
;
_chemical_formula_sum "Si O2"
_cell_formula_units_Z 44
_cell_length_a 7.065079
_cell_length_b 15.746497
_cell_length_c 19.349519
_cell_angle_alpha 90.000000
_cell_angle_beta 107.590406
_cell_angle_gamma 90.000000
_cell_volume 2051.984114
_symmetry_space_group_name_H-M "C 2/C"
_symmetry_group_IT_number 15
_symmetry_cell_setting 'monoclinic'
loop_
_space_group_symop_operation_xyz
x,y,z
-x,y,1/2-z
-x,-y,-z
x,-y,1/2+z
1/2+x,1/2+y,z
1/2-x,1/2+y,1/2-z
1/2-x,1/2-y,-z
1/2+x,1/2-y,1/2+z
loop_
_atom_site_type_symbol
_atom_site_label
_atom_site_fract_x
_atom_site_fract_y
_atom_site_fract_z
Si Si1 0.000000 0.657893 0.250000
Si Si2 0.463694 0.851729 0.504489
Si Si3 0.303050 0.008446 0.308767
Si Si4 0.127194 0.768056 0.382176
Si Si5 0.571439 0.551382 0.656890
Si Si6 0.820197 0.477180 0.054657
O O1 0.871827 0.598078 0.285909
O O2 0.861707 0.714606 0.186360
O O3 0.337741 0.798348 0.435355
O O4 0.479921 0.790249 0.571857
O O5 0.657437 0.896124 0.493131
O O6 0.336227 0.934437 0.515122
O O7 0.243694 0.956025 0.233589
O O8 0.482197 0.974152 0.375111
O O9 0.107708 0.006514 0.334557
O O10 0.004261 0.852837 0.354368
O O11 0.642895 0.524466 0.589251
#
# Coordination Sequence:
#
# PCOD9295242 Si02
#       6
#     4   8   8   8   8   8
#     4  12  22  44  70  86 140 170 220 274 332 376
#     4  10  23  42  67  93 137 173 214 259 341 379
#     4  11  21  41  67  95 122 176 219 264 316 391
#     4  11  23  40  64 101 130 171 213 282 320 387
#     4  11  23  39  69  98 127 164 231 264 320 385
#     4  11  21  44  67  94 129 181 210 266 315 409
#
# _framework density 21.442661000000001
#
# number of rings (size 3 to 8) (size 9 to 14) (size 15 to 20)
#    0.000    1.091    5.455    1.091    0.000    1.455 
#    0.000    7.273    0.000    0.000    0.000    0.000 
#    0.000    0.000    0.000    0.000    0.000    0.000 
#
# Total GULP energy -122970.829665 kJ/mol
# GULP energy per Si atom -5589.583167 kJ/mol
# Density = 2.139386 g / cm^3
# Si number density = 21.442661 Si / 1000 Ang^3
#
#
#
# Elastic Constant Matrix: (Units=GPa)
#
#
# Indices 1 2 3 4 5 6 
#
# 1 67.1041 29.2915 18.9550 0.0000 -32.2711 0.0000
# 2 29.2915 89.3772 43.6036 0.0000 -12.8208 0.0000
# 3 18.9550 43.6036 85.8169 0.0000 -10.3323 0.0000
# 4 0.0000 0.0000 0.0000 52.2652 0.0000 0.4964
# 5 -32.2711 -12.8208 -10.3323 0.0000 51.2029 0.0000
# 6 0.0000 0.0000 0.0000 0.4964 0.0000 17.9701
#
#
#
# Elastic Compliance Matrix: (Units=1/GPa)
#
#
# Indices 1 2 3 4 5 6 
#
# 1 0.024121 -0.005518 -0.000881 0.000000 0.013643 0.000000
# 2 -0.005518 0.016397 -0.007212 0.000000 -0.000828 0.000000
# 3 -0.000881 -0.007212 0.015607 0.000000 0.000788 0.000000
# 4 0.000000 0.000000 0.000000 0.019138 0.000000 -0.000529
# 5 0.013643 -0.000828 0.000788 0.000000 0.028081 0.000000
# 6 0.000000 0.000000 0.000000 -0.000529 0.000000 0.055663
#
#
# Mechanical properties :
#
#
# Convention : Reuss Voigt Hill
#
# Bulk Modulus (GPa) = 34.60050 47.33315 40.96683
# Shear Modulus (GPa) = 25.52811 34.31751 29.92281
#
# Velocity S-wave (km/s) = 3.45415 4.00488 3.73967
# Velocity P-wave (km/s) = 5.66388 6.59603 6.14765
#
# Compressibility (1/GPa) = 0.02890132
#
# Stress axis : x y z
#
# Youngs Moduli (GPa) = 41.45778 60.98775 64.07505
#
# Poissons Ratio (x) = 0.33654 0.05648
# Poissons Ratio (y) = 0.22877 0.46211
# Poissons Ratio (z) = 0.03654 0.43984
#
# Static dielectric constant tensor:
#      x y z
#    x 1.810780 0.000000 -0.003090 
#    y 0.000000 1.746590 0.000000 
#    z -0.003090 0.000000 1.819900 
# 
# From -- ./inp_files/188956.got.cif
#   From: 2010.05.17/outbox.cif.g08.bks.cpg/sg15_95_cif.got.tgz:188956.got - 2010.06.03 18:47:42.
