data_PCOD9295394
_publ_section_title
;
Structure prediction by ZEFSAII (Michael W. Deem and Ramdas Pophale) SiO2 
 PCOD9295394
Probable space group: C 2/C
;
_chemical_formula_sum "Si O2"
_cell_formula_units_Z 56
_cell_length_a 11.355638
_cell_length_b 9.470649
_cell_length_c 25.564024
_cell_angle_alpha 90.000000
_cell_angle_beta 117.415008
_cell_angle_gamma 90.000000
_cell_volume 2440.530155
_symmetry_space_group_name_H-M "C 2/C"
_symmetry_group_IT_number 15
_symmetry_cell_setting 'monoclinic'
loop_
_space_group_symop_operation_xyz
x,y,z
-x,y,1/2-z
-x,-y,-z
x,-y,1/2+z
1/2+x,1/2+y,z
1/2-x,1/2+y,1/2-z
1/2-x,1/2-y,-z
1/2+x,1/2-y,1/2+z
loop_
_atom_site_type_symbol
_atom_site_label
_atom_site_fract_x
_atom_site_fract_y
_atom_site_fract_z
Si Si1 0.660012 0.387349 0.989983
Si Si2 0.631249 0.477583 0.702621
Si Si3 0.596654 0.705775 0.092226
Si Si4 0.844602 0.067412 0.131930
Si Si5 0.801407 0.344102 0.557848
Si Si6 0.959336 0.505294 0.429297
Si Si7 0.847738 0.713575 0.715743
O O1 0.508020 0.351877 0.972781
O O2 0.645759 0.446553 0.928468
O O3 0.750000 0.250000 0.000000
O O4 0.734158 0.501147 0.039950
O O5 0.620324 0.392201 0.646068
O O6 0.474625 0.512741 0.680936
O O7 0.737536 0.602395 0.713886
O O8 0.667561 0.358790 0.753285
O O9 0.740074 0.727046 0.095969
O O10 0.522844 0.850457 0.091366
O O11 0.694610 0.025787 0.111420
O O12 0.843661 0.226706 0.155473
O O13 0.750000 0.250000 0.500000
O O14 0.955141 0.375148 0.581277
O O15 0.000000 0.500000 0.500000
O O16 0.000000 0.658454 0.750000
#
# Coordination Sequence:
#
# PCOD9295394 Si02
#       7
#     8   8   8   8   8   8   8
#     4  11  21  39  63  90 134 181 214 266 334 395
#     4  10  25  47  72 102 130 173 235 287 358 419
#     4  11  24  39  64  97 133 174 231 275 340 409
#     4  10  23  42  70  94 137 180 217 276 350 403
#     4  12  24  38  61  94 138 183 227 270 320 399
#     4  12  22  42  62  98 146 183 223 277 334 404
#     4  10  24  49  74 101 136 175 231 300 359 420
#
# _framework density 22.945834000000001
#
# number of rings (size 3 to 8) (size 9 to 14) (size 15 to 20)
#    0.000    1.143    4.286    0.429    4.000    4.571 
#    2.571    0.000    0.000    0.000    0.000    0.000 
#    0.000    0.000    0.000    0.000    0.000    0.000 
#
# Total GULP energy -156101.971705 kJ/mol
# GULP energy per Si atom -5575.070418 kJ/mol
# Density = 2.289361 g / cm^3
# Si number density = 22.945834 Si / 1000 Ang^3
#
#
#
# Elastic Constant Matrix: (Units=GPa)
#
#
# Indices 1 2 3 4 5 6 
#
# 1 162.6910 41.9808 29.9289 0.0000 33.6489 0.0000
# 2 41.9808 80.1977 18.0528 0.0000 29.0372 0.0000
# 3 29.9289 18.0528 54.6285 0.0000 18.2346 0.0000
# 4 0.0000 0.0000 0.0000 28.8920 0.0000 2.3552
# 5 33.6489 29.0372 18.2346 0.0000 37.0045 0.0000
# 6 0.0000 0.0000 0.0000 2.3552 0.0000 50.0441
#
#
#
# Elastic Compliance Matrix: (Units=1/GPa)
#
#
# Indices 1 2 3 4 5 6 
#
# 1 0.008031 -0.002037 -0.002182 0.000000 -0.004630 0.000000
# 2 -0.002037 0.018028 -0.000883 0.000000 -0.011859 0.000000
# 3 -0.002182 -0.000883 0.022620 0.000000 -0.008469 0.000000
# 4 0.000000 0.000000 0.000000 0.034745 0.000000 -0.001635
# 5 -0.004630 -0.011859 -0.008469 0.000000 0.044713 0.000000
# 6 0.000000 0.000000 0.000000 -0.001635 0.000000 0.020059
#
#
# Mechanical properties :
#
#
# Convention : Reuss Voigt Hill
#
# Bulk Modulus (GPa) = 25.99048 53.04915 39.51981
# Shear Modulus (GPa) = 29.20155 37.02510 33.11332
#
# Velocity S-wave (km/s) = 3.57126 4.02131 3.80295
# Velocity P-wave (km/s) = 5.32510 6.68810 6.04514
#
# Compressibility (1/GPa) = 0.03847562
#
# Stress axis : x y z
#
# Youngs Moduli (GPa) = 124.51749 55.46917 44.20956
#
# Poissons Ratio (x) = 0.11297 0.09644
# Poissons Ratio (y) = 0.25360 0.03905
# Poissons Ratio (z) = 0.27164 0.04900
#
# Static dielectric constant tensor:
#      x y z
#    x 1.667050 0.000000 -0.033290 
#    y 0.000000 1.942700 0.000000 
#    z -0.033290 0.000000 1.897160 
# 
# From -- ./inp_files/310364.got.cif
#   From: 2010.05.17/outbox.cif.g08.bks.cpg/sg15_156_cif.got.tgz:310364.got - 2010.06.03 18:47:42.
