data_PCOD9295228
_publ_section_title
;
Structure prediction by ZEFSAII (Michael W. Deem and Ramdas Pophale) SiO2 
 PCOD9295228
Probable space group: C 2/C
;
_chemical_formula_sum "Si O2"
_cell_formula_units_Z 32
_cell_length_a 33.570648
_cell_length_b 5.178843
_cell_length_c 8.899208
_cell_angle_alpha 90.000000
_cell_angle_beta 48.463182
_cell_angle_gamma 90.000000
_cell_volume 1158.118248
_symmetry_space_group_name_H-M "C 2/C"
_symmetry_group_IT_number 15
_symmetry_cell_setting 'monoclinic'
loop_
_space_group_symop_operation_xyz
x,y,z
-x,y,1/2-z
-x,-y,-z
x,-y,1/2+z
1/2+x,1/2+y,z
1/2-x,1/2+y,1/2-z
1/2-x,1/2-y,-z
1/2+x,1/2-y,1/2+z
loop_
_atom_site_type_symbol
_atom_site_label
_atom_site_fract_x
_atom_site_fract_y
_atom_site_fract_z
Si Si1 0.962876 0.634370 0.467834
Si Si2 0.800576 0.472244 0.999973
Si Si3 0.896631 0.729137 0.910183
Si Si4 0.185528 0.028547 0.234940
O O1 0.932395 0.416982 0.444809
O O2 0.000000 0.776226 0.250000
O O3 0.000000 0.500000 0.500000
O O4 0.075577 0.217831 0.320007
O O5 0.812053 0.201400 0.892526
O O6 0.807091 0.701099 0.863220
O O7 0.846350 0.543352 0.001817
O O8 0.738683 0.481705 0.201483
O O9 0.869448 0.985732 0.041472
#
# Coordination Sequence:
#
# PCOD9295228 Si02
#       4
#     8   8   8   8
#     4   9  20  40  74 112 151 199 266 337 390 450
#     4  10  23  42  67 108 155 196 244 302 372 460
#     4  11  20  42  73 112 152 209 253 317 395 462
#     4  10  23  42  67 106 154 197 244 301 371 462
#
# _framework density 27.631028000000001
#
# number of rings (size 3 to 8) (size 9 to 14) (size 15 to 20)
#    0.000    2.000    2.500    0.000    0.000    8.000 
#    0.000    0.000    0.000   19.500    0.000    0.000 
#    0.000    0.000    0.000    0.000    0.000    0.000 
#
# Total GULP energy -89719.082689 kJ/mol
# GULP energy per Si atom -5607.442668 kJ/mol
# Density = 2.756814 g / cm^3
# Si number density = 27.631028 Si / 1000 Ang^3
#
#
#
# Elastic Constant Matrix: (Units=GPa)
#
#
# Indices 1 2 3 4 5 6 
#
# 1 191.9970 17.4734 38.8144 0.0000 4.2377 0.0000
# 2 17.4734 119.3094 50.6643 0.0000 24.6517 0.0000
# 3 38.8144 50.6643 263.5619 0.0000 20.4994 0.0000
# 4 0.0000 0.0000 0.0000 45.0226 0.0000 15.0537
# 5 4.2377 24.6517 20.4994 0.0000 41.5311 0.0000
# 6 0.0000 0.0000 0.0000 15.0537 0.0000 33.4870
#
#
#
# Elastic Compliance Matrix: (Units=1/GPa)
#
#
# Indices 1 2 3 4 5 6 
#
# 1 0.005395 -0.000512 -0.000704 0.000000 0.000101 0.000000
# 2 -0.000512 0.010167 -0.001470 0.000000 -0.005257 0.000000
# 3 -0.000704 -0.001470 0.004271 0.000000 -0.001164 0.000000
# 4 0.000000 0.000000 0.000000 0.026140 0.000000 -0.011751
# 5 0.000101 -0.005257 -0.001164 0.000000 0.027763 0.000000
# 6 0.000000 0.000000 0.000000 -0.011751 0.000000 0.035145
#
#
# Mechanical properties :
#
#
# Convention : Reuss Voigt Hill
#
# Bulk Modulus (GPa) = 69.15219 87.64137 78.39678
# Shear Modulus (GPa) = 41.99093 55.20255 48.59674
#
# Velocity S-wave (km/s) = 3.90256 4.47458 4.19832
# Velocity P-wave (km/s) = 6.73706 7.64742 7.20663
#
# Compressibility (1/GPa) = 0.01446086
#
# Stress axis : x y z
#
# Youngs Moduli (GPa) = 185.35338 98.35708 234.13992
#
# Poissons Ratio (x) = 0.05036 0.16482
# Poissons Ratio (y) = 0.09491 0.34421
# Poissons Ratio (z) = 0.13048 0.14460
#
# Static dielectric constant tensor:
#      x y z
#    x 2.199670 0.000000 -0.048280 
#    y 0.000000 2.117980 0.000000 
#    z -0.048280 0.000000 2.212320 
# 
# From -- ./inp_files/120535.got.cif
#   From: 2010.05.17/outbox.cif.g08.bks.cpg/sg15_61_cif.got.tgz:120535.got - 2010.06.03 18:47:42.
