data_PCOD9295253
_publ_section_title
;
Structure prediction by ZEFSAII (Michael W. Deem and Ramdas Pophale) SiO2 
 PCOD9295253
Probable space group: C 2/C
;
_chemical_formula_sum "Si O2"
_cell_formula_units_Z 36
_cell_length_a 21.899216
_cell_length_b 5.351472
_cell_length_c 14.030183
_cell_angle_alpha 90.000000
_cell_angle_beta 58.195627
_cell_angle_gamma 90.000000
_cell_volume 1397.361271
_symmetry_space_group_name_H-M "C 2/C"
_symmetry_group_IT_number 15
_symmetry_cell_setting 'monoclinic'
loop_
_space_group_symop_operation_xyz
x,y,z
-x,y,1/2-z
-x,-y,-z
x,-y,1/2+z
1/2+x,1/2+y,z
1/2-x,1/2+y,1/2-z
1/2-x,1/2-y,-z
1/2+x,1/2-y,1/2+z
loop_
_atom_site_type_symbol
_atom_site_label
_atom_site_fract_x
_atom_site_fract_y
_atom_site_fract_z
Si Si1 0.500000 0.935632 0.750000
Si Si2 0.691078 0.611992 0.699115
Si Si3 0.085222 0.889275 0.031673
Si Si4 0.235217 0.890949 0.386785
Si Si5 0.444039 0.308061 0.646283
O O1 0.447878 0.776713 0.859302
O O2 0.451413 0.102906 0.720447
O O3 0.734761 0.382888 0.614708
O O4 0.717994 0.620990 0.787125
O O5 0.608306 0.527429 0.774171
O O6 0.588818 0.234144 0.929246
O O7 0.025380 0.101396 0.063463
O O8 0.160076 0.018443 0.992173
O O9 0.290943 0.117149 0.356896
#
# Coordination Sequence:
#
# PCOD9295253 Si02
#       5
#     4   8   8   8   8
#     4  12  24  40  64  96 132 168 230 276 322 386
#     4   9  19  37  64  96 129 168 217 271 330 395
#     4  10  23  42  67  95 130 175 220 270 332 395
#     4   9  19  37  64  96 129 168 217 271 330 395
#     4  10  23  42  67  95 130 175 220 270 332 395
#
# _framework density 25.762844000000001
#
# number of rings (size 3 to 8) (size 9 to 14) (size 15 to 20)
#    0.000    2.222    0.000    1.333    6.222    0.000 
#    0.000    2.222    0.000    0.000    0.000    0.000 
#    0.000    0.000    0.000    0.000    0.000    0.000 
#
# Total GULP energy -100908.835583 kJ/mol
# GULP energy per Si atom -5606.046421 kJ/mol
# Density = 2.570421 g / cm^3
# Si number density = 25.762844 Si / 1000 Ang^3
#
#
#
# Elastic Constant Matrix: (Units=GPa)
#
#
# Indices 1 2 3 4 5 6 
#
# 1 128.9854 43.9943 51.2673 0.0016 13.2062 -0.0001
# 2 43.9943 87.6614 20.8342 0.0076 9.1467 0.0014
# 3 51.2673 20.8342 101.5313 0.0060 -19.6922 0.0024
# 4 0.0016 0.0076 0.0060 11.0705 -0.0015 -28.3513
# 5 13.2062 9.1467 -19.6922 -0.0015 48.6336 -0.0004
# 6 -0.0001 0.0014 0.0024 -28.3513 -0.0004 -4.8781
#
#
#
# Elastic Compliance Matrix: (Units=1/GPa)
#
#
# Indices 1 2 3 4 5 6 
#
# 1 0.012166 -0.004080 -0.006292 0.000000 -0.005084 -0.000002
# 2 -0.004080 0.013946 -0.001189 0.000000 -0.001996 0.000003
# 3 -0.006292 -0.001189 0.014808 0.000001 0.007928 0.000002
# 4 0.000000 0.000000 0.000001 0.005687 0.000000 -0.033051
# 5 -0.005084 -0.001996 0.007928 0.000000 0.025528 0.000000
# 6 -0.000002 0.000003 0.000002 -0.033051 0.000000 -0.012906
#
#
# Mechanical properties :
#
#
# Convention : Reuss Voigt Hill
#
# Bulk Modulus (GPa) = 56.18457 61.15219 58.66838
# Shear Modulus (GPa) = 56.63683 24.43735 40.53709
#
# Velocity S-wave (km/s) = 4.69379 3.08320 3.97100
# Velocity P-wave (km/s) = 7.15760 6.03845 6.62171
#
# Compressibility (1/GPa) = 0.01779848
#
# Stress axis : x y z
#
# Youngs Moduli (GPa) = 82.19897 71.70586 67.53220
#
# Poissons Ratio (x) = 0.29254 0.42490
# Poissons Ratio (y) = 0.33535 0.08029
# Poissons Ratio (z) = 0.51718 0.08525
#
# Static dielectric constant tensor:
#      x y z
#    x 2.059010 0.000000 0.063680 
#    y 0.000000 1.994610 0.000000 
#    z 0.063680 0.000000 2.031280 
# 
# From -- ./inp_files/256689.got.cif
#   From: 2010.05.17/outbox.cif.g08.bks.cpg/sg15_129_cif.got.tgz:256689.got - 2010.06.03 18:47:42.
