data_PCOD9295031
_publ_section_title
;
Structure prediction by ZEFSAII (Michael W. Deem and Ramdas Pophale) SiO2 
 PCOD9295031
Probable space group: C 2/C
;
_chemical_formula_sum "Si O2"
_cell_formula_units_Z 40
_cell_length_a 28.644803
_cell_length_b 11.354745
_cell_length_c 5.120124
_cell_angle_alpha 90.000000
_cell_angle_beta 110.464140
_cell_angle_gamma 90.000000
_cell_volume 1560.245218
_symmetry_space_group_name_H-M "C 2/C"
_symmetry_group_IT_number 15
_symmetry_cell_setting 'monoclinic'
loop_
_space_group_symop_operation_xyz
x,y,z
-x,y,1/2-z
-x,-y,-z
x,-y,1/2+z
1/2+x,1/2+y,z
1/2-x,1/2+y,1/2-z
1/2-x,1/2-y,-z
1/2+x,1/2-y,1/2+z
loop_
_atom_site_type_symbol
_atom_site_label
_atom_site_fract_x
_atom_site_fract_y
_atom_site_fract_z
Si Si1 0.875092 0.232226 0.213279
Si Si2 0.058504 0.569020 0.917905
Si Si3 0.202780 0.923303 0.229327
Si Si4 0.319245 0.918095 0.437388
Si Si5 0.475984 0.630487 0.459450
O O1 0.909310 0.323637 0.122693
O O2 0.849279 0.304080 0.397008
O O3 0.916641 0.133943 0.369523
O O4 0.833726 0.177086 0.944589
O O5 0.069929 0.461523 0.739501
O O6 0.000000 0.582079 0.750000
O O7 0.260410 0.886789 0.314076
O O8 0.194647 0.969038 0.507269
O O9 0.327275 0.979330 0.734039
O O10 0.500000 0.682767 0.250000
O O11 0.500000 0.500000 0.500000
O O12 0.500000 0.696538 0.750000
#
# Coordination Sequence:
#
# PCOD9295031 Si02
#       5
#     8   8   8   8   8
#     4  12  24  41  74  95 131 184 221 265 348 392
#     4  10  23  42  62  93 129 165 220 276 320 382
#     4  10  25  43  65  98 138 172 220 280 330 399
#     4  10  23  45  67 101 135 167 224 282 328 396
#     4  10  25  43  61  90 134 169 220 270 311 392
#
# _framework density 25.636996
#
# number of rings (size 3 to 8) (size 9 to 14) (size 15 to 20)
#    0.000    1.600    0.000    2.400    5.600    8.800 
#    0.000    6.000    0.000    0.000    0.000    0.000 
#    0.000    0.000    0.000    0.000    0.000    0.000 
#
# Total GULP energy -112031.152585 kJ/mol
# GULP energy per Si atom -5601.557629 kJ/mol
# Density = 2.557865 g / cm^3
# Si number density = 25.636996 Si / 1000 Ang^3
#
#
#
# Elastic Constant Matrix: (Units=GPa)
#
#
# Indices 1 2 3 4 5 6 
#
# 1 127.2708 32.9252 8.0182 0.0000 21.3855 0.0000
# 2 32.9252 85.5312 -4.2331 0.0000 4.8681 0.0000
# 3 8.0182 -4.2331 133.4446 0.0000 -14.7007 0.0000
# 4 0.0000 0.0000 0.0000 4.3830 0.0000 12.5623
# 5 21.3855 4.8681 -14.7007 0.0000 36.3796 0.0000
# 6 0.0000 0.0000 0.0000 12.5623 0.0000 44.5628
#
#
#
# Elastic Compliance Matrix: (Units=1/GPa)
#
#
# Indices 1 2 3 4 5 6 
#
# 1 0.009837 -0.003520 -0.001348 0.000000 -0.005856 0.000000
# 2 -0.003520 0.013047 0.000692 0.000000 0.000603 0.000000
# 3 -0.001348 0.000692 0.008031 0.000000 0.003945 0.000000
# 4 0.000000 0.000000 0.000000 1.188186 0.000000 -0.334951
# 5 -0.005856 0.000603 0.003945 0.000000 0.032444 0.000000
# 6 0.000000 0.000000 0.000000 -0.334951 0.000000 0.116864
#
#
# Mechanical properties :
#
#
# Convention : Reuss Voigt Hill
#
# Bulk Modulus (GPa) = 44.32143 46.62971 45.47557
# Shear Modulus (GPa) = 3.61198 37.70081 20.65640
#
# Velocity S-wave (km/s) = 1.18826 3.83895 2.84161
# Velocity P-wave (km/s) = 4.38272 6.15451 5.34257
#
# Compressibility (1/GPa) = 0.02256245
#
# Stress axis : x y z
#
# Youngs Moduli (GPa) = 101.65855 76.64816 124.51304
#
# Poissons Ratio (x) = 0.26981 0.16783
# Poissons Ratio (y) = 0.35785 -0.08614
# Poissons Ratio (z) = 0.13702 -0.05302
#
# Static dielectric constant tensor:
#      x y z
#    x 2.015210 0.000000 0.022530 
#    y 0.000000 1.765320 0.000000 
#    z 0.022530 0.000000 2.089940 
# 
# From -- ./inp_files/16754.got.cif
#   From: 2010.05.17/outbox.cif.g08.bks.cpg/sg15_9_cif.got.tgz:16754.got - 2010.06.03 18:47:42.
