data_PCOD9295018
_publ_section_title
;
Structure prediction by ZEFSAII (Michael W. Deem and Ramdas Pophale) SiO2 
 PCOD9295018
Probable space group: C 2/C
;
_chemical_formula_sum "Si O2"
_cell_formula_units_Z 48
_cell_length_a 15.056098
_cell_length_b 5.314521
_cell_length_c 22.705809
_cell_angle_alpha 90.000000
_cell_angle_beta 85.631991
_cell_angle_gamma 90.000000
_cell_volume 1811.549759
_symmetry_space_group_name_H-M "C 2/C"
_symmetry_group_IT_number 15
_symmetry_cell_setting 'monoclinic'
loop_
_space_group_symop_operation_xyz
x,y,z
-x,y,1/2-z
-x,-y,-z
x,-y,1/2+z
1/2+x,1/2+y,z
1/2-x,1/2+y,1/2-z
1/2-x,1/2-y,-z
1/2+x,1/2-y,1/2+z
loop_
_atom_site_type_symbol
_atom_site_label
_atom_site_fract_x
_atom_site_fract_y
_atom_site_fract_z
Si Si1 0.239956 0.076053 0.912704
Si Si2 0.374078 0.570855 0.987940
Si Si3 0.167816 0.202400 0.308209
Si Si4 0.627848 0.794053 0.749360
Si Si5 0.077545 0.639174 0.122627
Si Si6 0.594594 0.078759 0.443948
O O1 0.224214 0.994125 0.981006
O O2 0.185343 0.879157 0.874690
O O3 0.342135 0.061372 0.890223
O O4 0.187246 0.336523 0.908053
O O5 0.400461 0.831842 0.017429
O O6 0.388114 0.623358 0.918597
O O7 0.578362 0.674148 0.986466
O O8 0.268170 0.211078 0.277003
O O9 0.121973 0.457556 0.289488
O O10 0.115395 0.966269 0.283686
O O11 0.572549 0.808847 0.691934
O O12 0.985531 0.560121 0.097900
#
# Coordination Sequence:
#
# PCOD9295018 Si02
#       6
#     8   8   8   8   8   8
#     4   9  23  40  67  90 126 168 207 266 316 379
#     4  10  23  42  61  93 130 163 204 268 318 371
#     4   9  18  37  56  87 119 153 205 252 305 359
#     4   9  20  33  60  87 114 159 204 250 300 372
#     4  11  21  43  64  95 123 169 214 255 318 394
#     4  10  24  41  60  93 127 165 204 260 321 371
#
# _framework density 26.496648
#
# number of rings (size 3 to 8) (size 9 to 14) (size 15 to 20)
#    1.000    1.333    0.000    1.500    2.333    3.333 
#    6.000    0.833    0.000    0.000    0.000    0.000 
#    0.000    0.000    0.000    0.000    0.000    0.000 
#
# Total GULP energy -134338.375188 kJ/mol
# GULP energy per Si atom -5597.432300 kJ/mol
# Density = 2.643634 g / cm^3
# Si number density = 26.496648 Si / 1000 Ang^3
#
#
#
# Elastic Constant Matrix: (Units=GPa)
#
#
# Indices 1 2 3 4 5 6 
#
# 1 115.1609 30.8429 51.9391 0.0000 20.3451 0.0000
# 2 30.8429 178.4830 78.6075 0.0000 16.3740 0.0000
# 3 51.9391 78.6075 150.1305 0.0000 33.0387 0.0000
# 4 0.0000 0.0000 0.0000 30.5149 0.0000 3.3968
# 5 20.3451 16.3740 33.0387 0.0000 45.6268 0.0000
# 6 0.0000 0.0000 0.0000 3.3968 0.0000 33.1695
#
#
#
# Elastic Compliance Matrix: (Units=1/GPa)
#
#
# Indices 1 2 3 4 5 6 
#
# 1 0.010525 -0.000296 -0.002946 0.000000 -0.002453 0.000000
# 2 -0.000296 0.007292 -0.003769 0.000000 0.000245 0.000000
# 3 -0.002946 -0.003769 0.010786 0.000000 -0.005144 0.000000
# 4 0.000000 0.000000 0.000000 0.033149 0.000000 -0.003395
# 5 -0.002453 0.000245 -0.005144 0.000000 0.026648 0.000000
# 6 0.000000 0.000000 0.000000 -0.003395 0.000000 0.030496
#
#
# Mechanical properties :
#
#
# Convention : Reuss Voigt Hill
#
# Bulk Modulus (GPa) = 68.59164 85.17261 76.88213
# Shear Modulus (GPa) = 36.29045 40.68791 38.48918
#
# Velocity S-wave (km/s) = 3.70486 3.92291 3.81544
# Velocity P-wave (km/s) = 6.65165 7.26178 6.96340
#
# Compressibility (1/GPa) = 0.01457904
#
# Stress axis : x y z
#
# Youngs Moduli (GPa) = 95.01128 137.14542 92.71604
#
# Poissons Ratio (x) = 0.04061 0.27317
# Poissons Ratio (y) = 0.02813 0.34947
# Poissons Ratio (z) = 0.27993 0.51693
#
# Static dielectric constant tensor:
#      x y z
#    x 2.136910 0.000000 -0.035430 
#    y 0.000000 2.032840 0.000000 
#    z -0.035430 0.000000 2.098790 
# 
# From -- ./inp_files/275675.got.cif
#   From: 2010.05.17/outbox.cif.g08.bks.cpg/sg15_138_cif.got.tgz:275675.got - 2010.06.03 18:47:42.
