data_PCOD9295947
_publ_section_title
;
Structure prediction by ZEFSAII (Michael W. Deem and Ramdas Pophale) SiO2 
 PCOD9295947
Probable space group: C 2/C
;
_chemical_formula_sum "Si O2"
_cell_formula_units_Z 48
_cell_length_a 12.855876
_cell_length_b 11.642168
_cell_length_c 22.537554
_cell_angle_alpha 90.000000
_cell_angle_beta 141.337396
_cell_angle_gamma 90.000000
_cell_volume 2107.350953
_symmetry_space_group_name_H-M "C 2/C"
_symmetry_group_IT_number 15
_symmetry_cell_setting 'monoclinic'
loop_
_space_group_symop_operation_xyz
x,y,z
-x,y,1/2-z
-x,-y,-z
x,-y,1/2+z
1/2+x,1/2+y,z
1/2-x,1/2+y,1/2-z
1/2-x,1/2-y,-z
1/2+x,1/2-y,1/2+z
loop_
_atom_site_type_symbol
_atom_site_label
_atom_site_fract_x
_atom_site_fract_y
_atom_site_fract_z
Si Si1 0.681397 0.530810 0.107038
Si Si2 0.064770 0.348507 0.472349
Si Si3 0.841844 0.402021 0.487625
Si Si4 0.594562 0.220944 0.362826
Si Si5 0.307282 0.776901 0.164338
Si Si6 0.279864 0.292708 0.783275
O O1 0.781296 0.626684 0.112768
O O2 0.782648 0.413418 0.156189
O O3 0.663898 0.585284 0.164817
O O4 0.500000 0.500000 0.000000
O O5 0.147590 0.466416 0.487581
O O6 0.207099 0.265927 0.561952
O O7 0.957703 0.381070 0.482745
O O8 0.930603 0.292629 0.368447
O O9 0.665648 0.349126 0.390802
O O10 0.898843 0.322456 0.566613
O O11 0.397676 0.226905 0.262656
O O12 0.500000 0.747383 0.250000
O O13 0.248035 0.719312 0.199437
#
# Coordination Sequence:
#
# PCOD9295947 Si02
#       6
#     8   8   8   8   8   8
#     4  12  26  48  75 108 150 193 244 305 368 448
#     4  11  24  48  67 108 150 185 238 313 365 430
#     4  10  23  43  75 103 149 183 244 304 361 432
#     4  11  23  47  75 111 140 200 250 295 365 454
#     4  12  28  49  70 107 147 189 250 304 378 441
#     4  12  26  46  76 105 144 196 249 298 370 443
#
# _framework density 22.777411000000001
#
# number of rings (size 3 to 8) (size 9 to 14) (size 15 to 20)
#    0.000    0.667    5.000    1.500    7.000    2.000 
#    6.000    0.000    0.000    0.000    0.000    0.000 
#    0.000    0.000    0.000    0.000    0.000    0.000 
#
# Total GULP energy -134065.597903 kJ/mol
# GULP energy per Si atom -5586.066579 kJ/mol
# Density = 2.272557 g / cm^3
# Si number density = 22.777411 Si / 1000 Ang^3
#
#
#
# Elastic Constant Matrix: (Units=GPa)
#
#
# Indices 1 2 3 4 5 6 
#
# 1 60.1313 4.5120 26.0299 0.0000 19.4294 0.0000
# 2 4.5120 88.1941 33.6427 0.0000 23.3066 0.0000
# 3 26.0299 33.6427 152.7693 0.0000 24.7994 0.0000
# 4 0.0000 0.0000 0.0000 32.6568 0.0000 3.3868
# 5 19.4294 23.3066 24.7994 0.0000 35.0404 0.0000
# 6 0.0000 0.0000 0.0000 3.3868 0.0000 26.6010
#
#
#
# Elastic Compliance Matrix: (Units=1/GPa)
#
#
# Indices 1 2 3 4 5 6 
#
# 1 0.021352 0.003018 -0.002322 0.000000 -0.012204 0.000000
# 2 0.003018 0.014608 -0.002127 0.000000 -0.009885 0.000000
# 3 -0.002322 -0.002127 0.007876 0.000000 -0.002872 0.000000
# 4 0.000000 0.000000 0.000000 0.031031 0.000000 -0.003951
# 5 -0.012204 -0.009885 -0.002872 0.000000 0.043913 0.000000
# 6 0.000000 0.000000 0.000000 -0.003951 0.000000 0.038096
#
#
# Mechanical properties :
#
#
# Convention : Reuss Voigt Hill
#
# Bulk Modulus (GPa) = 24.40473 47.71823 36.06148
# Shear Modulus (GPa) = 28.83613 34.65367 31.74490
#
# Velocity S-wave (km/s) = 3.56194 3.90475 3.73728
# Velocity P-wave (km/s) = 5.25874 6.42843 5.87278
#
# Compressibility (1/GPa) = 0.04097566
#
# Stress axis : x y z
#
# Youngs Moduli (GPa) = 46.83382 68.45786 126.96823
#
# Poissons Ratio (x) = -0.20663 0.29479
# Poissons Ratio (y) = -0.14136 0.27000
# Poissons Ratio (z) = 0.10874 0.14558
#
# Static dielectric constant tensor:
#      x y z
#    x 1.919870 0.000000 -0.013880 
#    y 0.000000 1.838180 0.000000 
#    z -0.013880 0.000000 1.921340 
# 
# From -- ./inp_files/296205.got.cif
#   From: 2010.05.17/outbox.cif.g08.bks.cpg/sg15_149_cif.got.tgz:296205.got - 2010.06.03 18:47:42.
