data_PCOD9295322
_publ_section_title
;
Structure prediction by ZEFSAII (Michael W. Deem and Ramdas Pophale) SiO2 
 PCOD9295322
Probable space group: C 2/C
;
_chemical_formula_sum "Si O2"
_cell_formula_units_Z 40
_cell_length_a 13.267241
_cell_length_b 16.417884
_cell_length_c 11.431313
_cell_angle_alpha 90.000000
_cell_angle_beta 139.058154
_cell_angle_gamma 90.000000
_cell_volume 1631.658366
_symmetry_space_group_name_H-M "C 2/C"
_symmetry_group_IT_number 15
_symmetry_cell_setting 'monoclinic'
loop_
_space_group_symop_operation_xyz
x,y,z
-x,y,1/2-z
-x,-y,-z
x,-y,1/2+z
1/2+x,1/2+y,z
1/2-x,1/2+y,1/2-z
1/2-x,1/2-y,-z
1/2+x,1/2-y,1/2+z
loop_
_atom_site_type_symbol
_atom_site_label
_atom_site_fract_x
_atom_site_fract_y
_atom_site_fract_z
Si Si1 0.750923 0.046756 0.054003
Si Si2 0.252200 0.388257 0.921052
Si Si3 0.442593 0.659906 0.375672
Si Si4 0.077455 0.399606 0.987219
Si Si5 0.192739 0.325139 0.322946
O O1 0.672043 0.122742 0.921563
O O2 0.800906 0.980933 0.998356
O O3 0.882641 0.079857 0.254768
O O4 0.629191 0.993118 0.018679
O O5 0.376905 0.344725 0.950057
O O6 0.095343 0.389495 0.708299
O O7 0.194395 0.355371 0.996461
O O8 0.623978 0.670827 0.536660
O O9 0.368233 0.733812 0.237318
O O10 0.109998 0.367552 0.142295
#
# Coordination Sequence:
#
# PCOD9295322 Si02
#       5
#     8   8   8   8   8
#     4  10  23  42  68  98 125 166 216 268 319 384
#     4   9  22  43  69  96 127 169 216 266 322 387
#     4  12  26  42  65  96 134 173 215 269 323 383
#     4   9  22  43  69  96 127 169 216 266 322 387
#     4  12  26  42  65  96 134 173 215 269 323 383
#
# _framework density 24.514935000000001
#
# number of rings (size 3 to 8) (size 9 to 14) (size 15 to 20)
#    1.200    0.400    0.000    3.600    0.000   14.400 
#    0.000    0.000    0.000    0.000    0.000    0.000 
#    0.000    0.000    0.000    0.000    0.000    0.000 
#
# Total GULP energy -111962.293400 kJ/mol
# GULP energy per Si atom -5598.114670 kJ/mol
# Density = 2.445914 g / cm^3
# Si number density = 24.514935 Si / 1000 Ang^3
#
#
#
# Elastic Constant Matrix: (Units=GPa)
#
#
# Indices 1 2 3 4 5 6 
#
# 1 132.4900 28.1695 31.9241 0.0000 6.5719 0.0000
# 2 28.1695 65.3500 12.2357 0.0000 -1.7790 0.0000
# 3 31.9241 12.2357 100.9953 0.0000 -4.0602 0.0000
# 4 0.0000 0.0000 0.0000 40.0824 0.0000 -2.5723
# 5 6.5719 -1.7790 -4.0602 0.0000 43.6540 0.0000
# 6 0.0000 0.0000 0.0000 -2.5723 0.0000 27.3307
#
#
#
# Elastic Compliance Matrix: (Units=1/GPa)
#
#
# Indices 1 2 3 4 5 6 
#
# 1 0.008965 -0.003446 -0.002485 0.000000 -0.001721 0.000000
# 2 -0.003446 0.016991 -0.000924 0.000000 0.001125 0.000000
# 3 -0.002485 -0.000924 0.010853 0.000000 0.001346 0.000000
# 4 0.000000 0.000000 0.000000 0.025100 0.000000 0.002362
# 5 -0.001721 0.001125 0.001346 0.000000 0.023338 0.000000
# 6 0.000000 0.000000 0.000000 0.002362 0.000000 0.036811
#
#
# Mechanical properties :
#
#
# Convention : Reuss Voigt Hill
#
# Bulk Modulus (GPa) = 43.29293 49.27710 46.28502
# Shear Modulus (GPa) = 34.85100 37.31383 36.08241
#
# Velocity S-wave (km/s) = 3.77453 3.90562 3.84064
# Velocity P-wave (km/s) = 6.05758 6.36263 6.21198
#
# Compressibility (1/GPa) = 0.02309846
#
# Stress axis : x y z
#
# Youngs Moduli (GPa) = 111.54978 58.85403 92.13928
#
# Poissons Ratio (x) = 0.20280 0.22900
# Poissons Ratio (y) = 0.38437 0.08514
# Poissons Ratio (z) = 0.27725 0.05439
#
# Static dielectric constant tensor:
#      x y z
#    x 1.999100 0.000000 -0.026530 
#    y 0.000000 1.991340 0.000000 
#    z -0.026530 0.000000 1.852570 
# 
# From -- ./inp_files/113744.got.cif
#   From: 2010.05.17/outbox.cif.g08.bks.cpg/sg15_57_cif.got.tgz:113744.got - 2010.06.03 18:47:42.
