data_PCOD9295398
_publ_section_title
;
Structure prediction by ZEFSAII (Michael W. Deem and Ramdas Pophale) SiO2 
 PCOD9295398
Probable space group: C 2/C
;
_chemical_formula_sum "Si O2"
_cell_formula_units_Z 40
_cell_length_a 12.839107
_cell_length_b 11.567494
_cell_length_c 11.168870
_cell_angle_alpha 90.000000
_cell_angle_beta 76.954093
_cell_angle_gamma 90.000000
_cell_volume 1615.945793
_symmetry_space_group_name_H-M "C 2/C"
_symmetry_group_IT_number 15
_symmetry_cell_setting 'monoclinic'
loop_
_space_group_symop_operation_xyz
x,y,z
-x,y,1/2-z
-x,-y,-z
x,-y,1/2+z
1/2+x,1/2+y,z
1/2-x,1/2+y,1/2-z
1/2-x,1/2-y,-z
1/2+x,1/2-y,1/2+z
loop_
_atom_site_type_symbol
_atom_site_label
_atom_site_fract_x
_atom_site_fract_y
_atom_site_fract_z
Si Si1 0.171244 0.223142 0.627709
Si Si2 0.109143 0.030702 0.150362
Si Si3 0.344445 0.094443 0.190397
Si Si4 0.628483 0.834916 0.290710
Si Si5 0.432847 0.252051 0.956155
O O1 0.250000 0.250000 0.500000
O O2 0.106579 0.105774 0.622008
O O3 0.127626 0.342857 0.691148
O O4 0.248080 0.186621 0.717642
O O5 0.000000 0.057087 0.250000
O O6 0.217431 0.067954 0.194617
O O7 0.105306 0.115390 0.036392
O O8 0.395786 0.967972 0.176846
O O9 0.390378 0.175809 0.074562
O O10 0.606159 0.801391 0.160387
O O11 0.559566 0.760820 0.403400
#
# Coordination Sequence:
#
# PCOD9295398 Si02
#       5
#     8   8   8   8   8
#     4  11  26  43  63  99 142 174 227 289 344 407
#     4  11  23  44  70  96 133 182 223 278 340 406
#     4  11  24  41  71  98 133 178 229 280 349 402
#     4  10  23  42  70  97 135 176 227 286 341 404
#     4  11  21  45  72  98 131 178 238 277 342 415
#
# _framework density 24.753304
#
# number of rings (size 3 to 8) (size 9 to 14) (size 15 to 20)
#    0.000    1.200    4.000    1.200    5.600    3.200 
#    3.600    3.000    0.000    0.000    0.000    0.000 
#    0.000    0.000    0.000    0.000    0.000    0.000 
#
# Total GULP energy -111839.711633 kJ/mol
# GULP energy per Si atom -5591.985582 kJ/mol
# Density = 2.469696 g / cm^3
# Si number density = 24.753304 Si / 1000 Ang^3
#
#
#
# Elastic Constant Matrix: (Units=GPa)
#
#
# Indices 1 2 3 4 5 6 
#
# 1 72.6889 7.3051 4.9805 0.0000 2.1262 0.0000
# 2 7.3051 148.4140 13.2269 0.0000 -0.8445 0.0000
# 3 4.9805 13.2269 101.8605 0.0000 -13.9674 0.0000
# 4 0.0000 0.0000 0.0000 35.2649 0.0000 -12.2036
# 5 2.1262 -0.8445 -13.9674 0.0000 21.9499 0.0000
# 6 0.0000 0.0000 0.0000 -12.2036 0.0000 31.1707
#
#
#
# Elastic Compliance Matrix: (Units=1/GPa)
#
#
# Indices 1 2 3 4 5 6 
#
# 1 0.013935 -0.000620 -0.000865 0.000000 -0.001924 0.000000
# 2 -0.000620 0.006847 -0.000892 0.000000 -0.000244 0.000000
# 3 -0.000865 -0.000892 0.010937 0.000000 0.007009 0.000000
# 4 0.000000 0.000000 0.000000 0.032801 0.000000 0.012842
# 5 -0.001924 -0.000244 0.007009 0.000000 0.050195 0.000000
# 6 0.000000 0.000000 0.000000 0.012842 0.000000 0.037109
#
#
# Mechanical properties :
#
#
# Convention : Reuss Voigt Hill
#
# Bulk Modulus (GPa) = 37.08550 41.55427 39.31989
# Shear Modulus (GPa) = 30.19963 37.50715 33.85339
#
# Velocity S-wave (km/s) = 3.49667 3.89683 3.70216
# Velocity P-wave (km/s) = 5.59615 6.08858 5.84755
#
# Compressibility (1/GPa) = 0.02696472
#
# Stress axis : x y z
#
# Youngs Moduli (GPa) = 71.76142 146.05913 91.43653
#
# Poissons Ratio (x) = 0.09053 0.07906
# Poissons Ratio (y) = 0.04448 0.08158
# Poissons Ratio (z) = 0.06205 0.13032
#
# Static dielectric constant tensor:
#      x y z
#    x 2.068460 0.000000 0.032950 
#    y 0.000000 2.014200 0.000000 
#    z 0.032950 0.000000 1.896200 
# 
# From -- ./inp_files/94872.got.cif
#   From: 2010.05.17/outbox.cif.g08.bks.cpg/sg15_48_cif.got.tgz:94872.got - 2010.06.03 18:47:42.
