data_PCOD9295975
_publ_section_title
;
Structure prediction by ZEFSAII (Michael W. Deem and Ramdas Pophale) SiO2 
 PCOD9295975
Probable space group: C 2/C
;
_chemical_formula_sum "Si O2"
_cell_formula_units_Z 32
_cell_length_a 19.860973
_cell_length_b 6.592059
_cell_length_c 13.409772
_cell_angle_alpha 90.000000
_cell_angle_beta 110.731935
_cell_angle_gamma 90.000000
_cell_volume 1641.985295
_symmetry_space_group_name_H-M "C 2/C"
_symmetry_group_IT_number 15
_symmetry_cell_setting 'monoclinic'
loop_
_space_group_symop_operation_xyz
x,y,z
-x,y,1/2-z
-x,-y,-z
x,-y,1/2+z
1/2+x,1/2+y,z
1/2-x,1/2+y,1/2-z
1/2-x,1/2-y,-z
1/2+x,1/2-y,1/2+z
loop_
_atom_site_type_symbol
_atom_site_label
_atom_site_fract_x
_atom_site_fract_y
_atom_site_fract_z
Si Si1 0.842352 0.946888 0.295440
Si Si2 0.268837 0.133912 0.408584
Si Si3 0.525604 0.845236 0.655299
Si Si4 0.104251 0.666766 0.555897
O O1 0.795332 0.793901 0.338526
O O2 0.915716 0.832156 0.306161
O O3 0.798151 0.016232 0.175482
O O4 0.861226 0.140840 0.372589
O O5 0.250000 0.250000 0.500000
O O6 0.333704 0.974681 0.458289
O O7 0.500000 0.912028 0.750000
O O8 0.456261 0.775724 0.555949
O O9 0.563661 0.028711 0.616657
#
# Coordination Sequence:
#
# PCOD9295975 Si02
#       4
#     8   8   8   8
#     4  11  23  43  63  94 129 163 213 263 310 381
#     4  11  25  40  67  97 127 169 209 262 320 372
#     4  10  24  41  65  92 123 168 209 258 314 375
#     4  10  23  44  62  92 130 158 214 262 310 377
#
# _framework density 19.488603999999999
#
# number of rings (size 3 to 8) (size 9 to 14) (size 15 to 20)
#    0.000    1.500    2.500    0.750    7.000    2.000 
#    0.000    0.000    0.000    0.000    0.000    0.000 
#    0.000    0.000    0.000    0.000    0.000    0.000 
#
# Total GULP energy -89463.775379 kJ/mol
# GULP energy per Si atom -5591.485961 kJ/mol
# Density = 1.944425 g / cm^3
# Si number density = 19.488604 Si / 1000 Ang^3
#
#
#
# Elastic Constant Matrix: (Units=GPa)
#
#
# Indices 1 2 3 4 5 6 
#
# 1 105.6117 36.6051 78.7938 0.0000 21.9282 0.0000
# 2 36.6051 62.6764 28.1168 0.0000 21.5489 0.0000
# 3 78.7938 28.1168 118.3763 0.0000 22.8546 0.0000
# 4 0.0000 0.0000 0.0000 37.5791 0.0000 17.1197
# 5 21.9282 21.5489 22.8546 0.0000 35.2195 0.0000
# 6 0.0000 0.0000 0.0000 17.1197 0.0000 9.8703
#
#
#
# Elastic Compliance Matrix: (Units=1/GPa)
#
#
# Indices 1 2 3 4 5 6 
#
# 1 0.021117 -0.006383 -0.012296 0.000000 -0.001264 0.000000
# 2 -0.006383 0.022954 0.000847 0.000000 -0.010620 0.000000
# 3 -0.012296 0.000847 0.017209 0.000000 -0.004030 0.000000
# 4 0.000000 0.000000 0.000000 0.126816 0.000000 -0.219958
# 5 -0.001264 -0.010620 -0.004030 0.000000 0.038293 0.000000
# 6 0.000000 0.000000 0.000000 -0.219958 0.000000 0.482826
#
#
# Mechanical properties :
#
#
# Convention : Reuss Voigt Hill
#
# Bulk Modulus (GPa) = 39.03782 63.74398 51.39090
# Shear Modulus (GPa) = 6.63644 26.07702 16.35673
#
# Velocity S-wave (km/s) = 1.84735 3.66193 2.90021
# Velocity P-wave (km/s) = 4.96234 7.11751 6.13530
#
# Compressibility (1/GPa) = 0.02561618
#
# Stress axis : x y z
#
# Youngs Moduli (GPa) = 47.35582 43.56545 58.10954
#
# Poissons Ratio (x) = 0.27806 0.71450
# Poissons Ratio (y) = 0.30225 -0.04920
# Poissons Ratio (z) = 0.58228 -0.03688
#
# Static dielectric constant tensor:
#      x y z
#    x 1.668400 0.000000 0.019070 
#    y 0.000000 1.659560 0.000000 
#    z 0.019070 0.000000 1.651450 
# 
# From -- ./inp_files/115314.got.cif
#   From: 2010.05.17/outbox.cif.g08.bks.cpg/sg15_58_cif.got.tgz:115314.got - 2010.06.03 18:47:42.
