data_PCOD9295798
_publ_section_title
;
Structure prediction by ZEFSAII (Michael W. Deem and Ramdas Pophale) SiO2 
 PCOD9295798
Probable space group: C 2/C
;
_chemical_formula_sum "Si O2"
_cell_formula_units_Z 40
_cell_length_a 22.921838
_cell_length_b 8.640341
_cell_length_c 17.649640
_cell_angle_alpha 90.000000
_cell_angle_beta 30.168557
_cell_angle_gamma 90.000000
_cell_volume 1756.675817
_symmetry_space_group_name_H-M "C 2/C"
_symmetry_group_IT_number 15
_symmetry_cell_setting 'monoclinic'
loop_
_space_group_symop_operation_xyz
x,y,z
-x,y,1/2-z
-x,-y,-z
x,-y,1/2+z
1/2+x,1/2+y,z
1/2-x,1/2+y,1/2-z
1/2-x,1/2-y,-z
1/2+x,1/2-y,1/2+z
loop_
_atom_site_type_symbol
_atom_site_label
_atom_site_fract_x
_atom_site_fract_y
_atom_site_fract_z
Si Si1 0.161208 0.450134 0.888115
Si Si2 0.066535 0.382055 0.828908
Si Si3 0.638045 0.465209 0.242136
Si Si4 0.762519 0.569522 0.961175
Si Si5 0.441282 0.674195 0.396035
O O1 0.132973 0.411782 0.833395
O O2 0.292234 0.499840 0.759291
O O3 0.123256 0.305535 0.983506
O O4 0.069196 0.583723 0.011084
O O5 0.085246 0.202989 0.792150
O O6 0.123198 0.503100 0.706176
O O7 0.541486 0.594313 0.332874
O O8 0.735247 0.478125 0.067767
O O9 0.750000 0.750000 0.000000
O O10 0.656041 0.552066 0.021847
O O11 0.500000 0.727133 0.250000
#
# Coordination Sequence:
#
# PCOD9295798 Si02
#       5
#     8   8   8   8   8
#     4  11  26  44  68  98 138 181 215 281 340 402
#     4  11  27  43  65 103 139 170 233 277 340 395
#     4  11  25  43  71  99 134 178 224 286 327 400
#     4  11  22  46  72  96 133 183 225 275 334 404
#     4  10  23  43  69  99 129 180 230 267 337 402
#
# _framework density 22.770281000000001
#
# number of rings (size 3 to 8) (size 9 to 14) (size 15 to 20)
#    0.000    1.200    2.000    3.000    5.600    2.400 
#    3.600    0.000    0.000    0.000    0.000    0.000 
#    0.000    0.000    0.000    0.000    0.000    0.000 
#
# Total GULP energy -111860.223040 kJ/mol
# GULP energy per Si atom -5593.011152 kJ/mol
# Density = 2.271845 g / cm^3
# Si number density = 22.770281 Si / 1000 Ang^3
#
#
#
# Elastic Constant Matrix: (Units=GPa)
#
#
# Indices 1 2 3 4 5 6 
#
# 1 94.7788 16.8609 -9.3644 0.0000 -29.8523 0.0000
# 2 16.8609 106.7575 8.8694 -0.0001 11.8437 0.0000
# 3 -9.3644 8.8694 15.7847 -0.0001 4.3279 0.0000
# 4 0.0000 -0.0001 -0.0001 15.4593 0.0000 1.1548
# 5 -29.8523 11.8437 4.3279 0.0000 26.4546 0.0000
# 6 0.0000 0.0000 0.0000 1.1548 0.0000 15.4567
#
#
#
# Elastic Compliance Matrix: (Units=1/GPa)
#
#
# Indices 1 2 3 4 5 6 
#
# 1 0.020345 -0.006684 0.009119 0.000000 0.024458 0.000000
# 2 -0.006684 0.012372 -0.007675 0.000000 -0.011826 0.000000
# 3 0.009119 -0.007675 0.072566 0.000000 0.001855 0.000000
# 4 0.000000 0.000000 0.000000 0.065049 0.000000 -0.004860
# 5 0.024458 -0.011826 0.001855 0.000000 0.070391 0.000000
# 6 0.000000 0.000000 0.000000 -0.004860 0.000000 0.065060
#
#
# Mechanical properties :
#
#
# Convention : Reuss Voigt Hill
#
# Bulk Modulus (GPa) = 10.54810 27.78365 19.16588
# Shear Modulus (GPa) = 14.37346 24.87115 19.62230
#
# Velocity S-wave (km/s) = 2.51517 3.30853 2.93874
# Velocity P-wave (km/s) = 3.61625 5.17912 4.46657
#
# Compressibility (1/GPa) = 0.09480377
#
# Stress axis : x y z
#
# Youngs Moduli (GPa) = 49.15324 80.82549 13.78051
#
# Poissons Ratio (x) = 0.54025 -0.12567
# Poissons Ratio (y) = 0.32855 0.10576
# Poissons Ratio (z) = -0.44825 0.62033
#
# Static dielectric constant tensor:
#      x y z
#    x 1.907240 0.000000 0.003910 
#    y 0.000000 1.827350 0.000000 
#    z 0.003910 0.000000 1.859140 
# 
# From -- ./inp_files/218790.got.cif
#   From: 2010.05.17/outbox.cif.g08.bks.cpg/sg15_110_cif.got.tgz:218790.got - 2010.06.03 18:47:42.
