data_PCOD9295613
_publ_section_title
;
Structure prediction by ZEFSAII (Michael W. Deem and Ramdas Pophale) SiO2 
 PCOD9295613
Probable space group: C 2/C
;
_chemical_formula_sum "Si O2"
_cell_formula_units_Z 44
_cell_length_a 9.514124
_cell_length_b 13.172347
_cell_length_c 17.952922
_cell_angle_alpha 90.000000
_cell_angle_beta 57.843352
_cell_angle_gamma 90.000000
_cell_volume 1904.773702
_symmetry_space_group_name_H-M "C 2/C"
_symmetry_group_IT_number 15
_symmetry_cell_setting 'monoclinic'
loop_
_space_group_symop_operation_xyz
x,y,z
-x,y,1/2-z
-x,-y,-z
x,-y,1/2+z
1/2+x,1/2+y,z
1/2-x,1/2+y,1/2-z
1/2-x,1/2-y,-z
1/2+x,1/2-y,1/2+z
loop_
_atom_site_type_symbol
_atom_site_label
_atom_site_fract_x
_atom_site_fract_y
_atom_site_fract_z
Si Si1 0.504340 0.551935 0.918704
Si Si2 0.556972 0.772727 0.541543
Si Si3 0.522295 0.834414 0.379446
Si Si4 0.372735 0.017793 0.468585
Si Si5 0.671374 0.485975 0.230318
Si Si6 0.500000 0.320539 0.750000
O O1 0.634268 0.498602 0.828226
O O2 0.500000 0.500000 0.000000
O O3 0.540091 0.672305 0.907864
O O4 0.311159 0.538084 0.948831
O O5 0.750000 0.750000 0.500000
O O6 0.527201 0.788480 0.461404
O O7 0.547653 0.879810 0.587855
O O8 0.679192 0.909604 0.323676
O O9 0.511017 0.749878 0.319419
O O10 0.372798 0.916530 0.419720
O O11 0.500000 0.000000 0.500000
O O12 0.500000 0.434039 0.250000
O O13 0.654684 0.599651 0.201027
#
# Coordination Sequence:
#
# PCOD9295613 Si02
#       6
#     8   8   8   8   8   4
#     4  11  22  39  65 100 132 173 231 281 339 423
#     4   9  19  39  66  93 128 168 228 276 342 414
#     4  11  22  44  67  96 138 179 228 286 344 420
#     4   9  20  39  63  90 130 168 219 279 336 405
#     4  10  23  43  66  93 144 176 222 289 348 399
#     4  10  26  42  66  98 144 172 234 276 354 404
#
# _framework density 23.099855999999999
#
# number of rings (size 3 to 8) (size 9 to 14) (size 15 to 20)
#    0.545    1.455    0.000    4.364    2.545    1.455 
#    3.273    2.727    2.000    0.000    0.000    0.000 
#    0.000    0.000    0.000    0.000    0.000    0.000 
#
# Total GULP energy -122634.483204 kJ/mol
# GULP energy per Si atom -5574.294691 kJ/mol
# Density = 2.304728 g / cm^3
# Si number density = 23.099856 Si / 1000 Ang^3
#
#
#
# Elastic Constant Matrix: (Units=GPa)
#
#
# Indices 1 2 3 4 5 6 
#
# 1 54.2569 30.8063 16.1729 0.0000 5.5386 0.0000
# 2 30.8063 173.6953 27.9579 0.0000 10.1442 0.0000
# 3 16.1729 27.9579 69.4758 0.0000 6.1842 0.0000
# 4 0.0000 0.0000 0.0000 40.4952 0.0000 9.1912
# 5 5.5386 10.1442 6.1842 0.0000 36.8486 0.0000
# 6 0.0000 0.0000 0.0000 9.1912 0.0000 32.7289
#
#
#
# Elastic Compliance Matrix: (Units=1/GPa)
#
#
# Indices 1 2 3 4 5 6 
#
# 1 0.021452 -0.003126 -0.003579 0.000000 -0.001763 0.000000
# 2 -0.003126 0.006673 -0.001864 0.000000 -0.001054 0.000000
# 3 -0.003579 -0.001864 0.016124 0.000000 -0.001655 0.000000
# 4 0.000000 0.000000 0.000000 0.026375 0.000000 -0.007407
# 5 -0.001763 -0.001054 -0.001655 0.000000 0.027971 0.000000
# 6 0.000000 0.000000 0.000000 -0.007407 0.000000 0.032634
#
#
# Mechanical properties :
#
#
# Convention : Reuss Voigt Hill
#
# Bulk Modulus (GPa) = 36.88355 49.70025 43.29190
# Shear Modulus (GPa) = 31.76519 36.84725 34.30622
#
# Velocity S-wave (km/s) = 3.71229 3.99824 3.85792
# Velocity P-wave (km/s) = 5.86315 6.54803 6.21503
#
# Compressibility (1/GPa) = 0.02711236
#
# Stress axis : x y z
#
# Youngs Moduli (GPa) = 46.61486 149.85385 62.01932
#
# Poissons Ratio (x) = 0.46840 0.22197
# Poissons Ratio (y) = 0.14570 0.11560
# Poissons Ratio (z) = 0.16684 0.27931
#
# Static dielectric constant tensor:
#      x y z
#    x 1.927090 0.000000 0.010660 
#    y 0.000000 1.978810 0.000000 
#    z 0.010660 0.000000 1.974370 
# 
# From -- ./inp_files/236792.got.cif
#   From: 2010.05.17/outbox.cif.g08.bks.cpg/sg15_119_cif.got.tgz:236792.got - 2010.06.03 18:47:42.
