data_PCOD9295515
_publ_section_title
;
Structure prediction by ZEFSAII (Michael W. Deem and Ramdas Pophale) SiO2 
 PCOD9295515
Probable space group: C 2/C
;
_chemical_formula_sum "Si O2"
_cell_formula_units_Z 48
_cell_length_a 28.414961
_cell_length_b 6.452800
_cell_length_c 12.765546
_cell_angle_alpha 90.000000
_cell_angle_beta 71.924920
_cell_angle_gamma 90.000000
_cell_volume 2225.131421
_symmetry_space_group_name_H-M "C 2/C"
_symmetry_group_IT_number 15
_symmetry_cell_setting 'monoclinic'
loop_
_space_group_symop_operation_xyz
x,y,z
-x,y,1/2-z
-x,-y,-z
x,-y,1/2+z
1/2+x,1/2+y,z
1/2-x,1/2+y,1/2-z
1/2-x,1/2-y,-z
1/2+x,1/2-y,1/2+z
loop_
_atom_site_type_symbol
_atom_site_label
_atom_site_fract_x
_atom_site_fract_y
_atom_site_fract_z
Si Si1 0.467299 0.695211 0.553361
Si Si2 0.805314 0.640571 0.071367
Si Si3 0.867980 0.978735 0.139890
Si Si4 0.192089 0.927218 0.635734
Si Si5 0.132782 0.734075 0.053818
Si Si6 0.535643 0.008789 0.634803
O O1 0.500000 0.500000 0.500000
O O2 0.418367 0.620573 0.646100
O O3 0.500639 0.845812 0.599183
O O4 0.450861 0.817171 0.459722
O O5 0.828691 0.798698 0.138706
O O6 0.749042 0.573265 0.132025
O O7 0.808684 0.765265 0.958962
O O8 0.836955 0.436581 0.031579
O O9 0.843009 0.126222 0.242673
O O10 0.882476 0.097602 0.023350
O O11 0.169322 0.143469 0.607345
O O12 0.085275 0.614151 0.133039
O O13 0.500000 0.095948 0.750000
#
# Coordination Sequence:
#
# PCOD9295515 Si02
#       6
#     8   8   8   8   8   8
#     4  11  23  43  61  94 131 161 216 261 305 387
#     4  10  23  43  62  94 129 156 218 259 306 388
#     4  11  23  41  65  94 128 169 207 260 320 370
#     4  10  24  41  65  93 124 169 205 260 319 371
#     4  11  22  42  64  92 129 160 213 262 310 381
#     4  11  24  41  66  93 124 171 209 260 320 369
#
# _framework density 21.571759
#
# number of rings (size 3 to 8) (size 9 to 14) (size 15 to 20)
#    0.000    1.333    3.333    1.500    2.333    3.333 
#    0.000    0.000    0.000    0.000    0.000    0.000 
#    0.000    0.000    0.000    0.000    0.000    0.000 
#
# Total GULP energy -134095.420898 kJ/mol
# GULP energy per Si atom -5587.309204 kJ/mol
# Density = 2.152266 g / cm^3
# Si number density = 21.571759 Si / 1000 Ang^3
#
#
#
# Elastic Constant Matrix: (Units=GPa)
#
#
# Indices 1 2 3 4 5 6 
#
# 1 93.3300 29.8494 22.3179 0.0000 -32.1303 0.0000
# 2 29.8494 50.4221 -11.7400 0.0000 -13.2984 0.0000
# 3 22.3179 -11.7400 66.0915 0.0000 -29.4242 0.0000
# 4 0.0000 0.0000 0.0000 20.2021 0.0000 -11.6024
# 5 -32.1303 -13.2984 -29.4242 0.0000 33.2474 0.0000
# 6 0.0000 0.0000 0.0000 -11.6024 0.0000 29.1743
#
#
#
# Elastic Compliance Matrix: (Units=1/GPa)
#
#
# Indices 1 2 3 4 5 6 
#
# 1 0.017985 -0.007703 -0.001774 0.000000 0.012729 0.000000
# 2 -0.007703 0.035244 0.019511 0.000000 0.023921 0.000000
# 3 -0.001774 0.019511 0.036150 0.000000 0.038083 0.000000
# 4 0.000000 0.000000 0.000000 0.064152 0.000000 0.025513
# 5 0.012729 0.023921 0.038083 0.000000 0.085651 0.000000
# 6 0.000000 0.000000 0.000000 0.025513 0.000000 0.044423
#
#
# Mechanical properties :
#
#
# Convention : Reuss Voigt Hill
#
# Bulk Modulus (GPa) = 9.13674 32.29980 20.71827
# Shear Modulus (GPa) = 16.66565 27.81921 22.24243
#
# Velocity S-wave (km/s) = 2.78253 3.59501 3.21454
# Velocity P-wave (km/s) = 3.81680 5.67784 4.83766
#
# Compressibility (1/GPa) = 0.10944823
#
# Stress axis : x y z
#
# Youngs Moduli (GPa) = 55.60295 28.37336 27.66241
#
# Poissons Ratio (x) = 0.21855 0.04908
# Poissons Ratio (y) = 0.42829 -0.53973
# Poissons Ratio (z) = 0.09865 -0.55360
#
# Static dielectric constant tensor:
#      x y z
#    x 1.804060 0.000000 0.015350 
#    y 0.000000 1.753840 0.000000 
#    z 0.015350 0.000000 1.806800 
# 
# From -- ./inp_files/179972.got.cif
#   From: 2010.05.17/outbox.cif.g08.bks.cpg/sg15_90_cif.got.tgz:179972.got - 2010.06.03 18:47:42.
