data_PCOD9295666
_publ_section_title
;
Structure prediction by ZEFSAII (Michael W. Deem and Ramdas Pophale) SiO2 
 PCOD9295666
Probable space group: C 2/C
;
_chemical_formula_sum "Si O2"
_cell_formula_units_Z 56
_cell_length_a 8.824495
_cell_length_b 15.101441
_cell_length_c 22.065750
_cell_angle_alpha 90.000000
_cell_angle_beta 115.950563
_cell_angle_gamma 90.000000
_cell_volume 2644.050209
_symmetry_space_group_name_H-M "C 2/C"
_symmetry_group_IT_number 15
_symmetry_cell_setting 'monoclinic'
loop_
_space_group_symop_operation_xyz
x,y,z
-x,y,1/2-z
-x,-y,-z
x,-y,1/2+z
1/2+x,1/2+y,z
1/2-x,1/2+y,1/2-z
1/2-x,1/2-y,-z
1/2+x,1/2-y,1/2+z
loop_
_atom_site_type_symbol
_atom_site_label
_atom_site_fract_x
_atom_site_fract_y
_atom_site_fract_z
Si Si1 0.582454 0.460438 0.454473
Si Si2 0.499830 0.380796 0.638559
Si Si3 0.409892 0.209925 0.565738
Si Si4 0.280310 0.349173 0.343574
Si Si5 0.621204 0.833275 0.990117
Si Si6 0.176881 0.521188 0.255005
Si Si7 0.184445 0.344291 0.657513
O O1 0.500000 0.500000 0.500000
O O2 0.601753 0.543368 0.413943
O O3 0.452819 0.391167 0.400751
O O4 0.758594 0.416185 0.499412
O O5 0.522469 0.295273 0.601786
O O6 0.671574 0.422905 0.689987
O O7 0.375635 0.349423 0.668499
O O8 0.250000 0.250000 0.500000
O O9 0.336824 0.166145 0.615618
O O10 0.531791 0.159259 0.540558
O O11 0.207519 0.420813 0.282950
O O12 0.314800 0.256082 0.315335
O O13 0.462496 0.833216 0.917454
O O14 0.750000 0.750000 0.000000
O O15 0.164074 0.560390 0.185584
O O16 0.000000 0.550000 0.250000
#
# Coordination Sequence:
#
# PCOD9295666 Si02
#       7
#     8   8   8   8   8   8   8
#     4  11  23  38  64 102 149 177 222 291 359 426
#     4  10  23  43  67  93 139 184 226 296 348 420
#     4  11  20  42  71 107 139 177 231 292 372 435
#     4  10  23  45  69  98 144 188 231 292 360 426
#     4  12  23  38  73 111 143 180 233 300 367 434
#     4  11  27  44  67  98 135 196 245 289 345 424
#     4  11  24  46  70 101 141 185 243 287 357 434
#
# _framework density 21.179627
#
# number of rings (size 3 to 8) (size 9 to 14) (size 15 to 20)
#    0.000    1.143    4.286    2.143    6.000    4.000 
#    0.000    2.857    0.000    0.000    0.000    0.000 
#    0.000    0.000    0.000    0.000    0.000    0.000 
#
# Total GULP energy -155991.866212 kJ/mol
# GULP energy per Si atom -5571.138079 kJ/mol
# Density = 2.113142 g / cm^3
# Si number density = 21.179627 Si / 1000 Ang^3
#
#
#
# Elastic Constant Matrix: (Units=GPa)
#
#
# Indices 1 2 3 4 5 6 
#
# 1 76.5844 24.5882 8.0736 0.0000 11.2111 0.0000
# 2 24.5882 95.5381 32.6944 0.0000 -3.0015 0.0000
# 3 8.0736 32.6944 47.1925 0.0000 8.0906 0.0000
# 4 0.0000 0.0000 0.0000 37.1928 0.0000 -1.1000
# 5 11.2111 -3.0015 8.0906 0.0000 31.8463 0.0000
# 6 0.0000 0.0000 0.0000 -1.1000 0.0000 14.6133
#
#
#
# Elastic Compliance Matrix: (Units=1/GPa)
#
#
# Indices 1 2 3 4 5 6 
#
# 1 0.015313 -0.004732 0.001735 0.000000 -0.006277 0.000000
# 2 -0.004732 0.015655 -0.011056 0.000000 0.005950 0.000000
# 3 0.001735 -0.011056 0.030149 0.000000 -0.009312 0.000000
# 4 0.000000 0.000000 0.000000 0.026947 0.000000 0.002028
# 5 -0.006277 0.005950 -0.009312 0.000000 0.036537 0.000000
# 6 0.000000 0.000000 0.000000 0.002028 0.000000 0.068584
#
#
# Mechanical properties :
#
#
# Convention : Reuss Voigt Hill
#
# Bulk Modulus (GPa) = 30.29371 38.89194 34.59282
# Shear Modulus (GPa) = 21.52428 26.99439 24.25934
#
# Velocity S-wave (km/s) = 3.19136 3.57395 3.38806
# Velocity P-wave (km/s) = 5.28337 5.95261 5.62795
#
# Compressibility (1/GPa) = 0.03301016
#
# Stress axis : x y z
#
# Youngs Moduli (GPa) = 65.30505 63.87565 33.16833
#
# Poissons Ratio (x) = 0.30225 -0.05753
# Poissons Ratio (y) = 0.30901 0.36672
# Poissons Ratio (z) = -0.11328 0.70624
#
# Static dielectric constant tensor:
#      x y z
#    x 1.767970 0.000000 -0.120640 
#    y 0.000000 1.686300 0.000000 
#    z -0.120640 0.000000 1.920970 
# 
# From -- ./inp_files/264833.got.cif
#   From: 2010.05.17/outbox.cif.g08.bks.cpg/sg15_133_cif.got.tgz:264833.got - 2010.06.03 18:47:42.
