data_PCOD9295825
_publ_section_title
;
Structure prediction by ZEFSAII (Michael W. Deem and Ramdas Pophale) SiO2 
 PCOD9295825
Probable space group: C 2/C
;
_chemical_formula_sum "Si O2"
_cell_formula_units_Z 36
_cell_length_a 10.880457
_cell_length_b 10.640549
_cell_length_c 12.245791
_cell_angle_alpha 90.000000
_cell_angle_beta 78.704021
_cell_angle_gamma 90.000000
_cell_volume 1390.280675
_symmetry_space_group_name_H-M "C 2/C"
_symmetry_group_IT_number 15
_symmetry_cell_setting 'monoclinic'
loop_
_space_group_symop_operation_xyz
x,y,z
-x,y,1/2-z
-x,-y,-z
x,-y,1/2+z
1/2+x,1/2+y,z
1/2-x,1/2+y,1/2-z
1/2-x,1/2-y,-z
1/2+x,1/2-y,1/2+z
loop_
_atom_site_type_symbol
_atom_site_label
_atom_site_fract_x
_atom_site_fract_y
_atom_site_fract_z
Si Si1 0.239103 0.299179 0.162366
Si Si2 0.971183 0.038636 0.632136
Si Si3 0.500000 0.926676 0.250000
Si Si4 0.296040 0.322340 0.389815
Si Si5 0.125666 0.446332 0.918441
O O1 0.326930 0.422150 0.151455
O O2 0.239480 0.262564 0.290684
O O3 0.313993 0.191734 0.084417
O O4 0.095999 0.339014 0.163927
O O5 0.000000 0.973745 0.750000
O O6 0.055717 0.163608 0.633787
O O7 0.000000 0.000000 0.500000
O O8 0.413482 0.019316 0.197146
O O9 0.250000 0.250000 0.500000
O O10 0.242009 0.461657 0.418344
O O11 0.000000 0.500000 0.000000
#
# Coordination Sequence:
#
# PCOD9295825 Si02
#       5
#     8   8   4   8   8
#     4  10  24  48  72 105 150 194 254 315 385 472
#     4  10  23  44  73 107 148 202 255 318 393 465
#     4  10  26  48  70 108 150 190 252 320 378 464
#     4  10  23  43  70 105 140 194 243 308 390 458
#     4  11  25  43  74 104 141 199 245 317 384 452
#
# _framework density 25.894051999999999
#
# number of rings (size 3 to 8) (size 9 to 14) (size 15 to 20)
#    0.000    1.778    0.000    1.333   10.889    4.444 
#   18.000    0.000    0.000    0.000    0.000    0.000 
#    0.000    0.000    0.000    0.000    0.000    0.000 
#
# Total GULP energy -100336.847481 kJ/mol
# GULP energy per Si atom -5574.269304 kJ/mol
# Density = 2.583512 g / cm^3
# Si number density = 25.894052 Si / 1000 Ang^3
#
#
#
# Elastic Constant Matrix: (Units=GPa)
#
#
# Indices 1 2 3 4 5 6 
#
# 1 150.0537 50.4880 36.7595 0.0000 -22.2735 0.0000
# 2 50.4880 79.1611 40.4123 0.0000 9.1037 0.0000
# 3 36.7595 40.4123 162.0130 0.0000 -5.7215 0.0000
# 4 0.0000 0.0000 0.0000 27.8112 0.0000 -3.0541
# 5 -22.2735 9.1037 -5.7215 0.0000 47.8898 0.0000
# 6 0.0000 0.0000 0.0000 -3.0541 0.0000 33.9791
#
#
#
# Elastic Compliance Matrix: (Units=1/GPa)
#
#
# Indices 1 2 3 4 5 6 
#
# 1 0.009915 -0.006825 -0.000340 0.000000 0.005868 0.000000
# 2 -0.006825 0.019678 -0.003619 0.000000 -0.007347 0.000000
# 3 -0.000340 -0.003619 0.007201 0.000000 0.001390 0.000000
# 4 0.000000 0.000000 0.000000 0.036315 0.000000 0.003264
# 5 0.005868 -0.007347 0.001390 0.000000 0.025173 0.000000
# 6 0.000000 0.000000 0.000000 0.003264 0.000000 0.029723
#
#
# Mechanical properties :
#
#
# Convention : Reuss Voigt Hill
#
# Bulk Modulus (GPa) = 65.67828 71.83858 68.75843
# Shear Modulus (GPa) = 32.33104 39.50723 35.91913
#
# Velocity S-wave (km/s) = 3.53737 3.91029 3.72850
# Velocity P-wave (km/s) = 6.48871 6.94195 6.71915
#
# Compressibility (1/GPa) = 0.01522573
#
# Stress axis : x y z
#
# Youngs Moduli (GPa) = 100.85729 50.81809 138.86180
#
# Poissons Ratio (x) = 0.34683 0.04721
# Poissons Ratio (y) = 0.68835 0.50260
# Poissons Ratio (z) = 0.03429 0.18393
#
# Static dielectric constant tensor:
#      x y z
#    x 2.056240 0.000000 -0.063110 
#    y 0.000000 1.991090 0.000000 
#    z -0.063110 0.000000 2.210690 
# 
# From -- ./inp_files/84346.got.cif
#   From: 2010.05.17/outbox.cif.g08.bks.cpg/sg15_43_cif.got.tgz:84346.got - 2010.06.03 18:47:42.
