data_PCOD9295081
_publ_section_title
;
Structure prediction by ZEFSAII (Michael W. Deem and Ramdas Pophale) SiO2 
 PCOD9295081
Probable space group: C 2/C
;
_chemical_formula_sum "Si O2"
_cell_formula_units_Z 44
_cell_length_a 11.752702
_cell_length_b 33.620970
_cell_length_c 5.420528
_cell_angle_alpha 90.000000
_cell_angle_beta 100.395159
_cell_angle_gamma 90.000000
_cell_volume 2106.697655
_symmetry_space_group_name_H-M "C 2/C"
_symmetry_group_IT_number 15
_symmetry_cell_setting 'monoclinic'
loop_
_space_group_symop_operation_xyz
x,y,z
-x,y,1/2-z
-x,-y,-z
x,-y,1/2+z
1/2+x,1/2+y,z
1/2-x,1/2+y,1/2-z
1/2-x,1/2-y,-z
1/2+x,1/2-y,1/2+z
loop_
_atom_site_type_symbol
_atom_site_label
_atom_site_fract_x
_atom_site_fract_y
_atom_site_fract_z
Si Si1 0.640353 0.305635 0.426525
Si Si2 0.500000 0.174547 0.750000
Si Si3 0.500000 0.474284 0.750000
Si Si4 0.711175 0.876870 0.166035
Si Si5 0.500000 0.656273 0.250000
Si Si6 0.832058 0.726333 0.346620
Si Si7 0.300474 0.408792 0.692405
O O1 0.689299 0.342386 0.286682
O O2 0.523255 0.316291 0.524262
O O3 0.746508 0.302383 0.665038
O O4 0.629021 0.261422 0.318409
O O5 0.408896 0.146858 0.858673
O O6 0.428761 0.202191 0.532058
O O7 0.500000 0.500000 0.500000
O O8 0.384178 0.447072 0.717156
O O9 0.725473 0.904062 0.415157
O O10 0.732071 0.901633 0.922211
O O11 0.608540 0.627378 0.285386
O O12 0.750000 0.750000 0.500000
#
# Coordination Sequence:
#
# PCOD9295081 Si02
#       7
#     8   4   4   8   4   8   8
#     4  10  23  43  57  80 121 163 225 293 360 404
#     4  12  24  43  67  84 120 180 240 294 360 398
#     4  11  22  42  77 116 148 178 198 236 322 404
#     4  11  23  43  62  89 129 173 230 281 330 391
#     4   9  20  39  60  82 114 172 200 258 344 400
#     4  11  24  45  51  84 116 161 234 306 352 410
#     4  10  23  42  64 102 138 163 211 259 309 404
#
# _framework density 20.885767999999999
#
# number of rings (size 3 to 8) (size 9 to 14) (size 15 to 20)
#    0.000    1.455    1.818    3.273    0.000    9.455 
#    6.545    0.000    0.000    0.000    0.000   12.727 
#    0.000    0.000    0.000    0.000    0.000    0.000 
#
# Total GULP energy -123009.200189 kJ/mol
# GULP energy per Si atom -5591.327281 kJ/mol
# Density = 2.083823 g / cm^3
# Si number density = 20.885768 Si / 1000 Ang^3
#
#
#
# Elastic Constant Matrix: (Units=GPa)
#
#
# Indices 1 2 3 4 5 6 
#
# 1 122.7757 49.4381 62.2273 0.0000 -15.3875 0.0000
# 2 49.4381 114.5530 69.1821 0.0000 -7.5162 0.0000
# 3 62.2273 69.1821 159.6944 0.0000 -6.7117 0.0000
# 4 0.0000 0.0000 0.0000 33.9137 0.0000 -0.4476
# 5 -15.3875 -7.5162 -6.7117 0.0000 44.6801 0.0000
# 6 0.0000 0.0000 0.0000 -0.4476 0.0000 46.7568
#
#
#
# Elastic Compliance Matrix: (Units=1/GPa)
#
#
# Indices 1 2 3 4 5 6 
#
# 1 0.011169 -0.002809 -0.003012 0.000000 0.002921 0.000000
# 2 -0.002809 0.012597 -0.004341 0.000000 0.000499 0.000000
# 3 -0.003012 -0.004341 0.009301 0.000000 -0.000371 0.000000
# 4 0.000000 0.000000 0.000000 0.029490 0.000000 0.000282
# 5 0.002921 0.000499 -0.000371 0.000000 0.023416 0.000000
# 6 0.000000 0.000000 0.000000 0.000282 0.000000 0.021390
#
#
# Mechanical properties :
#
#
# Convention : Reuss Voigt Hill
#
# Bulk Modulus (GPa) = 78.48962 84.30202 81.39582
# Shear Modulus (GPa) = 37.89718 39.48182 38.68950
#
# Velocity S-wave (km/s) = 4.26431 4.35255 4.30866
# Velocity P-wave (km/s) = 7.86815 8.10621 7.98807
#
# Compressibility (1/GPa) = 0.01274054
#
# Stress axis : x y z
#
# Youngs Moduli (GPa) = 89.53275 79.38596 107.51574
#
# Poissons Ratio (x) = 0.22302 0.32388
# Poissons Ratio (y) = 0.25153 0.46677
# Poissons Ratio (z) = 0.26971 0.34465
#
# Static dielectric constant tensor:
#      x y z
#    x 1.746580 0.000000 0.019850 
#    y 0.000000 1.743510 0.000000 
#    z 0.019850 0.000000 1.875130 
# 
# From -- ./inp_files/5892.got.cif
#   From: 2010.05.17/outbox.cif.g08.bks.cpg/sg15_3_cif.got.tgz:5892.got - 2010.06.03 18:47:42.
