data_PCOD9295880
_publ_section_title
;
Structure prediction by ZEFSAII (Michael W. Deem and Ramdas Pophale) SiO2 
 PCOD9295880
Probable space group: C 2/C
;
_chemical_formula_sum "Si O2"
_cell_formula_units_Z 56
_cell_length_a 9.019265
_cell_length_b 11.828413
_cell_length_c 24.152664
_cell_angle_alpha 90.000000
_cell_angle_beta 116.779783
_cell_angle_gamma 90.000000
_cell_volume 2300.329366
_symmetry_space_group_name_H-M "C 2/C"
_symmetry_group_IT_number 15
_symmetry_cell_setting 'monoclinic'
loop_
_space_group_symop_operation_xyz
x,y,z
-x,y,1/2-z
-x,-y,-z
x,-y,1/2+z
1/2+x,1/2+y,z
1/2-x,1/2+y,1/2-z
1/2-x,1/2-y,-z
1/2+x,1/2-y,1/2+z
loop_
_atom_site_type_symbol
_atom_site_label
_atom_site_fract_x
_atom_site_fract_y
_atom_site_fract_z
Si Si1 0.612725 0.586011 0.077650
Si Si2 0.500000 0.269416 0.250000
Si Si3 0.209915 0.977512 0.312396
Si Si4 0.491929 0.176169 0.966581
Si Si5 0.230831 0.970747 0.933257
Si Si6 0.302337 0.356060 0.782509
Si Si7 0.000000 0.672505 0.750000
Si Si8 0.406358 0.077472 0.626839
O O1 0.574636 0.698068 0.035818
O O2 0.435598 0.525432 0.058342
O O3 0.676793 0.626595 0.149084
O O4 0.760215 0.504921 0.082460
O O5 0.625217 0.354494 0.302365
O O6 0.383429 0.185369 0.263947
O O7 0.171336 0.048860 0.360322
O O8 0.156546 0.034154 0.246284
O O9 0.408832 0.973322 0.342606
O O10 0.341501 0.085704 0.949350
O O11 0.568912 0.171239 0.916956
O O12 0.642410 0.128063 0.028423
O O13 0.407181 0.252076 0.777246
O O14 0.120229 0.606170 0.812500
#
# Coordination Sequence:
#
# PCOD9295880 Si02
#       8
#     8   4   8   8   8   8   4   8
#     4  12  23  43  66  96 128 172 209 268 324 380
#     4  12  23  43  64  90 134 174 199 267 316 384
#     4  11  23  42  61  96 127 167 214 262 311 388
#     4  10  23  48  65  94 130 170 215 269 318 375
#     4  10  23  43  71  92 129 171 217 266 317 378
#     4  12  24  38  66  94 129 169 213 252 333 381
#     4  12  21  41  58  96 132 164 203 273 310 384
#     4  11  24  41  63  93 134 161 216 266 314 383
#
# _framework density 24.344341
#
# number of rings (size 3 to 8) (size 9 to 14) (size 15 to 20)
#    0.000    0.857    2.857    5.143    2.000    0.571 
#    0.000    7.857    0.000    0.000    0.000    0.000 
#    0.000    0.000    0.000    0.000    0.000    0.000 
#
# Total GULP energy -156568.065611 kJ/mol
# GULP energy per Si atom -5591.716629 kJ/mol
# Density = 2.428893 g / cm^3
# Si number density = 24.344341 Si / 1000 Ang^3
#
#
#
# Elastic Constant Matrix: (Units=GPa)
#
#
# Indices 1 2 3 4 5 6 
#
# 1 92.3201 35.2243 12.2261 0.0000 39.5590 0.0000
# 2 35.2243 83.0726 15.5073 0.0000 13.2097 0.0000
# 3 12.2261 15.5073 98.6954 0.0000 12.7126 0.0000
# 4 0.0000 0.0000 0.0000 29.7898 0.0000 -1.6748
# 5 39.5590 13.2097 12.7126 0.0000 37.7127 0.0000
# 6 0.0000 0.0000 0.0000 -1.6748 0.0000 38.3248
#
#
#
# Elastic Compliance Matrix: (Units=1/GPa)
#
#
# Indices 1 2 3 4 5 6 
#
# 1 0.022311 -0.006217 0.000990 0.000000 -0.021559 0.000000
# 2 -0.006217 0.014694 -0.001794 0.000000 0.001979 0.000000
# 3 0.000990 -0.001794 0.010814 0.000000 -0.004055 0.000000
# 4 0.000000 0.000000 0.000000 0.033651 0.000000 0.001471
# 5 -0.021559 0.001979 -0.004055 0.000000 0.049805 0.000000
# 6 0.000000 0.000000 0.000000 0.001471 0.000000 0.026157
#
#
# Mechanical properties :
#
#
# Convention : Reuss Voigt Hill
#
# Bulk Modulus (GPa) = 29.60524 44.44485 37.02504
# Shear Modulus (GPa) = 27.36250 35.24080 31.30165
#
# Velocity S-wave (km/s) = 3.35621 3.80886 3.58968
# Velocity P-wave (km/s) = 5.21597 6.13511 5.69412
#
# Compressibility (1/GPa) = 0.03377781
#
# Stress axis : x y z
#
# Youngs Moduli (GPa) = 44.82102 68.05581 92.47518
#
# Poissons Ratio (x) = 0.42309 -0.09155
# Poissons Ratio (y) = 0.27864 0.16585
# Poissons Ratio (z) = -0.04437 0.12206
#
# Static dielectric constant tensor:
#      x y z
#    x 1.986490 0.000000 0.033200 
#    y 0.000000 1.945080 0.000000 
#    z 0.033200 0.000000 2.064470 
# 
# From -- ./inp_files/287987.got.cif
#   From: 2010.05.17/outbox.cif.g08.bks.cpg/sg15_144_cif.got.tgz:287987.got - 2010.06.03 18:47:42.
