data_PCOD9295538
_publ_section_title
;
Structure prediction by ZEFSAII (Michael W. Deem and Ramdas Pophale) SiO2 
 PCOD9295538
Probable space group: C 2/C
;
_chemical_formula_sum "Si O2"
_cell_formula_units_Z 56
_cell_length_a 13.200639
_cell_length_b 26.172716
_cell_length_c 8.568124
_cell_angle_alpha 90.000000
_cell_angle_beta 74.207020
_cell_angle_gamma 90.000000
_cell_volume 2848.511767
_symmetry_space_group_name_H-M "C 2/C"
_symmetry_group_IT_number 15
_symmetry_cell_setting 'monoclinic'
loop_
_space_group_symop_operation_xyz
x,y,z
-x,y,1/2-z
-x,-y,-z
x,-y,1/2+z
1/2+x,1/2+y,z
1/2-x,1/2+y,1/2-z
1/2-x,1/2-y,-z
1/2+x,1/2-y,1/2+z
loop_
_atom_site_type_symbol
_atom_site_label
_atom_site_fract_x
_atom_site_fract_y
_atom_site_fract_z
Si Si1 0.105921 0.157016 0.247481
Si Si2 0.120470 0.351703 0.174900
Si Si3 0.596649 0.384896 0.086572
Si Si4 0.122502 0.012047 0.719642
Si Si5 0.801988 0.072575 0.508696
Si Si6 0.193129 0.281269 0.889365
Si Si7 0.767292 0.791987 0.356733
O O1 0.077806 0.125346 0.413232
O O2 0.210250 0.189457 0.233722
O O3 0.000000 0.187964 0.250000
O O4 0.135663 0.120774 0.089643
O O5 0.196977 0.400720 0.120298
O O6 0.170731 0.314030 0.288472
O O7 0.000000 0.365959 0.250000
O O8 0.122126 0.321105 0.009247
O O9 0.500000 0.380795 0.250000
O O10 0.637823 0.441976 0.090832
O O11 0.679837 0.342677 0.102251
O O12 0.142613 0.039992 0.876810
O O13 0.000000 0.995020 0.750000
O O14 0.199821 0.966520 0.636974
O O15 0.151600 0.238312 0.791344
O O16 0.250000 0.250000 0.000000
O O17 0.750000 0.750000 0.500000
#
# Coordination Sequence:
#
# PCOD9295538 Si02
#       7
#     8   8   8   8   8   8   8
#     4  11  21  35  57  87 121 158 196 245 312 379
#     4  10  23  43  64  87 127 170 214 254 306 367
#     4  11  23  36  59  92 127 154 198 256 319 375
#     4  11  21  37  62  94 126 159 197 259 326 379
#     4  11  22  40  63  91 125 161 209 253 312 384
#     4   9  21  35  58  80 115 160 205 242 297 359
#     4  11  21  41  61  90 125 159 209 263 304 361
#
# _framework density 19.659389000000001
#
# number of rings (size 3 to 8) (size 9 to 14) (size 15 to 20)
#    0.000    1.429    2.857    3.429    4.000    3.429 
#    0.000    0.714    0.000    0.000    0.000    0.000 
#    0.000    0.000    0.000    0.000    0.000    0.000 
#
# Total GULP energy -155931.141200 kJ/mol
# GULP energy per Si atom -5568.969329 kJ/mol
# Density = 1.961464 g / cm^3
# Si number density = 19.659389 Si / 1000 Ang^3
#
#
#
# Elastic Constant Matrix: (Units=GPa)
#
#
# Indices 1 2 3 4 5 6 
#
# 1 77.6816 32.4141 39.9445 0.0000 -13.8744 0.0000
# 2 32.4141 86.3302 22.2670 0.0000 -14.6124 0.0000
# 3 39.9445 22.2670 90.8173 0.0000 -10.0736 0.0000
# 4 0.0000 0.0000 0.0000 41.4500 0.0000 6.8591
# 5 -13.8744 -14.6124 -10.0736 0.0000 24.0360 0.0000
# 6 0.0000 0.0000 0.0000 6.8591 0.0000 10.8447
#
#
#
# Elastic Compliance Matrix: (Units=1/GPa)
#
#
# Indices 1 2 3 4 5 6 
#
# 1 0.019212 -0.004547 -0.006724 0.000000 0.005507 0.000000
# 2 -0.004547 0.014510 -0.000913 0.000000 0.005814 0.000000
# 3 -0.006724 -0.000913 0.014368 0.000000 0.001585 0.000000
# 4 0.000000 0.000000 0.000000 0.026946 0.000000 -0.017043
# 5 0.005507 0.005814 0.001585 0.000000 0.048982 0.000000
# 6 0.000000 0.000000 0.000000 -0.017043 0.000000 0.102990
#
#
# Mechanical properties :
#
#
# Convention : Reuss Voigt Hill
#
# Bulk Modulus (GPa) = 42.15454 49.34226 45.74840
# Shear Modulus (GPa) = 19.28392 25.94636 22.61514
#
# Velocity S-wave (km/s) = 3.13533 3.63684 3.39536
# Velocity P-wave (km/s) = 5.88184 6.54129 6.22031
#
# Compressibility (1/GPa) = 0.02372224
#
# Stress axis : x y z
#
# Youngs Moduli (GPa) = 52.05202 68.91712 69.59740
#
# Poissons Ratio (x) = 0.31335 0.46799
# Poissons Ratio (y) = 0.23667 0.06354
# Poissons Ratio (z) = 0.35001 0.06292
#
# Static dielectric constant tensor:
#      x y z
#    x 1.683210 0.000000 0.024060 
#    y 0.000000 1.584760 0.000000 
#    z 0.024060 0.000000 1.763460 
# 
# From -- ./inp_files/34182.got.cif
#   From: 2010.05.17/outbox.cif.g08.bks.cpg/sg15_18_cif.got.tgz:34182.got - 2010.06.03 18:47:42.
