data_PCOD9295878
_publ_section_title
;
Structure prediction by ZEFSAII (Michael W. Deem and Ramdas Pophale) SiO2 
 PCOD9295878
Probable space group: C 2/C
;
_chemical_formula_sum "Si O2"
_cell_formula_units_Z 56
_cell_length_a 9.345660
_cell_length_b 17.028296
_cell_length_c 27.047052
_cell_angle_alpha 90.000000
_cell_angle_beta 147.490571
_cell_angle_gamma 90.000000
_cell_volume 2313.288474
_symmetry_space_group_name_H-M "C 2/C"
_symmetry_group_IT_number 15
_symmetry_cell_setting 'monoclinic'
loop_
_space_group_symop_operation_xyz
x,y,z
-x,y,1/2-z
-x,-y,-z
x,-y,1/2+z
1/2+x,1/2+y,z
1/2-x,1/2+y,1/2-z
1/2-x,1/2-y,-z
1/2+x,1/2-y,1/2+z
loop_
_atom_site_type_symbol
_atom_site_label
_atom_site_fract_x
_atom_site_fract_y
_atom_site_fract_z
Si Si1 0.005956 0.149642 0.577888
Si Si2 0.436925 0.494353 0.787080
Si Si3 0.114065 0.412077 0.039041
Si Si4 0.072499 0.161049 0.394616
Si Si5 0.279791 0.341512 0.912081
Si Si6 0.622691 0.003730 0.838159
Si Si7 0.706100 0.273970 0.769917
O O1 0.191079 0.075633 0.620534
O O2 0.167002 0.201225 0.664034
O O3 0.727833 0.121417 0.520925
O O4 0.929540 0.189927 0.503999
O O5 0.500000 0.470573 0.750000
O O6 0.623880 0.568866 0.853264
O O7 0.486769 0.420099 0.839305
O O8 0.134835 0.522039 0.704625
O O9 0.000000 0.500000 0.000000
O O10 0.885281 0.355876 0.993126
O O11 0.920533 0.176053 0.401376
O O12 0.983605 0.231656 0.332911
O O13 0.281689 0.436019 0.912171
O O14 0.969524 0.318908 0.827330
O O15 0.500000 0.973991 0.750000
O O16 0.500000 0.308925 0.750000
#
# Coordination Sequence:
#
# PCOD9295878 Si02
#       7
#     8   8   8   8   8   8   8
#     4  12  27  45  72 110 154 198 252 322 397 467
#     4  11  23  38  72 113 154 196 253 325 400 455
#     4  10  23  43  71 111 151 190 253 325 391 456
#     4  11  23  46  73 106 145 200 258 319 384 472
#     4  12  25  45  77 107 142 196 266 320 381 465
#     4  12  21  42  72 109 150 195 251 322 393 456
#     4  12  26  48  74 100 146 208 256 304 387 478
#
# _framework density 24.207961000000001
#
# number of rings (size 3 to 8) (size 9 to 14) (size 15 to 20)
#    0.000    0.571    4.286    3.857    6.000    0.000 
#    0.000    5.714    0.000    0.000    0.000    0.000 
#    0.000    0.000    0.000    0.000    0.000    0.000 
#
# Total GULP energy -156546.730223 kJ/mol
# GULP energy per Si atom -5590.954651 kJ/mol
# Density = 2.415286 g / cm^3
# Si number density = 24.207961 Si / 1000 Ang^3
#
#
#
# Elastic Constant Matrix: (Units=GPa)
#
#
# Indices 1 2 3 4 5 6 
#
# 1 212.0453 45.6783 59.4329 -0.0003 26.8557 -0.0002
# 2 45.6783 76.1491 35.2760 0.0001 5.3573 -0.0005
# 3 59.4329 35.2760 83.3783 -0.0001 4.5851 -0.0008
# 4 -0.0003 0.0001 -0.0001 55.1708 -0.0005 16.0719
# 5 26.8557 5.3573 4.5851 -0.0005 43.5279 -0.0005
# 6 -0.0002 -0.0005 -0.0008 16.0719 -0.0005 56.2742
#
#
#
# Elastic Compliance Matrix: (Units=1/GPa)
#
#
# Indices 1 2 3 4 5 6 
#
# 1 0.006618 -0.002027 -0.003670 0.000000 -0.003447 0.000000
# 2 -0.002027 0.017027 -0.005746 0.000000 -0.000240 0.000000
# 3 -0.003670 -0.005746 0.016975 0.000000 0.001183 0.000000
# 4 0.000000 0.000000 0.000000 0.019770 0.000000 -0.005646
# 5 -0.003447 -0.000240 0.001183 0.000000 0.025005 0.000000
# 6 0.000000 0.000000 0.000000 -0.005646 0.000000 0.019383
#
#
# Mechanical properties :
#
#
# Convention : Reuss Voigt Hill
#
# Bulk Modulus (GPa) = 56.38777 72.48302 64.43539
# Shear Modulus (GPa) = 37.43207 46.40695 41.91951
#
# Velocity S-wave (km/s) = 3.93653 4.38312 4.16581
# Velocity P-wave (km/s) = 6.63365 7.45805 7.05790
#
# Compressibility (1/GPa) = 0.01773434
#
# Stress axis : x y z
#
# Youngs Moduli (GPa) = 151.10594 58.73166 58.90882
#
# Poissons Ratio (x) = 0.11905 0.21620
# Poissons Ratio (y) = 0.30630 0.33846
# Poissons Ratio (z) = 0.55457 0.33745
#
# Static dielectric constant tensor:
#      x y z
#    x 1.930420 0.000000 0.005580 
#    y 0.000000 1.986380 0.000000 
#    z 0.005580 0.000000 1.957500 
# 
# From -- ./inp_files/309027.got.cif
#   From: 2010.05.17/outbox.cif.g08.bks.cpg/sg15_155_cif.got.tgz:309027.got - 2010.06.03 18:47:42.
