data_PCOD9295747
_publ_section_title
;
Structure prediction by ZEFSAII (Michael W. Deem and Ramdas Pophale) SiO2 
 PCOD9295747
Probable space group: C 2/C
;
_chemical_formula_sum "Si O2"
_cell_formula_units_Z 52
_cell_length_a 14.854034
_cell_length_b 5.623985
_cell_length_c 29.184350
_cell_angle_alpha 90.000000
_cell_angle_beta 59.546080
_cell_angle_gamma 90.000000
_cell_volume 2101.670042
_symmetry_space_group_name_H-M "C 2/C"
_symmetry_group_IT_number 15
_symmetry_cell_setting 'monoclinic'
loop_
_space_group_symop_operation_xyz
x,y,z
-x,y,1/2-z
-x,-y,-z
x,-y,1/2+z
1/2+x,1/2+y,z
1/2-x,1/2+y,1/2-z
1/2-x,1/2-y,-z
1/2+x,1/2-y,1/2+z
loop_
_atom_site_type_symbol
_atom_site_label
_atom_site_fract_x
_atom_site_fract_y
_atom_site_fract_z
Si Si1 0.083396 0.385332 0.444723
Si Si2 0.500000 0.182791 0.250000
Si Si3 0.184981 0.111187 0.767317
Si Si4 0.071488 0.408016 0.145386
Si Si5 0.229059 0.938715 0.965737
Si Si6 0.430388 0.419551 0.926889
Si Si7 0.580039 0.198745 0.373974
O O1 0.153025 0.192374 0.450478
O O2 0.142912 0.585831 0.399789
O O3 0.000000 0.500000 0.500000
O O4 0.016508 0.255817 0.423747
O O5 0.410507 0.337029 0.244966
O O6 0.564814 0.007913 0.198449
O O7 0.256124 0.355628 0.752669
O O8 0.138871 0.102348 0.830549
O O9 0.169658 0.499809 0.089902
O O10 0.079817 0.134751 0.124896
O O11 0.964065 0.520522 0.153156
O O12 0.250000 0.750000 0.000000
O O13 0.162433 0.125147 0.013004
O O14 0.477075 0.679843 0.921530
#
# Coordination Sequence:
#
# PCOD9295747 Si02
#       7
#     8   4   8   8   8   8   8
#     4  11  23  40  65  97 137 181 229 287 363 443
#     4  10  26  52  74 110 150 202 254 324 386 452
#     4  11  28  51  79 112 152 201 265 320 384 464
#     4  10  23  43  68  98 139 181 237 301 367 444
#     4  12  22  40  64  99 135 174 235 286 361 440
#     4  11  22  43  68  95 139 184 227 295 371 438
#     4  10  23  44  69  95 140 184 230 305 369 439
#
# _framework density 24.742229999999999
#
# number of rings (size 3 to 8) (size 9 to 14) (size 15 to 20)
#    0.000    1.231    3.077    1.846    8.615    0.615 
#    5.538    0.000    0.000    0.000    0.000    0.000 
#    0.000    0.000    0.000    0.000    0.000    0.000 
#
# Total GULP energy -144818.809628 kJ/mol
# GULP energy per Si atom -5569.954216 kJ/mol
# Density = 2.468592 g / cm^3
# Si number density = 24.742230 Si / 1000 Ang^3
#
#
#
# Elastic Constant Matrix: (Units=GPa)
#
#
# Indices 1 2 3 4 5 6 
#
# 1 59.4607 21.5343 6.2516 0.0031 -7.0448 0.0014
# 2 21.5343 62.1576 15.5780 0.0049 -2.9474 0.0029
# 3 6.2516 15.5780 121.8220 0.0025 -15.1215 0.0008
# 4 0.0031 0.0049 0.0025 38.6330 0.0008 -3.8950
# 5 -7.0448 -2.9474 -15.1215 0.0008 33.6463 0.0004
# 6 0.0014 0.0029 0.0008 -3.8950 0.0004 32.4294
#
#
#
# Elastic Compliance Matrix: (Units=1/GPa)
#
#
# Indices 1 2 3 4 5 6 
#
# 1 0.019650 -0.006710 0.000304 -0.000001 0.003663 0.000000
# 2 -0.006710 0.018921 -0.002165 -0.000002 -0.000720 -0.000002
# 3 0.000304 -0.002165 0.008954 0.000000 0.003898 0.000000
# 4 -0.000001 -0.000002 0.000000 0.026202 -0.000001 0.003147
# 5 0.003663 -0.000720 0.003898 -0.000001 0.032177 -0.000001
# 6 0.000000 -0.000002 0.000000 0.003147 -0.000001 0.031214
#
#
# Mechanical properties :
#
#
# Convention : Reuss Voigt Hill
#
# Bulk Modulus (GPa) = 32.91198 36.68532 34.79865
# Shear Modulus (GPa) = 30.41603 34.28016 32.34810
#
# Velocity S-wave (km/s) = 3.50996 3.72626 3.61973
# Velocity P-wave (km/s) = 5.45502 5.77690 5.61827
#
# Compressibility (1/GPa) = 0.03038407
#
# Stress axis : x y z
#
# Youngs Moduli (GPa) = 50.89043 52.85065 111.68509
#
# Poissons Ratio (x) = 0.35464 -0.03400
# Poissons Ratio (y) = 0.34149 0.24175
# Poissons Ratio (z) = -0.01549 0.11440
#
# Static dielectric constant tensor:
#      x y z
#    x 2.098180 -0.000040 -0.139140 
#    y -0.000040 1.862930 0.000050 
#    z -0.139140 0.000050 1.841390 
# 
# From -- ./inp_files/297660.got.cif
#   From: 2010.05.17/outbox.cif.g08.bks.cpg/sg15_149_cif.got.tgz:297660.got - 2010.06.03 18:47:42.
