data_PCOD9295366
_publ_section_title
;
Structure prediction by ZEFSAII (Michael W. Deem and Ramdas Pophale) SiO2 
 PCOD9295366
Probable space group: C 2/C
;
_chemical_formula_sum "Si O2"
_cell_formula_units_Z 60
_cell_length_a 12.789475
_cell_length_b 17.224955
_cell_length_c 26.346406
_cell_angle_alpha 90.000000
_cell_angle_beta 150.888238
_cell_angle_gamma 90.000000
_cell_volume 2823.762710
_symmetry_space_group_name_H-M "C 2/C"
_symmetry_group_IT_number 15
_symmetry_cell_setting 'monoclinic'
loop_
_space_group_symop_operation_xyz
x,y,z
-x,y,1/2-z
-x,-y,-z
x,-y,1/2+z
1/2+x,1/2+y,z
1/2-x,1/2+y,1/2-z
1/2-x,1/2-y,-z
1/2+x,1/2-y,1/2+z
loop_
_atom_site_type_symbol
_atom_site_label
_atom_site_fract_x
_atom_site_fract_y
_atom_site_fract_z
Si Si1 0.473467 0.755977 0.980033
Si Si2 0.822606 0.005854 0.469439
Si Si3 0.667828 0.271797 0.194937
Si Si4 0.407097 0.149425 0.652832
Si Si5 0.947377 0.418906 0.951089
Si Si6 0.500000 0.483454 0.750000
Si Si7 0.902108 0.927575 0.104354
Si Si8 0.408252 0.164291 0.156636
O O1 0.390097 0.755540 0.886426
O O2 0.314379 0.697213 0.940110
O O3 0.453425 0.844217 0.990024
O O4 0.715641 0.726145 0.082438
O O5 0.934279 0.012242 0.571882
O O6 0.700205 0.087279 0.411185
O O7 0.655602 0.934969 0.394758
O O8 0.000000 0.000000 0.500000
O O9 0.530517 0.349369 0.147766
O O10 0.590426 0.205080 0.200057
O O11 0.913076 0.300944 0.300190
O O12 0.500000 0.140592 0.750000
O O13 0.708846 0.430494 0.829224
O O14 0.000000 0.500000 0.000000
O O15 0.148612 0.407920 0.999480
O O16 0.533854 0.536021 0.814326
O O17 0.500000 0.143695 0.250000
#
# Coordination Sequence:
#
# PCOD9295366 Si02
#       8
#     8   8   8   8   8   4   8   8
#     4  11  21  46  68  94 140 181 228 294 352 416
#     4  12  23  46  69 102 145 185 229 290 357 417
#     4  11  23  43  68 100 128 188 230 286 355 417
#     4  10  23  42  70 100 137 180 233 288 351 420
#     4  10  23  43  67 100 135 181 236 292 349 419
#     4  10  26  44  68 104 134 180 238 294 346 418
#     4  11  23  43  72  98 140 182 232 291 353 418
#     4  12  25  42  69  99 140 185 237 284 348 431
#
# _framework density 21.248244
#
# number of rings (size 3 to 8) (size 9 to 14) (size 15 to 20)
#    0.000    1.067    4.000    2.400    5.600    0.000 
#    4.800    0.667    0.000    0.000    0.000    0.000 
#    0.000    0.000    0.000    0.000    0.000    0.000 
#
# Total GULP energy -167677.527735 kJ/mol
# GULP energy per Si atom -5589.250925 kJ/mol
# Density = 2.119988 g / cm^3
# Si number density = 21.248244 Si / 1000 Ang^3
#
#
#
# Elastic Constant Matrix: (Units=GPa)
#
#
# Indices 1 2 3 4 5 6 
#
# 1 88.5772 21.7387 35.7338 0.0006 4.8048 -0.0002
# 2 21.7387 119.9652 14.7221 0.0017 -3.1454 -0.0006
# 3 35.7338 14.7221 62.0100 0.0044 3.0671 -0.0018
# 4 0.0006 0.0017 0.0044 29.7872 0.0002 10.2338
# 5 4.8048 -3.1454 3.0671 0.0002 36.6801 -0.0002
# 6 -0.0002 -0.0006 -0.0018 10.2338 -0.0002 27.7744
#
#
#
# Elastic Compliance Matrix: (Units=1/GPa)
#
#
# Indices 1 2 3 4 5 6 
#
# 1 0.015118 -0.001769 -0.008221 0.000001 -0.001445 -0.000001
# 2 -0.001769 0.008823 -0.001129 0.000000 0.001083 0.000000
# 3 -0.008221 -0.001129 0.021171 -0.000004 -0.000790 0.000003
# 4 0.000001 0.000000 -0.000004 0.038437 0.000000 -0.014163
# 5 -0.001445 0.001083 -0.000790 0.000000 0.027611 0.000000
# 6 -0.000001 0.000000 0.000003 -0.014163 0.000000 0.041223
#
#
# Mechanical properties :
#
#
# Convention : Reuss Voigt Hill
#
# Bulk Modulus (GPa) = 43.71494 46.10461 44.90978
# Shear Modulus (GPa) = 27.43550 32.07220 29.75385
#
# Velocity S-wave (km/s) = 3.59721 3.88932 3.74611
# Velocity P-wave (km/s) = 6.15397 6.47412 6.31607
#
# Compressibility (1/GPa) = 0.02287547
#
# Stress axis : x y z
#
# Youngs Moduli (GPa) = 66.14442 113.33765 47.23466
#
# Poissons Ratio (x) = 0.20045 0.38831
# Poissons Ratio (y) = 0.11698 0.05333
# Poissons Ratio (z) = 0.54376 0.12797
#
# Static dielectric constant tensor:
#      x y z
#    x 1.771390 0.000000 0.024810 
#    y 0.000000 1.856330 -0.000010 
#    z 0.024810 -0.000010 1.721630 
# 
# From -- ./inp_files/293568.got.cif
#   From: 2010.05.17/outbox.cif.g08.bks.cpg/sg15_147_cif.got.tgz:293568.got - 2010.06.03 18:47:42.
