data_PCOD9295623
_publ_section_title
;
Structure prediction by ZEFSAII (Michael W. Deem and Ramdas Pophale) SiO2 
 PCOD9295623
Probable space group: C 2/C
;
_chemical_formula_sum "Si O2"
_cell_formula_units_Z 56
_cell_length_a 18.769510
_cell_length_b 7.924890
_cell_length_c 17.706676
_cell_angle_alpha 90.000000
_cell_angle_beta 118.591640
_cell_angle_gamma 90.000000
_cell_volume 2312.617759
_symmetry_space_group_name_H-M "C 2/C"
_symmetry_group_IT_number 15
_symmetry_cell_setting 'monoclinic'
loop_
_space_group_symop_operation_xyz
x,y,z
-x,y,1/2-z
-x,-y,-z
x,-y,1/2+z
1/2+x,1/2+y,z
1/2-x,1/2+y,1/2-z
1/2-x,1/2-y,-z
1/2+x,1/2-y,1/2+z
loop_
_atom_site_type_symbol
_atom_site_label
_atom_site_fract_x
_atom_site_fract_y
_atom_site_fract_z
Si Si1 0.125144 0.576398 0.642096
Si Si2 0.330867 0.914312 0.984825
Si Si3 0.276021 0.758463 0.741686
Si Si4 0.377194 0.397065 0.406455
Si Si5 0.028951 0.309242 0.351167
Si Si6 0.955368 0.928278 0.076171
Si Si7 0.194123 0.152360 0.912727
O O1 0.129543 0.548728 0.554000
O O2 0.179125 0.735928 0.696078
O O3 0.173613 0.414508 0.699770
O O4 0.036299 0.594257 0.630022
O O5 0.343948 0.738035 0.949357
O O6 0.236507 0.966872 0.939034
O O7 0.383204 0.894113 0.087367
O O8 0.310386 0.601242 0.808506
O O9 0.297439 0.726818 0.665781
O O10 0.460512 0.346686 0.406243
O O11 0.403629 0.551047 0.472641
O O12 0.000000 0.314452 0.250000
O O13 0.028218 0.115894 0.381572
O O14 0.897976 0.841573 0.107380
O O15 0.250000 0.250000 0.000000
#
# Coordination Sequence:
#
# PCOD9295623 Si02
#       7
#     8   8   8   8   8   8   8
#     4  10  23  43  66  96 130 173 229 265 334 397
#     4   9  22  46  64  93 132 179 221 273 332 400
#     4  10  24  40  69  94 129 175 221 275 321 407
#     4   9  21  42  69  92 128 180 221 269 324 407
#     4  11  25  38  68  96 134 170 220 280 334 405
#     4  10  24  42  65  99 132 175 222 274 342 391
#     4  11  26  41  66  99 139 174 220 283 343 391
#
# _framework density 24.214981999999999
#
# number of rings (size 3 to 8) (size 9 to 14) (size 15 to 20)
#    0.000    2.000    0.000    0.429    8.000   12.571 
#    0.000    0.000    0.000    0.000    0.000    0.000 
#    0.000    0.000    0.000    0.000    0.000    0.000 
#
# Total GULP energy -156498.512132 kJ/mol
# GULP energy per Si atom -5589.232576 kJ/mol
# Density = 2.415987 g / cm^3
# Si number density = 24.214982 Si / 1000 Ang^3
#
#
#
# Elastic Constant Matrix: (Units=GPa)
#
#
# Indices 1 2 3 4 5 6 
#
# 1 63.6009 -11.2658 -8.8458 0.0000 -7.7765 0.0000
# 2 -11.2658 66.2757 6.4058 0.0000 10.4412 0.0000
# 3 -8.8458 6.4058 145.1256 0.0000 -8.5295 0.0000
# 4 0.0000 0.0000 0.0000 23.1197 0.0000 9.7855
# 5 -7.7765 10.4412 -8.5295 0.0000 25.4007 0.0000
# 6 0.0000 0.0000 0.0000 9.7855 0.0000 35.0407
#
#
#
# Elastic Compliance Matrix: (Units=1/GPa)
#
#
# Indices 1 2 3 4 5 6 
#
# 1 0.016825 0.001996 0.001216 0.000000 0.004739 0.000000
# 2 0.001996 0.016552 -0.000992 0.000000 -0.006526 0.000000
# 3 0.001216 -0.000992 0.007196 0.000000 0.003197 0.000000
# 4 0.000000 0.000000 0.000000 0.049051 0.000000 -0.013698
# 5 0.004739 -0.006526 0.003197 0.000000 0.044576 0.000000
# 6 0.000000 0.000000 0.000000 -0.013698 0.000000 0.032364
#
#
# Mechanical properties :
#
#
# Convention : Reuss Voigt Hill
#
# Bulk Modulus (GPa) = 22.21627 27.51008 24.86317
# Shear Modulus (GPa) = 28.22803 35.95941 32.09372
#
# Velocity S-wave (km/s) = 3.41798 3.85776 3.64451
# Velocity P-wave (km/s) = 4.97707 5.58825 5.29149
#
# Compressibility (1/GPa) = 0.04501206
#
# Stress axis : x y z
#
# Youngs Moduli (GPa) = 59.43487 60.41642 138.95857
#
# Poissons Ratio (x) = -0.12058 -0.16897
# Poissons Ratio (y) = -0.11863 0.13791
# Poissons Ratio (z) = -0.07227 0.05996
#
# Static dielectric constant tensor:
#      x y z
#    x 1.905200 0.000000 0.022000 
#    y 0.000000 2.105790 0.000000 
#    z 0.022000 0.000000 1.901990 
# 
# From -- ./inp_files/214022.got.cif
#   From: 2010.05.17/outbox.cif.g08.bks.cpg/sg15_108_cif.got.tgz:214022.got - 2010.06.03 18:47:42.
