data_PCOD9295453
_publ_section_title
;
Structure prediction by ZEFSAII (Michael W. Deem and Ramdas Pophale) SiO2 
 PCOD9295453
Probable space group: C 2/C
;
_chemical_formula_sum "Si O2"
_cell_formula_units_Z 64
_cell_length_a 25.977051
_cell_length_b 9.225660
_cell_length_c 19.574560
_cell_angle_alpha 90.000000
_cell_angle_beta 146.533333
_cell_angle_gamma 90.000000
_cell_volume 2586.942819
_symmetry_space_group_name_H-M "C 2/C"
_symmetry_group_IT_number 15
_symmetry_cell_setting 'monoclinic'
loop_
_space_group_symop_operation_xyz
x,y,z
-x,y,1/2-z
-x,-y,-z
x,-y,1/2+z
1/2+x,1/2+y,z
1/2-x,1/2+y,1/2-z
1/2-x,1/2-y,-z
1/2+x,1/2-y,1/2+z
loop_
_atom_site_type_symbol
_atom_site_label
_atom_site_fract_x
_atom_site_fract_y
_atom_site_fract_z
Si Si1 0.796712 0.105415 0.582761
Si Si2 0.128142 0.947749 0.949669
Si Si3 0.007740 0.608627 0.337498
Si Si4 0.832248 0.377987 0.997762
Si Si5 0.798338 0.758831 0.765189
Si Si6 0.956502 0.887954 0.027577
Si Si7 0.150717 0.186985 0.704019
Si Si8 0.160362 0.504143 0.265041
O O1 0.750000 0.250000 0.500000
O O2 0.822241 0.144920 0.688666
O O3 0.879578 0.048176 0.625955
O O4 0.728841 0.966948 0.515425
O O5 0.058347 0.983909 0.934296
O O6 0.129806 0.777382 0.935257
O O7 0.232150 0.992063 0.092319
O O8 0.909654 0.542076 0.252042
O O9 0.000000 0.649574 0.250000
O O10 0.085567 0.485702 0.431810
O O11 0.032444 0.744790 0.411944
O O12 0.765797 0.340950 0.860183
O O13 0.731676 0.660584 0.739354
O O14 0.863166 0.647633 0.795574
O O15 0.863334 0.860679 0.881599
O O16 0.049166 0.882393 0.083532
O O17 0.146157 0.362005 0.698091
#
# Coordination Sequence:
#
# PCOD9295453 Si02
#       8
#     8   8   8   8   8   8   8   8
#     4  12  23  44  79 103 143 196 253 300 376 446
#     4  11  23  47  67 107 152 186 244 306 387 446
#     4  11  25  45  74 112 144 190 265 308 378 451
#     4  11  27  44  73 107 149 200 233 319 378 448
#     4  11  25  47  71 105 158 192 263 293 393 447
#     4  11  26  44  79 108 148 204 245 322 362 452
#     4  11  25  42  74 110 138 201 253 311 367 441
#     4  10  23  42  72 103 142 196 239 318 361 452
#
# _framework density 24.739628
#
# number of rings (size 3 to 8) (size 9 to 14) (size 15 to 20)
#    0.000    1.000    2.500    2.625   10.500    2.000 
#    6.750    3.125    0.000    0.000    0.000    0.000 
#    0.000    0.000    0.000    0.000    0.000    0.000 
#
# Total GULP energy -179347.169230 kJ/mol
# GULP energy per Si atom -5604.599038 kJ/mol
# Density = 2.468332 g / cm^3
# Si number density = 24.739628 Si / 1000 Ang^3
#
#
#
# Elastic Constant Matrix: (Units=GPa)
#
#
# Indices 1 2 3 4 5 6 
#
# 1 115.6868 21.1605 19.1845 0.0000 6.1324 0.0000
# 2 21.1605 138.6547 25.2507 0.0000 0.4629 0.0000
# 3 19.1845 25.2507 80.6290 0.0000 -5.2704 0.0000
# 4 0.0000 0.0000 0.0000 23.9590 0.0000 5.2519
# 5 6.1324 0.4629 -5.2704 0.0000 44.3169 0.0000
# 6 0.0000 0.0000 0.0000 5.2519 0.0000 39.7794
#
#
#
# Elastic Compliance Matrix: (Units=1/GPa)
#
#
# Indices 1 2 3 4 5 6 
#
# 1 0.009242 -0.001047 -0.001969 0.000000 -0.001502 0.000000
# 2 -0.001047 0.007773 -0.002198 0.000000 -0.000198 0.000000
# 3 -0.001969 -0.002198 0.013685 0.000000 0.001923 0.000000
# 4 0.000000 0.000000 0.000000 0.042982 0.000000 -0.005675
# 5 -0.001502 -0.000198 0.001923 0.000000 0.023003 0.000000
# 6 0.000000 0.000000 0.000000 -0.005675 0.000000 0.025888
#
#
# Mechanical properties :
#
#
# Convention : Reuss Voigt Hill
#
# Bulk Modulus (GPa) = 49.33063 51.79575 50.56319
# Shear Modulus (GPa) = 35.77609 39.56939 37.67274
#
# Velocity S-wave (km/s) = 3.80689 4.00363 3.90650
# Velocity P-wave (km/s) = 6.26949 6.50799 6.38985
#
# Compressibility (1/GPa) = 0.02027138
#
# Stress axis : x y z
#
# Youngs Moduli (GPa) = 108.20528 128.65261 73.07197
#
# Poissons Ratio (x) = 0.13467 0.14390
# Poissons Ratio (y) = 0.11326 0.16062
# Poissons Ratio (z) = 0.21309 0.28279
#
# Static dielectric constant tensor:
#      x y z
#    x 1.976680 0.000000 0.008010 
#    y 0.000000 1.953240 0.000000 
#    z 0.008010 0.000000 1.977000 
# 
# From -- ./inp_files/284451.got.cif
#   From: 2010.05.17/outbox.cif.g08.bks.cpg/sg15_143_cif.got.tgz:284451.got - 2010.06.03 18:47:42.
