data_PCOD9295179
_publ_section_title
;
Structure prediction by ZEFSAII (Michael W. Deem and Ramdas Pophale) SiO2 
 PCOD9295179
Probable space group: C 2/C
;
_chemical_formula_sum "Si O2"
_cell_formula_units_Z 48
_cell_length_a 7.673037
_cell_length_b 16.123218
_cell_length_c 18.389353
_cell_angle_alpha 90.000000
_cell_angle_beta 77.256128
_cell_angle_gamma 90.000000
_cell_volume 2218.978246
_symmetry_space_group_name_H-M "C 2/C"
_symmetry_group_IT_number 15
_symmetry_cell_setting 'monoclinic'
loop_
_space_group_symop_operation_xyz
x,y,z
-x,y,1/2-z
-x,-y,-z
x,-y,1/2+z
1/2+x,1/2+y,z
1/2-x,1/2+y,1/2-z
1/2-x,1/2-y,-z
1/2+x,1/2-y,1/2+z
loop_
_atom_site_type_symbol
_atom_site_label
_atom_site_fract_x
_atom_site_fract_y
_atom_site_fract_z
Si Si1 0.627259 0.949685 0.081931
Si Si2 0.322961 0.669603 0.155129
Si Si3 0.953281 0.395792 0.631632
Si Si4 0.640426 0.146270 0.802939
Si Si5 0.182541 0.166560 0.043335
Si Si6 0.269312 0.505864 0.227248
O O1 0.469510 0.884598 0.116244
O O2 0.536767 0.036574 0.068839
O O3 0.720621 0.973263 0.150681
O O4 0.765766 0.909248 0.014250
O O5 0.315563 0.757431 0.196164
O O6 0.474045 0.673500 0.079732
O O7 0.380774 0.588122 0.196292
O O8 0.122615 0.655075 0.144376
O O9 0.797028 0.346116 0.606659
O O10 0.873240 0.449610 0.705400
O O11 0.500000 0.136975 0.750000
O O12 0.795818 0.079539 0.770096
O O13 0.250000 0.250000 0.000000
#
# Coordination Sequence:
#
# PCOD9295179 Si02
#       6
#     8   8   8   8   8   8
#     4   9  18  42  62  91 130 177 213 271 334 394
#     4  11  22  39  69  95 131 176 227 277 329 397
#     4  10  23  42  66  91 132 176 221 277 337 388
#     4   9  18  36  66  91 128 174 219 275 338 385
#     4  12  25  39  66 100 134 176 225 264 337 408
#     4   9  21  41  69  93 130 179 223 278 339 386
#
# _framework density 21.631578000000001
#
# number of rings (size 3 to 8) (size 9 to 14) (size 15 to 20)
#    0.000    2.000    1.667    5.500    2.333    3.333 
#    0.000    0.000   25.667    0.000    0.000    0.000 
#    0.000    0.000    0.000    0.000    0.000    0.000 
#
# Total GULP energy -133638.252468 kJ/mol
# GULP energy per Si atom -5568.260520 kJ/mol
# Density = 2.158234 g / cm^3
# Si number density = 21.631578 Si / 1000 Ang^3
#
#
#
# Elastic Constant Matrix: (Units=GPa)
#
#
# Indices 1 2 3 4 5 6 
#
# 1 75.5078 12.8779 30.0457 0.0000 -2.3004 0.0000
# 2 12.8779 141.2427 24.3881 0.0000 -9.9024 0.0000
# 3 30.0457 24.3881 71.4447 0.0000 -10.9012 0.0000
# 4 0.0000 0.0000 0.0000 40.6804 0.0000 -4.7034
# 5 -2.3004 -9.9024 -10.9012 0.0000 32.2494 0.0000
# 6 0.0000 0.0000 0.0000 -4.7034 0.0000 23.6960
#
#
#
# Elastic Compliance Matrix: (Units=1/GPa)
#
#
# Indices 1 2 3 4 5 6 
#
# 1 0.015967 -0.000374 -0.006781 0.000000 -0.001268 0.000000
# 2 -0.000374 0.007604 -0.002200 0.000000 0.001565 0.000000
# 3 -0.006781 -0.002200 0.018370 0.000000 0.005050 0.000000
# 4 0.000000 0.000000 0.000000 0.025159 0.000000 0.004994
# 5 -0.001268 0.001565 0.005050 0.000000 0.033105 0.000000
# 6 0.000000 0.000000 0.000000 0.004994 0.000000 0.043192
#
#
# Mechanical properties :
#
#
# Convention : Reuss Voigt Hill
#
# Bulk Modulus (GPa) = 43.04380 46.97985 45.01182
# Shear Modulus (GPa) = 29.43777 34.05073 31.74425
#
# Velocity S-wave (km/s) = 3.69300 3.97182 3.83495
# Velocity P-wave (km/s) = 6.17464 6.54211 6.36103
#
# Compressibility (1/GPa) = 0.02323215
#
# Stress axis : x y z
#
# Youngs Moduli (GPa) = 62.62940 131.51686 54.43696
#
# Poissons Ratio (x) = 0.04917 0.36912
# Poissons Ratio (y) = 0.02342 0.11974
# Poissons Ratio (z) = 0.42467 0.28928
#
# Static dielectric constant tensor:
#      x y z
#    x 1.851380 0.000000 0.010890 
#    y 0.000000 1.824870 0.000000 
#    z 0.010890 0.000000 1.821330 
# 
# From -- ./inp_files/231056.got.cif
#   From: 2010.05.17/outbox.cif.g08.bks.cpg/sg15_116_cif.got.tgz:231056.got - 2010.06.03 18:47:42.
