data_PCOD9295762
_publ_section_title
;
Structure prediction by ZEFSAII (Michael W. Deem and Ramdas Pophale) SiO2 
 PCOD9295762
Probable space group: C 2/C
;
_chemical_formula_sum "Si O2"
_cell_formula_units_Z 36
_cell_length_a 29.369638
_cell_length_b 7.541668
_cell_length_c 10.619586
_cell_angle_alpha 90.000000
_cell_angle_beta 138.126396
_cell_angle_gamma 90.000000
_cell_volume 1570.066625
_symmetry_space_group_name_H-M "C 2/C"
_symmetry_group_IT_number 15
_symmetry_cell_setting 'monoclinic'
loop_
_space_group_symop_operation_xyz
x,y,z
-x,y,1/2-z
-x,-y,-z
x,-y,1/2+z
1/2+x,1/2+y,z
1/2-x,1/2+y,1/2-z
1/2-x,1/2-y,-z
1/2+x,1/2-y,1/2+z
loop_
_atom_site_type_symbol
_atom_site_label
_atom_site_fract_x
_atom_site_fract_y
_atom_site_fract_z
Si Si1 0.398097 0.267615 0.218388
Si Si2 0.806324 0.474951 0.909178
Si Si3 0.000000 0.931700 0.250000
Si Si4 0.271180 0.545510 0.509789
Si Si5 0.927973 0.278485 0.052137
O O1 0.467413 0.319840 0.293747
O O2 0.412325 0.165345 0.377536
O O3 0.352049 0.438620 0.158458
O O4 0.352117 0.147706 0.032645
O O5 0.763503 0.500315 0.693898
O O6 0.758186 0.441449 0.930576
O O7 0.862759 0.325053 0.000479
O O8 0.942595 0.068222 0.082760
O O9 0.250000 0.750000 0.500000
O O10 0.000000 0.356268 0.250000
#
# Coordination Sequence:
#
# PCOD9295762 Si02
#       5
#     8   8   4   8   8
#     4  11  24  46  68 100 145 173 241 280 345 415
#     4  11  22  44  74  99 136 186 225 293 337 410
#     4  10  26  42  68  96 144 188 218 290 344 392
#     4  10  23  43  69 101 142 171 231 291 342 405
#     4  10  24  43  67  99 139 183 233 279 343 407
#
# _framework density 22.928964000000001
#
# number of rings (size 3 to 8) (size 9 to 14) (size 15 to 20)
#    0.667    0.889    4.444    0.667    4.667    2.667 
#    0.000    5.556    0.000    0.000    0.000    0.000 
#    0.000    0.000    0.000    0.000    0.000    0.000 
#
# Total GULP energy -100558.722207 kJ/mol
# GULP energy per Si atom -5586.595678 kJ/mol
# Density = 2.287678 g / cm^3
# Si number density = 22.928964 Si / 1000 Ang^3
#
#
#
# Elastic Constant Matrix: (Units=GPa)
#
#
# Indices 1 2 3 4 5 6 
#
# 1 186.4685 34.1019 57.6731 0.0000 -11.9884 0.0000
# 2 34.1019 41.5275 22.2028 0.0000 -4.1631 0.0000
# 3 57.6731 22.2028 174.9772 0.0000 -20.2737 0.0000
# 4 0.0000 0.0000 0.0000 31.7615 0.0000 8.9567
# 5 -11.9884 -4.1631 -20.2737 0.0000 31.9947 0.0000
# 6 0.0000 0.0000 0.0000 8.9567 0.0000 49.0511
#
#
#
# Elastic Compliance Matrix: (Units=1/GPa)
#
#
# Indices 1 2 3 4 5 6 
#
# 1 0.006742 -0.004625 -0.001524 0.000000 0.000959 0.000000
# 2 -0.004625 0.029063 -0.002079 0.000000 0.000732 0.000000
# 3 -0.001524 -0.002079 0.006889 0.000000 0.003524 0.000000
# 4 0.000000 0.000000 0.000000 0.033194 0.000000 -0.006061
# 5 0.000959 0.000732 0.003524 0.000000 0.033943 0.000000
# 6 0.000000 0.000000 0.000000 -0.006061 0.000000 0.021494
#
#
# Mechanical properties :
#
#
# Convention : Reuss Voigt Hill
#
# Bulk Modulus (GPa) = 38.11191 70.10323 54.10757
# Shear Modulus (GPa) = 31.94341 41.82780 36.88561
#
# Velocity S-wave (km/s) = 3.73654 4.27574 4.01520
# Velocity P-wave (km/s) = 5.93914 7.41730 6.71900
#
# Compressibility (1/GPa) = 0.02623852
#
# Stress axis : x y z
#
# Youngs Moduli (GPa) = 148.32942 34.40765 145.14946
#
# Poissons Ratio (x) = 0.15914 0.22123
# Poissons Ratio (y) = 0.68606 0.30170
# Poissons Ratio (z) = 0.22608 0.07152
#
# Static dielectric constant tensor:
#      x y z
#    x 1.880970 0.000000 -0.014360 
#    y 0.000000 1.933890 0.000000 
#    z -0.014360 0.000000 1.849050 
# 
# From -- ./inp_files/59768.got.cif
#   From: 2010.05.17/outbox.cif.g08.bks.cpg/sg15_30_cif.got.tgz:59768.got - 2010.06.03 18:47:42.
