data_PCOD9295677
_publ_section_title
;
Structure prediction by ZEFSAII (Michael W. Deem and Ramdas Pophale) SiO2 
 PCOD9295677
Probable space group: C 2/C
;
_chemical_formula_sum "Si O2"
_cell_formula_units_Z 56
_cell_length_a 10.289885
_cell_length_b 10.187813
_cell_length_c 27.288184
_cell_angle_alpha 90.000000
_cell_angle_beta 120.119635
_cell_angle_gamma 90.000000
_cell_volume 2474.411570
_symmetry_space_group_name_H-M "C 2/C"
_symmetry_group_IT_number 15
_symmetry_cell_setting 'monoclinic'
loop_
_space_group_symop_operation_xyz
x,y,z
-x,y,1/2-z
-x,-y,-z
x,-y,1/2+z
1/2+x,1/2+y,z
1/2-x,1/2+y,1/2-z
1/2-x,1/2-y,-z
1/2+x,1/2-y,1/2+z
loop_
_atom_site_type_symbol
_atom_site_label
_atom_site_fract_x
_atom_site_fract_y
_atom_site_fract_z
Si Si1 0.516200 0.110224 0.543599
Si Si2 0.835950 0.585535 0.604232
Si Si3 0.972543 0.053985 0.347397
Si Si4 0.073185 0.899813 0.551687
Si Si5 0.640691 0.183456 0.712562
Si Si6 0.686759 0.287615 0.160856
Si Si7 0.744039 0.007573 0.162294
O O1 0.376919 0.110509 0.555569
O O2 0.550582 0.252890 0.529038
O O3 0.500000 0.000000 0.500000
O O4 0.657077 0.071975 0.604226
O O5 0.746015 0.448209 0.591785
O O6 0.724546 0.684879 0.611228
O O7 0.989716 0.612610 0.663714
O O8 0.005876 0.093767 0.409916
O O9 0.858263 0.167839 0.307918
O O10 0.105522 0.061265 0.333596
O O11 0.923002 0.903186 0.343139
O O12 0.000000 0.000000 0.500000
O O13 0.672123 0.190978 0.775853
O O14 0.766721 0.091240 0.711390
O O15 0.646629 0.135643 0.158469
#
# Coordination Sequence:
#
# PCOD9295677 Si02
#       7
#     8   8   8   8   8   8   8
#     4  11  26  44  67  98 136 178 228 282 340 401
#     4  10  23  43  67  95 137 171 223 281 328 406
#     4  11  24  45  66  99 140 172 228 283 330 411
#     4  11  25  44  69  99 133 181 227 277 347 401
#     4  11  22  44  68  97 134 179 223 278 341 405
#     4  11  23  40  72  97 129 183 225 270 352 401
#     4  11  24  44  67  98 138 173 226 284 332 405
#
# _framework density 22.631644000000001
#
# number of rings (size 3 to 8) (size 9 to 14) (size 15 to 20)
#    0.000    1.143    4.286    1.286    6.000    5.143 
#    0.000    0.000    0.000    0.000    0.000    0.000 
#    0.000    0.000    0.000    0.000    0.000    0.000 
#
# Total GULP energy -156290.668998 kJ/mol
# GULP energy per Si atom -5581.809607 kJ/mol
# Density = 2.258013 g / cm^3
# Si number density = 22.631644 Si / 1000 Ang^3
#
#
#
# Elastic Constant Matrix: (Units=GPa)
#
#
# Indices 1 2 3 4 5 6 
#
# 1 48.4326 32.3686 5.8676 0.0000 -16.3040 0.0000
# 2 32.3686 189.7685 24.5296 0.0000 -13.7981 0.0000
# 3 5.8676 24.5296 84.7965 0.0000 -20.4194 0.0000
# 4 0.0000 0.0000 0.0000 35.8256 0.0000 6.1302
# 5 -16.3040 -13.7981 -20.4194 0.0000 27.9182 0.0000
# 6 0.0000 0.0000 0.0000 6.1302 0.0000 18.6232
#
#
#
# Elastic Compliance Matrix: (Units=1/GPa)
#
#
# Indices 1 2 3 4 5 6 
#
# 1 0.028773 -0.004087 0.003339 0.000000 0.017225 0.000000
# 2 -0.004087 0.006137 -0.001623 0.000000 -0.000540 0.000000
# 3 0.003339 -0.001623 0.014939 0.000000 0.012074 0.000000
# 4 0.000000 0.000000 0.000000 0.029579 0.000000 -0.009737
# 5 0.017225 -0.000540 0.012074 0.000000 0.054443 0.000000
# 6 0.000000 0.000000 0.000000 -0.009737 0.000000 0.056902
#
#
# Mechanical properties :
#
#
# Convention : Reuss Voigt Hill
#
# Bulk Modulus (GPa) = 22.16897 49.83657 36.00277
# Shear Modulus (GPa) = 23.74750 33.82217 28.78484
#
# Velocity S-wave (km/s) = 3.24281 3.87002 3.57022
# Velocity P-wave (km/s) = 4.88241 6.48367 5.73916
#
# Compressibility (1/GPa) = 0.04510809
#
# Stress axis : x y z
#
# Youngs Moduli (GPa) = 34.75516 162.94266 66.93966
#
# Poissons Ratio (x) = 0.66593 -0.22353
# Poissons Ratio (y) = 0.14204 0.10862
# Poissons Ratio (z) = -0.11606 0.26440
#
# Static dielectric constant tensor:
#      x y z
#    x 1.915850 0.000000 0.029300 
#    y 0.000000 1.871130 0.000000 
#    z 0.029300 0.000000 1.850390 
# 
# From -- ./inp_files/310369.got.cif
#   From: 2010.05.17/outbox.cif.g08.bks.cpg/sg15_156_cif.got.tgz:310369.got - 2010.06.03 18:47:42.
