data_PCOD9295993
_publ_section_title
;
Structure prediction by ZEFSAII (Michael W. Deem and Ramdas Pophale) SiO2 
 PCOD9295993
Probable space group: C 2/C
;
_chemical_formula_sum "Si O2"
_cell_formula_units_Z 56
_cell_length_a 8.409955
_cell_length_b 17.236047
_cell_length_c 25.327154
_cell_angle_alpha 90.000000
_cell_angle_beta 128.285888
_cell_angle_gamma 90.000000
_cell_volume 2881.695623
_symmetry_space_group_name_H-M "C 2/C"
_symmetry_group_IT_number 15
_symmetry_cell_setting 'monoclinic'
loop_
_space_group_symop_operation_xyz
x,y,z
-x,y,1/2-z
-x,-y,-z
x,-y,1/2+z
1/2+x,1/2+y,z
1/2-x,1/2+y,1/2-z
1/2-x,1/2-y,-z
1/2+x,1/2-y,1/2+z
loop_
_atom_site_type_symbol
_atom_site_label
_atom_site_fract_x
_atom_site_fract_y
_atom_site_fract_z
Si Si1 0.734225 0.480250 0.555532
Si Si2 0.554790 0.889379 0.086756
Si Si3 0.813468 0.644256 0.431753
Si Si4 0.082482 0.003547 0.326478
Si Si5 0.899765 0.216173 0.381222
Si Si6 0.840239 0.689066 0.058520
Si Si7 0.775030 0.436598 0.685232
O O1 0.500000 0.500000 0.500000
O O2 0.784404 0.400719 0.535366
O O3 0.765418 0.456224 0.622087
O O4 0.884504 0.550300 0.572465
O O5 0.572139 0.807725 0.121092
O O6 0.773332 0.929550 0.137860
O O7 0.479788 0.873433 0.011318
O O8 0.718557 0.570947 0.381662
O O9 0.629926 0.683534 0.426866
O O10 0.920404 0.692279 0.406354
O O11 0.000000 0.016838 0.250000
O O12 0.878684 0.005550 0.318278
O O13 0.764021 0.208422 0.406678
O O14 0.791548 0.153699 0.320260
O O15 0.750000 0.750000 0.000000
O O16 0.000000 0.447106 0.750000
#
# Coordination Sequence:
#
# PCOD9295993 Si02
#       7
#     8   8   8   8   8   8   8
#     4  11  24  38  63  97 130 166 210 264 326 378
#     4  12  22  40  65  98 132 156 213 270 321 370
#     4  11  23  41  65  94 129 170 210 261 320 383
#     4  11  24  41  65  91 124 169 216 260 320 382
#     4  10  24  40  62  96 125 167 206 267 316 378
#     4  11  22  37  62  91 129 166 207 250 320 375
#     4  10  23  44  64  86 125 173 215 255 320 394
#
# _framework density 19.433004
#
# number of rings (size 3 to 8) (size 9 to 14) (size 15 to 20)
#    0.000    1.143    2.857    4.286    6.000    0.571 
#    0.000    0.000    0.000    3.429    0.000    0.000 
#    0.000    0.000    0.000    0.000    0.000    0.000 
#
# Total GULP energy -155955.897059 kJ/mol
# GULP energy per Si atom -5569.853466 kJ/mol
# Density = 1.938877 g / cm^3
# Si number density = 19.433004 Si / 1000 Ang^3
#
#
#
# Elastic Constant Matrix: (Units=GPa)
#
#
# Indices 1 2 3 4 5 6 
#
# 1 110.5962 20.2780 26.1041 0.0000 10.9107 0.0000
# 2 20.2780 93.5395 23.2667 0.0000 7.4673 0.0000
# 3 26.1041 23.2667 94.2094 0.0000 19.2998 0.0000
# 4 0.0000 0.0000 0.0000 -26.1411 0.0000 18.2989
# 5 10.9107 7.4673 19.2998 0.0000 35.2962 0.0000
# 6 0.0000 0.0000 0.0000 18.2989 0.0000 15.0810
#
#
#
# Elastic Compliance Matrix: (Units=1/GPa)
#
#
# Indices 1 2 3 4 5 6 
#
# 1 0.009966 -0.001520 -0.002051 0.000000 -0.001638 0.000000
# 2 -0.001520 0.011652 -0.002306 0.000000 -0.000734 0.000000
# 3 -0.002051 -0.002306 0.012976 0.000000 -0.005974 0.000000
# 4 0.000000 0.000000 0.000000 -0.020685 0.000000 0.025099
# 5 -0.001638 -0.000734 -0.005974 0.000000 0.032260 0.000000
# 6 0.000000 0.000000 0.000000 0.025099 0.000000 0.035855
#
#
# Mechanical properties :
#
#
# Convention : Reuss Voigt Hill
#
# Bulk Modulus (GPa) = 43.77977 48.62698 46.20338
# Shear Modulus (GPa) = 49.31393 20.09362 34.70378
#
# Velocity S-wave (km/s) = 5.04296 3.21907 4.23048
# Velocity P-wave (km/s) = 7.51572 6.23648 6.90579
#
# Compressibility (1/GPa) = 0.02284160
#
# Stress axis : x y z
#
# Youngs Moduli (GPa) = 100.33976 85.81931 77.06441
#
# Poissons Ratio (x) = 0.13042 0.15803
# Poissons Ratio (y) = 0.15249 0.17773
# Poissons Ratio (z) = 0.20576 0.19792
#
# Static dielectric constant tensor:
#      x y z
#    x 1.753950 0.000000 -0.021930 
#    y 0.000000 1.698220 0.000000 
#    z -0.021930 0.000000 1.662300 
# 
# From -- ./inp_files/265588.got.cif
#   From: 2010.05.17/outbox.cif.g08.bks.cpg/sg15_133_cif.got.tgz:265588.got - 2010.06.03 18:47:42.
