data_PCOD9295997
_publ_section_title
;
Structure prediction by ZEFSAII (Michael W. Deem and Ramdas Pophale) SiO2 
 PCOD9295997
Probable space group: C 2/C
;
_chemical_formula_sum "Si O2"
_cell_formula_units_Z 48
_cell_length_a 10.589926
_cell_length_b 12.389097
_cell_length_c 17.433527
_cell_angle_alpha 90.000000
_cell_angle_beta 98.856202
_cell_angle_gamma 90.000000
_cell_volume 2260.002903
_symmetry_space_group_name_H-M "C 2/C"
_symmetry_group_IT_number 15
_symmetry_cell_setting 'monoclinic'
loop_
_space_group_symop_operation_xyz
x,y,z
-x,y,1/2-z
-x,-y,-z
x,-y,1/2+z
1/2+x,1/2+y,z
1/2-x,1/2+y,1/2-z
1/2-x,1/2-y,-z
1/2+x,1/2-y,1/2+z
loop_
_atom_site_type_symbol
_atom_site_label
_atom_site_fract_x
_atom_site_fract_y
_atom_site_fract_z
Si Si1 0.644375 0.009013 0.168948
Si Si2 0.570566 0.878287 0.442387
Si Si3 0.305407 0.494629 0.542963
Si Si4 0.639424 0.169944 0.786868
Si Si5 0.403779 0.746704 0.807671
Si Si6 0.003786 0.166208 0.524564
O O1 0.543018 0.939067 0.111324
O O2 0.773977 0.008681 0.130752
O O3 0.653608 0.949988 0.252030
O O4 0.587955 0.127782 0.170581
O O5 0.647193 0.824462 0.379061
O O6 0.512046 0.786379 0.490948
O O7 0.671050 0.957359 0.492657
O O8 0.366079 0.608610 0.522028
O O9 0.409535 0.407810 0.523229
O O10 0.500000 0.211022 0.750000
O O11 0.759128 0.232819 0.765456
O O12 0.500000 0.718051 0.750000
O O13 0.434738 0.675103 0.885049
#
# Coordination Sequence:
#
# PCOD9295997 Si02
#       6
#     8   8   8   8   8   8
#     4  11  24  43  66  93 132 174 221 278 342 403
#     4  11  21  44  66  92 133 174 218 278 332 410
#     4  11  22  41  66 100 131 168 224 279 336 413
#     4  10  23  44  64  93 129 177 220 273 343 402
#     4  12  23  43  67  95 136 176 224 283 339 410
#     4  11  24  40  69  99 132 177 221 280 349 398
#
# _framework density 21.238911000000002
#
# number of rings (size 3 to 8) (size 9 to 14) (size 15 to 20)
#    0.000    1.000    3.333    4.500    0.000    0.667 
#   12.000    2.500    0.000    0.000    0.000    0.000 
#    0.000    0.000    0.000    0.000    0.000    0.000 
#
# Total GULP energy -134022.422865 kJ/mol
# GULP energy per Si atom -5584.267619 kJ/mol
# Density = 2.119057 g / cm^3
# Si number density = 21.238911 Si / 1000 Ang^3
#
#
#
# Elastic Constant Matrix: (Units=GPa)
#
#
# Indices 1 2 3 4 5 6 
#
# 1 92.2259 28.6601 26.6375 0.0000 -18.5032 0.0000
# 2 28.6601 62.9041 8.6641 0.0000 11.2486 0.0000
# 3 26.6375 8.6641 60.0749 0.0000 -17.7538 0.0000
# 4 0.0000 0.0000 0.0000 12.4509 0.0000 -9.4544
# 5 -18.5032 11.2486 -17.7538 0.0000 29.6728 0.0000
# 6 0.0000 0.0000 0.0000 -9.4544 0.0000 38.4488
#
#
#
# Elastic Compliance Matrix: (Units=1/GPa)
#
#
# Indices 1 2 3 4 5 6 
#
# 1 0.017200 -0.009848 -0.002349 0.000000 0.013053 0.000000
# 2 -0.009848 0.024209 -0.004436 0.000000 -0.017972 0.000000
# 3 -0.002349 -0.004436 0.022342 0.000000 0.013585 0.000000
# 4 0.000000 0.000000 0.000000 0.098755 0.000000 0.024283
# 5 0.013053 -0.017972 0.013585 0.000000 0.056782 0.000000
# 6 0.000000 0.000000 0.000000 0.024283 0.000000 0.031980
#
#
# Mechanical properties :
#
#
# Convention : Reuss Voigt Hill
#
# Bulk Modulus (GPa) = 32.80229 38.12536 35.46383
# Shear Modulus (GPa) = 16.96673 26.19737 21.58205
#
# Velocity S-wave (km/s) = 2.82946 3.51588 3.19118
# Velocity P-wave (km/s) = 5.11394 5.87125 5.50563
#
# Compressibility (1/GPa) = 0.03048568
#
# Stress axis : x y z
#
# Youngs Moduli (GPa) = 58.13792 41.30740 44.75908
#
# Poissons Ratio (x) = 0.40678 0.10513
# Poissons Ratio (y) = 0.57251 0.19856
# Poissons Ratio (z) = 0.13656 0.18325
#
# Static dielectric constant tensor:
#      x y z
#    x 1.803330 0.000000 -0.033500 
#    y 0.000000 1.779420 0.000000 
#    z -0.033500 0.000000 1.796580 
# 
# From -- ./inp_files/196216.got.cif
#   From: 2010.05.17/outbox.cif.g08.bks.cpg/sg15_99_cif.got.tgz:196216.got - 2010.06.03 18:47:42.
