data_PCOD9295486
_publ_section_title
;
Structure prediction by ZEFSAII (Michael W. Deem and Ramdas Pophale) SiO2 
 PCOD9295486
Probable space group: C 2/C
;
_chemical_formula_sum "Si O2"
_cell_formula_units_Z 44
_cell_length_a 9.640296
_cell_length_b 24.892064
_cell_length_c 12.370727
_cell_angle_alpha 90.000000
_cell_angle_beta 139.308495
_cell_angle_gamma 90.000000
_cell_volume 1935.462518
_symmetry_space_group_name_H-M "C 2/C"
_symmetry_group_IT_number 15
_symmetry_cell_setting 'monoclinic'
loop_
_space_group_symop_operation_xyz
x,y,z
-x,y,1/2-z
-x,-y,-z
x,-y,1/2+z
1/2+x,1/2+y,z
1/2-x,1/2+y,1/2-z
1/2-x,1/2-y,-z
1/2+x,1/2-y,1/2+z
loop_
_atom_site_type_symbol
_atom_site_label
_atom_site_fract_x
_atom_site_fract_y
_atom_site_fract_z
Si Si1 0.754922 0.800932 0.078875
Si Si2 0.000000 0.984219 0.250000
Si Si3 0.500000 0.345740 0.750000
Si Si4 0.000000 0.607937 0.750000
Si Si5 0.798012 0.413875 0.557417
Si Si6 0.392701 0.204285 0.524115
Si Si7 0.949158 0.930106 0.534150
O O1 0.609489 0.782229 0.093140
O O2 0.000000 0.813770 0.250000
O O3 0.750000 0.750000 0.000000
O O4 0.663533 0.854460 0.967760
O O5 0.209855 0.949543 0.404515
O O6 0.976895 0.020834 0.344863
O O7 0.292733 0.314121 0.665732
O O8 0.449520 0.381402 0.618002
O O9 0.039616 0.651353 0.868472
O O10 0.796198 0.569901 0.647858
O O11 0.602095 0.416843 0.525849
O O12 0.000000 0.430985 0.750000
O O13 0.250000 0.250000 0.500000
#
# Coordination Sequence:
#
# PCOD9295486 Si02
#       7
#     8   4   4   4   8   8   8
#     4  12  28  45  70 106 150 196 251 310 382 453
#     4  11  26  48  73 116 145 198 260 311 372 466
#     4   9  21  40  66  94 140 176 255 295 366 444
#     4  10  23  42  75 100 145 192 251 306 380 444
#     4  12  26  48  75 105 154 196 244 318 384 443
#     4  11  24  40  70 102 139 194 248 313 366 449
#     4  10  23  46  71 107 143 197 248 311 376 447
#
# _framework density 22.733582999999999
#
# number of rings (size 3 to 8) (size 9 to 14) (size 15 to 20)
#    0.000    1.091    0.909    3.818   11.455    0.727 
#    0.000    0.000    0.000    0.000    0.000    0.000 
#    0.000    0.000    0.000    0.000    0.000    0.000 
#
# Total GULP energy -122639.818402 kJ/mol
# GULP energy per Si atom -5574.537200 kJ/mol
# Density = 2.268184 g / cm^3
# Si number density = 22.733583 Si / 1000 Ang^3
#
#
#
# Elastic Constant Matrix: (Units=GPa)
#
#
# Indices 1 2 3 4 5 6 
#
# 1 144.7770 25.8651 39.0196 0.0000 21.1688 0.0000
# 2 25.8651 89.4178 39.0206 0.0000 -6.3690 0.0000
# 3 39.0196 39.0206 129.7829 0.0000 26.8128 0.0000
# 4 0.0000 0.0000 0.0000 33.5788 0.0000 -9.7390
# 5 21.1688 -6.3690 26.8128 0.0000 37.4017 0.0000
# 6 0.0000 0.0000 0.0000 -9.7390 0.0000 38.5653
#
#
#
# Elastic Compliance Matrix: (Units=1/GPa)
#
#
# Indices 1 2 3 4 5 6 
#
# 1 0.008197 -0.002312 -0.000856 0.000000 -0.004419 0.000000
# 2 -0.002312 0.014707 -0.005299 0.000000 0.007612 0.000000
# 3 -0.000856 -0.005299 0.011319 0.000000 -0.008532 0.000000
# 4 0.000000 0.000000 0.000000 0.032134 0.000000 0.008115
# 5 -0.004419 0.007612 -0.008532 0.000000 0.036651 0.000000
# 6 0.000000 0.000000 0.000000 0.008115 0.000000 0.027979
#
#
# Mechanical properties :
#
#
# Convention : Reuss Voigt Hill
#
# Bulk Modulus (GPa) = 57.84625 63.53205 60.68915
# Shear Modulus (GPa) = 32.53404 39.24732 35.89068
#
# Velocity S-wave (km/s) = 3.78709 4.15951 3.97766
# Velocity P-wave (km/s) = 6.68007 7.14673 6.91733
#
# Compressibility (1/GPa) = 0.01728720
#
# Stress axis : x y z
#
# Youngs Moduli (GPa) = 121.99225 67.99480 88.35041
#
# Poissons Ratio (x) = 0.15722 0.07565
# Poissons Ratio (y) = 0.28208 0.46819
# Poissons Ratio (z) = 0.10446 0.36032
#
# Static dielectric constant tensor:
#      x y z
#    x 1.786900 0.000000 -0.037770 
#    y 0.000000 1.903890 0.000000 
#    z -0.037770 0.000000 1.830180 
# 
# From -- ./inp_files/81601.got.cif
#   From: 2010.05.17/outbox.cif.g08.bks.cpg/sg15_41_cif.got.tgz:81601.got - 2010.06.03 18:47:42.
