data_PCOD9295685
_publ_section_title
;
Structure prediction by ZEFSAII (Michael W. Deem and Ramdas Pophale) SiO2 
 PCOD9295685
Probable space group: C 2/C
;
_chemical_formula_sum "Si O2"
_cell_formula_units_Z 48
_cell_length_a 13.198333
_cell_length_b 19.738256
_cell_length_c 12.814715
_cell_angle_alpha 90.000000
_cell_angle_beta 42.747369
_cell_angle_gamma 90.000000
_cell_volume 2265.987692
_symmetry_space_group_name_H-M "C 2/C"
_symmetry_group_IT_number 15
_symmetry_cell_setting 'monoclinic'
loop_
_space_group_symop_operation_xyz
x,y,z
-x,y,1/2-z
-x,-y,-z
x,-y,1/2+z
1/2+x,1/2+y,z
1/2-x,1/2+y,1/2-z
1/2-x,1/2-y,-z
1/2+x,1/2-y,1/2+z
loop_
_atom_site_type_symbol
_atom_site_label
_atom_site_fract_x
_atom_site_fract_y
_atom_site_fract_z
Si Si1 0.495773 0.932792 0.072744
Si Si2 0.888534 0.795263 0.929679
Si Si3 0.127059 0.083947 0.566189
Si Si4 0.837749 0.672650 0.544719
Si Si5 0.965367 0.792835 0.101620
Si Si6 0.758161 0.561912 0.939633
O O1 0.449314 0.871522 0.032217
O O2 0.648452 0.930535 0.023284
O O3 0.369592 0.935038 0.257530
O O4 0.500000 0.000000 0.000000
O O5 0.000000 0.790624 0.750000
O O6 0.750000 0.750000 0.000000
O O7 0.846017 0.872951 0.982913
O O8 0.948774 0.770404 0.994812
O O9 0.267069 0.122755 0.512080
O O10 0.051920 0.135531 0.541792
O O11 0.000000 0.075884 0.750000
O O12 0.175547 0.009802 0.494951
O O13 0.927994 0.735818 0.429146
O O14 0.694907 0.698464 0.721147
#
# Coordination Sequence:
#
# PCOD9295685 Si02
#       6
#     8   8   8   8   8   8
#     4  11  23  42  68  94 131 173 221 279 327 397
#     4  12  26  42  66  96 135 181 223 274 332 395
#     4  10  23  43  67  97 132 168 221 276 333 399
#     4  11  22  45  66  99 131 174 219 270 335 393
#     4  11  24  42  67  95 136 175 217 278 325 396
#     4  11  24  42  66 100 130 172 226 273 335 399
#
# _framework density 21.182815999999999
#
# number of rings (size 3 to 8) (size 9 to 14) (size 15 to 20)
#    0.000    1.000    3.333    3.000    2.333    3.333 
#    0.000    0.000    0.000    0.000    0.000    0.000 
#    0.000    0.000    0.000    0.000    0.000    0.000 
#
# Total GULP energy -134234.995943 kJ/mol
# GULP energy per Si atom -5593.124831 kJ/mol
# Density = 2.113460 g / cm^3
# Si number density = 21.182816 Si / 1000 Ang^3
#
#
#
# Elastic Constant Matrix: (Units=GPa)
#
#
# Indices 1 2 3 4 5 6 
#
# 1 70.9721 30.8401 13.0282 -0.0017 2.7384 0.0029
# 2 30.8401 145.3302 29.8556 -0.0012 -22.1578 0.0024
# 3 13.0282 29.8556 49.6800 -0.0025 -3.6895 0.0037
# 4 -0.0017 -0.0012 -0.0025 23.6821 0.0016 -10.8076
# 5 2.7384 -22.1578 -3.6895 0.0016 27.7908 -0.0029
# 6 0.0029 0.0024 0.0037 -10.8076 -0.0029 39.3286
#
#
#
# Elastic Compliance Matrix: (Units=1/GPa)
#
#
# Indices 1 2 3 4 5 6 
#
# 1 0.016337 -0.003717 -0.002414 0.000001 -0.004894 -0.000001
# 2 -0.003717 0.009700 -0.004295 -0.000001 0.007530 0.000001
# 3 -0.002414 -0.004295 0.023337 0.000001 -0.000089 -0.000001
# 4 0.000001 -0.000001 0.000001 0.048281 -0.000002 0.013268
# 5 -0.004894 0.007530 -0.000089 -0.000002 0.042457 0.000003
# 6 -0.000001 0.000001 -0.000001 0.013268 0.000003 0.029073
#
#
# Mechanical properties :
#
#
# Convention : Reuss Voigt Hill
#
# Bulk Modulus (GPa) = 35.06175 45.93669 40.49922
# Shear Modulus (GPa) = 25.05700 30.97752 28.01726
#
# Velocity S-wave (km/s) = 3.44305 3.82827 3.64076
# Velocity P-wave (km/s) = 5.69158 6.42447 6.06909
#
# Compressibility (1/GPa) = 0.02852111
#
# Stress axis : x y z
#
# Youngs Moduli (GPa) = 61.20983 103.09094 42.85113
#
# Poissons Ratio (x) = 0.38320 0.10344
# Poissons Ratio (y) = 0.22753 0.18406
# Poissons Ratio (z) = 0.14776 0.44282
#
# Static dielectric constant tensor:
#      x y z
#    x 1.823730 0.000000 -0.002290 
#    y 0.000000 1.749900 0.000000 
#    z -0.002290 0.000000 1.698170 
# 
# From -- ./inp_files/89406.got.cif
#   From: 2010.05.17/outbox.cif.g08.bks.cpg/sg15_45_cif.got.tgz:89406.got - 2010.06.03 18:47:42.
