data_PCOD9295532
_publ_section_title
;
Structure prediction by ZEFSAII (Michael W. Deem and Ramdas Pophale) SiO2 
 PCOD9295532
Probable space group: C 2/C
;
_chemical_formula_sum "Si O2"
_cell_formula_units_Z 36
_cell_length_a 12.491536
_cell_length_b 17.072644
_cell_length_c 14.139811
_cell_angle_alpha 90.000000
_cell_angle_beta 33.635115
_cell_angle_gamma 90.000000
_cell_volume 1670.294701
_symmetry_space_group_name_H-M "C 2/C"
_symmetry_group_IT_number 15
_symmetry_cell_setting 'monoclinic'
loop_
_space_group_symop_operation_xyz
x,y,z
-x,y,1/2-z
-x,-y,-z
x,-y,1/2+z
1/2+x,1/2+y,z
1/2-x,1/2+y,1/2-z
1/2-x,1/2-y,-z
1/2+x,1/2-y,1/2+z
loop_
_atom_site_type_symbol
_atom_site_label
_atom_site_fract_x
_atom_site_fract_y
_atom_site_fract_z
Si Si1 0.336481 0.163493 0.450169
Si Si2 0.467176 0.441838 0.608153
Si Si3 0.500000 0.445725 0.250000
Si Si4 0.433031 0.908309 0.552938
Si Si5 0.789180 0.840521 0.954543
O O1 0.500000 0.149467 0.250000
O O2 0.250000 0.250000 0.500000
O O3 0.418848 0.144057 0.494865
O O4 0.155586 0.104732 0.579340
O O5 0.500000 0.500000 0.500000
O O6 0.412100 0.496233 0.738020
O O7 0.268865 0.395439 0.741041
O O8 0.658248 0.391830 0.491770
O O9 0.377800 0.876571 0.489017
O O10 0.500000 0.000000 0.500000
O O11 0.000000 0.843524 0.750000
O O12 0.750000 0.750000 0.000000
#
# Coordination Sequence:
#
# PCOD9295532 Si02
#       5
#     8   8   4   8   8
#     4  12  26  44  69 106 144 189 237 294 369 424
#     4  11  22  42  73 100 135 187 237 291 357 420
#     4  12  22  48  72 102 150 176 250 308 336 438
#     4  11  22  42  69  94 136 181 229 290 349 420
#     4  10  23  43  63  98 137 170 229 289 351 416
#
# _framework density 21.553082
#
# number of rings (size 3 to 8) (size 9 to 14) (size 15 to 20)
#    0.000    0.889    6.667    1.333    0.000    7.111 
#    0.000    1.111    0.000    0.000    0.000    0.000 
#    0.000    0.000    0.000    0.000    0.000    0.000 
#
# Total GULP energy -100383.356294 kJ/mol
# GULP energy per Si atom -5576.853127 kJ/mol
# Density = 2.150403 g / cm^3
# Si number density = 21.553082 Si / 1000 Ang^3
#
#
#
# Elastic Constant Matrix: (Units=GPa)
#
#
# Indices 1 2 3 4 5 6 
#
# 1 142.5546 81.6557 7.8280 -0.0012 -19.8103 0.0009
# 2 81.6557 167.5367 24.6447 0.0026 -9.4856 -0.0005
# 3 7.8280 24.6447 69.9693 0.0036 -6.2967 0.0001
# 4 -0.0012 0.0026 0.0036 40.3780 -0.0004 -5.6724
# 5 -19.8103 -9.4856 -6.2967 -0.0004 32.4385 -0.0008
# 6 0.0009 -0.0005 0.0001 -5.6724 -0.0008 46.2224
#
#
#
# Elastic Compliance Matrix: (Units=1/GPa)
#
#
# Indices 1 2 3 4 5 6 
#
# 1 0.010540 -0.004998 0.001047 0.000001 0.005178 0.000000
# 2 -0.004998 0.008731 -0.002607 0.000000 -0.001005 0.000000
# 3 0.001047 -0.002607 0.015350 -0.000001 0.002857 0.000000
# 4 0.000001 0.000000 -0.000001 0.025200 0.000000 0.003093
# 5 0.005178 -0.001005 0.002857 0.000000 0.034251 0.000001
# 6 0.000000 0.000000 0.000000 0.003093 0.000001 0.022014
#
#
# Mechanical properties :
#
#
# Convention : Reuss Voigt Hill
#
# Bulk Modulus (GPa) = 46.49744 67.59081 57.04413
# Shear Modulus (GPa) = 36.66503 41.53658 39.10080
#
# Velocity S-wave (km/s) = 4.12897 4.39472 4.26392
# Velocity P-wave (km/s) = 6.65969 7.56173 7.12500
#
# Compressibility (1/GPa) = 0.02150656
#
# Stress axis : x y z
#
# Youngs Moduli (GPa) = 94.87885 114.53090 65.14637
#
# Poissons Ratio (x) = 0.57240 -0.06822
# Poissons Ratio (y) = 0.47419 0.16981
# Poissons Ratio (z) = -0.09936 0.29854
#
# Static dielectric constant tensor:
#      x y z
#    x 2.035280 0.000000 -0.115320 
#    y 0.000000 1.819840 0.000000 
#    z -0.115320 0.000000 1.869530 
# 
# From -- ./inp_files/55960.got.cif
#   From: 2010.05.17/outbox.cif.g08.bks.cpg/sg15_28_cif.got.tgz:55960.got - 2010.06.03 18:47:42.
