data_PCOD9295577
_publ_section_title
;
Structure prediction by ZEFSAII (Michael W. Deem and Ramdas Pophale) SiO2 
 PCOD9295577
Probable space group: C 2/C
;
_chemical_formula_sum "Si O2"
_cell_formula_units_Z 56
_cell_length_a 26.909450
_cell_length_b 9.148303
_cell_length_c 10.823789
_cell_angle_alpha 90.000000
_cell_angle_beta 117.645301
_cell_angle_gamma 90.000000
_cell_volume 2360.361345
_symmetry_space_group_name_H-M "C 2/C"
_symmetry_group_IT_number 15
_symmetry_cell_setting 'monoclinic'
loop_
_space_group_symop_operation_xyz
x,y,z
-x,y,1/2-z
-x,-y,-z
x,-y,1/2+z
1/2+x,1/2+y,z
1/2-x,1/2+y,1/2-z
1/2-x,1/2-y,-z
1/2+x,1/2-y,1/2+z
loop_
_atom_site_type_symbol
_atom_site_label
_atom_site_fract_x
_atom_site_fract_y
_atom_site_fract_z
Si Si1 0.966359 0.097368 0.592393
Si Si2 0.933190 0.358129 0.179503
Si Si3 0.108273 0.314543 0.851714
Si Si4 0.778584 0.262575 0.368383
Si Si5 0.424712 0.324819 0.432458
Si Si6 0.754308 0.000790 0.509302
Si Si7 0.827850 0.250295 0.152484
O O1 0.936297 0.236314 0.612686
O O2 0.000000 0.028824 0.750000
O O3 0.011166 0.154549 0.543986
O O4 0.920063 0.984116 0.488815
O O5 0.914756 0.522313 0.189888
O O6 0.894860 0.263646 0.228880
O O7 0.000000 0.344314 0.250000
O O8 0.915538 0.298566 0.024416
O O9 0.109471 0.224082 0.726005
O O10 0.167087 0.300760 0.986605
O O11 0.752484 0.115146 0.394352
O O12 0.740911 0.402224 0.360888
O O13 0.798751 0.249210 0.252549
O O14 0.807540 0.894794 0.560295
O O15 0.701204 0.890716 0.447002
#
# Coordination Sequence:
#
# PCOD9295577 Si02
#       7
#     8   8   8   8   8   8   8
#     4   9  20  42  65  92 130 187 241 285 336 401
#     4  12  27  43  67 105 145 191 230 277 350 415
#     4  11  25  41  66 103 138 181 232 283 355 407
#     4  11  24  45  74 105 138 177 228 300 350 411
#     4  10  23  43  65  92 140 186 233 288 327 416
#     4  10  24  49  72 106 133 179 238 286 360 403
#     4  11  25  47  74 104 138 183 232 289 343 423
#
# _framework density 23.725179000000001
#
# number of rings (size 3 to 8) (size 9 to 14) (size 15 to 20)
#    0.000    1.429    1.429    2.571    6.000    2.286 
#   10.286    0.000    0.000    0.000    0.000    0.000 
#    0.000    0.000    0.000    0.000    0.000    0.000 
#
# Total GULP energy -156547.620519 kJ/mol
# GULP energy per Si atom -5590.986447 kJ/mol
# Density = 2.367118 g / cm^3
# Si number density = 23.725179 Si / 1000 Ang^3
#
#
#
# Elastic Constant Matrix: (Units=GPa)
#
#
# Indices 1 2 3 4 5 6 
#
# 1 93.0854 31.8571 9.4508 0.0000 -0.9571 0.0000
# 2 31.8571 114.1823 21.9739 0.0000 1.8517 0.0000
# 3 9.4508 21.9739 36.8049 0.0000 -16.3795 0.0000
# 4 0.0000 0.0000 0.0000 21.3724 0.0000 -7.5984
# 5 -0.9571 1.8517 -16.3795 0.0000 40.7210 0.0000
# 6 0.0000 0.0000 0.0000 -7.5984 0.0000 28.1959
#
#
#
# Elastic Compliance Matrix: (Units=1/GPa)
#
#
# Indices 1 2 3 4 5 6 
#
# 1 0.011925 -0.003083 -0.001260 0.000000 -0.000086 0.000000
# 2 -0.003083 0.011105 -0.007424 0.000000 -0.003564 0.000000
# 3 -0.001260 -0.007424 0.039055 0.000000 0.016017 0.000000
# 4 0.000000 0.000000 0.000000 0.051747 0.000000 0.013945
# 5 -0.000086 -0.003564 0.016017 0.000000 0.031160 0.000000
# 6 0.000000 0.000000 0.000000 0.013945 0.000000 0.039224
#
#
# Mechanical properties :
#
#
# Convention : Reuss Voigt Hill
#
# Bulk Modulus (GPa) = 25.94033 41.18183 33.56108
# Shear Modulus (GPa) = 22.66547 30.11058 26.38803
#
# Velocity S-wave (km/s) = 3.09420 3.56636 3.33864
# Velocity P-wave (km/s) = 4.87061 5.86124 5.38874
#
# Compressibility (1/GPa) = 0.03855001
#
# Stress axis : x y z
#
# Youngs Moduli (GPa) = 83.85717 90.05179 25.60522
#
# Poissons Ratio (x) = 0.27766 0.03225
# Poissons Ratio (y) = 0.25856 0.19010
# Poissons Ratio (z) = 0.10563 0.66856
#
# Static dielectric constant tensor:
#      x y z
#    x 1.944980 0.000000 -0.012960 
#    y 0.000000 1.917900 0.000000 
#    z -0.012960 0.000000 1.930090 
# 
# From -- ./inp_files/125623.got.cif
#   From: 2010.05.17/outbox.cif.g08.bks.cpg/sg15_63_cif.got.tgz:125623.got - 2010.06.03 18:47:42.
