data_PCOD9295249
_publ_section_title
;
Structure prediction by ZEFSAII (Michael W. Deem and Ramdas Pophale) SiO2 
 PCOD9295249
Probable space group: C 2/C
;
_chemical_formula_sum "Si O2"
_cell_formula_units_Z 48
_cell_length_a 11.034282
_cell_length_b 10.559765
_cell_length_c 23.250762
_cell_angle_alpha 90.000000
_cell_angle_beta 55.439671
_cell_angle_gamma 90.000000
_cell_volume 2231.077208
_symmetry_space_group_name_H-M "C 2/C"
_symmetry_group_IT_number 15
_symmetry_cell_setting 'monoclinic'
loop_
_space_group_symop_operation_xyz
x,y,z
-x,y,1/2-z
-x,-y,-z
x,-y,1/2+z
1/2+x,1/2+y,z
1/2-x,1/2+y,1/2-z
1/2-x,1/2-y,-z
1/2+x,1/2-y,1/2+z
loop_
_atom_site_type_symbol
_atom_site_label
_atom_site_fract_x
_atom_site_fract_y
_atom_site_fract_z
Si Si1 0.647494 0.652562 0.493512
Si Si2 0.039427 0.369938 0.459412
Si Si3 0.471291 0.270526 0.867802
Si Si4 0.000000 0.600641 0.750000
Si Si5 0.000000 0.825857 0.250000
Si Si6 0.263524 0.890208 0.836576
Si Si7 0.363219 0.527238 0.885823
O O1 0.750000 0.750000 0.500000
O O2 0.521135 0.744815 0.503552
O O3 0.730690 0.602468 0.414304
O O4 0.607000 0.556135 0.554642
O O5 0.957037 0.330907 0.423411
O O6 0.214903 0.398656 0.405288
O O7 0.000000 0.500000 0.500000
O O8 0.507549 0.189248 0.802921
O O9 0.608161 0.359829 0.849316
O O10 0.347655 0.375311 0.886888
O O11 0.855751 0.512101 0.793142
O O12 0.135560 0.728540 0.209451
O O13 0.014080 0.915210 0.190085
#
# Coordination Sequence:
#
# PCOD9295249 Si02
#       7
#     8   8   8   4   4   8   8
#     4   9  18  41  64  95 122 175 219 265 326 389
#     4  10  23  42  67  97 133 171 222 278 333 395
#     4  11  25  44  63 102 131 172 225 269 336 398
#     4  11  27  42  66  96 135 177 222 276 326 405
#     4  11  19  40  66  98 127 181 214 278 340 385
#     4  10  23  42  67  94 133 172 226 271 327 400
#     4  11  23  40  71  94 137 173 224 278 330 405
#
# _framework density 21.51427
#
# number of rings (size 3 to 8) (size 9 to 14) (size 15 to 20)
#    0.000    1.667    5.000    0.500    7.000    4.667 
#    3.000    0.000    0.000    0.000    0.000    0.000 
#    0.000    0.000    0.000    0.000    0.000    0.000 
#
# Total GULP energy -133757.004282 kJ/mol
# GULP energy per Si atom -5573.208512 kJ/mol
# Density = 2.146530 g / cm^3
# Si number density = 21.514270 Si / 1000 Ang^3
#
#
#
# Elastic Constant Matrix: (Units=GPa)
#
#
# Indices 1 2 3 4 5 6 
#
# 1 11.0704 -1.8167 -7.5659 0.0000 1.9694 0.0000
# 2 -1.8167 126.6195 62.1218 0.0000 6.6061 0.0000
# 3 -7.5659 62.1218 105.9868 0.0000 16.2798 0.0000
# 4 0.0000 0.0000 0.0000 44.2770 0.0000 11.4071
# 5 1.9694 6.6061 16.2798 0.0000 32.7799 0.0000
# 6 0.0000 0.0000 0.0000 11.4071 0.0000 0.8255
#
#
#
# Elastic Compliance Matrix: (Units=1/GPa)
#
#
# Indices 1 2 3 4 5 6 
#
# 1 0.098897 -0.003213 0.010562 0.000000 -0.010540 0.000000
# 2 -0.003213 0.011225 -0.007027 0.000000 0.001421 0.000000
# 3 0.010562 -0.007027 0.015359 0.000000 -0.006847 0.000000
# 4 0.000000 0.000000 0.000000 -0.008822 0.000000 0.121908
# 5 -0.010540 0.001421 -0.006847 0.000000 0.034254 0.000000
# 6 0.000000 0.000000 0.000000 0.121908 0.000000 -0.473188
#
#
# Mechanical properties :
#
#
# Convention : Reuss Voigt Hill
#
# Bulk Modulus (GPa) = 7.92863 38.79501 23.36182
# Shear Modulus (GPa) = -17.80134 28.30565 5.25216
#
# Velocity S-wave (km/s) = -2.87961 3.63115 1.56414
# Velocity P-wave (km/s) = 2.71347 5.97090 3.76090
#
# Compressibility (1/GPa) = 0.12612512
#
# Stress axis : x y z
#
# Youngs Moduli (GPa) = 10.11157 89.08729 65.10685
#
# Poissons Ratio (x) = 0.28624 -0.68765
# Poissons Ratio (y) = 0.03249 0.45749
# Poissons Ratio (z) = -0.10680 0.62600
#
# Static dielectric constant tensor:
#      x y z
#    x 1.873130 0.000000 -0.077440 
#    y 0.000000 1.801170 0.000000 
#    z -0.077440 0.000000 1.848940 
# 
# From -- ./inp_files/236859.got.cif
#   From: 2010.05.17/outbox.cif.g08.bks.cpg/sg15_119_cif.got.tgz:236859.got - 2010.06.03 18:47:42.
