data_PCOD9295895
_publ_section_title
;
Structure prediction by ZEFSAII (Michael W. Deem and Ramdas Pophale) SiO2 
 PCOD9295895
Probable space group: C 2/C
;
_chemical_formula_sum "Si O2"
_cell_formula_units_Z 52
_cell_length_a 9.030305
_cell_length_b 17.603193
_cell_length_c 20.622342
_cell_angle_alpha 90.000000
_cell_angle_beta 130.327519
_cell_angle_gamma 90.000000
_cell_volume 2499.139985
_symmetry_space_group_name_H-M "C 2/C"
_symmetry_group_IT_number 15
_symmetry_cell_setting 'monoclinic'
loop_
_space_group_symop_operation_xyz
x,y,z
-x,y,1/2-z
-x,-y,-z
x,-y,1/2+z
1/2+x,1/2+y,z
1/2-x,1/2+y,1/2-z
1/2-x,1/2-y,-z
1/2+x,1/2-y,1/2+z
loop_
_atom_site_type_symbol
_atom_site_label
_atom_site_fract_x
_atom_site_fract_y
_atom_site_fract_z
Si Si1 0.844131 0.433965 0.462085
Si Si2 0.583026 0.798210 0.919597
Si Si3 0.819858 0.765337 0.744119
Si Si4 0.726286 0.369077 0.650141
Si Si5 0.000000 0.494848 0.250000
Si Si6 0.556051 0.110903 0.648904
Si Si7 0.631353 0.546483 0.486706
O O1 0.924081 0.373327 0.537138
O O2 0.825560 0.399453 0.384757
O O3 0.668067 0.481914 0.442451
O O4 0.000000 0.500000 0.500000
O O5 0.377349 0.755146 0.853744
O O6 0.669235 0.818221 0.873714
O O7 0.750000 0.750000 0.000000
O O8 0.760169 0.832231 0.775844
O O9 0.894891 0.693626 0.807770
O O10 0.000000 0.787026 0.750000
O O11 0.501540 0.383964 0.573427
O O12 0.835903 0.449118 0.677058
O O13 0.904791 0.445148 0.279738
O O14 0.333249 0.085145 0.568162
O O15 0.500000 0.500000 0.500000
#
# Coordination Sequence:
#
# PCOD9295895 Si02
#       7
#     8   8   8   8   4   8   8
#     4  10  23  43  72 103 138 183 238 301 361 429
#     4  12  26  47  72  98 147 193 242 294 372 448
#     4  12  29  45  68 109 150 191 244 306 370 430
#     4  12  25  44  73 100 142 192 244 293 375 437
#     4  12  22  46  72  96 142 192 236 302 354 442
#     4  11  25  45  71 104 151 184 242 305 364 436
#     4  11  22  42  75 108 135 188 241 300 366 434
#
# _framework density 20.807157
#
# number of rings (size 3 to 8) (size 9 to 14) (size 15 to 20)
#    0.000    0.615    5.385    1.846    6.462    1.846 
#    0.000    1.538    0.000    0.000    0.000    0.000 
#    0.000    0.000    0.000    0.000    0.000    0.000 
#
# Total GULP energy -145043.728028 kJ/mol
# GULP energy per Si atom -5578.604924 kJ/mol
# Density = 2.075980 g / cm^3
# Si number density = 20.807157 Si / 1000 Ang^3
#
#
#
# Elastic Constant Matrix: (Units=GPa)
#
#
# Indices 1 2 3 4 5 6 
#
# 1 145.3700 24.6182 43.0183 0.0000 -15.1554 0.0000
# 2 24.6182 54.3523 9.8026 0.0000 5.3618 0.0000
# 3 43.0183 9.8026 85.5803 0.0000 18.7774 0.0000
# 4 0.0000 0.0000 0.0000 41.4348 0.0000 -13.8388
# 5 -15.1554 5.3618 18.7774 0.0000 42.2984 0.0000
# 6 0.0000 0.0000 0.0000 -13.8388 0.0000 22.1308
#
#
#
# Elastic Compliance Matrix: (Units=1/GPa)
#
#
# Indices 1 2 3 4 5 6 
#
# 1 0.010105 -0.004152 -0.006109 0.000000 0.006859 0.000000
# 2 -0.004152 0.020588 0.000695 0.000000 -0.004406 0.000000
# 3 -0.006109 0.000695 0.016813 0.000000 -0.009741 0.000000
# 4 0.000000 0.000000 0.000000 0.030505 0.000000 0.019076
# 5 0.006859 -0.004406 -0.009741 0.000000 0.030982 0.000000
# 6 0.000000 0.000000 0.000000 0.019076 0.000000 0.057114
#
#
# Mechanical properties :
#
#
# Convention : Reuss Voigt Hill
#
# Bulk Modulus (GPa) = 35.24074 48.90898 42.07486
# Shear Modulus (GPa) = 25.68107 35.03036 30.35571
#
# Velocity S-wave (km/s) = 3.51699 4.10759 3.82371
# Velocity P-wave (km/s) = 5.78497 6.78625 6.30552
#
# Compressibility (1/GPa) = 0.02837625
#
# Stress axis : x y z
#
# Youngs Moduli (GPa) = 98.96278 48.57153 59.47743
#
# Poissons Ratio (x) = 0.20166 0.36333
# Poissons Ratio (y) = 0.41087 -0.04136
# Poissons Ratio (z) = 0.60453 -0.03378
#
# Static dielectric constant tensor:
#      x y z
#    x 1.779530 0.000000 -0.050590 
#    y 0.000000 1.767920 0.000000 
#    z -0.050590 0.000000 1.745520 
# 
# From -- ./inp_files/233127.got.cif
#   From: 2010.05.17/outbox.cif.g08.bks.cpg/sg15_117_cif.got.tgz:233127.got - 2010.06.03 18:47:42.
