data_PCOD9295977
_publ_section_title
;
Structure prediction by ZEFSAII (Michael W. Deem and Ramdas Pophale) SiO2 
 PCOD9295977
Probable space group: C 2/C
;
_chemical_formula_sum "Si O2"
_cell_formula_units_Z 36
_cell_length_a 9.293434
_cell_length_b 8.882567
_cell_length_c 23.444232
_cell_angle_alpha 90.000000
_cell_angle_beta 63.381961
_cell_angle_gamma 90.000000
_cell_volume 1730.193445
_symmetry_space_group_name_H-M "C 2/C"
_symmetry_group_IT_number 15
_symmetry_cell_setting 'monoclinic'
loop_
_space_group_symop_operation_xyz
x,y,z
-x,y,1/2-z
-x,-y,-z
x,-y,1/2+z
1/2+x,1/2+y,z
1/2-x,1/2+y,1/2-z
1/2-x,1/2-y,-z
1/2+x,1/2-y,1/2+z
loop_
_atom_site_type_symbol
_atom_site_label
_atom_site_fract_x
_atom_site_fract_y
_atom_site_fract_z
Si Si1 0.750022 0.903516 0.535794
Si Si2 0.033333 0.574395 0.866794
Si Si3 0.610719 0.494999 0.682975
Si Si4 0.000000 0.699961 0.750000
Si Si5 0.465745 0.394456 0.923001
O O1 0.750000 0.750000 0.500000
O O2 0.879781 0.904455 0.563807
O O3 0.576003 0.937365 0.593086
O O4 0.814359 0.033576 0.481989
O O5 0.949431 0.721668 0.908107
O O6 0.215217 0.563742 0.856173
O O7 0.041451 0.600760 0.797333
O O8 0.500000 0.574455 0.750000
O O9 0.631500 0.324302 0.705272
O O10 0.517602 0.480835 0.640093
#
# Coordination Sequence:
#
# PCOD9295977 Si02
#       5
#     8   8   8   4   8
#     4  11  25  41  66  99 129 168 216 261 321 381
#     4  11  22  42  68  91 127 171 209 263 323 374
#     4   9  21  42  62  94 128 163 212 264 317 377
#     4   8  22  38  60  94 126 166 206 264 316 380
#     4  10  23  44  62  96 130 165 211 264 318 379
#
# _framework density 20.806922
#
# number of rings (size 3 to 8) (size 9 to 14) (size 15 to 20)
#    0.667    1.333    0.000    2.000    3.111   10.667 
#    4.000    0.000    0.000    0.000    0.000    0.000 
#    0.000    0.000    0.000    0.000    0.000    0.000 
#
# Total GULP energy -100379.397044 kJ/mol
# GULP energy per Si atom -5576.633169 kJ/mol
# Density = 2.075956 g / cm^3
# Si number density = 20.806922 Si / 1000 Ang^3
#
#
#
# Elastic Constant Matrix: (Units=GPa)
#
#
# Indices 1 2 3 4 5 6 
#
# 1 69.2028 25.2181 52.0040 0.0000 3.2206 0.0000
# 2 25.2181 59.9542 38.7274 0.0000 3.4939 0.0000
# 3 52.0040 38.7274 126.3927 0.0000 19.5027 0.0000
# 4 0.0000 0.0000 0.0000 22.8945 0.0000 -2.3407
# 5 3.2206 3.4939 19.5027 0.0000 37.6308 0.0000
# 6 0.0000 0.0000 0.0000 -2.3407 0.0000 24.6212
#
#
#
# Elastic Compliance Matrix: (Units=1/GPa)
#
#
# Indices 1 2 3 4 5 6 
#
# 1 0.021992 -0.004103 -0.008217 0.000000 0.002757 0.000000
# 2 -0.004103 0.021638 -0.005093 0.000000 0.000982 0.000000
# 3 -0.008217 -0.005093 0.013773 0.000000 -0.005962 0.000000
# 4 0.000000 0.000000 0.000000 0.044107 0.000000 0.004193
# 5 0.002757 0.000982 -0.005962 0.000000 0.029337 0.000000
# 6 0.000000 0.000000 0.000000 0.004193 0.000000 0.041014
#
#
# Mechanical properties :
#
#
# Convention : Reuss Voigt Hill
#
# Bulk Modulus (GPa) = 44.29365 54.16096 49.22731
# Shear Modulus (GPa) = 23.34123 26.33597 24.83860
#
# Velocity S-wave (km/s) = 3.35296 3.56157 3.45884
# Velocity P-wave (km/s) = 6.02694 6.55743 6.29777
#
# Compressibility (1/GPa) = 0.02257660
#
# Stress axis : x y z
#
# Youngs Moduli (GPa) = 45.47140 46.21474 72.60535
#
# Poissons Ratio (x) = 0.18964 0.59657
# Poissons Ratio (y) = 0.18659 0.36979
# Poissons Ratio (z) = 0.37362 0.23538
#
# Static dielectric constant tensor:
#      x y z
#    x 1.720810 0.000000 0.003350 
#    y 0.000000 1.774690 0.000000 
#    z 0.003350 0.000000 1.764630 
# 
# From -- ./inp_files/194876.got.cif
#   From: 2010.05.17/outbox.cif.g08.bks.cpg/sg15_98_cif.got.tgz:194876.got - 2010.06.03 18:47:42.
