data_PCOD9295379
_publ_section_title
;
Structure prediction by ZEFSAII (Michael W. Deem and Ramdas Pophale) SiO2 
 PCOD9295379
Probable space group: C 2/C
;
_chemical_formula_sum "Si O2"
_cell_formula_units_Z 32
_cell_length_a 24.914515
_cell_length_b 10.601247
_cell_length_c 4.915717
_cell_angle_alpha 90.000000
_cell_angle_beta 60.279875
_cell_angle_gamma 90.000000
_cell_volume 1127.573341
_symmetry_space_group_name_H-M "C 2/C"
_symmetry_group_IT_number 15
_symmetry_cell_setting 'monoclinic'
loop_
_space_group_symop_operation_xyz
x,y,z
-x,y,1/2-z
-x,-y,-z
x,-y,1/2+z
1/2+x,1/2+y,z
1/2-x,1/2+y,1/2-z
1/2-x,1/2-y,-z
1/2+x,1/2-y,1/2+z
loop_
_atom_site_type_symbol
_atom_site_label
_atom_site_fract_x
_atom_site_fract_y
_atom_site_fract_z
Si Si1 0.000000 0.000000 0.500000
Si Si2 0.704378 0.414644 0.780370
Si Si3 0.410531 0.284993 0.159619
Si Si4 0.500000 0.097830 0.250000
Si Si5 0.156230 0.407715 0.025041
O O1 0.000000 0.094554 0.750000
O O2 0.053809 0.912064 0.544361
O O3 0.699642 0.460094 0.482386
O O4 0.649279 0.671484 0.521737
O O5 0.772656 0.360867 0.662380
O O6 0.448479 0.190411 0.252305
O O7 0.388644 0.202859 0.956254
O O8 0.500000 0.000000 0.500000
O O9 0.148953 0.520665 0.825842
#
# Coordination Sequence:
#
# PCOD9295379 Si02
#       5
#     4   8   8   4   8
#     4  12  28  46  68 106 140 192 238 294 360 424
#     4  10  23  42  70 107 141 180 235 297 366 430
#     4  12  25  47  73 101 150 187 245 297 363 427
#     4  12  30  48  70 102 140 198 246 294 352 424
#     4  10  23  44  71 104 141 187 237 295 363 428
#
# _framework density 28.379527
#
# number of rings (size 3 to 8) (size 9 to 14) (size 15 to 20)
#    0.000    1.000    1.250    3.750    1.750    6.000 
#    0.000    7.500    0.000    0.000    0.000    0.000 
#    0.000    0.000    0.000    0.000    0.000    0.000 
#
# Total GULP energy -89432.102103 kJ/mol
# GULP energy per Si atom -5589.506381 kJ/mol
# Density = 2.831493 g / cm^3
# Si number density = 28.379527 Si / 1000 Ang^3
#
#
#
# Elastic Constant Matrix: (Units=GPa)
#
#
# Indices 1 2 3 4 5 6 
#
# 1 174.4271 114.4894 34.6531 0.0000 -9.3931 0.0000
# 2 114.4894 200.9103 36.8665 0.0000 -24.4482 0.0000
# 3 34.6531 36.8665 80.0522 0.0000 11.9207 0.0000
# 4 0.0000 0.0000 0.0000 -8.9405 0.0000 -8.7186
# 5 -9.3931 -24.4482 11.9207 0.0000 58.1652 0.0000
# 6 0.0000 0.0000 0.0000 -8.7186 0.0000 74.7861
#
#
#
# Elastic Compliance Matrix: (Units=1/GPa)
#
#
# Indices 1 2 3 4 5 6 
#
# 1 0.009381 -0.005069 -0.001686 0.000000 -0.000270 0.000000
# 2 -0.005069 0.008690 -0.002300 0.000000 0.003305 0.000000
# 3 -0.001686 -0.002300 0.014921 0.000000 -0.004297 0.000000
# 4 0.000000 0.000000 0.000000 -0.100433 0.000000 -0.011708
# 5 -0.000270 0.003305 -0.004297 0.000000 0.019419 0.000000
# 6 0.000000 0.000000 0.000000 -0.011708 0.000000 0.012006
#
#
# Mechanical properties :
#
#
# Convention : Reuss Voigt Hill
#
# Bulk Modulus (GPa) = 67.19774 91.93417 79.56596
# Shear Modulus (GPa) = -386.24867 42.76088 -171.74389
#
# Velocity S-wave (km/s) = -11.67890 3.88590 -7.78770
# Velocity P-wave (km/s) = 12.57508 7.25248 7.26409
#
# Compressibility (1/GPa) = 0.01488145
#
# Stress axis : x y z
#
# Youngs Moduli (GPa) = 106.60186 115.07085 67.02054
#
# Poissons Ratio (x) = 0.58331 0.11300
# Poissons Ratio (y) = 0.54038 0.15415
# Poissons Ratio (z) = 0.17973 0.26467
#
# Static dielectric constant tensor:
#      x y z
#    x 2.406210 0.000000 -0.148300 
#    y 0.000000 1.999340 0.000000 
#    z -0.148300 0.000000 1.815810 
# 
# From -- ./inp_files/14812.got.cif
#   From: 2010.05.17/outbox.cif.g08.bks.cpg/sg15_8_cif.got.tgz:14812.got - 2010.06.03 18:47:42.
