data_PCOD9295816
_publ_section_title
;
Structure prediction by ZEFSAII (Michael W. Deem and Ramdas Pophale) SiO2 
 PCOD9295816
Probable space group: C 2/C
;
_chemical_formula_sum "Si O2"
_cell_formula_units_Z 64
_cell_length_a 14.284106
_cell_length_b 15.711997
_cell_length_c 17.620368
_cell_angle_alpha 90.000000
_cell_angle_beta 49.922810
_cell_angle_gamma 90.000000
_cell_volume 3025.950169
_symmetry_space_group_name_H-M "C 2/C"
_symmetry_group_IT_number 15
_symmetry_cell_setting 'monoclinic'
loop_
_space_group_symop_operation_xyz
x,y,z
-x,y,1/2-z
-x,-y,-z
x,-y,1/2+z
1/2+x,1/2+y,z
1/2-x,1/2+y,1/2-z
1/2-x,1/2-y,-z
1/2+x,1/2-y,1/2+z
loop_
_atom_site_type_symbol
_atom_site_label
_atom_site_fract_x
_atom_site_fract_y
_atom_site_fract_z
Si Si1 0.995873 0.438771 0.161223
Si Si2 0.047257 0.368440 0.639841
Si Si3 0.096011 0.076027 0.135653
Si Si4 0.978923 0.189486 0.062141
Si Si5 0.709277 0.394857 0.060881
Si Si6 0.982922 0.191126 0.620217
Si Si7 0.709971 0.163465 0.817854
Si Si8 0.185235 0.681996 0.480091
O O1 0.875880 0.395112 0.189558
O O2 0.000000 0.431299 0.250000
O O3 0.004564 0.538000 0.136462
O O4 0.110061 0.387765 0.066712
O O5 0.194114 0.368211 0.554157
O O6 0.000000 0.355969 0.750000
O O7 0.995683 0.292768 0.616349
O O8 0.027220 0.127701 0.103804
O O9 0.000000 0.052073 0.250000
O O10 0.165034 0.991368 0.073097
O O11 0.201127 0.135666 0.118312
O O12 0.084012 0.261074 0.993019
O O13 0.857181 0.244045 0.143876
O O14 0.974396 0.148797 0.981413
O O15 0.586388 0.339638 0.124791
O O16 0.778059 0.377021 0.104501
O O17 0.845850 0.167615 0.713464
O O18 0.250000 0.750000 0.500000
#
# Coordination Sequence:
#
# PCOD9295816 Si02
#       8
#     8   8   8   8   8   8   8   8
#     4  10  23  43  70 102 136 180 232 290 344 422
#     4  11  24  43  73 100 133 187 236 286 350 418
#     4  11  24  43  69 100 142 186 232 289 359 420
#     4  10  25  41  67 106 131 184 233 289 348 420
#     4  12  25  48  69  99 143 189 235 296 350 423
#     4  12  26  44  71 100 144 181 235 294 353 420
#     4  11  25  44  69 100 141 186 233 284 366 423
#     4   9  20  38  63  94 136 171 219 282 348 407
#
# _framework density 21.150380999999999
#
# number of rings (size 3 to 8) (size 9 to 14) (size 15 to 20)
#    0.000    1.250    2.500    2.250    7.000    5.500 
#    2.250    0.000    0.000    0.000    0.000    0.000 
#    0.000    0.000    0.000    0.000    0.000    0.000 
#
# Total GULP energy -178689.225285 kJ/mol
# GULP energy per Si atom -5584.038290 kJ/mol
# Density = 2.110224 g / cm^3
# Si number density = 21.150381 Si / 1000 Ang^3
#
#
#
# Elastic Constant Matrix: (Units=GPa)
#
#
# Indices 1 2 3 4 5 6 
#
# 1 116.3815 47.2610 57.4716 0.0000 -8.4069 0.0000
# 2 47.2610 89.1342 20.5904 0.0000 -0.2296 0.0000
# 3 57.4716 20.5904 94.2278 0.0000 -24.2851 0.0000
# 4 0.0000 0.0000 0.0000 7.2992 0.0000 -3.8491
# 5 -8.4069 -0.2296 -24.2851 0.0000 41.1970 0.0000
# 6 0.0000 0.0000 0.0000 -3.8491 0.0000 27.1115
#
#
#
# Elastic Compliance Matrix: (Units=1/GPa)
#
#
# Indices 1 2 3 4 5 6 
#
# 1 0.015024 -0.006048 -0.008325 0.000000 -0.001876 0.000000
# 2 -0.006048 0.014354 0.000300 0.000000 -0.000977 0.000000
# 3 -0.008325 0.000300 0.017908 0.000000 0.008859 0.000000
# 4 0.000000 0.000000 0.000000 0.148089 0.000000 0.021025
# 5 -0.001876 -0.000977 0.008859 0.000000 0.029108 0.000000
# 6 0.000000 0.000000 0.000000 0.021025 0.000000 0.039870
#
#
# Mechanical properties :
#
#
# Convention : Reuss Voigt Hill
#
# Bulk Modulus (GPa) = 52.24579 61.15439 56.70009
# Shear Modulus (GPa) = 16.72920 26.74956 21.73938
#
# Velocity S-wave (km/s) = 2.81546 3.56016 3.20949
# Velocity P-wave (km/s) = 5.94346 6.77322 6.37186
#
# Compressibility (1/GPa) = 0.01914030
#
# Stress axis : x y z
#
# Youngs Moduli (GPa) = 66.55972 69.66792 55.84069
#
# Poissons Ratio (x) = 0.42133 0.46489
# Poissons Ratio (y) = 0.40254 -0.01677
# Poissons Ratio (z) = 0.55413 -0.02092
#
# Static dielectric constant tensor:
#      x y z
#    x 1.784350 0.000000 0.018080 
#    y 0.000000 1.786850 0.000000 
#    z 0.018080 0.000000 1.763820 
# 
# From -- ./inp_files/205693.got.cif
#   From: 2010.05.17/outbox.cif.g08.bks.cpg/sg15_103_cif.got.tgz:205693.got - 2010.06.03 18:47:42.
