data_PCOD9295587
_publ_section_title
;
Structure prediction by ZEFSAII (Michael W. Deem and Ramdas Pophale) SiO2 
 PCOD9295587
Probable space group: C 2/C
;
_chemical_formula_sum "Si O2"
_cell_formula_units_Z 60
_cell_length_a 22.474897
_cell_length_b 8.653943
_cell_length_c 14.929737
_cell_angle_alpha 90.000000
_cell_angle_beta 77.457203
_cell_angle_gamma 90.000000
_cell_volume 2834.479804
_symmetry_space_group_name_H-M "C 2/C"
_symmetry_group_IT_number 15
_symmetry_cell_setting 'monoclinic'
loop_
_space_group_symop_operation_xyz
x,y,z
-x,y,1/2-z
-x,-y,-z
x,-y,1/2+z
1/2+x,1/2+y,z
1/2-x,1/2+y,1/2-z
1/2-x,1/2-y,-z
1/2+x,1/2-y,1/2+z
loop_
_atom_site_type_symbol
_atom_site_label
_atom_site_fract_x
_atom_site_fract_y
_atom_site_fract_z
Si Si1 0.192944 0.799687 0.460076
Si Si2 0.978333 0.964319 0.908220
Si Si3 0.591786 0.799444 0.131862
Si Si4 0.210448 0.589615 0.280895
Si Si5 0.142592 0.876153 0.989453
Si Si6 0.662231 0.260795 0.793435
Si Si7 0.120459 0.350338 0.647031
Si Si8 0.000000 0.826622 0.250000
O O1 0.250000 0.750000 0.500000
O O2 0.135672 0.744962 0.535923
O O3 0.193640 0.706414 0.367159
O O4 0.190956 0.986412 0.457015
O O5 0.969743 0.792264 0.872933
O O6 0.910916 0.038892 0.937662
O O7 0.017145 0.063511 0.826870
O O8 0.000000 0.000000 0.000000
O O9 0.620493 0.747861 0.218134
O O10 0.593206 0.982850 0.131977
O O11 0.282204 0.620525 0.242802
O O12 0.192630 0.409147 0.301288
O O13 0.171058 0.635953 0.207291
O O14 0.153070 0.731592 0.051561
O O15 0.127687 0.813006 0.895119
O O16 0.060223 0.265687 0.704121
#
# Coordination Sequence:
#
# PCOD9295587 Si02
#       8
#     8   8   8   8   8   8   8   4
#     4  11  22  38  62  94 133 174 215 267 319 394
#     4  10  24  43  68  98 120 173 217 270 329 390
#     4  10  23  43  65  94 134 164 219 269 330 389
#     4  11  24  38  65  93 132 175 217 266 328 390
#     4  10  24  41  63  91 132 168 218 270 325 389
#     4  11  23  40  63  97 127 174 212 264 332 391
#     4  10  24  45  64  96 129 172 217 279 328 390
#     4  10  24  44  66  92 130 164 224 264 332 386
#
# _framework density 21.167907
#
# number of rings (size 3 to 8) (size 9 to 14) (size 15 to 20)
#    0.000    1.600    1.333    1.600    9.333    4.267 
#    2.400    1.333    0.000    0.000    0.000    0.000 
#    0.000    0.000    0.000    0.000    0.000    0.000 
#
# Total GULP energy -167350.140737 kJ/mol
# GULP energy per Si atom -5578.338025 kJ/mol
# Density = 2.111973 g / cm^3
# Si number density = 21.167907 Si / 1000 Ang^3
#
#
#
# Elastic Constant Matrix: (Units=GPa)
#
#
# Indices 1 2 3 4 5 6 
#
# 1 26.6276 28.2661 -1.8184 0.0000 6.0660 0.0000
# 2 28.2661 135.2103 61.9494 0.0000 16.3471 0.0000
# 3 -1.8184 61.9494 130.9023 0.0000 4.2818 0.0000
# 4 0.0000 0.0000 0.0000 38.9802 0.0000 -1.1864
# 5 6.0660 16.3471 4.2818 0.0000 33.6687 0.0000
# 6 0.0000 0.0000 0.0000 -1.1864 0.0000 20.5416
#
#
#
# Elastic Compliance Matrix: (Units=1/GPa)
#
#
# Indices 1 2 3 4 5 6 
#
# 1 0.054232 -0.014409 0.007695 0.000000 -0.003753 0.000000
# 2 -0.014409 0.013851 -0.006648 0.000000 -0.003283 0.000000
# 3 0.007695 -0.006648 0.010877 0.000000 0.000458 0.000000
# 4 0.000000 0.000000 0.000000 0.025699 0.000000 0.001484
# 5 -0.003753 -0.003283 0.000458 0.000000 0.031913 0.000000
# 6 0.000000 0.000000 0.000000 0.001484 0.000000 0.048767
#
#
# Mechanical properties :
#
#
# Convention : Reuss Voigt Hill
#
# Bulk Modulus (GPa) = 19.14371 52.17049 35.65710
# Shear Modulus (GPa) = 21.78882 32.26096 27.02489
#
# Velocity S-wave (km/s) = 3.21180 3.90814 3.57696
# Velocity P-wave (km/s) = 4.77678 6.71300 5.82589
#
# Compressibility (1/GPa) = 0.05223647
#
# Stress axis : x y z
#
# Youngs Moduli (GPa) = 18.43942 72.19715 91.93508
#
# Poissons Ratio (x) = 1.04031 -0.70747
# Poissons Ratio (y) = 0.26570 0.61116
# Poissons Ratio (z) = -0.14190 0.47995
#
# Static dielectric constant tensor:
#      x y z
#    x 1.726630 0.000000 0.004860 
#    y 0.000000 1.828920 0.000000 
#    z 0.004860 0.000000 1.726490 
# 
# From -- ./inp_files/176194.got.cif
#   From: 2010.05.17/outbox.cif.g08.bks.cpg/sg15_89_cif.got.tgz:176194.got - 2010.06.03 18:47:42.
