data_PCOD9295890
_publ_section_title
;
Structure prediction by ZEFSAII (Michael W. Deem and Ramdas Pophale) SiO2 
 PCOD9295890
Probable space group: C 2/C
;
_chemical_formula_sum "Si O2"
_cell_formula_units_Z 64
_cell_length_a 9.462816
_cell_length_b 17.978249
_cell_length_c 31.764978
_cell_angle_alpha 90.000000
_cell_angle_beta 36.418987
_cell_angle_gamma 90.000000
_cell_volume 3208.284323
_symmetry_space_group_name_H-M "C 2/C"
_symmetry_group_IT_number 15
_symmetry_cell_setting 'monoclinic'
loop_
_space_group_symop_operation_xyz
x,y,z
-x,y,1/2-z
-x,-y,-z
x,-y,1/2+z
1/2+x,1/2+y,z
1/2-x,1/2+y,1/2-z
1/2-x,1/2-y,-z
1/2+x,1/2-y,1/2+z
loop_
_atom_site_type_symbol
_atom_site_label
_atom_site_fract_x
_atom_site_fract_y
_atom_site_fract_z
Si Si1 0.321367 0.391035 0.569058
Si Si2 0.832560 0.182971 0.451200
Si Si3 0.630530 0.210298 0.330597
Si Si4 0.046078 0.010360 0.689086
Si Si5 0.476086 0.337388 0.823795
Si Si6 0.713783 0.618356 0.812512
Si Si7 0.945865 0.537648 0.968626
Si Si8 0.959191 0.044179 0.560531
O O1 0.439884 0.353525 0.580951
O O2 0.279836 0.477454 0.591194
O O3 0.505916 0.397895 0.485826
O O4 0.100241 0.340829 0.609766
O O5 0.750000 0.250000 0.500000
O O6 0.898085 0.196257 0.387036
O O7 0.628035 0.121277 0.503462
O O8 0.794519 0.189414 0.331198
O O9 0.603632 0.299040 0.335597
O O10 0.768763 0.187863 0.254809
O O11 0.319205 0.033653 0.615682
O O12 0.000000 0.006934 0.750000
O O13 0.872216 0.066834 0.705760
O O14 0.023136 0.927186 0.675326
O O15 0.614135 0.580897 0.878651
O O16 0.000000 0.624688 0.750000
O O17 0.717594 0.495072 0.004276
O O18 0.000000 0.500000 0.000000
#
# Coordination Sequence:
#
# PCOD9295890 Si02
#       8
#     8   8   8   8   8   8   8   8
#     4  10  24  43  67 102 129 180 229 277 351 409
#     4  11  26  41  67 101 138 175 220 291 347 397
#     4  11  25  45  69  96 140 183 226 287 345 419
#     4  12  25  43  77 102 130 189 238 280 346 414
#     4  11  23  47  68  99 134 184 232 270 346 421
#     4  12  27  44  65 104 142 177 228 294 349 405
#     4  11  21  44  68 100 134 173 239 285 329 425
#     4  10  23  43  71  99 136 178 235 291 334 414
#
# _framework density 19.948356
#
# number of rings (size 3 to 8) (size 9 to 14) (size 15 to 20)
#    0.000    1.000    5.000    1.500    5.250    4.000 
#    0.000    0.000    0.000    0.000    0.000    0.000 
#    0.000    0.000    0.000    0.000    0.000    0.000 
#
# Total GULP energy -178795.746699 kJ/mol
# GULP energy per Si atom -5587.367084 kJ/mol
# Density = 1.990295 g / cm^3
# Si number density = 19.948356 Si / 1000 Ang^3
#
#
#
# Elastic Constant Matrix: (Units=GPa)
#
#
# Indices 1 2 3 4 5 6 
#
# 1 71.7008 38.1779 35.3289 0.0015 16.6127 -0.0048
# 2 38.1779 128.9782 39.1790 -0.0025 6.8121 0.0010
# 3 35.3289 39.1790 119.7342 0.0096 23.1829 -0.0097
# 4 0.0015 -0.0025 0.0096 22.3308 -0.0054 4.5412
# 5 16.6127 6.8121 23.1829 -0.0054 33.8208 0.0050
# 6 -0.0048 0.0010 -0.0097 4.5412 0.0050 29.4300
#
#
#
# Elastic Compliance Matrix: (Units=1/GPa)
#
#
# Indices 1 2 3 4 5 6 
#
# 1 0.019304 -0.004467 -0.002966 -0.000003 -0.006549 0.000004
# 2 -0.004467 0.009644 -0.002175 0.000003 0.001743 -0.000003
# 3 -0.002966 -0.002175 0.011037 -0.000007 -0.005670 0.000005
# 4 -0.000003 0.000003 -0.000007 0.046232 0.000014 -0.007134
# 5 -0.006549 0.001743 -0.005670 0.000014 0.036320 -0.000011
# 6 0.000004 -0.000003 0.000005 -0.007134 -0.000011 0.035080
#
#
# Mechanical properties :
#
#
# Convention : Reuss Voigt Hill
#
# Bulk Modulus (GPa) = 48.15023 60.64276 54.39649
# Shear Modulus (GPa) = 27.20985 30.96481 29.08733
#
# Velocity S-wave (km/s) = 3.69726 3.94413 3.82269
# Velocity P-wave (km/s) = 6.51277 7.15594 6.84192
#
# Compressibility (1/GPa) = 0.02076833
#
# Stress axis : x y z
#
# Youngs Moduli (GPa) = 51.80153 103.68897 90.60762
#
# Poissons Ratio (x) = 0.46320 0.26876
# Poissons Ratio (y) = 0.23141 0.19708
# Poissons Ratio (z) = 0.15365 0.22553
#
# Static dielectric constant tensor:
#      x y z
#    x 1.721060 -0.000010 -0.017190 
#    y -0.000010 1.713080 0.000000 
#    z -0.017190 0.000000 1.691770 
# 
# From -- ./inp_files/308751.got.cif
#   From: 2010.05.17/outbox.cif.g08.bks.cpg/sg15_155_cif.got.tgz:308751.got - 2010.06.03 18:47:42.
