data_PCOD9295289
_publ_section_title
;
Structure prediction by ZEFSAII (Michael W. Deem and Ramdas Pophale) SiO2 
 PCOD9295289
Probable space group: C 2/C
;
_chemical_formula_sum "Si O2"
_cell_formula_units_Z 56
_cell_length_a 8.749492
_cell_length_b 30.950299
_cell_length_c 16.739670
_cell_angle_alpha 90.000000
_cell_angle_beta 144.999992
_cell_angle_gamma 90.000000
_cell_volume 2600.075551
_symmetry_space_group_name_H-M "C 2/C"
_symmetry_group_IT_number 15
_symmetry_cell_setting 'monoclinic'
loop_
_space_group_symop_operation_xyz
x,y,z
-x,y,1/2-z
-x,-y,-z
x,-y,1/2+z
1/2+x,1/2+y,z
1/2-x,1/2+y,1/2-z
1/2-x,1/2-y,-z
1/2+x,1/2-y,1/2+z
loop_
_atom_site_type_symbol
_atom_site_label
_atom_site_fract_x
_atom_site_fract_y
_atom_site_fract_z
Si Si1 0.751044 0.499270 0.814624
Si Si2 0.274031 0.236328 0.916410
Si Si3 0.309287 0.532820 0.874856
Si Si4 0.994548 0.349793 0.437459
Si Si5 0.562822 0.380198 0.123374
Si Si6 0.554335 0.074500 0.482816
Si Si7 0.778285 0.197024 0.915690
O O1 0.500000 0.478319 0.750000
O O2 0.626751 0.525345 0.689580
O O3 0.880535 0.537319 0.923078
O O4 0.926765 0.458360 0.864232
O O5 0.351334 0.186514 0.930988
O O6 0.000000 0.244984 0.750000
O O7 0.250000 0.250000 0.000000
O O8 0.522661 0.263385 0.987794
O O9 0.345131 0.583653 0.901799
O O10 0.000000 0.522384 0.750000
O O11 0.500000 0.500000 0.000000
O O12 0.774238 0.372386 0.285245
O O13 0.109040 0.388269 0.541252
O O14 0.195073 0.326260 0.462336
O O15 0.294347 0.398697 0.046826
O O16 0.563507 0.335907 0.074789
O O17 0.500000 0.207851 0.750000
#
# Coordination Sequence:
#
# PCOD9295289 Si02
#       7
#     8   8   8   8   8   8   8
#     4  11  23  39  61  92 129 174 224 279 337 396
#     4  12  25  45  73 106 140 181 226 286 351 420
#     4  12  25  41  63  94 131 171 222 282 338 393
#     4  11  21  40  69  98 129 178 233 272 329 417
#     4  11  21  41  66  98 126 183 231 275 331 416
#     4  11  21  38  64  91 128 170 231 278 325 395
#     4  10  23  42  68 102 138 175 226 287 339 410
#
# _framework density 21.537837
#
# number of rings (size 3 to 8) (size 9 to 14) (size 15 to 20)
#    0.000    0.857    2.857    6.429    2.000    0.000 
#    0.000    7.143    0.000    0.000    0.000    0.000 
#    0.000    0.000    0.000    0.000    0.000    0.000 
#
# Total GULP energy -156166.521852 kJ/mol
# GULP energy per Si atom -5577.375780 kJ/mol
# Density = 2.148882 g / cm^3
# Si number density = 21.537837 Si / 1000 Ang^3
#
#
#
# Elastic Constant Matrix: (Units=GPa)
#
#
# Indices 1 2 3 4 5 6 
#
# 1 75.9721 33.2988 9.6313 0.0000 8.5237 0.0000
# 2 33.2988 151.7151 52.1955 0.0000 17.2218 0.0000
# 3 9.6313 52.1955 43.4493 0.0000 7.3553 0.0000
# 4 0.0000 0.0000 0.0000 37.7158 0.0000 6.7339
# 5 8.5237 17.2218 7.3553 0.0000 29.9314 0.0000
# 6 0.0000 0.0000 0.0000 6.7339 0.0000 47.1850
#
#
#
# Elastic Compliance Matrix: (Units=1/GPa)
#
#
# Indices 1 2 3 4 5 6 
#
# 1 0.014773 -0.003364 0.001201 0.000000 -0.002566 0.000000
# 2 -0.003364 0.012319 -0.013580 0.000000 -0.002793 0.000000
# 3 0.001201 -0.013580 0.039438 0.000000 -0.002220 0.000000
# 4 0.000000 0.000000 0.000000 0.027207 0.000000 -0.003883
# 5 -0.002566 -0.002793 -0.002220 0.000000 0.036293 0.000000
# 6 0.000000 0.000000 0.000000 -0.003883 0.000000 0.021747
#
#
# Mechanical properties :
#
#
# Convention : Reuss Voigt Hill
#
# Bulk Modulus (GPa) = 28.53529 51.26530 39.90030
# Shear Modulus (GPa) = 25.64826 34.70050 30.17438
#
# Velocity S-wave (km/s) = 3.45461 4.01826 3.74705
# Velocity P-wave (km/s) = 5.40279 6.73666 6.10626
#
# Compressibility (1/GPa) = 0.03504432
#
# Stress axis : x y z
#
# Youngs Moduli (GPa) = 67.69111 81.17718 25.35599
#
# Poissons Ratio (x) = 0.27312 -0.03046
# Poissons Ratio (y) = 0.22774 0.34433
# Poissons Ratio (z) = -0.08133 1.10238
#
# Static dielectric constant tensor:
#      x y z
#    x 1.859700 0.000000 -0.066860 
#    y 0.000000 1.755190 0.000000 
#    z -0.066860 0.000000 1.787970 
# 
# From -- ./inp_files/193913.got.cif
#   From: 2010.05.17/outbox.cif.g08.bks.cpg/sg15_97_cif.got.tgz:193913.got - 2010.06.03 18:47:42.
