data_PCOD9295027
_publ_section_title
;
Structure prediction by ZEFSAII (Michael W. Deem and Ramdas Pophale) SiO2 
 PCOD9295027
Probable space group: C 2/C
;
_chemical_formula_sum "Si O2"
_cell_formula_units_Z 56
_cell_length_a 20.623979
_cell_length_b 9.161676
_cell_length_c 25.778373
_cell_angle_alpha 90.000000
_cell_angle_beta 152.514461
_cell_angle_gamma 90.000000
_cell_volume 2248.008047
_symmetry_space_group_name_H-M "C 2/C"
_symmetry_group_IT_number 15
_symmetry_cell_setting 'monoclinic'
loop_
_space_group_symop_operation_xyz
x,y,z
-x,y,1/2-z
-x,-y,-z
x,-y,1/2+z
1/2+x,1/2+y,z
1/2-x,1/2+y,1/2-z
1/2-x,1/2-y,-z
1/2+x,1/2-y,1/2+z
loop_
_atom_site_type_symbol
_atom_site_label
_atom_site_fract_x
_atom_site_fract_y
_atom_site_fract_z
Si Si1 0.057554 0.898520 0.960194
Si Si2 0.873232 0.834742 0.288853
Si Si3 0.501616 0.906663 0.136641
Si Si4 0.199269 0.208474 0.651905
Si Si5 0.639463 0.995117 0.064303
Si Si6 0.311619 0.027173 0.084732
Si Si7 0.411005 0.663842 0.643874
O O1 0.065352 0.856150 0.026115
O O2 0.215558 0.951006 0.058829
O O3 0.032320 0.756853 0.907060
O O4 0.944413 0.019466 0.864203
O O5 0.830903 0.747453 0.310080
O O6 0.993773 0.778936 0.336042
O O7 0.740316 0.870504 0.158226
O O8 0.670549 0.903869 0.254020
O O9 0.440558 0.942672 0.150018
O O10 0.420693 0.005430 0.036499
O O11 0.225071 0.355002 0.636672
O O12 0.500000 0.000000 0.000000
O O13 0.350953 0.191790 0.128263
O O14 0.202713 0.058132 0.960557
O O15 0.500000 0.581397 0.750000
#
# Coordination Sequence:
#
# PCOD9295027 Si02
#       7
#     8   8   8   8   8   8   8
#     4  10  23  43  62  94 130 161 218 265 318 387
#     4  11  22  43  66  92 132 168 211 271 321 379
#     4  11  22  40  66  94 128 163 218 261 329 384
#     4  11  24  39  64  99 126 171 212 263 329 385
#     4  11  23  41  63  92 131 167 214 260 319 392
#     4  10  23  42  64  93 124 171 212 265 318 380
#     4  10  23  42  62  92 128 166 220 257 318 384
#
# _framework density 24.910943
#
# number of rings (size 3 to 8) (size 9 to 14) (size 15 to 20)
#    0.000    1.429    2.857    1.714    4.000    0.000 
#    2.571    0.000    0.000    0.000    0.000    0.000 
#    0.000    0.000    0.000    0.000    0.000    0.000 
#
# Total GULP energy -156567.887228 kJ/mol
# GULP energy per Si atom -5591.710258 kJ/mol
# Density = 2.485424 g / cm^3
# Si number density = 24.910943 Si / 1000 Ang^3
#
#
#
# Elastic Constant Matrix: (Units=GPa)
#
#
# Indices 1 2 3 4 5 6 
#
# 1 84.5603 -1.1725 25.6808 0.0000 -1.5525 0.0000
# 2 -1.1725 37.3359 15.8636 -0.0001 -10.9837 0.0000
# 3 25.6808 15.8636 103.5426 -0.0006 -12.6421 0.0003
# 4 0.0000 -0.0001 -0.0006 -30.2681 -0.0002 33.6096
# 5 -1.5525 -10.9837 -12.6421 -0.0002 41.5908 0.0001
# 6 0.0000 0.0000 0.0003 33.6096 0.0001 15.9762
#
#
#
# Elastic Compliance Matrix: (Units=1/GPa)
#
#
# Indices 1 2 3 4 5 6 
#
# 1 0.012913 0.001866 -0.003499 0.000000 -0.000089 0.000000
# 2 0.001866 0.030700 -0.004329 0.000000 0.006862 0.000000
# 3 -0.003499 -0.004329 0.011459 0.000000 0.002209 0.000000
# 4 0.000000 0.000000 0.000000 -0.009904 0.000000 0.020834
# 5 -0.000089 0.006862 0.002209 0.000000 0.026524 0.000000
# 6 0.000000 0.000000 0.000000 0.020834 0.000000 0.018763
#
#
# Mechanical properties :
#
#
# Convention : Reuss Voigt Hill
#
# Bulk Modulus (GPa) = 23.17594 34.02030 28.59812
# Shear Modulus (GPa) = 42.82225 17.79758 30.30992
#
# Velocity S-wave (km/s) = 4.15060 2.67582 3.49195
# Velocity P-wave (km/s) = 5.68275 4.82007 5.26910
#
# Compressibility (1/GPa) = 0.04314820
#
# Stress axis : x y z
#
# Youngs Moduli (GPa) = 77.44194 32.57306 87.26976
#
# Poissons Ratio (x) = -0.06079 0.30540
# Poissons Ratio (y) = -0.14453 0.37776
# Poissons Ratio (z) = 0.27100 0.14100
#
# Static dielectric constant tensor:
#      x y z
#    x 1.954130 0.000000 0.011040 
#    y 0.000000 1.960430 0.000000 
#    z 0.011040 0.000000 2.001110 
# 
# From -- ./inp_files/280017.got.cif
#   From: 2010.05.17/outbox.cif.g08.bks.cpg/sg15_141_cif.got.tgz:280017.got - 2010.06.03 18:47:42.
