data_PCOD9295766
_publ_section_title
;
Structure prediction by ZEFSAII (Michael W. Deem and Ramdas Pophale) SiO2 
 PCOD9295766
Probable space group: C 2/C
;
_chemical_formula_sum "Si O2"
_cell_formula_units_Z 36
_cell_length_a 26.287192
_cell_length_b 5.860036
_cell_length_c 8.925248
_cell_angle_alpha 90.000000
_cell_angle_beta 67.663372
_cell_angle_gamma 90.000000
_cell_volume 1271.718501
_symmetry_space_group_name_H-M "C 2/C"
_symmetry_group_IT_number 15
_symmetry_cell_setting 'monoclinic'
loop_
_space_group_symop_operation_xyz
x,y,z
-x,y,1/2-z
-x,-y,-z
x,-y,1/2+z
1/2+x,1/2+y,z
1/2-x,1/2+y,1/2-z
1/2-x,1/2-y,-z
1/2+x,1/2-y,1/2+z
loop_
_atom_site_type_symbol
_atom_site_label
_atom_site_fract_x
_atom_site_fract_y
_atom_site_fract_z
Si Si1 0.814553 0.166989 0.853071
Si Si2 0.000000 0.696916 0.250000
Si Si3 0.088643 0.314930 0.154140
Si Si4 0.298071 0.019357 0.091110
Si Si5 0.432516 0.514730 0.598081
O O1 0.800595 0.377758 0.754457
O O2 0.874546 0.098074 0.736361
O O3 0.765899 0.983668 0.886011
O O4 0.813861 0.260249 0.023967
O O5 0.948347 0.532913 0.341778
O O6 0.980664 0.848873 0.130732
O O7 0.072043 0.244706 0.340208
O O8 0.152968 0.350540 0.051038
O O9 0.071146 0.108806 0.064840
#
# Coordination Sequence:
#
# PCOD9295766 Si02
#       5
#     8   4   8   8   8
#     4  10  23  43  69 105 140 186 230 290 353 423
#     4  12  24  48  72 104 140 190 238 302 334 418
#     4  11  26  46  73 104 145 186 233 297 345 424
#     4  10  23  43  69 102 141 182 228 289 354 416
#     4  11  26  45  72 107 139 191 237 283 361 412
#
# _framework density 28.308153000000001
#
# number of rings (size 3 to 8) (size 9 to 14) (size 15 to 20)
#    0.000    1.333    2.222    1.333    0.000   17.778 
#    0.000    0.000    0.000    0.000    0.000    0.000 
#    0.000    0.000    0.000    0.000    0.000    0.000 
#
# Total GULP energy -100815.276699 kJ/mol
# GULP energy per Si atom -5600.848706 kJ/mol
# Density = 2.824372 g / cm^3
# Si number density = 28.308153 Si / 1000 Ang^3
#
#
#
# Elastic Constant Matrix: (Units=GPa)
#
#
# Indices 1 2 3 4 5 6 
#
# 1 147.8760 49.5279 23.5120 0.0000 4.4870 0.0000
# 2 49.5279 79.1046 50.6741 0.0000 27.6403 0.0000
# 3 23.5120 50.6741 133.8319 0.0000 8.7455 0.0000
# 4 0.0000 0.0000 0.0000 59.3569 0.0000 2.0602
# 5 4.4870 27.6403 8.7455 0.0000 44.1605 0.0000
# 6 0.0000 0.0000 0.0000 2.0602 0.0000 76.7235
#
#
#
# Elastic Compliance Matrix: (Units=1/GPa)
#
#
# Indices 1 2 3 4 5 6 
#
# 1 0.009029 -0.007595 0.001052 0.000000 0.003628 0.000000
# 2 -0.007595 0.027969 -0.008269 0.000000 -0.015096 0.000000
# 3 0.001052 -0.008269 0.010219 0.000000 0.003045 0.000000
# 4 0.000000 0.000000 0.000000 0.016863 0.000000 -0.000453
# 5 0.003628 -0.015096 0.003045 0.000000 0.031122 0.000000
# 6 0.000000 0.000000 0.000000 -0.000453 0.000000 0.013046
#
#
# Mechanical properties :
#
#
# Convention : Reuss Voigt Hill
#
# Bulk Modulus (GPa) = 56.83905 67.58230 62.21067
# Shear Modulus (GPa) = 34.78613 51.85475 43.32044
#
# Velocity S-wave (km/s) = 3.50928 4.28459 3.91617
# Velocity P-wave (km/s) = 6.04503 6.95720 6.51709
#
# Compressibility (1/GPa) = 0.01759354
#
# Stress axis : x y z
#
# Youngs Moduli (GPa) = 110.75800 35.75413 97.85418
#
# Poissons Ratio (x) = 0.27154 -0.10298
# Poissons Ratio (y) = 0.84117 0.80919
# Poissons Ratio (z) = -0.11656 0.29566
#
# Static dielectric constant tensor:
#      x y z
#    x 2.185140 0.000000 -0.038080 
#    y 0.000000 2.239030 0.000000 
#    z -0.038080 0.000000 2.124320 
# 
# From -- ./inp_files/124732.got.cif
#   From: 2010.05.17/outbox.cif.g08.bks.cpg/sg15_63_cif.got.tgz:124732.got - 2010.06.03 18:47:42.
