data_PCOD9295141
_publ_section_title
;
Structure prediction by ZEFSAII (Michael W. Deem and Ramdas Pophale) SiO2 
 PCOD9295141
Probable space group: C 2/C
;
_chemical_formula_sum "Si O2"
_cell_formula_units_Z 48
_cell_length_a 19.574874
_cell_length_b 4.941554
_cell_length_c 22.903567
_cell_angle_alpha 90.000000
_cell_angle_beta 63.954056
_cell_angle_gamma 90.000000
_cell_volume 1990.470782
_symmetry_space_group_name_H-M "C 2/C"
_symmetry_group_IT_number 15
_symmetry_cell_setting 'monoclinic'
loop_
_space_group_symop_operation_xyz
x,y,z
-x,y,1/2-z
-x,-y,-z
x,-y,1/2+z
1/2+x,1/2+y,z
1/2-x,1/2+y,1/2-z
1/2-x,1/2-y,-z
1/2+x,1/2-y,1/2+z
loop_
_atom_site_type_symbol
_atom_site_label
_atom_site_fract_x
_atom_site_fract_y
_atom_site_fract_z
Si Si1 0.847254 0.054223 0.414588
Si Si2 0.545224 0.674175 0.030490
Si Si3 0.400296 0.303832 0.652813
Si Si4 0.782632 0.545995 0.395316
Si Si5 0.413619 0.821808 0.280931
Si Si6 0.147413 0.320265 0.895650
O O1 0.781980 0.844365 0.421148
O O2 0.897324 0.993851 0.452166
O O3 0.813956 0.353864 0.435178
O O4 0.901040 0.101760 0.337454
O O5 0.483076 0.793151 0.098114
O O6 0.500000 0.500000 0.000000
O O7 0.594338 0.873237 0.971786
O O8 0.395710 0.283969 0.723471
O O9 0.391474 0.612022 0.635334
O O10 0.340925 0.101639 0.642604
O O11 0.850030 0.540140 0.322105
O O12 0.715635 0.368251 0.393360
O O13 0.500000 0.920669 0.250000
#
# Coordination Sequence:
#
# PCOD9295141 Si02
#       6
#     8   8   8   8   8   8
#     4  10  23  42  65  95 128 167 225 269 329 394
#     4  10  23  43  67  98 132 174 221 272 329 394
#     4  11  23  41  67  94 132 174 220 271 328 393
#     4  10  24  42  64  98 127 173 218 269 338 392
#     4  10  23  42  67  94 128 170 220 277 330 391
#     4  11  25  41  65  96 134 175 215 269 330 396
#
# _framework density 24.114896000000002
#
# number of rings (size 3 to 8) (size 9 to 14) (size 15 to 20)
#    1.000    0.667    1.667    1.500    2.333   11.333 
#    0.000    0.000    0.000    0.000    0.000    0.000 
#    0.000    0.000    0.000    0.000    0.000    0.000 
#
# Total GULP energy -133890.169482 kJ/mol
# GULP energy per Si atom -5578.757062 kJ/mol
# Density = 2.406001 g / cm^3
# Si number density = 24.114896 Si / 1000 Ang^3
#
#
#
# Elastic Constant Matrix: (Units=GPa)
#
#
# Indices 1 2 3 4 5 6 
#
# 1 48.2309 -6.5376 7.2839 -0.0061 20.8432 -0.0145
# 2 -6.5376 88.6020 14.9409 -0.0795 10.5595 0.0416
# 3 7.2839 14.9409 125.0927 -0.0105 20.1629 0.0059
# 4 -0.0061 -0.0795 -0.0105 19.0957 0.0190 2.3709
# 5 20.8432 10.5595 20.1629 0.0190 44.5095 0.0115
# 6 -0.0145 0.0416 0.0059 2.3709 0.0115 29.8086
#
#
#
# Elastic Compliance Matrix: (Units=1/GPa)
#
#
# Indices 1 2 3 4 5 6 
#
# 1 0.027076 0.003589 0.000190 0.000036 -0.013617 0.000010
# 2 0.003589 0.012212 -0.001003 0.000058 -0.004123 -0.000018
# 3 0.000190 -0.001003 0.008715 0.000004 -0.003799 0.000001
# 4 0.000036 0.000058 0.000004 0.052891 -0.000054 -0.004207
# 5 -0.013617 -0.004123 -0.003799 -0.000054 0.031543 -0.000008
# 6 0.000010 -0.000018 0.000001 -0.004207 -0.000008 0.033882
#
#
# Mechanical properties :
#
#
# Convention : Reuss Voigt Hill
#
# Bulk Modulus (GPa) = 18.67291 32.58888 25.63089
# Shear Modulus (GPa) = 27.99263 35.09865 31.54564
#
# Velocity S-wave (km/s) = 3.41075 3.81921 3.62074
# Velocity P-wave (km/s) = 4.82401 5.74385 5.30391
#
# Compressibility (1/GPa) = 0.05355352
#
# Stress axis : x y z
#
# Youngs Moduli (GPa) = 36.93327 81.88785 114.74303
#
# Poissons Ratio (x) = -0.29387 -0.02175
# Poissons Ratio (y) = -0.13254 0.11508
# Poissons Ratio (z) = -0.00700 0.08213
#
# Static dielectric constant tensor:
#      x y z
#    x 2.017950 -0.000010 -0.045570 
#    y -0.000010 1.906980 -0.000050 
#    z -0.045570 -0.000050 1.927300 
# 
# From -- ./inp_files/275847.got.cif
#   From: 2010.05.17/outbox.cif.g08.bks.cpg/sg15_138_cif.got.tgz:275847.got - 2010.06.03 18:47:42.
