data_PCOD9295165
_publ_section_title
;
Structure prediction by ZEFSAII (Michael W. Deem and Ramdas Pophale) SiO2 
 PCOD9295165
Probable space group: C 2/C
;
_chemical_formula_sum "Si O2"
_cell_formula_units_Z 44
_cell_length_a 11.874423
_cell_length_b 20.042390
_cell_length_c 15.086029
_cell_angle_alpha 90.000000
_cell_angle_beta 34.572687
_cell_angle_gamma 90.000000
_cell_volume 2037.349562
_symmetry_space_group_name_H-M "C 2/C"
_symmetry_group_IT_number 15
_symmetry_cell_setting 'monoclinic'
loop_
_space_group_symop_operation_xyz
x,y,z
-x,y,1/2-z
-x,-y,-z
x,-y,1/2+z
1/2+x,1/2+y,z
1/2-x,1/2+y,1/2-z
1/2-x,1/2-y,-z
1/2+x,1/2-y,1/2+z
loop_
_atom_site_type_symbol
_atom_site_label
_atom_site_fract_x
_atom_site_fract_y
_atom_site_fract_z
Si Si1 0.308987 0.381382 0.497787
Si Si2 0.067112 0.444572 0.028535
Si Si3 0.184510 0.821954 0.692301
Si Si4 0.910900 0.232279 0.062841
Si Si5 0.266534 0.367264 0.326947
Si Si6 0.500000 0.022066 0.250000
O O1 0.354395 0.311052 0.513934
O O2 0.200610 0.377988 0.472139
O O3 0.528477 0.403577 0.326766
O O4 0.186025 0.428098 0.642975
O O5 0.072925 0.478460 0.120089
O O6 0.884533 0.393890 0.146745
O O7 0.246357 0.396464 0.881768
O O8 0.000000 0.500000 0.000000
O O9 0.105019 0.817082 0.843671
O O10 0.379379 0.772774 0.565641
O O11 0.000000 0.800122 0.750000
O O12 0.739315 0.288114 0.178853
#
# Coordination Sequence:
#
# PCOD9295165 Si02
#       6
#     8   8   8   8   8   4
#     4  11  23  40  69 101 134 181 222 290 354 403
#     4  11  24  46  66 100 142 182 239 285 334 414
#     4  11  25  44  71  99 144 181 229 292 345 415
#     4  11  22  43  67 105 134 178 228 284 351 422
#     4  10  23  42  65  99 143 176 223 289 346 417
#     4  12  26  42  74 100 140 188 238 282 344 414
#
# _framework density 21.596686999999999
#
# number of rings (size 3 to 8) (size 9 to 14) (size 15 to 20)
#    0.000    1.091    3.636    2.182    2.545    5.091 
#    6.545    0.000    0.000    0.000    0.000    0.000 
#    0.000    0.000    0.000    0.000    0.000    0.000 
#
# Total GULP energy -122550.492001 kJ/mol
# GULP energy per Si atom -5570.476909 kJ/mol
# Density = 2.154753 g / cm^3
# Si number density = 21.596687 Si / 1000 Ang^3
#
#
#
# Elastic Constant Matrix: (Units=GPa)
#
#
# Indices 1 2 3 4 5 6 
#
# 1 63.0671 26.2103 15.0922 -0.0033 -6.1279 0.0056
# 2 26.2103 92.0634 40.0857 0.0073 6.5252 -0.0010
# 3 15.0922 40.0857 78.4269 -0.0078 -5.3016 0.0041
# 4 -0.0033 0.0073 -0.0078 13.8954 -0.0003 10.6039
# 5 -6.1279 6.5252 -5.3016 -0.0003 24.4828 0.0003
# 6 0.0056 -0.0010 0.0041 10.6039 0.0003 34.3284
#
#
#
# Elastic Compliance Matrix: (Units=1/GPa)
#
#
# Indices 1 2 3 4 5 6 
#
# 1 0.018891 -0.005678 -0.000316 0.000013 0.006174 -0.000007
# 2 -0.005678 0.016404 -0.007798 -0.000021 -0.007482 0.000009
# 3 -0.000316 -0.007798 0.017184 0.000020 0.005720 -0.000009
# 4 0.000013 -0.000021 0.000020 0.094162 0.000015 -0.029086
# 5 0.006174 -0.007482 0.005720 0.000015 0.045623 -0.000007
# 6 -0.000007 0.000009 -0.000009 -0.029086 -0.000007 0.038115
#
#
# Mechanical properties :
#
#
# Convention : Reuss Voigt Hill
#
# Bulk Modulus (GPa) = 40.16729 44.03707 42.10218
# Shear Modulus (GPa) = 18.77851 24.68595 21.73223
#
# Velocity S-wave (km/s) = 2.95194 3.38456 3.17563
# Velocity P-wave (km/s) = 5.50071 5.97567 5.74310
#
# Compressibility (1/GPa) = 0.02489588
#
# Stress axis : x y z
#
# Youngs Moduli (GPa) = 52.93396 60.95997 58.19473
#
# Poissons Ratio (x) = 0.34616 0.01837
# Poissons Ratio (y) = 0.30058 0.45378
# Poissons Ratio (z) = 0.01671 0.47534
#
# Static dielectric constant tensor:
#      x y z
#    x 1.797580 0.000000 -0.074830 
#    y 0.000000 1.854230 -0.000010 
#    z -0.074830 -0.000010 1.511120 
# 
# From -- ./inp_files/30954.got.cif
#   From: 2010.05.17/outbox.cif.g08.bks.cpg/sg15_16_cif.got.tgz:30954.got - 2010.06.03 18:47:42.
