data_PCOD9295387
_publ_section_title
;
Structure prediction by ZEFSAII (Michael W. Deem and Ramdas Pophale) SiO2 
 PCOD9295387
Probable space group: C 2/C
;
_chemical_formula_sum "Si O2"
_cell_formula_units_Z 48
_cell_length_a 29.599997
_cell_length_b 13.985624
_cell_length_c 13.575666
_cell_angle_alpha 90.000000
_cell_angle_beta 156.610998
_cell_angle_gamma 90.000000
_cell_volume 2230.972556
_symmetry_space_group_name_H-M "C 2/C"
_symmetry_group_IT_number 15
_symmetry_cell_setting 'monoclinic'
loop_
_space_group_symop_operation_xyz
x,y,z
-x,y,1/2-z
-x,-y,-z
x,-y,1/2+z
1/2+x,1/2+y,z
1/2-x,1/2+y,1/2-z
1/2-x,1/2-y,-z
1/2+x,1/2-y,1/2+z
loop_
_atom_site_type_symbol
_atom_site_label
_atom_site_fract_x
_atom_site_fract_y
_atom_site_fract_z
Si Si1 0.102890 0.699210 0.024201
Si Si2 0.609251 0.382007 0.161780
Si Si3 0.254544 0.734386 0.147947
Si Si4 0.464168 0.589250 0.563888
Si Si5 0.614576 0.130959 0.705949
Si Si6 0.636623 0.089873 0.284416
O O1 0.066914 0.793564 0.012393
O O2 0.206036 0.725562 0.159305
O O3 0.134825 0.619098 0.166358
O O4 0.000000 0.665462 0.750000
O O5 0.559184 0.381855 0.172692
O O6 0.745862 0.373423 0.436961
O O7 0.573151 0.481943 0.040310
O O8 0.357960 0.660687 0.338952
O O9 0.303702 0.838457 0.219684
O O10 0.155864 0.702963 0.874108
O O11 0.500000 0.592628 0.750000
O O12 0.481470 0.133668 0.411607
O O13 0.634034 0.024520 0.785092
#
# Coordination Sequence:
#
# PCOD9295387 Si02
#       6
#     8   8   8   8   8   8
#     4  12  25  40  67 102 137 178 226 278 343 410
#     4  11  25  43  69  99 139 177 228 288 339 406
#     4  11  23  43  66  97 134 179 226 275 341 415
#     4  11  24  44  69  99 136 182 231 281 346 409
#     4  10  23  42  70  92 134 179 224 279 347 401
#     4  11  22  45  67  99 133 179 227 288 338 404
#
# _framework density 21.515281000000002
#
# number of rings (size 3 to 8) (size 9 to 14) (size 15 to 20)
#    0.000    1.000    3.333    3.000    2.333    4.000 
#    0.000    0.833    0.000    0.000    0.000    0.000 
#    0.000    0.000    0.000    0.000    0.000    0.000 
#
# Total GULP energy -134207.604188 kJ/mol
# GULP energy per Si atom -5591.983508 kJ/mol
# Density = 2.146631 g / cm^3
# Si number density = 21.515281 Si / 1000 Ang^3
#
#
#
# Elastic Constant Matrix: (Units=GPa)
#
#
# Indices 1 2 3 4 5 6 
#
# 1 83.9623 10.0412 3.8030 0.0000 12.6390 0.0000
# 2 10.0412 63.3175 19.8764 0.0000 8.5358 0.0000
# 3 3.8030 19.8764 86.9880 0.0000 8.7750 0.0000
# 4 0.0000 0.0000 0.0000 27.0565 0.0000 1.2635
# 5 12.6390 8.5358 8.7750 0.0000 34.0952 0.0000
# 6 0.0000 0.0000 0.0000 1.2635 0.0000 28.9371
#
#
#
# Elastic Compliance Matrix: (Units=1/GPa)
#
#
# Indices 1 2 3 4 5 6 
#
# 1 0.012742 -0.001499 0.000230 0.000000 -0.004408 0.000000
# 2 -0.001499 0.017570 -0.003656 0.000000 -0.002902 0.000000
# 3 0.000230 -0.003656 0.012564 0.000000 -0.002403 0.000000
# 4 0.000000 0.000000 0.000000 0.037035 0.000000 -0.001617
# 5 -0.004408 -0.002902 -0.002403 0.000000 0.032309 0.000000
# 6 0.000000 0.000000 0.000000 -0.001617 0.000000 0.034628
#
#
# Mechanical properties :
#
#
# Convention : Reuss Voigt Hill
#
# Bulk Modulus (GPa) = 30.27933 33.52324 31.90128
# Shear Modulus (GPa) = 29.81383 31.38757 30.60070
#
# Velocity S-wave (km/s) = 3.72654 3.82363 3.77540
# Velocity P-wave (km/s) = 5.71140 5.92524 5.81931
#
# Compressibility (1/GPa) = 0.03302583
#
# Stress axis : x y z
#
# Youngs Moduli (GPa) = 78.47808 56.91468 79.59439
#
# Poissons Ratio (x) = 0.08530 -0.01831
# Poissons Ratio (y) = 0.11762 0.29103
# Poissons Ratio (z) = -0.01805 0.20811
#
# Static dielectric constant tensor:
#      x y z
#    x 1.781160 0.000000 0.032630 
#    y 0.000000 1.758890 0.000000 
#    z 0.032630 0.000000 1.785290 
# 
# From -- ./inp_files/182534.got.cif
#   From: 2010.05.17/outbox.cif.g08.bks.cpg/sg15_92_cif.got.tgz:182534.got - 2010.06.03 18:47:42.
