data_PCOD9295630
_publ_section_title
;
Structure prediction by ZEFSAII (Michael W. Deem and Ramdas Pophale) SiO2 
 PCOD9295630
Probable space group: C 2/C
;
_chemical_formula_sum "Si O2"
_cell_formula_units_Z 56
_cell_length_a 16.428045
_cell_length_b 18.267268
_cell_length_c 14.067125
_cell_angle_alpha 90.000000
_cell_angle_beta 142.937768
_cell_angle_gamma 90.000000
_cell_volume 2544.211023
_symmetry_space_group_name_H-M "C 2/C"
_symmetry_group_IT_number 15
_symmetry_cell_setting 'monoclinic'
loop_
_space_group_symop_operation_xyz
x,y,z
-x,y,1/2-z
-x,-y,-z
x,-y,1/2+z
1/2+x,1/2+y,z
1/2-x,1/2+y,1/2-z
1/2-x,1/2-y,-z
1/2+x,1/2-y,1/2+z
loop_
_atom_site_type_symbol
_atom_site_label
_atom_site_fract_x
_atom_site_fract_y
_atom_site_fract_z
Si Si1 0.305563 0.048551 0.180741
Si Si2 0.616479 0.580792 0.174487
Si Si3 0.236863 0.198569 0.803444
Si Si4 0.147756 0.942717 0.339252
Si Si5 0.196370 0.101223 0.595223
Si Si6 0.022927 0.682497 0.159604
Si Si7 0.152078 0.187575 0.372069
O O1 0.189938 0.080134 0.142506
O O2 0.437938 0.097297 0.318107
O O3 0.305387 0.962952 0.207012
O O4 0.254885 0.054696 0.025203
O O5 0.659392 0.510736 0.277751
O O6 0.655818 0.653653 0.270531
O O7 0.454313 0.577345 0.013658
O O8 0.172524 0.131862 0.804725
O O9 0.233137 0.171443 0.691551
O O10 0.148076 0.269299 0.740934
O O11 0.389704 0.206174 0.980196
O O12 0.000000 0.945069 0.250000
O O13 0.179108 0.120365 0.469030
O O14 0.000000 0.695188 0.250000
O O15 0.250000 0.250000 0.500000
O O16 0.000000 0.213091 0.250000
#
# Coordination Sequence:
#
# PCOD9295630 Si02
#       7
#     8   8   8   8   8   8   8
#     4  12  24  42  70 102 136 177 233 291 344 407
#     4  11  22  41  70 107 134 180 235 283 341 421
#     4  12  28  45  69 101 142 183 233 288 353 419
#     4  12  21  40  72 102 136 180 231 286 344 413
#     4  11  23  43  71 103 138 179 232 287 344 413
#     4  12  29  48  68 102 141 188 232 290 359 422
#     4  10  23  43  66  97 137 177 228 281 341 408
#
# _framework density 22.010752
#
# number of rings (size 3 to 8) (size 9 to 14) (size 15 to 20)
#    0.000    0.571    5.714    2.571    6.000    1.714 
#    0.000    0.714    0.000    0.000    0.000    0.000 
#    0.000    0.000    0.000    0.000    0.000    0.000 
#
# Total GULP energy -156738.110415 kJ/mol
# GULP energy per Si atom -5597.789658 kJ/mol
# Density = 2.196065 g / cm^3
# Si number density = 22.010752 Si / 1000 Ang^3
#
#
#
# Elastic Constant Matrix: (Units=GPa)
#
#
# Indices 1 2 3 4 5 6 
#
# 1 46.8598 23.2267 34.6269 0.0000 -15.0312 0.0000
# 2 23.2267 85.7371 34.5580 0.0000 19.3686 0.0000
# 3 34.6269 34.5580 107.7525 0.0000 6.5630 0.0000
# 4 0.0000 0.0000 0.0000 34.9011 0.0000 13.3300
# 5 -15.0312 19.3686 6.5630 0.0000 32.4376 0.0000
# 6 0.0000 0.0000 0.0000 13.3300 0.0000 20.3224
#
#
#
# Elastic Compliance Matrix: (Units=1/GPa)
#
#
# Indices 1 2 3 4 5 6 
#
# 1 0.051066 -0.016689 -0.013270 0.000000 0.036313 0.000000
# 2 -0.016689 0.020756 -0.000069 0.000000 -0.020113 0.000000
# 3 -0.013270 -0.000069 0.014113 0.000000 -0.008963 0.000000
# 4 0.000000 0.000000 0.000000 0.038230 0.000000 -0.025076
# 5 0.036313 -0.020113 -0.008963 0.000000 0.061479 0.000000
# 6 0.000000 0.000000 0.000000 -0.025076 0.000000 0.065655
#
#
# Mechanical properties :
#
#
# Convention : Reuss Voigt Hill
#
# Bulk Modulus (GPa) = 38.63938 47.24139 42.94039
# Shear Modulus (GPa) = 15.62597 27.39474 21.51036
#
# Velocity S-wave (km/s) = 2.66733 3.53173 3.12952
# Velocity P-wave (km/s) = 5.20376 6.17578 5.71049
#
# Compressibility (1/GPa) = 0.02588033
#
# Stress axis : x y z
#
# Youngs Moduli (GPa) = 19.58240 48.17874 70.85756
#
# Poissons Ratio (x) = 0.80405 0.94026
# Poissons Ratio (y) = 0.32681 0.00487
# Poissons Ratio (z) = 0.25985 0.00331
#
# Static dielectric constant tensor:
#      x y z
#    x 1.792400 0.000000 -0.014340 
#    y 0.000000 1.835820 0.000000 
#    z -0.014340 0.000000 1.758610 
# 
# From -- ./inp_files/163810.got.cif
#   From: 2010.05.17/outbox.cif.g08.bks.cpg/sg15_82_cif.got.tgz:163810.got - 2010.06.03 18:47:42.
