data_PCOD9295263
_publ_section_title
;
Structure prediction by ZEFSAII (Michael W. Deem and Ramdas Pophale) SiO2 
 PCOD9295263
Probable space group: C 2/C
;
_chemical_formula_sum "Si O2"
_cell_formula_units_Z 64
_cell_length_a 17.677110
_cell_length_b 11.998932
_cell_length_c 31.447199
_cell_angle_alpha 90.000000
_cell_angle_beta 155.737104
_cell_angle_gamma 90.000000
_cell_volume 2740.926535
_symmetry_space_group_name_H-M "C 2/C"
_symmetry_group_IT_number 15
_symmetry_cell_setting 'monoclinic'
loop_
_space_group_symop_operation_xyz
x,y,z
-x,y,1/2-z
-x,-y,-z
x,-y,1/2+z
1/2+x,1/2+y,z
1/2-x,1/2+y,1/2-z
1/2-x,1/2-y,-z
1/2+x,1/2-y,1/2+z
loop_
_atom_site_type_symbol
_atom_site_label
_atom_site_fract_x
_atom_site_fract_y
_atom_site_fract_z
Si Si1 0.944016 0.216108 0.833136
Si Si2 0.381588 0.118464 0.615128
Si Si3 0.993606 0.981810 0.610759
Si Si4 0.032872 0.904825 0.050522
Si Si5 0.892840 0.374946 0.652872
Si Si6 0.760129 0.282380 0.894821
Si Si7 0.555067 0.120326 0.611869
Si Si8 0.709863 0.119535 0.177359
O O1 0.753526 0.179409 0.712929
O O2 0.890816 0.275814 0.850788
O O3 0.042974 0.305182 0.854608
O O4 0.060133 0.100703 0.895766
O O5 0.387135 0.224039 0.649339
O O6 0.484384 0.136173 0.623692
O O7 0.171498 0.089182 0.493229
O O8 0.438940 0.004936 0.667983
O O9 0.113448 0.909271 0.703486
O O10 0.112444 0.031901 0.632582
O O11 0.826786 0.861542 0.954667
O O12 0.160015 0.818638 0.092071
O O13 0.000000 0.000000 0.000000
O O14 0.000000 0.338512 0.750000
O O15 0.729153 0.368682 0.840551
O O16 0.914098 0.330156 0.005618
O O17 0.581753 0.989271 0.616492
#
# Coordination Sequence:
#
# PCOD9295263 Si02
#       8
#     8   8   8   8   8   8   8   8
#     4  11  23  42  68  99 135 185 237 289 357 418
#     4  11  24  44  70 102 140 181 237 290 355 431
#     4  10  23  42  67  96 140 180 232 286 356 415
#     4  11  22  40  70 103 137 177 224 291 348 416
#     4  11  24  39  68 103 136 177 234 296 344 423
#     4  12  23  42  69 104 139 187 230 293 358 426
#     4  11  25  44  68  98 144 188 236 289 360 422
#     4  11  24  41  68  99 139 189 234 288 355 428
#
# _framework density 23.349768000000001
#
# number of rings (size 3 to 8) (size 9 to 14) (size 15 to 20)
#    0.000    1.000    5.000    2.250    1.750    4.000 
#    0.000    4.375    0.000    1.500    0.000    0.000 
#    0.000    0.000    0.000    0.000    0.000    0.000 
#
# Total GULP energy -179074.096404 kJ/mol
# GULP energy per Si atom -5596.065513 kJ/mol
# Density = 2.329662 g / cm^3
# Si number density = 23.349768 Si / 1000 Ang^3
#
#
#
# Elastic Constant Matrix: (Units=GPa)
#
#
# Indices 1 2 3 4 5 6 
#
# 1 137.6246 39.7300 40.0706 -0.0001 -21.8256 -0.0002
# 2 39.7300 84.6724 18.4123 -0.0003 -2.3677 -0.0001
# 3 40.0706 18.4123 79.9114 -0.0005 -14.8671 -0.0012
# 4 -0.0001 -0.0003 -0.0005 32.3471 -0.0003 -1.1918
# 5 -21.8256 -2.3677 -14.8671 -0.0003 36.5927 -0.0003
# 6 -0.0002 -0.0001 -0.0012 -1.1918 -0.0003 49.3683
#
#
#
# Elastic Compliance Matrix: (Units=1/GPa)
#
#
# Indices 1 2 3 4 5 6 
#
# 1 0.010049 -0.003868 -0.003331 0.000000 0.004390 0.000000
# 2 -0.003868 0.013927 -0.001656 0.000000 -0.002079 0.000000
# 3 -0.003331 -0.001656 0.015335 0.000000 0.004137 0.000000
# 4 0.000000 0.000000 0.000000 0.030942 0.000000 0.000747
# 5 0.004390 -0.002079 0.004137 0.000000 0.031492 0.000000
# 6 0.000000 0.000000 0.000000 0.000747 0.000000 0.020274
#
#
# Mechanical properties :
#
#
# Convention : Reuss Voigt Hill
#
# Bulk Modulus (GPa) = 46.29374 55.40380 50.84877
# Shear Modulus (GPa) = 34.02975 37.26133 35.64554
#
# Velocity S-wave (km/s) = 3.82172 3.99907 3.91140
# Velocity P-wave (km/s) = 6.27243 6.71585 6.49792
#
# Compressibility (1/GPa) = 0.02160119
#
# Stress axis : x y z
#
# Youngs Moduli (GPa) = 99.51450 71.80208 65.20907
#
# Poissons Ratio (x) = 0.27773 0.21720
# Poissons Ratio (y) = 0.38492 0.10799
# Poissons Ratio (z) = 0.33147 0.11891
#
# Static dielectric constant tensor:
#      x y z
#    x 1.890120 0.000000 0.003250 
#    y 0.000000 1.916250 0.000000 
#    z 0.003250 0.000000 1.901200 
# 
# From -- ./inp_files/316229.got.cif
#   From: 2010.05.17/outbox.cif.g08.bks.cpg/sg15_159_cif.got.tgz:316229.got - 2010.06.03 18:47:42.
