data_PCOD9295316
_publ_section_title
;
Structure prediction by ZEFSAII (Michael W. Deem and Ramdas Pophale) SiO2 
 PCOD9295316
Probable space group: C 2/C
;
_chemical_formula_sum "Si O2"
_cell_formula_units_Z 48
_cell_length_a 9.689965
_cell_length_b 11.703143
_cell_length_c 16.385507
_cell_angle_alpha 90.000000
_cell_angle_beta 91.911331
_cell_angle_gamma 90.000000
_cell_volume 1857.132595
_symmetry_space_group_name_H-M "C 2/C"
_symmetry_group_IT_number 15
_symmetry_cell_setting 'monoclinic'
loop_
_space_group_symop_operation_xyz
x,y,z
-x,y,1/2-z
-x,-y,-z
x,-y,1/2+z
1/2+x,1/2+y,z
1/2-x,1/2+y,1/2-z
1/2-x,1/2-y,-z
1/2+x,1/2-y,1/2+z
loop_
_atom_site_type_symbol
_atom_site_label
_atom_site_fract_x
_atom_site_fract_y
_atom_site_fract_z
Si Si1 0.723759 0.259146 0.138856
Si Si2 0.063189 0.969858 0.341241
Si Si3 0.812254 0.735198 0.173780
Si Si4 0.799611 0.020919 0.412773
Si Si5 0.166809 0.532514 0.079333
Si Si6 0.985414 0.652203 0.843304
O O1 0.671444 0.231457 0.228645
O O2 0.706910 0.393202 0.122828
O O3 0.653726 0.169230 0.076073
O O4 0.890892 0.259948 0.138848
O O5 0.084348 0.833044 0.357456
O O6 0.000000 0.985454 0.250000
O O7 0.963406 0.037038 0.401396
O O8 0.219390 0.016794 0.346351
O O9 0.797850 0.610485 0.135659
O O10 0.659791 0.784512 0.153527
O O11 0.747325 0.016475 0.503598
O O12 0.034202 0.455928 0.097090
O O13 0.000000 0.611079 0.750000
#
# Coordination Sequence:
#
# PCOD9295316 Si02
#       6
#     8   8   8   8   8   8
#     4  11  23  42  66  95 139 180 234 282 342 422
#     4  11  22  44  69  98 130 181 237 281 342 420
#     4  10  23  42  68  96 130 181 237 288 332 426
#     4  12  25  41  66 106 139 177 228 289 359 408
#     4  11  25  42  70  99 142 180 225 293 354 414
#     4   9  22  43  66  97 130 183 234 281 344 413
#
# _framework density 25.846298000000001
#
# number of rings (size 3 to 8) (size 9 to 14) (size 15 to 20)
#    0.000    1.333    1.667    3.000    4.667    7.333 
#    0.000    0.000    0.000    0.000    0.000    0.000 
#    0.000    0.000    0.000    0.000    0.000    0.000 
#
# Total GULP energy -134293.806112 kJ/mol
# GULP energy per Si atom -5595.575255 kJ/mol
# Density = 2.578747 g / cm^3
# Si number density = 25.846298 Si / 1000 Ang^3
#
#
#
# Elastic Constant Matrix: (Units=GPa)
#
#
# Indices 1 2 3 4 5 6 
#
# 1 66.4293 16.8176 16.0990 0.0000 -17.3449 0.0000
# 2 16.8176 127.6162 54.9508 0.0000 -24.9727 0.0000
# 3 16.0990 54.9508 93.1037 0.0000 -26.9877 0.0000
# 4 0.0000 0.0000 0.0000 29.7416 0.0000 -2.0245
# 5 -17.3449 -24.9727 -26.9877 0.0000 35.6042 0.0000
# 6 0.0000 0.0000 0.0000 -2.0245 0.0000 43.9936
#
#
#
# Elastic Compliance Matrix: (Units=1/GPa)
#
#
# Indices 1 2 3 4 5 6 
#
# 1 0.017316 -0.000599 -0.000407 0.000000 0.007708 0.000000
# 2 -0.000599 0.010862 -0.005362 0.000000 0.003263 0.000000
# 3 -0.000407 -0.005362 0.016440 0.000000 0.008503 0.000000
# 4 0.000000 0.000000 0.000000 0.033729 0.000000 0.001552
# 5 0.007708 0.003263 0.008503 0.000000 0.040575 0.000000
# 6 0.000000 0.000000 0.000000 0.001552 0.000000 0.022802
#
#
# Mechanical properties :
#
#
# Convention : Reuss Voigt Hill
#
# Bulk Modulus (GPa) = 31.36304 51.43154 41.39729
# Shear Modulus (GPa) = 30.28721 35.15333 32.72027
#
# Velocity S-wave (km/s) = 3.42690 3.69194 3.56189
# Velocity P-wave (km/s) = 5.27437 6.17383 5.74174
#
# Compressibility (1/GPa) = 0.03188466
#
# Stress axis : x y z
#
# Youngs Moduli (GPa) = 57.74943 92.06357 60.82656
#
# Poissons Ratio (x) = 0.05510 0.02474
# Poissons Ratio (y) = 0.03457 0.32613
# Poissons Ratio (z) = 0.02349 0.49361
#
# Static dielectric constant tensor:
#      x y z
#    x 2.231140 0.000000 -0.002680 
#    y 0.000000 2.145970 0.000000 
#    z -0.002680 0.000000 2.009390 
# 
# From -- ./inp_files/196041.got.cif
#   From: 2010.05.17/outbox.cif.g08.bks.cpg/sg15_99_cif.got.tgz:196041.got - 2010.06.03 18:47:42.
