data_PCOD9295576
_publ_section_title
;
Structure prediction by ZEFSAII (Michael W. Deem and Ramdas Pophale) SiO2 
 PCOD9295576
Probable space group: C 2/C
;
_chemical_formula_sum "Si O2"
_cell_formula_units_Z 44
_cell_length_a 18.230857
_cell_length_b 8.926073
_cell_length_c 13.505184
_cell_angle_alpha 90.000000
_cell_angle_beta 104.841748
_cell_angle_gamma 90.000000
_cell_volume 2124.376266
_symmetry_space_group_name_H-M "C 2/C"
_symmetry_group_IT_number 15
_symmetry_cell_setting 'monoclinic'
loop_
_space_group_symop_operation_xyz
x,y,z
-x,y,1/2-z
-x,-y,-z
x,-y,1/2+z
1/2+x,1/2+y,z
1/2-x,1/2+y,1/2-z
1/2-x,1/2-y,-z
1/2+x,1/2-y,1/2+z
loop_
_atom_site_type_symbol
_atom_site_label
_atom_site_fract_x
_atom_site_fract_y
_atom_site_fract_z
Si Si1 0.865965 0.665949 0.199066
Si Si2 0.307899 0.203791 0.396805
Si Si3 0.030216 0.776623 0.947784
Si Si4 0.421600 0.391831 0.072897
Si Si5 0.255477 0.503566 0.470449
Si Si6 0.500000 0.929763 0.250000
O O1 0.823493 0.693075 0.286777
O O2 0.908726 0.812059 0.172874
O O3 0.806322 0.613665 0.095507
O O4 0.926841 0.534981 0.232981
O O5 0.388635 0.224935 0.480530
O O6 0.259407 0.351544 0.406313
O O7 0.267111 0.058827 0.429189
O O8 0.006454 0.670090 0.850532
O O9 0.038795 0.946267 0.910145
O O10 0.970437 0.786479 0.017074
O O11 0.338364 0.424433 0.999704
#
# Coordination Sequence:
#
# PCOD9295576 Si02
#       6
#     8   8   8   8   8   4
#     4  12  25  39  71 102 125 174 220 275 326 402
#     4  10  23  43  65  92 140 167 219 269 333 393
#     4  10  23  46  65  92 133 178 215 279 329 394
#     4  10  24  43  68  95 131 172 227 271 328 397
#     4  10  23  44  63  98 133 176 209 276 330 394
#     4  12  26  40  68  96 130 176 218 274 338 390
#
# _framework density 20.711962
#
# number of rings (size 3 to 8) (size 9 to 14) (size 15 to 20)
#    0.000    1.455    1.818    1.636    5.091    8.000 
#    0.000    0.000    0.000    0.000    0.000    0.000 
#    0.000    0.000    0.000    0.000    0.000    0.000 
#
# Total GULP energy -123088.036224 kJ/mol
# GULP energy per Si atom -5594.910737 kJ/mol
# Density = 2.066482 g / cm^3
# Si number density = 20.711962 Si / 1000 Ang^3
#
#
#
# Elastic Constant Matrix: (Units=GPa)
#
#
# Indices 1 2 3 4 5 6 
#
# 1 70.6513 3.3171 -5.0388 0.0000 -17.3438 0.0000
# 2 3.3171 35.5563 14.9962 0.0000 -6.8202 0.0000
# 3 -5.0388 14.9962 43.9226 0.0000 -29.2113 0.0000
# 4 0.0000 0.0000 0.0000 12.7762 0.0000 0.4043
# 5 -17.3438 -6.8202 -29.2113 0.0000 41.9291 0.0000
# 6 0.0000 0.0000 0.0000 0.4043 0.0000 10.1957
#
#
#
# Elastic Compliance Matrix: (Units=1/GPa)
#
#
# Indices 1 2 3 4 5 6 
#
# 1 0.020433 -0.005407 0.017193 0.000000 0.019550 0.000000
# 2 -0.005407 0.034770 -0.019040 0.000000 -0.009846 0.000000
# 3 0.017193 -0.019040 0.063187 0.000000 0.048036 0.000000
# 4 0.000000 0.000000 0.000000 0.078369 0.000000 -0.003108
# 5 0.019550 -0.009846 0.048036 0.000000 0.063801 0.000000
# 6 0.000000 0.000000 0.000000 -0.003108 0.000000 0.098204
#
#
# Mechanical properties :
#
#
# Convention : Reuss Voigt Hill
#
# Bulk Modulus (GPa) = 9.62627 19.63101 14.62864
# Shear Modulus (GPa) = 12.25786 22.10391 17.18089
#
# Velocity S-wave (km/s) = 2.43538 3.27035 2.88326
# Velocity P-wave (km/s) = 3.54484 4.87432 4.26174
#
# Compressibility (1/GPa) = 0.10388238
#
# Stress axis : x y z
#
# Youngs Moduli (GPa) = 48.93952 28.76002 15.82592
#
# Poissons Ratio (x) = 0.15551 -0.27209
# Poissons Ratio (y) = 0.26463 0.30132
# Poissons Ratio (z) = -0.84140 0.54758
#
# Static dielectric constant tensor:
#      x y z
#    x 1.724900 0.000000 -0.009740 
#    y 0.000000 1.739190 0.000000 
#    z -0.009740 0.000000 1.701290 
# 
# From -- ./inp_files/109925.got.cif
#   From: 2010.05.17/outbox.cif.g08.bks.cpg/sg15_55_cif.got.tgz:109925.got - 2010.06.03 18:47:42.
