data_PCOD9295440
_publ_section_title
;
Structure prediction by ZEFSAII (Michael W. Deem and Ramdas Pophale) SiO2 
 PCOD9295440
Probable space group: C 2/C
;
_chemical_formula_sum "Si O2"
_cell_formula_units_Z 56
_cell_length_a 27.394788
_cell_length_b 9.462529
_cell_length_c 31.493338
_cell_angle_alpha 90.000000
_cell_angle_beta 161.622005
_cell_angle_gamma 90.000000
_cell_volume 2573.929244
_symmetry_space_group_name_H-M "C 2/C"
_symmetry_group_IT_number 15
_symmetry_cell_setting 'monoclinic'
loop_
_space_group_symop_operation_xyz
x,y,z
-x,y,1/2-z
-x,-y,-z
x,-y,1/2+z
1/2+x,1/2+y,z
1/2-x,1/2+y,1/2-z
1/2-x,1/2-y,-z
1/2+x,1/2-y,1/2+z
loop_
_atom_site_type_symbol
_atom_site_label
_atom_site_fract_x
_atom_site_fract_y
_atom_site_fract_z
Si Si1 0.754581 0.500156 0.013833
Si Si2 0.633573 0.589637 0.687326
Si Si3 0.000000 0.714726 0.250000
Si Si4 0.272332 0.629806 0.102267
Si Si5 0.500000 0.209100 0.750000
Si Si6 0.580444 0.390975 0.236919
Si Si7 0.015111 0.798440 0.933734
Si Si8 0.673516 0.184571 0.146346
O O1 0.847880 0.376849 0.114045
O O2 0.874993 0.627376 0.120001
O O3 0.741862 0.446475 0.955029
O O4 0.592770 0.546098 0.900570
O O5 0.606932 0.661637 0.711308
O O6 0.499006 0.468464 0.571234
O O7 0.632479 0.715086 0.652380
O O8 0.784662 0.481939 0.810104
O O9 0.090912 0.797805 0.288175
O O10 0.442945 0.698903 0.241965
O O11 0.286926 0.509411 0.149225
O O12 0.142700 0.740960 0.007010
O O13 0.055109 0.722285 0.011211
O O14 0.846015 0.760222 0.776204
#
# Coordination Sequence:
#
# PCOD9295440 Si02
#       8
#     8   8   4   8   4   8   8   8
#     4  11  24  40  61  97 138 176 225 274 329 413
#     4  10  24  45  70  99 131 179 224 291 342 410
#     4  11  25  46  62  96 139 187 224 274 332 423
#     4  12  21  39  66  99 132 174 218 282 333 399
#     4  11  23  32  64  96 137 171 218 268 340 397
#     4  12  22  44  66  93 136 178 224 272 341 401
#     4  10  23  42  71  95 139 170 231 282 346 406
#     4  10  23  46  68  97 139 172 232 286 349 404
#
# _framework density 21.756620000000002
#
# number of rings (size 3 to 8) (size 9 to 14) (size 15 to 20)
#    0.857    0.286    4.286    2.143    4.000    0.571 
#    5.143    0.000    0.000    0.000    0.000    0.000 
#    0.000    0.000    0.000    0.000    0.000    0.000 
#
# Total GULP energy -155942.471579 kJ/mol
# GULP energy per Si atom -5569.373985 kJ/mol
# Density = 2.170710 g / cm^3
# Si number density = 21.756620 Si / 1000 Ang^3
#
#
#
# Elastic Constant Matrix: (Units=GPa)
#
#
# Indices 1 2 3 4 5 6 
#
# 1 115.8861 41.5084 -0.5514 0.0086 -1.0404 0.0018
# 2 41.5084 64.2378 5.5483 0.0352 -0.1287 0.0116
# 3 -0.5514 5.5483 37.9833 0.0780 3.2985 0.0239
# 4 0.0086 0.0352 0.0780 62.0597 0.0024 3.4691
# 5 -1.0404 -0.1287 3.2985 0.0024 29.6553 0.0023
# 6 0.0018 0.0116 0.0239 3.4691 0.0023 32.5450
#
#
#
# Elastic Compliance Matrix: (Units=1/GPa)
#
#
# Indices 1 2 3 4 5 6 
#
# 1 0.011287 -0.007399 0.001225 0.000001 0.000228 0.000001
# 2 -0.007399 0.020619 -0.003135 -0.000007 0.000179 -0.000004
# 3 0.001225 -0.003135 0.027062 -0.000031 -0.002981 -0.000015
# 4 0.000001 -0.000007 -0.000031 0.016210 0.000002 -0.001728
# 5 0.000228 0.000179 -0.002981 0.000002 0.034061 -0.000001
# 6 0.000001 -0.000004 -0.000015 -0.001728 -0.000001 0.030911
#
#
# Mechanical properties :
#
#
# Convention : Reuss Voigt Hill
#
# Bulk Modulus (GPa) = 24.78260 34.56863 29.67562
# Shear Modulus (GPa) = 29.03298 36.29213 32.66256
#
# Velocity S-wave (km/s) = 3.65697 4.08866 3.87883
# Velocity P-wave (km/s) = 5.40803 6.18165 5.80774
#
# Compressibility (1/GPa) = 0.04035089
#
# Stress axis : x y z
#
# Youngs Moduli (GPa) = 88.59643 48.49871 36.95222
#
# Poissons Ratio (x) = 0.35883 -0.04526
# Poissons Ratio (y) = 0.65550 0.11584
# Poissons Ratio (z) = -0.10852 0.15203
#
# Static dielectric constant tensor:
#      x y z
#    x 1.767310 0.000020 -0.023920 
#    y 0.000020 1.903650 -0.000020 
#    z -0.023920 -0.000020 1.789140 
# 
# From -- ./inp_files/319554.got.cif
#   From: 2010.05.17/outbox.cif.g08.bks.cpg/sg15_160_cif.got.tgz:319554.got - 2010.06.03 18:47:42.
