data_PCOD9295278
_publ_section_title
;
Structure prediction by ZEFSAII (Michael W. Deem and Ramdas Pophale) SiO2 
 PCOD9295278
Probable space group: C 2/C
;
_chemical_formula_sum "Si O2"
_cell_formula_units_Z 60
_cell_length_a 11.964963
_cell_length_b 14.916721
_cell_length_c 15.106903
_cell_angle_alpha 90.000000
_cell_angle_beta 101.782764
_cell_angle_gamma 90.000000
_cell_volume 2639.437001
_symmetry_space_group_name_H-M "C 2/C"
_symmetry_group_IT_number 15
_symmetry_cell_setting 'monoclinic'
loop_
_space_group_symop_operation_xyz
x,y,z
-x,y,1/2-z
-x,-y,-z
x,-y,1/2+z
1/2+x,1/2+y,z
1/2-x,1/2+y,1/2-z
1/2-x,1/2-y,-z
1/2+x,1/2-y,1/2+z
loop_
_atom_site_type_symbol
_atom_site_label
_atom_site_fract_x
_atom_site_fract_y
_atom_site_fract_z
Si Si1 0.863855 0.064977 0.565649
Si Si2 0.649821 0.702700 0.538693
Si Si3 0.500000 0.707859 0.250000
Si Si4 0.295388 0.171449 0.719877
Si Si5 0.987202 0.366371 0.563953
Si Si6 0.967761 0.915095 0.902596
Si Si7 0.881770 0.752932 0.176577
Si Si8 0.132119 0.539632 0.617036
O O1 0.869521 0.163036 0.608641
O O2 0.751103 0.018934 0.586337
O O3 0.871481 0.072016 0.460890
O O4 0.975120 0.009255 0.613008
O O5 0.750000 0.750000 0.500000
O O6 0.710433 0.647948 0.627145
O O7 0.570971 0.782181 0.564322
O O8 0.569601 0.638434 0.469106
O O9 0.598267 0.773238 0.301464
O O10 0.556762 0.644454 0.186079
O O11 0.222700 0.235927 0.773286
O O12 0.339786 0.089733 0.787020
O O13 0.057064 0.450765 0.612332
O O14 0.891287 0.334781 0.617580
O O15 0.934155 0.393702 0.460897
O O16 0.000000 0.759283 0.250000
#
# Coordination Sequence:
#
# PCOD9295278 Si02
#       8
#     8   8   4   8   8   8   8   8
#     4  10  23  42  67  99 133 177 222 280 346 406
#     4  12  22  43  70  94 136 184 226 280 351 416
#     4  12  26  42  66 102 136 178 230 288 330 416
#     4  11  25  43  68  99 137 182 232 285 346 416
#     4  11  23  45  70  99 139 178 224 291 349 422
#     4  11  23  42  67  99 134 176 227 279 344 408
#     4  11  22  42  71  98 132 179 229 278 348 419
#     4  10  25  44  68 102 139 175 229 291 347 417
#
# _framework density 22.732119999999998
#
# number of rings (size 3 to 8) (size 9 to 14) (size 15 to 20)
#    0.000    1.067    4.000    1.600    2.800    1.067 
#    3.600    0.000    0.000    0.000    0.000    0.000 
#    0.000    0.000    0.000    0.000    0.000    0.000 
#
# Total GULP energy -167901.200155 kJ/mol
# GULP energy per Si atom -5596.706672 kJ/mol
# Density = 2.268038 g / cm^3
# Si number density = 22.732120 Si / 1000 Ang^3
#
#
#
# Elastic Constant Matrix: (Units=GPa)
#
#
# Indices 1 2 3 4 5 6 
#
# 1 53.9571 16.9912 -6.0871 0.0000 -7.3512 0.0000
# 2 16.9912 51.3278 14.7565 0.0000 2.6955 0.0000
# 3 -6.0871 14.7565 62.8326 0.0000 8.2589 0.0000
# 4 0.0000 0.0000 0.0000 33.5338 0.0000 46.8530
# 5 -7.3512 2.6955 8.2589 0.0000 35.1796 0.0000
# 6 0.0000 0.0000 0.0000 46.8530 0.0000 114.3378
#
#
#
# Elastic Compliance Matrix: (Units=1/GPa)
#
#
# Indices 1 2 3 4 5 6 
#
# 1 0.022270 -0.008642 0.003599 0.000000 0.004471 0.000000
# 2 -0.008642 0.024254 -0.006244 0.000000 -0.002198 0.000000
# 3 0.003599 -0.006244 0.018128 0.000000 -0.003025 0.000000
# 4 0.000000 0.000000 0.000000 0.069761 0.000000 -0.028587
# 5 0.004471 -0.002198 -0.003025 0.000000 0.030238 0.000000
# 6 0.000000 0.000000 0.000000 -0.028587 0.000000 0.020460
#
#
# Mechanical properties :
#
#
# Convention : Reuss Voigt Hill
#
# Bulk Modulus (GPa) = 23.76511 24.38208 24.07360
# Shear Modulus (GPa) = 22.55186 46.10736 34.32961
#
# Velocity S-wave (km/s) = 3.15313 4.50854 3.89032
# Velocity P-wave (km/s) = 4.87170 6.15237 5.54911
#
# Compressibility (1/GPa) = 0.04207849
#
# Stress axis : x y z
#
# Youngs Moduli (GPa) = 44.90418 41.23048 55.16278
#
# Poissons Ratio (x) = 0.35629 -0.19855
# Poissons Ratio (y) = 0.38804 0.34446
# Poissons Ratio (z) = -0.16162 0.25746
#
# Static dielectric constant tensor:
#      x y z
#    x 1.855400 0.000000 -0.012210 
#    y 0.000000 1.824560 0.000000 
#    z -0.012210 0.000000 1.855720 
# 
# From -- ./inp_files/197916.got.cif
#   From: 2010.05.17/outbox.cif.g08.bks.cpg/sg15_99_cif.got.tgz:197916.got - 2010.06.03 18:47:42.
