data_PCOD9295684
_publ_section_title
;
Structure prediction by ZEFSAII (Michael W. Deem and Ramdas Pophale) SiO2 
 PCOD9295684
Probable space group: C 2/C
;
_chemical_formula_sum "Si O2"
_cell_formula_units_Z 28
_cell_length_a 16.915443
_cell_length_b 8.383934
_cell_length_c 13.201930
_cell_angle_alpha 90.000000
_cell_angle_beta 141.031981
_cell_angle_gamma 90.000000
_cell_volume 1177.445819
_symmetry_space_group_name_H-M "C 2/C"
_symmetry_group_IT_number 15
_symmetry_cell_setting 'monoclinic'
loop_
_space_group_symop_operation_xyz
x,y,z
-x,y,1/2-z
-x,-y,-z
x,-y,1/2+z
1/2+x,1/2+y,z
1/2-x,1/2+y,1/2-z
1/2-x,1/2-y,-z
1/2+x,1/2-y,1/2+z
loop_
_atom_site_type_symbol
_atom_site_label
_atom_site_fract_x
_atom_site_fract_y
_atom_site_fract_z
Si Si1 0.000000 0.054375 0.750000
Si Si2 0.335145 0.290102 0.692790
Si Si3 0.578060 0.869336 0.474140
Si Si4 0.081443 0.732688 0.512774
O O1 0.068210 0.162432 0.901045
O O2 0.097480 0.942828 0.787242
O O3 0.437748 0.147497 0.786803
O O4 0.187001 0.275095 0.523786
O O5 0.334188 0.310464 0.815541
O O6 0.550029 0.792266 0.556357
O O7 0.618414 0.051886 0.522746
#
# Coordination Sequence:
#
# PCOD9295684 Si02
#       4
#     4   8   8   8
#     4  12  24  38  68 104 130 166 224 270 320 384
#     4  10  23  43  67  97 127 176 211 275 317 391
#     4   9  22  46  68  88 136 174 213 263 332 380
#     4   9  23  43  65  97 134 173 212 272 323 387
#
# _framework density 23.780289
#
# number of rings (size 3 to 8) (size 9 to 14) (size 15 to 20)
#    1.714    0.571    0.000    0.857    4.000    3.429 
#    0.000    0.000    0.000    0.000    0.000    0.000 
#    0.000    0.000    0.000    0.000    0.000    0.000 
#
# Total GULP energy -78076.982536 kJ/mol
# GULP energy per Si atom -5576.927324 kJ/mol
# Density = 2.372616 g / cm^3
# Si number density = 23.780289 Si / 1000 Ang^3
#
#
#
# Elastic Constant Matrix: (Units=GPa)
#
#
# Indices 1 2 3 4 5 6 
#
# 1 68.1268 21.8880 23.2098 0.0000 25.6678 0.0000
# 2 21.8880 87.4117 24.7168 0.0000 -7.7205 0.0000
# 3 23.2098 24.7168 87.2446 0.0000 11.2269 0.0000
# 4 0.0000 0.0000 0.0000 30.5085 0.0000 -27.1639
# 5 25.6678 -7.7205 11.2269 0.0000 40.5988 0.0000
# 6 0.0000 0.0000 0.0000 -27.1639 0.0000 22.4774
#
#
#
# Elastic Compliance Matrix: (Units=1/GPa)
#
#
# Indices 1 2 3 4 5 6 
#
# 1 0.023382 -0.006536 -0.002392 0.000000 -0.015364 0.000000
# 2 -0.006536 0.014751 -0.003456 0.000000 0.007893 0.000000
# 3 -0.002392 -0.003456 0.013446 0.000000 -0.002863 0.000000
# 4 0.000000 0.000000 0.000000 -0.431208 0.000000 -0.521114
# 5 -0.015364 0.007893 -0.002863 0.000000 0.036638 0.000000
# 6 0.000000 0.000000 0.000000 -0.521114 0.000000 -0.585276
#
#
# Mechanical properties :
#
#
# Convention : Reuss Voigt Hill
#
# Bulk Modulus (GPa) = 37.29654 42.49027 39.89341
# Shear Modulus (GPa) = -5.58932 30.24817 12.32943
#
# Velocity S-wave (km/s) = -1.53476 3.57036 2.27947
# Velocity P-wave (km/s) = 3.54643 5.90790 4.87239
#
# Compressibility (1/GPa) = 0.02681214
#
# Stress axis : x y z
#
# Youngs Moduli (GPa) = 42.76839 67.79203 74.37238
#
# Poissons Ratio (x) = 0.44306 0.17787
# Poissons Ratio (y) = 0.27952 0.25703
# Poissons Ratio (z) = 0.10229 0.23429
#
# Static dielectric constant tensor:
#      x y z
#    x 1.981500 0.000000 -0.061110 
#    y 0.000000 1.829480 0.000000 
#    z -0.061110 0.000000 2.086720 
# 
# From -- ./inp_files/93333.got.cif
#   From: 2010.05.17/outbox.cif.g08.bks.cpg/sg15_47_cif.got.tgz:93333.got - 2010.06.03 18:47:42.
