data_PCOD9295064
_publ_section_title
;
Structure prediction by ZEFSAII (Michael W. Deem and Ramdas Pophale) SiO2 
 PCOD9295064
Probable space group: C 2/C
;
_chemical_formula_sum "Si O2"
_cell_formula_units_Z 48
_cell_length_a 15.495837
_cell_length_b 16.576325
_cell_length_c 10.286510
_cell_angle_alpha 90.000000
_cell_angle_beta 123.088860
_cell_angle_gamma 90.000000
_cell_volume 2213.729730
_symmetry_space_group_name_H-M "C 2/C"
_symmetry_group_IT_number 15
_symmetry_cell_setting 'monoclinic'
loop_
_space_group_symop_operation_xyz
x,y,z
-x,y,1/2-z
-x,-y,-z
x,-y,1/2+z
1/2+x,1/2+y,z
1/2-x,1/2+y,1/2-z
1/2-x,1/2-y,-z
1/2+x,1/2-y,1/2+z
loop_
_atom_site_type_symbol
_atom_site_label
_atom_site_fract_x
_atom_site_fract_y
_atom_site_fract_z
Si Si1 0.092344 0.937294 0.100768
Si Si2 0.879194 0.687358 0.151102
Si Si3 0.590641 0.350444 0.475597
Si Si4 0.734661 0.282359 0.781166
Si Si5 0.744494 0.873294 0.437618
Si Si6 0.244317 0.957768 0.455152
O O1 0.186214 0.968580 0.268880
O O2 0.030165 0.867276 0.126776
O O3 0.139535 0.896911 0.011351
O O4 0.000000 0.000000 0.000000
O O5 0.873450 0.772346 0.073244
O O6 0.820579 0.700011 0.240895
O O7 0.000000 0.667448 0.250000
O O8 0.822373 0.616539 0.025773
O O9 0.631433 0.328527 0.651959
O O10 0.652991 0.427063 0.474633
O O11 0.769344 0.322935 0.943202
O O12 0.712742 0.188229 0.795858
O O13 0.703837 0.962410 0.441613
#
# Coordination Sequence:
#
# PCOD9295064 Si02
#       6
#     8   8   8   8   8   8
#     4  12  23  38  66 106 137 164 208 271 341 404
#     4  11  23  44  68  92 123 175 237 271 310 386
#     4  11  21  39  66  99 132 167 218 269 332 395
#     4  10  23  42  63  93 133 175 213 270 332 396
#     4  11  23  40  64  93 140 172 208 268 344 390
#     4  11  23  38  65  98 131 171 218 275 326 388
#
# _framework density 21.682863999999999
#
# number of rings (size 3 to 8) (size 9 to 14) (size 15 to 20)
#    0.000    1.000    1.667    7.500    2.333    2.000 
#    0.000    0.833    7.333    0.000    0.000    0.000 
#    0.000    0.000    0.000    0.000    0.000    0.000 
#
# Total GULP energy -133868.444016 kJ/mol
# GULP energy per Si atom -5577.851834 kJ/mol
# Density = 2.163351 g / cm^3
# Si number density = 21.682864 Si / 1000 Ang^3
#
#
#
# Elastic Constant Matrix: (Units=GPa)
#
#
# Indices 1 2 3 4 5 6 
#
# 1 70.6020 11.3416 25.4867 0.0000 -11.4585 0.0000
# 2 11.3416 125.0316 27.0587 0.0000 -8.2819 0.0000
# 3 25.4867 27.0587 86.1070 0.0000 -3.7851 0.0000
# 4 0.0000 0.0000 0.0000 40.5532 0.0000 3.2852
# 5 -11.4585 -8.2819 -3.7851 0.0000 33.0117 0.0000
# 6 0.0000 0.0000 0.0000 3.2852 0.0000 31.4477
#
#
#
# Elastic Compliance Matrix: (Units=1/GPa)
#
#
# Indices 1 2 3 4 5 6 
#
# 1 0.016724 -0.000160 -0.004670 0.000000 0.005229 0.000000
# 2 -0.000160 0.008697 -0.002605 0.000000 0.001828 0.000000
# 3 -0.004670 -0.002605 0.013784 0.000000 -0.000694 0.000000
# 4 0.000000 0.000000 0.000000 0.024869 0.000000 -0.002598
# 5 0.005229 0.001828 -0.000694 0.000000 0.032486 0.000000
# 6 0.000000 0.000000 0.000000 -0.002598 0.000000 0.032070
#
#
# Mechanical properties :
#
#
# Convention : Reuss Voigt Hill
#
# Bulk Modulus (GPa) = 41.09362 45.50161 43.29761
# Shear Modulus (GPa) = 32.97849 35.52610 34.25229
#
# Velocity S-wave (km/s) = 3.90416 4.05216 3.97885
# Velocity P-wave (km/s) = 6.27029 6.55163 6.41251
#
# Compressibility (1/GPa) = 0.02433468
#
# Stress axis : x y z
#
# Youngs Moduli (GPa) = 59.79371 114.97679 72.54811
#
# Poissons Ratio (x) = 0.01840 0.33880
# Poissons Ratio (y) = 0.00957 0.18902
# Poissons Ratio (z) = 0.27924 0.29956
#
# Static dielectric constant tensor:
#      x y z
#    x 1.801300 0.000000 -0.053070 
#    y 0.000000 1.878600 0.000000 
#    z -0.053070 0.000000 1.862160 
# 
# From -- ./inp_files/106505.got.cif
#   From: 2010.05.17/outbox.cif.g08.bks.cpg/sg15_54_cif.got.tgz:106505.got - 2010.06.03 18:47:42.
