data_PCOD9295209
_publ_section_title
;
Structure prediction by ZEFSAII (Michael W. Deem and Ramdas Pophale) SiO2 
 PCOD9295209
Probable space group: C 2/C
;
_chemical_formula_sum "Si O2"
_cell_formula_units_Z 60
_cell_length_a 7.860901
_cell_length_b 16.431608
_cell_length_c 22.606043
_cell_angle_alpha 90.000000
_cell_angle_beta 76.558358
_cell_angle_gamma 90.000000
_cell_volume 2839.974348
_symmetry_space_group_name_H-M "C 2/C"
_symmetry_group_IT_number 15
_symmetry_cell_setting 'monoclinic'
loop_
_space_group_symop_operation_xyz
x,y,z
-x,y,1/2-z
-x,-y,-z
x,-y,1/2+z
1/2+x,1/2+y,z
1/2-x,1/2+y,1/2-z
1/2-x,1/2-y,-z
1/2+x,1/2-y,1/2+z
loop_
_atom_site_type_symbol
_atom_site_label
_atom_site_fract_x
_atom_site_fract_y
_atom_site_fract_z
Si Si1 0.656621 0.195750 0.831598
Si Si2 0.301632 0.867764 0.046794
Si Si3 0.500000 0.037046 0.250000
Si Si4 0.000349 0.256321 0.953859
Si Si5 0.322830 0.857017 0.864845
Si Si6 0.700990 0.488723 0.965384
Si Si7 0.225871 0.642657 0.614244
Si Si8 0.673857 0.415178 0.270531
O O1 0.715528 0.138935 0.882109
O O2 0.701253 0.288357 0.844678
O O3 0.453738 0.173278 0.842583
O O4 0.764791 0.167424 0.766582
O O5 0.135731 0.819047 0.032616
O O6 0.465756 0.812696 0.013043
O O7 0.299965 0.953745 0.014958
O O8 0.560500 0.093916 0.191178
O O9 0.332621 0.979443 0.250664
O O10 0.942947 0.308994 0.901894
O O11 0.185067 0.217377 0.926396
O O12 0.215426 0.921419 0.912479
O O13 0.787927 0.569019 0.931022
O O14 0.500000 0.500000 0.000000
O O15 0.343471 0.606642 0.658712
O O16 0.500000 0.442902 0.250000
#
# Coordination Sequence:
#
# PCOD9295209 Si02
#       8
#     8   8   4   8   8   8   8   8
#     4  11  24  41  68  97 137 177 230 279 340 415
#     4   9  19  38  61  94 129 173 222 271 347 395
#     4  12  24  50  68  98 138 174 234 290 338 410
#     4   9  19  37  61  91 130 174 219 271 336 403
#     4  10  23  42  66  97 134 178 220 288 338 397
#     4  11  21  39  69  96 134 178 224 285 345 401
#     4  12  23  42  66  99 134 180 232 279 337 416
#     4  12  25  46  72  97 134 182 227 284 349 410
#
# _framework density 21.126950000000001
#
# number of rings (size 3 to 8) (size 9 to 14) (size 15 to 20)
#    0.000    1.333    4.000    2.400    2.800    1.067 
#    2.400    0.000    0.000    0.000    0.000    0.000 
#    0.000    0.000    0.000    0.000    0.000    0.000 
#
# Total GULP energy -167651.070079 kJ/mol
# GULP energy per Si atom -5588.369003 kJ/mol
# Density = 2.107886 g / cm^3
# Si number density = 21.126950 Si / 1000 Ang^3
#
#
#
# Elastic Constant Matrix: (Units=GPa)
#
#
# Indices 1 2 3 4 5 6 
#
# 1 84.2989 26.1171 2.6937 0.0000 -10.3919 0.0000
# 2 26.1171 93.0271 21.1240 0.0000 -10.9425 0.0000
# 3 2.6937 21.1240 72.6139 0.0000 -12.0610 0.0000
# 4 0.0000 0.0000 0.0000 40.1302 0.0000 -3.4322
# 5 -10.3919 -10.9425 -12.0610 0.0000 25.7019 0.0000
# 6 0.0000 0.0000 0.0000 -3.4322 0.0000 24.7763
#
#
#
# Elastic Compliance Matrix: (Units=1/GPa)
#
#
# Indices 1 2 3 4 5 6 
#
# 1 0.013479 -0.003541 0.001285 0.000000 0.004545 0.000000
# 2 -0.003541 0.012758 -0.003162 0.000000 0.002516 0.000000
# 3 0.001285 -0.003162 0.015733 0.000000 0.006556 0.000000
# 4 0.000000 0.000000 0.000000 0.025218 0.000000 0.003493
# 5 0.004545 0.002516 0.006556 0.000000 0.044893 0.000000
# 6 0.000000 0.000000 0.000000 0.003493 0.000000 0.040845
#
#
# Mechanical properties :
#
#
# Convention : Reuss Voigt Hill
#
# Bulk Modulus (GPa) = 32.12051 38.86771 35.49411
# Shear Modulus (GPa) = 28.71264 31.45535 30.08399
#
# Velocity S-wave (km/s) = 3.69053 3.86278 3.77764
# Velocity P-wave (km/s) = 5.77898 6.19128 5.98868
#
# Compressibility (1/GPa) = 0.03113275
#
# Stress axis : x y z
#
# Youngs Moduli (GPa) = 74.18968 78.38374 63.56215
#
# Poissons Ratio (x) = 0.27759 -0.08169
# Poissons Ratio (y) = 0.26273 0.20099
# Poissons Ratio (z) = -0.09534 0.24786
#
# Static dielectric constant tensor:
#      x y z
#    x 1.802810 0.000000 -0.004510 
#    y 0.000000 1.752730 0.000000 
#    z -0.004510 0.000000 1.769970 
# 
# From -- ./inp_files/264676.got.cif
#   From: 2010.05.17/outbox.cif.g08.bks.cpg/sg15_133_cif.got.tgz:264676.got - 2010.06.03 18:47:42.
