data_PCOD9295916
_publ_section_title
;
Structure prediction by ZEFSAII (Michael W. Deem and Ramdas Pophale) SiO2 
 PCOD9295916
Probable space group: C 2/C
;
_chemical_formula_sum "Si O2"
_cell_formula_units_Z 52
_cell_length_a 19.552196
_cell_length_b 5.491705
_cell_length_c 18.894995
_cell_angle_alpha 90.000000
_cell_angle_beta 92.592698
_cell_angle_gamma 90.000000
_cell_volume 2026.771213
_symmetry_space_group_name_H-M "C 2/C"
_symmetry_group_IT_number 15
_symmetry_cell_setting 'monoclinic'
loop_
_space_group_symop_operation_xyz
x,y,z
-x,y,1/2-z
-x,-y,-z
x,-y,1/2+z
1/2+x,1/2+y,z
1/2-x,1/2+y,1/2-z
1/2-x,1/2-y,-z
1/2+x,1/2-y,1/2+z
loop_
_atom_site_type_symbol
_atom_site_label
_atom_site_fract_x
_atom_site_fract_y
_atom_site_fract_z
Si Si1 0.861475 0.178805 0.742883
Si Si2 0.453589 0.360306 0.597967
Si Si3 0.149119 0.556625 0.400200
Si Si4 0.235848 0.163109 0.323752
Si Si5 0.398398 0.473094 0.451173
Si Si6 0.322299 0.048211 0.938649
Si Si7 0.000000 0.979900 0.250000
O O1 0.870510 0.254122 0.661632
O O2 0.806799 0.328842 0.784739
O O3 0.936697 0.172336 0.778312
O O4 0.821284 0.925275 0.733732
O O5 0.422791 0.087890 0.587965
O O6 0.402853 0.490910 0.537816
O O7 0.525963 0.458929 0.572538
O O8 0.464800 0.379458 0.683353
O O9 0.203859 0.394599 0.359301
O O10 0.184591 0.579571 0.477733
O O11 0.254076 0.989331 0.390501
O O12 0.367326 0.204712 0.432694
O O13 0.355134 0.695872 0.417520
#
# Coordination Sequence:
#
# PCOD9295916 Si02
#       7
#     8   8   8   8   8   8   4
#     4  12  27  46  76 101 157 186 256 297 388 431
#     4  10  23  43  72  98 154 184 251 296 381 430
#     4  11  25  46  70 106 139 197 241 314 358 452
#     4  12  26  48  71 107 144 201 235 315 366 455
#     4  10  24  47  70 111 145 197 234 317 368 444
#     4  11  26  44  78 107 146 187 258 299 376 434
#     4  12  24  44  72 110 134 200 242 314 354 464
#
# _framework density 25.656573000000002
#
# number of rings (size 3 to 8) (size 9 to 14) (size 15 to 20)
#    0.000    0.923    3.077    2.308    4.308   11.692 
#    0.000    0.000    0.000    0.000    0.000    0.000 
#    0.000    0.000    0.000    0.000    0.000    0.000 
#
# Total GULP energy -145032.025879 kJ/mol
# GULP energy per Si atom -5578.154842 kJ/mol
# Density = 2.559818 g / cm^3
# Si number density = 25.656573 Si / 1000 Ang^3
#
#
#
# Elastic Constant Matrix: (Units=GPa)
#
#
# Indices 1 2 3 4 5 6 
#
# 1 112.0728 23.3623 14.6782 0.0000 21.8546 0.0000
# 2 23.3623 54.8826 -0.5795 0.0000 10.8213 0.0000
# 3 14.6782 -0.5795 107.9502 0.0000 8.4077 0.0000
# 4 0.0000 0.0000 0.0000 -61.0838 0.0000 23.9804
# 5 21.8546 10.8213 8.4077 0.0000 38.3528 0.0000
# 6 0.0000 0.0000 0.0000 23.9804 0.0000 21.3820
#
#
#
# Elastic Compliance Matrix: (Units=1/GPa)
#
#
# Indices 1 2 3 4 5 6 
#
# 1 0.010776 -0.003638 -0.001105 0.000000 -0.004872 0.000000
# 2 -0.003638 0.020553 0.000911 0.000000 -0.003926 0.000000
# 3 -0.001105 0.000911 0.009553 0.000000 -0.001721 0.000000
# 4 0.000000 0.000000 0.000000 -0.011366 0.000000 0.012748
# 5 -0.004872 -0.003926 -0.001721 0.000000 0.030335 0.000000
# 6 0.000000 0.000000 0.000000 0.012748 0.000000 0.032471
#
#
# Mechanical properties :
#
#
# Convention : Reuss Voigt Hill
#
# Bulk Modulus (GPa) = 30.10579 38.86975 34.48777
# Shear Modulus (GPa) = 45.02113 15.55984 30.29048
#
# Velocity S-wave (km/s) = 4.19353 2.46532 3.43973
# Velocity P-wave (km/s) = 5.93357 4.82563 5.40804
#
# Compressibility (1/GPa) = 0.03321620
#
# Stress axis : x y z
#
# Youngs Moduli (GPa) = 92.79938 48.65465 104.68159
#
# Poissons Ratio (x) = 0.17702 0.11571
# Poissons Ratio (y) = 0.33762 -0.09534
# Poissons Ratio (z) = 0.10257 -0.04431
#
# Static dielectric constant tensor:
#      x y z
#    x 2.069670 0.000000 -0.081140 
#    y 0.000000 2.153520 0.000000 
#    z -0.081140 0.000000 2.097740 
# 
# From -- ./inp_files/251120.got.cif
#   From: 2010.05.17/outbox.cif.g08.bks.cpg/sg15_126_cif.got.tgz:251120.got - 2010.06.03 18:47:42.
