data_PCOD9295982
_publ_section_title
;
Structure prediction by ZEFSAII (Michael W. Deem and Ramdas Pophale) SiO2 
 PCOD9295982
Probable space group: C 2/C
;
_chemical_formula_sum "Si O2"
_cell_formula_units_Z 52
_cell_length_a 17.857385
_cell_length_b 9.109987
_cell_length_c 21.589448
_cell_angle_alpha 90.000000
_cell_angle_beta 46.697599
_cell_angle_gamma 90.000000
_cell_volume 2555.970291
_symmetry_space_group_name_H-M "C 2/C"
_symmetry_group_IT_number 15
_symmetry_cell_setting 'monoclinic'
loop_
_space_group_symop_operation_xyz
x,y,z
-x,y,1/2-z
-x,-y,-z
x,-y,1/2+z
1/2+x,1/2+y,z
1/2-x,1/2+y,1/2-z
1/2-x,1/2-y,-z
1/2+x,1/2-y,1/2+z
loop_
_atom_site_type_symbol
_atom_site_label
_atom_site_fract_x
_atom_site_fract_y
_atom_site_fract_z
Si Si1 0.580317 0.371871 0.432977
Si Si2 0.500000 0.534679 0.750000
Si Si3 0.189891 0.521111 0.673576
Si Si4 0.437519 0.762007 0.693876
Si Si5 0.135340 0.354559 0.002854
Si Si6 0.374343 0.730591 0.362122
Si Si7 0.665415 0.873639 0.556709
O O1 0.500000 0.500000 0.500000
O O2 0.696442 0.436785 0.368561
O O3 0.566323 0.305378 0.372468
O O4 0.577225 0.232422 0.481917
O O5 0.425560 0.631632 0.749918
O O6 0.570175 0.424403 0.671526
O O7 0.136927 0.397219 0.746145
O O8 0.116992 0.664022 0.703084
O O9 0.202215 0.465355 0.595627
O O10 0.554484 0.812832 0.637725
O O11 0.090891 0.306175 0.094334
O O12 0.146332 0.529185 0.005706
O O13 0.252495 0.298807 0.933406
O O14 0.750000 0.750000 0.500000
#
# Coordination Sequence:
#
# PCOD9295982 Si02
#       7
#     8   4   8   8   8   8   8
#     4  11  24  45  65  94 138 180 227 276 337 418
#     4  12  22  36  66  96 126 172 218 262 338 390
#     4  10  23  44  63  93 137 169 217 283 342 391
#     4  12  25  41  64 102 134 172 225 280 341 406
#     4   9  20  39  62  92 120 167 220 262 330 396
#     4   9  20  37  65  91 122 164 216 268 321 398
#     4  11  21  40  70  94 128 169 224 287 329 407
#
# _framework density 20.344524
#
# number of rings (size 3 to 8) (size 9 to 14) (size 15 to 20)
#    0.000    1.538    1.538    3.692    4.308    3.077 
#    2.769    0.000    0.000    0.000    0.000    0.000 
#    0.000    0.000    0.000    0.000    0.000    0.000 
#
# Total GULP energy -144986.011177 kJ/mol
# GULP energy per Si atom -5576.385045 kJ/mol
# Density = 2.029822 g / cm^3
# Si number density = 20.344524 Si / 1000 Ang^3
#
#
#
# Elastic Constant Matrix: (Units=GPa)
#
#
# Indices 1 2 3 4 5 6 
#
# 1 64.6545 25.1358 16.9773 0.0000 11.6125 0.0000
# 2 25.1358 110.8659 35.9881 0.0000 6.5050 0.0000
# 3 16.9773 35.9881 65.5789 0.0000 4.6205 0.0000
# 4 0.0000 0.0000 0.0000 51.5172 0.0000 2.4933
# 5 11.6125 6.5050 4.6205 0.0000 38.4419 0.0000
# 6 0.0000 0.0000 0.0000 2.4933 0.0000 34.6104
#
#
#
# Elastic Compliance Matrix: (Units=1/GPa)
#
#
# Indices 1 2 3 4 5 6 
#
# 1 0.018175 -0.002953 -0.002757 0.000000 -0.004659 0.000000
# 2 -0.002953 0.011505 -0.005522 0.000000 -0.000391 0.000000
# 3 -0.002757 -0.005522 0.019029 0.000000 -0.000520 0.000000
# 4 0.000000 0.000000 0.000000 0.019479 0.000000 -0.001403
# 5 -0.004659 -0.000391 -0.000520 0.000000 0.027550 0.000000
# 6 0.000000 0.000000 0.000000 -0.001403 0.000000 0.028994
#
#
# Mechanical properties :
#
#
# Convention : Reuss Voigt Hill
#
# Bulk Modulus (GPa) = 38.09866 44.14464 41.12165
# Shear Modulus (GPa) = 32.06307 35.78043 33.92175
#
# Velocity S-wave (km/s) = 3.97420 4.19827 4.08777
# Velocity P-wave (km/s) = 6.31082 6.72653 6.52199
#
# Compressibility (1/GPa) = 0.02624764
#
# Stress axis : x y z
#
# Youngs Moduli (GPa) = 55.01930 86.92177 52.55080
#
# Poissons Ratio (x) = 0.25664 0.14487
# Poissons Ratio (y) = 0.16245 0.29016
# Poissons Ratio (z) = 0.15168 0.47994
#
# Static dielectric constant tensor:
#      x y z
#    x 1.702270 0.000000 0.013230 
#    y 0.000000 1.823030 0.000000 
#    z 0.013230 0.000000 1.768970 
# 
# From -- ./inp_files/247772.got.cif
#   From: 2010.05.17/outbox.cif.g08.bks.cpg/sg15_124_cif.got.tgz:247772.got - 2010.06.03 18:47:42.
