data_PCOD9295301
_publ_section_title
;
Structure prediction by ZEFSAII (Michael W. Deem and Ramdas Pophale) SiO2 
 PCOD9295301
Probable space group: C 2/C
;
_chemical_formula_sum "Si O2"
_cell_formula_units_Z 44
_cell_length_a 8.667139
_cell_length_b 30.573509
_cell_length_c 9.211005
_cell_angle_alpha 90.000000
_cell_angle_beta 121.079238
_cell_angle_gamma 90.000000
_cell_volume 2090.413546
_symmetry_space_group_name_H-M "C 2/C"
_symmetry_group_IT_number 15
_symmetry_cell_setting 'monoclinic'
loop_
_space_group_symop_operation_xyz
x,y,z
-x,y,1/2-z
-x,-y,-z
x,-y,1/2+z
1/2+x,1/2+y,z
1/2-x,1/2+y,1/2-z
1/2-x,1/2-y,-z
1/2+x,1/2-y,1/2+z
loop_
_atom_site_type_symbol
_atom_site_label
_atom_site_fract_x
_atom_site_fract_y
_atom_site_fract_z
Si Si1 0.789898 0.583373 0.413287
Si Si2 0.000000 0.845350 0.750000
Si Si3 0.365854 0.508605 0.566171
Si Si4 0.000000 0.631173 0.750000
Si Si5 0.500000 0.051644 0.250000
Si Si6 0.307142 0.804030 0.382078
Si Si7 0.036164 0.209622 0.984831
O O1 0.661913 0.621854 0.299522
O O2 0.696297 0.536532 0.388453
O O3 0.937404 0.577925 0.360712
O O4 0.859069 0.599496 0.602927
O O5 0.020547 0.815190 0.898599
O O6 0.500000 0.532445 0.750000
O O7 0.500000 0.500000 0.500000
O O8 0.179945 0.527339 0.403263
O O9 0.083114 0.660585 0.659477
O O10 0.209509 0.813102 0.490034
O O11 0.419542 0.759970 0.460866
O O12 0.135306 0.792048 0.201506
#
# Coordination Sequence:
#
# PCOD9295301 Si02
#       7
#     8   4   8   4   4   8   8
#     4  12  27  45  68 106 136 181 225 291 354 411
#     4  12  23  44  64  99 146 172 226 287 348 410
#     4  12  25  49  76 104 141 187 237 286 351 428
#     4  12  26  42  66 100 142 174 224 290 354 404
#     4  12  27  50  74 103 144 186 244 287 344 438
#     4  10  23  44  64  95 129 182 231 272 341 408
#     4  10  23  42  68  92 131 182 229 276 331 416
#
# _framework density 21.048466000000001
#
# number of rings (size 3 to 8) (size 9 to 14) (size 15 to 20)
#    0.000    0.727    4.545    1.636    7.636    1.455 
#    0.000    0.000    0.000    0.000    0.000    0.000 
#    0.000    0.000    0.000    0.000    0.000    0.000 
#
# Total GULP energy -122696.734931 kJ/mol
# GULP energy per Si atom -5577.124315 kJ/mol
# Density = 2.100056 g / cm^3
# Si number density = 21.048466 Si / 1000 Ang^3
#
#
#
# Elastic Constant Matrix: (Units=GPa)
#
#
# Indices 1 2 3 4 5 6 
#
# 1 114.8042 29.9923 19.1204 0.0000 -12.0216 0.0000
# 2 29.9923 38.6433 13.0940 0.0000 -3.1937 0.0000
# 3 19.1204 13.0940 83.9909 0.0000 2.8764 0.0000
# 4 0.0000 0.0000 0.0000 43.5590 0.0000 -37.7059
# 5 -12.0216 -3.1937 2.8764 0.0000 46.9822 0.0000
# 6 0.0000 0.0000 0.0000 -37.7059 0.0000 143.0308
#
#
#
# Elastic Compliance Matrix: (Units=1/GPa)
#
#
# Indices 1 2 3 4 5 6 
#
# 1 0.011316 -0.008109 -0.001395 0.000000 0.002430 0.000000
# 2 -0.008109 0.033345 -0.003366 0.000000 0.000398 0.000000
# 3 -0.001395 -0.003366 0.012795 0.000000 -0.001369 0.000000
# 4 0.000000 0.000000 0.000000 0.029745 0.000000 0.007841
# 5 0.002430 0.000398 -0.001369 0.000000 0.022017 0.000000
# 6 0.000000 0.000000 0.000000 0.007841 0.000000 0.009059
#
#
# Mechanical properties :
#
#
# Convention : Reuss Voigt Hill
#
# Bulk Modulus (GPa) = 31.53010 40.20575 35.86792
# Shear Modulus (GPa) = 32.34388 58.39651 45.37019
#
# Velocity S-wave (km/s) = 3.92425 5.27296 4.64778
# Velocity P-wave (km/s) = 5.96199 7.49767 6.77349
#
# Compressibility (1/GPa) = 0.03171573
#
# Stress axis : x y z
#
# Youngs Moduli (GPa) = 88.37290 29.98966 78.15390
#
# Poissons Ratio (x) = 0.24319 0.10903
# Poissons Ratio (y) = 0.71662 0.26307
# Poissons Ratio (z) = 0.12328 0.10095
#
# Static dielectric constant tensor:
#      x y z
#    x 1.778960 0.000000 0.005840 
#    y 0.000000 1.808770 0.000000 
#    z 0.005840 0.000000 1.818810 
# 
# From -- ./inp_files/26021.got.cif
#   From: 2010.05.17/outbox.cif.g08.bks.cpg/sg15_14_cif.got.tgz:26021.got - 2010.06.03 18:47:42.
