data_PCOD9295049
_publ_section_title
;
Structure prediction by ZEFSAII (Michael W. Deem and Ramdas Pophale) SiO2 
 PCOD9295049
Probable space group: C 2/C
;
_chemical_formula_sum "Si O2"
_cell_formula_units_Z 52
_cell_length_a 11.715602
_cell_length_b 23.398581
_cell_length_c 11.115201
_cell_angle_alpha 90.000000
_cell_angle_beta 70.388960
_cell_angle_gamma 90.000000
_cell_volume 2870.245426
_symmetry_space_group_name_H-M "C 2/C"
_symmetry_group_IT_number 15
_symmetry_cell_setting 'monoclinic'
loop_
_space_group_symop_operation_xyz
x,y,z
-x,y,1/2-z
-x,-y,-z
x,-y,1/2+z
1/2+x,1/2+y,z
1/2-x,1/2+y,1/2-z
1/2-x,1/2-y,-z
1/2+x,1/2-y,1/2+z
loop_
_atom_site_type_symbol
_atom_site_label
_atom_site_fract_x
_atom_site_fract_y
_atom_site_fract_z
Si Si1 0.383094 0.740988 0.507769
Si Si2 0.000000 0.825199 0.750000
Si Si3 0.223183 0.393154 0.469365
Si Si4 0.123784 0.851296 0.282003
Si Si5 0.637097 0.525574 0.745374
Si Si6 0.212555 0.901010 0.784213
Si Si7 0.533804 0.850427 0.874024
O O1 0.250000 0.750000 0.500000
O O2 0.465335 0.714433 0.374403
O O3 0.371704 0.694843 0.617693
O O4 0.437689 0.798071 0.547669
O O5 0.887901 0.865310 0.751764
O O6 0.269217 0.347520 0.354284
O O7 0.276491 0.451887 0.393941
O O8 0.284650 0.383430 0.576629
O O9 0.080249 0.387201 0.539141
O O10 0.131460 0.916731 0.328279
O O11 0.000000 0.847806 0.250000
O O12 0.500000 0.515445 0.750000
O O13 0.685969 0.468253 0.785473
O O14 0.344229 0.886921 0.683907
O O15 0.500000 0.829795 0.750000
#
# Coordination Sequence:
#
# PCOD9295049 Si02
#       7
#     8   4   8   8   8   8   8
#     4  12  25  42  61  92 129 163 212 259 316 364
#     4  12  26  36  62  94 128 162 200 274 314 362
#     4   9  21  39  65  85 123 167 205 253 307 375
#     4   9  20  42  62  91 116 164 210 250 307 376
#     4   9  20  37  64  93 123 161 204 263 312 368
#     4  11  21  40  60  97 122 163 214 257 316 370
#     4  10  23  42  63  87 126 169 214 256 307 385
#
# _framework density 18.116917999999998
#
# number of rings (size 3 to 8) (size 9 to 14) (size 15 to 20)
#    0.923    0.923    2.308    1.385    2.154    2.462 
#    0.000    3.846    0.000    0.000    0.000    0.000 
#    0.000    0.000    0.000    0.000    0.000    0.000 
#
# Total GULP energy -144906.577893 kJ/mol
# GULP energy per Si atom -5573.329919 kJ/mol
# Density = 1.807568 g / cm^3
# Si number density = 18.116918 Si / 1000 Ang^3
#
#
#
# Elastic Constant Matrix: (Units=GPa)
#
#
# Indices 1 2 3 4 5 6 
#
# 1 118.2544 48.4199 41.8742 0.0000 -6.9169 0.0000
# 2 48.4199 97.2328 41.2245 0.0000 8.4937 0.0000
# 3 41.8742 41.2245 105.0131 0.0000 -9.8328 0.0000
# 4 0.0000 0.0000 0.0000 19.2916 0.0000 -2.3839
# 5 -6.9169 8.4937 -9.8328 0.0000 24.3525 0.0000
# 6 0.0000 0.0000 0.0000 -2.3839 0.0000 16.2669
#
#
#
# Elastic Compliance Matrix: (Units=1/GPa)
#
#
# Indices 1 2 3 4 5 6 
#
# 1 0.011619 -0.005232 -0.002182 0.000000 0.004244 0.000000
# 2 -0.005232 0.015772 -0.004947 0.000000 -0.008984 0.000000
# 3 -0.002182 -0.004947 0.012927 0.000000 0.006325 0.000000
# 4 0.000000 0.000000 0.000000 0.052792 0.000000 0.007737
# 5 0.004244 -0.008984 0.006325 0.000000 0.047956 0.000000
# 6 0.000000 0.000000 0.000000 0.007737 0.000000 0.062608
#
#
# Mechanical properties :
#
#
# Convention : Reuss Voigt Hill
#
# Bulk Modulus (GPa) = 64.11354 64.83750 64.47552
# Shear Modulus (GPa) = 21.40459 24.58100 22.99280
#
# Velocity S-wave (km/s) = 3.44098 3.68747 3.56636
# Velocity P-wave (km/s) = 7.15910 7.34820 7.25426
#
# Compressibility (1/GPa) = 0.01559733
#
# Stress axis : x y z
#
# Youngs Moduli (GPa) = 86.06245 63.40358 77.35873
#
# Poissons Ratio (x) = 0.33172 0.16880
# Poissons Ratio (y) = 0.45027 0.38266
# Poissons Ratio (z) = 0.18779 0.31363
#
# Static dielectric constant tensor:
#      x y z
#    x 1.613040 0.000000 -0.014770 
#    y 0.000000 1.604140 0.000000 
#    z -0.014770 0.000000 1.627710 
# 
# From -- ./inp_files/90296.got.cif
#   From: 2010.05.17/outbox.cif.g08.bks.cpg/sg15_46_cif.got.tgz:90296.got - 2010.06.03 18:47:42.
