data_PCOD9295640
_publ_section_title
;
Structure prediction by ZEFSAII (Michael W. Deem and Ramdas Pophale) SiO2 
 PCOD9295640
Probable space group: C 2/C
;
_chemical_formula_sum "Si O2"
_cell_formula_units_Z 32
_cell_length_a 8.196586
_cell_length_b 13.979046
_cell_length_c 19.246970
_cell_angle_alpha 90.000000
_cell_angle_beta 37.837757
_cell_angle_gamma 90.000000
_cell_volume 1352.808209
_symmetry_space_group_name_H-M "C 2/C"
_symmetry_group_IT_number 15
_symmetry_cell_setting 'monoclinic'
loop_
_space_group_symop_operation_xyz
x,y,z
-x,y,1/2-z
-x,-y,-z
x,-y,1/2+z
1/2+x,1/2+y,z
1/2-x,1/2+y,1/2-z
1/2-x,1/2-y,-z
1/2+x,1/2-y,1/2+z
loop_
_atom_site_type_symbol
_atom_site_label
_atom_site_fract_x
_atom_site_fract_y
_atom_site_fract_z
Si Si1 0.347748 0.469002 0.231593
Si Si2 0.548334 0.827722 0.157799
Si Si3 0.373861 0.833072 0.722553
Si Si4 0.927858 0.100741 0.984086
O O1 0.500000 0.496598 0.250000
O O2 0.096681 0.404948 0.341203
O O3 0.252675 0.563245 0.223891
O O4 0.514681 0.411331 0.117531
O O5 0.500000 0.873751 0.250000
O O6 0.368534 0.733787 0.218839
O O7 0.864821 0.824902 0.048531
O O8 0.500000 0.791036 0.750000
O O9 0.631578 0.858126 0.590031
O O10 0.000000 0.000000 0.000000
#
# Coordination Sequence:
#
# PCOD9295640 Si02
#       4
#     8   8   8   8
#     4  11  23  42  67  99 141 176 227 280 332 406
#     4  10  23  43  66  99 139 175 228 279 331 408
#     4  12  23  42  70  99 138 182 224 283 335 399
#     4  11  22  46  71  96 135 188 222 273 349 395
#
# _framework density 23.654501
#
# number of rings (size 3 to 8) (size 9 to 14) (size 15 to 20)
#    0.000    1.000    5.000    2.250    0.000    6.000 
#    0.000    0.000    0.000    4.500    0.000    0.000 
#    0.000    0.000    0.000    0.000    0.000    0.000 
#
# Total GULP energy -89232.796202 kJ/mol
# GULP energy per Si atom -5577.049763 kJ/mol
# Density = 2.360066 g / cm^3
# Si number density = 23.654501 Si / 1000 Ang^3
#
#
#
# Elastic Constant Matrix: (Units=GPa)
#
#
# Indices 1 2 3 4 5 6 
#
# 1 87.2061 15.5929 31.6437 -0.0002 -7.9912 -0.0001
# 2 15.5929 106.0309 35.7982 -0.0013 -31.9257 0.0003
# 3 31.6437 35.7982 108.7886 -0.0018 -22.3844 -0.0004
# 4 -0.0002 -0.0013 -0.0018 30.0009 0.0006 -16.2825
# 5 -7.9912 -31.9257 -22.3844 0.0006 33.2552 0.0003
# 6 -0.0001 0.0003 -0.0004 -16.2825 0.0003 33.6545
#
#
#
# Elastic Compliance Matrix: (Units=1/GPa)
#
#
# Indices 1 2 3 4 5 6 
#
# 1 0.012867 -0.000688 -0.003501 0.000000 0.000075 0.000000
# 2 -0.000688 0.013699 -0.001899 0.000000 0.011708 0.000000
# 3 -0.003501 -0.001899 0.011941 0.000001 0.005373 0.000000
# 4 0.000000 0.000000 0.000001 0.045201 0.000000 0.021869
# 5 0.000075 0.011708 0.005373 0.000000 0.044945 -0.000001
# 6 0.000000 0.000000 0.000000 0.021869 -0.000001 0.040294
#
#
# Mechanical properties :
#
#
# Convention : Reuss Voigt Hill
#
# Bulk Modulus (GPa) = 37.97626 52.01058 44.99342
# Shear Modulus (GPa) = 26.32971 33.98151 30.15561
#
# Velocity S-wave (km/s) = 3.33993 3.79433 3.57436
# Velocity P-wave (km/s) = 5.56443 6.42116 6.00809
#
# Compressibility (1/GPa) = 0.02633224
#
# Stress axis : x y z
#
# Youngs Moduli (GPa) = 77.71632 73.00066 83.74565
#
# Poissons Ratio (x) = 0.05019 0.29319
# Poissons Ratio (y) = 0.05343 0.15901
# Poissons Ratio (z) = 0.27208 0.13861
#
# Static dielectric constant tensor:
#      x y z
#    x 1.879900 0.000000 -0.027240 
#    y 0.000000 1.912420 0.000000 
#    z -0.027240 0.000000 2.023500 
# 
# From -- ./inp_files/75305.got.cif
#   From: 2010.05.17/outbox.cif.g08.bks.cpg/sg15_38_cif.got.tgz:75305.got - 2010.06.03 18:47:42.
