data_PCOD9295811
_publ_section_title
;
Structure prediction by ZEFSAII (Michael W. Deem and Ramdas Pophale) SiO2 
 PCOD9295811
Probable space group: C 2/C
;
_chemical_formula_sum "Si O2"
_cell_formula_units_Z 44
_cell_length_a 13.398200
_cell_length_b 21.753569
_cell_length_c 5.879008
_cell_angle_alpha 90.000000
_cell_angle_beta 101.252034
_cell_angle_gamma 90.000000
_cell_volume 1680.551785
_symmetry_space_group_name_H-M "C 2/C"
_symmetry_group_IT_number 15
_symmetry_cell_setting 'monoclinic'
loop_
_space_group_symop_operation_xyz
x,y,z
-x,y,1/2-z
-x,-y,-z
x,-y,1/2+z
1/2+x,1/2+y,z
1/2-x,1/2+y,1/2-z
1/2-x,1/2-y,-z
1/2+x,1/2-y,1/2+z
loop_
_atom_site_type_symbol
_atom_site_label
_atom_site_fract_x
_atom_site_fract_y
_atom_site_fract_z
Si Si1 0.500000 0.948143 0.250000
Si Si2 0.788354 0.526214 0.810858
Si Si3 0.280269 0.648386 0.504092
Si Si4 0.585183 0.848456 0.606216
Si Si5 0.648249 0.278080 0.074326
Si Si6 0.997709 0.896264 0.988397
O O1 0.588179 0.981706 0.142803
O O2 0.572037 0.899754 0.414444
O O3 0.753543 0.502870 0.542869
O O4 0.754749 0.596363 0.831437
O O5 0.192513 0.649145 0.279632
O O6 0.308049 0.708476 0.656576
O O7 0.384668 0.630507 0.435140
O O8 0.500000 0.863407 0.750000
O O9 0.571034 0.778726 0.520057
O O10 0.750000 0.250000 0.000000
O O11 0.580966 0.340507 0.008944
O O12 0.000000 0.933171 0.750000
O O13 0.000000 0.922388 0.250000
#
# Coordination Sequence:
#
# PCOD9295811 Si02
#       6
#     4   8   8   8   8   8
#     4  12  26  46  68 112 152 194 252 322 382 464
#     4  12  27  47  77 104 145 200 263 326 388 440
#     4  11  24  48  70 107 149 200 250 319 374 455
#     4  12  24  41  68 104 154 194 243 294 378 467
#     4  11  24  41  73 107 147 197 246 297 380 464
#     4  10  23  43  70 100 144 196 244 298 371 438
#
# _framework density 26.181875999999999
#
# number of rings (size 3 to 8) (size 9 to 14) (size 15 to 20)
#    0.000    0.727    1.818    6.000    1.273    5.818 
#    0.000    0.000    0.000   14.182    0.000    0.000 
#    0.000    0.000    0.000    0.000    0.000    0.000 
#
# Total GULP energy -122774.209901 kJ/mol
# GULP energy per Si atom -5580.645905 kJ/mol
# Density = 2.612228 g / cm^3
# Si number density = 26.181876 Si / 1000 Ang^3
#
#
#
# Elastic Constant Matrix: (Units=GPa)
#
#
# Indices 1 2 3 4 5 6 
#
# 1 123.2161 -0.3831 42.9008 0.0000 10.3532 0.0000
# 2 -0.3831 102.3001 37.2045 0.0000 -2.5241 0.0000
# 3 42.9008 37.2045 180.9820 0.0000 -13.3173 0.0000
# 4 0.0000 0.0000 0.0000 40.4761 0.0000 -54.8898
# 5 10.3532 -2.5241 -13.3173 0.0000 60.2671 0.0000
# 6 0.0000 0.0000 0.0000 -54.8898 0.0000 95.0657
#
#
#
# Elastic Compliance Matrix: (Units=1/GPa)
#
#
# Indices 1 2 3 4 5 6 
#
# 1 0.009169 0.000896 -0.002512 0.000000 -0.002093 0.000000
# 2 0.000896 0.010653 -0.002420 0.000000 -0.000243 0.000000
# 3 -0.002512 -0.002420 0.006752 0.000000 0.001822 0.000000
# 4 0.000000 0.000000 0.000000 0.113851 0.000000 0.065736
# 5 -0.002093 -0.000243 0.001822 0.000000 0.017345 0.000000
# 6 0.000000 0.000000 0.000000 0.065736 0.000000 0.048475
#
#
# Mechanical properties :
#
#
# Convention : Reuss Voigt Hill
#
# Bulk Modulus (GPa) = 54.04619 62.88252 58.46435
# Shear Modulus (GPa) = 22.67742 60.94683 41.81213
#
# Velocity S-wave (km/s) = 2.94623 4.82999 4.00057
# Velocity P-wave (km/s) = 5.67989 7.42797 6.61196
#
# Compressibility (1/GPa) = 0.01850269
#
# Stress axis : x y z
#
# Youngs Moduli (GPa) = 109.06396 93.87297 148.09593
#
# Poissons Ratio (x) = -0.08412 0.37196
# Poissons Ratio (y) = -0.09774 0.35841
# Poissons Ratio (z) = 0.27393 0.22719
#
# Static dielectric constant tensor:
#      x y z
#    x 2.033640 0.000000 -0.013900 
#    y 0.000000 1.884120 0.000000 
#    z -0.013900 0.000000 2.233310 
# 
# From -- ./inp_files/7625.got.cif
#   From: 2010.05.17/outbox.cif.g08.bks.cpg/sg15_4_cif.got.tgz:7625.got - 2010.06.03 18:47:42.
