data_PCOD9295117
_publ_section_title
;
Structure prediction by ZEFSAII (Michael W. Deem and Ramdas Pophale) SiO2 
 PCOD9295117
Probable space group: C 2/C
;
_chemical_formula_sum "Si O2"
_cell_formula_units_Z 64
_cell_length_a 5.460334
_cell_length_b 21.548271
_cell_length_c 23.601052
_cell_angle_alpha 90.000000
_cell_angle_beta 65.395555
_cell_angle_gamma 90.000000
_cell_volume 2524.784101
_symmetry_space_group_name_H-M "C 2/C"
_symmetry_group_IT_number 15
_symmetry_cell_setting 'monoclinic'
loop_
_space_group_symop_operation_xyz
x,y,z
-x,y,1/2-z
-x,-y,-z
x,-y,1/2+z
1/2+x,1/2+y,z
1/2-x,1/2+y,1/2-z
1/2-x,1/2-y,-z
1/2+x,1/2-y,1/2+z
loop_
_atom_site_type_symbol
_atom_site_label
_atom_site_fract_x
_atom_site_fract_y
_atom_site_fract_z
Si Si1 0.225820 0.725473 0.439545
Si Si2 0.677712 0.005932 0.891876
Si Si3 0.016831 0.602411 0.812715
Si Si4 0.209459 0.945949 0.994493
Si Si5 0.746101 0.787759 0.340061
Si Si6 0.420544 0.616128 0.369139
Si Si7 0.974876 0.159771 0.921863
Si Si8 0.988768 0.661639 0.185632
O O1 0.250000 0.750000 0.500000
O O2 0.478429 0.748097 0.377232
O O3 0.226057 0.651752 0.433340
O O4 0.994091 0.767577 0.435787
O O5 0.923312 0.958124 0.864718
O O6 0.631427 0.049043 0.842711
O O7 0.692785 0.041884 0.950095
O O8 0.435252 0.957787 0.926413
O O9 0.736227 0.626870 0.867927
O O10 0.000000 0.579723 0.750000
O O11 0.199904 0.664792 0.793530
O O12 0.085666 0.878304 0.015466
O O13 0.000000 0.000000 0.000000
O O14 0.982543 0.737013 0.316252
O O15 0.764944 0.834930 0.391153
O O16 0.719451 0.635457 0.360553
O O17 0.272070 0.640400 0.325115
O O18 0.000000 0.641708 0.250000
#
# Coordination Sequence:
#
# PCOD9295117 Si02
#       8
#     8   8   8   8   8   8   8   8
#     4  10  24  39  63 101 139 179 228 289 359 431
#     4  11  26  44  66 102 141 183 242 293 364 440
#     4  11  25  43  68 102 137 180 242 304 364 428
#     4  11  24  42  70  97 136 188 234 299 362 438
#     4  10  23  42  65 101 135 174 232 296 355 428
#     4  11  26  45  69 104 141 186 237 288 351 439
#     4  11  22  42  67  98 137 177 237 295 365 429
#     4  11  25  47  73  98 137 186 238 290 356 422
#
# _framework density 25.348700999999998
#
# number of rings (size 3 to 8) (size 9 to 14) (size 15 to 20)
#    0.000    1.250    3.750    0.375    7.000    2.000 
#    0.000    1.250    0.000    0.000    0.000    0.000 
#    0.000    0.000    0.000    0.000    0.000    0.000 
#
# Total GULP energy -178623.049637 kJ/mol
# GULP energy per Si atom -5581.970301 kJ/mol
# Density = 2.529101 g / cm^3
# Si number density = 25.348701 Si / 1000 Ang^3
#
#
#
# Elastic Constant Matrix: (Units=GPa)
#
#
# Indices 1 2 3 4 5 6 
#
# 1 70.2737 22.4891 17.8766 0.0000 19.4715 0.0000
# 2 22.4891 109.7757 18.9651 0.0000 9.2691 0.0000
# 3 17.8766 18.9651 80.7983 0.0000 31.1721 0.0000
# 4 0.0000 0.0000 0.0000 31.6644 0.0000 18.5707
# 5 19.4715 9.2691 31.1721 0.0000 48.0138 0.0000
# 6 0.0000 0.0000 0.0000 18.5707 0.0000 37.3461
#
#
#
# Elastic Compliance Matrix: (Units=1/GPa)
#
#
# Indices 1 2 3 4 5 6 
#
# 1 0.016956 -0.002838 -0.000859 0.000000 -0.005771 0.000000
# 2 -0.002838 0.009979 -0.001888 0.000000 0.000450 0.000000
# 3 -0.000859 -0.001888 0.016990 0.000000 -0.010318 0.000000
# 4 0.000000 0.000000 0.000000 0.044583 0.000000 -0.022169
# 5 -0.005771 0.000450 -0.010318 0.000000 0.029779 0.000000
# 6 0.000000 0.000000 0.000000 -0.022169 0.000000 0.037801
#
#
# Mechanical properties :
#
#
# Convention : Reuss Voigt Hill
#
# Bulk Modulus (GPa) = 30.52970 42.16772 36.34871
# Shear Modulus (GPa) = 28.06204 36.83932 32.45068
#
# Velocity S-wave (km/s) = 3.33083 3.81636 3.58183
# Velocity P-wave (km/s) = 5.18292 6.00755 5.61040
#
# Compressibility (1/GPa) = 0.03275499
#
# Stress axis : x y z
#
# Youngs Moduli (GPa) = 58.97714 100.20987 58.85694
#
# Poissons Ratio (x) = 0.28439 0.05056
# Poissons Ratio (y) = 0.16738 0.11113
# Poissons Ratio (z) = 0.05066 0.18921
#
# Static dielectric constant tensor:
#      x y z
#    x 2.123580 0.000000 -0.033420 
#    y 0.000000 2.188110 0.000000 
#    z -0.033420 0.000000 2.111910 
# 
# From -- ./inp_files/261807.got.cif
#   From: 2010.05.17/outbox.cif.g08.bks.cpg/sg15_131_cif.got.tgz:261807.got - 2010.06.03 18:47:42.
