data_PCOD9295959
_publ_section_title
;
Structure prediction by ZEFSAII (Michael W. Deem and Ramdas Pophale) SiO2 
 PCOD9295959
Probable space group: C 2/C
;
_chemical_formula_sum "Si O2"
_cell_formula_units_Z 52
_cell_length_a 16.036554
_cell_length_b 14.186428
_cell_length_c 10.551262
_cell_angle_alpha 90.000000
_cell_angle_beta 131.079800
_cell_angle_gamma 90.000000
_cell_volume 1809.430184
_symmetry_space_group_name_H-M "C 2/C"
_symmetry_group_IT_number 15
_symmetry_cell_setting 'monoclinic'
loop_
_space_group_symop_operation_xyz
x,y,z
-x,y,1/2-z
-x,-y,-z
x,-y,1/2+z
1/2+x,1/2+y,z
1/2-x,1/2+y,1/2-z
1/2-x,1/2-y,-z
1/2+x,1/2-y,1/2+z
loop_
_atom_site_type_symbol
_atom_site_label
_atom_site_fract_x
_atom_site_fract_y
_atom_site_fract_z
Si Si1 0.072492 0.664960 0.553079
Si Si2 0.432017 0.588388 0.063634
Si Si3 0.696300 0.750002 0.638641
Si Si4 0.337849 0.024423 0.043472
Si Si5 0.124604 0.278918 0.833559
Si Si6 0.167175 0.940779 0.712780
Si Si7 0.000000 0.633230 0.750000
O O1 0.188456 0.697077 0.723727
O O2 0.094168 0.561748 0.513165
O O3 0.994393 0.672399 0.598979
O O4 0.056757 0.723266 0.401923
O O5 0.500000 0.549175 0.250000
O O6 0.543753 0.604151 0.091791
O O7 0.365169 0.684648 0.028919
O O8 0.348949 0.514358 0.917889
O O9 0.627015 0.732444 0.697502
O O10 0.743023 0.856977 0.688521
O O11 0.360906 0.107523 0.165829
O O12 0.392801 0.931731 0.150916
O O13 0.213782 0.007255 0.872767
O O14 0.250000 0.250000 0.000000
#
# Coordination Sequence:
#
# PCOD9295959 Si02
#       7
#     8   8   8   8   8   8   4
#     4  10  25  45  72 118 161 216 279 354 426 512
#     4  11  28  56  80 123 172 226 295 361 441 523
#     4  12  27  51  81 119 164 227 292 351 432 527
#     4  10  23  43  76 119 164 221 274 349 437 514
#     4  10  24  43  77 113 159 203 276 352 415 506
#     4  11  28  49  83 115 169 231 282 357 441 518
#     4  12  24  42  82 118 172 210 278 368 440 508
#
# _framework density 28.738327000000002
#
# number of rings (size 3 to 8) (size 9 to 14) (size 15 to 20)
#    0.923    0.308    2.308    0.923   10.769    0.615 
#    5.538    0.000    0.000    0.000    0.000    0.000 
#    0.000    0.000    0.000    0.000    0.000    0.000 
#
# Total GULP energy -144904.125890 kJ/mol
# GULP energy per Si atom -5573.235611 kJ/mol
# Density = 2.867292 g / cm^3
# Si number density = 28.738327 Si / 1000 Ang^3
#
#
#
# Elastic Constant Matrix: (Units=GPa)
#
#
# Indices 1 2 3 4 5 6 
#
# 1 115.0631 34.5586 -15.0887 0.0000 -16.8827 0.0000
# 2 34.5586 84.2077 12.1667 0.0000 15.4745 0.0000
# 3 -15.0887 12.1667 119.9327 0.0000 -14.6174 0.0000
# 4 0.0000 0.0000 0.0000 42.0220 0.0000 17.1415
# 5 -16.8827 15.4745 -14.6174 0.0000 37.8517 0.0000
# 6 0.0000 0.0000 0.0000 17.1415 0.0000 36.8178
#
#
#
# Elastic Compliance Matrix: (Units=1/GPa)
#
#
# Indices 1 2 3 4 5 6 
#
# 1 0.013058 -0.007816 0.003710 0.000000 0.010452 0.000000
# 2 -0.007816 0.018011 -0.004337 0.000000 -0.012524 0.000000
# 3 0.003710 -0.004337 0.010140 0.000000 0.007343 0.000000
# 4 0.000000 0.000000 0.000000 0.029376 0.000000 -0.013677
# 5 0.010452 -0.012524 0.007343 0.000000 0.039037 0.000000
# 6 0.000000 0.000000 0.000000 -0.013677 0.000000 0.033528
#
#
# Mechanical properties :
#
#
# Convention : Reuss Voigt Hill
#
# Bulk Modulus (GPa) = 41.11334 42.49740 41.80537
# Shear Modulus (GPa) = 29.73638 42.50945 36.12291
#
# Velocity S-wave (km/s) = 3.22021 3.85020 3.54921
# Velocity P-wave (km/s) = 5.30693 5.88092 5.60128
#
# Compressibility (1/GPa) = 0.02432300
#
# Stress axis : x y z
#
# Youngs Moduli (GPa) = 76.57900 55.52116 98.62238
#
# Poissons Ratio (x) = 0.43395 -0.36586
# Poissons Ratio (y) = 0.59853 0.42772
# Poissons Ratio (z) = -0.28408 0.24079
#
# Static dielectric constant tensor:
#      x y z
#    x 2.461430 0.000000 0.143400 
#    y 0.000000 2.183830 0.000000 
#    z 0.143400 0.000000 2.511990 
# 
# From -- ./inp_files/113706.got.cif
#   From: 2010.05.17/outbox.cif.g08.bks.cpg/sg15_57_cif.got.tgz:113706.got - 2010.06.03 18:47:42.
