data_PCOD9295420
_publ_section_title
;
Structure prediction by ZEFSAII (Michael W. Deem and Ramdas Pophale) SiO2 
 PCOD9295420
Probable space group: C 2/C
;
_chemical_formula_sum "Si O2"
_cell_formula_units_Z 36
_cell_length_a 14.473250
_cell_length_b 20.524754
_cell_length_c 5.410472
_cell_angle_alpha 90.000000
_cell_angle_beta 112.332132
_cell_angle_gamma 90.000000
_cell_volume 1486.686489
_symmetry_space_group_name_H-M "C 2/C"
_symmetry_group_IT_number 15
_symmetry_cell_setting 'monoclinic'
loop_
_space_group_symop_operation_xyz
x,y,z
-x,y,1/2-z
-x,-y,-z
x,-y,1/2+z
1/2+x,1/2+y,z
1/2-x,1/2+y,1/2-z
1/2-x,1/2-y,-z
1/2+x,1/2-y,1/2+z
loop_
_atom_site_type_symbol
_atom_site_label
_atom_site_fract_x
_atom_site_fract_y
_atom_site_fract_z
Si Si1 0.110271 0.655141 0.956281
Si Si2 0.641780 0.768177 0.991158
Si Si3 0.875340 0.962621 0.279209
Si Si4 0.844505 0.484725 0.953264
Si Si5 0.000000 0.155126 0.750000
O O1 0.149595 0.696334 0.762946
O O2 0.178931 0.591814 0.062252
O O3 0.000000 0.634855 0.750000
O O4 0.100122 0.691017 0.210855
O O5 0.574163 0.704126 0.966034
O O6 0.750000 0.750000 0.000000
O O7 0.903634 0.996273 0.048588
O O8 0.754209 0.969035 0.154521
O O9 0.926972 0.892246 0.331801
O O10 0.899106 0.502865 0.256463
#
# Coordination Sequence:
#
# PCOD9295420 Si02
#       5
#     8   8   8   8   4
#     4  12  25  50  73 108 151 190 258 301 369 449
#     4  12  29  47  75 109 148 208 241 309 367 439
#     4  10  24  42  68 106 141 184 232 304 368 434
#     4  10  23  42  71 101 142 185 236 300 370 426
#     4  12  26  48  76 106 150 182 260 294 378 432
#
# _framework density 24.214925999999998
#
# number of rings (size 3 to 8) (size 9 to 14) (size 15 to 20)
#    0.000    0.889    2.222    2.667   12.444    4.444 
#    0.000    0.000    0.000    0.000    0.000    0.000 
#    0.000    0.000    0.000    0.000    0.000    0.000 
#
# Total GULP energy -100586.116054 kJ/mol
# GULP energy per Si atom -5588.117559 kJ/mol
# Density = 2.415981 g / cm^3
# Si number density = 24.214926 Si / 1000 Ang^3
#
#
#
# Elastic Constant Matrix: (Units=GPa)
#
#
# Indices 1 2 3 4 5 6 
#
# 1 131.9332 49.3996 36.8326 0.0000 -9.0101 0.0000
# 2 49.3996 146.4436 57.0188 0.0000 -19.2505 0.0000
# 3 36.8326 57.0188 188.7335 0.0000 -41.2879 0.0000
# 4 0.0000 0.0000 0.0000 26.8876 0.0000 5.9131
# 5 -9.0101 -19.2505 -41.2879 0.0000 51.5478 0.0000
# 6 0.0000 0.0000 0.0000 5.9131 0.0000 40.6557
#
#
#
# Elastic Compliance Matrix: (Units=1/GPa)
#
#
# Indices 1 2 3 4 5 6 
#
# 1 0.008820 -0.002624 -0.000977 0.000000 -0.000221 0.000000
# 2 -0.002624 0.008585 -0.001795 0.000000 0.001310 0.000000
# 3 -0.000977 -0.001795 0.007090 0.000000 0.004837 0.000000
# 4 0.000000 0.000000 0.000000 0.038421 0.000000 -0.005588
# 5 -0.000221 0.001310 0.004837 0.000000 0.023725 0.000000
# 6 0.000000 0.000000 0.000000 -0.005588 0.000000 0.025410
#
#
# Mechanical properties :
#
#
# Convention : Reuss Voigt Hill
#
# Bulk Modulus (GPa) = 72.97776 83.73470 78.35623
# Shear Modulus (GPa) = 39.24407 45.40883 42.32645
#
# Velocity S-wave (km/s) = 4.03010 4.33510 4.18538
# Velocity P-wave (km/s) = 7.20129 7.72738 7.46897
#
# Compressibility (1/GPa) = 0.01370280
#
# Stress axis : x y z
#
# Youngs Moduli (GPa) = 113.38313 116.48634 141.05046
#
# Poissons Ratio (x) = 0.30564 0.13778
# Poissons Ratio (y) = 0.29749 0.25319
# Poissons Ratio (z) = 0.11075 0.20909
#
# Static dielectric constant tensor:
#      x y z
#    x 1.995650 0.000000 0.038910 
#    y 0.000000 1.943810 0.000000 
#    z 0.038910 0.000000 1.980270 
# 
# From -- ./inp_files/9942.got.cif
#   From: 2010.05.17/outbox.cif.g08.bks.cpg/sg15_5_cif.got.tgz:9942.got - 2010.06.03 18:47:42.
