data_PCOD9295286
_publ_section_title
;
Structure prediction by ZEFSAII (Michael W. Deem and Ramdas Pophale) SiO2 
 PCOD9295286
Probable space group: C 2/C
;
_chemical_formula_sum "Si O2"
_cell_formula_units_Z 44
_cell_length_a 27.751697
_cell_length_b 8.994013
_cell_length_c 11.069215
_cell_angle_alpha 90.000000
_cell_angle_beta 142.025315
_cell_angle_gamma 90.000000
_cell_volume 1700.028277
_symmetry_space_group_name_H-M "C 2/C"
_symmetry_group_IT_number 15
_symmetry_cell_setting 'monoclinic'
loop_
_space_group_symop_operation_xyz
x,y,z
-x,y,1/2-z
-x,-y,-z
x,-y,1/2+z
1/2+x,1/2+y,z
1/2-x,1/2+y,1/2-z
1/2-x,1/2-y,-z
1/2+x,1/2-y,1/2+z
loop_
_atom_site_type_symbol
_atom_site_label
_atom_site_fract_x
_atom_site_fract_y
_atom_site_fract_z
Si Si1 0.000000 0.674712 0.750000
Si Si2 0.378954 0.636153 0.135913
Si Si3 0.246590 0.257262 0.195444
Si Si4 0.582616 0.935911 0.628108
Si Si5 0.746341 0.001563 0.488709
Si Si6 0.081006 0.205632 0.841282
O O1 0.957164 0.769544 0.769997
O O2 0.931314 0.591229 0.541825
O O3 0.408910 0.470835 0.157420
O O4 0.313557 0.713877 0.922754
O O5 0.321882 0.603195 0.136372
O O6 0.252869 0.105127 0.130952
O O7 0.256882 0.389774 0.121121
O O8 0.157573 0.260103 0.065118
O O9 0.655063 0.042122 0.806944
O O10 0.590668 0.789150 0.730070
O O11 0.500000 0.000000 0.500000
O O12 0.000000 0.238554 0.750000
#
# Coordination Sequence:
#
# PCOD9295286 Si02
#       6
#     4   8   8   8   8   8
#     4  12  26  44  66 106 130 182 230 284 348 390
#     4  11  22  39  70  98 135 170 222 288 326 414
#     4   9  19  39  64  90 130 175 215 268 332 405
#     4  11  26  44  68  95 143 180 229 280 336 423
#     4   9  20  40  63  90 126 177 217 265 340 389
#     4  10  23  42  68 102 135 181 221 284 344 394
#
# _framework density 25.881923
#
# number of rings (size 3 to 8) (size 9 to 14) (size 15 to 20)
#    0.000    1.818    2.727    1.091    3.818    3.636 
#    0.000    0.909    0.000    0.000    0.000    0.000 
#    0.000    0.000    0.000    0.000    0.000    0.000 
#
# Total GULP energy -122869.483169 kJ/mol
# GULP energy per Si atom -5584.976508 kJ/mol
# Density = 2.582301 g / cm^3
# Si number density = 25.881923 Si / 1000 Ang^3
#
#
#
# Elastic Constant Matrix: (Units=GPa)
#
#
# Indices 1 2 3 4 5 6 
#
# 1 104.6746 27.2391 38.9404 0.0000 34.5951 0.0000
# 2 27.2391 71.7990 32.2326 0.0000 -2.8148 0.0000
# 3 38.9404 32.2326 100.6184 0.0000 17.3076 0.0000
# 4 0.0000 0.0000 0.0000 32.8450 0.0000 6.6630
# 5 34.5951 -2.8148 17.3076 0.0000 59.1836 0.0000
# 6 0.0000 0.0000 0.0000 6.6630 0.0000 41.9927
#
#
#
# Elastic Compliance Matrix: (Units=1/GPa)
#
#
# Indices 1 2 3 4 5 6 
#
# 1 0.014323 -0.004498 -0.002764 0.000000 -0.007778 0.000000
# 2 -0.004498 0.018015 -0.004875 0.000000 0.004912 0.000000
# 3 -0.002764 -0.004875 0.012985 0.000000 -0.002413 0.000000
# 4 0.000000 0.000000 0.000000 0.031459 0.000000 -0.004992
# 5 -0.007778 0.004912 -0.002413 0.000000 0.022382 0.000000
# 6 0.000000 0.000000 0.000000 -0.004992 0.000000 0.024606
#
#
# Mechanical properties :
#
#
# Convention : Reuss Voigt Hill
#
# Bulk Modulus (GPa) = 47.50908 52.65735 50.08321
# Shear Modulus (GPa) = 32.24539 38.71627 35.48083
#
# Velocity S-wave (km/s) = 3.53351 3.87186 3.70655
# Velocity P-wave (km/s) = 5.91976 6.35435 6.14090
#
# Compressibility (1/GPa) = 0.02104861
#
# Stress axis : x y z
#
# Youngs Moduli (GPa) = 69.81901 55.50833 77.01005
#
# Poissons Ratio (x) = 0.24966 0.21289
# Poissons Ratio (y) = 0.31402 0.37545
# Poissons Ratio (z) = 0.19301 0.27062
#
# Static dielectric constant tensor:
#      x y z
#    x 2.337560 0.000000 0.042060 
#    y 0.000000 2.100090 0.000000 
#    z 0.042060 0.000000 2.070890 
# 
# From -- ./inp_files/122739.got.cif
#   From: 2010.05.17/outbox.cif.g08.bks.cpg/sg15_62_cif.got.tgz:122739.got - 2010.06.03 18:47:42.
