data_PCOD9295897
_publ_section_title
;
Structure prediction by ZEFSAII (Michael W. Deem and Ramdas Pophale) SiO2 
 PCOD9295897
Probable space group: C 2/C
;
_chemical_formula_sum "Si O2"
_cell_formula_units_Z 48
_cell_length_a 7.783785
_cell_length_b 28.988086
_cell_length_c 10.328682
_cell_angle_alpha 90.000000
_cell_angle_beta 119.924428
_cell_angle_gamma 90.000000
_cell_volume 2019.836094
_symmetry_space_group_name_H-M "C 2/C"
_symmetry_group_IT_number 15
_symmetry_cell_setting 'monoclinic'
loop_
_space_group_symop_operation_xyz
x,y,z
-x,y,1/2-z
-x,-y,-z
x,-y,1/2+z
1/2+x,1/2+y,z
1/2-x,1/2+y,1/2-z
1/2-x,1/2-y,-z
1/2+x,1/2-y,1/2+z
loop_
_atom_site_type_symbol
_atom_site_label
_atom_site_fract_x
_atom_site_fract_y
_atom_site_fract_z
Si Si1 0.930666 0.276884 0.873843
Si Si2 0.000000 0.474792 0.250000
Si Si3 0.173014 0.985301 0.468695
Si Si4 0.325189 0.806789 0.285353
Si Si5 0.350701 0.122361 0.315972
Si Si6 0.000000 0.936626 0.750000
Si Si7 0.698068 0.905508 0.136820
O O1 0.813615 0.229316 0.841100
O O2 0.805333 0.324205 0.832020
O O3 0.000000 0.275777 0.750000
O O4 0.091252 0.283731 0.049403
O O5 0.883847 0.508215 0.112175
O O6 0.848302 0.441012 0.265459
O O7 0.158540 0.026754 0.362055
O O8 0.162749 0.934435 0.407220
O O9 0.000000 0.000000 0.500000
O O10 0.500000 0.817735 0.250000
O O11 0.231183 0.855669 0.289959
O O12 0.500000 0.120653 0.250000
O O13 0.143678 0.095795 0.219389
O O14 0.486790 0.104053 0.485646
#
# Coordination Sequence:
#
# PCOD9295897 Si02
#       7
#     8   4   8   8   8   4   8
#     4  10  23  45  71 104 146 193 244 306 377 440
#     4  12  24  46  69  96 148 183 232 308 366 432
#     4  12  27  44  71 101 143 189 250 299 373 446
#     4  11  23  45  74 106 147 190 247 303 376 450
#     4  10  23  43  72 103 143 193 244 300 371 444
#     4  12  24  44  67 106 136 185 252 294 358 454
#     4  11  24  46  69 100 146 193 234 302 376 439
#
# _framework density 23.764303999999999
#
# number of rings (size 3 to 8) (size 9 to 14) (size 15 to 20)
#    0.000    1.000    2.500    3.500    4.667    0.000 
#    7.500    0.000    0.000    0.000    0.000    0.000 
#    0.000    0.000    0.000    0.000    0.000    0.000 
#
# Total GULP energy -134141.564406 kJ/mol
# GULP energy per Si atom -5589.231850 kJ/mol
# Density = 2.371022 g / cm^3
# Si number density = 23.764304 Si / 1000 Ang^3
#
#
#
# Elastic Constant Matrix: (Units=GPa)
#
#
# Indices 1 2 3 4 5 6 
#
# 1 93.3870 56.5824 3.3292 0.0000 -6.5297 0.0000
# 2 56.5824 202.7900 24.8723 0.0000 8.0701 0.0000
# 3 3.3292 24.8723 71.0184 0.0000 7.8765 0.0000
# 4 0.0000 0.0000 0.0000 36.0006 0.0000 0.3158
# 5 -6.5297 8.0701 7.8765 0.0000 30.3559 0.0000
# 6 0.0000 0.0000 0.0000 0.3158 0.0000 36.8436
#
#
#
# Elastic Compliance Matrix: (Units=1/GPa)
#
#
# Indices 1 2 3 4 5 6 
#
# 1 0.013334 -0.003912 0.000321 0.000000 0.003825 0.000000
# 2 -0.003912 0.006326 -0.001804 0.000000 -0.002055 0.000000
# 3 0.000321 -0.001804 0.015071 0.000000 -0.003362 0.000000
# 4 0.000000 0.000000 0.000000 0.027779 0.000000 -0.000238
# 5 0.003825 -0.002055 -0.003362 0.000000 0.035184 0.000000
# 6 0.000000 0.000000 0.000000 -0.000238 0.000000 0.027144
#
#
# Mechanical properties :
#
#
# Convention : Reuss Voigt Hill
#
# Bulk Modulus (GPa) = 41.77130 59.64034 50.70582
# Shear Modulus (GPa) = 34.81679 39.46746 37.14212
#
# Velocity S-wave (km/s) = 3.83180 4.07970 3.95769
# Velocity P-wave (km/s) = 6.09856 6.88062 6.50136
#
# Compressibility (1/GPa) = 0.02393988
#
# Stress axis : x y z
#
# Youngs Moduli (GPa) = 74.99350 158.08170 66.35470
#
# Poissons Ratio (x) = 0.61844 -0.02129
# Poissons Ratio (y) = 0.29339 0.11971
# Poissons Ratio (z) = -0.02406 0.28520
#
# Static dielectric constant tensor:
#      x y z
#    x 1.956640 0.000000 -0.067930 
#    y 0.000000 1.917920 0.000000 
#    z -0.067930 0.000000 1.989370 
# 
# From -- ./inp_files/80978.got.cif
#   From: 2010.05.17/outbox.cif.g08.bks.cpg/sg15_41_cif.got.tgz:80978.got - 2010.06.03 18:47:42.
