data_PCOD9295552
_publ_section_title
;
Structure prediction by ZEFSAII (Michael W. Deem and Ramdas Pophale) SiO2 
 PCOD9295552
Probable space group: C 2/C
;
_chemical_formula_sum "Si O2"
_cell_formula_units_Z 40
_cell_length_a 5.141277
_cell_length_b 24.069911
_cell_length_c 14.375007
_cell_angle_alpha 90.000000
_cell_angle_beta 101.715613
_cell_angle_gamma 90.000000
_cell_volume 1741.849184
_symmetry_space_group_name_H-M "C 2/C"
_symmetry_group_IT_number 15
_symmetry_cell_setting 'monoclinic'
loop_
_space_group_symop_operation_xyz
x,y,z
-x,y,1/2-z
-x,-y,-z
x,-y,1/2+z
1/2+x,1/2+y,z
1/2-x,1/2+y,1/2-z
1/2-x,1/2-y,-z
1/2+x,1/2-y,1/2+z
loop_
_atom_site_type_symbol
_atom_site_label
_atom_site_fract_x
_atom_site_fract_y
_atom_site_fract_z
Si Si1 0.967177 0.838958 0.079934
Si Si2 0.711581 0.085195 0.136668
Si Si3 0.500000 0.254294 0.250000
Si Si4 0.500000 0.003313 0.750000
Si Si5 0.459621 0.084926 0.577387
Si Si6 0.206940 0.836541 0.633732
O O1 0.013026 0.793680 0.161948
O O2 0.752385 0.886808 0.094142
O O3 0.249901 0.866281 0.079821
O O4 0.862393 0.815020 0.974531
O O5 0.705924 0.037833 0.214097
O O6 0.478469 0.128790 0.143181
O O7 0.978755 0.120084 0.144196
O O8 0.624498 0.061017 0.029531
O O9 0.742667 0.213093 0.291520
O O10 0.416724 0.042451 0.658678
#
# Coordination Sequence:
#
# PCOD9295552 Si02
#       6
#     8   8   4   4   8   8
#     4  10  23  43  64  94 133 168 209 265 321 379
#     4  10  24  43  62  92 133 168 209 265 319 377
#     4  12  23  40  70  98 122 172 221 260 316 384
#     4  12  23  40  70  98 122 172 221 260 316 384
#     4  10  23  43  64  94 133 168 209 265 321 379
#     4  10  24  43  62  92 133 168 209 265 319 377
#
# _framework density 22.964099999999998
#
# number of rings (size 3 to 8) (size 9 to 14) (size 15 to 20)
#    0.000    1.600    0.000    3.000    0.000    9.600 
#    0.000   12.000    0.000    0.000    0.000    2.800 
#    0.000    0.000    0.000    0.000    0.000    0.000 
#
# Total GULP energy -111864.774391 kJ/mol
# GULP energy per Si atom -5593.238720 kJ/mol
# Density = 2.291183 g / cm^3
# Si number density = 22.964100 Si / 1000 Ang^3
#
#
#
# Elastic Constant Matrix: (Units=GPa)
#
#
# Indices 1 2 3 4 5 6 
#
# 1 77.7569 -1.5491 10.2710 0.0000 -8.8862 0.0000
# 2 -1.5491 63.9748 74.5937 0.0000 -7.6662 0.0000
# 3 10.2710 74.5937 207.4221 0.0000 -23.5417 0.0000
# 4 0.0000 0.0000 0.0000 115.7867 0.0000 -21.0798
# 5 -8.8862 -7.6662 -23.5417 0.0000 21.1136 0.0000
# 6 0.0000 0.0000 0.0000 -21.0798 0.0000 14.1576
#
#
#
# Elastic Compliance Matrix: (Units=1/GPa)
#
#
# Indices 1 2 3 4 5 6 
#
# 1 0.013630 0.001802 -0.000684 0.000000 0.005628 0.000000
# 2 0.001802 0.027182 -0.009913 0.000000 -0.000425 0.000000
# 3 -0.000684 -0.009913 0.009135 0.000000 0.006298 0.000000
# 4 0.000000 0.000000 0.000000 0.011848 0.000000 0.017641
# 5 0.005628 -0.000425 0.006298 0.000000 0.056599 0.000000
# 6 0.000000 0.000000 0.000000 0.017641 0.000000 0.096901
#
#
# Mechanical properties :
#
#
# Convention : Reuss Voigt Hill
#
# Bulk Modulus (GPa) = 30.90488 57.30946 44.10717
# Shear Modulus (GPa) = 20.51953 47.93412 34.22683
#
# Velocity S-wave (km/s) = 2.99247 4.57371 3.86482
# Velocity P-wave (km/s) = 5.04252 7.27338 6.25816
#
# Compressibility (1/GPa) = 0.03235735
#
# Stress axis : x y z
#
# Youngs Moduli (GPa) = 73.36719 36.78902 109.47391
#
# Poissons Ratio (x) = -0.06631 0.07492
# Poissons Ratio (y) = -0.13224 1.08518
# Poissons Ratio (z) = 0.05021 0.36468
#
# Static dielectric constant tensor:
#      x y z
#    x 1.822820 0.000000 0.001310 
#    y 0.000000 1.839860 0.000000 
#    z 0.001310 0.000000 1.938960 
# 
# From -- ./inp_files/129567.got.cif
#   From: 2010.05.17/outbox.cif.g08.bks.cpg/sg15_65_cif.got.tgz:129567.got - 2010.06.03 18:47:42.
