data_PCOD9295215
_publ_section_title
;
Structure prediction by ZEFSAII (Michael W. Deem and Ramdas Pophale) SiO2 
 PCOD9295215
Probable space group: C 2/C
;
_chemical_formula_sum "Si O2"
_cell_formula_units_Z 56
_cell_length_a 12.532507
_cell_length_b 14.521389
_cell_length_c 14.545997
_cell_angle_alpha 90.000000
_cell_angle_beta 93.789242
_cell_angle_gamma 90.000000
_cell_volume 2641.430305
_symmetry_space_group_name_H-M "C 2/C"
_symmetry_group_IT_number 15
_symmetry_cell_setting 'monoclinic'
loop_
_space_group_symop_operation_xyz
x,y,z
-x,y,1/2-z
-x,-y,-z
x,-y,1/2+z
1/2+x,1/2+y,z
1/2-x,1/2+y,1/2-z
1/2-x,1/2-y,-z
1/2+x,1/2-y,1/2+z
loop_
_atom_site_type_symbol
_atom_site_label
_atom_site_fract_x
_atom_site_fract_y
_atom_site_fract_z
Si Si1 0.882443 0.497010 0.034685
Si Si2 0.078441 0.158745 0.340357
Si Si3 0.169069 0.676574 0.375436
Si Si4 0.225789 0.690164 0.908649
Si Si5 0.876843 0.829725 0.262059
Si Si6 0.600739 0.677062 0.021507
Si Si7 0.688493 0.466567 0.390986
O O1 0.869279 0.572804 0.114033
O O2 0.842555 0.398613 0.068029
O O3 0.800643 0.525327 0.949014
O O4 0.000000 0.500000 0.000000
O O5 0.157964 0.244732 0.336940
O O6 0.000000 0.148700 0.250000
O O7 0.004907 0.177433 0.424955
O O8 0.143942 0.065264 0.360035
O O9 0.140895 0.727495 0.279729
O O10 0.295220 0.680461 0.406141
O O11 0.112236 0.737815 0.451934
O O12 0.335338 0.663779 0.863074
O O13 0.250000 0.750000 0.000000
O O14 0.807697 0.899356 0.196048
O O15 0.000000 0.854481 0.250000
O O16 0.612411 0.585529 0.960232
#
# Coordination Sequence:
#
# PCOD9295215 Si02
#       7
#     8   8   8   8   8   8   8
#     4  11  24  44  73 100 142 190 234 290 368 431
#     4  12  24  40  68  97 138 179 230 293 360 409
#     4   9  20  40  65  97 131 180 232 277 340 433
#     4  12  28  46  67 103 149 185 240 295 349 441
#     4  11  26  43  70 101 141 183 234 296 360 417
#     4   9  19  38  66  94 130 173 222 281 346 410
#     4  10  23  42  66  99 131 172 240 288 348 427
#
# _framework density 21.200634999999998
#
# number of rings (size 3 to 8) (size 9 to 14) (size 15 to 20)
#    0.000    1.429    1.429    3.429    6.000    6.857 
#    0.000    0.714    0.000    0.000    0.000    0.000 
#    0.000    0.000    0.000    0.000    0.000    0.000 
#
# Total GULP energy -156669.419237 kJ/mol
# GULP energy per Si atom -5595.336401 kJ/mol
# Density = 2.115238 g / cm^3
# Si number density = 21.200635 Si / 1000 Ang^3
#
#
#
# Elastic Constant Matrix: (Units=GPa)
#
#
# Indices 1 2 3 4 5 6 
#
# 1 94.6795 37.6123 35.5882 0.0000 -20.4862 0.0000
# 2 37.6123 139.7612 15.5051 0.0000 -3.9280 0.0000
# 3 35.5882 15.5051 65.7292 0.0000 -10.4690 0.0000
# 4 0.0000 0.0000 0.0000 20.0704 0.0000 2.5762
# 5 -20.4862 -3.9280 -10.4690 0.0000 36.8394 0.0000
# 6 0.0000 0.0000 0.0000 2.5762 0.0000 17.8147
#
#
#
# Elastic Compliance Matrix: (Units=1/GPa)
#
#
# Indices 1 2 3 4 5 6 
#
# 1 0.015834 -0.003329 -0.006747 0.000000 0.006533 0.000000
# 2 -0.003329 0.008051 -0.000267 0.000000 -0.001069 0.000000
# 3 -0.006747 -0.000267 0.019197 0.000000 0.001675 0.000000
# 4 0.000000 0.000000 0.000000 0.050767 0.000000 -0.007342
# 5 0.006533 -0.001069 0.001675 0.000000 0.031140 0.000000
# 6 0.000000 0.000000 0.000000 -0.007342 0.000000 0.057195
#
#
# Mechanical properties :
#
#
# Convention : Reuss Voigt Hill
#
# Bulk Modulus (GPa) = 44.65266 53.06458 48.85862
# Shear Modulus (GPa) = 23.77159 29.04252 26.40705
#
# Velocity S-wave (km/s) = 3.35217 3.70522 3.53310
# Velocity P-wave (km/s) = 6.00753 6.58702 6.30394
#
# Compressibility (1/GPa) = 0.02239508
#
# Stress axis : x y z
#
# Youngs Moduli (GPa) = 63.15423 124.21507 52.09173
#
# Poissons Ratio (x) = 0.41353 0.35148
# Poissons Ratio (y) = 0.21025 0.01390
# Poissons Ratio (z) = 0.42613 0.03314
#
# Static dielectric constant tensor:
#      x y z
#    x 1.759660 0.000000 -0.002280 
#    y 0.000000 1.758710 0.000000 
#    z -0.002280 0.000000 1.777490 
# 
# From -- ./inp_files/144273.got.cif
#   From: 2010.05.17/outbox.cif.g08.bks.cpg/sg15_73_cif.got.tgz:144273.got - 2010.06.03 18:47:42.
