data_PCOD9295443
_publ_section_title
;
Structure prediction by ZEFSAII (Michael W. Deem and Ramdas Pophale) SiO2 
 PCOD9295443
Probable space group: C 2/C
;
_chemical_formula_sum "Si O2"
_cell_formula_units_Z 28
_cell_length_a 14.141464
_cell_length_b 16.221485
_cell_length_c 7.517511
_cell_angle_alpha 90.000000
_cell_angle_beta 140.706787
_cell_angle_gamma 90.000000
_cell_volume 1092.096807
_symmetry_space_group_name_H-M "C 2/C"
_symmetry_group_IT_number 15
_symmetry_cell_setting 'monoclinic'
loop_
_space_group_symop_operation_xyz
x,y,z
-x,y,1/2-z
-x,-y,-z
x,-y,1/2+z
1/2+x,1/2+y,z
1/2-x,1/2+y,1/2-z
1/2-x,1/2-y,-z
1/2+x,1/2-y,1/2+z
loop_
_atom_site_type_symbol
_atom_site_label
_atom_site_fract_x
_atom_site_fract_y
_atom_site_fract_z
Si Si1 0.062103 0.105545 0.605720
Si Si2 0.000000 0.402574 0.250000
Si Si3 0.588523 0.787216 0.706568
Si Si4 0.710106 0.527143 0.491843
O O1 0.015776 0.199785 0.548651
O O2 0.180349 0.082280 0.621599
O O3 0.911577 0.062070 0.322539
O O4 0.151009 0.067519 0.904256
O O5 0.071765 0.346480 0.511762
O O6 0.126659 0.458704 0.344516
O O7 0.500000 0.821035 0.750000
O O8 0.750000 0.750000 0.000000
#
# Coordination Sequence:
#
# PCOD9295443 Si02
#       4
#     8   4   8   8
#     4  10  23  43  67 101 135 185 235 283 351 425
#     4  12  26  48  70 108 144 184 238 300 352 418
#     4  12  27  45  73 103 142 185 236 294 357 420
#     4  10  23  42  71  97 140 182 232 292 350 415
#
# _framework density 25.638753999999999
#
# number of rings (size 3 to 8) (size 9 to 14) (size 15 to 20)
#    0.000    1.143    0.000    5.143   12.000    4.571 
#    2.571    0.000    0.000    0.000    0.000    0.000 
#    0.000    0.000    0.000    0.000    0.000    0.000 
#
# Total GULP energy -78249.943251 kJ/mol
# GULP energy per Si atom -5589.281661 kJ/mol
# Density = 2.558040 g / cm^3
# Si number density = 25.638754 Si / 1000 Ang^3
#
#
#
# Elastic Constant Matrix: (Units=GPa)
#
#
# Indices 1 2 3 4 5 6 
#
# 1 158.9350 -19.5314 32.8752 0.0000 -5.6026 0.0000
# 2 -19.5314 72.5467 10.2262 0.0000 -6.1034 0.0000
# 3 32.8752 10.2262 124.0484 0.0000 8.0365 0.0000
# 4 0.0000 0.0000 0.0000 38.1681 0.0000 -0.7793
# 5 -5.6026 -6.1034 8.0365 0.0000 62.1551 0.0000
# 6 0.0000 0.0000 0.0000 -0.7793 0.0000 16.9997
#
#
#
# Elastic Compliance Matrix: (Units=1/GPa)
#
#
# Indices 1 2 3 4 5 6 
#
# 1 0.007055 0.002296 -0.002133 0.000000 0.001137 0.000000
# 2 0.002296 0.014839 -0.001956 0.000000 0.001917 0.000000
# 3 -0.002133 -0.001956 0.008887 0.000000 -0.001533 0.000000
# 4 0.000000 0.000000 0.000000 0.026224 0.000000 0.001202
# 5 0.001137 0.001917 -0.001533 0.000000 0.016578 0.000000
# 6 0.000000 0.000000 0.000000 0.001202 0.000000 0.058880
#
#
# Mechanical properties :
#
#
# Convention : Reuss Voigt Hill
#
# Bulk Modulus (GPa) = 36.77021 44.74110 40.75566
# Shear Modulus (GPa) = 34.45555 45.59526 40.02540
#
# Velocity S-wave (km/s) = 3.66988 4.22165 3.95540
# Velocity P-wave (km/s) = 5.68596 6.42274 6.06555
#
# Compressibility (1/GPa) = 0.02719593
#
# Stress axis : x y z
#
# Youngs Moduli (GPa) = 141.73885 67.38873 112.52193
#
# Poissons Ratio (x) = -0.15471 0.23997
# Poissons Ratio (y) = -0.32540 0.22008
# Poissons Ratio (z) = 0.30229 0.13181
#
# Static dielectric constant tensor:
#      x y z
#    x 2.488410 0.000000 0.008740 
#    y 0.000000 2.332130 0.000000 
#    z 0.008740 0.000000 2.049970 
# 
# From -- ./inp_files/22040.got.cif
#   From: 2010.05.17/outbox.cif.g08.bks.cpg/sg15_12_cif.got.tgz:22040.got - 2010.06.03 18:47:42.
