data_PCOD9295757
_publ_section_title
;
Structure prediction by ZEFSAII (Michael W. Deem and Ramdas Pophale) SiO2 
 PCOD9295757
Probable space group: C 2/C
;
_chemical_formula_sum "Si O2"
_cell_formula_units_Z 56
_cell_length_a 21.820925
_cell_length_b 7.522383
_cell_length_c 14.129575
_cell_angle_alpha 90.000000
_cell_angle_beta 79.349388
_cell_angle_gamma 90.000000
_cell_volume 2279.348234
_symmetry_space_group_name_H-M "C 2/C"
_symmetry_group_IT_number 15
_symmetry_cell_setting 'monoclinic'
loop_
_space_group_symop_operation_xyz
x,y,z
-x,y,1/2-z
-x,-y,-z
x,-y,1/2+z
1/2+x,1/2+y,z
1/2-x,1/2+y,1/2-z
1/2-x,1/2-y,-z
1/2+x,1/2-y,1/2+z
loop_
_atom_site_type_symbol
_atom_site_label
_atom_site_fract_x
_atom_site_fract_y
_atom_site_fract_z
Si Si1 0.738638 0.209850 0.614984
Si Si2 0.632207 0.512411 0.190051
Si Si3 0.625768 0.727020 0.849993
Si Si4 0.696269 0.835444 0.578992
Si Si5 0.918766 0.669789 0.494728
Si Si6 0.473698 0.006714 0.160285
Si Si7 0.934824 0.051273 0.472131
O O1 0.750000 0.250000 0.500000
O O2 0.682228 0.331612 0.666856
O O3 0.801769 0.253947 0.653075
O O4 0.723520 0.000864 0.629539
O O5 0.612880 0.458935 0.300496
O O6 0.665817 0.326832 0.146944
O O7 0.575035 0.563847 0.137120
O O8 0.587261 0.874101 0.804311
O O9 0.593436 0.714105 0.962607
O O10 0.750000 0.750000 0.500000
O O11 0.643621 0.922198 0.525192
O O12 0.950637 0.623136 0.584578
O O13 0.896233 0.872767 0.504383
O O14 0.971918 0.629631 0.401169
O O15 0.500000 0.930683 0.250000
O O16 0.000000 0.000000 0.500000
#
# Coordination Sequence:
#
# PCOD9295757 Si02
#       7
#     8   8   8   8   8   8   8
#     4  12  23  46  73 100 140 188 235 291 353 426
#     4  11  27  45  68 107 138 185 239 287 363 417
#     4  12  26  45  70 102 139 183 232 295 355 418
#     4  11  22  43  73 100 142 182 226 288 352 421
#     4  10  23  43  69 100 132 181 231 280 349 425
#     4  11  23  44  69  97 137 179 228 289 352 410
#     4  11  22  45  72  97 139 184 229 287 351 425
#
# _framework density 24.568427
#
# number of rings (size 3 to 8) (size 9 to 14) (size 15 to 20)
#    0.000    0.857    4.286    3.429    2.000    0.000 
#    7.714    0.000    0.000    0.000    0.000    0.000 
#    0.000    0.000    0.000    0.000    0.000    0.000 
#
# Total GULP energy -156584.624589 kJ/mol
# GULP energy per Si atom -5592.308021 kJ/mol
# Density = 2.451251 g / cm^3
# Si number density = 24.568427 Si / 1000 Ang^3
#
#
#
# Elastic Constant Matrix: (Units=GPa)
#
#
# Indices 1 2 3 4 5 6 
#
# 1 152.0966 17.9759 29.7313 0.0000 38.8797 0.0000
# 2 17.9759 87.4560 6.3649 0.0000 -4.6780 0.0000
# 3 29.7313 6.3649 97.6130 0.0000 25.9844 0.0000
# 4 0.0000 0.0000 0.0000 35.3466 0.0000 -5.5688
# 5 38.8797 -4.6780 25.9844 0.0000 36.4061 0.0000
# 6 0.0000 0.0000 0.0000 -5.5688 0.0000 37.4800
#
#
#
# Elastic Compliance Matrix: (Units=1/GPa)
#
#
# Indices 1 2 3 4 5 6 
#
# 1 0.009570 -0.002539 0.000072 0.000000 -0.010598 0.000000
# 2 -0.002539 0.012347 -0.001452 0.000000 0.005334 0.000000
# 3 0.000072 -0.001452 0.012824 0.000000 -0.009416 0.000000
# 4 0.000000 0.000000 0.000000 0.028969 0.000000 0.004304
# 5 -0.010598 0.005334 -0.009416 0.000000 0.046191 0.000000
# 6 0.000000 0.000000 0.000000 0.004304 0.000000 0.027320
#
#
# Mechanical properties :
#
#
# Convention : Reuss Voigt Hill
#
# Bulk Modulus (GPa) = 37.17077 49.47887 43.32482
# Shear Modulus (GPa) = 32.46167 40.71945 36.59056
#
# Velocity S-wave (km/s) = 3.63888 4.07552 3.86337
# Velocity P-wave (km/s) = 5.72866 6.50611 6.12972
#
# Compressibility (1/GPa) = 0.02690286
#
# Stress axis : x y z
#
# Youngs Moduli (GPa) = 104.49519 80.99007 77.97959
#
# Poissons Ratio (x) = 0.20564 -0.00560
# Poissons Ratio (y) = 0.26532 0.11320
# Poissons Ratio (z) = -0.00750 0.11757
#
# Static dielectric constant tensor:
#      x y z
#    x 1.965840 0.000000 0.034150 
#    y 0.000000 2.005730 0.000000 
#    z 0.034150 0.000000 2.116210 
# 
# From -- ./inp_files/166651.got.cif
#   From: 2010.05.17/outbox.cif.g08.bks.cpg/sg15_84_cif.got.tgz:166651.got - 2010.06.03 18:47:42.
