data_PCOD9295468
_publ_section_title
;
Structure prediction by ZEFSAII (Michael W. Deem and Ramdas Pophale) SiO2 
 PCOD9295468
Probable space group: C 2/C
;
_chemical_formula_sum "Si O2"
_cell_formula_units_Z 48
_cell_length_a 10.587356
_cell_length_b 14.883058
_cell_length_c 14.627073
_cell_angle_alpha 90.000000
_cell_angle_beta 111.275145
_cell_angle_gamma 90.000000
_cell_volume 2147.744087
_symmetry_space_group_name_H-M "C 2/C"
_symmetry_group_IT_number 15
_symmetry_cell_setting 'monoclinic'
loop_
_space_group_symop_operation_xyz
x,y,z
-x,y,1/2-z
-x,-y,-z
x,-y,1/2+z
1/2+x,1/2+y,z
1/2-x,1/2+y,1/2-z
1/2-x,1/2-y,-z
1/2+x,1/2-y,1/2+z
loop_
_atom_site_type_symbol
_atom_site_label
_atom_site_fract_x
_atom_site_fract_y
_atom_site_fract_z
Si Si1 0.276415 0.532396 0.775648
Si Si2 0.767376 0.890982 0.471092
Si Si3 0.256488 0.175729 0.890498
Si Si4 0.141998 0.658049 0.245322
Si Si5 0.443843 0.223568 0.474928
Si Si6 0.066538 0.038893 0.923299
O O1 0.229866 0.565464 0.864055
O O2 0.226644 0.600204 0.684481
O O3 0.234393 0.429069 0.755802
O O4 0.439282 0.539554 0.823317
O O5 0.641539 0.837733 0.477818
O O6 0.893773 0.823464 0.487148
O O7 0.816097 0.964762 0.556856
O O8 0.202751 0.266008 0.827900
O O9 0.146833 0.132279 0.931701
O O10 0.399890 0.197854 0.973501
O O11 0.110032 0.704140 0.140431
O O12 0.000000 0.626185 0.250000
O O13 0.000000 0.000000 0.000000
#
# Coordination Sequence:
#
# PCOD9295468 Si02
#       6
#     8   8   8   8   8   8
#     4  11  24  45  72 107 149 193 243 304 369 441
#     4  10  23  48  70 107 146 194 248 302 367 449
#     4  12  26  47  76 106 151 194 245 311 369 443
#     4  12  28  45  72 112 144 192 252 305 370 440
#     4  11  26  46  74 105 149 193 249 303 375 439
#     4  10  23  42  72  99 142 192 242 295 366 428
#
# _framework density 22.349031
#
# number of rings (size 3 to 8) (size 9 to 14) (size 15 to 20)
#    0.000    1.000    1.667    3.500    9.333    2.000 
#    0.000    1.667    0.000    0.000    0.000    0.000 
#    0.000    0.000    0.000    0.000    0.000    0.000 
#
# Total GULP energy -134245.422865 kJ/mol
# GULP energy per Si atom -5593.559286 kJ/mol
# Density = 2.229816 g / cm^3
# Si number density = 22.349031 Si / 1000 Ang^3
#
#
#
# Elastic Constant Matrix: (Units=GPa)
#
#
# Indices 1 2 3 4 5 6 
#
# 1 117.6654 54.0797 48.3302 0.0000 9.1335 0.0000
# 2 54.0797 163.0297 57.7360 0.0000 19.6143 0.0000
# 3 48.3302 57.7360 86.1409 0.0000 9.0733 0.0000
# 4 0.0000 0.0000 0.0000 21.7670 0.0000 6.5558
# 5 9.1335 19.6143 9.0733 0.0000 40.2555 0.0000
# 6 0.0000 0.0000 0.0000 6.5558 0.0000 39.3430
#
#
#
# Elastic Compliance Matrix: (Units=1/GPa)
#
#
# Indices 1 2 3 4 5 6 
#
# 1 0.011535 -0.001956 -0.005107 0.000000 -0.000513 0.000000
# 2 -0.001956 0.008688 -0.004432 0.000000 -0.002790 0.000000
# 3 -0.005107 -0.004432 0.017511 0.000000 -0.000629 0.000000
# 4 0.000000 0.000000 0.000000 0.048369 0.000000 -0.008060
# 5 -0.000513 -0.002790 -0.000629 0.000000 0.026459 0.000000
# 6 0.000000 0.000000 0.000000 -0.008060 0.000000 0.026761
#
#
# Mechanical properties :
#
#
# Convention : Reuss Voigt Hill
#
# Bulk Modulus (GPa) = 67.82152 76.34754 72.08453
# Shear Modulus (GPa) = 29.89969 34.05244 31.97606
#
# Velocity S-wave (km/s) = 3.66163 3.90765 3.78664
# Velocity P-wave (km/s) = 6.94904 7.38886 7.17232
#
# Compressibility (1/GPa) = 0.01474458
#
# Stress axis : x y z
#
# Youngs Moduli (GPa) = 86.69183 115.10264 57.10816
#
# Poissons Ratio (x) = 0.22516 0.29164
# Poissons Ratio (y) = 0.16958 0.25308
# Poissons Ratio (z) = 0.44271 0.51009
#
# Static dielectric constant tensor:
#      x y z
#    x 1.851350 0.000000 -0.035460 
#    y 0.000000 1.848350 0.000000 
#    z -0.035460 0.000000 1.813750 
# 
# From -- ./inp_files/144376.got.cif
#   From: 2010.05.17/outbox.cif.g08.bks.cpg/sg15_73_cif.got.tgz:144376.got - 2010.06.03 18:47:42.
