data_PCOD9295344
_publ_section_title
;
Structure prediction by ZEFSAII (Michael W. Deem and Ramdas Pophale) SiO2 
 PCOD9295344
Probable space group: C 2/C
;
_chemical_formula_sum "Si O2"
_cell_formula_units_Z 64
_cell_length_a 23.836217
_cell_length_b 15.131885
_cell_length_c 17.694139
_cell_angle_alpha 90.000000
_cell_angle_beta 31.061375
_cell_angle_gamma 90.000000
_cell_volume 3292.853747
_symmetry_space_group_name_H-M "C 2/C"
_symmetry_group_IT_number 15
_symmetry_cell_setting 'monoclinic'
loop_
_space_group_symop_operation_xyz
x,y,z
-x,y,1/2-z
-x,-y,-z
x,-y,1/2+z
1/2+x,1/2+y,z
1/2-x,1/2+y,1/2-z
1/2-x,1/2-y,-z
1/2+x,1/2-y,1/2+z
loop_
_atom_site_type_symbol
_atom_site_label
_atom_site_fract_x
_atom_site_fract_y
_atom_site_fract_z
Si Si1 0.604086 0.526715 0.580110
Si Si2 0.628736 0.152835 0.098320
Si Si3 0.304108 0.039132 0.949321
Si Si4 0.485012 0.420499 0.959103
Si Si5 0.450319 0.823907 0.224834
Si Si6 0.749538 0.191985 0.116692
Si Si7 0.799054 0.184386 0.330186
Si Si8 0.366506 0.241359 0.100537
O O1 0.500000 0.554372 0.750000
O O2 0.694759 0.480169 0.528150
O O3 0.559518 0.461217 0.567666
O O4 0.664105 0.612242 0.476723
O O5 0.500000 0.165645 0.250000
O O6 0.680153 0.176284 0.120696
O O7 0.658751 0.050276 0.052968
O O8 0.685012 0.217019 0.972609
O O9 0.399716 0.078024 0.786255
O O10 0.279336 0.116228 0.037154
O O11 0.601454 0.374375 0.814692
O O12 0.500000 0.500000 0.000000
O O13 0.404113 0.341173 0.074744
O O14 0.500000 0.804920 0.250000
O O15 0.352679 0.755648 0.323406
O O16 0.536102 0.805432 0.058887
O O17 0.670915 0.196275 0.278984
O O18 0.735643 0.235415 0.337911
#
# Coordination Sequence:
#
# PCOD9295344 Si02
#       8
#     8   8   8   8   8   8   8   8
#     4  11  22  41  69  95 127 169 225 284 324 397
#     4  10  23  42  69  94 120 177 221 274 331 398
#     4  11  22  39  66  96 128 166 226 269 326 397
#     4  11  25  39  64  97 133 172 219 274 336 387
#     4  11  23  38  63  93 133 174 215 264 327 403
#     4  10  24  44  65  94 132 169 225 275 340 391
#     4  11  23  38  64  95 130 174 216 265 333 396
#     4  11  25  42  63  94 138 174 211 273 335 399
#
# _framework density 19.436028
#
# number of rings (size 3 to 8) (size 9 to 14) (size 15 to 20)
#    0.000    1.250    2.500    2.625    5.250    4.000 
#    0.000    2.500    0.000    0.000    0.000    0.000 
#    0.000    0.000    0.000    0.000    0.000    0.000 
#
# Total GULP energy -178784.013423 kJ/mol
# GULP energy per Si atom -5587.000419 kJ/mol
# Density = 1.939179 g / cm^3
# Si number density = 19.436028 Si / 1000 Ang^3
#
#
#
# Elastic Constant Matrix: (Units=GPa)
#
#
# Indices 1 2 3 4 5 6 
#
# 1 42.1769 10.3334 18.0864 0.0000 -6.2965 0.0000
# 2 10.3334 81.3208 14.4570 0.0000 -0.0532 0.0000
# 3 18.0864 14.4570 70.6211 0.0000 9.6164 0.0000
# 4 0.0000 0.0000 0.0000 35.0706 0.0000 -0.8178
# 5 -6.2965 -0.0532 9.6164 0.0000 31.6727 0.0000
# 6 0.0000 0.0000 0.0000 -0.8178 0.0000 25.3197
#
#
#
# Elastic Compliance Matrix: (Units=1/GPa)
#
#
# Indices 1 2 3 4 5 6 
#
# 1 0.028943 -0.002238 -0.008071 0.000000 0.008201 0.000000
# 2 -0.002238 0.012956 -0.002109 0.000000 0.000217 0.000000
# 3 -0.008071 -0.002109 0.017606 0.000000 -0.006953 0.000000
# 4 0.000000 0.000000 0.000000 0.028535 0.000000 0.000922
# 5 0.008201 0.000217 -0.006953 0.000000 0.035315 0.000000
# 6 0.000000 0.000000 0.000000 0.000922 0.000000 0.039525
#
#
# Mechanical properties :
#
#
# Convention : Reuss Voigt Hill
#
# Bulk Modulus (GPa) = 28.84322 31.09693 29.97007
# Shear Modulus (GPa) = 25.09133 28.49540 26.79336
#
# Velocity S-wave (km/s) = 3.59691 3.83314 3.71690
# Velocity P-wave (km/s) = 5.66768 5.96866 5.82012
#
# Compressibility (1/GPa) = 0.03467019
#
# Stress axis : x y z
#
# Youngs Moduli (GPa) = 34.55038 77.18222 56.79989
#
# Poissons Ratio (x) = 0.17270 0.45844
# Poissons Ratio (y) = 0.07731 0.11978
# Poissons Ratio (z) = 0.27886 0.16277
#
# Static dielectric constant tensor:
#      x y z
#    x 1.664360 0.000000 -0.005880 
#    y 0.000000 1.685440 0.000000 
#    z -0.005880 0.000000 1.703520 
# 
# From -- ./inp_files/219706.got.cif
#   From: 2010.05.17/outbox.cif.g08.bks.cpg/sg15_110_cif.got.tgz:219706.got - 2010.06.03 18:47:42.
