data_PCOD9295683
_publ_section_title
;
Structure prediction by ZEFSAII (Michael W. Deem and Ramdas Pophale) SiO2 
 PCOD9295683
Probable space group: C 2/C
;
_chemical_formula_sum "Si O2"
_cell_formula_units_Z 48
_cell_length_a 8.568777
_cell_length_b 30.839874
_cell_length_c 14.159135
_cell_angle_alpha 90.000000
_cell_angle_beta 139.323826
_cell_angle_gamma 90.000000
_cell_volume 2438.772238
_symmetry_space_group_name_H-M "C 2/C"
_symmetry_group_IT_number 15
_symmetry_cell_setting 'monoclinic'
loop_
_space_group_symop_operation_xyz
x,y,z
-x,y,1/2-z
-x,-y,-z
x,-y,1/2+z
1/2+x,1/2+y,z
1/2-x,1/2+y,1/2-z
1/2-x,1/2-y,-z
1/2+x,1/2-y,1/2+z
loop_
_atom_site_type_symbol
_atom_site_label
_atom_site_fract_x
_atom_site_fract_y
_atom_site_fract_z
Si Si1 0.778559 0.128887 0.403634
Si Si2 0.524857 0.540288 0.086862
Si Si3 0.860037 0.456080 0.925621
Si Si4 0.740944 0.120809 0.600675
Si Si5 0.088891 0.790385 0.025207
Si Si6 0.094230 0.705688 0.647076
O O1 0.500000 0.126331 0.250000
O O2 0.907044 0.083380 0.439885
O O3 0.784323 0.138279 0.516568
O O4 0.924254 0.168377 0.425490
O O5 0.294937 0.547286 0.049020
O O6 0.721623 0.538181 0.261996
O O7 0.500000 0.500000 0.000000
O O8 0.000000 0.500000 0.000000
O O9 0.039027 0.415760 0.003436
O O10 0.653601 0.160566 0.624179
O O11 0.000000 0.102571 0.750000
O O12 0.197994 0.787832 0.180306
O O13 0.331974 0.795501 0.075425
O O14 0.936543 0.747364 0.933774
#
# Coordination Sequence:
#
# PCOD9295683 Si02
#       6
#     8   8   8   8   8   8
#     4  12  25  44  66  96 134 174 220 271 327 392
#     4  11  26  46  69  96 131 172 220 271 328 393
#     4  11  26  45  70  97 129 173 219 271 330 391
#     4  12  25  44  66  97 136 173 221 272 327 392
#     4  10  23  43  67  96 132 175 221 271 327 387
#     4  10  23  43  67  97 131 175 223 269 326 391
#
# _framework density 19.682034999999999
#
# number of rings (size 3 to 8) (size 9 to 14) (size 15 to 20)
#    0.000    1.000    3.333    2.000    7.000    1.333 
#    0.000    0.000    0.000    0.000    0.000    0.000 
#    0.000    0.000    0.000    0.000    0.000    0.000 
#
# Total GULP energy -133887.897834 kJ/mol
# GULP energy per Si atom -5578.662410 kJ/mol
# Density = 1.963724 g / cm^3
# Si number density = 19.682035 Si / 1000 Ang^3
#
#
#
# Elastic Constant Matrix: (Units=GPa)
#
#
# Indices 1 2 3 4 5 6 
#
# 1 55.4510 40.0276 51.4001 0.0000 -0.1331 0.0000
# 2 40.0276 153.1380 57.8993 0.0000 14.7592 0.0000
# 3 51.4001 57.8993 85.9620 0.0000 8.6063 0.0000
# 4 0.0000 0.0000 0.0000 36.1866 0.0000 0.3339
# 5 -0.1331 14.7592 8.6063 0.0000 32.9082 0.0000
# 6 0.0000 0.0000 0.0000 0.3339 0.0000 91.0134
#
#
#
# Elastic Compliance Matrix: (Units=1/GPa)
#
#
# Indices 1 2 3 4 5 6 
#
# 1 0.042693 -0.002633 -0.024533 0.000000 0.007769 0.000000
# 2 -0.002633 0.009120 -0.004270 0.000000 -0.002984 0.000000
# 3 -0.024533 -0.004270 0.029776 0.000000 -0.005971 0.000000
# 4 0.000000 0.000000 0.000000 0.027635 0.000000 -0.000101
# 5 0.007769 -0.002984 -0.005971 0.000000 0.033319 0.000000
# 6 0.000000 0.000000 0.000000 -0.000101 0.000000 0.010988
#
#
# Mechanical properties :
#
#
# Convention : Reuss Voigt Hill
#
# Bulk Modulus (GPa) = 53.42163 65.91167 59.66665
# Shear Modulus (GPa) = 22.45753 41.70323 32.08038
#
# Velocity S-wave (km/s) = 3.38156 4.60809 4.04162
# Velocity P-wave (km/s) = 6.51520 7.86598 7.22224
#
# Compressibility (1/GPa) = 0.01871901
#
# Stress axis : x y z
#
# Youngs Moduli (GPa) = 23.42277 109.64654 33.58407
#
# Poissons Ratio (x) = 0.28866 0.82391
# Poissons Ratio (y) = 0.06166 0.14340
# Poissons Ratio (z) = 0.57463 0.46818
#
# Static dielectric constant tensor:
#      x y z
#    x 1.683690 0.000000 -0.052790 
#    y 0.000000 1.650750 0.000000 
#    z -0.052790 0.000000 1.608560 
# 
# From -- ./inp_files/139054.got.cif
#   From: 2010.05.17/outbox.cif.g08.bks.cpg/sg15_70_cif.got.tgz:139054.got - 2010.06.03 18:47:42.
