data_PCOD9295092
_publ_section_title
;
Structure prediction by ZEFSAII (Michael W. Deem and Ramdas Pophale) SiO2 
 PCOD9295092
Probable space group: C 2/C
;
_chemical_formula_sum "Si O2"
_cell_formula_units_Z 40
_cell_length_a 6.737909
_cell_length_b 26.982738
_cell_length_c 11.917503
_cell_angle_alpha 90.000000
_cell_angle_beta 65.313698
_cell_angle_gamma 90.000000
_cell_volume 1968.670390
_symmetry_space_group_name_H-M "C 2/C"
_symmetry_group_IT_number 15
_symmetry_cell_setting 'monoclinic'
loop_
_space_group_symop_operation_xyz
x,y,z
-x,y,1/2-z
-x,-y,-z
x,-y,1/2+z
1/2+x,1/2+y,z
1/2-x,1/2+y,1/2-z
1/2-x,1/2-y,-z
1/2+x,1/2-y,1/2+z
loop_
_atom_site_type_symbol
_atom_site_label
_atom_site_fract_x
_atom_site_fract_y
_atom_site_fract_z
Si Si1 0.681400 0.119029 0.621365
Si Si2 0.000000 0.281678 0.250000
Si Si3 0.450600 0.053645 0.059214
Si Si4 0.500000 0.426429 0.750000
Si Si5 0.350952 0.613446 0.055205
Si Si6 0.274627 0.774849 0.872078
O O1 0.500000 0.097919 0.750000
O O2 0.657594 0.178478 0.647899
O O3 0.602627 0.095497 0.522592
O O4 0.938497 0.107594 0.576217
O O5 0.102942 0.248003 0.323244
O O6 0.658511 0.075004 0.075829
O O7 0.226401 0.045599 0.179624
O O8 0.500000 0.000000 0.000000
O O9 0.544484 0.394507 0.848351
O O10 0.253986 0.667956 0.087734
O O11 0.500000 0.768017 0.750000
O O12 0.250000 0.750000 0.000000
#
# Coordination Sequence:
#
# PCOD9295092 Si02
#       6
#     8   4   8   4   8   8
#     4   9  23  42  62  93 133 174 219 277 338 399
#     4  10  23  44  64  98 142 180 226 285 350 402
#     4  11  24  41  67  95 129 172 221 277 338 402
#     4  10  23  42  64  94 126 166 214 271 334 396
#     4  11  23  42  65  93 133 169 221 274 332 399
#     4  12  25  40  69 100 135 184 235 282 348 419
#
# _framework density 20.318282
#
# number of rings (size 3 to 8) (size 9 to 14) (size 15 to 20)
#    0.600    0.800    0.000    4.800    0.000   13.600 
#    0.000    0.000    0.000    0.000    0.000    0.000 
#    0.000    0.000    0.000    0.000    0.000    0.000 
#
# Total GULP energy -111345.071086 kJ/mol
# GULP energy per Si atom -5567.253554 kJ/mol
# Density = 2.027204 g / cm^3
# Si number density = 20.318282 Si / 1000 Ang^3
#
#
#
# Elastic Constant Matrix: (Units=GPa)
#
#
# Indices 1 2 3 4 5 6 
#
# 1 133.8903 49.6797 64.1138 0.0000 -11.5436 0.0000
# 2 49.6797 108.0098 33.2586 0.0000 4.9813 0.0000
# 3 64.1138 33.2586 124.0669 0.0000 -19.1590 0.0000
# 4 0.0000 0.0000 0.0000 14.1697 0.0000 3.3856
# 5 -11.5436 4.9813 -19.1590 0.0000 49.6853 0.0000
# 6 0.0000 0.0000 0.0000 3.3856 0.0000 4.3318
#
#
#
# Elastic Compliance Matrix: (Units=1/GPa)
#
#
# Indices 1 2 3 4 5 6 
#
# 1 0.011165 -0.003785 -0.004568 0.000000 0.001212 0.000000
# 2 -0.003785 0.011602 -0.001563 0.000000 -0.002645 0.000000
# 3 -0.004568 -0.001563 0.011378 0.000000 0.003483 0.000000
# 4 0.000000 0.000000 0.000000 0.086778 0.000000 -0.067823
# 5 0.001212 -0.002645 0.003483 0.000000 0.022016 0.000000
# 6 0.000000 0.000000 0.000000 -0.067823 0.000000 0.283860
#
#
# Mechanical properties :
#
#
# Convention : Reuss Voigt Hill
#
# Bulk Modulus (GPa) = 69.86294 73.34123 71.60209
# Shear Modulus (GPa) = 11.07659 28.23168 19.65414
#
# Velocity S-wave (km/s) = 2.33739 3.73161 3.11354
# Velocity P-wave (km/s) = 6.46092 7.39872 6.94566
#
# Compressibility (1/GPa) = 0.01431374
#
# Stress axis : x y z
#
# Youngs Moduli (GPa) = 89.56562 86.18841 87.89244
#
# Poissons Ratio (x) = 0.32620 0.40149
# Poissons Ratio (y) = 0.33898 0.13737
# Poissons Ratio (z) = 0.40913 0.13471
#
# Static dielectric constant tensor:
#      x y z
#    x 1.744640 0.000000 -0.060700 
#    y 0.000000 1.650090 0.000000 
#    z -0.060700 0.000000 1.706950 
# 
# From -- ./inp_files/73803.got.cif
#   From: 2010.05.17/outbox.cif.g08.bks.cpg/sg15_37_cif.got.tgz:73803.got - 2010.06.03 18:47:42.
