data_PCOD9295400
_publ_section_title
;
Structure prediction by ZEFSAII (Michael W. Deem and Ramdas Pophale) SiO2 
 PCOD9295400
Probable space group: C 2/C
;
_chemical_formula_sum "Si O2"
_cell_formula_units_Z 32
_cell_length_a 13.925953
_cell_length_b 5.515587
_cell_length_c 17.401581
_cell_angle_alpha 90.000000
_cell_angle_beta 92.428736
_cell_angle_gamma 90.000000
_cell_volume 1335.411373
_symmetry_space_group_name_H-M "C 2/C"
_symmetry_group_IT_number 15
_symmetry_cell_setting 'monoclinic'
loop_
_space_group_symop_operation_xyz
x,y,z
-x,y,1/2-z
-x,-y,-z
x,-y,1/2+z
1/2+x,1/2+y,z
1/2-x,1/2+y,1/2-z
1/2-x,1/2-y,-z
1/2+x,1/2-y,1/2+z
loop_
_atom_site_type_symbol
_atom_site_label
_atom_site_fract_x
_atom_site_fract_y
_atom_site_fract_z
Si Si1 0.418065 0.999965 0.880127
Si Si2 0.073149 0.803119 0.465777
Si Si3 0.223476 0.835226 0.915019
Si Si4 0.190086 0.323582 0.261942
O O1 0.398071 0.143431 0.801101
O O2 0.512882 0.851607 0.902470
O O3 0.326827 0.822726 0.878441
O O4 0.399491 0.153135 0.957451
O O5 0.165313 0.918173 0.428084
O O6 0.000000 0.000000 0.500000
O O7 0.159626 0.695274 0.850290
O O8 0.250000 0.750000 0.000000
O O9 0.258443 0.563933 0.256592
#
# Coordination Sequence:
#
# PCOD9295400 Si02
#       4
#     8   8   8   8
#     4  10  23  42  70  97 145 181 242 298 360 435
#     4  11  22  40  70 102 137 184 234 297 358 428
#     4  11  21  41  75  99 138 190 240 288 368 433
#     4  10  23  43  72 101 138 192 240 299 364 433
#
# _framework density 23.962654000000001
#
# number of rings (size 3 to 8) (size 9 to 14) (size 15 to 20)
#    0.000    1.500    2.500    2.250    3.500    2.000 
#    0.000    1.250   16.500    0.000    0.000    0.000 
#    0.000    0.000    0.000    0.000    0.000    0.000 
#
# Total GULP energy -89183.564527 kJ/mol
# GULP energy per Si atom -5573.972783 kJ/mol
# Density = 2.390811 g / cm^3
# Si number density = 23.962654 Si / 1000 Ang^3
#
#
#
# Elastic Constant Matrix: (Units=GPa)
#
#
# Indices 1 2 3 4 5 6 
#
# 1 76.4722 45.1757 34.8406 0.0000 20.0408 0.0000
# 2 45.1757 117.4010 60.5501 0.0000 17.0659 0.0000
# 3 34.8406 60.5501 201.6041 0.0000 66.5069 0.0000
# 4 0.0000 0.0000 0.0000 14.6151 0.0000 -15.0464
# 5 20.0408 17.0659 66.5069 0.0000 26.6922 0.0000
# 6 0.0000 0.0000 0.0000 -15.0464 0.0000 48.7294
#
#
#
# Elastic Compliance Matrix: (Units=1/GPa)
#
#
# Indices 1 2 3 4 5 6 
#
# 1 0.025837 -0.010592 0.016185 0.000000 -0.052954 0.000000
# 2 -0.010592 0.014605 -0.011790 0.000000 0.027990 0.000000
# 3 0.016185 -0.011790 0.040587 0.000000 -0.105742 0.000000
# 4 0.000000 0.000000 0.000000 0.100309 0.000000 0.030973
# 5 -0.052954 0.027990 -0.105742 0.000000 0.322797 0.000000
# 6 0.000000 0.000000 0.000000 0.030973 0.000000 0.030085
#
#
# Mechanical properties :
#
#
# Convention : Reuss Voigt Hill
#
# Bulk Modulus (GPa) = 14.56955 75.17889 44.87422
# Shear Modulus (GPa) = 8.77972 35.00141 21.89056
#
# Velocity S-wave (km/s) = 1.91621 3.82601 3.02574
# Velocity P-wave (km/s) = 3.31499 7.13858 5.56545
#
# Compressibility (1/GPa) = 0.06863631
#
# Stress axis : x y z
#
# Youngs Moduli (GPa) = 38.70350 68.46742 24.63817
#
# Poissons Ratio (x) = 0.72521 -0.39877
# Poissons Ratio (y) = 0.40995 0.29048
# Poissons Ratio (z) = -0.62641 0.80722
#
# Static dielectric constant tensor:
#      x y z
#    x 2.073160 0.000000 -0.032050 
#    y 0.000000 2.074050 0.000000 
#    z -0.032050 0.000000 2.079020 
# 
# From -- ./inp_files/201703.got.cif
#   From: 2010.05.17/outbox.cif.g08.bks.cpg/sg15_101_cif.got.tgz:201703.got - 2010.06.03 18:47:42.
