data_PCOD9295315
_publ_section_title
;
Structure prediction by ZEFSAII (Michael W. Deem and Ramdas Pophale) SiO2 
 PCOD9295315
Probable space group: C 2/C
;
_chemical_formula_sum "Si O2"
_cell_formula_units_Z 52
_cell_length_a 18.999037
_cell_length_b 8.064054
_cell_length_c 15.320245
_cell_angle_alpha 90.000000
_cell_angle_beta 77.732943
_cell_angle_gamma 90.000000
_cell_volume 2293.611816
_symmetry_space_group_name_H-M "C 2/C"
_symmetry_group_IT_number 15
_symmetry_cell_setting 'monoclinic'
loop_
_space_group_symop_operation_xyz
x,y,z
-x,y,1/2-z
-x,-y,-z
x,-y,1/2+z
1/2+x,1/2+y,z
1/2-x,1/2+y,1/2-z
1/2-x,1/2-y,-z
1/2+x,1/2-y,1/2+z
loop_
_atom_site_type_symbol
_atom_site_label
_atom_site_fract_x
_atom_site_fract_y
_atom_site_fract_z
Si Si1 0.500000 0.790092 0.250000
Si Si2 0.209836 0.163482 0.643879
Si Si3 0.646513 0.146383 0.623654
Si Si4 0.654996 0.823390 0.508128
Si Si5 0.050440 0.187618 0.421918
Si Si6 0.610204 0.350619 0.473564
Si Si7 0.726875 0.809274 0.819367
O O1 0.431368 0.881677 0.311216
O O2 0.534924 0.692428 0.322975
O O3 0.278285 0.222270 0.570284
O O4 0.146523 0.189401 0.589216
O O5 0.200238 0.281910 0.728574
O O6 0.234697 0.984143 0.671390
O O7 0.641602 0.308174 0.561412
O O8 0.709201 0.179504 0.675768
O O9 0.665857 0.994589 0.556063
O O10 0.590898 0.840915 0.455765
O O11 0.974102 0.186821 0.490760
O O12 0.102525 0.034178 0.434403
O O13 0.659536 0.238504 0.398178
#
# Coordination Sequence:
#
# PCOD9295315 Si02
#       7
#     4   8   8   8   8   8   8
#     4  10  24  42  72  98 132 178 224 282 334 406
#     4  11  26  40  68 100 135 174 226 275 338 396
#     4  11  23  43  70  97 135 176 220 276 340 396
#     4  11  24  45  66  98 133 178 215 281 340 403
#     4  10  23  45  67  96 134 176 224 269 340 403
#     4  10  23  42  68  96 130 178 220 271 333 401
#     4  12  24  44  66 102 131 177 227 279 327 399
#
# _framework density 22.671665000000001
#
# number of rings (size 3 to 8) (size 9 to 14) (size 15 to 20)
#    0.000    1.231    1.538    3.231    8.615    2.462 
#    5.538    0.000    0.000    0.923    0.000    0.000 
#    0.000    0.000    0.000    0.000    0.000    0.000 
#
# Total GULP energy -145014.035667 kJ/mol
# GULP energy per Si atom -5577.462910 kJ/mol
# Density = 2.262006 g / cm^3
# Si number density = 22.671665 Si / 1000 Ang^3
#
#
#
# Elastic Constant Matrix: (Units=GPa)
#
#
# Indices 1 2 3 4 5 6 
#
# 1 49.9030 21.8153 43.8225 0.0000 17.4747 0.0000
# 2 21.8153 72.2006 17.4614 0.0000 6.9000 0.0000
# 3 43.8225 17.4614 134.5155 0.0000 10.7355 0.0000
# 4 0.0000 0.0000 0.0000 38.6606 0.0000 12.0035
# 5 17.4747 6.9000 10.7355 0.0000 45.9884 0.0000
# 6 0.0000 0.0000 0.0000 12.0035 0.0000 36.0336
#
#
#
# Elastic Compliance Matrix: (Units=1/GPa)
#
#
# Indices 1 2 3 4 5 6 
#
# 1 0.035342 -0.007359 -0.009757 0.000000 -0.010048 0.000000
# 2 -0.007359 0.015970 0.000298 0.000000 0.000331 0.000000
# 3 -0.009757 0.000298 0.010477 0.000000 0.001217 0.000000
# 4 0.000000 0.000000 0.000000 0.028850 0.000000 -0.009611
# 5 -0.010048 0.000331 0.001217 0.000000 0.025229 0.000000
# 6 0.000000 0.000000 0.000000 -0.009611 0.000000 0.030953
#
#
# Mechanical properties :
#
#
# Convention : Reuss Voigt Hill
#
# Bulk Modulus (GPa) = 35.51894 46.97974 41.24934
# Shear Modulus (GPa) = 26.33789 35.70451 31.02120
#
# Velocity S-wave (km/s) = 3.41208 3.97275 3.70304
# Velocity P-wave (km/s) = 5.58782 6.46609 6.04294
#
# Compressibility (1/GPa) = 0.02815399
#
# Stress axis : x y z
#
# Youngs Moduli (GPa) = 28.29500 62.61703 95.44891
#
# Poissons Ratio (x) = 0.46078 0.93126
# Poissons Ratio (y) = 0.20821 -0.02843
# Poissons Ratio (z) = 0.27606 -0.01865
#
# Static dielectric constant tensor:
#      x y z
#    x 1.896120 0.000000 0.067400 
#    y 0.000000 1.950530 0.000000 
#    z 0.067400 0.000000 1.832680 
# 
# From -- ./inp_files/166247.got.cif
#   From: 2010.05.17/outbox.cif.g08.bks.cpg/sg15_84_cif.got.tgz:166247.got - 2010.06.03 18:47:42.
