data_PCOD9295781
_publ_section_title
;
Structure prediction by ZEFSAII (Michael W. Deem and Ramdas Pophale) SiO2 
 PCOD9295781
Probable space group: C 2/C
;
_chemical_formula_sum "Si O2"
_cell_formula_units_Z 44
_cell_length_a 22.843276
_cell_length_b 6.536136
_cell_length_c 12.833934
_cell_angle_alpha 90.000000
_cell_angle_beta 90.330247
_cell_angle_gamma 90.000000
_cell_volume 1916.161256
_symmetry_space_group_name_H-M "C 2/C"
_symmetry_group_IT_number 15
_symmetry_cell_setting 'monoclinic'
loop_
_space_group_symop_operation_xyz
x,y,z
-x,y,1/2-z
-x,-y,-z
x,-y,1/2+z
1/2+x,1/2+y,z
1/2-x,1/2+y,1/2-z
1/2-x,1/2-y,-z
1/2+x,1/2-y,1/2+z
loop_
_atom_site_type_symbol
_atom_site_label
_atom_site_fract_x
_atom_site_fract_y
_atom_site_fract_z
Si Si1 0.536784 0.095275 0.594681
Si Si2 0.644558 0.684876 0.159699
Si Si3 0.500000 0.773879 0.750000
Si Si4 0.437384 0.407486 0.646343
Si Si5 0.163193 0.834601 0.003801
Si Si6 0.732794 0.058310 0.573304
O O1 0.599359 0.201631 0.578879
O O2 0.494780 0.270631 0.638641
O O3 0.500000 0.000000 0.500000
O O4 0.541482 0.917294 0.680998
O O5 0.606370 0.655523 0.261619
O O6 0.664701 0.471584 0.108683
O O7 0.699824 0.836453 0.169285
O O8 0.461139 0.632637 0.673614
O O9 0.401507 0.361410 0.541336
O O10 0.188357 0.609542 0.024310
O O11 0.206632 0.936925 0.918928
O O12 0.750000 0.250000 0.500000
#
# Coordination Sequence:
#
# PCOD9295781 Si02
#       6
#     8   8   4   8   8   8
#     4  12  25  42  67  97 135 182 220 280 346 407
#     4  11  22  42  63  97 132 166 228 276 330 413
#     4  12  24  44  62  96 146 168 228 284 324 428
#     4  12  25  42  63 105 133 174 231 268 357 414
#     4  10  23  43  69  93 130 179 215 286 342 406
#     4   9  21  45  65  93 129 168 226 273 338 408
#
# _framework density 22.962578000000001
#
# number of rings (size 3 to 8) (size 9 to 14) (size 15 to 20)
#    0.000    1.091    3.636    2.182    5.091    2.909 
#    9.818    0.000    0.000    0.000    0.000    0.000 
#    0.000    0.000    0.000    0.000    0.000    0.000 
#
# Total GULP energy -122873.408682 kJ/mol
# GULP energy per Si atom -5585.154940 kJ/mol
# Density = 2.291031 g / cm^3
# Si number density = 22.962578 Si / 1000 Ang^3
#
#
#
# Elastic Constant Matrix: (Units=GPa)
#
#
# Indices 1 2 3 4 5 6 
#
# 1 69.9912 38.0121 -7.0198 0.0000 -13.8705 0.0000
# 2 38.0121 144.4734 16.1208 0.0000 -8.6400 0.0000
# 3 -7.0198 16.1208 23.2735 0.0000 -11.6298 0.0000
# 4 0.0000 0.0000 0.0000 23.7558 0.0000 -6.3147
# 5 -13.8705 -8.6400 -11.6298 0.0000 45.1577 0.0000
# 6 0.0000 0.0000 0.0000 -6.3147 0.0000 48.8958
#
#
#
# Elastic Compliance Matrix: (Units=1/GPa)
#
#
# Indices 1 2 3 4 5 6 
#
# 1 0.021471 -0.006865 0.015919 0.000000 0.009381 0.000000
# 2 -0.006865 0.009697 -0.010230 0.000000 -0.002888 0.000000
# 3 0.015919 -0.010230 0.064639 0.000000 0.019579 0.000000
# 4 0.000000 0.000000 0.000000 0.043591 0.000000 0.005630
# 5 0.009381 -0.002888 0.019579 0.000000 0.029516 0.000000
# 6 0.000000 0.000000 0.000000 0.005630 0.000000 0.021179
#
#
# Mechanical properties :
#
#
# Convention : Reuss Voigt Hill
#
# Bulk Modulus (GPa) = 10.70029 36.88491 23.79260
# Shear Modulus (GPa) = 22.36178 36.27020 29.31599
#
# Velocity S-wave (km/s) = 3.12402 3.97865 3.57695
# Velocity P-wave (km/s) = 4.20508 6.09952 5.23864
#
# Compressibility (1/GPa) = 0.09345538
#
# Stress axis : x y z
#
# Youngs Moduli (GPa) = 46.57357 103.12887 15.47062
#
# Poissons Ratio (x) = 0.70793 -0.24628
# Poissons Ratio (y) = 0.31971 0.15827
# Poissons Ratio (z) = -0.74140 1.05502
#
# Static dielectric constant tensor:
#      x y z
#    x 1.874710 0.000000 0.019000 
#    y 0.000000 1.858980 0.000000 
#    z 0.019000 0.000000 1.871660 
# 
# From -- ./inp_files/170793.got.cif
#   From: 2010.05.17/outbox.cif.g08.bks.cpg/sg15_86_cif.got.tgz:170793.got - 2010.06.03 18:47:42.
