data_PCOD9295312
_publ_section_title
;
Structure prediction by ZEFSAII (Michael W. Deem and Ramdas Pophale) SiO2 
 PCOD9295312
Probable space group: C 2/C
;
_chemical_formula_sum "Si O2"
_cell_formula_units_Z 48
_cell_length_a 17.545008
_cell_length_b 16.132386
_cell_length_c 20.865307
_cell_angle_alpha 90.000000
_cell_angle_beta 160.118714
_cell_angle_gamma 90.000000
_cell_volume 2008.391428
_symmetry_space_group_name_H-M "C 2/C"
_symmetry_group_IT_number 15
_symmetry_cell_setting 'monoclinic'
loop_
_space_group_symop_operation_xyz
x,y,z
-x,y,1/2-z
-x,-y,-z
x,-y,1/2+z
1/2+x,1/2+y,z
1/2-x,1/2+y,1/2-z
1/2-x,1/2-y,-z
1/2+x,1/2-y,1/2+z
loop_
_atom_site_type_symbol
_atom_site_label
_atom_site_fract_x
_atom_site_fract_y
_atom_site_fract_z
Si Si1 0.369396 0.635252 0.319387
Si Si2 0.033695 0.577645 0.148295
Si Si3 0.171440 0.944764 0.255997
Si Si4 0.526947 0.760141 0.337265
Si Si5 0.181082 0.154304 0.949929
Si Si6 0.312407 0.901525 0.234596
O O1 0.163255 0.643301 0.205900
O O2 0.373406 0.539509 0.299232
O O3 0.400128 0.695006 0.283167
O O4 0.585856 0.642847 0.535001
O O5 0.186215 0.498250 0.282239
O O6 0.830452 0.547109 0.942846
O O7 0.911707 0.609906 0.114064
O O8 0.316903 0.901913 0.314792
O O9 0.953140 0.888348 0.097730
O O10 0.813376 0.742934 0.601414
O O11 0.497896 0.852354 0.342099
O O12 0.000000 0.143433 0.750000
O O13 0.250000 0.250000 0.000000
#
# Coordination Sequence:
#
# PCOD9295312 Si02
#       6
#     8   8   8   8   8   8
#     4  11  24  43  66  96 130 170 215 264 326 386
#     4  10  23  42  69  94 129 173 213 265 322 382
#     4  10  23  42  68  95 128 173 213 266 319 384
#     4  12  28  44  65  99 133 172 217 273 332 388
#     4  10  24  42  63  95 125 165 214 260 317 372
#     4  11  24  43  65  97 130 168 219 262 325 385
#
# _framework density 23.899725
#
# number of rings (size 3 to 8) (size 9 to 14) (size 15 to 20)
#    0.000    1.333    1.667    4.000    9.333    3.333 
#    0.000    0.000    0.000    0.000    0.000    0.000 
#    0.000    0.000    0.000    0.000    0.000    0.000 
#
# Total GULP energy -133833.113272 kJ/mol
# GULP energy per Si atom -5576.379720 kJ/mol
# Density = 2.384533 g / cm^3
# Si number density = 23.899725 Si / 1000 Ang^3
#
#
#
# Elastic Constant Matrix: (Units=GPa)
#
#
# Indices 1 2 3 4 5 6 
#
# 1 154.5536 64.6774 31.4793 -0.0006 13.8069 -0.0029
# 2 64.6774 69.9679 2.5505 -0.0786 2.5040 0.0110
# 3 31.4793 2.5505 62.8183 -0.1131 5.0002 0.0566
# 4 -0.0006 -0.0786 -0.1131 37.4074 -0.0336 9.4055
# 5 13.8069 2.5040 5.0002 -0.0336 53.4478 0.0068
# 6 -0.0029 0.0110 0.0566 9.4055 0.0068 33.6249
#
#
#
# Elastic Compliance Matrix: (Units=1/GPa)
#
#
# Indices 1 2 3 4 5 6 
#
# 1 0.012556 -0.011322 -0.005659 -0.000050 -0.002184 0.000029
# 2 -0.011322 0.024544 0.004570 0.000076 0.001347 -0.000038
# 3 -0.005659 0.004570 0.018608 0.000079 -0.000493 -0.000055
# 4 -0.000050 0.000076 0.000079 0.028756 0.000021 -0.008044
# 5 -0.002184 0.001347 -0.000493 0.000021 0.019257 -0.000010
# 6 0.000029 -0.000038 -0.000055 -0.008044 -0.000010 0.031990
#
#
# Mechanical properties :
#
#
# Convention : Reuss Voigt Hill
#
# Bulk Modulus (GPa) = 32.37635 53.86158 43.11897
# Shear Modulus (GPa) = 29.26929 37.47151 33.37040
#
# Velocity S-wave (km/s) = 3.50333 3.96392 3.74072
# Velocity P-wave (km/s) = 5.47180 6.59815 6.06120
#
# Compressibility (1/GPa) = 0.03088674
#
# Stress axis : x y z
#
# Youngs Moduli (GPa) = 79.64330 40.74371 53.73906
#
# Poissons Ratio (x) = 0.46131 0.30409
# Poissons Ratio (y) = 0.90174 -0.24560
# Poissons Ratio (z) = 0.45067 -0.18621
#
# Static dielectric constant tensor:
#      x y z
#    x 1.846560 0.000080 0.382040 
#    y 0.000080 1.913480 0.000160 
#    z 0.382040 0.000160 0.367500 
# 
# From -- ./inp_files/249752.got.cif
#   From: 2010.05.17/outbox.cif.g08.bks.cpg/sg15_125_cif.got.tgz:249752.got - 2010.06.03 18:47:42.
