data_PCOD9295393
_publ_section_title
;
Structure prediction by ZEFSAII (Michael W. Deem and Ramdas Pophale) SiO2 
 PCOD9295393
Probable space group: C 2/C
;
_chemical_formula_sum "Si O2"
_cell_formula_units_Z 36
_cell_length_a 15.149631
_cell_length_b 8.321435
_cell_length_c 23.176823
_cell_angle_alpha 90.000000
_cell_angle_beta 33.697463
_cell_angle_gamma 90.000000
_cell_volume 1621.050621
_symmetry_space_group_name_H-M "C 2/C"
_symmetry_group_IT_number 15
_symmetry_cell_setting 'monoclinic'
loop_
_space_group_symop_operation_xyz
x,y,z
-x,y,1/2-z
-x,-y,-z
x,-y,1/2+z
1/2+x,1/2+y,z
1/2-x,1/2+y,1/2-z
1/2-x,1/2-y,-z
1/2+x,1/2-y,1/2+z
loop_
_atom_site_type_symbol
_atom_site_label
_atom_site_fract_x
_atom_site_fract_y
_atom_site_fract_z
Si Si1 0.848031 0.478631 0.738296
Si Si2 0.000000 0.032136 0.250000
Si Si3 0.336915 0.448990 0.059908
Si Si4 0.961614 0.802137 0.646744
Si Si5 0.145315 0.737203 0.113660
O O1 0.774747 0.602756 0.826524
O O2 0.941132 0.610800 0.650289
O O3 0.697851 0.391766 0.790354
O O4 0.974628 0.343938 0.690409
O O5 0.131718 0.901823 0.156724
O O6 0.016856 0.135663 0.299249
O O7 0.241864 0.607518 0.096234
O O8 0.500000 0.500000 0.000000
O O9 0.387636 0.353021 0.975504
O O10 0.250000 0.750000 0.000000
#
# Coordination Sequence:
#
# PCOD9295393 Si02
#       5
#     8   4   8   8   8
#     4  11  25  46  70  98 143 180 228 282 344 399
#     4  12  24  42  70 104 138 172 236 278 340 402
#     4  10  23  42  70  94 136 177 231 269 342 395
#     4  11  26  44  70 102 136 183 231 281 336 415
#     4  12  24  44  70 100 137 181 223 287 341 408
#
# _framework density 22.207820000000002
#
# number of rings (size 3 to 8) (size 9 to 14) (size 15 to 20)
#    0.000    0.889    4.444    1.333    9.333    2.667 
#    0.000    2.222    0.000    0.000    0.000    0.000 
#    0.000    0.000    0.000    0.000    0.000    0.000 
#
# Total GULP energy -100268.261391 kJ/mol
# GULP energy per Si atom -5570.458966 kJ/mol
# Density = 2.215727 g / cm^3
# Si number density = 22.207820 Si / 1000 Ang^3
#
#
#
# Elastic Constant Matrix: (Units=GPa)
#
#
# Indices 1 2 3 4 5 6 
#
# 1 84.4623 -1.0260 12.4327 0.0000 -1.4067 0.0000
# 2 -1.0260 53.4607 -11.0595 0.0000 -5.0524 0.0000
# 3 12.4327 -11.0595 121.5764 -0.0001 9.5443 0.0000
# 4 0.0000 0.0000 -0.0001 41.6293 0.0000 -4.3155
# 5 -1.4067 -5.0524 9.5443 0.0000 31.4874 0.0000
# 6 0.0000 0.0000 0.0000 -4.3155 0.0000 5.7179
#
#
#
# Elastic Compliance Matrix: (Units=1/GPa)
#
#
# Indices 1 2 3 4 5 6 
#
# 1 0.012047 0.000051 -0.001301 0.000000 0.000941 0.000000
# 2 0.000051 0.019274 0.001542 0.000000 0.002628 0.000000
# 3 -0.001301 0.001542 0.008691 0.000000 -0.002445 0.000000
# 4 0.000000 0.000000 0.000000 0.026060 0.000000 0.019668
# 5 0.000941 0.002628 -0.002445 0.000000 0.032964 0.000000
# 6 0.000000 0.000000 0.000000 0.019668 0.000000 0.189733
#
#
# Mechanical properties :
#
#
# Convention : Reuss Voigt Hill
#
# Bulk Modulus (GPa) = 24.63385 28.91041 26.77213
# Shear Modulus (GPa) = 16.57183 33.04374 24.80778
#
# Velocity S-wave (km/s) = 2.73466 3.86156 3.34589
# Velocity P-wave (km/s) = 4.59213 5.73834 5.19693
#
# Compressibility (1/GPa) = 0.04059455
#
# Stress axis : x y z
#
# Youngs Moduli (GPa) = 83.00524 51.88452 115.06759
#
# Poissons Ratio (x) = -0.00264 0.14973
# Poissons Ratio (y) = -0.00423 -0.17741
# Poissons Ratio (z) = 0.10801 -0.08000
#
# Static dielectric constant tensor:
#      x y z
#    x 2.184160 0.000000 0.514900 
#    y 0.000000 -5.899750 -0.000010 
#    z 0.514900 -0.000010 2.465760 
# 
# From -- ./inp_files/150133.got.cif
#   From: 2010.05.17/outbox.cif.g08.bks.cpg/sg15_76_cif.got.tgz:150133.got - 2010.06.03 18:47:42.
