data_PCOD9295171
_publ_section_title
;
Structure prediction by ZEFSAII (Michael W. Deem and Ramdas Pophale) SiO2 
 PCOD9295171
Probable space group: C 2/C
;
_chemical_formula_sum "Si O2"
_cell_formula_units_Z 48
_cell_length_a 17.006660
_cell_length_b 17.012371
_cell_length_c 15.788418
_cell_angle_alpha 90.000000
_cell_angle_beta 28.151480
_cell_angle_gamma 90.000000
_cell_volume 2155.184052
_symmetry_space_group_name_H-M "C 2/C"
_symmetry_group_IT_number 15
_symmetry_cell_setting 'monoclinic'
loop_
_space_group_symop_operation_xyz
x,y,z
-x,y,1/2-z
-x,-y,-z
x,-y,1/2+z
1/2+x,1/2+y,z
1/2-x,1/2+y,1/2-z
1/2-x,1/2-y,-z
1/2+x,1/2-y,1/2+z
loop_
_atom_site_type_symbol
_atom_site_label
_atom_site_fract_x
_atom_site_fract_y
_atom_site_fract_z
Si Si1 0.000000 0.731282 0.750000
Si Si2 0.198143 0.827532 0.436304
Si Si3 0.545232 0.924328 0.900147
Si Si4 0.500000 0.022591 0.250000
Si Si5 0.129148 0.859762 0.964055
Si Si6 0.149720 0.015654 0.047271
Si Si7 0.747420 0.698603 0.705552
O O1 0.848378 0.680723 0.859821
O O2 0.048229 0.785970 0.626005
O O3 0.163211 0.920439 0.458775
O O4 0.238412 0.780982 0.313262
O O5 0.528929 0.936639 0.813730
O O6 0.739402 0.899062 0.727911
O O7 0.406172 0.858763 0.050083
O O8 0.500000 0.000000 0.000000
O O9 0.324566 0.980218 0.429782
O O10 0.215763 0.773521 0.889297
O O11 0.934084 0.840590 0.135255
O O12 0.125108 0.926142 0.040471
O O13 0.000000 0.038655 0.250000
#
# Coordination Sequence:
#
# PCOD9295171 Si02
#       7
#     4   8   8   4   8   8   8
#     4  10  23  42  66 103 136 180 226 300 361 430
#     4  11  23  42  68  99 139 178 233 290 363 427
#     4  11  25  46  72 106 139 187 239 294 358 424
#     4  10  23  44  66 101 140 172 236 282 347 412
#     4  11  25  43  69 100 140 184 236 286 355 421
#     4  11  23  44  67 101 135 182 232 290 349 427
#     4  12  23  45  69 101 142 187 235 296 351 429
#
# _framework density 22.271878999999998
#
# number of rings (size 3 to 8) (size 9 to 14) (size 15 to 20)
#    0.000    1.000    2.500    4.500    0.000    4.000 
#    4.500    2.500    0.000    0.000    0.000    0.000 
#    0.000    0.000    0.000    0.000    0.000    0.000 
#
# Total GULP energy -133686.757481 kJ/mol
# GULP energy per Si atom -5570.281562 kJ/mol
# Density = 2.222119 g / cm^3
# Si number density = 22.271879 Si / 1000 Ang^3
#
#
#
# Elastic Constant Matrix: (Units=GPa)
#
#
# Indices 1 2 3 4 5 6 
#
# 1 45.4290 20.7394 6.0558 -0.0001 -1.3738 -0.0002
# 2 20.7394 118.0797 17.7087 -0.0030 -0.6871 0.0014
# 3 6.0558 17.7087 113.2087 0.0000 -13.4796 0.0008
# 4 -0.0001 -0.0030 0.0000 -2.5387 0.0012 31.0569
# 5 -1.3738 -0.6871 -13.4796 0.0012 44.5377 -0.0019
# 6 -0.0002 0.0014 0.0008 31.0569 -0.0019 7.5547
#
#
#
# Elastic Compliance Matrix: (Units=1/GPa)
#
#
# Indices 1 2 3 4 5 6 
#
# 1 0.023987 -0.004123 -0.000578 0.000000 0.000501 0.000000
# 2 -0.004123 0.009385 -0.001292 -0.000001 -0.000373 0.000001
# 3 -0.000578 -0.001292 0.009401 0.000000 0.002807 0.000000
# 4 0.000000 -0.000001 0.000000 -0.007680 0.000002 0.031571
# 5 0.000501 -0.000373 0.002807 0.000002 0.023312 -0.000001
# 6 0.000000 0.000001 0.000000 0.031571 -0.000001 0.002581
#
#
# Mechanical properties :
#
#
# Convention : Reuss Voigt Hill
#
# Bulk Modulus (GPa) = 32.48355 40.63614 36.55985
# Shear Modulus (GPa) = 60.07129 25.39166 42.73147
#
# Velocity S-wave (km/s) = 5.19907 3.38017 4.38497
# Velocity P-wave (km/s) = 7.11738 5.78957 6.48754
#
# Compressibility (1/GPa) = 0.03078481
#
# Stress axis : x y z
#
# Youngs Moduli (GPa) = 41.68912 106.55683 106.37686
#
# Poissons Ratio (x) = 0.43938 0.06153
# Poissons Ratio (y) = 0.17190 0.13743
# Poissons Ratio (z) = 0.02411 0.13766
#
# Static dielectric constant tensor:
#      x y z
#    x 2.102260 0.000010 -0.058010 
#    y 0.000010 1.880050 0.000000 
#    z -0.058010 0.000000 1.840000 
# 
# From -- ./inp_files/163206.got.cif
#   From: 2010.05.17/outbox.cif.g08.bks.cpg/sg15_82_cif.got.tgz:163206.got - 2010.06.03 18:47:42.
