data_PCOD9295786
_publ_section_title
;
Structure prediction by ZEFSAII (Michael W. Deem and Ramdas Pophale) SiO2 
 PCOD9295786
Probable space group: C 2/C
;
_chemical_formula_sum "Si O2"
_cell_formula_units_Z 52
_cell_length_a 29.936249
_cell_length_b 9.166795
_cell_length_c 10.616636
_cell_angle_alpha 90.000000
_cell_angle_beta 69.702507
_cell_angle_gamma 90.000000
_cell_volume 2732.500625
_symmetry_space_group_name_H-M "C 2/C"
_symmetry_group_IT_number 15
_symmetry_cell_setting 'monoclinic'
loop_
_space_group_symop_operation_xyz
x,y,z
-x,y,1/2-z
-x,-y,-z
x,-y,1/2+z
1/2+x,1/2+y,z
1/2-x,1/2+y,1/2-z
1/2-x,1/2-y,-z
1/2+x,1/2-y,1/2+z
loop_
_atom_site_type_symbol
_atom_site_label
_atom_site_fract_x
_atom_site_fract_y
_atom_site_fract_z
Si Si1 0.205546 0.616810 0.405116
Si Si2 0.285515 0.138532 0.807608
Si Si3 0.098210 0.295431 0.032314
Si Si4 0.000000 0.189831 0.750000
Si Si5 0.612082 0.274848 0.801546
Si Si6 0.955570 0.574287 0.476603
Si Si7 0.052515 0.051101 0.905198
O O1 0.240622 0.753189 0.348902
O O2 0.209677 0.579573 0.551822
O O3 0.217264 0.486818 0.295975
O O4 0.151280 0.666678 0.434763
O O5 0.332745 0.235467 0.734736
O O6 0.102520 0.218877 0.162318
O O7 0.070637 0.447961 0.075194
O O8 0.070106 0.191678 0.964220
O O9 0.024211 0.294899 0.625474
O O10 0.041507 0.095325 0.772428
O O11 0.591329 0.423877 0.878947
O O12 0.581530 0.142854 0.889379
O O13 0.000000 0.500000 0.500000
O O14 0.000000 0.000000 0.000000
#
# Coordination Sequence:
#
# PCOD9295786 Si02
#       7
#     8   8   8   4   8   8   8
#     4  10  23  43  69  97 133 165 215 268 324 386
#     4  10  23  45  68 100 130 167 213 269 325 386
#     4  11  24  42  65  90 127 171 212 266 319 378
#     4  12  24  38  62  92 130 164 222 258 318 378
#     4  11  24  42  63  90 129 168 211 262 319 381
#     4  12  22  40  62  91 121 168 214 261 307 374
#     4  12  24  41  60  92 128 171 211 261 317 381
#
# _framework density 19.030187999999999
#
# number of rings (size 3 to 8) (size 9 to 14) (size 15 to 20)
#    0.000    0.923    4.615    1.846    2.154    1.846 
#    0.000    0.000    0.000    0.000    0.000    0.000 
#    0.000    0.000    0.000    0.000    0.000    0.000 
#
# Total GULP energy -145212.247928 kJ/mol
# GULP energy per Si atom -5585.086459 kJ/mol
# Density = 1.898687 g / cm^3
# Si number density = 19.030188 Si / 1000 Ang^3
#
#
#
# Elastic Constant Matrix: (Units=GPa)
#
#
# Indices 1 2 3 4 5 6 
#
# 1 84.5902 28.8232 21.2659 0.0000 -7.2081 0.0000
# 2 28.8232 90.5753 29.7533 0.0000 4.0482 0.0000
# 3 21.2659 29.7533 77.2311 0.0000 -6.0656 0.0000
# 4 0.0000 0.0000 0.0000 43.5386 0.0000 0.1357
# 5 -7.2081 4.0482 -6.0656 0.0000 31.3378 0.0000
# 6 0.0000 0.0000 0.0000 0.1357 0.0000 17.4931
#
#
#
# Elastic Compliance Matrix: (Units=1/GPa)
#
#
# Indices 1 2 3 4 5 6 
#
# 1 0.013958 -0.003907 -0.002078 0.000000 0.003313 0.000000
# 2 -0.003907 0.013949 -0.004580 0.000000 -0.003587 0.000000
# 3 -0.002078 -0.004580 0.015530 0.000000 0.003119 0.000000
# 4 0.000000 0.000000 0.000000 0.022969 0.000000 -0.000178
# 5 0.003313 -0.003587 0.003119 0.000000 0.033740 0.000000
# 6 0.000000 0.000000 0.000000 -0.000178 0.000000 0.057167
#
#
# Mechanical properties :
#
#
# Convention : Reuss Voigt Hill
#
# Bulk Modulus (GPa) = 44.82969 45.78681 45.30825
# Shear Modulus (GPa) = 26.89972 29.97752 28.43862
#
# Velocity S-wave (km/s) = 3.76377 3.97326 3.86993
# Velocity P-wave (km/s) = 6.51891 6.72022 6.62033
#
# Compressibility (1/GPa) = 0.02230665
#
# Stress axis : x y z
#
# Youngs Moduli (GPa) = 71.64497 71.69203 64.39330
#
# Poissons Ratio (x) = 0.28011 0.13380
# Poissons Ratio (y) = 0.27993 0.29489
# Poissons Ratio (z) = 0.14887 0.32832
#
# Static dielectric constant tensor:
#      x y z
#    x 1.649460 0.000000 0.024550 
#    y 0.000000 1.688770 0.000000 
#    z 0.024550 0.000000 1.715120 
# 
# From -- ./inp_files/121423.got.cif
#   From: 2010.05.17/outbox.cif.g08.bks.cpg/sg15_61_cif.got.tgz:121423.got - 2010.06.03 18:47:42.
