data_PCOD9295494
_publ_section_title
;
Structure prediction by ZEFSAII (Michael W. Deem and Ramdas Pophale) SiO2 
 PCOD9295494
Probable space group: C 2/C
;
_chemical_formula_sum "Si O2"
_cell_formula_units_Z 32
_cell_length_a 24.319841
_cell_length_b 8.141905
_cell_length_c 10.094252
_cell_angle_alpha 90.000000
_cell_angle_beta 38.881119
_cell_angle_gamma 90.000000
_cell_volume 1254.635510
_symmetry_space_group_name_H-M "C 2/C"
_symmetry_group_IT_number 15
_symmetry_cell_setting 'monoclinic'
loop_
_space_group_symop_operation_xyz
x,y,z
-x,y,1/2-z
-x,-y,-z
x,-y,1/2+z
1/2+x,1/2+y,z
1/2-x,1/2+y,1/2-z
1/2-x,1/2-y,-z
1/2+x,1/2-y,1/2+z
loop_
_atom_site_type_symbol
_atom_site_label
_atom_site_fract_x
_atom_site_fract_y
_atom_site_fract_z
Si Si1 0.560949 0.049066 0.006869
Si Si2 0.637075 0.634667 0.224193
Si Si3 0.239185 0.406165 0.614281
Si Si4 0.093494 0.000335 0.547368
O O1 0.500000 0.053181 0.250000
O O2 0.604260 0.220135 0.877442
O O3 0.500000 0.000000 0.000000
O O4 0.644932 0.928265 0.855967
O O5 0.736499 0.572705 0.014330
O O6 0.600449 0.476542 0.377518
O O7 0.403238 0.356602 0.847631
O O8 0.250000 0.250000 0.500000
O O9 0.317923 0.405357 0.573218
O O10 0.000000 0.080554 0.750000
#
# Coordination Sequence:
#
# PCOD9295494 Si02
#       4
#     8   8   8   8
#     4  12  30  50  75 112 159 204 260 325 386 464
#     4  10  25  46  78 110 156 198 257 316 390 455
#     4  10  27  48  81 112 152 203 264 318 395 462
#     4  10  23  42  79 111 156 193 261 314 388 456
#
# _framework density 25.505414999999999
#
# number of rings (size 3 to 8) (size 9 to 14) (size 15 to 20)
#    1.500    0.000    0.000    2.250   10.500    3.000 
#    0.000    1.250    0.000    0.000    0.000    0.000 
#    0.000    0.000    0.000    0.000    0.000    0.000 
#
# Total GULP energy -89164.440687 kJ/mol
# GULP energy per Si atom -5572.777543 kJ/mol
# Density = 2.544736 g / cm^3
# Si number density = 25.505415 Si / 1000 Ang^3
#
#
#
# Elastic Constant Matrix: (Units=GPa)
#
#
# Indices 1 2 3 4 5 6 
#
# 1 130.8183 38.0156 78.4714 0.0000 -5.6820 0.0000
# 2 38.0156 117.9237 73.0051 0.0000 5.0590 0.0000
# 3 78.4714 73.0051 272.6593 0.0000 -3.6633 0.0000
# 4 0.0000 0.0000 0.0000 35.7042 0.0000 4.2939
# 5 -5.6820 5.0590 -3.6633 0.0000 61.0854 0.0000
# 6 0.0000 0.0000 0.0000 4.2939 0.0000 22.3305
#
#
#
# Elastic Compliance Matrix: (Units=1/GPa)
#
#
# Indices 1 2 3 4 5 6 
#
# 1 0.009545 -0.001705 -0.002279 0.000000 0.000892 0.000000
# 2 -0.001705 0.010532 -0.002345 0.000000 -0.001171 0.000000
# 3 -0.002279 -0.002345 0.004955 0.000000 0.000279 0.000000
# 4 0.000000 0.000000 0.000000 0.028671 0.000000 -0.005513
# 5 0.000892 -0.001171 0.000279 0.000000 0.016567 0.000000
# 6 0.000000 0.000000 0.000000 -0.005513 0.000000 0.045842
#
#
# Mechanical properties :
#
#
# Convention : Reuss Voigt Hill
#
# Bulk Modulus (GPa) = 80.80755 100.04283 90.42519
# Shear Modulus (GPa) = 37.62403 45.95130 41.78766
#
# Velocity S-wave (km/s) = 3.84492 4.24917 4.05209
# Velocity P-wave (km/s) = 7.17374 7.96136 7.57779
#
# Compressibility (1/GPa) = 0.01237508
#
# Stress axis : x y z
#
# Youngs Moduli (GPa) = 104.76465 94.95216 201.81579
#
# Poissons Ratio (x) = 0.16187 0.45987
# Poissons Ratio (y) = 0.17859 0.47325
# Poissons Ratio (z) = 0.23873 0.22266
#
# Static dielectric constant tensor:
#      x y z
#    x 1.812100 0.000000 0.074900 
#    y 0.000000 2.451320 0.000000 
#    z 0.074900 0.000000 2.025790 
# 
# From -- ./inp_files/125421.got.cif
#   From: 2010.05.17/outbox.cif.g08.bks.cpg/sg15_63_cif.got.tgz:125421.got - 2010.06.03 18:47:42.
