data_PCOD9295073
_publ_section_title
;
Structure prediction by ZEFSAII (Michael W. Deem and Ramdas Pophale) SiO2 
 PCOD9295073
Probable space group: C 2/C
;
_chemical_formula_sum "Si O2"
_cell_formula_units_Z 64
_cell_length_a 25.900742
_cell_length_b 10.909322
_cell_length_c 11.035992
_cell_angle_alpha 90.000000
_cell_angle_beta 103.870297
_cell_angle_gamma 90.000000
_cell_volume 3027.397185
_symmetry_space_group_name_H-M "C 2/C"
_symmetry_group_IT_number 15
_symmetry_cell_setting 'monoclinic'
loop_
_space_group_symop_operation_xyz
x,y,z
-x,y,1/2-z
-x,-y,-z
x,-y,1/2+z
1/2+x,1/2+y,z
1/2-x,1/2+y,1/2-z
1/2-x,1/2-y,-z
1/2+x,1/2-y,1/2+z
loop_
_atom_site_type_symbol
_atom_site_label
_atom_site_fract_x
_atom_site_fract_y
_atom_site_fract_z
Si Si1 0.675921 0.128413 0.265787
Si Si2 0.084774 0.493941 0.080711
Si Si3 0.799273 0.879707 0.830464
Si Si4 0.944919 0.600482 0.695358
Si Si5 0.124118 0.273562 0.964423
Si Si6 0.358837 0.635025 0.875039
Si Si7 0.369308 0.318333 0.655739
Si Si8 0.063324 0.068879 0.773022
O O1 0.737246 0.096027 0.309322
O O2 0.645509 0.129767 0.376794
O O3 0.672898 0.270863 0.226214
O O4 0.642030 0.051210 0.149528
O O5 0.054339 0.499342 0.193638
O O6 0.060788 0.560539 0.948277
O O7 0.090386 0.354145 0.038830
O O8 0.816993 0.834315 0.707432
O O9 0.830638 0.005551 0.864128
O O10 0.825099 0.786363 0.941094
O O11 0.897048 0.690480 0.699547
O O12 0.000000 0.670114 0.750000
O O13 0.089375 0.165422 0.883224
O O14 0.416726 0.618843 0.846544
O O15 0.359112 0.685773 0.008560
O O16 0.408044 0.436321 0.697426
O O17 0.000000 0.062596 0.750000
#
# Coordination Sequence:
#
# PCOD9295073 Si02
#       8
#     8   8   8   8   8   8   8   8
#     4  11  25  43  67  94 130 179 213 270 328 387
#     4  12  25  46  66  98 134 170 228 271 319 401
#     4  11  24  41  67  94 132 172 213 271 332 382
#     4  12  26  45  69  94 133 179 218 272 331 387
#     4  11  23  44  66  94 133 170 222 265 322 400
#     4  10  23  42  63  97 130 161 219 267 316 396
#     4  11  22  43  64  98 129 159 220 270 318 391
#     4  10  23  42  66  94 129 171 210 268 334 383
#
# _framework density 21.140272
#
# number of rings (size 3 to 8) (size 9 to 14) (size 15 to 20)
#    0.000    1.000    5.000    1.125    1.750    3.500 
#    0.000    0.000    0.000    0.000    0.000    0.000 
#    0.000    0.000    0.000    0.000    0.000    0.000 
#
# Total GULP energy -178595.572440 kJ/mol
# GULP energy per Si atom -5581.111639 kJ/mol
# Density = 2.109216 g / cm^3
# Si number density = 21.140272 Si / 1000 Ang^3
#
#
#
# Elastic Constant Matrix: (Units=GPa)
#
#
# Indices 1 2 3 4 5 6 
#
# 1 71.9591 -20.8657 20.5877 0.0000 5.7146 0.0000
# 2 -20.8657 34.8163 -1.4059 0.0000 -1.1182 0.0000
# 3 20.5877 -1.4059 109.3539 0.0000 -19.7549 0.0000
# 4 0.0000 0.0000 0.0000 -62.2627 0.0000 -166.8740
# 5 5.7146 -1.1182 -19.7549 0.0000 32.6807 0.0000
# 6 0.0000 0.0000 0.0000 -166.8740 0.0000 -249.3762
#
#
#
# Elastic Compliance Matrix: (Units=1/GPa)
#
#
# Indices 1 2 3 4 5 6 
#
# 1 0.018752 0.010882 -0.004395 0.000000 -0.005564 0.000000
# 2 0.010882 0.035105 -0.001935 0.000000 -0.001872 0.000000
# 3 -0.004395 -0.001935 0.011309 0.000000 0.007539 0.000000
# 4 0.000000 0.000000 0.000000 0.020241 0.000000 -0.013545
# 5 -0.005564 -0.001872 0.007539 0.000000 0.036065 0.000000
# 6 0.000000 0.000000 0.000000 -0.013545 0.000000 0.005054
#
#
# Mechanical properties :
#
#
# Convention : Reuss Voigt Hill
#
# Bulk Modulus (GPa) = 13.46477 23.64016 18.55246
# Shear Modulus (GPa) = 35.16663 -41.27077 -3.05207
#
# Velocity S-wave (km/s) = 4.08301 -4.42320 -1.20285
# Velocity P-wave (km/s) = 5.34893 3.85740 2.62027
#
# Compressibility (1/GPa) = 0.07426790
#
# Stress axis : x y z
#
# Youngs Moduli (GPa) = 53.32903 28.48557 88.42439
#
# Poissons Ratio (x) = -0.30997 0.38866
# Poissons Ratio (y) = -0.58031 0.17114
# Poissons Ratio (z) = 0.23440 0.05513
#
# Static dielectric constant tensor:
#      x y z
#    x 1.773690 0.000000 -0.044280 
#    y 0.000000 1.786520 0.000000 
#    z -0.044280 0.000000 1.782510 
# 
# From -- ./inp_files/118044.got.cif
#   From: 2010.05.17/outbox.cif.g08.bks.cpg/sg15_60_cif.got.tgz:118044.got - 2010.06.03 18:47:42.
