data_PCOD9295918
_publ_section_title
;
Structure prediction by ZEFSAII (Michael W. Deem and Ramdas Pophale) SiO2 
 PCOD9295918
Probable space group: C 2/C
;
_chemical_formula_sum "Si O2"
_cell_formula_units_Z 32
_cell_length_a 17.882474
_cell_length_b 10.518570
_cell_length_c 8.555692
_cell_angle_alpha 90.000000
_cell_angle_beta 115.143470
_cell_angle_gamma 90.000000
_cell_volume 1456.821681
_symmetry_space_group_name_H-M "C 2/C"
_symmetry_group_IT_number 15
_symmetry_cell_setting 'monoclinic'
loop_
_space_group_symop_operation_xyz
x,y,z
-x,y,1/2-z
-x,-y,-z
x,-y,1/2+z
1/2+x,1/2+y,z
1/2-x,1/2+y,1/2-z
1/2-x,1/2-y,-z
1/2+x,1/2-y,1/2+z
loop_
_atom_site_type_symbol
_atom_site_label
_atom_site_fract_x
_atom_site_fract_y
_atom_site_fract_z
Si Si1 0.937149 0.388215 0.489219
Si Si2 0.231131 0.869211 0.872197
Si Si3 0.827521 0.539695 0.175383
Si Si4 0.960120 0.877250 0.884191
O O1 0.864537 0.417176 0.298970
O O2 0.897818 0.404680 0.624840
O O3 0.974819 0.250671 0.495906
O O4 0.000000 0.500000 0.500000
O O5 0.292680 0.869022 0.778187
O O6 0.138412 0.884738 0.728822
O O7 0.250000 0.750000 0.000000
O O8 0.255249 0.991514 0.998117
O O9 0.000000 0.859763 0.750000
O O10 0.000000 0.000000 0.000000
#
# Coordination Sequence:
#
# PCOD9295918 Si02
#       4
#     8   8   8   8
#     4  11  23  44  71 106 138 189 246 300 357 436
#     4  11  23  47  71 101 141 187 244 300 359 435
#     4  10  23  43  73 102 135 187 248 303 346 433
#     4  12  27  47  69 104 150 189 233 302 373 433
#
# _framework density 21.965627999999999
#
# number of rings (size 3 to 8) (size 9 to 14) (size 15 to 20)
#    0.000    1.000    2.500    3.750    3.500    3.000 
#    4.500    0.000    0.000    0.000    0.000    0.000 
#    0.000    0.000    0.000    0.000    0.000    0.000 
#
# Total GULP energy -89504.679402 kJ/mol
# GULP energy per Si atom -5594.042463 kJ/mol
# Density = 2.191563 g / cm^3
# Si number density = 21.965628 Si / 1000 Ang^3
#
#
#
# Elastic Constant Matrix: (Units=GPa)
#
#
# Indices 1 2 3 4 5 6 
#
# 1 154.6185 81.4188 69.4211 0.0000 -34.9811 0.0000
# 2 81.4188 170.5176 68.4286 0.0000 -18.4434 0.0000
# 3 69.4211 68.4286 115.4268 0.0000 -20.1248 0.0000
# 4 0.0000 0.0000 0.0000 28.7429 0.0000 -9.9196
# 5 -34.9811 -18.4434 -20.1248 0.0000 66.7156 0.0000
# 6 0.0000 0.0000 0.0000 -9.9196 0.0000 28.9815
#
#
#
# Elastic Compliance Matrix: (Units=1/GPa)
#
#
# Indices 1 2 3 4 5 6 
#
# 1 0.010698 -0.003137 -0.003956 0.000000 0.003549 0.000000
# 2 -0.003137 0.008655 -0.003287 0.000000 -0.000244 0.000000
# 3 -0.003956 -0.003287 0.013163 0.000000 0.000988 0.000000
# 4 0.000000 0.000000 0.000000 0.039451 0.000000 0.013503
# 5 0.003549 -0.000244 0.000988 0.000000 0.017081 0.000000
# 6 0.000000 0.000000 0.000000 0.013503 0.000000 0.039126
#
#
# Mechanical properties :
#
#
# Convention : Reuss Voigt Hill
#
# Bulk Modulus (GPa) = 85.05104 97.67776 91.36440
# Shear Modulus (GPa) = 32.71106 39.64096 36.17601
#
# Velocity S-wave (km/s) = 3.86319 4.25276 4.06265
# Velocity P-wave (km/s) = 7.66180 8.28732 7.98069
#
# Compressibility (1/GPa) = 0.01175765
#
# Stress axis : x y z
#
# Youngs Moduli (GPa) = 93.47157 115.54098 75.96800
#
# Poissons Ratio (x) = 0.36244 0.30052
# Poissons Ratio (y) = 0.29321 0.24969
# Poissons Ratio (z) = 0.36977 0.37975
#
# Static dielectric constant tensor:
#      x y z
#    x 1.808400 0.000000 0.083230 
#    y 0.000000 1.796150 0.000000 
#    z 0.083230 0.000000 1.780940 
# 
# From -- ./inp_files/36857.got.cif
#   From: 2010.05.17/outbox.cif.g08.bks.cpg/sg15_19_cif.got.tgz:36857.got - 2010.06.03 18:47:42.
