data_PCOD9295437
_publ_section_title
;
Structure prediction by ZEFSAII (Michael W. Deem and Ramdas Pophale) SiO2 
 PCOD9295437
Probable space group: C 2/C
;
_chemical_formula_sum "Si O2"
_cell_formula_units_Z 36
_cell_length_a 9.800031
_cell_length_b 24.805555
_cell_length_c 12.432619
_cell_angle_alpha 90.000000
_cell_angle_beta 142.343280
_cell_angle_gamma 90.000000
_cell_volume 1846.417470
_symmetry_space_group_name_H-M "C 2/C"
_symmetry_group_IT_number 15
_symmetry_cell_setting 'monoclinic'
loop_
_space_group_symop_operation_xyz
x,y,z
-x,y,1/2-z
-x,-y,-z
x,-y,1/2+z
1/2+x,1/2+y,z
1/2-x,1/2+y,1/2-z
1/2-x,1/2-y,-z
1/2+x,1/2-y,1/2+z
loop_
_atom_site_type_symbol
_atom_site_label
_atom_site_fract_x
_atom_site_fract_y
_atom_site_fract_z
Si Si1 0.053846 0.391861 0.901403
Si Si2 0.500000 0.749278 0.250000
Si Si3 0.585955 0.170098 0.970128
Si Si4 0.768540 0.996872 0.790587
Si Si5 0.000000 0.415018 0.250000
Si Si6 0.500000 0.446951 0.250000
O O1 0.000000 0.367286 0.750000
O O2 0.883826 0.443577 0.800120
O O3 0.314317 0.411084 0.071171
O O4 0.001692 0.354431 0.972661
O O5 0.570878 0.789426 0.196647
O O6 0.703174 0.708499 0.388621
O O7 0.637196 0.122170 0.917946
O O8 0.635472 0.046368 0.757407
O O9 0.840703 0.013580 0.717371
O O10 0.000000 0.000000 0.000000
#
# Coordination Sequence:
#
# PCOD9295437 Si02
#       6
#     8   4   8   8   4   4
#     4  12  25  42  63 100 139 184 220 259 340 401
#     4   9  22  47  70  94 118 160 235 297 332 388
#     4  10  23  42  71  94 124 167 225 286 335 388
#     4  12  24  39  61  99 144 181 221 260 316 410
#     4  11  22  40  64 103 131 176 220 263 334 400
#     4  12  24  41  60  91 149 182 219 268 308 406
#
# _framework density 19.497215000000001
#
# number of rings (size 3 to 8) (size 9 to 14) (size 15 to 20)
#    0.000    0.889    5.556    0.667    6.222    0.000 
#    4.000    1.111    0.000    0.000    0.000    0.000 
#    0.000    0.000    0.000    0.000    0.000    0.000 
#
# Total GULP energy -100234.064066 kJ/mol
# GULP energy per Si atom -5568.559115 kJ/mol
# Density = 1.945284 g / cm^3
# Si number density = 19.497215 Si / 1000 Ang^3
#
#
#
# Elastic Constant Matrix: (Units=GPa)
#
#
# Indices 1 2 3 4 5 6 
#
# 1 116.9389 53.6665 19.7511 0.0000 -21.6579 0.0000
# 2 53.6665 115.7316 38.9504 0.0000 -8.5884 0.0000
# 3 19.7511 38.9504 91.3255 0.0000 -5.2122 0.0000
# 4 0.0000 0.0000 0.0000 47.2428 0.0000 -10.0165
# 5 -21.6579 -8.5884 -5.2122 0.0000 35.5891 0.0000
# 6 0.0000 0.0000 0.0000 -10.0165 0.0000 5.2716
#
#
#
# Elastic Compliance Matrix: (Units=1/GPa)
#
#
# Indices 1 2 3 4 5 6 
#
# 1 0.012032 -0.005102 -0.000079 0.000000 0.006079 0.000000
# 2 -0.005102 0.012370 -0.004215 0.000000 -0.000737 0.000000
# 3 -0.000079 -0.004215 0.012811 0.000000 0.000811 0.000000
# 4 0.000000 0.000000 0.000000 0.035448 0.000000 0.067353
# 5 0.006079 -0.000737 0.000811 0.000000 0.031739 0.000000
# 6 0.000000 0.000000 0.000000 0.067353 0.000000 0.317672
#
#
# Mechanical properties :
#
#
# Convention : Reuss Voigt Hill
#
# Bulk Modulus (GPa) = 54.28320 60.97023 57.62671
# Shear Modulus (GPa) = 11.18559 31.72923 21.45741
#
# Velocity S-wave (km/s) = 2.39781 4.03845 3.32103
# Velocity P-wave (km/s) = 5.96388 7.28591 6.65779
#
# Compressibility (1/GPa) = 0.01842191
#
# Stress axis : x y z
#
# Youngs Moduli (GPa) = 83.11108 80.83979 78.05897
#
# Poissons Ratio (x) = 0.41241 0.00620
# Poissons Ratio (y) = 0.42400 0.32899
# Poissons Ratio (z) = 0.00660 0.34071
#
# Static dielectric constant tensor:
#      x y z
#    x 1.618680 0.000000 -0.103730 
#    y 0.000000 1.679720 0.000000 
#    z -0.103730 0.000000 1.813220 
# 
# From -- ./inp_files/23122.got.cif
#   From: 2010.05.17/outbox.cif.g08.bks.cpg/sg15_12_cif.got.tgz:23122.got - 2010.06.03 18:47:42.
