data_PCOD9295307
_publ_section_title
;
Structure prediction by ZEFSAII (Michael W. Deem and Ramdas Pophale) SiO2 
 PCOD9295307
Probable space group: C 2/C
;
_chemical_formula_sum "Si O2"
_cell_formula_units_Z 48
_cell_length_a 29.524780
_cell_length_b 14.609995
_cell_length_c 14.765582
_cell_angle_alpha 90.000000
_cell_angle_beta 20.362626
_cell_angle_gamma 90.000000
_cell_volume 2216.242910
_symmetry_space_group_name_H-M "C 2/C"
_symmetry_group_IT_number 15
_symmetry_cell_setting 'monoclinic'
loop_
_space_group_symop_operation_xyz
x,y,z
-x,y,1/2-z
-x,-y,-z
x,-y,1/2+z
1/2+x,1/2+y,z
1/2-x,1/2+y,1/2-z
1/2-x,1/2-y,-z
1/2+x,1/2-y,1/2+z
loop_
_atom_site_type_symbol
_atom_site_label
_atom_site_fract_x
_atom_site_fract_y
_atom_site_fract_z
Si Si1 0.807951 0.529792 0.494206
Si Si2 0.937039 0.289803 0.777863
Si Si3 0.013926 0.634143 0.619552
Si Si4 0.545411 0.448382 0.004637
Si Si5 0.396931 0.748994 0.189008
Si Si6 0.717204 0.389109 0.969350
O O1 0.869933 0.615274 0.429031
O O2 0.678393 0.493893 0.786337
O O3 0.766184 0.571630 0.474363
O O4 0.910302 0.446738 0.292041
O O5 0.000000 0.248518 0.750000
O O6 0.048364 0.312432 0.494773
O O7 0.832687 0.216679 0.934683
O O8 0.160604 0.602837 0.325047
O O9 0.000000 0.658691 0.750000
O O10 0.983218 0.720170 0.612420
O O11 0.580126 0.348376 0.900828
O O12 0.500000 0.500000 0.000000
O O13 0.415739 0.441809 0.307452
O O14 0.250000 0.750000 0.500000
#
# Coordination Sequence:
#
# PCOD9295307 Si02
#       6
#     8   8   8   8   8   8
#     4  11  21  44  66  99 128 175 222 279 344 403
#     4  11  25  41  69  99 134 176 228 281 338 407
#     4  12  26  40  69  99 137 176 231 278 337 406
#     4   9  21  38  70  96 125 169 224 270 334 404
#     4  11  23  43  65  93 135 183 219 272 341 404
#     4  10  23  42  68  94 132 179 220 276 341 403
#
# _framework density 21.658276000000001
#
# number of rings (size 3 to 8) (size 9 to 14) (size 15 to 20)
#    0.000    1.333    3.333    1.500    7.000    0.000 
#    0.000    0.000    0.000   13.000    0.000    0.000 
#    0.000    0.000    0.000    0.000    0.000    0.000 
#
# Total GULP energy -133915.501085 kJ/mol
# GULP energy per Si atom -5579.812545 kJ/mol
# Density = 2.160898 g / cm^3
# Si number density = 21.658276 Si / 1000 Ang^3
#
#
#
# Elastic Constant Matrix: (Units=GPa)
#
#
# Indices 1 2 3 4 5 6 
#
# 1 105.9866 4.3818 34.7216 0.0000 9.1682 0.0000
# 2 4.3818 38.9875 10.7960 0.0000 -16.6651 0.0000
# 3 34.7216 10.7960 207.7464 0.0000 -6.1797 0.0000
# 4 0.0000 0.0000 0.0000 28.4818 0.0000 -19.9719
# 5 9.1682 -16.6651 -6.1797 0.0000 24.8403 0.0000
# 6 0.0000 0.0000 0.0000 -19.9719 0.0000 27.9327
#
#
#
# Elastic Compliance Matrix: (Units=1/GPa)
#
#
# Indices 1 2 3 4 5 6 
#
# 1 0.010776 -0.003647 -0.001816 0.000000 -0.006876 0.000000
# 2 -0.003647 0.037476 -0.000554 0.000000 0.026351 0.000000
# 3 -0.001816 -0.000554 0.005193 0.000000 0.001590 0.000000
# 4 0.000000 0.000000 0.000000 0.070413 0.000000 0.050345
# 5 -0.006876 0.026351 0.001590 0.000000 0.060869 0.000000
# 6 0.000000 0.000000 0.000000 0.050345 0.000000 0.071797
#
#
# Mechanical properties :
#
#
# Convention : Reuss Voigt Hill
#
# Bulk Modulus (GPa) = 24.14864 50.27991 37.21428
# Shear Modulus (GPa) = 17.70773 36.43902 27.07337
#
# Velocity S-wave (km/s) = 2.86247 4.10622 3.53940
# Velocity P-wave (km/s) = 4.70096 6.76365 5.82434
#
# Compressibility (1/GPa) = 0.04141020
#
# Stress axis : x y z
#
# Youngs Moduli (GPa) = 92.80183 26.68371 192.56027
#
# Poissons Ratio (x) = 0.09732 0.34968
# Poissons Ratio (y) = 0.33847 0.10670
# Poissons Ratio (z) = 0.16853 0.01479
#
# Static dielectric constant tensor:
#      x y z
#    x 1.764130 0.000000 -0.031910 
#    y 0.000000 1.797940 0.000000 
#    z -0.031910 0.000000 1.812340 
# 
# From -- ./inp_files/182442.got.cif
#   From: 2010.05.17/outbox.cif.g08.bks.cpg/sg15_92_cif.got.tgz:182442.got - 2010.06.03 18:47:42.
