data_PCOD9295284
_publ_section_title
;
Structure prediction by ZEFSAII (Michael W. Deem and Ramdas Pophale) SiO2 
 PCOD9295284
Probable space group: C 2/C
;
_chemical_formula_sum "Si O2"
_cell_formula_units_Z 64
_cell_length_a 26.884202
_cell_length_b 11.787670
_cell_length_c 14.432817
_cell_angle_alpha 90.000000
_cell_angle_beta 142.762554
_cell_angle_gamma 90.000000
_cell_volume 2767.689826
_symmetry_space_group_name_H-M "C 2/C"
_symmetry_group_IT_number 15
_symmetry_cell_setting 'monoclinic'
loop_
_space_group_symop_operation_xyz
x,y,z
-x,y,1/2-z
-x,-y,-z
x,-y,1/2+z
1/2+x,1/2+y,z
1/2-x,1/2+y,1/2-z
1/2-x,1/2-y,-z
1/2+x,1/2-y,1/2+z
loop_
_atom_site_type_symbol
_atom_site_label
_atom_site_fract_x
_atom_site_fract_y
_atom_site_fract_z
Si Si1 0.529199 0.877391 0.571837
Si Si2 0.649357 0.027330 0.396561
Si Si3 0.831653 0.052954 0.731133
Si Si4 0.090035 0.283844 0.341501
Si Si5 0.582597 0.530963 0.310294
Si Si6 0.811691 0.085977 0.384498
Si Si7 0.153241 0.717689 0.133146
Si Si8 0.922064 0.697361 0.071230
O O1 0.606650 0.893918 0.756325
O O2 0.562490 0.812859 0.533140
O O3 0.457038 0.818917 0.521038
O O4 0.500000 0.000000 0.500000
O O5 0.746684 0.035599 0.549646
O O6 0.612188 0.079513 0.437198
O O7 0.621409 0.898009 0.340009
O O8 0.825095 0.171956 0.775080
O O9 0.904423 0.043223 0.763259
O O10 0.836943 0.960655 0.821091
O O11 0.087225 0.162660 0.287214
O O12 0.149607 0.263801 0.518451
O O13 0.000000 0.306436 0.250000
O O14 0.500000 0.515369 0.250000
O O15 0.655487 0.499556 0.489387
O O16 0.715444 0.114132 0.242944
O O17 0.855155 0.205113 0.472340
O O18 0.000000 0.730841 0.250000
#
# Coordination Sequence:
#
# PCOD9295284 Si02
#       8
#     8   8   8   8   8   8   8   8
#     4  11  25  41  69 106 134 184 239 292 357 421
#     4  11  22  44  71 102 141 179 236 299 358 420
#     4  12  27  45  73 108 140 194 238 291 374 428
#     4  11  23  46  69  98 146 187 228 297 359 420
#     4  11  28  47  69 103 146 190 240 297 354 429
#     4  12  25  46  73 102 145 186 235 299 355 431
#     4  12  25  45  73 103 146 185 240 301 357 429
#     4  10  23  42  68 101 136 181 235 295 345 420
#
# _framework density 23.123978000000001
#
# number of rings (size 3 to 8) (size 9 to 14) (size 15 to 20)
#    0.000    0.750    3.750    3.750    5.250    5.000 
#    2.250    0.000    0.000    0.000    0.000    0.000 
#    0.000    0.000    0.000    0.000    0.000    0.000 
#
# Total GULP energy -179045.880904 kJ/mol
# GULP energy per Si atom -5595.183778 kJ/mol
# Density = 2.307135 g / cm^3
# Si number density = 23.123978 Si / 1000 Ang^3
#
#
#
# Elastic Constant Matrix: (Units=GPa)
#
#
# Indices 1 2 3 4 5 6 
#
# 1 92.8881 7.1072 5.5946 0.0000 -6.3169 0.0000
# 2 7.1072 70.9369 4.4150 0.0000 5.5812 0.0000
# 3 5.5946 4.4150 57.8804 0.0000 -0.5485 0.0000
# 4 0.0000 0.0000 0.0000 34.1812 0.0000 -4.7546
# 5 -6.3169 5.5812 -0.5485 0.0000 25.1678 0.0000
# 6 0.0000 0.0000 0.0000 -4.7546 0.0000 23.8062
#
#
#
# Elastic Compliance Matrix: (Units=1/GPa)
#
#
# Indices 1 2 3 4 5 6 
#
# 1 0.011130 -0.001297 -0.000948 0.000000 0.003060 0.000000
# 2 -0.001297 0.014572 -0.001020 0.000000 -0.003579 0.000000
# 3 -0.000948 -0.001020 0.017450 0.000000 0.000369 0.000000
# 4 0.000000 0.000000 0.000000 0.030092 0.000000 0.006010
# 5 0.003060 -0.003579 0.000369 0.000000 0.041303 0.000000
# 6 0.000000 0.000000 0.000000 0.006010 0.000000 0.043206
#
#
# Mechanical properties :
#
#
# Convention : Reuss Voigt Hill
#
# Bulk Modulus (GPa) = 27.30579 28.43769 27.87174
# Shear Modulus (GPa) = 28.33013 30.27027 29.30020
#
# Velocity S-wave (km/s) = 3.50400 3.62199 3.56348
# Velocity P-wave (km/s) = 5.31081 5.46044 5.38615
#
# Compressibility (1/GPa) = 0.03662226
#
# Stress axis : x y z
#
# Youngs Moduli (GPa) = 89.84651 68.62435 57.30685
#
# Poissons Ratio (x) = 0.08900 0.05432
# Poissons Ratio (y) = 0.11653 0.05846
# Poissons Ratio (z) = 0.08516 0.07000
#
# Static dielectric constant tensor:
#      x y z
#    x 1.885460 0.000000 -0.039050 
#    y 0.000000 1.833200 0.000000 
#    z -0.039050 0.000000 1.915020 
# 
# From -- ./inp_files/177846.got.cif
#   From: 2010.05.17/outbox.cif.g08.bks.cpg/sg15_89_cif.got.tgz:177846.got - 2010.06.03 18:47:42.
