data_PCOD9295837
_publ_section_title
;
Structure prediction by ZEFSAII (Michael W. Deem and Ramdas Pophale) SiO2 
 PCOD9295837
Probable space group: C 2/C
;
_chemical_formula_sum "Si O2"
_cell_formula_units_Z 40
_cell_length_a 11.139505
_cell_length_b 16.472703
_cell_length_c 9.876856
_cell_angle_alpha 90.000000
_cell_angle_beta 117.858870
_cell_angle_gamma 90.000000
_cell_volume 1602.328347
_symmetry_space_group_name_H-M "C 2/C"
_symmetry_group_IT_number 15
_symmetry_cell_setting 'monoclinic'
loop_
_space_group_symop_operation_xyz
x,y,z
-x,y,1/2-z
-x,-y,-z
x,-y,1/2+z
1/2+x,1/2+y,z
1/2-x,1/2+y,1/2-z
1/2-x,1/2-y,-z
1/2+x,1/2-y,1/2+z
loop_
_atom_site_type_symbol
_atom_site_label
_atom_site_fract_x
_atom_site_fract_y
_atom_site_fract_z
Si Si1 0.340469 0.308698 0.638356
Si Si2 0.777063 0.985811 0.498428
Si Si3 0.610914 0.955019 0.151789
Si Si4 0.148834 0.721208 0.602936
Si Si5 0.899099 0.858503 0.078138
O O1 0.500000 0.291962 0.750000
O O2 0.250000 0.250000 0.500000
O O3 0.329997 0.396677 0.562552
O O4 0.283505 0.286188 0.758646
O O5 0.652122 0.979019 0.326056
O O6 0.740231 0.021823 0.626690
O O7 0.871624 0.057125 0.487779
O O8 0.585000 0.858438 0.137718
O O9 0.500000 0.000000 0.000000
O O10 0.044361 0.780284 0.471765
O O11 0.258799 0.678837 0.562759
O O12 0.000000 0.877710 0.250000
#
# Coordination Sequence:
#
# PCOD9295837 Si02
#       5
#     8   8   8   8   8
#     4  12  27  44  71 100 141 181 232 291 355 417
#     4  11  24  44  66 102 132 181 235 286 347 416
#     4  11  24  41  69  98 143 182 232 284 350 412
#     4  10  24  43  65 103 130 181 234 279 347 416
#     4  10  23  43  70  93 136 176 226 286 345 412
#
# _framework density 24.963673
#
# number of rings (size 3 to 8) (size 9 to 14) (size 15 to 20)
#    0.000    1.200    2.000    2.400    5.600    4.800 
#    0.000    5.000    0.000    0.000    0.000    0.000 
#    0.000    0.000    0.000    0.000    0.000    0.000 
#
# Total GULP energy -111464.733981 kJ/mol
# GULP energy per Si atom -5573.236699 kJ/mol
# Density = 2.490685 g / cm^3
# Si number density = 24.963673 Si / 1000 Ang^3
#
#
#
# Elastic Constant Matrix: (Units=GPa)
#
#
# Indices 1 2 3 4 5 6 
#
# 1 41.4692 30.0055 17.3321 0.0000 -1.5399 0.0000
# 2 30.0055 243.7676 92.8666 0.0000 24.4472 0.0000
# 3 17.3321 92.8666 160.5532 0.0000 13.8911 0.0000
# 4 0.0000 0.0000 0.0000 49.1204 0.0000 -10.5540
# 5 -1.5399 24.4472 13.8911 0.0000 41.6591 0.0000
# 6 0.0000 0.0000 0.0000 -10.5540 0.0000 15.3873
#
#
#
# Elastic Compliance Matrix: (Units=1/GPa)
#
#
# Indices 1 2 3 4 5 6 
#
# 1 0.027088 -0.003133 -0.001398 0.000000 0.003306 0.000000
# 2 -0.003133 0.005815 -0.002801 0.000000 -0.002594 0.000000
# 3 -0.001398 -0.002801 0.008095 0.000000 -0.001107 0.000000
# 4 0.000000 0.000000 0.000000 0.023877 0.000000 0.016377
# 5 0.003306 -0.002594 -0.001107 0.000000 0.026018 0.000000
# 6 0.000000 0.000000 0.000000 0.016377 0.000000 0.076221
#
#
# Mechanical properties :
#
#
# Convention : Reuss Voigt Hill
#
# Bulk Modulus (GPa) = 37.97287 80.68869 59.33078
# Shear Modulus (GPa) = 26.23877 41.60577 33.92227
#
# Velocity S-wave (km/s) = 3.24555 4.08689 3.69028
# Velocity P-wave (km/s) = 5.41194 7.39344 6.47889
#
# Compressibility (1/GPa) = 0.02633459
#
# Stress axis : x y z
#
# Youngs Moduli (GPa) = 36.91608 171.96378 123.52917
#
# Poissons Ratio (x) = 0.53882 0.17269
# Poissons Ratio (y) = 0.11567 0.34599
# Poissons Ratio (z) = 0.05161 0.48165
#
# Static dielectric constant tensor:
#      x y z
#    x 2.335940 0.000000 -0.118180 
#    y 0.000000 2.003740 0.000000 
#    z -0.118180 0.000000 1.992650 
# 
# From -- ./inp_files/96662.got.cif
#   From: 2010.05.17/outbox.cif.g08.bks.cpg/sg15_49_cif.got.tgz:96662.got - 2010.06.03 18:47:42.
