data_PCOD9295812
_publ_section_title
;
Structure prediction by ZEFSAII (Michael W. Deem and Ramdas Pophale) SiO2 
 PCOD9295812
Probable space group: C 2/C
;
_chemical_formula_sum "Si O2"
_cell_formula_units_Z 36
_cell_length_a 11.281723
_cell_length_b 24.751557
_cell_length_c 8.562629
_cell_angle_alpha 90.000000
_cell_angle_beta 41.646439
_cell_angle_gamma 90.000000
_cell_volume 1588.916387
_symmetry_space_group_name_H-M "C 2/C"
_symmetry_group_IT_number 15
_symmetry_cell_setting 'monoclinic'
loop_
_space_group_symop_operation_xyz
x,y,z
-x,y,1/2-z
-x,-y,-z
x,-y,1/2+z
1/2+x,1/2+y,z
1/2-x,1/2+y,1/2-z
1/2-x,1/2-y,-z
1/2+x,1/2-y,1/2+z
loop_
_atom_site_type_symbol
_atom_site_label
_atom_site_fract_x
_atom_site_fract_y
_atom_site_fract_z
Si Si1 0.667025 0.693938 0.387697
Si Si2 0.688055 0.078881 0.617717
Si Si3 0.000000 0.895612 0.250000
Si Si4 0.500000 0.339585 0.750000
Si Si5 0.676043 0.030280 0.972884
Si Si6 0.500000 0.211177 0.250000
O O1 0.543440 0.645320 0.568493
O O2 0.616071 0.695747 0.257099
O O3 0.609210 0.749732 0.525886
O O4 0.861256 0.681315 0.271732
O O5 0.500000 0.104574 0.750000
O O6 0.848088 0.120766 0.469788
O O7 0.656846 0.047496 0.811781
O O8 0.727872 0.032319 0.449928
O O9 0.167306 0.932891 0.116413
O O10 0.500000 0.039622 0.250000
#
# Coordination Sequence:
#
# PCOD9295812 Si02
#       6
#     8   8   4   4   8   4
#     4  10  23  43  70 101 130 173 220 278 341 412
#     4  11  25  41  62  97 139 186 222 276 330 382
#     4  11  23  38  66  98 124 178 226 266 331 397
#     4  12  25  42  69 106 140 166 231 284 329 394
#     4  11  24  40  64  92 137 184 228 269 324 388
#     4   9  22  48  71  94 138 172 217 270 354 425
#
# _framework density 22.656952
#
# number of rings (size 3 to 8) (size 9 to 14) (size 15 to 20)
#    0.000    1.333    2.222    3.333    7.778    2.667 
#    4.000    0.000    0.000    0.000    0.000    0.000 
#    0.000    0.000    0.000    0.000    0.000    0.000 
#
# Total GULP energy -100541.632055 kJ/mol
# GULP energy per Si atom -5585.646225 kJ/mol
# Density = 2.260538 g / cm^3
# Si number density = 22.656952 Si / 1000 Ang^3
#
#
#
# Elastic Constant Matrix: (Units=GPa)
#
#
# Indices 1 2 3 4 5 6 
#
# 1 191.4853 42.3389 56.5380 0.0000 7.8929 0.0000
# 2 42.3389 40.4153 17.3102 0.0000 -9.7490 0.0000
# 3 56.5380 17.3102 49.5342 0.0000 -4.4816 0.0000
# 4 0.0000 0.0000 0.0000 -14.7045 0.0000 -2.4807
# 5 7.8929 -9.7490 -4.4816 0.0000 36.5677 0.0000
# 6 0.0000 0.0000 0.0000 -2.4807 0.0000 14.0459
#
#
#
# Elastic Compliance Matrix: (Units=1/GPa)
#
#
# Indices 1 2 3 4 5 6 
#
# 1 0.009781 -0.007679 -0.008956 0.000000 -0.005256 0.000000
# 2 -0.007679 0.036783 -0.003087 0.000000 0.011086 0.000000
# 3 -0.008956 -0.003087 0.031944 0.000000 0.005025 0.000000
# 4 0.000000 0.000000 0.000000 -0.066039 0.000000 -0.011663
# 5 -0.005256 0.011086 0.005025 0.000000 0.032052 0.000000
# 6 0.000000 0.000000 0.000000 -0.011663 0.000000 0.069135
#
#
# Mechanical properties :
#
#
# Convention : Reuss Voigt Hill
#
# Bulk Modulus (GPa) = 25.59846 57.08990 41.34418
# Shear Modulus (GPa) = 30.09801 18.19831 24.14816
#
# Velocity S-wave (km/s) = 3.64871 2.83717 3.26823
# Velocity P-wave (km/s) = 5.39199 5.99875 5.70344
#
# Compressibility (1/GPa) = 0.03906485
#
# Stress axis : x y z
#
# Youngs Moduli (GPa) = 102.23632 27.18621 31.30436
#
# Poissons Ratio (x) = 0.20875 0.28038
# Poissons Ratio (y) = 0.78503 0.09664
# Poissons Ratio (z) = 0.91568 0.08393
#
# Static dielectric constant tensor:
#      x y z
#    x 1.943480 0.000000 0.035710 
#    y 0.000000 1.816050 0.000000 
#    z 0.035710 0.000000 1.839810 
# 
# From -- ./inp_files/33294.got.cif
#   From: 2010.05.17/outbox.cif.g08.bks.cpg/sg15_17_cif.got.tgz:33294.got - 2010.06.03 18:47:42.
