data_PCOD9295062
_publ_section_title
;
Structure prediction by ZEFSAII (Michael W. Deem and Ramdas Pophale) SiO2 
 PCOD9295062
Probable space group: C 2/C
;
_chemical_formula_sum "Si O2"
_cell_formula_units_Z 36
_cell_length_a 19.473505
_cell_length_b 8.341603
_cell_length_c 10.795380
_cell_angle_alpha 90.000000
_cell_angle_beta 117.627463
_cell_angle_gamma 90.000000
_cell_volume 1553.660724
_symmetry_space_group_name_H-M "C 2/C"
_symmetry_group_IT_number 15
_symmetry_cell_setting 'monoclinic'
loop_
_space_group_symop_operation_xyz
x,y,z
-x,y,1/2-z
-x,-y,-z
x,-y,1/2+z
1/2+x,1/2+y,z
1/2-x,1/2+y,1/2-z
1/2-x,1/2-y,-z
1/2+x,1/2-y,1/2+z
loop_
_atom_site_type_symbol
_atom_site_label
_atom_site_fract_x
_atom_site_fract_y
_atom_site_fract_z
Si Si1 0.913008 0.135378 0.138405
Si Si2 0.119185 0.737518 0.155643
Si Si3 0.217371 0.913071 0.414543
Si Si4 0.857236 0.550777 0.657852
Si Si5 0.000000 0.343252 0.750000
O O1 0.876823 0.266114 0.203197
O O2 0.000000 0.104062 0.250000
O O3 0.860324 0.979225 0.087195
O O4 0.905313 0.227831 0.002680
O O5 0.185718 0.863066 0.253376
O O6 0.149751 0.561870 0.225552
O O7 0.041093 0.753140 0.174436
O O8 0.250000 0.750000 0.500000
O O9 0.283713 0.038409 0.505935
O O10 0.930054 0.461690 0.651751
#
# Coordination Sequence:
#
# PCOD9295062 Si02
#       5
#     8   8   8   8   4
#     4  12  24  40  68 103 133 180 235 278 340 414
#     4   9  22  43  63  97 135 178 219 284 339 399
#     4  10  23  42  63  92 139 180 230 280 339 402
#     4   9  20  42  67  96 135 173 226 276 347 410
#     4   8  18  40  70  92 138 172 216 268 362 384
#
# _framework density 23.171082999999999
#
# number of rings (size 3 to 8) (size 9 to 14) (size 15 to 20)
#    1.333    0.889    1.111    0.667    1.556    8.000 
#    0.000    4.444    0.000    0.000    0.000    0.000 
#    0.000    0.000    0.000    0.000    0.000    0.000 
#
# Total GULP energy -100300.044054 kJ/mol
# GULP energy per Si atom -5572.224670 kJ/mol
# Density = 2.311834 g / cm^3
# Si number density = 23.171083 Si / 1000 Ang^3
#
#
#
# Elastic Constant Matrix: (Units=GPa)
#
#
# Indices 1 2 3 4 5 6 
#
# 1 62.0645 34.0481 53.2853 0.0000 38.0952 0.0000
# 2 34.0481 93.8090 32.1877 0.0000 9.1210 0.0000
# 3 53.2853 32.1877 139.3411 0.0000 28.8111 0.0000
# 4 0.0000 0.0000 0.0000 23.6606 0.0000 15.9634
# 5 38.0952 9.1210 28.8111 0.0000 48.3664 0.0000
# 6 0.0000 0.0000 0.0000 15.9634 0.0000 41.7133
#
#
#
# Elastic Compliance Matrix: (Units=1/GPa)
#
#
# Indices 1 2 3 4 5 6 
#
# 1 0.050804 -0.011880 -0.010119 0.000000 -0.031746 0.000000
# 2 -0.011880 0.014375 -0.000173 0.000000 0.006750 0.000000
# 3 -0.010119 -0.000173 0.010756 0.000000 0.001596 0.000000
# 4 0.000000 0.000000 0.000000 0.056975 0.000000 -0.021804
# 5 -0.031746 0.006750 0.001596 0.000000 0.043457 0.000000
# 6 0.000000 0.000000 0.000000 -0.021804 0.000000 0.032317
#
#
# Mechanical properties :
#
#
# Convention : Reuss Voigt Hill
#
# Bulk Modulus (GPa) = 31.65599 59.36186 45.50892
# Shear Modulus (GPa) = 18.97103 34.46097 26.71600
#
# Velocity S-wave (km/s) = 2.86446 3.86066 3.39925
# Velocity P-wave (km/s) = 4.96303 6.74889 5.92365
#
# Compressibility (1/GPa) = 0.03158960
#
# Stress axis : x y z
#
# Youngs Moduli (GPa) = 19.68368 69.56492 92.96786
#
# Poissons Ratio (x) = 0.82646 0.94077
# Poissons Ratio (y) = 0.23385 0.01609
# Poissons Ratio (z) = 0.19918 0.01204
#
# Static dielectric constant tensor:
#      x y z
#    x 1.926880 0.000000 -0.024190 
#    y 0.000000 1.986820 0.000000 
#    z -0.024190 0.000000 1.838710 
# 
# From -- ./inp_files/116597.got.cif
#   From: 2010.05.17/outbox.cif.g08.bks.cpg/sg15_59_cif.got.tgz:116597.got - 2010.06.03 18:47:42.
