data_PCOD9295107
_publ_section_title
;
Structure prediction by ZEFSAII (Michael W. Deem and Ramdas Pophale) SiO2 
 PCOD9295107
Probable space group: C 2/C
;
_chemical_formula_sum "Si O2"
_cell_formula_units_Z 56
_cell_length_a 12.977841
_cell_length_b 24.571987
_cell_length_c 8.404321
_cell_angle_alpha 90.000000
_cell_angle_beta 74.592074
_cell_angle_gamma 90.000000
_cell_volume 2583.740052
_symmetry_space_group_name_H-M "C 2/C"
_symmetry_group_IT_number 15
_symmetry_cell_setting 'monoclinic'
loop_
_space_group_symop_operation_xyz
x,y,z
-x,y,1/2-z
-x,-y,-z
x,-y,1/2+z
1/2+x,1/2+y,z
1/2-x,1/2+y,1/2-z
1/2-x,1/2-y,-z
1/2+x,1/2-y,1/2+z
loop_
_atom_site_type_symbol
_atom_site_label
_atom_site_fract_x
_atom_site_fract_y
_atom_site_fract_z
Si Si1 0.225775 0.663780 0.470595
Si Si2 0.594401 0.543141 0.423992
Si Si3 0.422275 0.735521 0.895335
Si Si4 0.749893 0.522227 0.633831
Si Si5 0.031170 0.152763 0.072440
Si Si6 0.118993 0.560164 0.629171
Si Si7 0.222622 0.739472 0.768276
O O1 0.343293 0.642190 0.470799
O O2 0.143393 0.614248 0.515936
O O3 0.196909 0.706657 0.620410
O O4 0.243688 0.699395 0.303255
O O5 0.500000 0.500000 0.500000
O O6 0.671326 0.551931 0.543573
O O7 0.671882 0.520531 0.255052
O O8 0.536840 0.598215 0.401665
O O9 0.500000 0.769677 0.750000
O O10 0.322080 0.717577 0.830031
O O11 0.494298 0.687464 0.937308
O O12 0.374303 0.763197 0.069887
O O13 0.802940 0.558597 0.748676
O O14 0.841165 0.490304 0.496549
O O15 0.000000 0.182815 0.250000
O O16 0.000000 0.556523 0.750000
#
# Coordination Sequence:
#
# PCOD9295107 Si02
#       7
#     8   8   8   8   8   8   8
#     4  11  23  42  68  96 132 172 226 278 339 397
#     4  11  22  37  65 100 139 170 208 274 335 408
#     4  11  23  40  64  91 125 173 215 271 331 396
#     4  10  23  42  64  97 139 172 222 271 329 401
#     4  12  22  38  65  97 131 174 214 261 350 406
#     4  11  24  44  68  97 129 184 225 278 328 395
#     4  10  24  43  62  94 132 170 225 277 329 403
#
# _framework density 21.674005999999999
#
# number of rings (size 3 to 8) (size 9 to 14) (size 15 to 20)
#    0.000    1.143    2.857    4.286    2.000    2.286 
#    0.000    0.000    0.000    1.714    0.000    0.000 
#    0.000    0.000    0.000    0.000    0.000    0.000 
#
# Total GULP energy -156412.279273 kJ/mol
# GULP energy per Si atom -5586.152831 kJ/mol
# Density = 2.162468 g / cm^3
# Si number density = 21.674006 Si / 1000 Ang^3
#
#
#
# Elastic Constant Matrix: (Units=GPa)
#
#
# Indices 1 2 3 4 5 6 
#
# 1 82.0289 19.8494 38.7123 0.0000 -16.5895 0.0000
# 2 19.8494 41.0106 19.0159 0.0000 -4.2788 0.0000
# 3 38.7123 19.0159 134.9975 0.0000 -24.1498 0.0000
# 4 0.0000 0.0000 0.0000 18.7909 0.0000 2.0780
# 5 -16.5895 -4.2788 -24.1498 0.0000 56.8159 0.0000
# 6 0.0000 0.0000 0.0000 2.0780 0.0000 14.5215
#
#
#
# Elastic Compliance Matrix: (Units=1/GPa)
#
#
# Indices 1 2 3 4 5 6 
#
# 1 0.015659 -0.005817 -0.003173 0.000000 0.002786 0.000000
# 2 -0.005817 0.028259 -0.002420 0.000000 -0.000599 0.000000
# 3 -0.003173 -0.002420 0.009156 0.000000 0.002783 0.000000
# 4 0.000000 0.000000 0.000000 0.054073 0.000000 -0.007738
# 5 0.002786 -0.000599 0.002783 0.000000 0.019552 0.000000
# 6 0.000000 0.000000 0.000000 -0.007738 0.000000 0.069971
#
#
# Mechanical properties :
#
#
# Convention : Reuss Voigt Hill
#
# Bulk Modulus (GPa) = 33.05236 45.91024 39.48130
# Shear Modulus (GPa) = 21.77946 30.05629 25.91788
#
# Velocity S-wave (km/s) = 3.17340 3.72794 3.46179
# Velocity P-wave (km/s) = 5.35819 6.30541 5.85100
#
# Compressibility (1/GPa) = 0.03025503
#
# Stress axis : x y z
#
# Youngs Moduli (GPa) = 63.86029 35.38698 109.21718
#
# Poissons Ratio (x) = 0.20586 0.34651
# Poissons Ratio (y) = 0.37150 0.26425
# Poissons Ratio (z) = 0.20261 0.08562
#
# Static dielectric constant tensor:
#      x y z
#    x 1.792710 0.000000 -0.001580 
#    y 0.000000 1.787930 0.000000 
#    z -0.001580 0.000000 1.851770 
# 
# From -- ./inp_files/34222.got.cif
#   From: 2010.05.17/outbox.cif.g08.bks.cpg/sg15_18_cif.got.tgz:34222.got - 2010.06.03 18:47:42.
