data_PCOD9295083
_publ_section_title
;
Structure prediction by ZEFSAII (Michael W. Deem and Ramdas Pophale) SiO2 
 PCOD9295083
Probable space group: C 2/C
;
_chemical_formula_sum "Si O2"
_cell_formula_units_Z 36
_cell_length_a 13.701390
_cell_length_b 18.547824
_cell_length_c 12.167476
_cell_angle_alpha 90.000000
_cell_angle_beta 150.459707
_cell_angle_gamma 90.000000
_cell_volume 1524.531121
_symmetry_space_group_name_H-M "C 2/C"
_symmetry_group_IT_number 15
_symmetry_cell_setting 'monoclinic'
loop_
_space_group_symop_operation_xyz
x,y,z
-x,y,1/2-z
-x,-y,-z
x,-y,1/2+z
1/2+x,1/2+y,z
1/2-x,1/2+y,1/2-z
1/2-x,1/2-y,-z
1/2+x,1/2-y,1/2+z
loop_
_atom_site_type_symbol
_atom_site_label
_atom_site_fract_x
_atom_site_fract_y
_atom_site_fract_z
Si Si1 0.233553 0.950074 0.690708
Si Si2 0.205749 0.152359 0.359867
Si Si3 0.831711 0.402513 0.415932
Si Si4 0.667682 0.821877 0.290246
Si Si5 0.000000 0.069108 0.750000
O O1 0.143623 0.897446 0.696893
O O2 0.096761 0.967643 0.452072
O O3 0.283948 0.023292 0.803755
O O4 0.432554 0.911706 0.838375
O O5 0.189016 0.142971 0.476746
O O6 0.446922 0.147014 0.586697
O O7 0.155329 0.236246 0.293330
O O8 0.777601 0.339113 0.279588
O O9 0.690967 0.393560 0.382377
#
# Coordination Sequence:
#
# PCOD9295083 Si02
#       5
#     8   8   8   8   4
#     4  10  23  42  64  89 127 165 204 255 309 370
#     4   9  19  37  63  91 118 155 200 258 315 361
#     4  10  23  42  64  89 127 165 204 255 309 370
#     4   9  19  37  63  91 118 155 200 258 315 361
#     4  12  24  40  60  98 120 170 206 254 296 384
#
# _framework density 23.613818999999999
#
# number of rings (size 3 to 8) (size 9 to 14) (size 15 to 20)
#    0.000    2.222    0.000    1.333    6.222    0.000 
#    0.000    1.111    0.000    0.000    0.000    0.000 
#    0.000    0.000    0.000    0.000    0.000    0.000 
#
# Total GULP energy -100389.273010 kJ/mol
# GULP energy per Si atom -5577.181834 kJ/mol
# Density = 2.356007 g / cm^3
# Si number density = 23.613819 Si / 1000 Ang^3
#
#
#
# Elastic Constant Matrix: (Units=GPa)
#
#
# Indices 1 2 3 4 5 6 
#
# 1 161.2237 25.1828 25.0819 0.0000 -9.3907 0.0000
# 2 25.1828 55.7883 16.0380 0.0000 -22.2287 0.0000
# 3 25.0819 16.0380 125.4575 0.0000 -22.6655 0.0000
# 4 0.0000 0.0000 0.0000 4.5093 0.0000 18.4676
# 5 -9.3907 -22.2287 -22.6655 0.0000 42.3967 0.0000
# 6 0.0000 0.0000 0.0000 18.4676 0.0000 16.7983
#
#
#
# Elastic Compliance Matrix: (Units=1/GPa)
#
#
# Indices 1 2 3 4 5 6 
#
# 1 0.006806 -0.003021 -0.001094 0.000000 -0.000661 0.000000
# 2 -0.003021 0.024078 -0.000348 0.000000 0.011769 0.000000
# 3 -0.001094 -0.000348 0.009029 0.000000 0.004402 0.000000
# 4 0.000000 0.000000 0.000000 -0.063317 0.000000 0.069609
# 5 -0.000661 0.011769 0.004402 0.000000 0.031964 0.000000
# 6 0.000000 0.000000 0.000000 0.069609 0.000000 -0.016997
#
#
# Mechanical properties :
#
#
# Convention : Reuss Voigt Hill
#
# Bulk Modulus (GPa) = 32.27119 52.78610 42.52864
# Shear Modulus (GPa) = 462.14740 31.15198 246.64969
#
# Velocity S-wave (km/s) = 14.00484 3.63606 10.23124
# Velocity P-wave (km/s) = 16.58945 6.32695 12.55468
#
# Compressibility (1/GPa) = 0.03098739
#
# Stress axis : x y z
#
# Youngs Moduli (GPa) = 146.92582 41.53162 110.74976
#
# Poissons Ratio (x) = 0.12548 0.12116
# Poissons Ratio (y) = 0.44391 0.03852
# Poissons Ratio (z) = 0.16073 0.01444
#
# Static dielectric constant tensor:
#      x y z
#    x 2.008000 0.000000 0.081340 
#    y 0.000000 1.856780 0.000000 
#    z 0.081340 0.000000 2.000800 
# 
# From -- ./inp_files/39465.got.cif
#   From: 2010.05.17/outbox.cif.g08.bks.cpg/sg15_20_cif.got.tgz:39465.got - 2010.06.03 18:47:42.
