data_PCOD9295397
_publ_section_title
;
Structure prediction by ZEFSAII (Michael W. Deem and Ramdas Pophale) SiO2 
 PCOD9295397
Probable space group: C 2/C
;
_chemical_formula_sum "Si O2"
_cell_formula_units_Z 36
_cell_length_a 12.419931
_cell_length_b 23.625220
_cell_length_c 8.413258
_cell_angle_alpha 90.000000
_cell_angle_beta 37.819723
_cell_angle_gamma 90.000000
_cell_volume 1513.723433
_symmetry_space_group_name_H-M "C 2/C"
_symmetry_group_IT_number 15
_symmetry_cell_setting 'monoclinic'
loop_
_space_group_symop_operation_xyz
x,y,z
-x,y,1/2-z
-x,-y,-z
x,-y,1/2+z
1/2+x,1/2+y,z
1/2-x,1/2+y,1/2-z
1/2-x,1/2-y,-z
1/2+x,1/2-y,1/2+z
loop_
_atom_site_type_symbol
_atom_site_label
_atom_site_fract_x
_atom_site_fract_y
_atom_site_fract_z
Si Si1 0.500000 0.089965 0.750000
Si Si2 0.892571 0.672560 0.135510
Si Si3 0.635056 0.015718 0.979937
Si Si4 0.034024 0.789178 0.896941
Si Si5 0.661406 0.618342 0.680333
O O1 0.494321 0.127890 0.599347
O O2 0.662275 0.045785 0.530739
O O3 0.728190 0.688943 0.212361
O O4 0.806341 0.647308 0.395142
O O5 0.000327 0.730242 0.027614
O O6 0.790477 0.059348 0.788989
O O7 0.500000 0.048561 0.250000
O O8 0.500000 0.000000 0.000000
O O9 0.000000 0.780819 0.750000
O O10 0.901258 0.835521 0.120759
O O11 0.500000 0.605828 0.750000
#
# Coordination Sequence:
#
# PCOD9295397 Si02
#       5
#     4   8   8   8   8
#     4  10  24  40  68  96 136 176 238 274 352 392
#     4  11  23  43  66  99 140 181 232 286 347 422
#     4  10  23  42  70  97 133 177 236 282 341 411
#     4  11  24  40  68 101 138 180 231 288 354 411
#     4  10  24  45  68 101 142 183 230 291 355 415
#
# _framework density 23.782416000000001
#
# number of rings (size 3 to 8) (size 9 to 14) (size 15 to 20)
#    0.667    0.889    1.111    2.667    3.111    1.778 
#    0.000   11.111    0.000    0.000    0.000    0.000 
#    0.000    0.000    0.000    0.000    0.000    0.000 
#
# Total GULP energy -100444.249705 kJ/mol
# GULP energy per Si atom -5580.236095 kJ/mol
# Density = 2.372829 g / cm^3
# Si number density = 23.782416 Si / 1000 Ang^3
#
#
#
# Elastic Constant Matrix: (Units=GPa)
#
#
# Indices 1 2 3 4 5 6 
#
# 1 88.0923 39.6749 33.8942 0.0000 -0.6723 0.0000
# 2 39.6749 195.2943 53.3582 0.0000 -9.8320 0.0000
# 3 33.8942 53.3582 82.4544 0.0000 15.7218 0.0000
# 4 0.0000 0.0000 0.0000 43.8804 0.0000 -6.6034
# 5 -0.6723 -9.8320 15.7218 0.0000 23.6884 0.0000
# 6 0.0000 0.0000 0.0000 -6.6034 0.0000 32.3035
#
#
#
# Elastic Compliance Matrix: (Units=1/GPa)
#
#
# Indices 1 2 3 4 5 6 
#
# 1 0.014111 -0.001082 -0.005829 0.000000 0.003820 0.000000
# 2 -0.001082 0.007154 -0.005433 0.000000 0.006544 0.000000
# 3 -0.005829 -0.005433 0.021181 0.000000 -0.016478 0.000000
# 4 0.000000 0.000000 0.000000 0.023513 0.000000 0.004806
# 5 0.003820 0.006544 -0.016478 0.000000 0.055976 0.000000
# 6 0.000000 0.000000 0.000000 0.004806 0.000000 0.031939
#
#
# Mechanical properties :
#
#
# Convention : Reuss Voigt Hill
#
# Bulk Modulus (GPa) = 56.30684 68.85507 62.58095
# Shear Modulus (GPa) = 27.10320 35.90203 31.50261
#
# Velocity S-wave (km/s) = 3.37951 3.88958 3.64348
# Velocity P-wave (km/s) = 6.24142 7.01332 6.63860
#
# Compressibility (1/GPa) = 0.01775983
#
# Stress axis : x y z
#
# Youngs Moduli (GPa) = 70.86790 139.78135 47.21103
#
# Poissons Ratio (x) = 0.15122 0.27518
# Poissons Ratio (y) = 0.07667 0.25648
# Poissons Ratio (z) = 0.41307 0.75938
#
# Static dielectric constant tensor:
#      x y z
#    x 1.993490 0.000000 0.044240 
#    y 0.000000 1.909580 0.000000 
#    z 0.044240 0.000000 1.952660 
# 
# From -- ./inp_files/41169.got.cif
#   From: 2010.05.17/outbox.cif.g08.bks.cpg/sg15_21_cif.got.tgz:41169.got - 2010.06.03 18:47:42.
