data_PCOD9295809
_publ_section_title
;
Structure prediction by ZEFSAII (Michael W. Deem and Ramdas Pophale) SiO2 
 PCOD9295809
Probable space group: C 2/C
;
_chemical_formula_sum "Si O2"
_cell_formula_units_Z 48
_cell_length_a 8.999286
_cell_length_b 11.046264
_cell_length_c 20.850818
_cell_angle_alpha 90.000000
_cell_angle_beta 68.159389
_cell_angle_gamma 90.000000
_cell_volume 1923.971349
_symmetry_space_group_name_H-M "C 2/C"
_symmetry_group_IT_number 15
_symmetry_cell_setting 'monoclinic'
loop_
_space_group_symop_operation_xyz
x,y,z
-x,y,1/2-z
-x,-y,-z
x,-y,1/2+z
1/2+x,1/2+y,z
1/2-x,1/2+y,1/2-z
1/2-x,1/2-y,-z
1/2+x,1/2-y,1/2+z
loop_
_atom_site_type_symbol
_atom_site_label
_atom_site_fract_x
_atom_site_fract_y
_atom_site_fract_z
Si Si1 0.828251 0.000141 0.753446
Si Si2 0.313846 0.004730 0.955816
Si Si3 0.486001 0.803482 0.502664
Si Si4 0.061847 0.073489 0.904904
Si Si5 0.212763 0.815719 0.128682
Si Si6 0.007980 0.579833 0.320099
O O1 0.847337 0.037124 0.675652
O O2 0.784622 0.116841 0.803814
O O3 0.000000 0.958134 0.750000
O O4 0.696885 0.901911 0.795748
O O5 0.438455 0.021469 0.877540
O O6 0.340285 0.116554 0.998905
O O7 0.145013 0.990022 0.946994
O O8 0.397829 0.889161 0.974009
O O9 0.078836 0.799474 0.440139
O O10 0.614461 0.774514 0.425657
O O11 0.879397 0.091093 0.906538
O O12 0.096071 0.700782 0.156171
O O13 0.000000 0.531974 0.250000
#
# Coordination Sequence:
#
# PCOD9295809 Si02
#       6
#     8   8   8   8   8   8
#     4  10  23  43  70 100 135 179 233 286 340 417
#     4  11  24  41  70 101 140 184 228 287 342 417
#     4  11  24  45  65 103 144 182 230 288 348 410
#     4  11  22  41  69 102 137 182 231 280 346 416
#     4  11  24  43  71 100 138 181 230 286 346 412
#     4  12  22  44  73  98 135 182 230 286 351 401
#
# _framework density 24.948395999999999
#
# number of rings (size 3 to 8) (size 9 to 14) (size 15 to 20)
#    0.000    1.000    5.000    2.500    0.000    0.667 
#    0.000    1.667    0.000    0.000    0.000    0.000 
#    0.000    0.000    0.000    0.000    0.000    0.000 
#
# Total GULP energy -133837.877833 kJ/mol
# GULP energy per Si atom -5576.578243 kJ/mol
# Density = 2.489161 g / cm^3
# Si number density = 24.948396 Si / 1000 Ang^3
#
#
#
# Elastic Constant Matrix: (Units=GPa)
#
#
# Indices 1 2 3 4 5 6 
#
# 1 95.3221 7.3547 27.3331 0.0000 -9.5030 0.0000
# 2 7.3547 66.9231 7.1088 0.0000 9.1184 0.0000
# 3 27.3331 7.1088 81.9873 0.0000 21.6821 0.0000
# 4 0.0000 0.0000 0.0000 -5.5620 0.0000 -43.8393
# 5 -9.5030 9.1184 21.6821 0.0000 31.4844 0.0000
# 6 0.0000 0.0000 0.0000 -43.8393 0.0000 -15.4641
#
#
#
# Elastic Compliance Matrix: (Units=1/GPa)
#
#
# Indices 1 2 3 4 5 6 
#
# 1 0.013536 -0.002040 -0.006813 0.000000 0.009369 0.000000
# 2 -0.002040 0.015866 0.000835 0.000000 -0.005786 0.000000
# 3 -0.006813 0.000835 0.018345 0.000000 -0.014932 0.000000
# 4 0.000000 0.000000 0.000000 0.008423 0.000000 -0.023879
# 5 0.009369 -0.005786 -0.014932 0.000000 0.046548 0.000000
# 6 0.000000 0.000000 0.000000 -0.023879 0.000000 0.003030
#
#
# Mechanical properties :
#
#
# Convention : Reuss Voigt Hill
#
# Bulk Modulus (GPa) = 31.53671 36.42509 33.98090
# Shear Modulus (GPa) = 37.77697 15.58737 26.68217
#
# Velocity S-wave (km/s) = 3.89550 2.50228 3.27386
# Velocity P-wave (km/s) = 5.73598 4.79379 5.28592
#
# Compressibility (1/GPa) = 0.03170908
#
# Stress axis : x y z
#
# Youngs Moduli (GPa) = 73.87803 63.02615 54.51125
#
# Poissons Ratio (x) = 0.12859 0.37140
# Poissons Ratio (y) = 0.15073 -0.04549
# Poissons Ratio (z) = 0.50335 -0.05260
#
# Static dielectric constant tensor:
#      x y z
#    x 2.170240 0.000000 -0.013560 
#    y 0.000000 1.975330 0.000000 
#    z -0.013560 0.000000 2.055790 
# 
# From -- ./inp_files/263721.got.cif
#   From: 2010.05.17/outbox.cif.g08.bks.cpg/sg15_132_cif.got.tgz:263721.got - 2010.06.03 18:47:42.
