data_PCOD9295174
_publ_section_title
;
Structure prediction by ZEFSAII (Michael W. Deem and Ramdas Pophale) SiO2 
 PCOD9295174
Probable space group: C 2/C
;
_chemical_formula_sum "Si O2"
_cell_formula_units_Z 48
_cell_length_a 7.058649
_cell_length_b 23.059284
_cell_length_c 13.242306
_cell_angle_alpha 90.000000
_cell_angle_beta 105.819437
_cell_angle_gamma 90.000000
_cell_volume 2073.780473
_symmetry_space_group_name_H-M "C 2/C"
_symmetry_group_IT_number 15
_symmetry_cell_setting 'monoclinic'
loop_
_space_group_symop_operation_xyz
x,y,z
-x,y,1/2-z
-x,-y,-z
x,-y,1/2+z
1/2+x,1/2+y,z
1/2-x,1/2+y,1/2-z
1/2-x,1/2-y,-z
1/2+x,1/2-y,1/2+z
loop_
_atom_site_type_symbol
_atom_site_label
_atom_site_fract_x
_atom_site_fract_y
_atom_site_fract_z
Si Si1 0.158146 0.312352 0.493834
Si Si2 0.092556 0.666239 0.361480
Si Si3 0.742725 0.932055 0.029859
Si Si4 0.361646 0.375459 0.357867
Si Si5 0.327562 0.774663 0.300733
Si Si6 0.587991 0.024074 0.860065
O O1 0.250000 0.250000 0.500000
O O2 0.314023 0.355219 0.466171
O O3 0.097206 0.318533 0.599382
O O4 0.955490 0.311598 0.399739
O O5 0.203450 0.621385 0.448251
O O6 0.213928 0.723307 0.343033
O O7 0.000000 0.638367 0.250000
O O8 0.738358 0.986825 0.951641
O O9 0.932183 0.908684 0.117871
O O10 0.571844 0.949745 0.084472
O O11 0.312352 0.318941 0.282468
O O12 0.199021 0.424068 0.319854
O O13 0.500000 0.752520 0.250000
O O14 0.500000 0.990535 0.750000
#
# Coordination Sequence:
#
# PCOD9295174 Si02
#       6
#     8   8   8   8   8   8
#     4  11  22  42  64  99 147 193 241 308 364 438
#     4  12  24  42  65 100 144 197 245 298 371 439
#     4  11  26  46  78 104 147 196 242 313 377 443
#     4  11  23  46  73 107 145 191 246 305 377 443
#     4  10  23  42  66 104 147 195 248 305 365 449
#     4  11  24  50  75 109 145 185 252 311 376 445
#
# _framework density 23.146135999999998
#
# number of rings (size 3 to 8) (size 9 to 14) (size 15 to 20)
#    0.000    1.000    1.667    6.000    0.000    2.000 
#    6.000    0.000    3.667    0.000    0.000    0.000 
#    0.000    0.000    0.000    0.000    0.000    0.000 
#
# Total GULP energy -134008.831534 kJ/mol
# GULP energy per Si atom -5583.701314 kJ/mol
# Density = 2.309345 g / cm^3
# Si number density = 23.146136 Si / 1000 Ang^3
#
#
#
# Elastic Constant Matrix: (Units=GPa)
#
#
# Indices 1 2 3 4 5 6 
#
# 1 121.6407 52.9907 42.4342 0.0000 -0.1391 0.0000
# 2 52.9907 121.6372 34.7508 0.0000 -7.1834 0.0000
# 3 42.4342 34.7508 132.7171 0.0000 -9.2972 0.0000
# 4 0.0000 0.0000 0.0000 44.4659 0.0000 5.4925
# 5 -0.1391 -7.1834 -9.2972 0.0000 42.3242 0.0000
# 6 0.0000 0.0000 0.0000 5.4925 0.0000 37.4910
#
#
#
# Elastic Compliance Matrix: (Units=1/GPa)
#
#
# Indices 1 2 3 4 5 6 
#
# 1 0.010872 -0.004097 -0.002488 0.000000 -0.001206 0.000000
# 2 -0.004097 0.010473 -0.001329 0.000000 0.001472 0.000000
# 3 -0.002488 -0.001329 0.008797 0.000000 0.001699 0.000000
# 4 0.000000 0.000000 0.000000 0.022904 0.000000 -0.003355
# 5 -0.001206 0.001472 0.001699 0.000000 0.024246 0.000000
# 6 0.000000 0.000000 0.000000 -0.003355 0.000000 0.027165
#
#
# Mechanical properties :
#
#
# Convention : Reuss Voigt Hill
#
# Bulk Modulus (GPa) = 69.86071 70.70515 70.28293
# Shear Modulus (GPa) = 39.98212 41.24419 40.61315
#
# Velocity S-wave (km/s) = 4.16068 4.22584 4.19339
# Velocity P-wave (km/s) = 7.30272 7.37725 7.34008
#
# Compressibility (1/GPa) = 0.01431420
#
# Stress axis : x y z
#
# Youngs Moduli (GPa) = 91.97766 95.48731 113.67079
#
# Poissons Ratio (x) = 0.39120 0.28281
# Poissons Ratio (y) = 0.37682 0.15108
# Poissons Ratio (z) = 0.22884 0.12692
#
# Static dielectric constant tensor:
#      x y z
#    x 1.857670 0.000000 0.166660 
#    y 0.000000 1.893190 0.000000 
#    z 0.166660 0.000000 1.827300 
# 
# From -- ./inp_files/79294.got.cif
#   From: 2010.05.17/outbox.cif.g08.bks.cpg/sg15_40_cif.got.tgz:79294.got - 2010.06.03 18:47:42.
