data_PCOD9295334
_publ_section_title
;
Structure prediction by ZEFSAII (Michael W. Deem and Ramdas Pophale) SiO2 
 PCOD9295334
Probable space group: C 2/C
;
_chemical_formula_sum "Si O2"
_cell_formula_units_Z 60
_cell_length_a 18.040647
_cell_length_b 28.361805
_cell_length_c 8.803149
_cell_angle_alpha 90.000000
_cell_angle_beta 37.449223
_cell_angle_gamma 90.000000
_cell_volume 2738.855414
_symmetry_space_group_name_H-M "C 2/C"
_symmetry_group_IT_number 15
_symmetry_cell_setting 'monoclinic'
loop_
_space_group_symop_operation_xyz
x,y,z
-x,y,1/2-z
-x,-y,-z
x,-y,1/2+z
1/2+x,1/2+y,z
1/2-x,1/2+y,1/2-z
1/2-x,1/2-y,-z
1/2+x,1/2-y,1/2+z
loop_
_atom_site_type_symbol
_atom_site_label
_atom_site_fract_x
_atom_site_fract_y
_atom_site_fract_z
Si Si1 0.869586 0.823513 0.682515
Si Si2 0.500000 0.729114 0.250000
Si Si3 0.018477 0.924312 0.047577
Si Si4 0.123367 0.345882 0.485566
Si Si5 0.257762 0.252162 0.305515
Si Si6 0.254214 0.034560 0.999128
Si Si7 0.385325 0.125981 0.837691
Si Si8 0.254013 0.561637 0.842816
O O1 0.942771 0.869405 0.509129
O O2 0.841346 0.783016 0.606188
O O3 0.935261 0.801600 0.723041
O O4 0.736104 0.844004 0.936589
O O5 0.391402 0.756691 0.514642
O O6 0.000000 0.942017 0.250000
O O7 0.892760 0.927800 0.162229
O O8 0.123799 0.953039 0.788598
O O9 0.223716 0.305475 0.315087
O O10 0.086945 0.365474 0.382047
O O11 0.175622 0.390939 0.489953
O O12 0.000000 0.324245 0.750000
O O13 0.250000 0.250000 0.500000
O O14 0.287920 0.981322 0.983468
O O15 0.347760 0.071620 0.920317
O O16 0.249544 0.045460 0.827427
O O17 0.500000 0.139027 0.750000
#
# Coordination Sequence:
#
# PCOD9295334 Si02
#       8
#     8   4   8   8   8   8   8   8
#     4  11  27  44  72 107 140 199 238 298 373 428
#     4  12  26  50  76 100 152 190 254 310 362 442
#     4  11  24  39  68 103 144 183 237 300 361 437
#     4  11  27  45  68 100 141 186 238 298 367 427
#     4  12  30  47  74 110 145 193 250 307 367 442
#     4  10  23  42  69 101 137 186 242 292 371 434
#     4  10  24  45  69 101 140 186 239 292 364 442
#     4  11  23  45  68  99 140 186 239 299 367 432
#
# _framework density 21.906962
#
# number of rings (size 3 to 8) (size 9 to 14) (size 15 to 20)
#    0.000    1.067    1.333    2.800   12.133    2.667 
#    0.000    2.667    0.000    0.000    0.000    0.000 
#    0.000    0.000    0.000    0.000    0.000    0.000 
#
# Total GULP energy -167834.817518 kJ/mol
# GULP energy per Si atom -5594.493917 kJ/mol
# Density = 2.185710 g / cm^3
# Si number density = 21.906962 Si / 1000 Ang^3
#
#
#
# Elastic Constant Matrix: (Units=GPa)
#
#
# Indices 1 2 3 4 5 6 
#
# 1 119.8829 32.3965 14.2509 0.0000 -13.3477 0.0000
# 2 32.3965 106.8939 1.8060 0.0000 -12.7318 0.0000
# 3 14.2509 1.8060 66.8460 0.0000 -1.8928 0.0000
# 4 0.0000 0.0000 0.0000 7.3733 0.0000 -0.9863
# 5 -13.3477 -12.7318 -1.8928 0.0000 19.1006 0.0000
# 6 0.0000 0.0000 0.0000 -0.9863 0.0000 24.6437
#
#
#
# Elastic Compliance Matrix: (Units=1/GPa)
#
#
# Indices 1 2 3 4 5 6 
#
# 1 0.009757 -0.002320 -0.001873 0.000000 0.005087 0.000000
# 2 -0.002320 0.010714 0.000362 0.000000 0.005556 0.000000
# 3 -0.001873 0.000362 0.015362 0.000000 0.000455 0.000000
# 4 0.000000 0.000000 0.000000 0.136355 0.000000 0.005458
# 5 0.005087 0.005556 0.000455 0.000000 0.059658 0.000000
# 6 0.000000 0.000000 0.000000 0.005458 0.000000 0.040797
#
#
# Mechanical properties :
#
#
# Convention : Reuss Voigt Hill
#
# Bulk Modulus (GPa) = 35.49633 43.39219 39.44426
# Shear Modulus (GPa) = 17.25953 26.56815 21.91384
#
# Velocity S-wave (km/s) = 2.80992 3.48627 3.16621
# Velocity P-wave (km/s) = 5.17358 6.00466 5.60454
#
# Compressibility (1/GPa) = 0.02817192
#
# Stress axis : x y z
#
# Youngs Moduli (GPa) = 102.48644 93.33782 65.09468
#
# Poissons Ratio (x) = 0.21651 0.12195
# Poissons Ratio (y) = 0.23773 -0.02359
# Poissons Ratio (z) = 0.19201 -0.03383
#
# Static dielectric constant tensor:
#      x y z
#    x 1.785800 0.000000 -0.016130 
#    y 0.000000 1.808620 0.000000 
#    z -0.016130 0.000000 1.825120 
# 
# From -- ./inp_files/52812.got.cif
#   From: 2010.05.17/outbox.cif.g08.bks.cpg/sg15_27_cif.got.tgz:52812.got - 2010.06.03 18:47:42.
