data_PCOD9295571
_publ_section_title
;
Structure prediction by ZEFSAII (Michael W. Deem and Ramdas Pophale) SiO2 
 PCOD9295571
Probable space group: C 2/C
;
_chemical_formula_sum "Si O2"
_cell_formula_units_Z 48
_cell_length_a 8.720455
_cell_length_b 10.427298
_cell_length_c 26.231745
_cell_angle_alpha 90.000000
_cell_angle_beta 62.483092
_cell_angle_gamma 90.000000
_cell_volume 2115.437976
_symmetry_space_group_name_H-M "C 2/C"
_symmetry_group_IT_number 15
_symmetry_cell_setting 'monoclinic'
loop_
_space_group_symop_operation_xyz
x,y,z
-x,y,1/2-z
-x,-y,-z
x,-y,1/2+z
1/2+x,1/2+y,z
1/2-x,1/2+y,1/2-z
1/2-x,1/2-y,-z
1/2+x,1/2-y,1/2+z
loop_
_atom_site_type_symbol
_atom_site_label
_atom_site_fract_x
_atom_site_fract_y
_atom_site_fract_z
Si Si1 0.295837 0.649523 0.290861
Si Si2 0.249408 0.281450 0.912717
Si Si3 0.797883 0.132314 0.768570
Si Si4 0.626361 0.746815 0.394052
Si Si5 0.372672 0.862731 0.003424
Si Si6 0.807497 0.997962 0.553478
O O1 0.500000 0.657822 0.250000
O O2 0.266606 0.651657 0.355619
O O3 0.218614 0.777437 0.277887
O O4 0.231887 0.514844 0.276471
O O5 0.425896 0.293977 0.917582
O O6 0.227626 0.128248 0.911584
O O7 0.071647 0.328539 0.964436
O O8 0.699370 0.205625 0.829335
O O9 0.000000 0.122994 0.750000
O O10 0.656270 0.857816 0.431684
O O11 0.714414 0.621105 0.404824
O O12 0.182976 0.520532 0.023866
O O13 0.250000 0.750000 0.000000
O O14 0.000000 0.000000 0.500000
#
# Coordination Sequence:
#
# PCOD9295571 Si02
#       6
#     8   8   8   8   8   8
#     4  11  27  50  70 104 142 181 248 298 354 432
#     4  12  25  44  73 102 142 188 238 300 356 422
#     4  11  28  48  73 103 139 192 235 300 364 418
#     4  11  25  46  69 106 141 187 243 288 361 429
#     4  10  23  43  65 106 143 182 237 285 355 427
#     4  11  25  44  69 106 146 190 234 292 358 427
#
# _framework density 22.690337
#
# number of rings (size 3 to 8) (size 9 to 14) (size 15 to 20)
#    0.000    1.000    5.000    0.500    9.333    2.667 
#    0.000    0.000    0.000    0.000    0.000    0.000 
#    0.000    0.000    0.000    0.000    0.000    0.000 
#
# Total GULP energy -134257.528997 kJ/mol
# GULP energy per Si atom -5594.063708 kJ/mol
# Density = 2.263869 g / cm^3
# Si number density = 22.690337 Si / 1000 Ang^3
#
#
#
# Elastic Constant Matrix: (Units=GPa)
#
#
# Indices 1 2 3 4 5 6 
#
# 1 90.6147 24.3749 9.6941 0.0000 6.5507 0.0000
# 2 24.3749 123.2501 -6.2295 0.0000 12.2886 0.0000
# 3 9.6941 -6.2295 58.2170 0.0000 4.9447 0.0000
# 4 0.0000 0.0000 0.0000 25.7782 0.0000 17.4080
# 5 6.5507 12.2886 4.9447 0.0000 34.0263 0.0000
# 6 0.0000 0.0000 0.0000 17.4080 0.0000 20.9111
#
#
#
# Elastic Compliance Matrix: (Units=1/GPa)
#
#
# Indices 1 2 3 4 5 6 
#
# 1 0.011985 -0.002365 -0.002152 0.000000 -0.001140 0.000000
# 2 -0.002365 0.008963 0.001609 0.000000 -0.003016 0.000000
# 3 -0.002152 0.001609 0.017943 0.000000 -0.002774 0.000000
# 4 0.000000 0.000000 0.000000 0.088602 0.000000 -0.073760
# 5 -0.001140 -0.003016 -0.002774 0.000000 0.031101 0.000000
# 6 0.000000 0.000000 0.000000 -0.073760 0.000000 0.109225
#
#
# Mechanical properties :
#
#
# Convention : Reuss Voigt Hill
#
# Bulk Modulus (GPa) = 30.23410 36.41787 33.32598
# Shear Modulus (GPa) = 17.56478 32.42593 24.99535
#
# Velocity S-wave (km/s) = 2.78530 3.78440 3.32262
# Velocity P-wave (km/s) = 4.86800 5.93130 5.42576
#
# Compressibility (1/GPa) = 0.03307523
#
# Stress axis : x y z
#
# Youngs Moduli (GPa) = 83.44025 111.56544 55.73121
#
# Poissons Ratio (x) = 0.26388 0.11993
# Poissons Ratio (y) = 0.19736 -0.08968
# Poissons Ratio (z) = 0.17955 -0.17952
#
# Static dielectric constant tensor:
#      x y z
#    x 1.843300 0.000000 0.009390 
#    y 0.000000 1.916750 0.000000 
#    z 0.009390 0.000000 1.835060 
# 
# From -- ./inp_files/287547.got.cif
#   From: 2010.05.17/outbox.cif.g08.bks.cpg/sg15_144_cif.got.tgz:287547.got - 2010.06.03 18:47:42.
