data_PCOD9295658
_publ_section_title
;
Structure prediction by ZEFSAII (Michael W. Deem and Ramdas Pophale) SiO2 
 PCOD9295658
Probable space group: C 2/C
;
_chemical_formula_sum "Si O2"
_cell_formula_units_Z 40
_cell_length_a 14.831496
_cell_length_b 14.044076
_cell_length_c 9.123434
_cell_angle_alpha 90.000000
_cell_angle_beta 108.494831
_cell_angle_gamma 90.000000
_cell_volume 1802.213158
_symmetry_space_group_name_H-M "C 2/C"
_symmetry_group_IT_number 15
_symmetry_cell_setting 'monoclinic'
loop_
_space_group_symop_operation_xyz
x,y,z
-x,y,1/2-z
-x,-y,-z
x,-y,1/2+z
1/2+x,1/2+y,z
1/2-x,1/2+y,1/2-z
1/2-x,1/2-y,-z
1/2+x,1/2-y,1/2+z
loop_
_atom_site_type_symbol
_atom_site_label
_atom_site_fract_x
_atom_site_fract_y
_atom_site_fract_z
Si Si1 0.605173 0.093747 0.097267
Si Si2 0.834003 0.813339 0.971898
Si Si3 0.300185 0.669596 0.126210
Si Si4 0.500000 0.762220 0.750000
Si Si5 0.000000 0.556803 0.750000
Si Si6 0.923853 0.999642 0.586970
O O1 0.716908 0.097344 0.133571
O O2 0.570933 0.178416 0.183358
O O3 0.568526 0.005131 0.176837
O O4 0.561498 0.105044 0.910674
O O5 0.837336 0.791267 0.800893
O O6 0.750000 0.750000 0.000000
O O7 0.931788 0.787012 0.100150
O O8 0.837152 0.927045 0.007162
O O9 0.379685 0.604801 0.091374
O O10 0.250000 0.750000 0.000000
O O11 0.000000 0.027651 0.750000
O O12 0.000000 0.000000 0.500000
#
# Coordination Sequence:
#
# PCOD9295658 Si02
#       6
#     8   8   8   4   4   8
#     4  10  23  43  67 105 138 194 240 311 382 451
#     4  12  27  48  77 113 153 202 256 323 389 467
#     4  12  30  46  73 112 151 195 257 319 387 463
#     4  11  24  44  74 103 148 196 252 307 394 453
#     4   9  22  42  70  95 144 186 242 301 374 461
#     4  12  28  51  79 110 153 210 265 323 392 467
#
# _framework density 22.194932999999999
#
# number of rings (size 3 to 8) (size 9 to 14) (size 15 to 20)
#    0.000    0.800    5.000    0.000   11.200    1.600 
#    0.000    0.000    0.000    0.000    0.000    0.000 
#    0.000    0.000    0.000    0.000    0.000    0.000 
#
# Total GULP energy -111471.408910 kJ/mol
# GULP energy per Si atom -5573.570446 kJ/mol
# Density = 2.214442 g / cm^3
# Si number density = 22.194933 Si / 1000 Ang^3
#
#
#
# Elastic Constant Matrix: (Units=GPa)
#
#
# Indices 1 2 3 4 5 6 
#
# 1 124.9988 36.0488 35.6761 0.0000 -13.2516 0.0000
# 2 36.0488 77.7858 48.7789 0.0000 -3.8715 0.0000
# 3 35.6761 48.7789 223.3638 0.0000 -5.5848 0.0000
# 4 0.0000 0.0000 0.0000 31.2414 0.0000 10.0942
# 5 -13.2516 -3.8715 -5.5848 0.0000 43.4570 0.0000
# 6 0.0000 0.0000 0.0000 10.0942 0.0000 43.1776
#
#
#
# Elastic Compliance Matrix: (Units=1/GPa)
#
#
# Indices 1 2 3 4 5 6 
#
# 1 0.009571 -0.003930 -0.000608 0.000000 0.002490 0.000000
# 2 -0.003930 0.016546 -0.002988 0.000000 -0.000108 0.000000
# 3 -0.000608 -0.002988 0.005232 0.000000 0.000221 0.000000
# 4 0.000000 0.000000 0.000000 0.034624 0.000000 -0.008095
# 5 0.002490 -0.000108 0.000221 0.000000 0.023789 0.000000
# 6 0.000000 0.000000 0.000000 -0.008095 0.000000 0.025053
#
#
# Mechanical properties :
#
#
# Convention : Reuss Voigt Hill
#
# Bulk Modulus (GPa) = 61.36581 74.12843 67.74712
# Shear Modulus (GPa) = 36.95475 43.95150 40.45313
#
# Velocity S-wave (km/s) = 4.08488 4.45483 4.27386
# Velocity P-wave (km/s) = 7.06802 7.74157 7.41245
#
# Compressibility (1/GPa) = 0.01629572
#
# Stress axis : x y z
#
# Youngs Moduli (GPa) = 104.48091 60.43832 191.12266
#
# Poissons Ratio (x) = 0.23754 0.11623
# Poissons Ratio (y) = 0.41064 0.57113
# Poissons Ratio (z) = 0.06354 0.18061
#
# Static dielectric constant tensor:
#      x y z
#    x 1.752220 0.000000 0.009840 
#    y 0.000000 1.890210 0.000000 
#    z 0.009840 0.000000 1.812690 
# 
# From -- ./inp_files/38084.got.cif
#   From: 2010.05.17/outbox.cif.g08.bks.cpg/sg15_20_cif.got.tgz:38084.got - 2010.06.03 18:47:42.
