data_PCOD9295476
_publ_section_title
;
Structure prediction by ZEFSAII (Michael W. Deem and Ramdas Pophale) SiO2 
 PCOD9295476
Probable space group: C 2/C
;
_chemical_formula_sum "Si O2"
_cell_formula_units_Z 32
_cell_length_a 22.954106
_cell_length_b 4.982581
_cell_length_c 9.976759
_cell_angle_alpha 90.000000
_cell_angle_beta 85.385492
_cell_angle_gamma 90.000000
_cell_volume 1137.350170
_symmetry_space_group_name_H-M "C 2/C"
_symmetry_group_IT_number 15
_symmetry_cell_setting 'monoclinic'
loop_
_space_group_symop_operation_xyz
x,y,z
-x,y,1/2-z
-x,-y,-z
x,-y,1/2+z
1/2+x,1/2+y,z
1/2-x,1/2+y,1/2-z
1/2-x,1/2-y,-z
1/2+x,1/2-y,1/2+z
loop_
_atom_site_type_symbol
_atom_site_label
_atom_site_fract_x
_atom_site_fract_y
_atom_site_fract_z
Si Si1 0.569796 0.111634 0.338693
Si Si2 0.049647 0.191738 0.564029
Si Si3 0.258408 0.949370 0.840125
Si Si4 0.343326 0.677672 0.483740
O O1 0.520503 0.328472 0.399472
O O2 0.562638 0.094896 0.182594
O O3 0.631997 0.201114 0.381957
O O4 0.558393 0.843614 0.423177
O O5 0.099833 0.974130 0.584384
O O6 0.241001 0.156060 0.723694
O O7 0.314311 0.094028 0.897783
O O8 0.206700 0.972797 0.959577
#
# Coordination Sequence:
#
# PCOD9295476 Si02
#       4
#     8   8   8   8
#     4  10  23  42  73 106 153 191 253 310 383 458
#     4  10  23  44  69 114 145 200 243 317 381 455
#     4  11  28  47  71 110 151 199 259 316 381 447
#     4  11  25  42  75 100 150 199 255 310 381 456
#
# _framework density 28.135570999999999
#
# number of rings (size 3 to 8) (size 9 to 14) (size 15 to 20)
#    0.000    1.500    0.000    2.250   10.500    4.000 
#    0.000    5.000    0.000    0.000    0.000    0.000 
#    0.000    0.000    0.000    0.000    0.000    0.000 
#
# Total GULP energy -89684.351637 kJ/mol
# GULP energy per Si atom -5605.271977 kJ/mol
# Density = 2.807153 g / cm^3
# Si number density = 28.135571 Si / 1000 Ang^3
#
#
#
# Elastic Constant Matrix: (Units=GPa)
#
#
# Indices 1 2 3 4 5 6 
#
# 1 177.1760 22.1018 29.8978 0.0000 15.7570 0.0000
# 2 22.1018 99.9196 -11.0891 0.0000 -18.9187 0.0000
# 3 29.8978 -11.0891 38.6266 0.0000 10.1565 0.0000
# 4 0.0000 0.0000 0.0000 15.3192 0.0000 15.1708
# 5 15.7570 -18.9187 10.1565 0.0000 37.9479 0.0000
# 6 0.0000 0.0000 0.0000 15.1708 0.0000 37.7400
#
#
#
# Elastic Compliance Matrix: (Units=1/GPa)
#
#
# Indices 1 2 3 4 5 6 
#
# 1 0.007187 -0.002752 -0.005602 0.000000 -0.002857 0.000000
# 2 -0.002752 0.012230 0.004021 0.000000 0.006164 0.000000
# 3 -0.005602 0.004021 0.032529 0.000000 -0.004376 0.000000
# 4 0.000000 0.000000 0.000000 0.108450 0.000000 -0.043595
# 5 -0.002857 0.006164 -0.004376 0.000000 0.031782 0.000000
# 6 0.000000 0.000000 0.000000 -0.043595 0.000000 0.044022
#
#
# Mechanical properties :
#
#
# Convention : Reuss Voigt Hill
#
# Bulk Modulus (GPa) = 23.10544 44.17148 33.63846
# Shear Modulus (GPa) = 19.28316 36.52221 27.90268
#
# Velocity S-wave (km/s) = 2.62079 3.60680 3.15258
# Velocity P-wave (km/s) = 4.16990 5.75143 5.02329
#
# Compressibility (1/GPa) = 0.04327986
#
# Stress axis : x y z
#
# Youngs Moduli (GPa) = 139.14432 81.76521 30.74133
#
# Poissons Ratio (x) = 0.22504 0.17220
# Poissons Ratio (y) = 0.38297 -0.12360
# Poissons Ratio (z) = 0.77943 -0.32875
#
# Static dielectric constant tensor:
#      x y z
#    x 2.195540 0.000000 -0.020020 
#    y 0.000000 2.330200 0.000000 
#    z -0.020020 0.000000 2.212510 
# 
# From -- ./inp_files/109036.got.cif
#   From: 2010.05.17/outbox.cif.g08.bks.cpg/sg15_55_cif.got.tgz:109036.got - 2010.06.03 18:47:42.
