data_PCOD9295826
_publ_section_title
;
Structure prediction by ZEFSAII (Michael W. Deem and Ramdas Pophale) SiO2 
 PCOD9295826
Probable space group: C 2/C
;
_chemical_formula_sum "Si O2"
_cell_formula_units_Z 64
_cell_length_a 17.872480
_cell_length_b 8.603713
_cell_length_c 28.546331
_cell_angle_alpha 90.000000
_cell_angle_beta 137.826459
_cell_angle_gamma 90.000000
_cell_volume 2947.056129
_symmetry_space_group_name_H-M "C 2/C"
_symmetry_group_IT_number 15
_symmetry_cell_setting 'monoclinic'
loop_
_space_group_symop_operation_xyz
x,y,z
-x,y,1/2-z
-x,-y,-z
x,-y,1/2+z
1/2+x,1/2+y,z
1/2-x,1/2+y,1/2-z
1/2-x,1/2-y,-z
1/2+x,1/2-y,1/2+z
loop_
_atom_site_type_symbol
_atom_site_label
_atom_site_fract_x
_atom_site_fract_y
_atom_site_fract_z
Si Si1 0.747726 0.561323 0.093715
Si Si2 0.216565 0.226433 0.430482
Si Si3 0.966697 0.256989 0.686373
Si Si4 0.892186 0.397911 0.935639
Si Si5 0.261394 0.542522 0.714409
Si Si6 0.313057 0.093716 0.224849
Si Si7 0.007243 0.912925 0.454206
Si Si8 0.003821 0.036068 0.149846
O O1 0.790391 0.398221 0.094002
O O2 0.842414 0.688189 0.132318
O O3 0.740367 0.541774 0.146631
O O4 0.640076 0.617785 0.015555
O O5 0.250000 0.250000 0.500000
O O6 0.313751 0.145205 0.444050
O O7 0.098008 0.136974 0.377745
O O8 0.000000 0.169522 0.750000
O O9 0.055055 0.397365 0.725188
O O10 0.977009 0.144128 0.647846
O O11 0.815349 0.491195 0.863768
O O12 0.936288 0.243776 0.928506
O O13 0.000000 0.500000 0.000000
O O14 0.285402 0.725446 0.721729
O O15 0.205884 0.508018 0.738496
O O16 0.376730 0.443782 0.769970
O O17 0.981794 0.030393 0.399612
O O18 0.000000 0.000000 0.500000
#
# Coordination Sequence:
#
# PCOD9295826 Si02
#       8
#     8   8   8   8   8   8   8   8
#     4  11  23  44  70  94 147 184 234 297 363 416
#     4  12  27  47  68 111 144 189 248 300 363 434
#     4   9  22  42  64  98 137 179 233 287 359 429
#     4  12  28  46  74 107 145 185 248 303 366 438
#     4  11  25  46  72 106 140 189 242 296 371 434
#     4  10  23  43  70 105 142 186 240 296 356 440
#     4  12  23  46  70  99 138 190 237 293 363 426
#     4  11  25  43  72  99 144 185 238 298 357 439
#
# _framework density 21.716588000000002
#
# number of rings (size 3 to 8) (size 9 to 14) (size 15 to 20)
#    0.000    1.000    2.500    3.000    8.750    4.500 
#    4.500    0.000    0.000    0.000    0.000    0.000 
#    0.000    0.000    0.000    0.000    0.000    0.000 
#
# Total GULP energy -178758.592226 kJ/mol
# GULP energy per Si atom -5586.206007 kJ/mol
# Density = 2.166716 g / cm^3
# Si number density = 21.716588 Si / 1000 Ang^3
#
#
#
# Elastic Constant Matrix: (Units=GPa)
#
#
# Indices 1 2 3 4 5 6 
#
# 1 101.6679 16.3176 32.9014 0.0000 -7.9430 0.0000
# 2 16.3176 51.3671 17.4769 0.0000 -6.6590 0.0000
# 3 32.9014 17.4769 131.4114 0.0000 0.9571 0.0000
# 4 0.0000 0.0000 0.0000 20.2773 0.0000 -7.4696
# 5 -7.9430 -6.6590 0.9571 0.0000 38.4767 0.0000
# 6 0.0000 0.0000 0.0000 -7.4696 0.0000 36.4760
#
#
#
# Elastic Compliance Matrix: (Units=1/GPa)
#
#
# Indices 1 2 3 4 5 6 
#
# 1 0.011187 -0.002455 -0.002489 0.000000 0.001947 0.000000
# 2 -0.002455 0.021439 -0.002260 0.000000 0.003260 0.000000
# 3 -0.002489 -0.002260 0.008542 0.000000 -0.001117 0.000000
# 4 0.000000 0.000000 0.000000 0.053340 0.000000 0.010923
# 5 0.001947 0.003260 -0.001117 0.000000 0.026984 0.000000
# 6 0.000000 0.000000 0.000000 0.010923 0.000000 0.029652
#
#
# Mechanical properties :
#
#
# Convention : Reuss Voigt Hill
#
# Bulk Modulus (GPa) = 37.36871 46.42647 41.89759
# Shear Modulus (GPa) = 28.65796 33.56271 31.11033
#
# Velocity S-wave (km/s) = 3.63662 3.93553 3.78902
# Velocity P-wave (km/s) = 5.90577 6.48660 6.20299
#
# Compressibility (1/GPa) = 0.02676035
#
# Stress axis : x y z
#
# Youngs Moduli (GPa) = 89.38633 46.64354 117.07487
#
# Poissons Ratio (x) = 0.11450 0.29136
# Poissons Ratio (y) = 0.21942 0.26464
# Poissons Ratio (z) = 0.22245 0.10543
#
# Static dielectric constant tensor:
#      x y z
#    x 1.942120 0.000000 0.020550 
#    y 0.000000 1.780340 0.000000 
#    z 0.020550 0.000000 1.831480 
# 
# From -- ./inp_files/315738.got.cif
#   From: 2010.05.17/outbox.cif.g08.bks.cpg/sg15_158_cif.got.tgz:315738.got - 2010.06.03 18:47:42.
