data_PCOD9295854
_publ_section_title
;
Structure prediction by ZEFSAII (Michael W. Deem and Ramdas Pophale) SiO2 
 PCOD9295854
Probable space group: C 2/C
;
_chemical_formula_sum "Si O2"
_cell_formula_units_Z 44
_cell_length_a 11.036050
_cell_length_b 20.073493
_cell_length_c 9.766488
_cell_angle_alpha 90.000000
_cell_angle_beta 105.908185
_cell_angle_gamma 90.000000
_cell_volume 2080.729498
_symmetry_space_group_name_H-M "C 2/C"
_symmetry_group_IT_number 15
_symmetry_cell_setting 'monoclinic'
loop_
_space_group_symop_operation_xyz
x,y,z
-x,y,1/2-z
-x,-y,-z
x,-y,1/2+z
1/2+x,1/2+y,z
1/2-x,1/2+y,1/2-z
1/2-x,1/2-y,-z
1/2+x,1/2-y,1/2+z
loop_
_atom_site_type_symbol
_atom_site_label
_atom_site_fract_x
_atom_site_fract_y
_atom_site_fract_z
Si Si1 0.000000 0.498385 0.250000
Si Si2 0.734977 0.908030 0.254604
Si Si3 0.138634 0.790039 0.041415
Si Si4 0.000000 0.856399 0.750000
Si Si5 0.350968 0.899365 0.561349
Si Si6 0.382220 0.472409 0.873968
Si Si7 0.500000 0.786350 0.750000
O O1 0.117147 0.449883 0.272462
O O2 0.030479 0.549809 0.383737
O O3 0.793776 0.854312 0.372707
O O4 0.839383 0.965280 0.269025
O O5 0.684190 0.876019 0.100328
O O6 0.060298 0.754643 0.140807
O O7 0.250000 0.750000 0.000000
O O8 0.047609 0.812982 0.890921
O O9 0.096923 0.909157 0.716667
O O10 0.232390 0.944283 0.570146
O O11 0.389182 0.835239 0.661309
O O12 0.500000 0.500000 0.000000
#
# Coordination Sequence:
#
# PCOD9295854 Si02
#       7
#     4   8   8   4   8   8   4
#     4   9  22  41  68 109 132 177 230 306 370 427
#     4  11  24  41  73 102 140 181 236 297 372 429
#     4  12  30  47  72 106 142 205 249 292 361 435
#     4  12  26  46  72  98 152 180 244 308 356 440
#     4  10  23  43  71 100 140 183 233 301 371 428
#     4  11  22  43  70 109 139 178 234 303 379 435
#     4  11  28  51  70 101 150 195 256 298 356 441
#
# _framework density 21.146429999999999
#
# number of rings (size 3 to 8) (size 9 to 14) (size 15 to 20)
#    0.000    1.091    1.818    2.727   10.182    1.455 
#    0.000    0.000    0.000    0.000    0.000    0.000 
#    0.000    0.000    0.000    0.000    0.000    0.000 
#
# Total GULP energy -122674.586078 kJ/mol
# GULP energy per Si atom -5576.117549 kJ/mol
# Density = 2.109830 g / cm^3
# Si number density = 21.146430 Si / 1000 Ang^3
#
#
#
# Elastic Constant Matrix: (Units=GPa)
#
#
# Indices 1 2 3 4 5 6 
#
# 1 83.9279 55.2284 45.1597 0.0000 2.9495 0.0000
# 2 55.2284 121.2110 81.6378 0.0000 4.1897 0.0000
# 3 45.1597 81.6378 177.3509 0.0000 13.4057 0.0000
# 4 0.0000 0.0000 0.0000 32.0303 0.0000 -3.3611
# 5 2.9495 4.1897 13.4057 0.0000 30.1885 0.0000
# 6 0.0000 0.0000 0.0000 -3.3611 0.0000 44.7556
#
#
#
# Elastic Compliance Matrix: (Units=1/GPa)
#
#
# Indices 1 2 3 4 5 6 
#
# 1 0.017170 -0.007076 -0.001099 0.000000 -0.000207 0.000000
# 2 -0.007076 0.014892 -0.005121 0.000000 0.000899 0.000000
# 3 -0.001099 -0.005121 0.008499 0.000000 -0.002956 0.000000
# 4 0.000000 0.000000 0.000000 0.031468 0.000000 0.002363
# 5 -0.000207 0.000899 -0.002956 0.000000 0.034333 0.000000
# 6 0.000000 0.000000 0.000000 0.002363 0.000000 0.022521
#
#
# Mechanical properties :
#
#
# Convention : Reuss Voigt Hill
#
# Bulk Modulus (GPa) = 71.58820 82.94908 77.26864
# Shear Modulus (GPa) = 31.22390 34.75914 32.99152
#
# Velocity S-wave (km/s) = 3.84677 4.05870 3.95415
# Velocity P-wave (km/s) = 7.32511 7.82785 7.58065
#
# Compressibility (1/GPa) = 0.01396878
#
# Stress axis : x y z
#
# Youngs Moduli (GPa) = 58.24140 67.14864 117.65545
#
# Poissons Ratio (x) = 0.47512 0.12934
# Poissons Ratio (y) = 0.41210 0.60256
# Poissons Ratio (z) = 0.06403 0.34390
#
# Static dielectric constant tensor:
#      x y z
#    x 1.856730 0.000000 -0.035280 
#    y 0.000000 1.712260 0.000000 
#    z -0.035280 0.000000 1.812990 
# 
# From -- ./inp_files/31069.got.cif
#   From: 2010.05.17/outbox.cif.g08.bks.cpg/sg15_16_cif.got.tgz:31069.got - 2010.06.03 18:47:42.
