data_PCOD9295222
_publ_section_title
;
Structure prediction by ZEFSAII (Michael W. Deem and Ramdas Pophale) SiO2 
 PCOD9295222
Probable space group: C 2/C
;
_chemical_formula_sum "Si O2"
_cell_formula_units_Z 56
_cell_length_a 10.861196
_cell_length_b 16.321641
_cell_length_c 15.168468
_cell_angle_alpha 90.000000
_cell_angle_beta 91.532108
_cell_angle_gamma 90.000000
_cell_volume 2687.991576
_symmetry_space_group_name_H-M "C 2/C"
_symmetry_group_IT_number 15
_symmetry_cell_setting 'monoclinic'
loop_
_space_group_symop_operation_xyz
x,y,z
-x,y,1/2-z
-x,-y,-z
x,-y,1/2+z
1/2+x,1/2+y,z
1/2-x,1/2+y,1/2-z
1/2-x,1/2-y,-z
1/2+x,1/2-y,1/2+z
loop_
_atom_site_type_symbol
_atom_site_label
_atom_site_fract_x
_atom_site_fract_y
_atom_site_fract_z
Si Si1 0.143021 0.199456 0.552088
Si Si2 0.600191 0.042681 0.060745
Si Si3 0.710075 0.519998 0.589142
Si Si4 0.641269 0.060411 0.735445
Si Si5 0.008829 0.310260 0.657508
Si Si6 0.764124 0.795178 0.132201
Si Si7 0.113302 0.156623 0.044764
O O1 0.250000 0.250000 0.500000
O O2 0.146430 0.107928 0.592445
O O3 0.123384 0.252093 0.640436
O O4 0.021314 0.188776 0.488001
O O5 0.530532 0.127248 0.079617
O O6 0.634339 0.002405 0.153913
O O7 0.718243 0.037256 0.001045
O O8 0.500000 0.000000 0.000000
O O9 0.800681 0.519280 0.675783
O O10 0.629529 0.436903 0.580102
O O11 0.500000 0.086169 0.750000
O O12 0.719235 0.137763 0.700996
O O13 0.000000 0.355070 0.750000
O O14 0.889720 0.253364 0.653861
O O15 0.664337 0.723946 0.113799
O O16 0.795458 0.838312 0.038713
#
# Coordination Sequence:
#
# PCOD9295222 Si02
#       7
#     8   8   8   8   8   8   8
#     4  11  24  43  71 104 137 192 238 291 356 428
#     4  12  24  41  67 102 138 177 233 291 351 426
#     4  12  24  45  69  99 144 184 235 291 363 424
#     4  12  26  40  71 104 139 180 238 300 361 426
#     4  11  24  43  69  99 140 181 235 286 353 433
#     4  10  23  42  67 102 134 179 236 289 353 422
#     4  10  23  43  73  95 138 189 229 291 358 427
#
# _framework density 20.833399
#
# number of rings (size 3 to 8) (size 9 to 14) (size 15 to 20)
#    0.000    0.857    4.286    2.571    8.000    0.000 
#    0.000    0.000    0.000    0.000    0.000    0.000 
#    0.000    0.000    0.000    0.000    0.000    0.000 
#
# Total GULP energy -155911.447692 kJ/mol
# GULP energy per Si atom -5568.265989 kJ/mol
# Density = 2.078598 g / cm^3
# Si number density = 20.833399 Si / 1000 Ang^3
#
#
#
# Elastic Constant Matrix: (Units=GPa)
#
#
# Indices 1 2 3 4 5 6 
#
# 1 59.4180 10.4840 24.4633 0.0000 -12.8333 0.0000
# 2 10.4840 105.3686 37.6834 0.0000 -13.1707 0.0000
# 3 24.4633 37.6834 102.2545 0.0000 -7.0353 0.0000
# 4 0.0000 0.0000 0.0000 31.7816 0.0000 -0.4563
# 5 -12.8333 -13.1707 -7.0353 0.0000 12.3295 0.0000
# 6 0.0000 0.0000 0.0000 -0.4563 0.0000 37.5727
#
#
#
# Elastic Compliance Matrix: (Units=1/GPa)
#
#
# Indices 1 2 3 4 5 6 
#
# 1 0.023701 0.002452 -0.004888 0.000000 0.024500 0.000000
# 2 0.002452 0.012444 -0.004249 0.000000 0.013421 0.000000
# 3 -0.004888 -0.004249 0.012337 0.000000 -0.002588 0.000000
# 4 0.000000 0.000000 0.000000 0.031470 0.000000 0.000382
# 5 0.024500 0.013421 -0.002588 0.000000 0.119467 0.000000
# 6 0.000000 0.000000 0.000000 0.000382 0.000000 0.026620
#
#
# Mechanical properties :
#
#
# Convention : Reuss Voigt Hill
#
# Bulk Modulus (GPa) = 28.48051 45.81138 37.14594
# Shear Modulus (GPa) = 19.91133 29.29745 24.60439
#
# Velocity S-wave (km/s) = 3.09486 3.75410 3.44031
# Velocity P-wave (km/s) = 5.14501 6.38969 5.80083
#
# Compressibility (1/GPa) = 0.03511174
#
# Stress axis : x y z
#
# Youngs Moduli (GPa) = 42.19144 80.36236 81.05759
#
# Poissons Ratio (x) = -0.19708 0.39625
# Poissons Ratio (y) = -0.10347 0.34443
# Poissons Ratio (z) = 0.20625 0.34147
#
# Static dielectric constant tensor:
#      x y z
#    x 1.729970 0.000000 0.060880 
#    y 0.000000 1.838070 0.000000 
#    z 0.060880 0.000000 1.763900 
# 
# From -- ./inp_files/144267.got.cif
#   From: 2010.05.17/outbox.cif.g08.bks.cpg/sg15_73_cif.got.tgz:144267.got - 2010.06.03 18:47:42.
