data_PCOD9295233
_publ_section_title
;
Structure prediction by ZEFSAII (Michael W. Deem and Ramdas Pophale) SiO2 
 PCOD9295233
Probable space group: C 2/C
;
_chemical_formula_sum "Si O2"
_cell_formula_units_Z 36
_cell_length_a 8.716138
_cell_length_b 14.161700
_cell_length_c 16.430786
_cell_angle_alpha 90.000000
_cell_angle_beta 111.121237
_cell_angle_gamma 90.000000
_cell_volume 1891.889177
_symmetry_space_group_name_H-M "C 2/C"
_symmetry_group_IT_number 15
_symmetry_cell_setting 'monoclinic'
loop_
_space_group_symop_operation_xyz
x,y,z
-x,y,1/2-z
-x,-y,-z
x,-y,1/2+z
1/2+x,1/2+y,z
1/2-x,1/2+y,1/2-z
1/2-x,1/2-y,-z
1/2+x,1/2-y,1/2+z
loop_
_atom_site_type_symbol
_atom_site_label
_atom_site_fract_x
_atom_site_fract_y
_atom_site_fract_z
Si Si1 0.190538 0.022262 0.032863
Si Si2 0.000000 0.787204 0.750000
Si Si3 0.867451 0.677403 0.568614
Si Si4 0.694439 0.836396 0.802221
Si Si5 0.277360 0.176776 0.932123
O O1 0.245542 0.092372 0.115667
O O2 0.286135 0.924506 0.059960
O O3 0.216773 0.076392 0.952385
O O4 0.000000 0.000000 0.000000
O O5 0.078784 0.723049 0.835763
O O6 0.160239 0.839973 0.739405
O O7 0.750000 0.750000 0.500000
O O8 0.030925 0.667877 0.547268
O O9 0.500000 0.856950 0.750000
O O10 0.700790 0.729178 0.839399
O O11 0.250000 0.250000 0.000000
#
# Coordination Sequence:
#
# PCOD9295233 Si02
#       5
#     8   4   8   8   8
#     4  11  23  40  64  97 127 167 221 261 325 391
#     4  10  24  42  62  98 128 172 222 262 332 384
#     4  11  23  41  68  90 132 170 208 271 322 385
#     4  10  23  42  67  91 133 170 211 275 323 380
#     4   9  20  40  62  95 121 165 212 254 324 379
#
# _framework density 19.028599
#
# number of rings (size 3 to 8) (size 9 to 14) (size 15 to 20)
#    0.000    1.778    0.000    4.667   10.889    0.000 
#    4.000    0.000    2.444    0.000    0.000    0.000 
#    0.000    0.000    0.000    0.000    0.000    0.000 
#
# Total GULP energy -100322.023511 kJ/mol
# GULP energy per Si atom -5573.445751 kJ/mol
# Density = 1.898529 g / cm^3
# Si number density = 19.028599 Si / 1000 Ang^3
#
#
#
# Elastic Constant Matrix: (Units=GPa)
#
#
# Indices 1 2 3 4 5 6 
#
# 1 193.5539 66.4647 67.5425 0.0000 9.6719 0.0000
# 2 66.4647 112.1189 46.3628 0.0000 5.9332 0.0000
# 3 67.5425 46.3628 85.0294 0.0000 12.8139 0.0000
# 4 0.0000 0.0000 0.0000 22.6133 0.0000 -4.0233
# 5 9.6719 5.9332 12.8139 0.0000 37.8326 0.0000
# 6 0.0000 0.0000 0.0000 -4.0233 0.0000 38.9375
#
#
#
# Elastic Compliance Matrix: (Units=1/GPa)
#
#
# Indices 1 2 3 4 5 6 
#
# 1 0.007705 -0.002629 -0.004692 0.000000 0.000032 0.000000
# 2 -0.002629 0.012417 -0.004731 0.000000 0.000327 0.000000
# 3 -0.004692 -0.004731 0.018731 0.000000 -0.004403 0.000000
# 4 0.000000 0.000000 0.000000 0.045050 0.000000 0.004655
# 5 0.000032 0.000327 -0.004403 0.000000 0.027864 0.000000
# 6 0.000000 0.000000 0.000000 0.004655 0.000000 0.026163
#
#
# Mechanical properties :
#
#
# Convention : Reuss Voigt Hill
#
# Bulk Modulus (GPa) = 67.80383 83.49357 75.64870
# Shear Modulus (GPa) = 29.94922 33.89883 31.92402
#
# Velocity S-wave (km/s) = 3.97155 4.22532 4.10040
# Velocity P-wave (km/s) = 7.53266 8.23272 7.89046
#
# Compressibility (1/GPa) = 0.01474843
#
# Stress axis : x y z
#
# Youngs Moduli (GPa) = 129.78681 80.53609 53.38880
#
# Poissons Ratio (x) = 0.21174 0.25048
# Poissons Ratio (y) = 0.34123 0.25259
# Poissons Ratio (z) = 0.60890 0.38103
#
# Static dielectric constant tensor:
#      x y z
#    x 1.663120 0.000000 -0.023990 
#    y 0.000000 1.648130 0.000000 
#    z -0.023990 0.000000 1.659450 
# 
# From -- ./inp_files/132706.got.cif
#   From: 2010.05.17/outbox.cif.g08.bks.cpg/sg15_67_cif.got.tgz:132706.got - 2010.06.03 18:47:42.
