data_PCOD9295160
_publ_section_title
;
Structure prediction by ZEFSAII (Michael W. Deem and Ramdas Pophale) SiO2 
 PCOD9295160
Probable space group: C 2/C
;
_chemical_formula_sum "Si O2"
_cell_formula_units_Z 40
_cell_length_a 13.644981
_cell_length_b 18.415615
_cell_length_c 14.744136
_cell_angle_alpha 90.000000
_cell_angle_beta 149.194064
_cell_angle_gamma 90.000000
_cell_volume 1897.406039
_symmetry_space_group_name_H-M "C 2/C"
_symmetry_group_IT_number 15
_symmetry_cell_setting 'monoclinic'
loop_
_space_group_symop_operation_xyz
x,y,z
-x,y,1/2-z
-x,-y,-z
x,-y,1/2+z
1/2+x,1/2+y,z
1/2-x,1/2+y,1/2-z
1/2-x,1/2-y,-z
1/2+x,1/2-y,1/2+z
loop_
_atom_site_type_symbol
_atom_site_label
_atom_site_fract_x
_atom_site_fract_y
_atom_site_fract_z
Si Si1 0.639138 0.918506 0.776167
Si Si2 0.111868 0.193218 0.569564
Si Si3 0.046142 0.416110 0.182091
Si Si4 0.397488 0.312039 0.078528
Si Si5 0.273403 0.849500 0.835614
O O1 0.500000 0.906169 0.750000
O O2 0.608096 0.872784 0.660375
O O3 0.629664 0.002559 0.743234
O O4 0.824910 0.883626 0.968875
O O5 0.291425 0.139808 0.721507
O O6 0.176810 0.271038 0.583341
O O7 0.035685 0.216506 0.609126
O O8 0.944568 0.157637 0.374641
O O9 0.000000 0.401076 0.250000
O O10 0.849371 0.406864 0.969524
O O11 0.500000 0.336666 0.250000
O O12 0.250000 0.250000 0.000000
#
# Coordination Sequence:
#
# PCOD9295160 Si02
#       5
#     8   8   8   8   8
#     4  10  23  42  65  98 135 170 213 271 344 398
#     4  11  23  41  69  98 129 173 226 269 335 395
#     4  11  26  46  63  95 133 177 229 270 328 391
#     4  11  22  38  67 103 135 167 212 272 338 404
#     4  11  22  42  68  94 129 171 220 279 325 390
#
# _framework density 21.081412
#
# number of rings (size 3 to 8) (size 9 to 14) (size 15 to 20)
#    0.000    1.200    2.000    4.800    2.800    4.800 
#    7.200    0.000    0.000    0.000    0.000    0.000 
#    0.000    0.000    0.000    0.000    0.000    0.000 
#
# Total GULP energy -111400.204649 kJ/mol
# GULP energy per Si atom -5570.010232 kJ/mol
# Density = 2.103343 g / cm^3
# Si number density = 21.081412 Si / 1000 Ang^3
#
#
#
# Elastic Constant Matrix: (Units=GPa)
#
#
# Indices 1 2 3 4 5 6 
#
# 1 30.3214 -38.8574 26.8435 0.0000 -5.6671 0.0000
# 2 -38.8574 -134.1263 48.8768 -0.0001 -1.3555 0.0000
# 3 26.8435 48.8768 104.4269 0.0000 -37.7640 0.0002
# 4 0.0000 -0.0001 0.0000 28.3081 0.0000 -5.8725
# 5 -5.6671 -1.3555 -37.7640 0.0000 34.6033 0.0002
# 6 0.0000 0.0000 0.0002 -5.8725 0.0002 43.0331
#
#
#
# Elastic Compliance Matrix: (Units=1/GPa)
#
#
# Indices 1 2 3 4 5 6 
#
# 1 0.024883 -0.008001 -0.002133 0.000000 0.001434 0.000000
# 2 -0.008001 -0.003320 0.005104 0.000000 0.004130 0.000000
# 3 -0.002133 0.005104 0.012690 0.000000 0.013699 0.000000
# 4 0.000000 0.000000 0.000000 0.036355 0.000000 0.004961
# 5 0.001434 0.004130 0.013699 0.000000 0.044246 0.000000
# 6 0.000000 0.000000 0.000000 0.004961 0.000000 0.023915
#
#
# Mechanical properties :
#
#
# Convention : Reuss Voigt Hill
#
# Bulk Modulus (GPa) = 41.33390 8.26085 24.79738
# Shear Modulus (GPa) = 31.86867 18.77285 25.32076
#
# Velocity S-wave (km/s) = 3.89227 2.98735 3.46944
# Velocity P-wave (km/s) = 6.31261 3.97820 5.27613
#
# Compressibility (1/GPa) = 0.02419322
#
# Stress axis : x y z
#
# Youngs Moduli (GPa) = 40.18746 -301.23564 78.80409
#
# Poissons Ratio (x) = -2.41011 0.16810
# Poissons Ratio (y) = 0.32153 -0.40220
# Poissons Ratio (z) = 0.08573 1.53744
#
# Static dielectric constant tensor:
#      x y z
#    x 2.184160 0.000000 0.217800 
#    y 0.000000 1.783800 0.000000 
#    z 0.217800 0.000000 1.665330 
# 
# From -- ./inp_files/29305.got.cif
#   From: 2010.05.17/outbox.cif.g08.bks.cpg/sg15_15_cif.got.tgz:29305.got - 2010.06.03 18:47:42.
