data_PCOD9295679
_publ_section_title
;
Structure prediction by ZEFSAII (Michael W. Deem and Ramdas Pophale) SiO2 
 PCOD9295679
Probable space group: C 2/C
;
_chemical_formula_sum "Si O2"
_cell_formula_units_Z 64
_cell_length_a 12.201639
_cell_length_b 27.553498
_cell_length_c 15.347673
_cell_angle_alpha 90.000000
_cell_angle_beta 39.002865
_cell_angle_gamma 90.000000
_cell_volume 3247.402127
_symmetry_space_group_name_H-M "C 2/C"
_symmetry_group_IT_number 15
_symmetry_cell_setting 'monoclinic'
loop_
_space_group_symop_operation_xyz
x,y,z
-x,y,1/2-z
-x,-y,-z
x,-y,1/2+z
1/2+x,1/2+y,z
1/2-x,1/2+y,1/2-z
1/2-x,1/2-y,-z
1/2+x,1/2-y,1/2+z
loop_
_atom_site_type_symbol
_atom_site_label
_atom_site_fract_x
_atom_site_fract_y
_atom_site_fract_z
Si Si1 0.447150 0.029428 0.378682
Si Si2 0.464898 0.700654 0.911590
Si Si3 0.300392 0.204019 0.585766
Si Si4 0.049964 0.424379 0.319542
Si Si5 0.929518 0.897301 0.072039
Si Si6 0.544461 0.479473 0.128797
Si Si7 0.562194 0.412217 0.807438
Si Si8 0.443033 0.112550 0.060095
O O1 0.500000 0.048276 0.250000
O O2 0.249936 0.009497 0.499624
O O3 0.464649 0.070330 0.440601
O O4 0.565775 0.982342 0.322827
O O5 0.656996 0.707998 0.751023
O O6 0.321544 0.695866 0.923750
O O7 0.472609 0.650465 0.958020
O O8 0.404671 0.746073 0.006489
O O9 0.440104 0.160631 0.507232
O O10 0.924405 0.404484 0.471421
O O11 0.000000 0.417065 0.250000
O O12 0.231153 0.397986 0.225147
O O13 0.010416 0.944175 0.069279
O O14 0.933862 0.900837 0.965682
O O15 0.500000 0.455292 0.250000
O O16 0.432229 0.528795 0.195839
O O17 0.500000 0.397608 0.750000
O O18 0.745578 0.387132 0.716258
#
# Coordination Sequence:
#
# PCOD9295679 Si02
#       8
#     8   8   8   8   8   8   8   8
#     4  11  22  37  57  91 129 162 205 254 303 365
#     4  10  23  43  67  97 124 152 191 250 324 375
#     4  10  23  43  67  96 126 151 190 253 317 383
#     4  11  22  38  59  85 122 166 214 254 290 350
#     4  12  22  38  65  89 120 170 210 249 305 371
#     4  11  22  37  59  90 130 165 203 257 307 364
#     4  11  24  40  56  88 131 173 212 254 296 345
#     4  12  22  39  63  92 121 167 209 249 304 369
#
# _framework density 19.708061000000001
#
# number of rings (size 3 to 8) (size 9 to 14) (size 15 to 20)
#    0.000    1.000    1.250    7.500    3.500    0.000 
#    2.250    0.000    0.000    4.500    0.000    0.000 
#    0.000    0.000    0.000    0.000    0.000    0.000 
#
# Total GULP energy -178775.139254 kJ/mol
# GULP energy per Si atom -5586.723102 kJ/mol
# Density = 1.966320 g / cm^3
# Si number density = 19.708061 Si / 1000 Ang^3
#
#
#
# Elastic Constant Matrix: (Units=GPa)
#
#
# Indices 1 2 3 4 5 6 
#
# 1 25.4862 18.5461 22.1684 0.0000 -7.5620 0.0000
# 2 18.5461 70.2238 16.5349 0.0000 -7.2333 0.0000
# 3 22.1684 16.5349 87.2359 0.0000 2.2459 0.0000
# 4 0.0000 0.0000 0.0000 -1.1636 0.0000 0.5933
# 5 -7.5620 -7.2333 2.2459 0.0000 39.5148 0.0000
# 6 0.0000 0.0000 0.0000 0.5933 0.0000 19.6849
#
#
#
# Elastic Compliance Matrix: (Units=1/GPa)
#
#
# Indices 1 2 3 4 5 6 
#
# 1 0.063725 -0.012400 -0.014120 0.000000 0.010728 0.000000
# 2 -0.012400 0.017656 -0.000218 0.000000 0.000871 0.000000
# 3 -0.014120 -0.000218 0.015185 0.000000 -0.003605 0.000000
# 4 0.000000 0.000000 0.000000 -0.846391 0.000000 0.025508
# 5 0.010728 0.000871 -0.003605 0.000000 0.027724 0.000000
# 6 0.000000 0.000000 0.000000 0.025508 0.000000 0.050032
#
#
# Mechanical properties :
#
#
# Convention : Reuss Voigt Hill
#
# Bulk Modulus (GPa) = 23.20666 33.04940 28.12803
# Shear Modulus (GPa) = -8.27500 19.98698 5.85599
#
# Velocity S-wave (km/s) = -2.05132 3.18803 1.72564
# Velocity P-wave (km/s) = 2.48802 5.50974 4.27478
#
# Compressibility (1/GPa) = 0.04309109
#
# Stress axis : x y z
#
# Youngs Moduli (GPa) = 15.69249 56.63759 65.85293
#
# Poissons Ratio (x) = 0.70231 0.92981
# Poissons Ratio (y) = 0.19459 0.01435
# Poissons Ratio (z) = 0.22157 0.01234
#
# Static dielectric constant tensor:
#      x y z
#    x 1.696060 0.000000 -0.003540 
#    y 0.000000 1.652890 0.000000 
#    z -0.003540 0.000000 1.695280 
# 
# From -- ./inp_files/148753.got.cif
#   From: 2010.05.17/outbox.cif.g08.bks.cpg/sg15_75_cif.got.tgz:148753.got - 2010.06.03 18:47:42.
