data_PCOD9295882
_publ_section_title
;
Structure prediction by ZEFSAII (Michael W. Deem and Ramdas Pophale) SiO2 
 PCOD9295882
Probable space group: C 2/C
;
_chemical_formula_sum "Si O2"
_cell_formula_units_Z 48
_cell_length_a 16.287068
_cell_length_b 14.907208
_cell_length_c 15.130859
_cell_angle_alpha 90.000000
_cell_angle_beta 145.010415
_cell_angle_gamma 90.000000
_cell_volume 2106.596413
_symmetry_space_group_name_H-M "C 2/C"
_symmetry_group_IT_number 15
_symmetry_cell_setting 'monoclinic'
loop_
_space_group_symop_operation_xyz
x,y,z
-x,y,1/2-z
-x,-y,-z
x,-y,1/2+z
1/2+x,1/2+y,z
1/2-x,1/2+y,1/2-z
1/2-x,1/2-y,-z
1/2+x,1/2-y,1/2+z
loop_
_atom_site_type_symbol
_atom_site_label
_atom_site_fract_x
_atom_site_fract_y
_atom_site_fract_z
Si Si1 0.550355 0.703768 0.395394
Si Si2 0.186862 0.328974 0.264931
Si Si3 0.175237 0.703825 0.257842
Si Si4 0.568037 0.324897 0.407347
Si Si5 0.668112 0.012199 0.163472
Si Si6 0.447090 0.511317 0.305831
O O1 0.500000 0.704135 0.250000
O O2 0.716735 0.702304 0.567020
O O3 0.472857 0.790842 0.366830
O O4 0.491259 0.608989 0.381832
O O5 0.250637 0.279892 0.235783
O O6 0.201959 0.434316 0.263985
O O7 0.265027 0.690204 0.427284
O O8 0.186306 0.610808 0.217454
O O9 0.015588 0.739636 0.127730
O O10 0.500000 0.330294 0.250000
O O11 0.522792 0.421344 0.409404
O O12 0.777974 0.001004 0.177925
O O13 0.500000 0.000000 0.000000
O O14 0.500000 0.515131 0.250000
#
# Coordination Sequence:
#
# PCOD9295882 Si02
#       6
#     8   8   8   8   8   8
#     4  11  24  44  67  97 137 180 226 278 340 406
#     4  12  24  41  69 100 134 176 230 281 338 400
#     4  12  24  41  69 100 134 176 230 281 338 400
#     4  11  24  44  67  97 137 180 226 278 340 406
#     4  12  25  43  69 104 139 173 228 287 339 400
#     4  10  23  43  71  95 135 177 230 269 343 399
#
# _framework density 22.78557
#
# number of rings (size 3 to 8) (size 9 to 14) (size 15 to 20)
#    0.000    0.667    3.333    5.000    0.000    1.333 
#    0.000    0.833    0.000    0.000    0.000    0.000 
#    0.000    0.000    0.000    0.000    0.000    0.000 
#
# Total GULP energy -134026.062210 kJ/mol
# GULP energy per Si atom -5584.419259 kJ/mol
# Density = 2.273371 g / cm^3
# Si number density = 22.785570 Si / 1000 Ang^3
#
#
#
# Elastic Constant Matrix: (Units=GPa)
#
#
# Indices 1 2 3 4 5 6 
#
# 1 59.6951 16.0387 18.4377 0.0000 5.4104 0.0000
# 2 16.0387 119.0215 -5.6324 0.0000 13.3283 0.0000
# 3 18.4377 -5.6324 105.3381 0.0000 10.4725 0.0000
# 4 0.0000 0.0000 0.0000 19.6942 0.0000 5.7071
# 5 5.4104 13.3283 10.4725 0.0000 36.9709 0.0000
# 6 0.0000 0.0000 0.0000 5.7071 0.0000 29.8526
#
#
#
# Elastic Compliance Matrix: (Units=1/GPa)
#
#
# Indices 1 2 3 4 5 6 
#
# 1 0.018535 -0.002558 -0.003296 0.000000 -0.000857 0.000000
# 2 -0.002558 0.009175 0.001266 0.000000 -0.003292 0.000000
# 3 -0.003296 0.001266 0.010429 0.000000 -0.002928 0.000000
# 4 0.000000 0.000000 0.000000 0.053754 0.000000 -0.010277
# 5 -0.000857 -0.003292 -0.002928 0.000000 0.029190 0.000000
# 6 0.000000 0.000000 0.000000 -0.010277 0.000000 0.035463
#
#
# Mechanical properties :
#
#
# Convention : Reuss Voigt Hill
#
# Bulk Modulus (GPa) = 34.52710 37.97141 36.24925
# Shear Modulus (GPa) = 28.51031 34.31759 31.41395
#
# Velocity S-wave (km/s) = 3.54113 3.88507 3.71708
# Velocity P-wave (km/s) = 5.64849 6.06844 5.86222
#
# Compressibility (1/GPa) = 0.02896276
#
# Stress axis : x y z
#
# Youngs Moduli (GPa) = 53.95323 108.99165 95.88764
#
# Poissons Ratio (x) = 0.27876 0.31602
# Poissons Ratio (y) = 0.13799 -0.12135
# Poissons Ratio (z) = 0.17782 -0.13793
#
# Static dielectric constant tensor:
#      x y z
#    x 1.930940 0.000000 -0.043310 
#    y 0.000000 1.851470 0.000000 
#    z -0.043310 0.000000 1.856500 
# 
# From -- ./inp_files/211430.got.cif
#   From: 2010.05.17/outbox.cif.g08.bks.cpg/sg15_106_cif.got.tgz:211430.got - 2010.06.03 18:47:42.
