data_PCOD9295022
_publ_section_title
;
Structure prediction by ZEFSAII (Michael W. Deem and Ramdas Pophale) SiO2 
 PCOD9295022
Probable space group: C 2/C
;
_chemical_formula_sum "Si O2"
_cell_formula_units_Z 44
_cell_length_a 11.658904
_cell_length_b 15.225851
_cell_length_c 13.892348
_cell_angle_alpha 90.000000
_cell_angle_beta 119.049000
_cell_angle_gamma 90.000000
_cell_volume 2155.897598
_symmetry_space_group_name_H-M "C 2/C"
_symmetry_group_IT_number 15
_symmetry_cell_setting 'monoclinic'
loop_
_space_group_symop_operation_xyz
x,y,z
-x,y,1/2-z
-x,-y,-z
x,-y,1/2+z
1/2+x,1/2+y,z
1/2-x,1/2+y,1/2-z
1/2-x,1/2-y,-z
1/2+x,1/2-y,1/2+z
loop_
_atom_site_type_symbol
_atom_site_label
_atom_site_fract_x
_atom_site_fract_y
_atom_site_fract_z
Si Si1 0.726694 0.875048 0.244205
Si Si2 0.500000 0.104619 0.250000
Si Si3 0.740163 0.007631 0.921635
Si Si4 0.079112 0.263116 0.627884
Si Si5 0.463542 0.909144 0.043996
Si Si6 0.600861 0.604660 0.868688
O O1 0.782920 0.787835 0.317123
O O2 0.573554 0.893489 0.170018
O O3 0.779988 0.873313 0.155860
O O4 0.781010 0.952124 0.335944
O O5 0.390210 0.050362 0.149407
O O6 0.417961 0.166092 0.286600
O O7 0.679985 0.080504 0.968311
O O8 0.848527 0.954417 0.023992
O O9 0.038162 0.321607 0.521172
O O10 0.971950 0.189753 0.616563
O O11 0.500000 0.000000 0.000000
O O12 0.500000 0.563195 0.750000
#
# Coordination Sequence:
#
# PCOD9295022 Si02
#       6
#     8   4   8   8   8   8
#     4  11  22  42  63  96 134 165 215 270 318 386
#     4  12  20  38  64 100 114 168 222 260 312 382
#     4  12  24  40  69  95 129 170 218 264 327 383
#     4  11  24  39  64  95 129 169 214 264 324 377
#     4  12  22  41  65  96 128 171 213 269 320 381
#     4  10  23  42  61  96 133 168 215 263 321 385
#
# _framework density 20.409134000000002
#
# number of rings (size 3 to 8) (size 9 to 14) (size 15 to 20)
#    0.000    0.727    8.182    0.000    2.545    5.091 
#    0.000    1.818    0.000    0.000    0.000    0.000 
#    0.000    0.000    0.000    0.000    0.000    0.000 
#
# Total GULP energy -122665.182575 kJ/mol
# GULP energy per Si atom -5575.690117 kJ/mol
# Density = 2.036268 g / cm^3
# Si number density = 20.409134 Si / 1000 Ang^3
#
#
#
# Elastic Constant Matrix: (Units=GPa)
#
#
# Indices 1 2 3 4 5 6 
#
# 1 44.9661 25.5182 11.6518 0.0000 -6.1246 0.0000
# 2 25.5182 94.3598 70.1529 0.0000 -0.0703 0.0000
# 3 11.6518 70.1529 134.0990 0.0000 3.7684 0.0000
# 4 0.0000 0.0000 0.0000 41.2372 0.0000 -9.1688
# 5 -6.1246 -0.0703 3.7684 0.0000 30.6856 0.0000
# 6 0.0000 0.0000 0.0000 -9.1688 0.0000 29.4004
#
#
#
# Elastic Compliance Matrix: (Units=1/GPa)
#
#
# Indices 1 2 3 4 5 6 
#
# 1 0.027531 -0.009090 0.002217 0.000000 0.005202 0.000000
# 2 -0.009090 0.020385 -0.009859 0.000000 -0.000557 0.000000
# 3 0.002217 -0.009859 0.012453 0.000000 -0.001109 0.000000
# 4 0.000000 0.000000 0.000000 0.026057 0.000000 0.008126
# 5 0.005202 -0.000557 -0.001109 0.000000 0.033762 0.000000
# 6 0.000000 0.000000 0.000000 0.008126 0.000000 0.036547
#
#
# Mechanical properties :
#
#
# Convention : Reuss Voigt Hill
#
# Bulk Modulus (GPa) = 37.16586 54.23009 45.69798
# Shear Modulus (GPa) = 25.10437 31.33811 28.22124
#
# Velocity S-wave (km/s) = 3.51102 3.92279 3.72260
# Velocity P-wave (km/s) = 5.88951 6.86636 6.39661
#
# Compressibility (1/GPa) = 0.02690641
#
# Stress axis : x y z
#
# Youngs Moduli (GPa) = 36.32205 49.05506 80.29957
#
# Poissons Ratio (x) = 0.44590 -0.17801
# Poissons Ratio (y) = 0.33016 0.79167
# Poissons Ratio (z) = -0.08052 0.48363
#
# Static dielectric constant tensor:
#      x y z
#    x 1.809980 0.000000 -0.062160 
#    y 0.000000 1.734610 0.000000 
#    z -0.062160 0.000000 1.807530 
# 
# From -- ./inp_files/143889.got.cif
#   From: 2010.05.17/outbox.cif.g08.bks.cpg/sg15_72_cif.got.tgz:143889.got - 2010.06.03 18:47:42.
