data_PCOD9295230
_publ_section_title
;
Structure prediction by ZEFSAII (Michael W. Deem and Ramdas Pophale) SiO2 
 PCOD9295230
Probable space group: C 2/C
;
_chemical_formula_sum "Si O2"
_cell_formula_units_Z 40
_cell_length_a 24.315457
_cell_length_b 10.856321
_cell_length_c 5.515517
_cell_angle_alpha 90.000000
_cell_angle_beta 86.319479
_cell_angle_gamma 90.000000
_cell_volume 1452.963427
_symmetry_space_group_name_H-M "C 2/C"
_symmetry_group_IT_number 15
_symmetry_cell_setting 'monoclinic'
loop_
_space_group_symop_operation_xyz
x,y,z
-x,y,1/2-z
-x,-y,-z
x,-y,1/2+z
1/2+x,1/2+y,z
1/2-x,1/2+y,1/2-z
1/2-x,1/2-y,-z
1/2+x,1/2-y,1/2+z
loop_
_atom_site_type_symbol
_atom_site_label
_atom_site_fract_x
_atom_site_fract_y
_atom_site_fract_z
Si Si1 0.432189 0.295451 0.261214
Si Si2 0.426281 0.935711 0.213390
Si Si3 0.059989 0.857174 0.756279
Si Si4 0.285826 0.573588 0.116191
Si Si5 0.167167 0.660175 0.008943
O O1 0.500000 0.272312 0.250000
O O2 0.419520 0.388936 0.483902
O O3 0.386341 0.187698 0.304962
O O4 0.415489 0.355893 0.014052
O O5 0.445345 0.793116 0.199711
O O6 0.443726 0.989662 0.467228
O O7 0.360267 0.919731 0.197841
O O8 0.000000 0.914597 0.750000
O O9 0.297797 0.500420 0.860814
O O10 0.314579 0.707492 0.104281
O O11 0.220620 0.605481 0.118555
#
# Coordination Sequence:
#
# PCOD9295230 Si02
#       5
#     8   8   8   8   8
#     4   9  18  34  58  87 119 160 203 242 299 367
#     4  11  21  32  52  82 115 155 198 238 290 355
#     4   9  18  31  47  76 119 162 202 241 286 354
#     4  11  26  44  66  95 122 159 211 258 307 366
#     4  10  23  42  67  90 126 165 200 256 312 356
#
# _framework density 27.529941999999998
#
# number of rings (size 3 to 8) (size 9 to 14) (size 15 to 20)
#    0.000    2.000    0.000    3.600    0.000   12.000 
#    0.000    1.000    0.000    7.200    0.000    0.000 
#    0.000    0.000    0.000    0.000    0.000    0.000 
#
# Total GULP energy -111674.369561 kJ/mol
# GULP energy per Si atom -5583.718478 kJ/mol
# Density = 2.746728 g / cm^3
# Si number density = 27.529942 Si / 1000 Ang^3
#
#
#
# Elastic Constant Matrix: (Units=GPa)
#
#
# Indices 1 2 3 4 5 6 
#
# 1 160.8375 29.5358 41.2588 0.0000 23.1295 0.0000
# 2 29.5358 129.7587 44.1889 0.0000 -2.1411 0.0000
# 3 41.2588 44.1889 264.7757 0.0000 -5.7648 0.0000
# 4 0.0000 0.0000 0.0000 -46.9722 0.0000 -8.1260
# 5 23.1295 -2.1411 -5.7648 0.0000 37.2484 0.0000
# 6 0.0000 0.0000 0.0000 -8.1260 0.0000 42.5490
#
#
#
# Elastic Compliance Matrix: (Units=1/GPa)
#
#
# Indices 1 2 3 4 5 6 
#
# 1 0.007442 -0.001424 -0.001028 0.000000 -0.004862 0.000000
# 2 -0.001424 0.008446 -0.001162 0.000000 0.001190 0.000000
# 3 -0.001028 -0.001162 0.004157 0.000000 0.001215 0.000000
# 4 0.000000 0.000000 0.000000 -0.020608 0.000000 -0.003936
# 5 -0.004862 0.001190 0.001215 0.000000 0.030122 0.000000
# 6 0.000000 0.000000 0.000000 -0.003936 0.000000 0.022751
#
#
# Mechanical properties :
#
#
# Convention : Reuss Voigt Hill
#
# Bulk Modulus (GPa) = 78.01670 87.25988 82.63829
# Shear Modulus (GPa) = 78.35797 35.92425 57.14111
#
# Velocity S-wave (km/s) = 5.34084 3.61628 4.56082
# Velocity P-wave (km/s) = 8.15066 7.01440 7.60378
#
# Compressibility (1/GPa) = 0.01281777
#
# Stress axis : x y z
#
# Youngs Moduli (GPa) = 134.37580 118.39867 240.54205
#
# Poissons Ratio (x) = 0.16861 0.24723
# Poissons Ratio (y) = 0.19137 0.27945
# Poissons Ratio (z) = 0.13811 0.13755
#
# Static dielectric constant tensor:
#      x y z
#    x 2.147650 0.000000 -0.017730 
#    y 0.000000 2.275260 0.000000 
#    z -0.017730 0.000000 2.317780 
# 
# From -- ./inp_files/16750.got.cif
#   From: 2010.05.17/outbox.cif.g08.bks.cpg/sg15_9_cif.got.tgz:16750.got - 2010.06.03 18:47:42.
