data_PCOD9295460
_publ_section_title
;
Structure prediction by ZEFSAII (Michael W. Deem and Ramdas Pophale) SiO2 
 PCOD9295460
Probable space group: C 2/C
;
_chemical_formula_sum "Si O2"
_cell_formula_units_Z 32
_cell_length_a 11.622867
_cell_length_b 8.848481
_cell_length_c 14.862961
_cell_angle_alpha 90.000000
_cell_angle_beta 127.354605
_cell_angle_gamma 90.000000
_cell_volume 1215.059141
_symmetry_space_group_name_H-M "C 2/C"
_symmetry_group_IT_number 15
_symmetry_cell_setting 'monoclinic'
loop_
_space_group_symop_operation_xyz
x,y,z
-x,y,1/2-z
-x,-y,-z
x,-y,1/2+z
1/2+x,1/2+y,z
1/2-x,1/2+y,1/2-z
1/2-x,1/2-y,-z
1/2+x,1/2-y,1/2+z
loop_
_atom_site_type_symbol
_atom_site_label
_atom_site_fract_x
_atom_site_fract_y
_atom_site_fract_z
Si Si1 0.759347 0.038054 0.865439
Si Si2 0.071225 0.866134 0.432244
Si Si3 0.074049 0.569472 0.123949
Si Si4 0.842893 0.835838 0.636305
O O1 0.712173 0.163499 0.917845
O O2 0.913354 0.084261 0.894676
O O3 0.633223 0.030764 0.732877
O O4 0.808634 0.878197 0.931888
O O5 0.034729 0.695729 0.388950
O O6 0.126043 0.998038 0.392840
O O7 0.223854 0.635409 0.156344
O O8 0.000000 0.500000 0.000000
O O9 0.000000 0.803480 0.750000
#
# Coordination Sequence:
#
# PCOD9295460 Si02
#       4
#     8   8   8   8
#     4  10  23  42  72 108 148 198 254 320 378 450
#     4  10  23  43  72 106 149 204 255 313 382 456
#     4  11  26  44  74 110 160 195 249 326 389 449
#     4  11  23  44  76 105 149 197 260 308 382 463
#
# _framework density 26.336167
#
# number of rings (size 3 to 8) (size 9 to 14) (size 15 to 20)
#    0.000    1.500    2.500    0.750    7.000    5.000 
#    0.000    1.250    0.000    0.000    0.000    0.000 
#    0.000    0.000    0.000    0.000    0.000    0.000 
#
# Total GULP energy -89169.209191 kJ/mol
# GULP energy per Si atom -5573.075574 kJ/mol
# Density = 2.627622 g / cm^3
# Si number density = 26.336167 Si / 1000 Ang^3
#
#
#
# Elastic Constant Matrix: (Units=GPa)
#
#
# Indices 1 2 3 4 5 6 
#
# 1 80.1850 100.1731 337.7873 0.0000 310.2735 0.0000
# 2 100.1731 104.9869 -158.1481 0.0000 -214.1729 0.0000
# 3 337.7873 -158.1481-1649.0136 0.0000-1603.1148 0.0000
# 4 0.0000 0.0000 0.0000 49.2758 0.0000 -10.0969
# 5 310.2735 -214.1729-1603.1148 0.0000-1430.7228 0.0000
# 6 0.0000 0.0000 0.0000 -10.0969 0.0000 -89.0704
#
#
#
# Elastic Compliance Matrix: (Units=1/GPa)
#
#
# Indices 1 2 3 4 5 6 
#
# 1 0.009214 -0.005958 0.003928 0.000000 -0.001512 0.000000
# 2 -0.005958 0.014772 -0.008608 0.000000 0.006142 0.000000
# 3 0.003928 -0.008608 0.011837 0.000000 -0.011123 0.000000
# 4 0.000000 0.000000 0.000000 0.019833 0.000000 -0.002248
# 5 -0.001512 0.006142 -0.011123 0.000000 0.010517 0.000000
# 6 0.000000 0.000000 0.000000 -0.002248 0.000000 -0.010972
#
#
# Mechanical properties :
#
#
# Convention : Reuss Voigt Hill
#
# Bulk Modulus (GPa) = 68.73474 -100.46857 -15.86691
# Shear Modulus (GPa) = 61.48090 -410.34709 -174.43309
#
# Velocity S-wave (km/s) = 4.83687 -12.49598 -8.14721
# Velocity P-wave (km/s) = 7.57294 15.69811 9.72320
#
# Compressibility (1/GPa) = 0.01454868
#
# Stress axis : x y z
#
# Youngs Moduli (GPa) = 108.52485 67.69478 84.48101
#
# Poissons Ratio (x) = 0.40332 -0.33187
# Poissons Ratio (y) = 0.64659 0.72720
# Poissons Ratio (z) = -0.42633 0.58271
#
# Static dielectric constant tensor:
#      x y z
#    x 1.892710 0.000000 -0.157460 
#    y 0.000000 2.158750 0.000000 
#    z -0.157460 0.000000 2.106020 
# 
# From -- ./inp_files/242684.got.cif
#   From: 2010.05.17/outbox.cif.g08.bks.cpg/sg15_122_cif.got.tgz:242684.got - 2010.06.03 18:47:42.
