data_PCOD9295025
_publ_section_title
;
Structure prediction by ZEFSAII (Michael W. Deem and Ramdas Pophale) SiO2 
 PCOD9295025
Probable space group: C 2/C
;
_chemical_formula_sum "Si O2"
_cell_formula_units_Z 48
_cell_length_a 6.167191
_cell_length_b 25.446600
_cell_length_c 14.177382
_cell_angle_alpha 90.000000
_cell_angle_beta 70.854781
_cell_angle_gamma 90.000000
_cell_volume 2101.854708
_symmetry_space_group_name_H-M "C 2/C"
_symmetry_group_IT_number 15
_symmetry_cell_setting 'monoclinic'
loop_
_space_group_symop_operation_xyz
x,y,z
-x,y,1/2-z
-x,-y,-z
x,-y,1/2+z
1/2+x,1/2+y,z
1/2-x,1/2+y,1/2-z
1/2-x,1/2-y,-z
1/2+x,1/2-y,1/2+z
loop_
_atom_site_type_symbol
_atom_site_label
_atom_site_fract_x
_atom_site_fract_y
_atom_site_fract_z
Si Si1 0.000000 0.491795 0.750000
Si Si2 0.289494 0.924307 0.402667
Si Si3 0.000000 0.342280 0.250000
Si Si4 0.640174 0.650998 0.506798
Si Si5 0.096528 0.416393 0.907819
Si Si6 0.379589 0.685893 0.363530
Si Si7 0.935889 0.767677 0.159347
O O1 0.807903 0.529418 0.824267
O O2 0.085468 0.455885 0.823018
O O3 0.478743 0.881105 0.342748
O O4 0.349811 0.942813 0.499066
O O5 0.051677 0.892812 0.439332
O O6 0.226691 0.307408 0.212609
O O7 0.866277 0.618455 0.451324
O O8 0.545895 0.682472 0.428763
O O9 0.635098 0.695624 0.588144
O O10 0.290679 0.373051 0.863655
O O11 0.500000 0.702321 0.250000
O O12 0.163947 0.725489 0.400282
O O13 0.000000 0.741852 0.250000
#
# Coordination Sequence:
#
# PCOD9295025 Si02
#       7
#     4   8   4   8   8   8   8
#     4  11  22  40  66  88 122 158 200 255 308 354
#     4   9  21  41  62  89 119 159 203 251 301 359
#     4   9  18  38  60  86 126 158 202 253 292 346
#     4  10  23  42  62  89 124 161 201 252 303 358
#     4  11  23  40  63  88 124 158 200 250 305 363
#     4  11  24  40  60  87 127 164 205 246 298 360
#     4  11  22  36  62  91 121 164 208 245 296 356
#
# _framework density 22.836974999999999
#
# number of rings (size 3 to 8) (size 9 to 14) (size 15 to 20)
#    0.000    1.667    0.833    3.000    3.500    1.333 
#    0.000    5.000    0.000    0.000    0.000    0.000 
#    0.000    0.000    0.000    0.000    0.000    0.000 
#
# Total GULP energy -134152.832687 kJ/mol
# GULP energy per Si atom -5589.701362 kJ/mol
# Density = 2.278500 g / cm^3
# Si number density = 22.836975 Si / 1000 Ang^3
#
#
#
# Elastic Constant Matrix: (Units=GPa)
#
#
# Indices 1 2 3 4 5 6 
#
# 1 30.8863 4.6903 19.5752 0.0000 -5.2503 0.0000
# 2 4.6903 65.1608 44.5354 0.0000 -5.8070 0.0000
# 3 19.5752 44.5354 118.6856 0.0000 4.9432 0.0000
# 4 0.0000 0.0000 0.0000 40.0351 0.0000 -1.5007
# 5 -5.2503 -5.8070 4.9432 0.0000 26.6507 0.0000
# 6 0.0000 0.0000 0.0000 -1.5007 0.0000 0.5479
#
#
#
# Elastic Compliance Matrix: (Units=1/GPa)
#
#
# Indices 1 2 3 4 5 6 
#
# 1 0.038692 0.003693 -0.008181 0.000000 0.009945 0.000000
# 2 0.003693 0.021984 -0.009159 0.000000 0.007216 0.000000
# 3 -0.008181 -0.009159 0.013466 0.000000 -0.006105 0.000000
# 4 0.000000 0.000000 0.000000 0.027836 0.000000 0.076248
# 5 0.009945 0.007216 -0.006105 0.000000 0.042186 0.000000
# 6 0.000000 0.000000 0.000000 0.076248 0.000000 2.034165
#
#
# Mechanical properties :
#
#
# Convention : Reuss Voigt Hill
#
# Bulk Modulus (GPa) = 21.34613 39.14829 30.24721
# Shear Modulus (GPa) = 2.25100 23.17552 12.71326
#
# Velocity S-wave (km/s) = 0.99389 3.18909 2.36200
# Velocity P-wave (km/s) = 3.26873 5.54437 4.55108
#
# Compressibility (1/GPa) = 0.04684689
#
# Stress axis : x y z
#
# Youngs Moduli (GPa) = 25.84531 45.48825 74.26096
#
# Poissons Ratio (x) = -0.16799 0.60757
# Poissons Ratio (y) = -0.09545 0.68014
# Poissons Ratio (z) = 0.21145 0.41662
#
# Static dielectric constant tensor:
#      x y z
#    x 1.847580 0.000000 -0.022440 
#    y 0.000000 1.829380 0.000000 
#    z -0.022440 0.000000 1.877310 
# 
# From -- ./inp_files/130102.got.cif
#   From: 2010.05.17/outbox.cif.g08.bks.cpg/sg15_66_cif.got.tgz:130102.got - 2010.06.03 18:47:42.
