data_PCOD9295320
_publ_section_title
;
Structure prediction by ZEFSAII (Michael W. Deem and Ramdas Pophale) SiO2 
 PCOD9295320
Probable space group: C 2/C
;
_chemical_formula_sum "Si O2"
_cell_formula_units_Z 32
_cell_length_a 17.877018
_cell_length_b 8.141893
_cell_length_c 13.639976
_cell_angle_alpha 90.000000
_cell_angle_beta 37.260031
_cell_angle_gamma 90.000000
_cell_volume 1201.988758
_symmetry_space_group_name_H-M "C 2/C"
_symmetry_group_IT_number 15
_symmetry_cell_setting 'monoclinic'
loop_
_space_group_symop_operation_xyz
x,y,z
-x,y,1/2-z
-x,-y,-z
x,-y,1/2+z
1/2+x,1/2+y,z
1/2-x,1/2+y,1/2-z
1/2-x,1/2-y,-z
1/2+x,1/2-y,1/2+z
loop_
_atom_site_type_symbol
_atom_site_label
_atom_site_fract_x
_atom_site_fract_y
_atom_site_fract_z
Si Si1 0.074844 0.471543 0.769875
Si Si2 0.557829 0.341405 0.383923
Si Si3 0.762947 0.224955 0.632107
Si Si4 0.687878 0.492206 0.080095
O O1 0.007240 0.341558 0.910279
O O2 0.128870 0.637707 0.762204
O O3 0.206801 0.399213 0.591658
O O4 0.000000 0.507080 0.750000
O O5 0.500000 0.500000 0.500000
O O6 0.676735 0.295782 0.326073
O O7 0.583068 0.401843 0.247447
O O8 0.751758 0.407540 0.603431
O O9 0.846842 0.130167 0.463870
#
# Coordination Sequence:
#
# PCOD9295320 Si02
#       4
#     8   8   8   8
#     4  10  23  42  68  97 130 180 218 279 338 395
#     4  12  25  38  67 103 133 175 225 274 335 409
#     4   9  22  45  68  91 131 180 223 276 330 403
#     4   9  22  45  67  88 138 174 222 275 342 388
#
# _framework density 26.622543
#
# number of rings (size 3 to 8) (size 9 to 14) (size 15 to 20)
#    1.500    0.500    0.000    2.250    3.500    4.000 
#    0.000    3.750    0.000    0.000    0.000    0.000 
#    0.000    0.000    0.000    0.000    0.000    0.000 
#
# Total GULP energy -89162.834796 kJ/mol
# GULP energy per Si atom -5572.677175 kJ/mol
# Density = 2.656195 g / cm^3
# Si number density = 26.622543 Si / 1000 Ang^3
#
#
#
# Elastic Constant Matrix: (Units=GPa)
#
#
# Indices 1 2 3 4 5 6 
#
# 1 182.4738 26.0447 0.0852 0.0000 28.6410 0.0000
# 2 26.0447 98.1719 28.8460 -0.0134 7.6585 0.0081
# 3 0.0852 28.8460 109.3276 0.0005 37.7211 -0.0003
# 4 0.0000 -0.0134 0.0005-3482.9154 0.0029 2142.6324
# 5 28.6410 7.6585 37.7211 0.0029 26.0071 -0.0018
# 6 0.0000 0.0081 -0.0003 2142.6324 -0.0018-1257.9034
#
#
#
# Elastic Compliance Matrix: (Units=1/GPa)
#
#
# Indices 1 2 3 4 5 6 
#
# 1 0.009195 -0.003169 0.008009 0.000000 -0.020809 0.000000
# 2 -0.003169 0.012184 -0.006363 0.000000 0.009131 0.000000
# 3 0.008009 -0.006363 0.026455 0.000000 -0.045317 0.000000
# 4 0.000000 0.000000 0.000000 0.005999 0.000000 0.010217
# 5 -0.020809 0.009131 -0.045317 0.000000 0.124406 0.000000
# 6 0.000000 0.000000 0.000000 0.010217 0.000000 0.016609
#
#
# Mechanical properties :
#
#
# Convention : Reuss Voigt Hill
#
# Bulk Modulus (GPa) = 22.32769 55.54724 38.93746
# Shear Modulus (GPa) = 23.49360 -920.62919 -448.56779
#
# Velocity S-wave (km/s) = 2.97386 -18.61609 -12.99452
# Velocity P-wave (km/s) = 4.49408 21.00401 14.50813
#
# Compressibility (1/GPa) = 0.04478744
#
# Stress axis : x y z
#
# Youngs Moduli (GPa) = 108.75485 82.07286 37.80013
#
# Poissons Ratio (x) = 0.26011 -0.30273
# Poissons Ratio (y) = 0.34468 0.24051
# Poissons Ratio (z) = -0.87098 0.52221
#
# Static dielectric constant tensor:
#      x y z
#    x 2.025750 0.000000 -0.143510 
#    y 0.000000 2.351270 0.000000 
#    z -0.143510 0.000000 2.230430 
# 
# From -- ./inp_files/165986.got.cif
#   From: 2010.05.17/outbox.cif.g08.bks.cpg/sg15_83_cif.got.tgz:165986.got - 2010.06.03 18:47:42.
