data_PCOD9295546
_publ_section_title
;
Structure prediction by ZEFSAII (Michael W. Deem and Ramdas Pophale) SiO2 
 PCOD9295546
Probable space group: C 2/C
;
_chemical_formula_sum "Si O2"
_cell_formula_units_Z 40
_cell_length_a 10.271013
_cell_length_b 21.088521
_cell_length_c 9.240710
_cell_angle_alpha 90.000000
_cell_angle_beta 89.310499
_cell_angle_gamma 90.000000
_cell_volume 2001.397231
_symmetry_space_group_name_H-M "C 2/C"
_symmetry_group_IT_number 15
_symmetry_cell_setting 'monoclinic'
loop_
_space_group_symop_operation_xyz
x,y,z
-x,y,1/2-z
-x,-y,-z
x,-y,1/2+z
1/2+x,1/2+y,z
1/2-x,1/2+y,1/2-z
1/2-x,1/2-y,-z
1/2+x,1/2-y,1/2+z
loop_
_atom_site_type_symbol
_atom_site_label
_atom_site_fract_x
_atom_site_fract_y
_atom_site_fract_z
Si Si1 0.978544 0.599478 0.415518
Si Si2 0.398872 0.213932 0.621261
Si Si3 0.296794 0.975216 0.435127
Si Si4 0.628570 0.458774 0.163705
Si Si5 0.105403 0.812296 0.125782
O O1 0.111992 0.575888 0.488064
O O2 0.000000 0.619761 0.250000
O O3 0.919566 0.654733 0.513265
O O4 0.883081 0.538659 0.414830
O O5 0.500000 0.210430 0.750000
O O6 0.249105 0.209917 0.673126
O O7 0.420358 0.276165 0.523476
O O8 0.243957 0.953892 0.280877
O O9 0.177039 0.994053 0.539745
O O10 0.500000 0.480634 0.250000
O O11 0.603904 0.388143 0.105576
O O12 0.000000 0.796883 0.250000
#
# Coordination Sequence:
#
# PCOD9295546 Si02
#       5
#     8   8   8   8   8
#     4  11  22  37  64  94 129 157 208 272 317 372
#     4  11  23  42  69  95 123 172 219 266 317 375
#     4  11  22  38  62  96 123 167 210 258 324 368
#     4  11  22  41  62  91 133 172 207 256 315 391
#     4  10  23  43  64  92 134 168 212 266 315 382
#
# _framework density 19.986038000000001
#
# number of rings (size 3 to 8) (size 9 to 14) (size 15 to 20)
#    0.000    1.200    4.000    2.400    0.000    0.800 
#    0.000   13.000    0.000    0.000    0.000    0.000 
#    0.000    0.000    0.000    0.000    0.000    0.000 
#
# Total GULP energy -111875.532061 kJ/mol
# GULP energy per Si atom -5593.776603 kJ/mol
# Density = 1.994055 g / cm^3
# Si number density = 19.986038 Si / 1000 Ang^3
#
#
#
# Elastic Constant Matrix: (Units=GPa)
#
#
# Indices 1 2 3 4 5 6 
#
# 1 96.6418 25.7828 40.3810 0.0000 -19.9538 0.0000
# 2 25.7828 71.9082 31.5017 0.0000 -7.8213 0.0000
# 3 40.3810 31.5017 101.2649 0.0000 7.2781 0.0000
# 4 0.0000 0.0000 0.0000 19.4194 0.0000 2.5412
# 5 -19.9538 -7.8213 7.2781 0.0000 39.2766 0.0000
# 6 0.0000 0.0000 0.0000 2.5412 0.0000 13.8402
#
#
#
# Elastic Compliance Matrix: (Units=1/GPa)
#
#
# Indices 1 2 3 4 5 6 
#
# 1 0.015113 -0.001848 -0.006058 0.000000 0.008432 0.000000
# 2 -0.001848 0.017037 -0.004803 0.000000 0.003344 0.000000
# 3 -0.006058 -0.004803 0.014265 0.000000 -0.006677 0.000000
# 4 0.000000 0.000000 0.000000 0.052763 0.000000 -0.009688
# 5 0.008432 0.003344 -0.006677 0.000000 0.031648 0.000000
# 6 0.000000 0.000000 0.000000 -0.009688 0.000000 0.074032
#
#
# Mechanical properties :
#
#
# Convention : Reuss Voigt Hill
#
# Bulk Modulus (GPa) = 47.62607 51.68288 49.65448
# Shear Modulus (GPa) = 21.07269 25.98386 23.52827
#
# Velocity S-wave (km/s) = 3.25063 3.60960 3.43481
# Velocity P-wave (km/s) = 6.16200 6.57936 6.37409
#
# Compressibility (1/GPa) = 0.02099690
#
# Stress axis : x y z
#
# Youngs Moduli (GPa) = 66.16998 58.69512 70.10229
#
# Poissons Ratio (x) = 0.10845 0.42465
# Poissons Ratio (y) = 0.12227 0.33674
# Poissons Ratio (z) = 0.40083 0.28194
#
# Static dielectric constant tensor:
#      x y z
#    x 1.722030 0.000000 -0.007230 
#    y 0.000000 1.680040 0.000000 
#    z -0.007230 0.000000 1.664920 
# 
# From -- ./inp_files/23762.got.cif
#   From: 2010.05.17/outbox.cif.g08.bks.cpg/sg15_12_cif.got.tgz:23762.got - 2010.06.03 18:47:42.
