data_PCOD9295100
_publ_section_title
;
Structure prediction by ZEFSAII (Michael W. Deem and Ramdas Pophale) SiO2 
 PCOD9295100
Probable space group: C 2/C
;
_chemical_formula_sum "Si O2"
_cell_formula_units_Z 52
_cell_length_a 18.690883
_cell_length_b 28.587844
_cell_length_c 5.522508
_cell_angle_alpha 90.000000
_cell_angle_beta 49.933093
_cell_angle_gamma 90.000000
_cell_volume 2258.268057
_symmetry_space_group_name_H-M "C 2/C"
_symmetry_group_IT_number 15
_symmetry_cell_setting 'monoclinic'
loop_
_space_group_symop_operation_xyz
x,y,z
-x,y,1/2-z
-x,-y,-z
x,-y,1/2+z
1/2+x,1/2+y,z
1/2-x,1/2+y,1/2-z
1/2-x,1/2-y,-z
1/2+x,1/2-y,1/2+z
loop_
_atom_site_type_symbol
_atom_site_label
_atom_site_fract_x
_atom_site_fract_y
_atom_site_fract_z
Si Si1 0.602580 0.701978 0.410874
Si Si2 0.805707 0.389262 0.030115
Si Si3 0.392851 0.981583 0.943082
Si Si4 0.803128 0.893067 0.724917
Si Si5 0.105894 0.982886 0.819172
Si Si6 0.500000 0.264027 0.750000
Si Si7 0.338752 0.220898 0.410975
O O1 0.661993 0.659880 0.376957
O O2 0.578940 0.701134 0.182122
O O3 0.644391 0.752947 0.370815
O O4 0.500000 0.698700 0.750000
O O5 0.755058 0.393411 0.399744
O O6 0.887917 0.427262 0.878438
O O7 0.749170 0.404205 0.911381
O O8 0.826949 0.334338 0.951556
O O9 0.500000 0.996946 0.750000
O O10 0.350669 0.009236 0.803451
O O11 0.884766 0.930205 0.603321
O O12 0.147631 0.988016 0.456507
O O13 0.000000 0.000000 0.000000
O O14 0.564333 0.231762 0.441317
O O15 0.250000 0.250000 0.500000
#
# Coordination Sequence:
#
# PCOD9295100 Si02
#       7
#     8   8   8   8   8   4   8
#     4  10  24  42  68  98 139 185 239 293 342 428
#     4  12  27  43  73 107 138 186 230 294 351 433
#     4  10  23  47  72  99 136 176 223 289 356 419
#     4  12  26  43  68 103 138 188 237 281 362 415
#     4  10  23  42  64  95 133 182 231 293 343 407
#     4  10  24  42  68 102 136 192 238 296 352 432
#     4  11  23  46  69 103 147 187 240 296 365 419
#
# _framework density 23.026494
#
# number of rings (size 3 to 8) (size 9 to 14) (size 15 to 20)
#    0.000    1.231    1.538    2.769    6.462    8.000 
#    4.154    0.000    0.000    0.000    0.000    0.000 
#    0.000    0.000    0.000    0.000    0.000    0.000 
#
# Total GULP energy -144963.351226 kJ/mol
# GULP energy per Si atom -5575.513509 kJ/mol
# Density = 2.297408 g / cm^3
# Si number density = 23.026494 Si / 1000 Ang^3
#
#
#
# Elastic Constant Matrix: (Units=GPa)
#
#
# Indices 1 2 3 4 5 6 
#
# 1 113.8540 36.2198 41.5053 0.0000 38.2499 0.0000
# 2 36.2198 130.2177 10.0672 0.0000 13.8485 0.0000
# 3 41.5053 10.0672 100.0931 0.0000 19.0635 0.0000
# 4 0.0000 0.0000 0.0000 17.9839 0.0000 -3.3679
# 5 38.2499 13.8485 19.0635 0.0000 41.2618 0.0000
# 6 0.0000 0.0000 0.0000 -3.3679 0.0000 43.7260
#
#
#
# Elastic Compliance Matrix: (Units=1/GPa)
#
#
# Indices 1 2 3 4 5 6 
#
# 1 0.014670 -0.002623 -0.003725 0.000000 -0.010998 0.000000
# 2 -0.002623 0.008442 0.000346 0.000000 -0.000562 0.000000
# 3 -0.003725 0.000346 0.011913 0.000000 -0.002167 0.000000
# 4 0.000000 0.000000 0.000000 0.056419 0.000000 0.004346
# 5 -0.010998 -0.000562 -0.002167 0.000000 0.035621 0.000000
# 6 0.000000 0.000000 0.000000 0.004346 0.000000 0.023204
#
#
# Mechanical properties :
#
#
# Convention : Reuss Voigt Hill
#
# Bulk Modulus (GPa) = 43.43822 57.74994 50.59408
# Shear Modulus (GPa) = 29.42073 37.68584 33.55328
#
# Velocity S-wave (km/s) = 3.57836 4.04992 3.82142
# Velocity P-wave (km/s) = 5.99819 6.85590 6.44133
#
# Compressibility (1/GPa) = 0.02302120
#
# Stress axis : x y z
#
# Youngs Moduli (GPa) = 68.16443 118.45517 83.94009
#
# Poissons Ratio (x) = 0.31070 0.31266
# Poissons Ratio (y) = 0.17879 -0.02900
# Poissons Ratio (z) = 0.25390 -0.04093
#
# Static dielectric constant tensor:
#      x y z
#    x 1.963420 0.000000 0.115320 
#    y 0.000000 1.851690 0.000000 
#    z 0.115320 0.000000 2.072200 
# 
# From -- ./inp_files/11452.got.cif
#   From: 2010.05.17/outbox.cif.g08.bks.cpg/sg15_6_cif.got.tgz:11452.got - 2010.06.03 18:47:42.
