data_PCOD9295434
_publ_section_title
;
Structure prediction by ZEFSAII (Michael W. Deem and Ramdas Pophale) SiO2 
 PCOD9295434
Probable space group: C 2/C
;
_chemical_formula_sum "Si O2"
_cell_formula_units_Z 44
_cell_length_a 28.977159
_cell_length_b 7.616742
_cell_length_c 23.554304
_cell_angle_alpha 90.000000
_cell_angle_beta 17.284771
_cell_angle_gamma 90.000000
_cell_volume 1544.645441
_symmetry_space_group_name_H-M "C 2/C"
_symmetry_group_IT_number 15
_symmetry_cell_setting 'monoclinic'
loop_
_space_group_symop_operation_xyz
x,y,z
-x,y,1/2-z
-x,-y,-z
x,-y,1/2+z
1/2+x,1/2+y,z
1/2-x,1/2+y,1/2-z
1/2-x,1/2-y,-z
1/2+x,1/2-y,1/2+z
loop_
_atom_site_type_symbol
_atom_site_label
_atom_site_fract_x
_atom_site_fract_y
_atom_site_fract_z
Si Si1 0.873213 0.481022 0.976090
Si Si2 0.257565 0.964417 0.823263
Si Si3 0.000000 0.237609 0.750000
Si Si4 0.587704 0.563140 0.745626
Si Si5 0.728816 0.218781 0.592119
Si Si6 0.841759 0.110334 0.674143
O O1 0.018426 0.379388 0.780378
O O2 0.742284 0.366149 0.093936
O O3 0.872847 0.676862 0.952044
O O4 0.800019 0.476179 0.123353
O O5 0.361094 0.807161 0.676291
O O6 0.305432 0.055670 0.826227
O O7 0.223047 0.101833 0.813491
O O8 0.085668 0.879995 0.035341
O O9 0.105609 0.089201 0.657663
O O10 0.596015 0.364877 0.759493
O O11 0.750000 0.250000 0.500000
O O12 0.000000 0.000000 0.500000
#
# Coordination Sequence:
#
# PCOD9295434 Si02
#       6
#     8   8   4   8   8   8
#     4  10  24  42  70 113 154 202 277 332 414 492
#     4  12  25  48  81 109 166 227 266 358 417 482
#     4  12  20  42  76 114 156 222 262 350 412 494
#     4  10  23  42  71 108 160 198 290 317 419 490
#     4  10  24  45  70 115 163 209 278 340 412 502
#     4  12  25  50  79 119 161 213 288 336 416 514
#
# _framework density 28.485499000000001
#
# number of rings (size 3 to 8) (size 9 to 14) (size 15 to 20)
#    1.091    0.000    3.636    2.727    0.000    1.455 
#    0.000   10.000    0.000    0.000    0.000    0.000 
#    0.000    0.000    0.000    0.000    0.000    0.000 
#
# Total GULP energy -122505.131542 kJ/mol
# GULP energy per Si atom -5568.415070 kJ/mol
# Density = 2.842067 g / cm^3
# Si number density = 28.485499 Si / 1000 Ang^3
#
#
#
# Elastic Constant Matrix: (Units=GPa)
#
#
# Indices 1 2 3 4 5 6 
#
# 1 183.7827 60.6756 28.8793 0.0011 33.0006 -0.0006
# 2 60.6756 153.6094 26.1439 -0.0110 9.0642 0.0029
# 3 28.8793 26.1439 89.9322 -0.0075 6.9618 0.0027
# 4 0.0011 -0.0110 -0.0075 46.5664 -0.0004 2.0401
# 5 33.0006 9.0642 6.9618 -0.0004 55.3337 0.0006
# 6 -0.0006 0.0029 0.0027 2.0401 0.0006 58.3854
#
#
#
# Elastic Compliance Matrix: (Units=1/GPa)
#
#
# Indices 1 2 3 4 5 6 
#
# 1 0.007085 -0.002360 -0.001305 -0.000001 -0.003675 0.000000
# 2 -0.002360 0.007677 -0.001500 0.000002 0.000338 0.000000
# 3 -0.001305 -0.001500 0.012012 0.000002 -0.000487 -0.000001
# 4 -0.000001 0.000002 0.000002 0.021508 0.000000 -0.000752
# 5 -0.003675 0.000338 -0.000487 0.000000 0.020270 0.000000
# 6 0.000000 0.000000 -0.000001 -0.000752 0.000000 0.017154
#
#
# Mechanical properties :
#
#
# Convention : Reuss Voigt Hill
#
# Bulk Modulus (GPa) = 60.80728 73.19133 66.99930
# Shear Modulus (GPa) = 49.25254 52.83212 51.04233
#
# Velocity S-wave (km/s) = 4.16268 4.31130 4.23764
# Velocity P-wave (km/s) = 6.67061 7.10866 6.89311
#
# Compressibility (1/GPa) = 0.01644540
#
# Stress axis : x y z
#
# Youngs Moduli (GPa) = 141.14002 130.25088 83.24760
#
# Poissons Ratio (x) = 0.30736 0.10862
# Poissons Ratio (y) = 0.33305 0.12490
# Poissons Ratio (z) = 0.18415 0.19542
#
# Static dielectric constant tensor:
#      x y z
#    x 2.182390 0.000000 -0.583830 
#    y 0.000000 2.462340 -0.000010 
#    z -0.583830 -0.000010 -0.081740 
# 
# From -- ./inp_files/284361.got.cif
#   From: 2010.05.17/outbox.cif.g08.bks.cpg/sg15_143_cif.got.tgz:284361.got - 2010.06.03 18:47:42.
