data_PCOD9295756
_publ_section_title
;
Structure prediction by ZEFSAII (Michael W. Deem and Ramdas Pophale) SiO2 
 PCOD9295756
Probable space group: C 2/C
;
_chemical_formula_sum "Si O2"
_cell_formula_units_Z 40
_cell_length_a 27.820318
_cell_length_b 13.828980
_cell_length_c 15.786733
_cell_angle_alpha 90.000000
_cell_angle_beta 16.927677
_cell_angle_gamma 90.000000
_cell_volume 1768.408957
_symmetry_space_group_name_H-M "C 2/C"
_symmetry_group_IT_number 15
_symmetry_cell_setting 'monoclinic'
loop_
_space_group_symop_operation_xyz
x,y,z
-x,y,1/2-z
-x,-y,-z
x,-y,1/2+z
1/2+x,1/2+y,z
1/2-x,1/2+y,1/2-z
1/2-x,1/2-y,-z
1/2+x,1/2-y,1/2+z
loop_
_atom_site_type_symbol
_atom_site_label
_atom_site_fract_x
_atom_site_fract_y
_atom_site_fract_z
Si Si1 0.197839 0.605629 0.654231
Si Si2 0.689174 0.770970 0.909968
Si Si3 0.181244 0.395525 0.657296
Si Si4 0.904082 0.102999 0.146222
Si Si5 0.230095 0.797540 0.150301
O O1 0.275537 0.685434 0.582614
O O2 0.254924 0.494397 0.569020
O O3 0.253755 0.619042 0.464149
O O4 0.003062 0.608147 0.996511
O O5 0.817063 0.860831 0.706809
O O6 0.725164 0.719896 0.758607
O O7 0.500000 0.800847 0.250000
O O8 0.280888 0.304641 0.524545
O O9 0.174926 0.380061 0.565188
O O10 0.042874 0.178968 0.939442
O O11 0.000000 0.000000 0.000000
#
# Coordination Sequence:
#
# PCOD9295756 Si02
#       5
#     8   8   8   8   8
#     4  11  22  43  71  98 141 185 233 291 363 421
#     4  12  25  42  75 108 142 192 250 301 355 436
#     4  10  23  43  68  99 143 187 228 301 361 413
#     4  12  24  46  75 103 144 194 236 299 367 430
#     4  11  23  45  68 101 142 185 244 292 357 425
#
# _framework density 22.619202000000001
#
# number of rings (size 3 to 8) (size 9 to 14) (size 15 to 20)
#    0.000    0.800    6.000    1.800    0.000    2.400 
#    0.000    0.000    0.000    0.000    0.000    0.000 
#    0.000    0.000    0.000    0.000    0.000    0.000 
#
# Total GULP energy -111406.149672 kJ/mol
# GULP energy per Si atom -5570.307484 kJ/mol
# Density = 2.256772 g / cm^3
# Si number density = 22.619202 Si / 1000 Ang^3
#
#
#
# Elastic Constant Matrix: (Units=GPa)
#
#
# Indices 1 2 3 4 5 6 
#
# 1 80.1188 35.4135 36.7221 0.0004 14.2723 -0.0002
# 2 35.4135 148.9280 6.3800 0.0006 -9.9964 -0.0005
# 3 36.7221 6.3800 124.5101 0.0007 19.6801 -0.0006
# 4 0.0004 0.0006 0.0007 32.3048 -0.0003 0.5853
# 5 14.2723 -9.9964 19.6801 -0.0003 38.6187 0.0002
# 6 -0.0002 -0.0005 -0.0006 0.5853 0.0002 16.1491
#
#
#
# Elastic Compliance Matrix: (Units=1/GPa)
#
#
# Indices 1 2 3 4 5 6 
#
# 1 0.017163 -0.004274 -0.003987 0.000000 -0.005418 0.000000
# 2 -0.004274 0.007952 0.000302 0.000000 0.003484 0.000000
# 3 -0.003987 0.000302 0.009730 0.000000 -0.003407 0.000000
# 4 0.000000 0.000000 0.000000 0.030975 0.000000 -0.001123
# 5 -0.005418 0.003484 -0.003407 0.000000 0.030534 -0.000001
# 6 0.000000 0.000000 0.000000 -0.001123 -0.000001 0.061964
#
#
# Mechanical properties :
#
#
# Convention : Reuss Voigt Hill
#
# Bulk Modulus (GPa) = 52.82975 56.73199 54.78087
# Shear Modulus (GPa) = 27.69402 35.75062 31.72232
#
# Velocity S-wave (km/s) = 3.50288 3.97992 3.74899
# Velocity P-wave (km/s) = 6.30611 6.80114 6.55830
#
# Compressibility (1/GPa) = 0.01892873
#
# Stress axis : x y z
#
# Youngs Moduli (GPa) = 58.26486 125.75671 102.77222
#
# Poissons Ratio (x) = 0.53749 0.40971
# Poissons Ratio (y) = 0.24903 -0.03108
# Poissons Ratio (z) = 0.23228 -0.03804
#
# Static dielectric constant tensor:
#      x y z
#    x 1.905020 0.000000 0.045950 
#    y 0.000000 1.958350 0.000000 
#    z 0.045950 0.000000 1.899850 
# 
# From -- ./inp_files/178284.got.cif
#   From: 2010.05.17/outbox.cif.g08.bks.cpg/sg15_90_cif.got.tgz:178284.got - 2010.06.03 18:47:42.
