data_PCOD9295143
_publ_section_title
;
Structure prediction by ZEFSAII (Michael W. Deem and Ramdas Pophale) SiO2 
 PCOD9295143
Probable space group: C 2/C
;
_chemical_formula_sum "Si O2"
_cell_formula_units_Z 48
_cell_length_a 9.275500
_cell_length_b 11.180338
_cell_length_c 22.294002
_cell_angle_alpha 90.000000
_cell_angle_beta 66.486802
_cell_angle_gamma 90.000000
_cell_volume 2119.993713
_symmetry_space_group_name_H-M "C 2/C"
_symmetry_group_IT_number 15
_symmetry_cell_setting 'monoclinic'
loop_
_space_group_symop_operation_xyz
x,y,z
-x,y,1/2-z
-x,-y,-z
x,-y,1/2+z
1/2+x,1/2+y,z
1/2-x,1/2+y,1/2-z
1/2-x,1/2-y,-z
1/2+x,1/2-y,1/2+z
loop_
_atom_site_type_symbol
_atom_site_label
_atom_site_fract_x
_atom_site_fract_y
_atom_site_fract_z
Si Si1 0.397673 0.595006 0.093716
Si Si2 0.468114 0.324470 0.052996
Si Si3 0.686499 0.326003 0.626786
Si Si4 0.500000 0.440696 0.250000
Si Si5 0.000000 0.660526 0.750000
Si Si6 0.421594 0.775361 0.841814
Si Si7 0.312934 0.962122 0.708440
O O1 0.405871 0.452529 0.086457
O O2 0.540884 0.636761 0.111055
O O3 0.229587 0.642630 0.143016
O O4 0.430275 0.650384 0.022426
O O5 0.314225 0.245064 0.067255
O O6 0.558683 0.258131 0.091622
O O7 0.620572 0.241876 0.691805
O O8 0.775151 0.436954 0.644303
O O9 0.585729 0.349431 0.191330
O O10 0.366347 0.518592 0.239686
O O11 0.908434 0.575310 0.717848
O O12 0.578406 0.847481 0.795840
#
# Coordination Sequence:
#
# PCOD9295143 Si02
#       7
#     8   8   8   4   4   8   8
#     4  11  23  43  68  94 129 173 223 275 321 384
#     4  10  23  42  65  95 133 175 221 271 326 380
#     4  11  24  41  65  96 130 171 216 265 325 389
#     4  12  24  40  62  92 128 166 206 262 326 388
#     4  12  24  40  62  92 128 166 206 262 326 388
#     4  11  24  41  65  96 130 171 216 265 325 389
#     4  11  24  39  59  89 124 159 204 255 315 388
#
# _framework density 22.641576000000001
#
# number of rings (size 3 to 8) (size 9 to 14) (size 15 to 20)
#    0.000    1.000    0.000    7.000    0.000    6.667 
#    0.000    0.000    0.000   14.000    0.000    0.000 
#    0.000    0.000    0.000    0.000    0.000    0.000 
#
# Total GULP energy -134241.660567 kJ/mol
# GULP energy per Si atom -5593.402524 kJ/mol
# Density = 2.259004 g / cm^3
# Si number density = 22.641576 Si / 1000 Ang^3
#
#
#
# Elastic Constant Matrix: (Units=GPa)
#
#
# Indices 1 2 3 4 5 6 
#
# 1 177.6103 67.0066 31.1820 0.0000 3.2021 0.0000
# 2 67.0066 105.7907 29.5044 0.0000 -5.7210 0.0000
# 3 31.1820 29.5044 60.1598 0.0000 2.7930 0.0000
# 4 0.0000 0.0000 0.0000 34.7315 0.0000 -3.5700
# 5 3.2021 -5.7210 2.7930 0.0000 39.1488 0.0000
# 6 0.0000 0.0000 0.0000 -3.5700 0.0000 38.6590
#
#
#
# Elastic Compliance Matrix: (Units=1/GPa)
#
#
# Indices 1 2 3 4 5 6 
#
# 1 0.007616 -0.004402 -0.001736 0.000000 -0.001142 0.000000
# 2 -0.004402 0.013651 -0.004538 0.000000 0.002679 0.000000
# 3 -0.001736 -0.004538 0.019838 0.000000 -0.001936 0.000000
# 4 0.000000 0.000000 0.000000 0.029068 0.000000 0.002684
# 5 -0.001142 0.002679 -0.001936 0.000000 0.026167 0.000000
# 6 0.000000 0.000000 0.000000 0.002684 0.000000 0.026115
#
#
# Mechanical properties :
#
#
# Convention : Reuss Voigt Hill
#
# Bulk Modulus (GPa) = 50.62252 66.54967 58.58610
# Shear Modulus (GPa) = 33.24684 36.89906 35.07295
#
# Velocity S-wave (km/s) = 3.83612 4.04134 3.94007
# Velocity P-wave (km/s) = 6.48289 7.15773 6.82865
#
# Compressibility (1/GPa) = 0.01975405
#
# Stress axis : x y z
#
# Youngs Moduli (GPa) = 131.29766 73.25441 50.40951
#
# Poissons Ratio (x) = 0.32245 0.08750
# Poissons Ratio (y) = 0.57794 0.22875
# Poissons Ratio (z) = 0.22792 0.33241
#
# Static dielectric constant tensor:
#      x y z
#    x 1.818300 0.000000 0.016670 
#    y 0.000000 1.807100 0.000000 
#    z 0.016670 0.000000 1.880260 
# 
# From -- ./inp_files/263519.got.cif
#   From: 2010.05.17/outbox.cif.g08.bks.cpg/sg15_132_cif.got.tgz:263519.got - 2010.06.03 18:47:42.
