data_PCOD9295405
_publ_section_title
;
Structure prediction by ZEFSAII (Michael W. Deem and Ramdas Pophale) SiO2 
 PCOD9295405
Probable space group: C 2/C
;
_chemical_formula_sum "Si O2"
_cell_formula_units_Z 44
_cell_length_a 14.754505
_cell_length_b 10.553183
_cell_length_c 12.483496
_cell_angle_alpha 90.000000
_cell_angle_beta 103.892891
_cell_angle_gamma 90.000000
_cell_volume 1886.905171
_symmetry_space_group_name_H-M "C 2/C"
_symmetry_group_IT_number 15
_symmetry_cell_setting 'monoclinic'
loop_
_space_group_symop_operation_xyz
x,y,z
-x,y,1/2-z
-x,-y,-z
x,-y,1/2+z
1/2+x,1/2+y,z
1/2-x,1/2+y,1/2-z
1/2-x,1/2-y,-z
1/2+x,1/2-y,1/2+z
loop_
_atom_site_type_symbol
_atom_site_label
_atom_site_fract_x
_atom_site_fract_y
_atom_site_fract_z
Si Si1 0.401830 0.039933 0.419694
Si Si2 0.372902 0.833097 0.689133
Si Si3 0.792730 0.587196 0.580318
Si Si4 0.174094 0.279686 0.192642
Si Si5 0.407035 0.480337 0.904725
Si Si6 0.000000 0.130065 0.750000
O O1 0.349791 0.910638 0.372047
O O2 0.500000 0.000000 0.500000
O O3 0.415369 0.114328 0.312315
O O4 0.332307 0.122609 0.475188
O O5 0.275852 0.768096 0.690540
O O6 0.436231 0.722382 0.659609
O O7 0.350042 0.956336 0.614999
O O8 0.824661 0.685637 0.680757
O O9 0.685064 0.544311 0.567286
O O10 0.109424 0.165717 0.132698
O O11 0.428847 0.550758 0.799710
O O12 0.500000 0.500000 0.000000
#
# Coordination Sequence:
#
# PCOD9295405 Si02
#       6
#     8   8   8   8   8   4
#     4  11  25  42  72 101 132 183 242 282 343 415
#     4  10  23  42  70  98 136 185 221 290 352 408
#     4  10  23  46  70  99 136 184 233 284 350 413
#     4  10  24  46  65 101 140 182 229 286 350 411
#     4  11  27  41  72 107 138 187 229 287 355 405
#     4  12  24  46  68 100 146 174 234 288 350 414
#
# _framework density 23.318605999999999
#
# number of rings (size 3 to 8) (size 9 to 14) (size 15 to 20)
#    0.000    1.455    1.818    1.091    7.636    5.818 
#    0.000    0.000    0.000    0.000    0.000    0.000 
#    0.000    0.000    0.000    0.000    0.000    0.000 
#
# Total GULP energy -123017.604783 kJ/mol
# GULP energy per Si atom -5591.709308 kJ/mol
# Density = 2.326553 g / cm^3
# Si number density = 23.318606 Si / 1000 Ang^3
#
#
#
# Elastic Constant Matrix: (Units=GPa)
#
#
# Indices 1 2 3 4 5 6 
#
# 1 91.5589 13.9721 33.7987 0.0000 -0.1216 0.0000
# 2 13.9721 83.8371 18.9369 0.0000 7.0815 0.0000
# 3 33.7987 18.9369 76.9363 0.0000 8.1192 0.0000
# 4 0.0000 0.0000 0.0000 10.5032 0.0000 9.5152
# 5 -0.1216 7.0815 8.1192 0.0000 42.4917 0.0000
# 6 0.0000 0.0000 0.0000 9.5152 0.0000 38.8592
#
#
#
# Elastic Compliance Matrix: (Units=1/GPa)
#
#
# Indices 1 2 3 4 5 6 
#
# 1 0.013174 -0.001024 -0.005672 0.000000 0.001292 0.000000
# 2 -0.001024 0.012809 -0.002529 0.000000 -0.001655 0.000000
# 3 -0.005672 -0.002529 0.016400 0.000000 -0.002728 0.000000
# 4 0.000000 0.000000 0.000000 0.122349 0.000000 -0.029959
# 5 0.001292 -0.001655 -0.002728 0.000000 0.024335 0.000000
# 6 0.000000 0.000000 0.000000 -0.029959 0.000000 0.033070
#
#
# Mechanical properties :
#
#
# Convention : Reuss Voigt Hill
#
# Bulk Modulus (GPa) = 41.77979 42.86086 42.32033
# Shear Modulus (GPa) = 20.11567 30.74579 25.43073
#
# Velocity S-wave (km/s) = 2.94027 3.63507 3.30597
# Velocity P-wave (km/s) = 5.42980 6.00323 5.72370
#
# Compressibility (1/GPa) = 0.02393501
#
# Stress axis : x y z
#
# Youngs Moduli (GPa) = 75.90984 78.06773 60.97669
#
# Poissons Ratio (x) = 0.07990 0.34584
# Poissons Ratio (y) = 0.07769 0.15419
# Poissons Ratio (z) = 0.43053 0.19741
#
# Static dielectric constant tensor:
#      x y z
#    x 1.851910 0.000000 0.019220 
#    y 0.000000 2.036330 0.000000 
#    z 0.019220 0.000000 2.016060 
# 
# From -- ./inp_files/94982.got.cif
#   From: 2010.05.17/outbox.cif.g08.bks.cpg/sg15_48_cif.got.tgz:94982.got - 2010.06.03 18:47:42.
