data_PCOD9295030
_publ_section_title
;
Structure prediction by ZEFSAII (Michael W. Deem and Ramdas Pophale) SiO2 
 PCOD9295030
Probable space group: C 2/C
;
_chemical_formula_sum "Si O2"
_cell_formula_units_Z 56
_cell_length_a 11.418417
_cell_length_b 8.513367
_cell_length_c 27.383300
_cell_angle_alpha 90.000000
_cell_angle_beta 117.977607
_cell_angle_gamma 90.000000
_cell_volume 2350.813489
_symmetry_space_group_name_H-M "C 2/C"
_symmetry_group_IT_number 15
_symmetry_cell_setting 'monoclinic'
loop_
_space_group_symop_operation_xyz
x,y,z
-x,y,1/2-z
-x,-y,-z
x,-y,1/2+z
1/2+x,1/2+y,z
1/2-x,1/2+y,1/2-z
1/2-x,1/2-y,-z
1/2+x,1/2-y,1/2+z
loop_
_atom_site_type_symbol
_atom_site_label
_atom_site_fract_x
_atom_site_fract_y
_atom_site_fract_z
Si Si1 0.733070 0.259709 0.322720
Si Si2 0.074276 0.582754 0.969807
Si Si3 0.071154 0.917126 0.573357
Si Si4 0.000000 0.546950 0.750000
Si Si5 0.000000 0.058698 0.750000
Si Si6 0.450569 0.034659 0.350557
Si Si7 0.173673 0.081419 0.985701
Si Si8 0.219123 0.197796 0.275121
O O1 0.804804 0.129431 0.368807
O O2 0.591590 0.342589 0.305937
O O3 0.849251 0.388350 0.338633
O O4 0.712682 0.201458 0.264061
O O5 0.015987 0.756599 0.951131
O O6 0.050657 0.486378 0.914648
O O7 0.226675 0.553645 0.012520
O O8 0.000000 0.500000 0.000000
O O9 0.134398 0.953701 0.533583
O O10 0.967360 0.052631 0.568913
O O11 0.991093 0.474792 0.693065
O O12 0.130667 0.654808 0.771165
O O13 0.112569 0.944266 0.750428
O O14 0.343214 0.173438 0.334888
O O15 0.250000 0.250000 0.000000
#
# Coordination Sequence:
#
# PCOD9295030 Si02
#       8
#     8   8   8   4   4   8   8   8
#     4   9  19  36  59  88 120 157 203 249 317 379
#     4  11  22  43  65  92 128 175 215 269 326 385
#     4  10  23  42  62  93 127 168 217 271 324 387
#     4   9  18  37  56  80 118 153 192 251 316 368
#     4   9  18  33  56  80 116 153 190 243 304 376
#     4   9  20  37  59  88 120 157 208 253 312 380
#     4  11  23  42  64  88 126 167 218 274 323 383
#     4   9  18  35  54  83 116 148 192 250 303 378
#
# _framework density 23.821542000000001
#
# number of rings (size 3 to 8) (size 9 to 14) (size 15 to 20)
#    0.000    2.286    1.429    0.429    0.000    4.000 
#   12.857    2.857    0.000    0.000    0.000    0.000 
#    0.000    0.000    0.000    0.000    0.000    0.000 
#
# Total GULP energy -156053.750246 kJ/mol
# GULP energy per Si atom -5573.348223 kJ/mol
# Density = 2.376732 g / cm^3
# Si number density = 23.821542 Si / 1000 Ang^3
#
#
#
# Elastic Constant Matrix: (Units=GPa)
#
#
# Indices 1 2 3 4 5 6 
#
# 1 118.7030 25.4554 34.1252 0.0000 11.9611 0.0000
# 2 25.4554 77.8509 13.5850 0.0000 12.8669 0.0000
# 3 34.1252 13.5850 71.1817 0.0000 9.9648 0.0000
# 4 0.0000 0.0000 0.0000 32.1753 0.0000 10.7241
# 5 11.9611 12.8669 9.9648 0.0000 38.6034 0.0000
# 6 0.0000 0.0000 0.0000 10.7241 0.0000 16.9231
#
#
#
# Elastic Compliance Matrix: (Units=1/GPa)
#
#
# Indices 1 2 3 4 5 6 
#
# 1 0.010307 -0.002408 -0.004302 0.000000 -0.001280 0.000000
# 2 -0.002408 0.014446 -0.001072 0.000000 -0.003792 0.000000
# 3 -0.004302 -0.001072 0.016682 0.000000 -0.002616 0.000000
# 4 0.000000 0.000000 0.000000 0.039402 0.000000 -0.024969
# 5 -0.001280 -0.003792 -0.002616 0.000000 0.028240 0.000000
# 6 0.000000 0.000000 0.000000 -0.024969 0.000000 0.074913
#
#
# Mechanical properties :
#
#
# Convention : Reuss Voigt Hill
#
# Bulk Modulus (GPa) = 38.65351 46.00741 42.33046
# Shear Modulus (GPa) = 24.01796 30.51170 27.26483
#
# Velocity S-wave (km/s) = 3.17873 3.58277 3.38678
# Velocity P-wave (km/s) = 5.45289 6.03906 5.75345
#
# Compressibility (1/GPa) = 0.02587087
#
# Stress axis : x y z
#
# Youngs Moduli (GPa) = 97.02558 69.22267 59.94528
#
# Poissons Ratio (x) = 0.16666 0.25790
# Poissons Ratio (y) = 0.23360 0.06426
# Poissons Ratio (z) = 0.41744 0.07420
#
# Static dielectric constant tensor:
#      x y z
#    x 1.869680 0.000000 0.063260 
#    y 0.000000 2.016860 0.000000 
#    z 0.063260 0.000000 1.850950 
# 
# From -- ./inp_files/310412.got.cif
#   From: 2010.05.17/outbox.cif.g08.bks.cpg/sg15_156_cif.got.tgz:310412.got - 2010.06.03 18:47:42.
