data_PCOD9295363
_publ_section_title
;
Structure prediction by ZEFSAII (Michael W. Deem and Ramdas Pophale) SiO2 
 PCOD9295363
Probable space group: C 2/C
;
_chemical_formula_sum "Si O2"
_cell_formula_units_Z 44
_cell_length_a 21.734264
_cell_length_b 15.739987
_cell_length_c 5.443382
_cell_angle_alpha 90.000000
_cell_angle_beta 108.705133
_cell_angle_gamma 90.000000
_cell_volume 1763.808172
_symmetry_space_group_name_H-M "C 2/C"
_symmetry_group_IT_number 15
_symmetry_cell_setting 'monoclinic'
loop_
_space_group_symop_operation_xyz
x,y,z
-x,y,1/2-z
-x,-y,-z
x,-y,1/2+z
1/2+x,1/2+y,z
1/2-x,1/2+y,1/2-z
1/2-x,1/2-y,-z
1/2+x,1/2-y,1/2+z
loop_
_atom_site_type_symbol
_atom_site_label
_atom_site_fract_x
_atom_site_fract_y
_atom_site_fract_z
Si Si1 0.660937 0.047555 0.090817
Si Si2 0.173453 0.729230 0.614556
Si Si3 0.114514 0.849716 0.176918
Si Si4 0.276513 0.381949 0.482713
Si Si5 0.500000 0.554382 0.750000
Si Si6 0.571210 0.195956 0.828820
O O1 0.737764 0.064640 0.138188
O O2 0.623054 0.136227 0.030802
O O3 0.643252 0.995567 0.823262
O O4 0.166660 0.784399 0.363227
O O5 0.220166 0.648795 0.718232
O O6 0.100648 0.702665 0.594715
O O7 0.196881 0.798417 0.844501
O O8 0.159790 0.913848 0.079116
O O9 0.066170 0.891009 0.310086
O O10 0.071362 0.789353 0.948371
O O11 0.500000 0.500000 0.500000
O O12 0.500000 0.158900 0.750000
#
# Coordination Sequence:
#
# PCOD9295363 Si02
#       6
#     8   8   8   8   4   8
#     4  11  27  45  64 101 146 183 226 287 347 409
#     4   9  19  38  65 106 126 167 236 289 326 401
#     4  11  23  42  77  95 135 181 235 281 338 408
#     4   9  21  38  67  97 134 173 228 281 341 403
#     4  12  32  50  68 104 148 178 226 284 342 418
#     4  10  23  42  70 100 130 184 239 281 338 402
#
# _framework density 24.946023
#
# number of rings (size 3 to 8) (size 9 to 14) (size 15 to 20)
#    0.000    1.818    0.000    2.727   14.000    2.182 
#    0.000    0.000    0.000    0.000    0.000    0.000 
#    0.000    0.000    0.000    0.000    0.000    0.000 
#
# Total GULP energy -122944.566258 kJ/mol
# GULP energy per Si atom -5588.389375 kJ/mol
# Density = 2.488924 g / cm^3
# Si number density = 24.946023 Si / 1000 Ang^3
#
#
#
# Elastic Constant Matrix: (Units=GPa)
#
#
# Indices 1 2 3 4 5 6 
#
# 1 138.5546 27.5324 29.1701 0.0000 -15.9678 0.0000
# 2 27.5324 58.3320 24.9863 0.0000 -10.5938 0.0000
# 3 29.1701 24.9863 80.9602 0.0000 -17.4216 0.0000
# 4 0.0000 0.0000 0.0000 42.2403 0.0000 -14.0515
# 5 -15.9678 -10.5938 -17.4216 0.0000 31.0112 0.0000
# 6 0.0000 0.0000 0.0000 -14.0515 0.0000 32.1647
#
#
#
# Elastic Compliance Matrix: (Units=1/GPa)
#
#
# Indices 1 2 3 4 5 6 
#
# 1 0.008404 -0.002824 -0.001630 0.000000 0.002447 0.000000
# 2 -0.002824 0.021101 -0.004842 0.000000 0.003034 0.000000
# 3 -0.001630 -0.004842 0.015808 0.000000 0.006387 0.000000
# 4 0.000000 0.000000 0.000000 0.027699 0.000000 0.012101
# 5 0.002447 0.003034 0.006387 0.000000 0.038131 0.000000
# 6 0.000000 0.000000 0.000000 0.012101 0.000000 0.036376
#
#
# Mechanical properties :
#
#
# Convention : Reuss Voigt Hill
#
# Bulk Modulus (GPa) = 37.42349 49.02495 43.22422
# Shear Modulus (GPa) = 28.56848 34.16044 31.36446
#
# Velocity S-wave (km/s) = 3.38777 3.70452 3.54968
# Velocity P-wave (km/s) = 5.50790 6.16385 5.84508
#
# Compressibility (1/GPa) = 0.02672119
#
# Stress axis : x y z
#
# Youngs Moduli (GPa) = 118.99610 47.39062 63.26001
#
# Poissons Ratio (x) = 0.13383 0.10310
# Poissons Ratio (y) = 0.33605 0.30630
# Poissons Ratio (z) = 0.19394 0.22946
#
# Static dielectric constant tensor:
#      x y z
#    x 1.989340 0.000000 -0.017750 
#    y 0.000000 2.010550 0.000000 
#    z -0.017750 0.000000 2.011040 
# 
# From -- ./inp_files/12965.got.cif
#   From: 2010.05.17/outbox.cif.g08.bks.cpg/sg15_7_cif.got.tgz:12965.got - 2010.06.03 18:47:42.
