data_PCOD9295806
_publ_section_title
;
Structure prediction by ZEFSAII (Michael W. Deem and Ramdas Pophale) SiO2 
 PCOD9295806
Probable space group: C 2/C
;
_chemical_formula_sum "Si O2"
_cell_formula_units_Z 48
_cell_length_a 8.488198
_cell_length_b 22.732311
_cell_length_c 11.443999
_cell_angle_alpha 90.000000
_cell_angle_beta 86.202625
_cell_angle_gamma 90.000000
_cell_volume 2203.344275
_symmetry_space_group_name_H-M "C 2/C"
_symmetry_group_IT_number 15
_symmetry_cell_setting 'monoclinic'
loop_
_space_group_symop_operation_xyz
x,y,z
-x,y,1/2-z
-x,-y,-z
x,-y,1/2+z
1/2+x,1/2+y,z
1/2-x,1/2+y,1/2-z
1/2-x,1/2-y,-z
1/2+x,1/2-y,1/2+z
loop_
_atom_site_type_symbol
_atom_site_label
_atom_site_fract_x
_atom_site_fract_y
_atom_site_fract_z
Si Si1 0.099629 0.859171 0.138656
Si Si2 0.831847 0.658441 0.251592
Si Si3 0.140492 0.263793 0.338385
Si Si4 0.418005 0.749453 0.551558
Si Si5 0.177765 0.025436 0.502535
Si Si6 0.812680 0.038077 0.263879
O O1 0.236629 0.816991 0.184295
O O2 0.164110 0.906999 0.045495
O O3 0.000000 0.887637 0.250000
O O4 0.978605 0.814592 0.082793
O O5 0.733547 0.701619 0.342312
O O6 0.890280 0.708297 0.160060
O O7 0.713598 0.607745 0.219146
O O8 0.000000 0.624462 0.250000
O O9 0.000000 0.259238 0.250000
O O10 0.049414 0.275748 0.461575
O O11 0.250000 0.750000 0.500000
O O12 0.246620 0.021814 0.366152
O O13 0.250492 0.993189 0.614253
O O14 0.000000 0.000000 0.500000
O O15 0.000000 0.026814 0.250000
#
# Coordination Sequence:
#
# PCOD9295806 Si02
#       6
#     8   8   8   8   8   8
#     4  12  22  41  66  99 135 174 234 289 342 421
#     4  12  24  43  65 100 140 179 230 285 360 418
#     4  12  23  42  60  97 139 179 225 282 355 414
#     4  12  24  38  65 100 134 181 220 280 356 422
#     4  10  23  43  70 100 130 184 241 287 346 408
#     4  10  23  45  70  99 133 182 236 295 343 418
#
# _framework density 21.785063999999998
#
# number of rings (size 3 to 8) (size 9 to 14) (size 15 to 20)
#    0.000    0.667    5.000    3.500    7.000    0.000 
#    3.000    1.667    0.000    0.000    0.000    0.000 
#    0.000    0.000    0.000    0.000    0.000    0.000 
#
# Total GULP energy -133743.513992 kJ/mol
# GULP energy per Si atom -5572.646416 kJ/mol
# Density = 2.173548 g / cm^3
# Si number density = 21.785064 Si / 1000 Ang^3
#
#
#
# Elastic Constant Matrix: (Units=GPa)
#
#
# Indices 1 2 3 4 5 6 
#
# 1 88.2778 19.6900 30.3140 0.0000 6.3440 0.0000
# 2 19.6900 111.4685 36.0719 0.0000 7.9331 0.0000
# 3 30.3140 36.0719 140.6769 0.0000 7.1099 0.0000
# 4 0.0000 0.0000 0.0000 -186.5677 0.0000 166.9893
# 5 6.3440 7.9331 7.1099 0.0000 31.2188 0.0000
# 6 0.0000 0.0000 0.0000 166.9893 0.0000 -92.0475
#
#
#
# Elastic Compliance Matrix: (Units=1/GPa)
#
#
# Indices 1 2 3 4 5 6 
#
# 1 0.012531 -0.001360 -0.002266 0.000000 -0.001685 0.000000
# 2 -0.001360 0.010048 -0.002193 0.000000 -0.001777 0.000000
# 3 -0.002266 -0.002193 0.008202 0.000000 -0.000850 0.000000
# 4 0.000000 0.000000 0.000000 0.008593 0.000000 0.015589
# 5 -0.001685 -0.001777 -0.000850 0.000000 0.033020 0.000000
# 6 0.000000 0.000000 0.000000 0.015589 0.000000 0.017416
#
#
# Mechanical properties :
#
#
# Convention : Reuss Voigt Hill
#
# Bulk Modulus (GPa) = 52.24466 56.95279 54.59872
# Shear Modulus (GPa) = 46.36976 -32.52279 6.92348
#
# Velocity S-wave (km/s) = 4.61858 -3.86799 1.78465
# Velocity P-wave (km/s) = 7.24401 2.50027 5.41881
#
# Compressibility (1/GPa) = 0.01914071
#
# Stress axis : x y z
#
# Youngs Moduli (GPa) = 79.80510 99.52510 121.91774
#
# Poissons Ratio (x) = 0.13537 0.27630
# Poissons Ratio (y) = 0.10855 0.26742
# Poissons Ratio (z) = 0.18086 0.21831
#
# Static dielectric constant tensor:
#      x y z
#    x 1.300700 0.000000 0.310030 
#    y 0.000000 1.817650 0.000000 
#    z 0.310030 0.000000 1.737940 
# 
# From -- ./inp_files/79268.got.cif
#   From: 2010.05.17/outbox.cif.g08.bks.cpg/sg15_40_cif.got.tgz:79268.got - 2010.06.03 18:47:42.
