data_PCOD9295093
_publ_section_title
;
Structure prediction by ZEFSAII (Michael W. Deem and Ramdas Pophale) SiO2 
 PCOD9295093
Probable space group: C 2/C
;
_chemical_formula_sum "Si O2"
_cell_formula_units_Z 36
_cell_length_a 12.083986
_cell_length_b 25.686699
_cell_length_c 5.152172
_cell_angle_alpha 90.000000
_cell_angle_beta 104.024585
_cell_angle_gamma 90.000000
_cell_volume 1551.552504
_symmetry_space_group_name_H-M "C 2/C"
_symmetry_group_IT_number 15
_symmetry_cell_setting 'monoclinic'
loop_
_space_group_symop_operation_xyz
x,y,z
-x,y,1/2-z
-x,-y,-z
x,-y,1/2+z
1/2+x,1/2+y,z
1/2-x,1/2+y,1/2-z
1/2-x,1/2-y,-z
1/2+x,1/2-y,1/2+z
loop_
_atom_site_type_symbol
_atom_site_label
_atom_site_fract_x
_atom_site_fract_y
_atom_site_fract_z
Si Si1 0.615333 0.534484 0.204043
Si Si2 0.580011 0.790076 0.547748
Si Si3 0.581142 0.672941 0.551141
Si Si4 0.000000 0.537763 0.750000
Si Si5 0.211778 0.609837 0.980996
O O1 0.500000 0.561434 0.250000
O O2 0.617528 0.487444 0.415355
O O3 0.723548 0.570609 0.292954
O O4 0.500000 0.794674 0.750000
O O5 0.630972 0.731948 0.583515
O O6 0.663815 0.838736 0.590606
O O7 0.500000 0.793975 0.250000
O O8 0.500000 0.666026 0.750000
O O9 0.684695 0.632465 0.631044
O O10 0.500000 0.670713 0.250000
O O11 0.109730 0.576136 0.801397
O O12 0.000000 0.500000 0.500000
#
# Coordination Sequence:
#
# PCOD9295093 Si02
#       5
#     8   8   8   4   8
#     4  10  23  42  64  94 128 167 222 287 341 393
#     4  10  23  43  66 103 142 178 224 280 341 418
#     4  10  24  44  70 107 140 174 228 286 348 412
#     4  12  30  48  68 102 142 186 240 282 336 412
#     4  12  24  45  74  98 137 186 229 280 348 408
#
# _framework density 23.202566999999998
#
# number of rings (size 3 to 8) (size 9 to 14) (size 15 to 20)
#    0.000    1.333    1.111    2.667    1.556    9.778 
#    0.000    6.667    0.000    0.000    0.000    0.000 
#    0.000    0.000    0.000    0.000    0.000    0.000 
#
# Total GULP energy -100666.534615 kJ/mol
# GULP energy per Si atom -5592.585256 kJ/mol
# Density = 2.314976 g / cm^3
# Si number density = 23.202567 Si / 1000 Ang^3
#
#
#
# Elastic Constant Matrix: (Units=GPa)
#
#
# Indices 1 2 3 4 5 6 
#
# 1 131.7740 87.6355 53.0169 0.0000 13.8022 0.0000
# 2 87.6355 164.4889 45.6161 0.0000 9.6316 0.0000
# 3 53.0169 45.6161 124.1826 0.0000 -16.0396 0.0000
# 4 0.0000 0.0000 0.0000 -7.4244 0.0000 17.6859
# 5 13.8022 9.6316 -16.0396 0.0000 31.6495 0.0000
# 6 0.0000 0.0000 0.0000 17.6859 0.0000 69.3003
#
#
#
# Elastic Compliance Matrix: (Units=1/GPa)
#
#
# Indices 1 2 3 4 5 6 
#
# 1 0.014048 -0.005769 -0.004754 0.000000 -0.006780 0.000000
# 2 -0.005769 0.009533 -0.001165 0.000000 -0.000976 0.000000
# 3 -0.004754 -0.001165 0.011582 0.000000 0.008297 0.000000
# 4 0.000000 0.000000 0.000000 -0.083766 0.000000 0.021378
# 5 -0.006780 -0.000976 0.008297 0.000000 0.039055 0.000000
# 6 0.000000 0.000000 0.000000 0.021378 0.000000 0.008974
#
#
# Mechanical properties :
#
#
# Convention : Reuss Voigt Hill
#
# Bulk Modulus (GPa) = 84.83794 88.10917 86.47356
# Shear Modulus (GPa) = 187.04262 34.31687 110.67975
#
# Velocity S-wave (km/s) = 8.98821 3.84996 6.91412
# Velocity P-wave (km/s) = 12.01502 7.60390 10.05435
#
# Compressibility (1/GPa) = 0.01178718
#
# Stress axis : x y z
#
# Youngs Moduli (GPa) = 71.18233 104.89559 86.34152
#
# Poissons Ratio (x) = 0.60516 0.41048
# Poissons Ratio (y) = 0.41067 0.10058
# Poissons Ratio (z) = 0.33841 0.12219
#
# Static dielectric constant tensor:
#      x y z
#    x 1.892270 0.000000 0.046740 
#    y 0.000000 1.906730 0.000000 
#    z 0.046740 0.000000 1.847100 
# 
# From -- ./inp_files/4400.got.cif
#   From: 2010.05.17/outbox.cif.g08.bks.cpg/sg15_3_cif.got.tgz:4400.got - 2010.06.03 18:47:42.
