data_PCOD9295047
_publ_section_title
;
Structure prediction by ZEFSAII (Michael W. Deem and Ramdas Pophale) SiO2 
 PCOD9295047
Probable space group: C 2/C
;
_chemical_formula_sum "Si O2"
_cell_formula_units_Z 40
_cell_length_a 14.399816
_cell_length_b 17.339059
_cell_length_c 16.894322
_cell_angle_alpha 90.000000
_cell_angle_beta 150.795916
_cell_angle_gamma 90.000000
_cell_volume 2058.133433
_symmetry_space_group_name_H-M "C 2/C"
_symmetry_group_IT_number 15
_symmetry_cell_setting 'monoclinic'
loop_
_space_group_symop_operation_xyz
x,y,z
-x,y,1/2-z
-x,-y,-z
x,-y,1/2+z
1/2+x,1/2+y,z
1/2-x,1/2+y,1/2-z
1/2-x,1/2-y,-z
1/2+x,1/2-y,1/2+z
loop_
_atom_site_type_symbol
_atom_site_label
_atom_site_fract_x
_atom_site_fract_y
_atom_site_fract_z
Si Si1 0.643129 0.229972 0.793745
Si Si2 0.916116 0.979430 0.600336
Si Si3 0.500000 0.083189 0.750000
Si Si4 0.909699 0.155856 0.551678
Si Si5 0.463002 0.663062 0.404860
Si Si6 0.000000 0.727012 0.250000
O O1 0.500000 0.269137 0.750000
O O2 0.551354 0.144059 0.717196
O O3 0.686653 0.284041 0.752162
O O4 0.845705 0.207709 0.980036
O O5 0.689595 0.962236 0.417172
O O6 0.000000 0.962861 0.750000
O O7 0.023732 0.922605 0.619546
O O8 0.951341 0.068853 0.608444
O O9 0.950087 0.163601 0.488866
O O10 0.019415 0.216774 0.688610
O O11 0.687263 0.175782 0.399004
#
# Coordination Sequence:
#
# PCOD9295047 Si02
#       6
#     8   8   4   8   8   4
#     4   9  19  34  55  87 122 151 183 226 297 350
#     4  11  22  38  62  86 122 158 192 235 301 352
#     4   8  21  36  57  88 120 158 186 228 287 362
#     4  11  22  41  60  85 110 152 200 247 288 346
#     4  11  21  34  60  89 119 146 196 242 282 346
#     4  10  23  42  63  76 112 156 196 244 303 336
#
# _framework density 19.435085999999998
#
# number of rings (size 3 to 8) (size 9 to 14) (size 15 to 20)
#    0.600    1.200    1.000    3.600    2.800    0.000 
#    0.000    0.000    0.000    4.800    0.000    0.000 
#    0.000    0.000    0.000    0.000    0.000    0.000 
#
# Total GULP energy -111379.602067 kJ/mol
# GULP energy per Si atom -5568.980103 kJ/mol
# Density = 1.939085 g / cm^3
# Si number density = 19.435086 Si / 1000 Ang^3
#
#
#
# Elastic Constant Matrix: (Units=GPa)
#
#
# Indices 1 2 3 4 5 6 
#
# 1 92.9199 33.6644 13.6269 0.0011 -34.6814 0.0009
# 2 33.6644 96.1206 16.9428 0.0017 -14.6851 0.0010
# 3 13.6269 16.9428 40.3307 0.0006 -10.8759 0.0008
# 4 0.0011 0.0017 0.0006 21.8417 0.0011 -12.1858
# 5 -34.6814 -14.6851 -10.8759 0.0011 30.1703 0.0009
# 6 0.0009 0.0010 0.0008 -12.1858 0.0009 22.8446
#
#
#
# Elastic Compliance Matrix: (Units=1/GPa)
#
#
# Indices 1 2 3 4 5 6 
#
# 1 0.020059 -0.003865 0.000617 -0.000004 0.021399 -0.000003
# 2 -0.003865 0.012475 -0.003872 -0.000001 0.000234 -0.000001
# 3 0.000617 -0.003872 0.028685 -0.000002 0.009165 -0.000003
# 4 -0.000004 -0.000001 -0.000002 0.065183 -0.000009 0.034770
# 5 0.021399 0.000234 0.009165 -0.000009 0.061161 -0.000008
# 6 -0.000003 -0.000001 -0.000003 0.034770 -0.000008 0.062321
#
#
# Mechanical properties :
#
#
# Convention : Reuss Voigt Hill
#
# Bulk Modulus (GPa) = 21.28611 39.75993 30.52302
# Shear Modulus (GPa) = 17.87099 25.98047 21.92573
#
# Velocity S-wave (km/s) = 3.03565 3.66017 3.36244
# Velocity P-wave (km/s) = 4.82318 6.19392 5.55103
#
# Compressibility (1/GPa) = 0.04697899
#
# Stress axis : x y z
#
# Youngs Moduli (GPa) = 49.85396 80.15815 34.86188
#
# Poissons Ratio (x) = 0.30978 -0.02150
# Poissons Ratio (y) = 0.19266 0.13498
# Poissons Ratio (z) = -0.03075 0.31037
#
# Static dielectric constant tensor:
#      x y z
#    x 1.688800 0.000000 0.007410 
#    y 0.000000 1.704200 0.000000 
#    z 0.007410 0.000000 1.728630 
# 
# From -- ./inp_files/38013.got.cif
#   From: 2010.05.17/outbox.cif.g08.bks.cpg/sg15_20_cif.got.tgz:38013.got - 2010.06.03 18:47:42.
