data_PCOD9295492
_publ_section_title
;
Structure prediction by ZEFSAII (Michael W. Deem and Ramdas Pophale) SiO2 
 PCOD9295492
Probable space group: C 2/C
;
_chemical_formula_sum "Si O2"
_cell_formula_units_Z 32
_cell_length_a 6.941561
_cell_length_b 25.280142
_cell_length_c 8.541623
_cell_angle_alpha 90.000000
_cell_angle_beta 68.928029
_cell_angle_gamma 90.000000
_cell_volume 1398.682005
_symmetry_space_group_name_H-M "C 2/C"
_symmetry_group_IT_number 15
_symmetry_cell_setting 'monoclinic'
loop_
_space_group_symop_operation_xyz
x,y,z
-x,y,1/2-z
-x,-y,-z
x,-y,1/2+z
1/2+x,1/2+y,z
1/2-x,1/2+y,1/2-z
1/2-x,1/2-y,-z
1/2+x,1/2-y,1/2+z
loop_
_atom_site_type_symbol
_atom_site_label
_atom_site_fract_x
_atom_site_fract_y
_atom_site_fract_z
Si Si1 0.500000 0.760649 0.250000
Si Si2 0.672868 0.336443 0.888356
Si Si3 0.818380 0.074107 0.535752
Si Si4 0.455750 0.152697 0.003404
Si Si5 0.000000 0.989033 0.250000
O O1 0.395158 0.721134 0.155065
O O2 0.386628 0.801461 0.401718
O O3 0.487308 0.378225 0.962954
O O4 0.818366 0.352163 0.700008
O O5 0.813356 0.336294 0.003175
O O6 0.596641 0.098465 0.566185
O O7 0.853331 0.048513 0.692857
O O8 0.872476 0.027643 0.399462
#
# Coordination Sequence:
#
# PCOD9295492 Si02
#       5
#     4   8   8   8   4
#     4  12  23  42  66  98 134 176 213 256 328 382
#     4  11  23  43  64  96 133 173 209 269 315 392
#     4  11  22  47  66  97 128 169 215 273 321 380
#     4  11  24  41  65  95 135 168 215 264 316 388
#     4  10  23  42  76  90 126 174 215 270 334 368
#
# _framework density 22.878679999999999
#
# number of rings (size 3 to 8) (size 9 to 14) (size 15 to 20)
#    0.000    1.000    5.000    1.500    3.500    0.000 
#    0.000    7.500    0.000    0.000    0.000    0.000 
#    0.000    0.000    0.000    0.000    0.000    0.000 
#
# Total GULP energy -89310.749289 kJ/mol
# GULP energy per Si atom -5581.921831 kJ/mol
# Density = 2.282661 g / cm^3
# Si number density = 22.878680 Si / 1000 Ang^3
#
#
#
# Elastic Constant Matrix: (Units=GPa)
#
#
# Indices 1 2 3 4 5 6 
#
# 1 114.4338 75.0822 44.4741 0.0000 33.3325 0.0000
# 2 75.0822 135.4800 52.5319 0.0000 31.5519 0.0000
# 3 44.4741 52.5319 82.3330 0.0000 20.4404 0.0000
# 4 0.0000 0.0000 0.0000 18.9779 0.0000 63.3945
# 5 33.3325 31.5519 20.4404 0.0000 35.8014 0.0000
# 6 0.0000 0.0000 0.0000 63.3945 0.0000 489.1210
#
#
#
# Elastic Compliance Matrix: (Units=1/GPa)
#
#
# Indices 1 2 3 4 5 6 
#
# 1 0.016118 -0.005906 -0.002918 0.000000 -0.008135 0.000000
# 2 -0.005906 0.013176 -0.004310 0.000000 -0.003653 0.000000
# 3 -0.002918 -0.004310 0.017308 0.000000 -0.003366 0.000000
# 4 0.000000 0.000000 0.000000 0.092925 0.000000 -0.012044
# 5 -0.008135 -0.003653 -0.003366 0.000000 0.040647 0.000000
# 6 0.000000 0.000000 0.000000 -0.012044 0.000000 0.003605
#
#
# Mechanical properties :
#
#
# Convention : Reuss Voigt Hill
#
# Bulk Modulus (GPa) = 49.18127 75.15814 62.16971
# Shear Modulus (GPa) = 23.06013 119.45731 71.25872
#
# Velocity S-wave (km/s) = 3.17824 7.23372 5.58695
# Velocity P-wave (km/s) = 5.91705 10.13366 8.29766
#
# Compressibility (1/GPa) = 0.02033294
#
# Stress axis : x y z
#
# Youngs Moduli (GPa) = 62.04436 75.89517 57.77768
#
# Poissons Ratio (x) = 0.44825 0.16861
# Poissons Ratio (y) = 0.36644 0.24900
# Poissons Ratio (z) = 0.18106 0.32709
#
# Static dielectric constant tensor:
#      x y z
#    x 1.930530 0.000000 0.008310 
#    y 0.000000 1.816990 0.000000 
#    z 0.008310 0.000000 1.876700 
# 
# From -- ./inp_files/22795.got.cif
#   From: 2010.05.17/outbox.cif.g08.bks.cpg/sg15_12_cif.got.tgz:22795.got - 2010.06.03 18:47:42.
