data_PCOD9295135
_publ_section_title
;
Structure prediction by ZEFSAII (Michael W. Deem and Ramdas Pophale) SiO2 
 PCOD9295135
Probable space group: C 2/C
;
_chemical_formula_sum "Si O2"
_cell_formula_units_Z 44
_cell_length_a 22.777924
_cell_length_b 19.989482
_cell_length_c 4.931359
_cell_angle_alpha 90.000000
_cell_angle_beta 65.610220
_cell_angle_gamma 90.000000
_cell_volume 2044.960748
_symmetry_space_group_name_H-M "C 2/C"
_symmetry_group_IT_number 15
_symmetry_cell_setting 'monoclinic'
loop_
_space_group_symop_operation_xyz
x,y,z
-x,y,1/2-z
-x,-y,-z
x,-y,1/2+z
1/2+x,1/2+y,z
1/2-x,1/2+y,1/2-z
1/2-x,1/2-y,-z
1/2+x,1/2-y,1/2+z
loop_
_atom_site_type_symbol
_atom_site_label
_atom_site_fract_x
_atom_site_fract_y
_atom_site_fract_z
Si Si1 0.000000 0.450049 0.250000
Si Si2 0.500000 0.624379 0.750000
Si Si3 0.725609 0.663442 0.345639
Si Si4 0.870821 0.044522 0.870307
Si Si5 0.190461 0.308488 0.301283
Si Si6 0.938819 0.336828 0.659544
Si Si7 0.000000 0.218191 0.250000
O O1 0.943884 0.397681 0.437826
O O2 0.000000 0.500000 0.500000
O O3 0.559949 0.578922 0.720918
O O4 0.520163 0.671520 0.460426
O O5 0.682865 0.597739 0.439265
O O6 0.752254 0.676663 0.595261
O O7 0.685799 0.727735 0.313482
O O8 0.786971 0.662730 0.028228
O O9 0.865071 0.979963 0.073677
O O10 0.124971 0.337689 0.542569
O O11 0.000000 0.340357 0.750000
O O12 0.946197 0.268338 0.474131
#
# Coordination Sequence:
#
# PCOD9295135 Si02
#       7
#     4   4   8   8   8   8   4
#     4  11  24  43  62  89 132 173 206 260 336 397
#     4  12  24  42  66 100 132 180 216 270 330 384
#     4  10  23  42  65  93 130 173 213 267 318 395
#     4  12  25  44  67  94 137 177 225 266 316 388
#     4  10  23  42  68  95 126 167 215 268 342 375
#     4  11  24  41  69 102 134 162 218 286 330 392
#     4  11  24  37  64 103 138 161 214 276 336 381
#
# _framework density 21.516304000000002
#
# number of rings (size 3 to 8) (size 9 to 14) (size 15 to 20)
#    0.000    1.091    1.818    3.818    5.091    2.909 
#    0.000    5.455    0.000    0.000    0.000    0.000 
#    0.000    0.000    0.000    0.000    0.000    0.000 
#
# Total GULP energy -123052.790970 kJ/mol
# GULP energy per Si atom -5593.308680 kJ/mol
# Density = 2.146733 g / cm^3
# Si number density = 21.516304 Si / 1000 Ang^3
#
#
#
# Elastic Constant Matrix: (Units=GPa)
#
#
# Indices 1 2 3 4 5 6 
#
# 1 39.5040 22.0093 7.3467 0.0000 1.8475 0.0000
# 2 22.0093 88.9767 29.7514 0.0000 -13.9637 0.0000
# 3 7.3467 29.7514 105.3023 0.0000 4.7112 0.0000
# 4 0.0000 0.0000 0.0000 -91.2518 0.0000 -29.6892
# 5 1.8475 -13.9637 4.7112 0.0000 41.5095 0.0000
# 6 0.0000 0.0000 0.0000 -29.6892 0.0000 -2.0785
#
#
#
# Elastic Compliance Matrix: (Units=1/GPa)
#
#
# Indices 1 2 3 4 5 6 
#
# 1 0.030005 -0.008210 0.000412 0.000000 -0.004144 0.000000
# 2 -0.008210 0.015596 -0.004106 0.000000 0.006078 0.000000
# 3 0.000412 -0.004106 0.010745 0.000000 -0.002619 0.000000
# 4 0.000000 0.000000 0.000000 0.003005 0.000000 -0.042917
# 5 -0.004144 0.006078 -0.002619 0.000000 0.026617 0.000000
# 6 0.000000 0.000000 0.000000 -0.042917 0.000000 0.131909
#
#
# Mechanical properties :
#
#
# Convention : Reuss Voigt Hill
#
# Bulk Modulus (GPa) = 30.73289 39.11086 34.92188
# Shear Modulus (GPa) = 19.79949 1.28088 10.54019
#
# Velocity S-wave (km/s) = 3.03679 0.77240 2.21570
# Velocity P-wave (km/s) = 5.15855 4.36030 4.77613
#
# Compressibility (1/GPa) = 0.03253843
#
# Stress axis : x y z
#
# Youngs Moduli (GPa) = 33.32742 64.11727 93.06746
#
# Poissons Ratio (x) = 0.52641 -0.03831
# Poissons Ratio (y) = 0.27362 0.38210
# Poissons Ratio (z) = -0.01372 0.26324
#
# Static dielectric constant tensor:
#      x y z
#    x 1.790270 0.000000 0.016790 
#    y 0.000000 1.781240 0.000000 
#    z 0.016790 0.000000 1.763130 
# 
# From -- ./inp_files/17144.got.cif
#   From: 2010.05.17/outbox.cif.g08.bks.cpg/sg15_9_cif.got.tgz:17144.got - 2010.06.03 18:47:42.
