data_PCOD9295352
_publ_section_title
;
Structure prediction by ZEFSAII (Michael W. Deem and Ramdas Pophale) SiO2 
 PCOD9295352
Probable space group: C 2/C
;
_chemical_formula_sum "Si O2"
_cell_formula_units_Z 56
_cell_length_a 10.007793
_cell_length_b 16.639626
_cell_length_c 14.201485
_cell_angle_alpha 90.000000
_cell_angle_beta 90.927810
_cell_angle_gamma 90.000000
_cell_volume 2364.605472
_symmetry_space_group_name_H-M "C 2/C"
_symmetry_group_IT_number 15
_symmetry_cell_setting 'monoclinic'
loop_
_space_group_symop_operation_xyz
x,y,z
-x,y,1/2-z
-x,-y,-z
x,-y,1/2+z
1/2+x,1/2+y,z
1/2-x,1/2+y,1/2-z
1/2-x,1/2-y,-z
1/2+x,1/2-y,1/2+z
loop_
_atom_site_type_symbol
_atom_site_label
_atom_site_fract_x
_atom_site_fract_y
_atom_site_fract_z
Si Si1 0.182369 0.999280 0.346521
Si Si2 0.000000 0.293990 0.250000
Si Si3 0.350868 0.192470 0.058196
Si Si4 0.900103 0.772041 0.388209
Si Si5 0.000000 0.880797 0.250000
Si Si6 0.647508 0.676209 0.397952
Si Si7 0.626749 0.046630 0.317786
Si Si8 0.564704 0.916178 0.098969
O O1 0.122949 0.083942 0.376292
O O2 0.261425 0.011907 0.249448
O O3 0.067615 0.935380 0.330162
O O4 0.299837 0.966380 0.414871
O O5 0.069886 0.236555 0.327345
O O6 0.085000 0.356783 0.188285
O O7 0.445884 0.248599 0.119762
O O8 0.306105 0.120307 0.125271
O O9 0.250000 0.250000 0.000000
O O10 0.448702 0.144585 0.987492
O O11 0.802139 0.696890 0.379554
O O12 0.879760 0.806814 0.492607
O O13 0.882944 0.833226 0.303038
O O14 0.500000 0.072976 0.250000
O O15 0.556869 0.977070 0.381108
#
# Coordination Sequence:
#
# PCOD9295352 Si02
#       8
#     8   4   8   8   4   8   8   8
#     4  11  24  43  65 103 129 184 216 282 335 408
#     4  12  21  44  71 102 126 182 224 288 323 412
#     4  12  26  41  66 104 136 176 230 285 335 402
#     4  11  26  46  67 104 136 186 217 287 341 409
#     4  12  27  42  69  94 150 176 222 270 361 398
#     4  11  26  44  75  97 143 173 238 271 348 403
#     4  10  23  42  69  96 131 176 228 279 334 394
#     4  11  22  44  69  94 135 173 236 279 335 391
#
# _framework density 23.682597999999999
#
# number of rings (size 3 to 8) (size 9 to 14) (size 15 to 20)
#    0.000    0.857    3.571    4.286    5.000    2.857 
#    0.000    0.000    0.000    0.000    0.000    0.000 
#    0.000    0.000    0.000    0.000    0.000    0.000 
#
# Total GULP energy -156530.473390 kJ/mol
# GULP energy per Si atom -5590.374050 kJ/mol
# Density = 2.362870 g / cm^3
# Si number density = 23.682598 Si / 1000 Ang^3
#
#
#
# Elastic Constant Matrix: (Units=GPa)
#
#
# Indices 1 2 3 4 5 6 
#
# 1 35.3633 9.6904 2.6821 0.0000 5.7604 0.0000
# 2 9.6904 118.3002 34.4324 0.0000 5.0804 0.0000
# 3 2.6821 34.4324 77.3436 0.0000 2.7328 0.0000
# 4 0.0000 0.0000 0.0000 43.7414 0.0000 9.0329
# 5 5.7604 5.0804 2.7328 0.0000 22.5015 0.0000
# 6 0.0000 0.0000 0.0000 9.0329 0.0000 30.2214
#
#
#
# Elastic Compliance Matrix: (Units=1/GPa)
#
#
# Indices 1 2 3 4 5 6 
#
# 1 0.030044 -0.002208 0.000196 0.000000 -0.007216 0.000000
# 2 -0.002208 0.009937 -0.004306 0.000000 -0.001155 0.000000
# 3 0.000196 -0.004306 0.014871 0.000000 -0.000884 0.000000
# 4 0.000000 0.000000 0.000000 0.024366 0.000000 -0.007283
# 5 -0.007216 -0.001155 -0.000884 0.000000 0.046657 0.000000
# 6 0.000000 0.000000 0.000000 -0.007283 0.000000 0.035266
#
#
# Mechanical properties :
#
#
# Convention : Reuss Voigt Hill
#
# Bulk Modulus (GPa) = 23.68841 36.06854 29.87848
# Shear Modulus (GPa) = 26.61719 31.57300 29.09509
#
# Velocity S-wave (km/s) = 3.35612 3.65523 3.50886
# Velocity P-wave (km/s) = 5.00422 5.75128 5.39071
#
# Compressibility (1/GPa) = 0.04221473
#
# Stress axis : x y z
#
# Youngs Moduli (GPa) = 33.28491 100.63405 67.24533
#
# Poissons Ratio (x) = 0.22222 -0.01319
# Poissons Ratio (y) = 0.07350 0.28959
# Poissons Ratio (z) = -0.00653 0.43337
#
# Static dielectric constant tensor:
#      x y z
#    x 1.877420 0.000000 0.007690 
#    y 0.000000 1.906610 0.000000 
#    z 0.007690 0.000000 1.919520 
# 
# From -- ./inp_files/144299.got.cif
#   From: 2010.05.17/outbox.cif.g08.bks.cpg/sg15_73_cif.got.tgz:144299.got - 2010.06.03 18:47:42.
