data_PCOD9295662
_publ_section_title
;
Structure prediction by ZEFSAII (Michael W. Deem and Ramdas Pophale) SiO2 
 PCOD9295662
Probable space group: C 2/C
;
_chemical_formula_sum "Si O2"
_cell_formula_units_Z 56
_cell_length_a 10.949240
_cell_length_b 16.817982
_cell_length_c 27.569188
_cell_angle_alpha 90.000000
_cell_angle_beta 33.035507
_cell_angle_gamma 90.000000
_cell_volume 2767.609126
_symmetry_space_group_name_H-M "C 2/C"
_symmetry_group_IT_number 15
_symmetry_cell_setting 'monoclinic'
loop_
_space_group_symop_operation_xyz
x,y,z
-x,y,1/2-z
-x,-y,-z
x,-y,1/2+z
1/2+x,1/2+y,z
1/2-x,1/2+y,1/2-z
1/2-x,1/2-y,-z
1/2+x,1/2-y,1/2+z
loop_
_atom_site_type_symbol
_atom_site_label
_atom_site_fract_x
_atom_site_fract_y
_atom_site_fract_z
Si Si1 0.500000 0.903127 0.750000
Si Si2 0.729441 0.990257 0.091358
Si Si3 0.789795 0.810226 0.730935
Si Si4 0.919282 0.279907 0.985214
Si Si5 0.370182 0.189082 0.845317
Si Si6 0.500000 0.541298 0.750000
Si Si7 0.896235 0.571540 0.129297
Si Si8 0.454288 0.312134 0.320389
O O1 0.368102 0.957880 0.831843
O O2 0.691200 0.853509 0.715843
O O3 0.604465 0.029680 0.086846
O O4 0.645841 0.899037 0.126223
O O5 0.000000 0.000000 0.000000
O O6 0.756602 0.876658 0.782673
O O7 0.615402 0.739087 0.799875
O O8 0.017546 0.759744 0.659246
O O9 0.116766 0.217055 0.922368
O O10 0.014229 0.365360 0.938598
O O11 0.750000 0.250000 0.000000
O O12 0.789047 0.292557 0.079036
O O13 0.500000 0.187076 0.750000
O O14 0.275390 0.493033 0.832705
O O15 0.479962 0.596225 0.708319
O O16 0.500000 0.286376 0.250000
#
# Coordination Sequence:
#
# PCOD9295662 Si02
#       8
#     4   8   8   8   8   4   8   8
#     4  10  23  44  65  92 136 182 208 276 343 386
#     4  11  25  42  63  99 135 171 218 270 338 395
#     4  11  21  41  69  92 129 175 220 267 327 389
#     4  12  23  42  71  95 130 177 225 266 331 401
#     4  12  23  41  68 104 129 168 229 278 319 396
#     4  10  23  44  65  94 134 166 218 276 341 382
#     4  11  22  40  67  96 130 168 222 273 323 391
#     4  10  23  43  67  89 133 176 215 262 338 391
#
# _framework density 20.234069999999999
#
# number of rings (size 3 to 8) (size 9 to 14) (size 15 to 20)
#    0.429    0.571    4.286    2.571    2.000    0.571 
#    7.714    1.429    0.000    0.000    0.000    0.000 
#    0.000    0.000    0.000    0.000    0.000    0.000 
#
# Total GULP energy -156036.634167 kJ/mol
# GULP energy per Si atom -5572.736935 kJ/mol
# Density = 2.018802 g / cm^3
# Si number density = 20.234070 Si / 1000 Ang^3
#
#
#
# Elastic Constant Matrix: (Units=GPa)
#
#
# Indices 1 2 3 4 5 6 
#
# 1 37.0855 27.2955 5.6561 0.0003 -4.7009 -0.0077
# 2 27.2955 111.3201 17.1505 -0.0044 -8.0505 -0.0047
# 3 5.6561 17.1505 75.8489 -0.0038 4.0194 0.0071
# 4 0.0003 -0.0044 -0.0038 29.7609 0.0002 -9.9743
# 5 -4.7009 -8.0505 4.0194 0.0002 34.3972 0.0026
# 6 -0.0077 -0.0047 0.0071 -9.9743 0.0026 35.2630
#
#
#
# Elastic Compliance Matrix: (Units=1/GPa)
#
#
# Indices 1 2 3 4 5 6 
#
# 1 0.033196 -0.007804 -0.000860 0.000001 0.002811 0.000006
# 2 -0.007804 0.011350 -0.002082 0.000002 0.001833 0.000001
# 3 -0.000860 -0.002082 0.013837 0.000001 -0.002222 -0.000003
# 4 0.000001 0.000002 0.000001 0.037120 -0.000001 0.010500
# 5 0.002811 0.001833 -0.002222 -0.000001 0.030145 -0.000001
# 6 0.000006 0.000001 -0.000003 0.010500 -0.000001 0.031328
#
#
# Mechanical properties :
#
#
# Convention : Reuss Voigt Hill
#
# Bulk Modulus (GPa) = 27.10621 36.05094 31.57858
# Shear Modulus (GPa) = 26.21053 31.49440 28.85247
#
# Velocity S-wave (km/s) = 3.60302 3.94953 3.78025
# Velocity P-wave (km/s) = 5.54387 6.21724 5.89018
#
# Compressibility (1/GPa) = 0.03689191
#
# Stress axis : x y z
#
# Youngs Moduli (GPa) = 30.12424 88.10693 72.27197
#
# Poissons Ratio (x) = 0.68757 0.06214
# Poissons Ratio (y) = 0.23508 0.15044
# Poissons Ratio (z) = 0.02590 0.18340
#
# Static dielectric constant tensor:
#      x y z
#    x 1.755950 0.000000 -0.006390 
#    y 0.000000 1.759220 0.000010 
#    z -0.006390 0.000010 1.706770 
# 
# From -- ./inp_files/311356.got.cif
#   From: 2010.05.17/outbox.cif.g08.bks.cpg/sg15_156_cif.got.tgz:311356.got - 2010.06.03 18:47:42.
