data_PCOD9295436
_publ_section_title
;
Structure prediction by ZEFSAII (Michael W. Deem and Ramdas Pophale) SiO2 
 PCOD9295436
Probable space group: C 2/C
;
_chemical_formula_sum "Si O2"
_cell_formula_units_Z 40
_cell_length_a 19.857430
_cell_length_b 10.511121
_cell_length_c 6.975129
_cell_angle_alpha 90.000000
_cell_angle_beta 72.584518
_cell_angle_gamma 90.000000
_cell_volume 1389.137686
_symmetry_space_group_name_H-M "C 2/C"
_symmetry_group_IT_number 15
_symmetry_cell_setting 'monoclinic'
loop_
_space_group_symop_operation_xyz
x,y,z
-x,y,1/2-z
-x,-y,-z
x,-y,1/2+z
1/2+x,1/2+y,z
1/2-x,1/2+y,1/2-z
1/2-x,1/2-y,-z
1/2+x,1/2-y,1/2+z
loop_
_atom_site_type_symbol
_atom_site_label
_atom_site_fract_x
_atom_site_fract_y
_atom_site_fract_z
Si Si1 0.712034 0.780795 0.229390
Si Si2 0.917760 0.024648 0.830337
Si Si3 0.811662 0.010247 0.166286
Si Si4 0.417635 0.175201 0.281801
Si Si5 0.415375 0.108791 0.854639
O O1 0.718879 0.651789 0.340925
O O2 0.629912 0.813785 0.260610
O O3 0.753073 0.904986 0.257794
O O4 0.750000 0.750000 0.000000
O O5 0.908195 0.178961 0.847980
O O6 0.000000 0.983611 0.750000
O O7 0.901951 0.004444 0.593072
O O8 0.832723 0.972650 0.902615
O O9 0.500000 0.155499 0.250000
O O10 0.389505 0.037835 0.378028
O O11 0.401060 0.170841 0.070866
O O12 0.500000 0.115599 0.750000
#
# Coordination Sequence:
#
# PCOD9295436 Si02
#       5
#     8   8   8   8   8
#     4  12  29  50  74 115 153 202 256 310 390 457
#     4  11  26  47  78 112 151 195 262 314 388 448
#     4  12  28  50  78 110 155 208 249 323 377 459
#     4  10  23  42  71 114 148 189 248 313 381 446
#     4  11  25  44  77 108 153 199 256 318 377 454
#
# _framework density 28.794843
#
# number of rings (size 3 to 8) (size 9 to 14) (size 15 to 20)
#    0.000    0.800    2.000    4.200   14.000    1.600 
#    0.000    0.000    0.000    0.000    0.000    0.000 
#    0.000    0.000    0.000    0.000    0.000    0.000 
#
# Total GULP energy -111818.177847 kJ/mol
# GULP energy per Si atom -5590.908892 kJ/mol
# Density = 2.872931 g / cm^3
# Si number density = 28.794843 Si / 1000 Ang^3
#
#
#
# Elastic Constant Matrix: (Units=GPa)
#
#
# Indices 1 2 3 4 5 6 
#
# 1 187.3967 72.2955 55.6373 0.0000 8.5678 0.0000
# 2 72.2955 221.6405 49.0649 0.0000 -3.5637 0.0000
# 3 55.6373 49.0649 178.3295 0.0000 -10.5357 0.0000
# 4 0.0000 0.0000 0.0000 98.3327 0.0000 10.8245
# 5 8.5678 -3.5637 -10.5357 0.0000 66.4950 0.0000
# 6 0.0000 0.0000 0.0000 10.8245 0.0000 39.6962
#
#
#
# Elastic Compliance Matrix: (Units=1/GPa)
#
#
# Indices 1 2 3 4 5 6 
#
# 1 0.006569 -0.001802 -0.001624 0.000000 -0.001200 0.000000
# 2 -0.001802 0.005299 -0.000873 0.000000 0.000378 0.000000
# 3 -0.001624 -0.000873 0.006424 0.000000 0.001180 0.000000
# 4 0.000000 0.000000 0.000000 0.010484 0.000000 -0.002859
# 5 -0.001200 0.000378 0.001180 0.000000 0.015401 0.000000
# 6 0.000000 0.000000 0.000000 -0.002859 0.000000 0.025971
#
#
# Mechanical properties :
#
#
# Convention : Reuss Voigt Hill
#
# Bulk Modulus (GPa) = 103.17675 104.59581 103.88628
# Shear Modulus (GPa) = 60.99122 68.26272 64.62697
#
# Velocity S-wave (km/s) = 4.60731 4.87422 4.74264
# Velocity P-wave (km/s) = 8.01327 8.25111 8.13306
#
# Compressibility (1/GPa) = 0.00969211
#
# Stress axis : x y z
#
# Youngs Moduli (GPa) = 152.23591 188.71103 155.65579
#
# Poissons Ratio (x) = 0.34012 0.25285
# Poissons Ratio (y) = 0.27438 0.13594
# Poissons Ratio (z) = 0.24730 0.16481
#
# Static dielectric constant tensor:
#      x y z
#    x 2.029070 0.000000 0.097720 
#    y 0.000000 2.043540 0.000000 
#    z 0.097720 0.000000 2.768430 
# 
# From -- ./inp_files/46099.got.cif
#   From: 2010.05.17/outbox.cif.g08.bks.cpg/sg15_24_cif.got.tgz:46099.got - 2010.06.03 18:47:42.
