data_PCOD9295653
_publ_section_title
;
Structure prediction by ZEFSAII (Michael W. Deem and Ramdas Pophale) SiO2 
 PCOD9295653
Probable space group: C 2/C
;
_chemical_formula_sum "Si O2"
_cell_formula_units_Z 40
_cell_length_a 10.511627
_cell_length_b 10.678523
_cell_length_c 18.306247
_cell_angle_alpha 90.000000
_cell_angle_beta 115.612594
_cell_angle_gamma 90.000000
_cell_volume 1852.936737
_symmetry_space_group_name_H-M "C 2/C"
_symmetry_group_IT_number 15
_symmetry_cell_setting 'monoclinic'
loop_
_space_group_symop_operation_xyz
x,y,z
-x,y,1/2-z
-x,-y,-z
x,-y,1/2+z
1/2+x,1/2+y,z
1/2-x,1/2+y,1/2-z
1/2-x,1/2-y,-z
1/2+x,1/2-y,1/2+z
loop_
_atom_site_type_symbol
_atom_site_label
_atom_site_fract_x
_atom_site_fract_y
_atom_site_fract_z
Si Si1 0.068268 0.271494 0.127869
Si Si2 0.686471 0.369946 0.946089
Si Si3 0.342806 0.128621 0.006636
Si Si4 0.962084 0.479697 0.821697
Si Si5 0.335004 0.604779 0.224935
O O1 0.984703 0.378319 0.152269
O O2 0.170011 0.210203 0.213437
O O3 0.979413 0.149538 0.081837
O O4 0.106976 0.345063 0.063745
O O5 0.710221 0.351299 0.866079
O O6 0.750000 0.250000 0.000000
O O7 0.750015 0.502292 0.983912
O O8 0.465222 0.104838 0.097210
O O9 0.250000 0.250000 0.000000
O O10 0.791489 0.488901 0.785710
O O11 0.000000 0.435648 0.750000
O O12 0.500000 0.564628 0.250000
#
# Coordination Sequence:
#
# PCOD9295653 Si02
#       5
#     8   8   8   8   8
#     4  11  23  44  70 102 141 197 248 294 371 449
#     4  11  21  42  72  98 138 194 243 291 368 447
#     4  12  26  45  69 109 151 185 246 319 373 437
#     4  12  23  44  71 103 144 191 240 303 370 441
#     4  10  23  43  67 103 137 190 246 303 361 445
#
# _framework density 21.587354000000001
#
# number of rings (size 3 to 8) (size 9 to 14) (size 15 to 20)
#    0.000    0.800    4.000    4.800    0.000    0.800 
#    7.200    0.000    0.000    0.000    0.000    0.000 
#    0.000    0.000    0.000    0.000    0.000    0.000 
#
# Total GULP energy -111378.042095 kJ/mol
# GULP energy per Si atom -5568.902105 kJ/mol
# Density = 2.153822 g / cm^3
# Si number density = 21.587354 Si / 1000 Ang^3
#
#
#
# Elastic Constant Matrix: (Units=GPa)
#
#
# Indices 1 2 3 4 5 6 
#
# 1 90.0303 46.4012 38.2644 0.0000 3.6552 0.0000
# 2 46.4012 122.7721 52.9609 0.0000 10.9792 0.0000
# 3 38.2644 52.9609 136.2170 0.0000 4.2005 0.0000
# 4 0.0000 0.0000 0.0000 34.1273 0.0000 5.4789
# 5 3.6552 10.9792 4.2005 0.0000 24.5412 0.0000
# 6 0.0000 0.0000 0.0000 5.4789 0.0000 39.2982
#
#
#
# Elastic Compliance Matrix: (Units=1/GPa)
#
#
# Indices 1 2 3 4 5 6 
#
# 1 0.014378 -0.004459 -0.002313 0.000000 0.000249 0.000000
# 2 -0.004459 0.011524 -0.003106 0.000000 -0.003960 0.000000
# 3 -0.002313 -0.003106 0.009194 0.000000 0.000160 0.000000
# 4 0.000000 0.000000 0.000000 0.029973 0.000000 -0.004179
# 5 0.000249 -0.003960 0.000160 0.000000 0.042455 0.000000
# 6 0.000000 0.000000 0.000000 -0.004179 0.000000 0.026029
#
#
# Mechanical properties :
#
#
# Convention : Reuss Voigt Hill
#
# Bulk Modulus (GPa) = 65.18643 69.36362 67.27503
# Shear Modulus (GPa) = 31.56116 33.68618 32.62367
#
# Velocity S-wave (km/s) = 3.82779 3.95455 3.89168
# Velocity P-wave (km/s) = 7.05677 7.28372 7.17115
#
# Compressibility (1/GPa) = 0.01534062
#
# Stress axis : x y z
#
# Youngs Moduli (GPa) = 69.54893 86.77301 108.77030
#
# Poissons Ratio (x) = 0.38689 0.25160
# Poissons Ratio (y) = 0.31010 0.33785
# Poissons Ratio (z) = 0.16088 0.26952
#
# Static dielectric constant tensor:
#      x y z
#    x 1.974370 0.000000 0.072620 
#    y 0.000000 1.788640 0.000000 
#    z 0.072620 0.000000 1.918100 
# 
# From -- ./inp_files/195744.got.cif
#   From: 2010.05.17/outbox.cif.g08.bks.cpg/sg15_98_cif.got.tgz:195744.got - 2010.06.03 18:47:42.
