data_PCOD9295101
_publ_section_title
;
Structure prediction by ZEFSAII (Michael W. Deem and Ramdas Pophale) SiO2 
 PCOD9295101
Probable space group: C 2/C
;
_chemical_formula_sum "Si O2"
_cell_formula_units_Z 36
_cell_length_a 29.527877
_cell_length_b 5.279843
_cell_length_c 8.611774
_cell_angle_alpha 90.000000
_cell_angle_beta 95.105528
_cell_angle_gamma 90.000000
_cell_volume 1337.270790
_symmetry_space_group_name_H-M "C 2/C"
_symmetry_group_IT_number 15
_symmetry_cell_setting 'monoclinic'
loop_
_space_group_symop_operation_xyz
x,y,z
-x,y,1/2-z
-x,-y,-z
x,-y,1/2+z
1/2+x,1/2+y,z
1/2-x,1/2+y,1/2-z
1/2-x,1/2-y,-z
1/2+x,1/2-y,1/2+z
loop_
_atom_site_type_symbol
_atom_site_label
_atom_site_fract_x
_atom_site_fract_y
_atom_site_fract_z
Si Si1 0.500000 0.341278 0.750000
Si Si2 0.563908 0.406970 0.523234
Si Si3 0.296764 0.483713 0.892420
Si Si4 0.696665 0.980939 0.396579
Si Si5 0.375649 0.279823 0.240714
O O1 0.539320 0.230351 0.647103
O O2 0.472284 0.502910 0.616217
O O3 0.602493 0.298010 0.423402
O O4 0.585689 0.645105 0.622985
O O5 0.244556 0.506020 0.820748
O O6 0.335416 0.525473 0.775990
O O7 0.301481 0.225742 0.989866
O O8 0.303716 0.728519 0.003740
O O9 0.652290 0.019648 0.276484
#
# Coordination Sequence:
#
# PCOD9295101 Si02
#       5
#     4   8   8   8   8
#     4   8  16  34  62 108 148 192 234 310 392 470
#     4   9  18  34  65 106 150 190 247 307 386 448
#     4  10  23  42  64  97 143 195 240 294 359 419
#     4  10  23  42  64  95 143 195 240 294 358 418
#     4  11  20  39  65 103 148 191 260 303 363 440
#
# _framework density 26.920504000000001
#
# number of rings (size 3 to 8) (size 9 to 14) (size 15 to 20)
#    0.000    2.222    2.222    0.000    0.000    7.111 
#    0.000    0.000    0.000    0.000    0.000   77.778 
#    0.000    0.000    0.000    0.000    0.000    0.000 
#
# Total GULP energy -100553.545331 kJ/mol
# GULP energy per Si atom -5586.308074 kJ/mol
# Density = 2.685923 g / cm^3
# Si number density = 26.920504 Si / 1000 Ang^3
#
#
#
# Elastic Constant Matrix: (Units=GPa)
#
#
# Indices 1 2 3 4 5 6 
#
# 1 178.8428 26.4855 81.4768 0.0000 -20.0098 0.0000
# 2 26.4855 153.8078 54.1356 0.0000 -5.4826 0.0000
# 3 81.4768 54.1356 154.0115 0.0000 -10.4215 0.0000
# 4 0.0000 0.0000 0.0000 45.4680 0.0000 -5.1432
# 5 -20.0098 -5.4826 -10.4215 0.0000 78.4049 0.0000
# 6 0.0000 0.0000 0.0000 -5.1432 0.0000 7.0229
#
#
#
# Elastic Compliance Matrix: (Units=1/GPa)
#
#
# Indices 1 2 3 4 5 6 
#
# 1 0.007519 0.000139 -0.003932 0.000000 0.001406 0.000000
# 2 0.000139 0.007424 -0.002670 0.000000 0.000200 0.000000
# 3 -0.003932 -0.002670 0.009517 0.000000 0.000075 0.000000
# 4 0.000000 0.000000 0.000000 0.023980 0.000000 0.017562
# 5 0.001406 0.000200 0.000075 0.000000 0.013137 0.000000
# 6 0.000000 0.000000 0.000000 0.017562 0.000000 0.155254
#
#
# Mechanical properties :
#
#
# Convention : Reuss Voigt Hill
#
# Bulk Modulus (GPa) = 86.68825 90.09532 88.39179
# Shear Modulus (GPa) = 21.40398 47.81677 34.61037
#
# Velocity S-wave (km/s) = 2.82278 4.21910 3.58949
# Velocity P-wave (km/s) = 6.54947 7.56797 7.07707
#
# Compressibility (1/GPa) = 0.01153559
#
# Stress axis : x y z
#
# Youngs Moduli (GPa) = 132.98839 134.68959 105.07995
#
# Poissons Ratio (x) = -0.01874 0.41315
# Poissons Ratio (y) = -0.01850 0.28054
# Poissons Ratio (z) = 0.52288 0.35960
#
# Static dielectric constant tensor:
#      x y z
#    x 2.238510 0.000000 -0.011900 
#    y 0.000000 2.054560 0.000000 
#    z -0.011900 0.000000 2.140740 
# 
# From -- ./inp_files/68022.got.cif
#   From: 2010.05.17/outbox.cif.g08.bks.cpg/sg15_35_cif.got.tgz:68022.got - 2010.06.03 18:47:42.
