data_PCOD9295020
_publ_section_title
;
Structure prediction by ZEFSAII (Michael W. Deem and Ramdas Pophale) SiO2 
 PCOD9295020
Probable space group: C 2/C
;
_chemical_formula_sum "Si O2"
_cell_formula_units_Z 44
_cell_length_a 7.404520
_cell_length_b 16.804932
_cell_length_c 14.866551
_cell_angle_alpha 90.000000
_cell_angle_beta 91.771321
_cell_angle_gamma 90.000000
_cell_volume 1848.997488
_symmetry_space_group_name_H-M "C 2/C"
_symmetry_group_IT_number 15
_symmetry_cell_setting 'monoclinic'
loop_
_space_group_symop_operation_xyz
x,y,z
-x,y,1/2-z
-x,-y,-z
x,-y,1/2+z
1/2+x,1/2+y,z
1/2-x,1/2+y,1/2-z
1/2-x,1/2-y,-z
1/2+x,1/2-y,1/2+z
loop_
_atom_site_type_symbol
_atom_site_label
_atom_site_fract_x
_atom_site_fract_y
_atom_site_fract_z
Si Si1 0.383419 0.895361 0.667676
Si Si2 0.561436 0.289417 0.582581
Si Si3 0.000000 0.298340 0.250000
Si Si4 0.738940 0.072338 0.817453
Si Si5 0.554372 0.423448 0.444531
Si Si6 0.040282 0.611241 0.527751
O O1 0.500000 0.860323 0.750000
O O2 0.226507 0.836114 0.632480
O O3 0.494482 0.909909 0.576837
O O4 0.305373 0.979946 0.702160
O O5 0.449943 0.259000 0.666952
O O6 0.494604 0.349069 0.505639
O O7 0.587904 0.204945 0.534812
O O8 0.165928 0.361625 0.246257
O O9 0.945183 0.079513 0.850675
O O10 0.618718 0.091017 0.905876
O O11 0.500000 0.500000 0.500000
O O12 0.769650 0.427240 0.441348
#
# Coordination Sequence:
#
# PCOD9295020 Si02
#       6
#     8   8   4   8   8   8
#     4  11  21  37  65  92 124 164 204 262 316 362
#     4  10  23  42  61  95 131 162 210 264 305 377
#     4  10  24  42  60  94 136 160 206 266 314 366
#     4  11  22  42  67  90 127 169 208 255 313 374
#     4  11  21  38  68  93 120 163 218 257 305 373
#     4  10  23  42  65  93 127 163 212 256 310 376
#
# _framework density 23.796679999999999
#
# number of rings (size 3 to 8) (size 9 to 14) (size 15 to 20)
#    0.000    1.455    4.545    2.727    0.000    7.273 
#    0.000    2.727    0.000    0.000    0.000    0.000 
#    0.000    0.000    0.000    0.000    0.000    0.000 
#
# Total GULP energy -122871.991087 kJ/mol
# GULP energy per Si atom -5585.090504 kJ/mol
# Density = 2.374252 g / cm^3
# Si number density = 23.796680 Si / 1000 Ang^3
#
#
#
# Elastic Constant Matrix: (Units=GPa)
#
#
# Indices 1 2 3 4 5 6 
#
# 1 46.4075 10.6287 18.8221 0.0000 13.8002 0.0000
# 2 10.6287 125.6762 -7.7391 0.0000 3.8339 0.0000
# 3 18.8221 -7.7391 93.4348 0.0000 14.3300 0.0000
# 4 0.0000 0.0000 0.0000 26.3946 0.0000 2.9217
# 5 13.8002 3.8339 14.3300 0.0000 42.8431 0.0000
# 6 0.0000 0.0000 0.0000 2.9217 0.0000 26.1943
#
#
#
# Elastic Compliance Matrix: (Units=1/GPa)
#
#
# Indices 1 2 3 4 5 6 
#
# 1 0.025812 -0.002249 -0.004366 0.000000 -0.006653 0.000000
# 2 -0.002249 0.008234 0.001198 0.000000 -0.000413 0.000000
# 3 -0.004366 0.001198 0.012103 0.000000 -0.002749 0.000000
# 4 0.000000 0.000000 0.000000 0.038360 0.000000 -0.004279
# 5 -0.006653 -0.000413 -0.002749 0.000000 0.026440 0.000000
# 6 0.000000 0.000000 0.000000 -0.004279 0.000000 0.038654
#
#
# Mechanical properties :
#
#
# Convention : Reuss Voigt Hill
#
# Bulk Modulus (GPa) = 28.31540 34.32686 31.32113
# Shear Modulus (GPa) = 29.03473 35.34019 32.18746
#
# Velocity S-wave (km/s) = 3.49681 3.85787 3.68176
# Velocity P-wave (km/s) = 5.31303 5.85667 5.59146
#
# Compressibility (1/GPa) = 0.03531647
#
# Stress axis : x y z
#
# Youngs Moduli (GPa) = 38.74119 121.45425 82.62406
#
# Poissons Ratio (x) = 0.27314 0.36071
# Poissons Ratio (y) = 0.08712 -0.09902
# Poissons Ratio (z) = 0.16913 -0.14555
#
# Static dielectric constant tensor:
#      x y z
#    x 1.913860 0.000000 -0.058620 
#    y 0.000000 1.798330 0.000000 
#    z -0.058620 0.000000 1.959020 
# 
# From -- ./inp_files/134488.got.cif
#   From: 2010.05.17/outbox.cif.g08.bks.cpg/sg15_68_cif.got.tgz:134488.got - 2010.06.03 18:47:42.
