data_PCOD9295296
_publ_section_title
;
Structure prediction by ZEFSAII (Michael W. Deem and Ramdas Pophale) SiO2 
 PCOD9295296
Probable space group: C 2/C
;
_chemical_formula_sum "Si O2"
_cell_formula_units_Z 40
_cell_length_a 16.312091
_cell_length_b 13.750076
_cell_length_c 19.914264
_cell_angle_alpha 90.000000
_cell_angle_beta 154.005548
_cell_angle_gamma 90.000000
_cell_volume 1957.648535
_symmetry_space_group_name_H-M "C 2/C"
_symmetry_group_IT_number 15
_symmetry_cell_setting 'monoclinic'
loop_
_space_group_symop_operation_xyz
x,y,z
-x,y,1/2-z
-x,-y,-z
x,-y,1/2+z
1/2+x,1/2+y,z
1/2-x,1/2+y,1/2-z
1/2-x,1/2-y,-z
1/2+x,1/2-y,1/2+z
loop_
_atom_site_type_symbol
_atom_site_label
_atom_site_fract_x
_atom_site_fract_y
_atom_site_fract_z
Si Si1 0.993203 0.541343 0.168720
Si Si2 0.285908 0.310456 0.094121
Si Si3 0.095670 0.323721 0.416322
Si Si4 0.304966 0.338548 0.852349
Si Si5 0.187469 0.747907 0.123893
O O1 0.905979 0.434392 0.108658
O O2 0.000000 0.580714 0.250000
O O3 0.203917 0.560816 0.297535
O O4 0.860576 0.602512 0.021593
O O5 0.500000 0.344812 0.250000
O O6 0.251536 0.242524 0.133384
O O7 0.250000 0.250000 0.000000
O O8 0.250000 0.250000 0.500000
O O9 0.116052 0.321805 0.512135
O O10 0.888149 0.286098 0.248263
O O11 0.222487 0.304011 0.720386
O O12 0.529343 0.331234 0.014257
#
# Coordination Sequence:
#
# PCOD9295296 Si02
#       5
#     8   8   8   8   8
#     4  12  24  39  69 101 131 178 220 266 328 400
#     4  12  20  37  63  96 139 170 205 262 324 398
#     4  11  25  47  68  89 129 178 235 273 316 391
#     4  11  20  39  64  98 135 165 211 267 342 392
#     4  10  23  42  68  90 132 177 207 288 330 375
#
# _framework density 20.432677000000002
#
# number of rings (size 3 to 8) (size 9 to 14) (size 15 to 20)
#    0.000    0.800    6.000    1.800    0.000    3.200 
#    0.000    0.000    0.000    0.000    0.000    0.000 
#    0.000    0.000    0.000    0.000    0.000    0.000 
#
# Total GULP energy -111614.754511 kJ/mol
# GULP energy per Si atom -5580.737726 kJ/mol
# Density = 2.038617 g / cm^3
# Si number density = 20.432677 Si / 1000 Ang^3
#
#
#
# Elastic Constant Matrix: (Units=GPa)
#
#
# Indices 1 2 3 4 5 6 
#
# 1 86.1310 25.9742 42.7821 0.0023 3.8042 -0.0001
# 2 25.9742 80.8012 23.5516 0.0115 13.2012 0.0036
# 3 42.7821 23.5516 127.7726 0.0101 17.7656 0.0046
# 4 0.0023 0.0115 0.0101 25.3919 0.0030 3.9297
# 5 3.8042 13.2012 17.7656 0.0030 63.8041 0.0008
# 6 -0.0001 0.0036 0.0046 3.9297 0.0008 19.4273
#
#
#
# Elastic Compliance Matrix: (Units=1/GPa)
#
#
# Indices 1 2 3 4 5 6 
#
# 1 0.014883 -0.003665 -0.004462 0.000002 0.001114 0.000001
# 2 -0.003665 0.014262 -0.001063 -0.000005 -0.002436 -0.000001
# 3 -0.004462 -0.001063 0.009829 -0.000003 -0.002251 -0.000002
# 4 0.000002 -0.000005 -0.000003 0.040655 0.000000 -0.008224
# 5 0.001114 -0.002436 -0.002251 0.000000 0.016737 0.000000
# 6 0.000001 -0.000001 -0.000002 -0.008224 0.000000 0.053137
#
#
# Mechanical properties :
#
#
# Convention : Reuss Voigt Hill
#
# Bulk Modulus (GPa) = 48.55989 53.25785 50.90887
# Shear Modulus (GPa) = 28.61222 35.21779 31.91500
#
# Velocity S-wave (km/s) = 3.74614 4.15613 3.95645
# Velocity P-wave (km/s) = 6.52141 7.01091 6.77059
#
# Compressibility (1/GPa) = 0.02059313
#
# Stress axis : x y z
#
# Youngs Moduli (GPa) = 67.19092 70.11547 101.73519
#
# Poissons Ratio (x) = 0.25701 0.45399
# Poissons Ratio (y) = 0.24629 0.10812
# Poissons Ratio (z) = 0.29984 0.07452
#
# Static dielectric constant tensor:
#      x y z
#    x 1.766070 0.000000 0.028620 
#    y 0.000000 1.739610 0.000000 
#    z 0.028620 0.000000 1.730440 
# 
# From -- ./inp_files/46112.got.cif
#   From: 2010.05.17/outbox.cif.g08.bks.cpg/sg15_24_cif.got.tgz:46112.got - 2010.06.03 18:47:42.
