data_PCOD9295364
_publ_section_title
;
Structure prediction by ZEFSAII (Michael W. Deem and Ramdas Pophale) SiO2 
 PCOD9295364
Probable space group: C 2/C
;
_chemical_formula_sum "Si O2"
_cell_formula_units_Z 40
_cell_length_a 25.548655
_cell_length_b 9.584632
_cell_length_c 22.182845
_cell_angle_alpha 90.000000
_cell_angle_beta 19.838685
_cell_angle_gamma 90.000000
_cell_volume 1843.478829
_symmetry_space_group_name_H-M "C 2/C"
_symmetry_group_IT_number 15
_symmetry_cell_setting 'monoclinic'
loop_
_space_group_symop_operation_xyz
x,y,z
-x,y,1/2-z
-x,-y,-z
x,-y,1/2+z
1/2+x,1/2+y,z
1/2-x,1/2+y,1/2-z
1/2-x,1/2-y,-z
1/2+x,1/2-y,1/2+z
loop_
_atom_site_type_symbol
_atom_site_label
_atom_site_fract_x
_atom_site_fract_y
_atom_site_fract_z
Si Si1 0.726267 0.965187 0.890859
Si Si2 0.163124 0.725298 0.257168
Si Si3 0.164325 0.895740 0.602082
Si Si4 0.889416 0.131255 0.104955
Si Si5 0.428358 0.083451 0.265629
O O1 0.839371 0.930522 0.823301
O O2 0.768694 0.862162 0.790638
O O3 0.758194 0.122819 0.834022
O O4 0.554154 0.970843 0.104779
O O5 0.285774 0.624473 0.156778
O O6 0.109658 0.682960 0.248605
O O7 0.009912 0.743575 0.463882
O O8 0.250000 0.750000 0.500000
O O9 0.000000 0.891537 0.750000
O O10 0.271270 0.011162 0.455300
O O11 0.000000 0.000000 0.000000
O O12 0.500000 0.146004 0.250000
#
# Coordination Sequence:
#
# PCOD9295364 Si02
#       5
#     8   8   8   8   8
#     4  10  23  44  64  97 139 176 229 280 343 408
#     4  11  22  44  68  99 138 174 234 283 338 412
#     4  11  25  43  68 100 135 178 227 281 347 413
#     4  10  24  42  66  98 138 181 228 280 348 402
#     4  10  23  42  70 100 135 179 226 279 346 406
#
# _framework density 21.698107
#
# number of rings (size 3 to 8) (size 9 to 14) (size 15 to 20)
#    0.000    1.600    2.000    1.800    5.600    8.000 
#    3.600    0.000    0.000    0.000    0.000    0.000 
#    0.000    0.000    0.000    0.000    0.000    0.000 
#
# Total GULP energy -111676.596919 kJ/mol
# GULP energy per Si atom -5583.829846 kJ/mol
# Density = 2.164872 g / cm^3
# Si number density = 21.698107 Si / 1000 Ang^3
#
#
#
# Elastic Constant Matrix: (Units=GPa)
#
#
# Indices 1 2 3 4 5 6 
#
# 1 150.9273 38.9802 73.3206 0.0000 -12.1477 0.0000
# 2 38.9802 39.0626 10.7669 -0.0005 -5.8269 0.0003
# 3 73.3206 10.7669 90.9161 -0.0005 -15.1487 0.0004
# 4 0.0000 -0.0005 -0.0005 24.5124 0.0002 8.1838
# 5 -12.1477 -5.8269 -15.1487 0.0002 46.5401 -0.0001
# 6 0.0000 0.0003 0.0004 8.1838 -0.0001 33.6741
#
#
#
# Elastic Compliance Matrix: (Units=1/GPa)
#
#
# Indices 1 2 3 4 5 6 
#
# 1 0.014869 -0.012042 -0.010753 -0.000001 -0.001127 0.000000
# 2 -0.012042 0.036477 0.005951 0.000001 0.003361 -0.000001
# 3 -0.010753 0.005951 0.019691 0.000001 0.004348 0.000000
# 4 -0.000001 0.000001 0.000001 0.044398 0.000000 -0.010790
# 5 -0.001127 0.003361 0.004348 0.000000 0.023029 0.000000
# 6 0.000000 -0.000001 0.000000 -0.010790 0.000000 0.032319
#
#
# Mechanical properties :
#
#
# Convention : Reuss Voigt Hill
#
# Bulk Modulus (GPa) = 26.77364 58.56015 42.66690
# Shear Modulus (GPa) = 23.05017 31.46789 27.25903
#
# Velocity S-wave (km/s) = 3.26285 3.81236 3.54826
# Velocity P-wave (km/s) = 5.15372 6.81366 6.04098
#
# Compressibility (1/GPa) = 0.03735017
#
# Stress axis : x y z
#
# Youngs Moduli (GPa) = 67.25522 27.41447 50.78587
#
# Poissons Ratio (x) = 0.33011 0.54609
# Poissons Ratio (y) = 0.80986 -0.30224
# Poissons Ratio (z) = 0.72318 -0.16315
#
# Static dielectric constant tensor:
#      x y z
#    x 1.801020 0.000000 0.020570 
#    y 0.000000 1.818620 0.000000 
#    z 0.020570 0.000000 1.846110 
# 
# From -- ./inp_files/255405.got.cif
#   From: 2010.05.17/outbox.cif.g08.bks.cpg/sg15_128_cif.got.tgz:255405.got - 2010.06.03 18:47:42.
