data_PCOD9295013
_publ_section_title
;
Structure prediction by ZEFSAII (Michael W. Deem and Ramdas Pophale) SiO2 
 PCOD9295013
Probable space group: C 2/C
;
_chemical_formula_sum "Si O2"
_cell_formula_units_Z 48
_cell_length_a 26.333995
_cell_length_b 20.281303
_cell_length_c 11.656358
_cell_angle_alpha 90.000000
_cell_angle_beta 22.127365
_cell_angle_gamma 90.000000
_cell_volume 2344.945490
_symmetry_space_group_name_H-M "C 2/C"
_symmetry_group_IT_number 15
_symmetry_cell_setting 'monoclinic'
loop_
_space_group_symop_operation_xyz
x,y,z
-x,y,1/2-z
-x,-y,-z
x,-y,1/2+z
1/2+x,1/2+y,z
1/2-x,1/2+y,1/2-z
1/2-x,1/2-y,-z
1/2+x,1/2-y,1/2+z
loop_
_atom_site_type_symbol
_atom_site_label
_atom_site_fract_x
_atom_site_fract_y
_atom_site_fract_z
Si Si1 0.629030 0.344865 0.855290
Si Si2 0.219102 0.478094 0.325830
Si Si3 0.000000 0.039034 0.750000
Si Si4 0.658843 0.864061 0.285166
Si Si5 0.852930 0.620698 0.065445
Si Si6 0.919195 0.570704 0.170387
Si Si7 0.500000 0.764273 0.750000
O O1 0.715460 0.344888 0.558245
O O2 0.736124 0.342473 0.739174
O O3 0.549990 0.412893 0.043340
O O4 0.521849 0.286386 0.098177
O O5 0.172598 0.434825 0.316727
O O6 0.144102 0.548069 0.499196
O O7 0.188987 0.437977 0.502831
O O8 0.373233 0.495810 0.983459
O O9 0.528972 0.874020 0.475861
O O10 0.622967 0.813387 0.462327
O O11 0.841529 0.597057 0.220739
O O12 0.000000 0.653056 0.750000
O O13 0.000000 0.500000 0.000000
#
# Coordination Sequence:
#
# PCOD9295013 Si02
#       7
#     8   8   4   8   8   8   4
#     4  10  23  42  61  87 117 169 203 243 300 352
#     4  11  21  35  57  94 124 155 192 248 309 364
#     4   9  22  40  54  90 132 151 194 238 310 373
#     4  12  21  38  69  86 117 159 204 256 297 355
#     4  11  19  34  61  90 125 152 193 248 302 363
#     4  12  19  33  59  96 122 150 194 250 308 362
#     4  11  24  44  60  88 118 159 220 244 288 365
#
# _framework density 20.469559
#
# number of rings (size 3 to 8) (size 9 to 14) (size 15 to 20)
#    0.000    1.000    6.667    1.500    0.000    0.667 
#    6.000    0.833    1.833    0.000    0.000    0.000 
#    0.000    0.000    0.000    0.000    0.000    0.000 
#
# Total GULP energy -133641.079023 kJ/mol
# GULP energy per Si atom -5568.378293 kJ/mol
# Density = 2.042297 g / cm^3
# Si number density = 20.469559 Si / 1000 Ang^3
#
#
#
# Elastic Constant Matrix: (Units=GPa)
#
#
# Indices 1 2 3 4 5 6 
#
# 1 66.7352 7.7546 29.9443 0.0001 10.5286 0.0000
# 2 7.7546 59.0265 20.4658 0.0002 8.4013 -0.0001
# 3 29.9443 20.4658 139.2119 0.0004 22.8087 -0.0002
# 4 0.0001 0.0002 0.0004 14.3788 -0.0002 1.9429
# 5 10.5286 8.4013 22.8087 -0.0002 27.4179 0.0001
# 6 0.0000 -0.0001 -0.0002 1.9429 0.0001 5.5160
#
#
#
# Elastic Compliance Matrix: (Units=1/GPa)
#
#
# Indices 1 2 3 4 5 6 
#
# 1 0.016985 -0.000666 -0.002918 0.000000 -0.003891 0.000000
# 2 -0.000666 0.018227 -0.001926 0.000000 -0.003727 0.000000
# 3 -0.002918 -0.001926 0.009047 0.000000 -0.005815 0.000000
# 4 0.000000 0.000000 0.000000 0.073022 0.000001 -0.025720
# 5 -0.003891 -0.003727 -0.005815 0.000001 0.043947 -0.000001
# 6 0.000000 0.000000 0.000000 -0.025720 -0.000001 0.190349
#
#
# Mechanical properties :
#
#
# Convention : Reuss Voigt Hill
#
# Bulk Modulus (GPa) = 30.08427 42.36699 36.22563
# Shear Modulus (GPa) = 13.38055 23.24981 18.31518
#
# Velocity S-wave (km/s) = 2.55949 3.37385 2.99449
# Velocity P-wave (km/s) = 4.84393 5.99330 5.44901
#
# Compressibility (1/GPa) = 0.03323996
#
# Stress axis : x y z
#
# Youngs Moduli (GPa) = 58.87487 54.86304 110.53531
#
# Poissons Ratio (x) = 0.03653 0.32256
# Poissons Ratio (y) = 0.03920 0.21285
# Poissons Ratio (z) = 0.17180 0.10565
#
# Static dielectric constant tensor:
#      x y z
#    x 1.789520 0.000000 -0.009350 
#    y 0.000000 1.764290 0.000000 
#    z -0.009350 0.000000 1.799280 
# 
# From -- ./inp_files/114211.got.cif
#   From: 2010.05.17/outbox.cif.g08.bks.cpg/sg15_58_cif.got.tgz:114211.got - 2010.06.03 18:47:42.
