data_PCOD9295041
_publ_section_title
;
Structure prediction by ZEFSAII (Michael W. Deem and Ramdas Pophale) SiO2 
 PCOD9295041
Probable space group: C 2/C
;
_chemical_formula_sum "Si O2"
_cell_formula_units_Z 52
_cell_length_a 8.720946
_cell_length_b 19.993893
_cell_length_c 22.204526
_cell_angle_alpha 90.000000
_cell_angle_beta 36.931748
_cell_angle_gamma 90.000000
_cell_volume 2326.366342
_symmetry_space_group_name_H-M "C 2/C"
_symmetry_group_IT_number 15
_symmetry_cell_setting 'monoclinic'
loop_
_space_group_symop_operation_xyz
x,y,z
-x,y,1/2-z
-x,-y,-z
x,-y,1/2+z
1/2+x,1/2+y,z
1/2-x,1/2+y,1/2-z
1/2-x,1/2-y,-z
1/2+x,1/2-y,1/2+z
loop_
_atom_site_type_symbol
_atom_site_label
_atom_site_fract_x
_atom_site_fract_y
_atom_site_fract_z
Si Si1 0.500000 0.323588 0.750000
Si Si2 0.929981 0.563254 0.868827
Si Si3 0.944014 0.426604 0.628490
Si Si4 0.481881 0.645933 0.952090
Si Si5 0.458303 0.360284 0.199473
Si Si6 0.516417 0.079387 0.972790
Si Si7 0.830086 0.730166 0.041654
O O1 0.393111 0.279510 0.838591
O O2 0.718904 0.373495 0.706456
O O3 0.173773 0.610959 0.787789
O O4 0.854486 0.565658 0.963395
O O5 0.034034 0.487500 0.831447
O O6 0.705736 0.592358 0.898111
O O7 0.214432 0.390168 0.543786
O O8 0.922531 0.452876 0.565130
O O9 0.509529 0.672617 0.875335
O O10 0.500981 0.708946 0.988830
O O11 0.500000 0.323017 0.250000
O O12 0.675376 0.419105 0.132619
O O13 0.467273 0.158991 0.998243
O O14 0.750000 0.750000 0.000000
#
# Coordination Sequence:
#
# PCOD9295041 Si02
#       7
#     4   8   8   8   8   8   8
#     4  10  26  42  70  98 134 188 226 280 346 398
#     4  11  20  38  66  97 136 170 223 275 336 407
#     4  10  23  42  62  97 135 176 221 276 345 406
#     4  11  23  41  66  96 136 177 221 284 338 398
#     4   9  21  36  60  99 125 170 226 269 334 396
#     4   9  20  39  62  93 124 183 218 270 337 398
#     4  11  23  45  68  96 140 176 231 280 338 408
#
# _framework density 22.352457000000001
#
# number of rings (size 3 to 8) (size 9 to 14) (size 15 to 20)
#    0.000    1.846    1.538    1.385    5.385    5.538 
#    2.769    2.308    0.000    0.000    0.000    0.000 
#    0.000    0.000    0.000    0.000    0.000    0.000 
#
# Total GULP energy -145131.954256 kJ/mol
# GULP energy per Si atom -5581.998241 kJ/mol
# Density = 2.230158 g / cm^3
# Si number density = 22.352457 Si / 1000 Ang^3
#
#
#
# Elastic Constant Matrix: (Units=GPa)
#
#
# Indices 1 2 3 4 5 6 
#
# 1 131.3083 21.5188 33.1092 0.0076 4.3423 -0.0018
# 2 21.5188 24.3649 -1.6975 0.0012 3.8401 -0.0035
# 3 33.1092 -1.6975 60.7898 -0.0041 -11.5723 -0.0042
# 4 0.0076 0.0012 -0.0041 16.6481 -0.0211 2.8247
# 5 4.3423 3.8401 -11.5723 -0.0211 42.7652 0.0155
# 6 -0.0018 -0.0035 -0.0042 2.8247 0.0155 37.8127
#
#
#
# Elastic Compliance Matrix: (Units=1/GPa)
#
#
# Indices 1 2 3 4 5 6 
#
# 1 0.010966 -0.009827 -0.006632 -0.000009 -0.002026 0.000000
# 2 -0.009827 0.050452 0.006420 -0.000001 -0.001795 0.000006
# 3 -0.006632 0.006420 0.021361 0.000015 0.005877 -0.000001
# 4 -0.000009 -0.000001 0.000015 0.060838 0.000037 -0.004545
# 5 -0.002026 -0.001795 0.005877 0.000037 0.025341 -0.000013
# 6 0.000000 0.000006 -0.000001 -0.004545 -0.000013 0.026786
#
#
# Mechanical properties :
#
#
# Convention : Reuss Voigt Hill
#
# Bulk Modulus (GPa) = 15.94951 35.81378 25.88165
# Shear Modulus (GPa) = 21.12175 30.34735 25.73455
#
# Velocity S-wave (km/s) = 3.07732 3.68866 3.39677
# Velocity P-wave (km/s) = 4.44719 5.84797 5.19501
#
# Compressibility (1/GPa) = 0.06269784
#
# Stress axis : x y z
#
# Youngs Moduli (GPa) = 91.19477 19.82068 46.81521
#
# Poissons Ratio (x) = 0.19479 0.31050
# Poissons Ratio (y) = 0.89621 -0.30053
# Poissons Ratio (z) = 0.60484 -0.12724
#
# Static dielectric constant tensor:
#      x y z
#    x 1.849180 0.000010 0.027330 
#    y 0.000010 1.931480 -0.000010 
#    z 0.027330 -0.000010 1.882310 
# 
# From -- ./inp_files/266050.got.cif
#   From: 2010.05.17/outbox.cif.g08.bks.cpg/sg15_134_cif.got.tgz:266050.got - 2010.06.03 18:47:42.
