data_PCOD9295824
_publ_section_title
;
Structure prediction by ZEFSAII (Michael W. Deem and Ramdas Pophale) SiO2 
 PCOD9295824
Probable space group: C 2/C
;
_chemical_formula_sum "Si O2"
_cell_formula_units_Z 48
_cell_length_a 7.301441
_cell_length_b 28.566295
_cell_length_c 10.358914
_cell_angle_alpha 90.000000
_cell_angle_beta 111.861401
_cell_angle_gamma 90.000000
_cell_volume 2005.236322
_symmetry_space_group_name_H-M "C 2/C"
_symmetry_group_IT_number 15
_symmetry_cell_setting 'monoclinic'
loop_
_space_group_symop_operation_xyz
x,y,z
-x,y,1/2-z
-x,-y,-z
x,-y,1/2+z
1/2+x,1/2+y,z
1/2-x,1/2+y,1/2-z
1/2-x,1/2-y,-z
1/2+x,1/2-y,1/2+z
loop_
_atom_site_type_symbol
_atom_site_label
_atom_site_fract_x
_atom_site_fract_y
_atom_site_fract_z
Si Si1 0.201212 0.305150 0.714827
Si Si2 0.537490 0.736021 0.001959
Si Si3 0.266632 0.405716 0.070624
Si Si4 0.851292 0.859123 0.366963
Si Si5 0.133696 0.010248 0.408713
Si Si6 0.659315 0.891502 0.559701
O O1 0.383577 0.281137 0.838037
O O2 0.262855 0.357230 0.688172
O O3 0.000000 0.305224 0.750000
O O4 0.119909 0.277167 0.566913
O O5 0.750000 0.750000 0.000000
O O6 0.440645 0.692497 0.899782
O O7 0.287699 0.377144 0.210054
O O8 0.463201 0.392297 0.045691
O O9 0.258960 0.461023 0.090981
O O10 0.065773 0.391164 0.953231
O O11 0.683171 0.867202 0.426752
O O12 0.271229 0.055670 0.447495
O O13 0.000000 0.018865 0.250000
O O14 0.000000 0.000000 0.500000
#
# Coordination Sequence:
#
# PCOD9295824 Si02
#       6
#     8   8   8   8   8   8
#     4  10  24  43  69 107 145 195 245 303 380 441
#     4  10  23  43  70 104 144 192 246 298 371 449
#     4  11  23  46  72 110 144 194 248 299 386 443
#     4  11  24  43  75 103 149 190 241 307 370 449
#     4  12  25  48  74 107 150 201 248 317 383 456
#     4  12  26  43  75 106 147 188 253 311 373 452
#
# _framework density 23.937328999999998
#
# number of rings (size 3 to 8) (size 9 to 14) (size 15 to 20)
#    0.000    1.000    3.333    3.000   11.667    2.000 
#    0.000    3.333    0.000    0.000    0.000    0.000 
#    0.000    0.000    0.000    0.000    0.000    0.000 
#
# Total GULP energy -134112.740639 kJ/mol
# GULP energy per Si atom -5588.030860 kJ/mol
# Density = 2.388285 g / cm^3
# Si number density = 23.937329 Si / 1000 Ang^3
#
#
#
# Elastic Constant Matrix: (Units=GPa)
#
#
# Indices 1 2 3 4 5 6 
#
# 1 63.0955 21.4810 26.3969 0.0000 13.1638 0.0000
# 2 21.4810 150.2731 20.5877 0.0000 22.1868 0.0000
# 3 26.3969 20.5877 75.9175 0.0000 17.1448 0.0000
# 4 0.0000 0.0000 0.0000 32.7605 0.0000 -21.8940
# 5 13.1638 22.1868 17.1448 0.0000 33.1218 0.0000
# 6 0.0000 0.0000 0.0000 -21.8940 0.0000 -52.9073
#
#
#
# Elastic Compliance Matrix: (Units=1/GPa)
#
#
# Indices 1 2 3 4 5 6 
#
# 1 0.019456 -0.001451 -0.005486 0.000000 -0.003921 0.000000
# 2 -0.001451 0.007561 -0.000603 0.000000 -0.004176 0.000000
# 3 -0.005486 -0.000603 0.016600 0.000000 -0.006008 0.000000
# 4 0.000000 0.000000 0.000000 0.023912 0.000000 -0.009895
# 5 -0.003921 -0.004176 -0.006008 0.000000 0.037658 0.000000
# 6 0.000000 0.000000 0.000000 -0.009895 0.000000 -0.014806
#
#
# Mechanical properties :
#
#
# Convention : Reuss Voigt Hill
#
# Bulk Modulus (GPa) = 35.04096 47.35747 41.19921
# Shear Modulus (GPa) = 43.48871 17.31637 30.40254
#
# Velocity S-wave (km/s) = 4.26699 2.69254 3.56770
# Velocity P-wave (km/s) = 6.24072 5.43077 5.84978
#
# Compressibility (1/GPa) = 0.02853803
#
# Stress axis : x y z
#
# Youngs Moduli (GPa) = 51.39768 132.25578 60.24038
#
# Poissons Ratio (x) = 0.19186 0.33048
# Poissons Ratio (y) = 0.07456 0.03632
# Poissons Ratio (z) = 0.28197 0.07974
#
# Static dielectric constant tensor:
#      x y z
#    x 1.920090 0.000000 -0.053590 
#    y 0.000000 2.015230 0.000000 
#    z -0.053590 0.000000 2.862640 
# 
# From -- ./inp_files/80908.got.cif
#   From: 2010.05.17/outbox.cif.g08.bks.cpg/sg15_41_cif.got.tgz:80908.got - 2010.06.03 18:47:42.
