data_PCOD9295513
_publ_section_title
;
Structure prediction by ZEFSAII (Michael W. Deem and Ramdas Pophale) SiO2 
 PCOD9295513
Probable space group: C 2/C
;
_chemical_formula_sum "Si O2"
_cell_formula_units_Z 48
_cell_length_a 27.470547
_cell_length_b 7.230789
_cell_length_c 29.882594
_cell_angle_alpha 90.000000
_cell_angle_beta 155.770013
_cell_angle_gamma 90.000000
_cell_volume 2436.009731
_symmetry_space_group_name_H-M "C 2/C"
_symmetry_group_IT_number 15
_symmetry_cell_setting 'monoclinic'
loop_
_space_group_symop_operation_xyz
x,y,z
-x,y,1/2-z
-x,-y,-z
x,-y,1/2+z
1/2+x,1/2+y,z
1/2-x,1/2+y,1/2-z
1/2-x,1/2-y,-z
1/2+x,1/2-y,1/2+z
loop_
_atom_site_type_symbol
_atom_site_label
_atom_site_fract_x
_atom_site_fract_y
_atom_site_fract_z
Si Si1 0.065669 0.377918 0.183846
Si Si2 0.564735 0.589985 0.257209
Si Si3 0.323256 0.004923 0.952927
Si Si4 0.736570 0.893029 0.692114
Si Si5 0.919057 0.893351 0.397710
Si Si6 0.999775 0.220496 0.868801
O O1 0.043096 0.279607 0.212260
O O2 0.170914 0.262492 0.248994
O O3 0.085259 0.597846 0.205939
O O4 0.939492 0.372409 0.051913
O O5 0.500000 0.583504 0.250000
O O6 0.706992 0.570104 0.379654
O O7 0.520762 0.423848 0.187770
O O8 0.289708 0.023459 0.872524
O O9 0.370750 0.186700 0.017875
O O10 0.618987 0.798885 0.612148
O O11 0.799480 0.997037 0.785302
O O12 0.977228 0.870143 0.397995
O O13 0.000000 0.000000 0.500000
#
# Coordination Sequence:
#
# PCOD9295513 Si02
#       6
#     8   8   8   8   8   8
#     4   9  21  43  63  89 130 164 211 265 312 378
#     4  11  23  44  68  96 127 163 216 270 328 385
#     4   9  22  42  62  89 128 167 210 261 317 386
#     4  11  22  39  63  95 129 171 217 255 316 383
#     4  12  25  37  66  97 130 176 215 263 322 371
#     4  10  23  43  62  91 133 164 217 259 321 379
#
# _framework density 19.704356000000001
#
# number of rings (size 3 to 8) (size 9 to 14) (size 15 to 20)
#    1.000    0.667    3.333    2.000    2.333    4.000 
#    3.000    0.000    0.000    0.000    0.000    0.000 
#    0.000    0.000    0.000    0.000    0.000    0.000 
#
# Total GULP energy -133803.131366 kJ/mol
# GULP energy per Si atom -5575.130474 kJ/mol
# Density = 1.965951 g / cm^3
# Si number density = 19.704356 Si / 1000 Ang^3
#
#
#
# Elastic Constant Matrix: (Units=GPa)
#
#
# Indices 1 2 3 4 5 6 
#
# 1 84.0527 5.6578 10.3950 -0.0007 -24.4949 0.0009
# 2 5.6578 55.4350 4.8422 -0.0018 -20.0897 0.0036
# 3 10.3950 4.8422 69.2556 -0.0003 -3.3528 0.0002
# 4 -0.0007 -0.0018 -0.0003 20.2305 0.0000 4.4069
# 5 -24.4949 -20.0897 -3.3528 0.0000 20.4206 0.0003
# 6 0.0009 0.0036 0.0002 4.4069 0.0003 20.2323
#
#
#
# Elastic Compliance Matrix: (Units=1/GPa)
#
#
# Indices 1 2 3 4 5 6 
#
# 1 0.022528 0.011748 -0.002354 0.000003 0.038194 -0.000004
# 2 0.011748 0.034188 -0.001858 0.000005 0.047420 -0.000008
# 3 -0.002354 -0.001858 0.014815 0.000000 -0.002219 0.000000
# 4 0.000003 0.000005 0.000000 0.051892 0.000009 -0.011303
# 5 0.038194 0.047420 -0.002219 0.000009 0.141072 -0.000014
# 6 -0.000004 -0.000008 0.000000 -0.011303 -0.000014 0.051888
#
#
# Mechanical properties :
#
#
# Convention : Reuss Voigt Hill
#
# Bulk Modulus (GPa) = 11.54691 27.83703 19.69197
# Shear Modulus (GPa) = 15.14334 24.69992 19.92163
#
# Velocity S-wave (km/s) = 2.77524 3.54436 3.18311
# Velocity P-wave (km/s) = 4.01772 5.55949 4.85026
#
# Compressibility (1/GPa) = 0.08660322
#
# Stress axis : x y z
#
# Youngs Moduli (GPa) = 44.38870 29.25044 67.49897
#
# Poissons Ratio (x) = -0.34363 0.15888
# Poissons Ratio (y) = -0.52147 0.12541
# Poissons Ratio (z) = 0.10448 0.05435
#
# Static dielectric constant tensor:
#      x y z
#    x 1.686410 -0.000030 0.026610 
#    y -0.000030 1.488720 0.000010 
#    z 0.026610 0.000010 1.718750 
# 
# From -- ./inp_files/281722.got.cif
#   From: 2010.05.17/outbox.cif.g08.bks.cpg/sg15_141_cif.got.tgz:281722.got - 2010.06.03 18:47:42.
