data_PCOD9295256
_publ_section_title
;
Structure prediction by ZEFSAII (Michael W. Deem and Ramdas Pophale) SiO2 
 PCOD9295256
Probable space group: C 2/C
;
_chemical_formula_sum "Si O2"
_cell_formula_units_Z 44
_cell_length_a 19.119568
_cell_length_b 12.473144
_cell_length_c 8.850770
_cell_angle_alpha 90.000000
_cell_angle_beta 71.922736
_cell_angle_gamma 90.000000
_cell_volume 2006.553141
_symmetry_space_group_name_H-M "C 2/C"
_symmetry_group_IT_number 15
_symmetry_cell_setting 'monoclinic'
loop_
_space_group_symop_operation_xyz
x,y,z
-x,y,1/2-z
-x,-y,-z
x,-y,1/2+z
1/2+x,1/2+y,z
1/2-x,1/2+y,1/2-z
1/2-x,1/2-y,-z
1/2+x,1/2-y,1/2+z
loop_
_atom_site_type_symbol
_atom_site_label
_atom_site_fract_x
_atom_site_fract_y
_atom_site_fract_z
Si Si1 0.311754 0.245566 0.235370
Si Si2 0.500000 0.523568 0.250000
Si Si3 0.098202 0.419830 0.027182
Si Si4 0.846381 0.182904 0.052396
Si Si5 0.075192 0.371810 0.379256
Si Si6 0.894004 0.939850 0.065334
O O1 0.356742 0.153419 0.118939
O O2 0.227352 0.211902 0.306728
O O3 0.337258 0.272844 0.388801
O O4 0.330215 0.355178 0.135442
O O5 0.449243 0.453112 0.171271
O O6 0.445029 0.591292 0.389970
O O7 0.108874 0.544257 0.976954
O O8 0.112297 0.396560 0.193123
O O9 0.011525 0.394411 0.067287
O O10 0.911352 0.250668 0.082724
O O11 0.862467 0.057366 0.050100
#
# Coordination Sequence:
#
# PCOD9295256 Si02
#       6
#     8   4   8   8   8   8
#     4  11  26  44  65  94 136 177 216 270 329 396
#     4  10  24  42  72  98 134 166 222 282 334 394
#     4  10  23  42  67  96 128 170 219 267 320 384
#     4  11  26  44  65  94 136 177 216 270 329 396
#     4  10  23  42  67  96 128 170 219 267 320 384
#     4  11  24  44  68 102 131 176 218 280 333 394
#
# _framework density 21.928151
#
# number of rings (size 3 to 8) (size 9 to 14) (size 15 to 20)
#    0.000    1.455    1.818    1.091   10.182    2.909 
#    0.000    0.000    0.000    0.000    0.000    0.000 
#    0.000    0.000    0.000    0.000    0.000    0.000 
#
# Total GULP energy -123060.695991 kJ/mol
# GULP energy per Si atom -5593.668000 kJ/mol
# Density = 2.187824 g / cm^3
# Si number density = 21.928151 Si / 1000 Ang^3
#
#
#
# Elastic Constant Matrix: (Units=GPa)
#
#
# Indices 1 2 3 4 5 6 
#
# 1 40.6039 18.1218 27.3128 0.0000 -11.8096 0.0000
# 2 18.1218 109.5199 31.1971 0.0000 -19.7283 0.0000
# 3 27.3128 31.1971 118.8360 0.0000 -36.9735 0.0000
# 4 0.0000 0.0000 0.0000 34.6332 0.0000 -6.2429
# 5 -11.8096 -19.7283 -36.9735 0.0000 27.0309 0.0000
# 6 0.0000 0.0000 0.0000 -6.2429 0.0000 13.0126
#
#
#
# Elastic Compliance Matrix: (Units=1/GPa)
#
#
# Indices 1 2 3 4 5 6 
#
# 1 0.030487 -0.002833 -0.004809 0.000000 0.004674 0.000000
# 2 -0.002833 0.010805 -0.000204 0.000000 0.006370 0.000000
# 3 -0.004809 -0.000204 0.015448 0.000000 0.018881 0.000000
# 4 0.000000 0.000000 0.000000 0.031607 0.000000 0.015164
# 5 0.004674 0.006370 0.018881 0.000000 0.069511 0.000000
# 6 0.000000 0.000000 0.000000 0.015164 0.000000 0.084124
#
#
# Mechanical properties :
#
#
# Convention : Reuss Voigt Hill
#
# Bulk Modulus (GPa) = 24.36114 46.91367 35.63740
# Shear Modulus (GPa) = 18.42598 27.75720 23.09159
#
# Velocity S-wave (km/s) = 2.90192 3.56170 3.24860
# Velocity P-wave (km/s) = 4.72883 6.19314 5.50985
#
# Compressibility (1/GPa) = 0.04104899
#
# Stress axis : x y z
#
# Youngs Moduli (GPa) = 32.80110 92.55065 64.73320
#
# Poissons Ratio (x) = 0.26216 0.31131
# Poissons Ratio (y) = 0.09291 0.01318
# Poissons Ratio (z) = 0.15774 0.01885
#
# Static dielectric constant tensor:
#      x y z
#    x 1.784130 0.000000 0.027310 
#    y 0.000000 1.768990 0.000000 
#    z 0.027310 0.000000 1.810470 
# 
# From -- ./inp_files/54334.got.cif
#   From: 2010.05.17/outbox.cif.g08.bks.cpg/sg15_28_cif.got.tgz:54334.got - 2010.06.03 18:47:42.
