data_PCOD9295954
_publ_section_title
;
Structure prediction by ZEFSAII (Michael W. Deem and Ramdas Pophale) SiO2 
 PCOD9295954
Probable space group: C 2/C
;
_chemical_formula_sum "Si O2"
_cell_formula_units_Z 44
_cell_length_a 9.803392
_cell_length_b 27.949677
_cell_length_c 16.722335
_cell_angle_alpha 90.000000
_cell_angle_beta 151.286280
_cell_angle_gamma 90.000000
_cell_volume 2201.321048
_symmetry_space_group_name_H-M "C 2/C"
_symmetry_group_IT_number 15
_symmetry_cell_setting 'monoclinic'
loop_
_space_group_symop_operation_xyz
x,y,z
-x,y,1/2-z
-x,-y,-z
x,-y,1/2+z
1/2+x,1/2+y,z
1/2-x,1/2+y,1/2-z
1/2-x,1/2-y,-z
1/2+x,1/2-y,1/2+z
loop_
_atom_site_type_symbol
_atom_site_label
_atom_site_fract_x
_atom_site_fract_y
_atom_site_fract_z
Si Si1 0.310714 0.973847 0.725358
Si Si2 0.050803 0.556450 0.035393
Si Si3 0.000000 0.880610 0.250000
Si Si4 0.282811 0.938587 0.045085
Si Si5 0.500000 0.768265 0.750000
Si Si6 0.469547 0.306789 0.376908
Si Si7 0.500000 0.149815 0.750000
O O1 0.500000 0.955167 0.750000
O O2 0.971953 0.969438 0.549180
O O3 0.434652 0.027806 0.802324
O O4 0.374506 0.940010 0.833930
O O5 0.770314 0.586415 0.875720
O O6 0.259672 0.569011 0.070836
O O7 0.000000 0.500000 0.000000
O O8 0.959434 0.849338 0.148935
O O9 0.313014 0.887878 0.102730
O O10 0.588531 0.735956 0.717674
O O11 0.230189 0.795874 0.572137
O O12 0.198151 0.320227 0.291781
#
# Coordination Sequence:
#
# PCOD9295954 Si02
#       7
#     8   8   4   8   4   8   4
#     4  11  24  37  60  82 124 185 236 283 318 376
#     4  10  24  36  61  82 131 182 232 268 320 375
#     4  11  22  42  64  96 131 183 232 272 328 379
#     4  11  24  40  56  90 129 175 235 277 329 377
#     4   9  22  50  74 101 130 164 215 252 380 421
#     4  10  23  43  76 102 131 168 209 285 330 435
#     4  12  24  38  64  99 135 159 215 276 330 384
#
# _framework density 19.987997
#
# number of rings (size 3 to 8) (size 9 to 14) (size 15 to 20)
#    0.000    1.455    2.727    1.091   12.727    2.182 
#    0.000    0.000    0.000    0.000    0.000    0.000 
#    0.000    0.000    0.000    0.000    0.000    0.000 
#
# Total GULP energy -122588.070883 kJ/mol
# GULP energy per Si atom -5572.185040 kJ/mol
# Density = 1.994250 g / cm^3
# Si number density = 19.987997 Si / 1000 Ang^3
#
#
#
# Elastic Constant Matrix: (Units=GPa)
#
#
# Indices 1 2 3 4 5 6 
#
# 1 202.5669 53.9881 62.3515 -0.0002 6.6608 -0.0002
# 2 53.9881 81.4541 58.3895 0.0000 7.0935 0.0000
# 3 62.3515 58.3895 114.0013 -0.0002 1.8553 -0.0002
# 4 -0.0002 0.0000 -0.0002 19.6160 -0.0001 -1.4729
# 5 6.6608 7.0935 1.8553 -0.0001 45.0956 -0.0001
# 6 -0.0002 0.0000 -0.0002 -1.4729 -0.0001 21.7770
#
#
#
# Elastic Compliance Matrix: (Units=1/GPa)
#
#
# Indices 1 2 3 4 5 6 
#
# 1 0.006296 -0.002643 -0.002083 0.000000 -0.000429 0.000000
# 2 -0.002643 0.020829 -0.009182 0.000000 -0.002508 0.000000
# 3 -0.002083 -0.009182 0.014595 0.000000 0.001152 0.000000
# 4 0.000000 0.000000 0.000000 0.051239 0.000000 0.003466
# 5 -0.000429 -0.002508 0.001152 0.000000 0.022586 0.000000
# 6 0.000000 0.000000 0.000000 0.003466 0.000000 0.046154
#
#
# Mechanical properties :
#
#
# Convention : Reuss Voigt Hill
#
# Bulk Modulus (GPa) = 71.91734 83.05339 77.48537
# Shear Modulus (GPa) = 25.75331 32.18394 28.96863
#
# Velocity S-wave (km/s) = 3.59338 4.01704 3.81110
# Velocity P-wave (km/s) = 7.29896 7.94716 7.62995
#
# Compressibility (1/GPa) = 0.01390485
#
# Stress axis : x y z
#
# Youngs Moduli (GPa) = 158.82470 48.01042 68.51496
#
# Poissons Ratio (x) = 0.12687 0.14273
# Poissons Ratio (y) = 0.41970 0.62911
# Poissons Ratio (z) = 0.33087 0.44083
#
# Static dielectric constant tensor:
#      x y z
#    x 1.767410 0.000000 -0.088610 
#    y 0.000000 1.670400 0.000000 
#    z -0.088610 0.000000 1.808210 
# 
# From -- ./inp_files/194138.got.cif
#   From: 2010.05.17/outbox.cif.g08.bks.cpg/sg15_98_cif.got.tgz:194138.got - 2010.06.03 18:47:42.
