data_PCOD9295341
_publ_section_title
;
Structure prediction by ZEFSAII (Michael W. Deem and Ramdas Pophale) SiO2 
 PCOD9295341
Probable space group: C 2/C
;
_chemical_formula_sum "Si O2"
_cell_formula_units_Z 52
_cell_length_a 17.019991
_cell_length_b 17.727463
_cell_length_c 8.934341
_cell_angle_alpha 90.000000
_cell_angle_beta 74.201368
_cell_angle_gamma 90.000000
_cell_volume 2593.849931
_symmetry_space_group_name_H-M "C 2/C"
_symmetry_group_IT_number 15
_symmetry_cell_setting 'monoclinic'
loop_
_space_group_symop_operation_xyz
x,y,z
-x,y,1/2-z
-x,-y,-z
x,-y,1/2+z
1/2+x,1/2+y,z
1/2-x,1/2+y,1/2-z
1/2-x,1/2-y,-z
1/2+x,1/2-y,1/2+z
loop_
_atom_site_type_symbol
_atom_site_label
_atom_site_fract_x
_atom_site_fract_y
_atom_site_fract_z
Si Si1 0.100945 0.602913 0.356690
Si Si2 0.789298 0.671590 0.429493
Si Si3 0.500000 0.293869 0.750000
Si Si4 0.635821 0.961873 0.159879
Si Si5 0.192801 0.029918 0.377790
Si Si6 0.086978 0.061254 0.149176
Si Si7 0.435590 0.838470 0.085877
O O1 0.164060 0.663991 0.255531
O O2 0.094015 0.540194 0.230263
O O3 0.134190 0.558442 0.485805
O O4 0.016269 0.637816 0.453568
O O5 0.750000 0.750000 0.500000
O O6 0.724137 0.603151 0.453706
O O7 0.859520 0.660163 0.515104
O O8 0.436686 0.351122 0.862572
O O9 0.545912 0.240998 0.844210
O O10 0.588059 0.896978 0.271782
O O11 0.728662 0.974947 0.166815
O O12 0.157294 0.055868 0.237922
O O13 0.120409 0.985046 0.494019
O O14 0.000000 0.028564 0.250000
#
# Coordination Sequence:
#
# PCOD9295341 Si02
#       7
#     8   8   4   8   8   8   8
#     4  11  23  42  66 103 133 182 220 275 346 411
#     4  11  25  43  66  94 140 174 219 291 343 412
#     4  10  24  42  66  90 138 174 230 274 324 402
#     4  11  22  38  71  99 138 167 218 285 337 418
#     4  11  21  44  64 102 125 169 226 276 350 389
#     4  10  23  42  69  90 129 175 228 285 323 404
#     4  12  22  44  62 100 134 182 223 274 342 416
#
# _framework density 20.047419000000001
#
# number of rings (size 3 to 8) (size 9 to 14) (size 15 to 20)
#    0.462    0.615    1.538    6.923    0.000    2.462 
#    5.538    1.538    0.000    0.000    0.000    0.000 
#    0.000    0.000    0.000    0.000    0.000    0.000 
#
# Total GULP energy -145138.524395 kJ/mol
# GULP energy per Si atom -5582.250938 kJ/mol
# Density = 2.000179 g / cm^3
# Si number density = 20.047419 Si / 1000 Ang^3
#
#
#
# Elastic Constant Matrix: (Units=GPa)
#
#
# Indices 1 2 3 4 5 6 
#
# 1 74.4346 22.3911 15.0643 0.0000 0.7388 0.0000
# 2 22.3911 106.5666 52.4264 0.0000 -12.0456 0.0000
# 3 15.0643 52.4264 94.8067 0.0000 -10.7815 0.0000
# 4 0.0000 0.0000 0.0000 16.1905 0.0000 -8.7954
# 5 0.7388 -12.0456 -10.7815 0.0000 45.6338 0.0000
# 6 0.0000 0.0000 0.0000 -8.7954 0.0000 45.8713
#
#
#
# Elastic Compliance Matrix: (Units=1/GPa)
#
#
# Indices 1 2 3 4 5 6 
#
# 1 0.014450 -0.002711 -0.000930 0.000000 -0.001169 0.000000
# 2 -0.002711 0.013539 -0.006828 0.000000 0.002004 0.000000
# 3 -0.000930 -0.006828 0.014662 0.000000 0.001677 0.000000
# 4 0.000000 0.000000 0.000000 0.068946 0.000000 0.013220
# 5 -0.001169 0.002004 0.001677 0.000000 0.022858 0.000000
# 6 0.000000 0.000000 0.000000 0.013220 0.000000 0.024335
#
#
# Mechanical properties :
#
#
# Convention : Reuss Voigt Hill
#
# Bulk Modulus (GPa) = 46.05491 50.61905 48.33698
# Shear Modulus (GPa) = 26.74282 33.93418 30.33850
#
# Velocity S-wave (km/s) = 3.65633 4.11870 3.89438
# Velocity P-wave (km/s) = 6.39123 6.92263 6.66223
#
# Compressibility (1/GPa) = 0.02171321
#
# Stress axis : x y z
#
# Youngs Moduli (GPa) = 69.20473 73.85981 68.20295
#
# Poissons Ratio (x) = 0.20022 0.06343
# Poissons Ratio (y) = 0.18760 0.46571
# Poissons Ratio (z) = 0.06436 0.50433
#
# Static dielectric constant tensor:
#      x y z
#    x 1.750080 0.000000 0.005160 
#    y 0.000000 1.708030 0.000000 
#    z 0.005160 0.000000 1.715750 
# 
# From -- ./inp_files/48443.got.cif
#   From: 2010.05.17/outbox.cif.g08.bks.cpg/sg15_25_cif.got.tgz:48443.got - 2010.06.03 18:47:42.
