data_PCOD9295108
_publ_section_title
;
Structure prediction by ZEFSAII (Michael W. Deem and Ramdas Pophale) SiO2 
 PCOD9295108
Probable space group: C 2/C
;
_chemical_formula_sum "Si O2"
_cell_formula_units_Z 64
_cell_length_a 16.058880
_cell_length_b 12.050642
_cell_length_c 27.479866
_cell_angle_alpha 90.000000
_cell_angle_beta 36.865857
_cell_angle_gamma 90.000000
_cell_volume 3190.439098
_symmetry_space_group_name_H-M "C 2/C"
_symmetry_group_IT_number 15
_symmetry_cell_setting 'monoclinic'
loop_
_space_group_symop_operation_xyz
x,y,z
-x,y,1/2-z
-x,-y,-z
x,-y,1/2+z
1/2+x,1/2+y,z
1/2-x,1/2+y,1/2-z
1/2-x,1/2-y,-z
1/2+x,1/2-y,1/2+z
loop_
_atom_site_type_symbol
_atom_site_label
_atom_site_fract_x
_atom_site_fract_y
_atom_site_fract_z
Si Si1 0.450517 0.948383 0.329714
Si Si2 0.931068 0.102490 0.590314
Si Si3 0.592697 0.161454 0.431734
Si Si4 0.941484 0.917025 0.657007
Si Si5 0.116037 0.198319 0.153598
Si Si6 0.139578 0.732391 0.881999
Si Si7 0.845991 0.493083 0.175362
Si Si8 0.718602 0.574856 0.400391
O O1 0.500000 0.956795 0.250000
O O2 0.387657 0.824709 0.364769
O O3 0.564337 0.973430 0.317668
O O4 0.328700 0.038747 0.388619
O O5 0.892962 0.230160 0.609622
O O6 0.068072 0.094723 0.493575
O O7 0.966518 0.036907 0.622090
O O8 0.808720 0.030311 0.622427
O O9 0.735913 0.161378 0.395092
O O10 0.468124 0.183886 0.527850
O O11 0.573887 0.056371 0.405584
O O12 0.935778 0.821475 0.618316
O O13 0.058500 0.882813 0.639632
O O14 0.788631 0.931186 0.751464
O O15 0.000000 0.197076 0.250000
O O16 0.194214 0.628859 0.825669
O O17 0.251208 0.812229 0.856345
#
# Coordination Sequence:
#
# PCOD9295108 Si02
#       8
#     8   8   8   8   8   8   8   8
#     4  11  22  38  63  95 123 165 221 266 309 386
#     4   9  19  36  62  94 121 165 203 255 317 372
#     4  11  23  42  68  92 135 169 211 266 325 384
#     4  11  23  38  65  92 129 164 219 268 319 378
#     4  11  22  39  62  96 126 162 214 270 319 373
#     4  10  23  42  64  98 129 172 210 259 330 389
#     4  12  25  40  64  94 132 171 213 263 330 379
#     4   9  18  38  63  89 127 159 207 256 310 378
#
# _framework density 20.059934999999999
#
# number of rings (size 3 to 8) (size 9 to 14) (size 15 to 20)
#    0.000    1.500    3.750    2.625    3.500    1.500 
#    0.000    3.750    2.750    0.000    0.000    0.000 
#    0.000    0.000    0.000    0.000    0.000    0.000 
#
# Total GULP energy -178546.219048 kJ/mol
# GULP energy per Si atom -5579.569345 kJ/mol
# Density = 2.001428 g / cm^3
# Si number density = 20.059935 Si / 1000 Ang^3
#
#
#
# Elastic Constant Matrix: (Units=GPa)
#
#
# Indices 1 2 3 4 5 6 
#
# 1 103.0570 51.1792 14.1995 0.0000 1.1374 0.0000
# 2 51.1792 99.7381 19.9546 0.0000 8.0783 0.0000
# 3 14.1995 19.9546 24.7608 0.0000 9.7014 0.0000
# 4 0.0000 0.0000 0.0000 26.4267 0.0000 14.2506
# 5 1.1374 8.0783 9.7014 0.0000 19.1574 0.0000
# 6 0.0000 0.0000 0.0000 14.2506 0.0000 30.1707
#
#
#
# Elastic Compliance Matrix: (Units=1/GPa)
#
#
# Indices 1 2 3 4 5 6 
#
# 1 0.013388 -0.006372 -0.004097 0.000000 0.003967 0.000000
# 2 -0.006372 0.014987 -0.007605 0.000000 -0.002090 0.000000
# 3 -0.004097 -0.007605 0.059273 0.000000 -0.026566 0.000000
# 4 0.000000 0.000000 0.000000 0.050772 0.000000 -0.023982
# 5 0.003967 -0.002090 -0.026566 0.000000 0.066298 0.000000
# 6 0.000000 0.000000 0.000000 -0.023982 0.000000 0.044472
#
#
# Mechanical properties :
#
#
# Convention : Reuss Voigt Hill
#
# Bulk Modulus (GPa) = 19.41696 44.24694 31.83195
# Shear Modulus (GPa) = 16.52867 24.63248 20.58057
#
# Velocity S-wave (km/s) = 2.87359 3.50801 3.20653
# Velocity P-wave (km/s) = 4.55088 6.20592 5.44169
#
# Compressibility (1/GPa) = 0.05150138
#
# Stress axis : x y z
#
# Youngs Moduli (GPa) = 74.69223 66.72658 16.87100
#
# Poissons Ratio (x) = 0.42515 0.06912
# Poissons Ratio (y) = 0.47591 0.12830
# Poissons Ratio (z) = 0.30601 0.50744
#
# Static dielectric constant tensor:
#      x y z
#    x 1.705230 0.000000 0.029180 
#    y 0.000000 1.725100 0.000000 
#    z 0.029180 0.000000 1.783710 
# 
# From -- ./inp_files/296121.got.cif
#   From: 2010.05.17/outbox.cif.g08.bks.cpg/sg15_149_cif.got.tgz:296121.got - 2010.06.03 18:47:42.
