data_PCOD9295200
_publ_section_title
;
Structure prediction by ZEFSAII (Michael W. Deem and Ramdas Pophale) SiO2 
 PCOD9295200
Probable space group: C 2/C
;
_chemical_formula_sum "Si O2"
_cell_formula_units_Z 48
_cell_length_a 9.770479
_cell_length_b 11.936277
_cell_length_c 18.908199
_cell_angle_alpha 90.000000
_cell_angle_beta 111.828503
_cell_angle_gamma 90.000000
_cell_volume 2047.027663
_symmetry_space_group_name_H-M "C 2/C"
_symmetry_group_IT_number 15
_symmetry_cell_setting 'monoclinic'
loop_
_space_group_symop_operation_xyz
x,y,z
-x,y,1/2-z
-x,-y,-z
x,-y,1/2+z
1/2+x,1/2+y,z
1/2-x,1/2+y,1/2-z
1/2-x,1/2-y,-z
1/2+x,1/2-y,1/2+z
loop_
_atom_site_type_symbol
_atom_site_label
_atom_site_fract_x
_atom_site_fract_y
_atom_site_fract_z
Si Si1 0.333884 0.432609 0.926221
Si Si2 0.686233 0.089245 0.531393
Si Si3 0.657670 0.834771 0.768073
Si Si4 0.739969 0.689197 0.574775
Si Si5 0.937352 0.255644 0.367438
Si Si6 0.110906 0.597256 0.110734
O O1 0.199050 0.398039 0.848399
O O2 0.326939 0.565300 0.934461
O O3 0.460462 0.368714 0.906194
O O4 0.314819 0.382000 0.001362
O O5 0.631321 0.175671 0.579803
O O6 0.548933 0.068639 0.451660
O O7 0.716603 0.978115 0.582445
O O8 0.500000 0.776368 0.750000
O O9 0.802876 0.758098 0.786628
O O10 0.638271 0.918116 0.698636
O O11 0.750000 0.750000 0.500000
O O12 0.644095 0.773034 0.603292
O O13 0.912674 0.690347 0.629878
#
# Coordination Sequence:
#
# PCOD9295200 Si02
#       6
#     8   8   8   8   8   8
#     4  10  23  42  66  96 126 177 220 272 335 401
#     4  11  19  40  70  92 126 169 228 273 319 399
#     4  10  23  43  63  94 137 168 222 271 338 401
#     4  12  22  42  66  99 133 169 220 282 329 392
#     4  10  24  40  65 100 127 172 224 268 338 402
#     4  11  22  38  67  97 128 174 220 271 332 398
#
# _framework density 23.448632
#
# number of rings (size 3 to 8) (size 9 to 14) (size 15 to 20)
#    1.000    0.333    5.000    1.500    0.000    2.667 
#    0.000    0.000    0.000    0.000    0.000    0.000 
#    0.000    0.000    0.000    0.000    0.000    0.000 
#
# Total GULP energy -133800.821481 kJ/mol
# GULP energy per Si atom -5575.034228 kJ/mol
# Density = 2.339526 g / cm^3
# Si number density = 23.448632 Si / 1000 Ang^3
#
#
#
# Elastic Constant Matrix: (Units=GPa)
#
#
# Indices 1 2 3 4 5 6 
#
# 1 61.6847 11.0342 13.2606 0.0000 8.3183 0.0000
# 2 11.0342 99.3309 -9.7241 0.0000 0.3231 0.0000
# 3 13.2606 -9.7241 107.4455 0.0000 5.1317 0.0000
# 4 0.0000 0.0000 0.0000 12.0033 0.0000 4.0295
# 5 8.3183 0.3231 5.1317 0.0000 36.4652 0.0000
# 6 0.0000 0.0000 0.0000 4.0295 0.0000 12.9981
#
#
#
# Elastic Compliance Matrix: (Units=1/GPa)
#
#
# Indices 1 2 3 4 5 6 
#
# 1 0.017563 -0.002153 -0.002187 0.000000 -0.003680 0.000000
# 2 -0.002153 0.010423 0.001198 0.000000 0.000230 0.000000
# 3 -0.002187 0.001198 0.009727 0.000000 -0.000881 0.000000
# 4 0.000000 0.000000 0.000000 0.092988 0.000000 -0.028827
# 5 -0.003680 0.000230 -0.000881 0.000000 0.028385 0.000000
# 6 0.000000 0.000000 0.000000 -0.028827 0.000000 0.085871
#
#
# Mechanical properties :
#
#
# Convention : Reuss Voigt Hill
#
# Bulk Modulus (GPa) = 31.81677 33.06695 32.44186
# Shear Modulus (GPa) = 19.10463 29.21935 24.16199
#
# Velocity S-wave (km/s) = 2.85747 3.53384 3.21350
# Velocity P-wave (km/s) = 4.94823 5.54826 5.25682
#
# Compressibility (1/GPa) = 0.03142996
#
# Stress axis : x y z
#
# Youngs Moduli (GPa) = 56.93819 95.94105 102.80226
#
# Poissons Ratio (x) = 0.20657 0.22480
# Poissons Ratio (y) = 0.12259 -0.12316
# Poissons Ratio (z) = 0.12451 -0.11494
#
# Static dielectric constant tensor:
#      x y z
#    x 2.158940 0.000000 -0.001980 
#    y 0.000000 1.941020 0.000000 
#    z -0.001980 0.000000 1.910120 
# 
# From -- ./inp_files/237228.got.cif
#   From: 2010.05.17/outbox.cif.g08.bks.cpg/sg15_119_cif.got.tgz:237228.got - 2010.06.03 18:47:42.
