data_PCOD9295971
_publ_section_title
;
Structure prediction by ZEFSAII (Michael W. Deem and Ramdas Pophale) SiO2 
 PCOD9295971
Probable space group: C 2/C
;
_chemical_formula_sum "Si O2"
_cell_formula_units_Z 52
_cell_length_a 8.317513
_cell_length_b 12.515494
_cell_length_c 25.026420
_cell_angle_alpha 90.000000
_cell_angle_beta 111.861568
_cell_angle_gamma 90.000000
_cell_volume 2417.845486
_symmetry_space_group_name_H-M "C 2/C"
_symmetry_group_IT_number 15
_symmetry_cell_setting 'monoclinic'
loop_
_space_group_symop_operation_xyz
x,y,z
-x,y,1/2-z
-x,-y,-z
x,-y,1/2+z
1/2+x,1/2+y,z
1/2-x,1/2+y,1/2-z
1/2-x,1/2-y,-z
1/2+x,1/2-y,1/2+z
loop_
_atom_site_type_symbol
_atom_site_label
_atom_site_fract_x
_atom_site_fract_y
_atom_site_fract_z
Si Si1 0.053420 0.465961 0.430508
Si Si2 0.798856 0.379401 0.151617
Si Si3 0.392546 0.599327 0.339165
Si Si4 0.214937 0.049646 0.445697
Si Si5 0.000000 0.217809 0.250000
Si Si6 0.020524 0.846945 0.455019
Si Si7 0.743384 0.316586 0.574638
O O1 0.051874 0.416022 0.371361
O O2 0.171927 0.406433 0.490170
O O3 0.151960 0.579431 0.433385
O O4 0.865687 0.488579 0.431377
O O5 0.698019 0.482048 0.165087
O O6 0.868803 0.296458 0.202815
O O7 0.663239 0.328065 0.093381
O O8 0.589124 0.605254 0.387316
O O9 0.402361 0.643848 0.280977
O O10 0.284105 0.673591 0.366270
O O11 0.075693 0.969230 0.454931
O O12 0.152267 0.782948 0.433765
O O13 0.061205 0.814627 0.520418
#
# Coordination Sequence:
#
# PCOD9295971 Si02
#       7
#     8   8   8   8   4   8   8
#     4   9  18  34  62  95 125 155 192 254 330 386
#     4  10  23  44  62  86 124 166 208 267 307 364
#     4  10  23  44  62  86 124 166 208 267 307 364
#     4   9  18  34  62  95 125 155 192 254 330 386
#     4  12  28  44  64  90 120 176 238 254 296 366
#     4   9  18  35  61  94 123 152 193 248 325 392
#     4   9  18  35  61  94 123 152 193 248 325 392
#
# _framework density 21.506748999999999
#
# number of rings (size 3 to 8) (size 9 to 14) (size 15 to 20)
#    0.000    2.462    0.000    0.923    4.308    4.923 
#    5.538    1.538    0.000    0.000    0.000    0.000 
#    0.000    0.000    0.000    0.000    0.000    0.000 
#
# Total GULP energy -145034.680554 kJ/mol
# GULP energy per Si atom -5578.256944 kJ/mol
# Density = 2.145780 g / cm^3
# Si number density = 21.506749 Si / 1000 Ang^3
#
#
#
# Elastic Constant Matrix: (Units=GPa)
#
#
# Indices 1 2 3 4 5 6 
#
# 1 77.9347 16.5589 39.0235 0.0000 -14.1827 0.0000
# 2 16.5589 43.1933 15.3914 0.0000 -13.8926 0.0000
# 3 39.0235 15.3914 76.8988 0.0000 -30.1676 0.0000
# 4 0.0000 0.0000 0.0000 29.1671 0.0000 2.6013
# 5 -14.1827 -13.8926 -30.1676 0.0000 36.7311 0.0000
# 6 0.0000 0.0000 0.0000 2.6013 0.0000 29.5778
#
#
#
# Elastic Compliance Matrix: (Units=1/GPa)
#
#
# Indices 1 2 3 4 5 6 
#
# 1 0.017896 -0.004329 -0.009069 0.000000 -0.002175 0.000000
# 2 -0.004329 0.027618 0.000164 0.000000 0.008909 0.000000
# 3 -0.009069 0.000164 0.023936 0.000000 0.016219 0.000000
# 4 0.000000 0.000000 0.000000 0.034556 0.000000 -0.003039
# 5 -0.002175 0.008909 0.016219 0.000000 0.043076 0.000000
# 6 0.000000 0.000000 0.000000 -0.003039 0.000000 0.034076
#
#
# Mechanical properties :
#
#
# Convention : Reuss Voigt Hill
#
# Bulk Modulus (GPa) = 23.26465 37.77491 30.51978
# Shear Modulus (GPa) = 22.52721 27.56541 25.04631
#
# Velocity S-wave (km/s) = 3.23994 3.58398 3.41630
# Velocity P-wave (km/s) = 4.98369 5.89312 5.45738
#
# Compressibility (1/GPa) = 0.04298367
#
# Stress axis : x y z
#
# Youngs Moduli (GPa) = 55.87853 36.20771 41.77778
#
# Poissons Ratio (x) = 0.15674 0.37886
# Poissons Ratio (y) = 0.24189 -0.00685
# Poissons Ratio (z) = 0.50674 -0.00594
#
# Static dielectric constant tensor:
#      x y z
#    x 1.803850 0.000000 0.010710 
#    y 0.000000 1.846410 0.000000 
#    z 0.010710 0.000000 1.773350 
# 
# From -- ./inp_files/264155.got.cif
#   From: 2010.05.17/outbox.cif.g08.bks.cpg/sg15_133_cif.got.tgz:264155.got - 2010.06.03 18:47:42.
