data_PCOD9295746
_publ_section_title
;
Structure prediction by ZEFSAII (Michael W. Deem and Ramdas Pophale) SiO2 
 PCOD9295746
Probable space group: C 2/C
;
_chemical_formula_sum "Si O2"
_cell_formula_units_Z 32
_cell_length_a 6.761817
_cell_length_b 9.370111
_cell_length_c 19.954184
_cell_angle_alpha 90.000000
_cell_angle_beta 97.133373
_cell_angle_gamma 90.000000
_cell_volume 1254.490877
_symmetry_space_group_name_H-M "C 2/C"
_symmetry_group_IT_number 15
_symmetry_cell_setting 'monoclinic'
loop_
_space_group_symop_operation_xyz
x,y,z
-x,y,1/2-z
-x,-y,-z
x,-y,1/2+z
1/2+x,1/2+y,z
1/2-x,1/2+y,1/2-z
1/2-x,1/2-y,-z
1/2+x,1/2-y,1/2+z
loop_
_atom_site_type_symbol
_atom_site_label
_atom_site_fract_x
_atom_site_fract_y
_atom_site_fract_z
Si Si1 0.111589 0.587430 0.946931
Si Si2 0.305112 0.012777 0.331109
Si Si3 0.544177 0.394986 0.587788
Si Si4 0.721282 0.731059 0.227990
O O1 0.000353 0.550341 0.872920
O O2 0.055974 0.755744 0.952763
O O3 0.328418 0.513525 0.947132
O O4 0.000000 0.500000 0.000000
O O5 0.347049 0.153301 0.290501
O O6 0.141432 0.035917 0.381217
O O7 0.225905 0.895665 0.276302
O O8 0.692501 0.333311 0.652260
O O9 0.500000 0.719992 0.250000
#
# Coordination Sequence:
#
# PCOD9295746 Si02
#       4
#     8   8   8   8
#     4  11  25  46  68  99 140 185 238 293 353 428
#     4  10  23  43  68  98 138 180 221 296 353 432
#     4  10  24  43  67 101 135 176 240 285 358 424
#     4   9  21  41  62  99 131 171 226 278 354 427
#
# _framework density 25.508358000000001
#
# number of rings (size 3 to 8) (size 9 to 14) (size 15 to 20)
#    0.000    2.000    0.000    0.750   10.500    6.000 
#   18.000    0.000    0.000    0.000    0.000    0.000 
#    0.000    0.000    0.000    0.000    0.000    0.000 
#
# Total GULP energy -89493.286472 kJ/mol
# GULP energy per Si atom -5593.330405 kJ/mol
# Density = 2.545030 g / cm^3
# Si number density = 25.508358 Si / 1000 Ang^3
#
#
#
# Elastic Constant Matrix: (Units=GPa)
#
#
# Indices 1 2 3 4 5 6 
#
# 1 123.8787 45.9493 30.1692 0.0000 -7.7500 0.0000
# 2 45.9493 184.2836 67.2231 0.0000 -15.2517 0.0000
# 3 30.1692 67.2231 85.5217 0.0000 -12.7638 0.0000
# 4 0.0000 0.0000 0.0000 71.7109 0.0000 -3.2742
# 5 -7.7500 -15.2517 -12.7638 0.0000 60.6190 0.0000
# 6 0.0000 0.0000 0.0000 -3.2742 0.0000 32.3092
#
#
#
# Elastic Compliance Matrix: (Units=1/GPa)
#
#
# Indices 1 2 3 4 5 6 
#
# 1 0.009143 -0.001532 -0.001966 0.000000 0.000369 0.000000
# 2 -0.001532 0.007891 -0.005571 0.000000 0.000617 0.000000
# 3 -0.001966 -0.005571 0.017054 0.000000 0.001938 0.000000
# 4 0.000000 0.000000 0.000000 0.014010 0.000000 0.001420
# 5 0.000369 0.000617 0.001938 0.000000 0.017107 0.000000
# 6 0.000000 0.000000 0.000000 0.001420 0.000000 0.031095
#
#
# Mechanical properties :
#
#
# Convention : Reuss Voigt Hill
#
# Bulk Modulus (GPa) = 62.68946 75.59636 69.14291
# Shear Modulus (GPa) = 41.75241 49.61731 45.68486
#
# Velocity S-wave (km/s) = 4.05014 4.41516 4.23658
# Velocity P-wave (km/s) = 6.81916 7.46269 7.14817
#
# Compressibility (1/GPa) = 0.01595165
#
# Stress axis : x y z
#
# Youngs Moduli (GPa) = 109.37904 126.71959 58.63617
#
# Poissons Ratio (x) = 0.19412 0.11527
# Poissons Ratio (y) = 0.16756 0.32663
# Poissons Ratio (z) = 0.21503 0.70589
#
# Static dielectric constant tensor:
#      x y z
#    x 2.051700 0.000000 0.079410 
#    y 0.000000 2.015420 0.000000 
#    z 0.079410 0.000000 1.994650 
# 
# From -- ./inp_files/229145.got.cif
#   From: 2010.05.17/outbox.cif.g08.bks.cpg/sg15_115_cif.got.tgz:229145.got - 2010.06.03 18:47:42.
