data_PCOD9295191
_publ_section_title
;
Structure prediction by ZEFSAII (Michael W. Deem and Ramdas Pophale) SiO2 
 PCOD9295191
Probable space group: C 2/C
;
_chemical_formula_sum "Si O2"
_cell_formula_units_Z 48
_cell_length_a 16.168600
_cell_length_b 11.462354
_cell_length_c 14.679202
_cell_angle_alpha 90.000000
_cell_angle_beta 52.720638
_cell_angle_gamma 90.000000
_cell_volume 2164.679042
_symmetry_space_group_name_H-M "C 2/C"
_symmetry_group_IT_number 15
_symmetry_cell_setting 'monoclinic'
loop_
_space_group_symop_operation_xyz
x,y,z
-x,y,1/2-z
-x,-y,-z
x,-y,1/2+z
1/2+x,1/2+y,z
1/2-x,1/2+y,1/2-z
1/2-x,1/2-y,-z
1/2+x,1/2-y,1/2+z
loop_
_atom_site_type_symbol
_atom_site_label
_atom_site_fract_x
_atom_site_fract_y
_atom_site_fract_z
Si Si1 0.041556 0.608921 0.416684
Si Si2 0.580879 0.545766 0.830181
Si Si3 0.408615 0.335229 0.532834
Si Si4 0.261639 0.244889 0.237501
Si Si5 0.000000 0.501794 0.250000
Si Si6 0.850356 0.712187 0.875792
Si Si7 0.000000 0.893782 0.750000
O O1 0.978311 0.719976 0.495752
O O2 0.023788 0.580604 0.321982
O O3 0.000000 0.500000 0.500000
O O4 0.162447 0.641258 0.345438
O O5 0.582980 0.440585 0.900864
O O6 0.666803 0.641464 0.794709
O O7 0.587557 0.476004 0.732845
O O8 0.466300 0.605657 0.908516
O O9 0.293288 0.289732 0.630803
O O10 0.179998 0.268484 0.210697
O O11 0.903796 0.415264 0.341374
O O12 0.938200 0.802267 0.853262
O O13 0.750000 0.750000 0.000000
#
# Coordination Sequence:
#
# PCOD9295191 Si02
#       7
#     8   8   8   8   4   8   4
#     4  11  25  43  69  98 139 179 221 278 345 395
#     4  10  24  42  68  95 135 171 222 276 334 397
#     4  10  23  42  66  94 132 176 220 264 336 405
#     4  11  24  42  70  97 127 182 224 269 335 411
#     4  11  26  43  64 102 144 169 219 290 330 396
#     4  11  25  39  66  98 132 171 230 273 326 390
#     4  11  24  43  64  96 134 171 215 284 328 390
#
# _framework density 22.174188000000001
#
# number of rings (size 3 to 8) (size 9 to 14) (size 15 to 20)
#    0.000    1.333    1.667    2.000   14.000    4.000 
#    0.000    1.667    0.000    0.000    0.000    0.000 
#    0.000    0.000    0.000    0.000    0.000    0.000 
#
# Total GULP energy -133703.189403 kJ/mol
# GULP energy per Si atom -5570.966225 kJ/mol
# Density = 2.212372 g / cm^3
# Si number density = 22.174188 Si / 1000 Ang^3
#
#
#
# Elastic Constant Matrix: (Units=GPa)
#
#
# Indices 1 2 3 4 5 6 
#
# 1 76.4778 32.1170 16.2342 0.0000 -4.8951 0.0000
# 2 32.1170 114.4337 32.2329 0.0000 -10.7351 0.0000
# 3 16.2342 32.2329 81.9037 0.0000 -28.6756 0.0000
# 4 0.0000 0.0000 0.0000 23.4210 0.0000 1.0612
# 5 -4.8951 -10.7351 -28.6756 0.0000 40.6533 0.0000
# 6 0.0000 0.0000 0.0000 1.0612 0.0000 32.9251
#
#
#
# Elastic Compliance Matrix: (Units=1/GPa)
#
#
# Indices 1 2 3 4 5 6 
#
# 1 0.014983 -0.003787 -0.001591 0.000000 -0.000318 0.000000
# 2 -0.003787 0.010786 -0.003528 0.000000 -0.000096 0.000000
# 3 -0.001591 -0.003528 0.017954 0.000000 0.011541 0.000000
# 4 0.000000 0.000000 0.000000 0.042759 0.000000 -0.001378
# 5 -0.000318 -0.000096 0.011541 0.000000 0.032675 0.000000
# 6 0.000000 0.000000 0.000000 -0.001378 0.000000 0.030416
#
#
# Mechanical properties :
#
#
# Convention : Reuss Voigt Hill
#
# Bulk Modulus (GPa) = 38.59230 48.22038 43.40634
# Shear Modulus (GPa) = 28.40536 32.21529 30.31032
#
# Velocity S-wave (km/s) = 3.58300 3.81573 3.70120
# Velocity P-wave (km/s) = 5.87870 6.41923 6.15490
#
# Compressibility (1/GPa) = 0.02591191
#
# Stress axis : x y z
#
# Youngs Moduli (GPa) = 66.74061 92.71073 55.69829
#
# Poissons Ratio (x) = 0.35109 0.08861
# Poissons Ratio (y) = 0.25274 0.19650
# Poissons Ratio (z) = 0.10617 0.32708
#
# Static dielectric constant tensor:
#      x y z
#    x 1.866750 0.000000 -0.003980 
#    y 0.000000 1.828860 0.000000 
#    z -0.003980 0.000000 1.887930 
# 
# From -- ./inp_files/152498.got.cif
#   From: 2010.05.17/outbox.cif.g08.bks.cpg/sg15_77_cif.got.tgz:152498.got - 2010.06.03 18:47:42.
