data_PCOD9295429
_publ_section_title
;
Structure prediction by ZEFSAII (Michael W. Deem and Ramdas Pophale) SiO2 
 PCOD9295429
Probable space group: C 2/C
;
_chemical_formula_sum "Si O2"
_cell_formula_units_Z 56
_cell_length_a 28.477294
_cell_length_b 5.370001
_cell_length_c 14.538527
_cell_angle_alpha 90.000000
_cell_angle_beta 85.953025
_cell_angle_gamma 90.000000
_cell_volume 2217.732891
_symmetry_space_group_name_H-M "C 2/C"
_symmetry_group_IT_number 15
_symmetry_cell_setting 'monoclinic'
loop_
_space_group_symop_operation_xyz
x,y,z
-x,y,1/2-z
-x,-y,-z
x,-y,1/2+z
1/2+x,1/2+y,z
1/2-x,1/2+y,1/2-z
1/2-x,1/2-y,-z
1/2+x,1/2-y,1/2+z
loop_
_atom_site_type_symbol
_atom_site_label
_atom_site_fract_x
_atom_site_fract_y
_atom_site_fract_z
Si Si1 0.445355 0.809656 0.914998
Si Si2 0.529952 0.153021 0.890107
Si Si3 0.139650 0.651496 0.572657
Si Si4 0.883402 0.308252 0.618330
Si Si5 0.792286 0.394509 0.152139
Si Si6 0.086172 0.957023 0.733039
Si Si7 0.740644 0.102912 0.630547
O O1 0.445334 0.619804 0.831854
O O2 0.477707 0.048674 0.886636
O O3 0.392164 0.905485 0.931702
O O4 0.463273 0.718560 0.011544
O O5 0.551860 0.308574 0.805250
O O6 0.563580 0.909789 0.891888
O O7 0.129523 0.799921 0.479655
O O8 0.119855 0.794052 0.663941
O O9 0.193485 0.584241 0.578276
O O10 0.847246 0.537313 0.637148
O O11 0.881310 0.126851 0.705214
O O12 0.765367 0.631979 0.112886
O O13 0.777084 0.397608 0.261078
O O14 0.775241 0.131983 0.114108
#
# Coordination Sequence:
#
# PCOD9295429 Si02
#       7
#     8   8   8   8   8   8   8
#     4  10  24  46  71 104 144 185 238 300 366 442
#     4  10  24  46  71 104 144 185 238 300 366 442
#     4  11  26  44  68 105 144 188 241 301 367 444
#     4  11  26  44  68 105 144 188 241 301 367 444
#     4  10  23  42  71 106 142 192 247 303 368 444
#     4  12  24  43  76 104 142 192 244 304 369 444
#     4  10  23  42  71 106 142 192 247 303 368 444
#
# _framework density 25.251011999999999
#
# number of rings (size 3 to 8) (size 9 to 14) (size 15 to 20)
#    0.000    1.429    0.000    3.429   10.000    5.714 
#    0.000    4.286    0.000    2.571    0.000    0.000 
#    0.000    0.000    0.000    0.000    0.000    0.000 
#
# Total GULP energy -157066.160365 kJ/mol
# GULP energy per Si atom -5609.505727 kJ/mol
# Density = 2.519354 g / cm^3
# Si number density = 25.251012 Si / 1000 Ang^3
#
#
#
# Elastic Constant Matrix: (Units=GPa)
#
#
# Indices 1 2 3 4 5 6 
#
# 1 95.3174 24.0912 42.8605 0.0000 3.5546 0.0000
# 2 24.0912 89.8009 72.2523 0.0000 6.3137 0.0000
# 3 42.8605 72.2523 192.5042 0.0000 -10.3940 0.0000
# 4 0.0000 0.0000 0.0000 -117.7428 0.0000 -5.4775
# 5 3.5546 6.3137 -10.3940 0.0000 22.1800 0.0000
# 6 0.0000 0.0000 0.0000 -5.4775 0.0000 35.9385
#
#
#
# Elastic Compliance Matrix: (Units=1/GPa)
#
#
# Indices 1 2 3 4 5 6 
#
# 1 0.011946 -0.001080 -0.002402 0.000000 -0.002733 0.000000
# 2 -0.001080 0.017382 -0.006711 0.000000 -0.007920 0.000000
# 3 -0.002402 -0.006711 0.008590 0.000000 0.006321 0.000000
# 4 0.000000 0.000000 0.000000 -0.008433 0.000000 -0.001285
# 5 -0.002733 -0.007920 0.006321 0.000000 0.050740 0.000000
# 6 0.000000 0.000000 0.000000 -0.001285 0.000000 0.027629
#
#
# Mechanical properties :
#
#
# Convention : Reuss Voigt Hill
#
# Bulk Modulus (GPa) = 57.04035 72.89228 64.96631
# Shear Modulus (GPa) = 37.29004 3.96970 20.62987
#
# Velocity S-wave (km/s) = 3.84705 1.25519 2.86141
# Velocity P-wave (km/s) = 6.50933 5.57050 6.05813
#
# Compressibility (1/GPa) = 0.01753145
#
# Stress axis : x y z
#
# Youngs Moduli (GPa) = 83.70842 57.53089 116.41994
#
# Poissons Ratio (x) = 0.06214 0.27963
# Poissons Ratio (y) = 0.09042 0.78130
# Poissons Ratio (z) = 0.20106 0.38609
#
# Static dielectric constant tensor:
#      x y z
#    x 1.931760 0.000000 0.017020 
#    y 0.000000 1.999530 0.000000 
#    z 0.017020 0.000000 2.010930 
# 
# From -- ./inp_files/180114.got.cif
#   From: 2010.05.17/outbox.cif.g08.bks.cpg/sg15_91_cif.got.tgz:180114.got - 2010.06.03 18:47:42.
