data_PCOD9295085
_publ_section_title
;
Structure prediction by ZEFSAII (Michael W. Deem and Ramdas Pophale) SiO2 
 PCOD9295085
Probable space group: C 2/C
;
_chemical_formula_sum "Si O2"
_cell_formula_units_Z 56
_cell_length_a 11.489810
_cell_length_b 9.025902
_cell_length_c 25.860663
_cell_angle_alpha 90.000000
_cell_angle_beta 64.022280
_cell_angle_gamma 90.000000
_cell_volume 2410.935712
_symmetry_space_group_name_H-M "C 2/C"
_symmetry_group_IT_number 15
_symmetry_cell_setting 'monoclinic'
loop_
_space_group_symop_operation_xyz
x,y,z
-x,y,1/2-z
-x,-y,-z
x,-y,1/2+z
1/2+x,1/2+y,z
1/2-x,1/2+y,1/2-z
1/2-x,1/2-y,-z
1/2+x,1/2-y,1/2+z
loop_
_atom_site_type_symbol
_atom_site_label
_atom_site_fract_x
_atom_site_fract_y
_atom_site_fract_z
Si Si1 0.179313 0.206562 0.802780
Si Si2 0.019847 0.194421 0.086728
Si Si3 0.411420 0.856038 0.517753
Si Si4 0.952552 0.850127 0.429861
Si Si5 0.775199 0.227976 0.880321
Si Si6 0.141603 0.434491 0.720467
Si Si7 0.676175 0.602654 0.143828
O O1 0.144170 0.292435 0.757682
O O2 0.277452 0.310886 0.815502
O O3 0.056200 0.185575 0.864137
O O4 0.249241 0.049376 0.783549
O O5 0.876214 0.253496 0.102847
O O6 0.052278 0.178261 0.141045
O O7 0.043951 0.026181 0.063165
O O8 0.110769 0.304796 0.036615
O O9 0.496309 0.730359 0.529593
O O10 0.286723 0.881081 0.577628
O O11 0.500000 0.000000 0.500000
O O12 0.818886 0.789170 0.431429
O O13 0.834626 0.372190 0.841583
O O14 0.829168 0.073265 0.846152
O O15 0.000000 0.504596 0.750000
#
# Coordination Sequence:
#
# PCOD9295085 Si02
#       7
#     8   8   8   8   8   8   8
#     4  11  24  44  65  96 126 167 213 269 323 387
#     4  11  22  42  65  93 129 174 214 261 329 383
#     4  11  22  41  63  95 129 172 216 266 319 385
#     4  10  23  42  64  90 130 166 213 263 320 385
#     4  11  22  43  67  94 128 171 213 269 327 388
#     4  12  25  44  69  98 132 169 220 269 333 394
#     4  10  24  42  65  94 134 167 215 269 322 388
#
# _framework density 23.227498000000001
#
# number of rings (size 3 to 8) (size 9 to 14) (size 15 to 20)
#    0.000    1.143    4.286    1.714    0.000    4.000 
#    2.571    0.000    0.000    0.000    0.000    0.000 
#    0.000    0.000    0.000    0.000    0.000    0.000 
#
# Total GULP energy -156593.581794 kJ/mol
# GULP energy per Si atom -5592.627921 kJ/mol
# Density = 2.317463 g / cm^3
# Si number density = 23.227498 Si / 1000 Ang^3
#
#
#
# Elastic Constant Matrix: (Units=GPa)
#
#
# Indices 1 2 3 4 5 6 
#
# 1 112.4505 11.0585 4.9481 0.0000 0.6258 0.0000
# 2 11.0585 73.7762 0.6058 0.0000 15.1486 0.0000
# 3 4.9481 0.6058 38.3725 0.0000 5.4311 0.0000
# 4 0.0000 0.0000 0.0000 30.3438 0.0000 10.1972
# 5 0.6258 15.1486 5.4311 0.0000 25.6162 0.0000
# 6 0.0000 0.0000 0.0000 10.1972 0.0000 44.8227
#
#
#
# Elastic Compliance Matrix: (Units=1/GPa)
#
#
# Indices 1 2 3 4 5 6 
#
# 1 0.009097 -0.001552 -0.001286 0.000000 0.000968 0.000000
# 2 -0.001552 0.015736 0.001303 0.000000 -0.009544 0.000000
# 3 -0.001286 0.001303 0.027124 0.000000 -0.006490 0.000000
# 4 0.000000 0.000000 0.000000 0.035684 0.000000 -0.008118
# 5 0.000968 -0.009544 -0.006490 0.000000 0.046034 0.000000
# 6 0.000000 0.000000 0.000000 -0.008118 0.000000 0.024157
#
#
# Mechanical properties :
#
#
# Convention : Reuss Voigt Hill
#
# Bulk Modulus (GPa) = 20.45519 28.64711 24.55115
# Shear Modulus (GPa) = 28.21721 34.02233 31.11977
#
# Velocity S-wave (km/s) = 3.48921 3.83135 3.66427
# Velocity P-wave (km/s) = 5.00583 5.65087 5.33810
#
# Compressibility (1/GPa) = 0.04888736
#
# Stress axis : x y z
#
# Youngs Moduli (GPa) = 109.93141 63.54807 36.86763
#
# Poissons Ratio (x) = 0.09861 0.04739
# Poissons Ratio (y) = 0.17058 -0.04802
# Poissons Ratio (z) = 0.14132 -0.08277
#
# Static dielectric constant tensor:
#      x y z
#    x 1.918860 0.000000 -0.034280 
#    y 0.000000 1.825860 0.000000 
#    z -0.034280 0.000000 1.875460 
# 
# From -- ./inp_files/310222.got.cif
#   From: 2010.05.17/outbox.cif.g08.bks.cpg/sg15_156_cif.got.tgz:310222.got - 2010.06.03 18:47:42.
