data_PCOD9295556
_publ_section_title
;
Structure prediction by ZEFSAII (Michael W. Deem and Ramdas Pophale) SiO2 
 PCOD9295556
Probable space group: C 2/C
;
_chemical_formula_sum "Si O2"
_cell_formula_units_Z 52
_cell_length_a 8.687667
_cell_length_b 27.195066
_cell_length_c 11.807377
_cell_angle_alpha 90.000000
_cell_angle_beta 116.876226
_cell_angle_gamma 90.000000
_cell_volume 2488.309249
_symmetry_space_group_name_H-M "C 2/C"
_symmetry_group_IT_number 15
_symmetry_cell_setting 'monoclinic'
loop_
_space_group_symop_operation_xyz
x,y,z
-x,y,1/2-z
-x,-y,-z
x,-y,1/2+z
1/2+x,1/2+y,z
1/2-x,1/2+y,1/2-z
1/2-x,1/2-y,-z
1/2+x,1/2-y,1/2+z
loop_
_atom_site_type_symbol
_atom_site_label
_atom_site_fract_x
_atom_site_fract_y
_atom_site_fract_z
Si Si1 0.192996 0.591341 0.798232
Si Si2 0.140080 0.867732 0.713302
Si Si3 0.492134 0.887535 0.613146
Si Si4 0.831216 0.528776 0.913590
Si Si5 0.500000 0.356882 0.250000
Si Si6 0.920824 0.958929 0.556119
Si Si7 0.768132 0.192528 0.482644
O O1 0.156789 0.543432 0.711749
O O2 0.346800 0.615704 0.771822
O O3 0.000000 0.615251 0.750000
O O4 0.276971 0.573276 0.942099
O O5 0.305402 0.883695 0.843028
O O6 0.178901 0.830097 0.623165
O O7 0.000000 0.844891 0.750000
O O8 0.060261 0.918708 0.639908
O O9 0.500000 0.899618 0.750000
O O10 0.360089 0.923308 0.503399
O O11 0.416088 0.833802 0.564350
O O12 0.670380 0.493823 0.882443
O O13 0.000000 0.500000 0.000000
O O14 0.599524 0.327000 0.379425
O O15 0.000000 0.000000 0.500000
O O16 0.750000 0.250000 0.500000
#
# Coordination Sequence:
#
# PCOD9295556 Si02
#       7
#     8   8   8   8   4   8   8
#     4  12  26  45  66  99 146 189 244 298 352 414
#     4  11  25  44  68 101 146 182 235 300 354 426
#     4  10  23  43  64  95 135 179 225 277 345 422
#     4  12  24  39  61  93 136 189 231 279 339 410
#     4  12  24  48  76 102 144 182 240 304 360 428
#     4  12  25  39  62  98 140 192 241 285 343 416
#     4  11  25  48  77 101 132 183 233 294 374 437
#
# _framework density 20.897724
#
# number of rings (size 3 to 8) (size 9 to 14) (size 15 to 20)
#    0.000    0.615    4.615    3.692    9.692    0.000 
#    0.000    1.538    0.000    0.000    0.000    0.000 
#    0.000    0.000    0.000    0.000    0.000    0.000 
#
# Total GULP energy -144996.227764 kJ/mol
# GULP energy per Si atom -5576.777991 kJ/mol
# Density = 2.085016 g / cm^3
# Si number density = 20.897724 Si / 1000 Ang^3
#
#
#
# Elastic Constant Matrix: (Units=GPa)
#
#
# Indices 1 2 3 4 5 6 
#
# 1 129.0744 51.3462 39.3991 0.0000 13.6307 0.0000
# 2 51.3462 130.3706 47.1820 0.0000 4.3612 0.0000
# 3 39.3991 47.1820 122.8770 0.0000 14.1521 0.0000
# 4 0.0000 0.0000 0.0000 23.9023 0.0000 4.3579
# 5 13.6307 4.3612 14.1521 0.0000 40.3997 0.0000
# 6 0.0000 0.0000 0.0000 4.3579 0.0000 16.0059
#
#
#
# Elastic Compliance Matrix: (Units=1/GPa)
#
#
# Indices 1 2 3 4 5 6 
#
# 1 0.009760 -0.003172 -0.001638 0.000000 -0.002377 0.000000
# 2 -0.003172 0.009941 -0.002918 0.000000 0.001019 0.000000
# 3 -0.001638 -0.002918 0.010091 0.000000 -0.002667 0.000000
# 4 0.000000 0.000000 0.000000 0.044022 0.000000 -0.011986
# 5 -0.002377 0.001019 -0.002667 0.000000 0.026379 0.000000
# 6 0.000000 0.000000 0.000000 -0.011986 0.000000 0.065740
#
#
# Mechanical properties :
#
#
# Convention : Reuss Voigt Hill
#
# Bulk Modulus (GPa) = 69.74490 73.13073 71.43782
# Shear Modulus (GPa) = 26.85748 32.35456 29.60602
#
# Velocity S-wave (km/s) = 3.58884 3.93903 3.76800
# Velocity P-wave (km/s) = 7.11476 7.46716 7.29309
#
# Compressibility (1/GPa) = 0.01433797
#
# Stress axis : x y z
#
# Youngs Moduli (GPa) = 102.45747 100.58874 99.09925
#
# Poissons Ratio (x) = 0.31904 0.16231
# Poissons Ratio (y) = 0.32497 0.28914
# Poissons Ratio (z) = 0.16781 0.29349
#
# Static dielectric constant tensor:
#      x y z
#    x 1.886720 0.000000 -0.001640 
#    y 0.000000 1.857730 0.000000 
#    z -0.001640 0.000000 1.590440 
# 
# From -- ./inp_files/81497.got.cif
#   From: 2010.05.17/outbox.cif.g08.bks.cpg/sg15_41_cif.got.tgz:81497.got - 2010.06.03 18:47:42.
