data_PCOD9295007
_publ_section_title
;
Structure prediction by ZEFSAII (Michael W. Deem and Ramdas Pophale) SiO2 
 PCOD9295007
Probable space group: C 2/C
;
_chemical_formula_sum "Si O2"
_cell_formula_units_Z 44
_cell_length_a 26.311619
_cell_length_b 16.492323
_cell_length_c 22.406460
_cell_angle_alpha 90.000000
_cell_angle_beta 14.070899
_cell_angle_gamma 90.000000
_cell_volume 2363.891722
_symmetry_space_group_name_H-M "C 2/C"
_symmetry_group_IT_number 15
_symmetry_cell_setting 'monoclinic'
loop_
_space_group_symop_operation_xyz
x,y,z
-x,y,1/2-z
-x,-y,-z
x,-y,1/2+z
1/2+x,1/2+y,z
1/2-x,1/2+y,1/2-z
1/2-x,1/2-y,-z
1/2+x,1/2-y,1/2+z
loop_
_atom_site_type_symbol
_atom_site_label
_atom_site_fract_x
_atom_site_fract_y
_atom_site_fract_z
Si Si1 0.731682 0.051415 0.657881
Si Si2 0.022918 0.620694 0.400606
Si Si3 0.684075 0.157487 0.085475
Si Si4 0.000000 0.975360 0.250000
Si Si5 0.574618 0.640410 0.956997
Si Si6 0.130146 0.324745 0.907965
O O1 0.889275 0.075441 0.531646
O O2 0.600167 0.970878 0.822356
O O3 0.859427 0.030025 0.453094
O O4 0.561627 0.123139 0.847532
O O5 0.113498 0.649671 0.234664
O O6 0.108976 0.668890 0.360096
O O7 0.771993 0.627078 0.688348
O O8 0.500000 0.139368 0.250000
O O9 0.750000 0.250000 0.000000
O O10 0.857749 0.088910 0.876027
O O11 0.607500 0.729892 0.947866
O O12 0.350892 0.641195 0.179909
#
# Coordination Sequence:
#
# PCOD9295007 Si02
#       6
#     8   8   8   4   8   8
#     4  10  23  42  60  91 123 157 203 255 304 359
#     4  10  24  38  59  94 127 156 200 251 303 359
#     4  11  24  39  63  92 124 166 206 240 296 367
#     4  10  24  46  62  86 130 158 200 262 294 360
#     4  11  21  37  65  88 122 157 202 256 299 360
#     4  11  21  38  64  91 122 159 202 252 309 350
#
# _framework density 18.613374
#
# number of rings (size 3 to 8) (size 9 to 14) (size 15 to 20)
#    0.000    1.455    4.545    2.182    2.545    8.727 
#    0.000    0.909    0.000    0.000    0.000    0.000 
#    0.000    0.000    0.000    0.000    0.000    0.000 
#
# Total GULP energy -122812.183970 kJ/mol
# GULP energy per Si atom -5582.371999 kJ/mol
# Density = 1.857101 g / cm^3
# Si number density = 18.613374 Si / 1000 Ang^3
#
#
#
# Elastic Constant Matrix: (Units=GPa)
#
#
# Indices 1 2 3 4 5 6 
#
# 1 83.0636 43.9241 63.2152 -0.0303 -17.9307 -0.0267
# 2 43.9241 90.6826 30.3873 0.1156 15.4339 -0.0078
# 3 63.2152 30.3873 98.9758 0.0315 -15.5154 -0.0148
# 4 -0.0303 0.1156 0.0315 25.4324 -0.0344 -6.2135
# 5 -17.9307 15.4339 -15.5154 -0.0344 41.8610 -0.0071
# 6 -0.0267 -0.0078 -0.0148 -6.2135 -0.0071 30.3802
#
#
#
# Elastic Compliance Matrix: (Units=1/GPa)
#
#
# Indices 1 2 3 4 5 6 
#
# 1 0.033879 -0.013658 -0.015268 0.000153 0.013888 0.000053
# 2 -0.013658 0.019589 0.000700 -0.000132 -0.012813 -0.000037
# 3 -0.015268 0.000700 0.019720 -0.000048 0.000511 -0.000013
# 4 0.000153 -0.000132 -0.000048 0.041389 0.000132 0.008465
# 5 0.013888 -0.012813 0.000511 0.000132 0.034751 0.000044
# 6 0.000053 -0.000037 -0.000013 0.008465 0.000044 0.034648
#
#
# Mechanical properties :
#
#
# Convention : Reuss Voigt Hill
#
# Bulk Modulus (GPa) = 59.74619 60.86392 60.30506
# Shear Modulus (GPa) = 20.32471 28.54774 24.43623
#
# Velocity S-wave (km/s) = 3.30804 3.92052 3.62723
# Velocity P-wave (km/s) = 6.83806 7.29822 7.07188
#
# Compressibility (1/GPa) = 0.01673747
#
# Stress axis : x y z
#
# Youngs Moduli (GPa) = 29.51682 51.04875 50.70965
#
# Poissons Ratio (x) = 0.69721 0.77423
# Poissons Ratio (y) = 0.40313 -0.03552
# Poissons Ratio (z) = 0.45066 -0.03575
#
# Static dielectric constant tensor:
#      x y z
#    x 1.592970 -0.000140 0.028550 
#    y -0.000140 1.666700 0.000150 
#    z 0.028550 0.000150 1.614840 
# 
# From -- ./inp_files/216118.got.cif
#   From: 2010.05.17/outbox.cif.g08.bks.cpg/sg15_109_cif.got.tgz:216118.got - 2010.06.03 18:47:42.
