data_PCOD9295719
_publ_section_title
;
Structure prediction by ZEFSAII (Michael W. Deem and Ramdas Pophale) SiO2 
 PCOD9295719
Probable space group: C 2/C
;
_chemical_formula_sum "Si O2"
_cell_formula_units_Z 36
_cell_length_a 11.427891
_cell_length_b 15.709815
_cell_length_c 8.565406
_cell_angle_alpha 90.000000
_cell_angle_beta 89.533728
_cell_angle_gamma 90.000000
_cell_volume 1537.696877
_symmetry_space_group_name_H-M "C 2/C"
_symmetry_group_IT_number 15
_symmetry_cell_setting 'monoclinic'
loop_
_space_group_symop_operation_xyz
x,y,z
-x,y,1/2-z
-x,-y,-z
x,-y,1/2+z
1/2+x,1/2+y,z
1/2-x,1/2+y,1/2-z
1/2-x,1/2-y,-z
1/2+x,1/2-y,1/2+z
loop_
_atom_site_type_symbol
_atom_site_label
_atom_site_fract_x
_atom_site_fract_y
_atom_site_fract_z
Si Si1 0.500000 0.392042 0.750000
Si Si2 0.876696 0.741505 0.924948
Si Si3 0.947765 0.379031 0.911270
Si Si4 0.777915 0.942286 0.579420
Si Si5 0.832406 0.582953 0.716609
O O1 0.427799 0.330013 0.865264
O O2 0.403258 0.441916 0.653787
O O3 0.858267 0.675848 0.781880
O O4 0.750000 0.750000 0.000000
O O5 0.969347 0.698790 0.042757
O O6 0.809851 0.363903 0.873840
O O7 0.000000 0.415488 0.750000
O O8 0.931941 0.428238 0.079330
O O9 0.779981 0.932998 0.393788
O O10 0.699202 0.021904 0.639073
#
# Coordination Sequence:
#
# PCOD9295719 Si02
#       5
#     4   8   8   8   8
#     4  12  24  50  72 106 148 192 246 314 360 442
#     4  12  26  46  76 106 150 190 246 302 378 435
#     4  10  23  43  68 105 142 191 243 301 363 433
#     4  10  26  43  76  97 151 185 248 296 377 424
#     4  10  25  47  66 111 138 191 242 302 364 443
#
# _framework density 23.411638
#
# number of rings (size 3 to 8) (size 9 to 14) (size 15 to 20)
#    1.333    0.000    2.222    1.333    6.222    9.778 
#    0.000    0.000    0.000    0.000    0.000    0.000 
#    0.000    0.000    0.000    0.000    0.000    0.000 
#
# Total GULP energy -100229.371092 kJ/mol
# GULP energy per Si atom -5568.298394 kJ/mol
# Density = 2.335835 g / cm^3
# Si number density = 23.411638 Si / 1000 Ang^3
#
#
#
# Elastic Constant Matrix: (Units=GPa)
#
#
# Indices 1 2 3 4 5 6 
#
# 1 89.9088 -12.3229 -5.6244 0.0000 -10.2309 0.0000
# 2 -12.3229 24.3949 9.7376 0.0000 -8.1563 0.0000
# 3 -5.6244 9.7376 93.0456 0.0000 -20.6239 0.0000
# 4 0.0000 0.0000 0.0000 17.8332 0.0000 11.0538
# 5 -10.2309 -8.1563 -20.6239 0.0000 35.8399 0.0000
# 6 0.0000 0.0000 0.0000 11.0538 0.0000 19.5133
#
#
#
# Elastic Compliance Matrix: (Units=1/GPa)
#
#
# Indices 1 2 3 4 5 6 
#
# 1 0.013052 0.008184 0.001342 0.000000 0.006361 0.000000
# 2 0.008184 0.050126 -0.001954 0.000000 0.012619 0.000000
# 3 0.001342 -0.001954 0.012630 0.000000 0.007207 0.000000
# 4 0.000000 0.000000 0.000000 0.086420 0.000000 -0.048955
# 5 0.006361 0.012619 0.007207 0.000000 0.036736 0.000000
# 6 0.000000 0.000000 0.000000 -0.048955 0.000000 0.078979
#
#
# Mechanical properties :
#
#
# Convention : Reuss Voigt Hill
#
# Bulk Modulus (GPa) = 10.99477 21.21442 16.10459
# Shear Modulus (GPa) = 17.05810 29.00787 23.03299
#
# Velocity S-wave (km/s) = 2.70222 3.52381 3.14000
# Velocity P-wave (km/s) = 3.80032 5.06335 4.47660
#
# Compressibility (1/GPa) = 0.09095233
#
# Stress axis : x y z
#
# Youngs Moduli (GPa) = 76.61746 19.94992 79.17384
#
# Poissons Ratio (x) = -0.16327 -0.10628
# Poissons Ratio (y) = -0.62703 0.15471
# Poissons Ratio (z) = -0.10285 0.03898
#
# Static dielectric constant tensor:
#      x y z
#    x 1.955670 0.000000 0.034270 
#    y 0.000000 1.913000 0.000000 
#    z 0.034270 0.000000 1.977860 
# 
# From -- ./inp_files/28745.got.cif
#   From: 2010.05.17/outbox.cif.g08.bks.cpg/sg15_15_cif.got.tgz:28745.got - 2010.06.03 18:47:42.
