data_PCOD9295644
_publ_section_title
;
Structure prediction by ZEFSAII (Michael W. Deem and Ramdas Pophale) SiO2 
 PCOD9295644
Probable space group: C 2/C
;
_chemical_formula_sum "Si O2"
_cell_formula_units_Z 56
_cell_length_a 18.338346
_cell_length_b 8.399021
_cell_length_c 16.337298
_cell_angle_alpha 90.000000
_cell_angle_beta 95.384352
_cell_angle_gamma 90.000000
_cell_volume 2505.235471
_symmetry_space_group_name_H-M "C 2/C"
_symmetry_group_IT_number 15
_symmetry_cell_setting 'monoclinic'
loop_
_space_group_symop_operation_xyz
x,y,z
-x,y,1/2-z
-x,-y,-z
x,-y,1/2+z
1/2+x,1/2+y,z
1/2-x,1/2+y,1/2-z
1/2-x,1/2-y,-z
1/2+x,1/2-y,1/2+z
loop_
_atom_site_type_symbol
_atom_site_label
_atom_site_fract_x
_atom_site_fract_y
_atom_site_fract_z
Si Si1 0.504650 0.907653 0.914680
Si Si2 0.064080 0.870732 0.007735
Si Si3 0.948399 0.287354 0.173305
Si Si4 0.237280 0.364684 0.130164
Si Si5 0.836970 0.668460 0.031081
Si Si6 0.217174 0.794711 0.792156
Si Si7 0.772918 0.109655 0.939721
O O1 0.446986 0.764980 0.922754
O O2 0.583017 0.823381 0.925023
O O3 0.513732 0.040585 0.844863
O O4 0.500000 0.000000 0.000000
O O5 0.144719 0.940997 0.030945
O O6 0.058356 0.793457 0.916745
O O7 0.000000 0.000000 0.000000
O O8 0.865255 0.268452 0.198237
O O9 0.000000 0.215333 0.250000
O O10 0.294126 0.315553 0.065829
O O11 0.232096 0.231667 0.198689
O O12 0.262780 0.529517 0.172921
O O13 0.163504 0.358720 0.067283
O O14 0.791921 0.516891 0.059024
O O15 0.270053 0.680301 0.849119
O O16 0.750000 0.250000 0.000000
#
# Coordination Sequence:
#
# PCOD9295644 Si02
#       7
#     8   8   8   8   8   8   8
#     4  10  23  43  67 101 134 181 230 277 355 425
#     4  11  26  43  70 104 140 188 232 286 357 421
#     4  11  25  44  69  98 144 181 232 296 355 421
#     4  11  27  40  71 100 137 176 237 294 350 417
#     4  11  23  45  74 100 134 184 239 289 351 426
#     4  12  25  44  68 104 137 183 238 298 354 407
#     4  12  21  45  73 100 138 183 235 290 341 428
#
# _framework density 22.353187999999999
#
# number of rings (size 3 to 8) (size 9 to 14) (size 15 to 20)
#    0.000    0.857    4.286    1.714   10.000    1.143 
#    0.000    0.714    0.000    0.000    0.000    0.000 
#    0.000    0.000    0.000    0.000    0.000    0.000 
#
# Total GULP energy -156241.576949 kJ/mol
# GULP energy per Si atom -5580.056320 kJ/mol
# Density = 2.230231 g / cm^3
# Si number density = 22.353188 Si / 1000 Ang^3
#
#
#
# Elastic Constant Matrix: (Units=GPa)
#
#
# Indices 1 2 3 4 5 6 
#
# 1 87.0769 -0.8116 24.3059 0.0000 2.1285 0.0000
# 2 -0.8116 70.7192 28.1847 0.0000 -12.0263 0.0000
# 3 24.3059 28.1847 121.1626 0.0000 3.4077 0.0000
# 4 0.0000 0.0000 0.0000 37.7266 0.0000 -4.6987
# 5 2.1285 -12.0263 3.4077 0.0000 29.3306 0.0000
# 6 0.0000 0.0000 0.0000 -4.6987 0.0000 32.9611
#
#
#
# Elastic Compliance Matrix: (Units=1/GPa)
#
#
# Indices 1 2 3 4 5 6 
#
# 1 0.012263 0.001222 -0.002742 0.000000 -0.000070 0.000000
# 2 0.001222 0.017203 -0.004457 0.000000 0.007483 0.000000
# 3 -0.002742 -0.004457 0.009919 0.000000 -0.002781 0.000000
# 4 0.000000 0.000000 0.000000 0.026986 0.000000 0.003847
# 5 -0.000070 0.007483 -0.002781 0.000000 0.037491 0.000000
# 6 0.000000 0.000000 0.000000 0.003847 0.000000 0.030887
#
#
# Mechanical properties :
#
#
# Convention : Reuss Voigt Hill
#
# Bulk Modulus (GPa) = 36.45801 42.47966 39.46883
# Shear Modulus (GPa) = 32.08280 35.15562 33.61921
#
# Velocity S-wave (km/s) = 3.79260 3.97007 3.88235
# Velocity P-wave (km/s) = 5.96019 6.32933 6.14753
#
# Compressibility (1/GPa) = 0.02742882
#
# Stress axis : x y z
#
# Youngs Moduli (GPa) = 81.54862 58.12789 100.82123
#
# Poissons Ratio (x) = -0.07101 0.27647
# Poissons Ratio (y) = -0.09962 0.44940
# Poissons Ratio (z) = 0.22362 0.25910
#
# Static dielectric constant tensor:
#      x y z
#    x 2.288890 0.000000 0.119510 
#    y 0.000000 2.152860 0.000000 
#    z 0.119510 0.000000 1.858130 
# 
# From -- ./inp_files/166688.got.cif
#   From: 2010.05.17/outbox.cif.g08.bks.cpg/sg15_84_cif.got.tgz:166688.got - 2010.06.03 18:47:42.
