data_PCOD9295570
_publ_section_title
;
Structure prediction by ZEFSAII (Michael W. Deem and Ramdas Pophale) SiO2 
 PCOD9295570
Probable space group: C 2/C
;
_chemical_formula_sum "Si O2"
_cell_formula_units_Z 32
_cell_length_a 5.417274
_cell_length_b 23.378274
_cell_length_c 10.456565
_cell_angle_alpha 90.000000
_cell_angle_beta 87.634849
_cell_angle_gamma 90.000000
_cell_volume 1323.159385
_symmetry_space_group_name_H-M "C 2/C"
_symmetry_group_IT_number 15
_symmetry_cell_setting 'monoclinic'
loop_
_space_group_symop_operation_xyz
x,y,z
-x,y,1/2-z
-x,-y,-z
x,-y,1/2+z
1/2+x,1/2+y,z
1/2-x,1/2+y,1/2-z
1/2-x,1/2-y,-z
1/2+x,1/2-y,1/2+z
loop_
_atom_site_type_symbol
_atom_site_label
_atom_site_fract_x
_atom_site_fract_y
_atom_site_fract_z
Si Si1 0.240874 0.984544 0.577535
Si Si2 0.758196 0.292169 0.688704
Si Si3 0.000000 0.562854 0.750000
Si Si4 0.282178 0.368516 0.030696
Si Si5 0.000000 0.179497 0.750000
O O1 0.282427 0.020561 0.705558
O O2 0.500000 0.000000 0.500000
O O3 0.211339 0.916175 0.580954
O O4 0.000000 0.000000 0.500000
O O5 0.500000 0.312430 0.750000
O O6 0.775890 0.310487 0.541702
O O7 0.000000 0.318311 0.750000
O O8 0.783795 0.225017 0.725197
O O9 0.906421 0.604199 0.863945
O O10 0.516297 0.357085 0.119781
#
# Coordination Sequence:
#
# PCOD9295570 Si02
#       5
#     8   8   4   8   4
#     4  10  23  43  65 101 137 174 232 284 337 418
#     4  10  26  45  67 104 143 181 233 287 343 418
#     4  10  24  43  76 104 144 183 236 288 356 416
#     4  11  23  45  73 102 139 188 228 289 354 412
#     4  10  24  43  72 102 138 183 236 290 348 412
#
# _framework density 24.184539999999998
#
# number of rings (size 3 to 8) (size 9 to 14) (size 15 to 20)
#    0.750    1.000    0.000    2.250    3.500   10.000 
#    4.500    0.000    0.000    0.000    0.000    0.000 
#    0.000    0.000    0.000    0.000    0.000    0.000 
#
# Total GULP energy -89136.032707 kJ/mol
# GULP energy per Si atom -5571.002044 kJ/mol
# Density = 2.412949 g / cm^3
# Si number density = 24.184540 Si / 1000 Ang^3
#
#
#
# Elastic Constant Matrix: (Units=GPa)
#
#
# Indices 1 2 3 4 5 6 
#
# 1 157.6176 44.4317 61.6613 0.0000 26.9785 0.0000
# 2 44.4317 153.9662 55.1382 0.0000 18.6542 0.0000
# 3 61.6613 55.1382 129.4629 0.0000 30.1374 0.0000
# 4 0.0000 0.0000 0.0000 28.6914 0.0000 45.8150
# 5 26.9785 18.6542 30.1374 0.0000 40.0822 0.0000
# 6 0.0000 0.0000 0.0000 45.8150 0.0000 84.7559
#
#
#
# Elastic Compliance Matrix: (Units=1/GPa)
#
#
# Indices 1 2 3 4 5 6 
#
# 1 0.008233 -0.001014 -0.002799 0.000000 -0.002965 0.000000
# 2 -0.001014 0.007849 -0.002629 0.000000 -0.000994 0.000000
# 3 -0.002799 -0.002629 0.011459 0.000000 -0.005509 0.000000
# 4 0.000000 0.000000 0.000000 0.254713 0.000000 -0.137686
# 5 -0.002965 -0.000994 -0.005509 0.000000 0.031549 0.000000
# 6 0.000000 0.000000 0.000000 -0.137686 0.000000 0.086225
#
#
# Mechanical properties :
#
#
# Convention : Reuss Voigt Hill
#
# Bulk Modulus (GPa) = 68.22341 84.83433 76.52887
# Shear Modulus (GPa) = 11.96752 49.36027 30.66389
#
# Velocity S-wave (km/s) = 2.22692 4.52263 3.56464
# Velocity P-wave (km/s) = 5.90618 7.90103 6.97529
#
# Compressibility (1/GPa) = 0.01465772
#
# Stress axis : x y z
#
# Youngs Moduli (GPa) = 121.46454 127.39817 87.26565
#
# Poissons Ratio (x) = 0.12921 0.24426
# Poissons Ratio (y) = 0.12319 0.22939
# Poissons Ratio (z) = 0.33999 0.33488
#
# Static dielectric constant tensor:
#      x y z
#    x 2.056630 0.000000 0.018360 
#    y 0.000000 2.065190 0.000000 
#    z 0.018360 0.000000 2.158660 
# 
# From -- ./inp_files/71948.got.cif
#   From: 2010.05.17/outbox.cif.g08.bks.cpg/sg15_36_cif.got.tgz:71948.got - 2010.06.03 18:47:42.
