data_PCOD9295911
_publ_section_title
;
Structure prediction by ZEFSAII (Michael W. Deem and Ramdas Pophale) SiO2 
 PCOD9295911
Probable space group: C 2/C
;
_chemical_formula_sum "Si O2"
_cell_formula_units_Z 48
_cell_length_a 25.258431
_cell_length_b 11.484239
_cell_length_c 19.913529
_cell_angle_alpha 90.000000
_cell_angle_beta 20.108752
_cell_angle_gamma 90.000000
_cell_volume 1985.942451
_symmetry_space_group_name_H-M "C 2/C"
_symmetry_group_IT_number 15
_symmetry_cell_setting 'monoclinic'
loop_
_space_group_symop_operation_xyz
x,y,z
-x,y,1/2-z
-x,-y,-z
x,-y,1/2+z
1/2+x,1/2+y,z
1/2-x,1/2+y,1/2-z
1/2-x,1/2-y,-z
1/2+x,1/2-y,1/2+z
loop_
_atom_site_type_symbol
_atom_site_label
_atom_site_fract_x
_atom_site_fract_y
_atom_site_fract_z
Si Si1 0.256596 0.337388 0.929817
Si Si2 0.058580 0.799373 0.279227
Si Si3 0.584999 0.718920 0.009230
Si Si4 0.713501 0.941334 0.560074
Si Si5 0.728945 0.163383 0.844127
Si Si6 0.487935 0.026964 0.591814
O O1 0.437019 0.360940 0.700014
O O2 0.175178 0.268180 0.966441
O O3 0.178068 0.456665 0.049013
O O4 0.250000 0.250000 0.000000
O O5 0.116383 0.898536 0.160424
O O6 0.150460 0.827433 0.238817
O O7 0.885086 0.772500 0.506781
O O8 0.115787 0.678478 0.175960
O O9 0.691660 0.670850 0.823059
O O10 0.510462 0.837335 0.070834
O O11 0.671781 0.991913 0.682548
O O12 0.622555 0.047670 0.968293
O O13 0.500000 0.000000 0.500000
#
# Coordination Sequence:
#
# PCOD9295911 Si02
#       6
#     8   8   8   8   8   8
#     4  12  25  44  66 102 135 184 225 282 344 422
#     4  10  23  45  69 103 128 181 227 292 340 401
#     4  12  25  44  68 100 141 178 234 279 355 417
#     4  10  23  43  72  96 139 174 236 283 346 409
#     4  11  24  44  69  98 139 175 236 282 346 410
#     4  11  23  43  70  98 138 190 225 279 354 420
#
# _framework density 24.169882999999999
#
# number of rings (size 3 to 8) (size 9 to 14) (size 15 to 20)
#    0.000    1.000    1.667    5.500    0.000   10.000 
#    6.000    3.333    0.000    0.000    0.000    0.000 
#    0.000    0.000    0.000    0.000    0.000    0.000 
#
# Total GULP energy -134240.700420 kJ/mol
# GULP energy per Si atom -5593.362517 kJ/mol
# Density = 2.411487 g / cm^3
# Si number density = 24.169883 Si / 1000 Ang^3
#
#
#
# Elastic Constant Matrix: (Units=GPa)
#
#
# Indices 1 2 3 4 5 6 
#
# 1 155.9846 10.0816 41.9748 -0.0001 15.9845 0.0000
# 2 10.0816 91.1366 6.4903 -0.0001 12.0040 0.0000
# 3 41.9748 6.4903 121.4689 -0.0001 31.8875 0.0001
# 4 -0.0001 -0.0001 -0.0001 29.7324 0.0001 14.2488
# 5 15.9845 12.0040 31.8875 0.0001 43.5322 -0.0001
# 6 0.0000 0.0000 0.0001 14.2488 -0.0001 26.2482
#
#
#
# Elastic Compliance Matrix: (Units=1/GPa)
#
#
# Indices 1 2 3 4 5 6 
#
# 1 0.007127 -0.000518 -0.002211 0.000000 -0.000855 0.000000
# 2 -0.000518 0.011431 0.000428 0.000000 -0.003275 0.000000
# 3 -0.002211 0.000428 0.010885 0.000000 -0.007279 0.000000
# 4 0.000000 0.000000 0.000000 0.045460 0.000000 -0.024678
# 5 -0.000855 -0.003275 -0.007279 0.000000 0.029521 0.000000
# 6 0.000000 0.000000 0.000000 -0.024678 0.000000 0.051494
#
#
# Mechanical properties :
#
#
# Convention : Reuss Voigt Hill
#
# Bulk Modulus (GPa) = 40.25700 53.96483 47.11091
# Shear Modulus (GPa) = 29.62106 40.57212 35.09659
#
# Velocity S-wave (km/s) = 3.50456 4.10154 3.81475
# Velocity P-wave (km/s) = 5.75047 6.69373 6.23995
#
# Compressibility (1/GPa) = 0.02484040
#
# Stress axis : x y z
#
# Youngs Moduli (GPa) = 140.31424 87.48296 91.87343
#
# Poissons Ratio (x) = 0.04535 0.20311
# Poissons Ratio (y) = 0.07274 -0.03934
# Poissons Ratio (z) = 0.31019 -0.03746
#
# Static dielectric constant tensor:
#      x y z
#    x 1.868420 0.000000 -0.137420 
#    y 0.000000 1.899730 0.000000 
#    z -0.137420 0.000000 1.857350 
# 
# From -- ./inp_files/257572.got.cif
#   From: 2010.05.17/outbox.cif.g08.bks.cpg/sg15_129_cif.got.tgz:257572.got - 2010.06.03 18:47:42.
