data_PCOD9295063
_publ_section_title
;
Structure prediction by ZEFSAII (Michael W. Deem and Ramdas Pophale) SiO2 
 PCOD9295063
Probable space group: C 2/C
;
_chemical_formula_sum "Si O2"
_cell_formula_units_Z 40
_cell_length_a 21.762660
_cell_length_b 6.919554
_cell_length_c 9.424767
_cell_angle_alpha 90.000000
_cell_angle_beta 77.745847
_cell_angle_gamma 90.000000
_cell_volume 1386.919163
_symmetry_space_group_name_H-M "C 2/C"
_symmetry_group_IT_number 15
_symmetry_cell_setting 'monoclinic'
loop_
_space_group_symop_operation_xyz
x,y,z
-x,y,1/2-z
-x,-y,-z
x,-y,1/2+z
1/2+x,1/2+y,z
1/2-x,1/2+y,1/2-z
1/2-x,1/2-y,-z
1/2+x,1/2-y,1/2+z
loop_
_atom_site_type_symbol
_atom_site_label
_atom_site_fract_x
_atom_site_fract_y
_atom_site_fract_z
Si Si1 0.098425 0.720649 0.483321
Si Si2 0.391876 0.236950 0.476031
Si Si3 0.445066 0.506900 0.693173
Si Si4 0.699706 0.153904 0.201053
Si Si5 0.304693 0.275623 0.853636
O O1 0.090834 0.491656 0.513453
O O2 0.041528 0.834206 0.440493
O O3 0.153751 0.747817 0.338440
O O4 0.131497 0.834496 0.598180
O O5 0.404079 0.356753 0.614488
O O6 0.428030 0.337767 0.327990
O O7 0.319619 0.236741 0.443746
O O8 0.500000 0.392761 0.750000
O O9 0.767636 0.132318 0.241319
O O10 0.678057 0.935675 0.204829
O O11 0.250000 0.250000 0.000000
#
# Coordination Sequence:
#
# PCOD9295063 Si02
#       5
#     8   8   8   8   8
#     4   9  21  41  59  88 129 166 205 256 313 375
#     4  10  23  42  63  93 129 164 210 264 320 378
#     4  11  24  41  67  96 123 166 216 264 321 375
#     4   9  19  37  60  89 124 165 203 255 314 366
#     4   9  18  35  56  85 120 159 206 245 305 372
#
# _framework density 28.840903000000001
#
# number of rings (size 3 to 8) (size 9 to 14) (size 15 to 20)
#    0.000    2.400    0.000    0.600    2.800    6.400 
#    7.200    3.000    0.000    0.000    0.000    0.000 
#    0.000    0.000    0.000    0.000    0.000    0.000 
#
# Total GULP energy -111495.084072 kJ/mol
# GULP energy per Si atom -5574.754204 kJ/mol
# Density = 2.877526 g / cm^3
# Si number density = 28.840903 Si / 1000 Ang^3
#
#
#
# Elastic Constant Matrix: (Units=GPa)
#
#
# Indices 1 2 3 4 5 6 
#
# 1 147.8223 36.6071 66.1639 0.0000 74.3883 0.0000
# 2 36.6071 180.5639 76.3142 0.0000 36.8945 0.0000
# 3 66.1639 76.3142 233.5389 0.0000 66.1635 0.0000
# 4 0.0000 0.0000 0.0000 42.2458 0.0000 20.9578
# 5 74.3883 36.8945 66.1635 0.0000 77.7038 0.0000
# 6 0.0000 0.0000 0.0000 20.9578 0.0000 39.1017
#
#
#
# Elastic Compliance Matrix: (Units=1/GPa)
#
#
# Indices 1 2 3 4 5 6 
#
# 1 0.013061 -0.000049 -0.000196 0.000000 -0.012314 0.000000
# 2 -0.000049 0.006593 -0.001670 0.000000 -0.001662 0.000000
# 3 -0.000196 -0.001670 0.006070 0.000000 -0.004188 0.000000
# 4 0.000000 0.000000 0.000000 0.032245 0.000000 -0.017283
# 5 -0.012314 -0.001662 -0.004188 0.000000 0.029013 0.000000
# 6 0.000000 0.000000 0.000000 -0.017283 0.000000 0.034837
#
#
# Mechanical properties :
#
#
# Convention : Reuss Voigt Hill
#
# Bulk Modulus (GPa) = 45.67249 102.23284 73.95267
# Shear Modulus (GPa) = 37.60882 57.33292 47.47087
#
# Velocity S-wave (km/s) = 3.61503 4.46343 4.06144
# Velocity P-wave (km/s) = 5.77018 7.87953 6.90587
#
# Compressibility (1/GPa) = 0.02189502
#
# Stress axis : x y z
#
# Youngs Moduli (GPa) = 76.56095 151.66534 164.75795
#
# Poissons Ratio (x) = 0.00746 0.03224
# Poissons Ratio (y) = 0.00377 0.27512
# Poissons Ratio (z) = 0.01498 0.25326
#
# Static dielectric constant tensor:
#      x y z
#    x 2.196390 0.000000 0.170110 
#    y 0.000000 2.178170 0.000000 
#    z 0.170110 0.000000 2.193930 
# 
# From -- ./inp_files/120868.got.cif
#   From: 2010.05.17/outbox.cif.g08.bks.cpg/sg15_61_cif.got.tgz:120868.got - 2010.06.03 18:47:42.
