data_PCOD9295522
_publ_section_title
;
Structure prediction by ZEFSAII (Michael W. Deem and Ramdas Pophale) SiO2 
 PCOD9295522
Probable space group: C 2/C
;
_chemical_formula_sum "Si O2"
_cell_formula_units_Z 44
_cell_length_a 22.520073
_cell_length_b 5.645669
_cell_length_c 14.300790
_cell_angle_alpha 90.000000
_cell_angle_beta 106.217833
_cell_angle_gamma 90.000000
_cell_volume 1745.862412
_symmetry_space_group_name_H-M "C 2/C"
_symmetry_group_IT_number 15
_symmetry_cell_setting 'monoclinic'
loop_
_space_group_symop_operation_xyz
x,y,z
-x,y,1/2-z
-x,-y,-z
x,-y,1/2+z
1/2+x,1/2+y,z
1/2-x,1/2+y,1/2-z
1/2-x,1/2-y,-z
1/2+x,1/2-y,1/2+z
loop_
_atom_site_type_symbol
_atom_site_label
_atom_site_fract_x
_atom_site_fract_y
_atom_site_fract_z
Si Si1 0.111511 0.466502 0.367608
Si Si2 0.248075 0.052924 0.633924
Si Si3 0.921170 0.295099 0.447158
Si Si4 0.963137 0.892849 0.583658
Si Si5 0.203782 0.441914 0.140833
Si Si6 0.500000 0.255023 0.250000
O O1 0.182069 0.465412 0.371008
O O2 0.098513 0.571257 0.466067
O O3 0.086396 0.201347 0.364998
O O4 0.062621 0.605739 0.283152
O O5 0.215650 0.304801 0.596091
O O6 0.251634 0.051832 0.749147
O O7 0.217413 0.803184 0.591790
O O8 0.866541 0.388923 0.357493
O O9 0.988563 0.307029 0.428981
O O10 0.926883 0.020563 0.483681
O O11 0.001195 0.086890 0.657609
#
# Coordination Sequence:
#
# PCOD9295522 Si02
#       6
#     8   8   8   8   8   4
#     4  11  24  42  66 101 130 178 222 291 332 424
#     4  10  25  44  69  97 138 173 248 273 348 399
#     4  10  24  42  67  95 141 173 229 272 357 398
#     4  10  23  43  63 103 135 178 220 287 337 419
#     4  10  24  45  67 100 131 192 220 299 332 413
#     4  10  24  38  66 102 132 178 230 272 358 394
#
# _framework density 25.202445000000001
#
# number of rings (size 3 to 8) (size 9 to 14) (size 15 to 20)
#    0.000    1.818    0.000    1.091   12.727    4.364 
#    0.000    0.000    0.000    0.000    0.000    0.000 
#    0.000    0.000    0.000    0.000    0.000    0.000 
#
# Total GULP energy -122809.732061 kJ/mol
# GULP energy per Si atom -5582.260548 kJ/mol
# Density = 2.514508 g / cm^3
# Si number density = 25.202445 Si / 1000 Ang^3
#
#
#
# Elastic Constant Matrix: (Units=GPa)
#
#
# Indices 1 2 3 4 5 6 
#
# 1 158.4353 70.8815 0.3295 0.0000 -10.1059 0.0000
# 2 70.8815 145.6309 29.4284 0.0000 -0.2615 0.0000
# 3 0.3295 29.4284 48.6429 0.0000 6.5472 0.0000
# 4 0.0000 0.0000 0.0000 30.5654 0.0000 -0.5409
# 5 -10.1059 -0.2615 6.5472 0.0000 23.7134 0.0000
# 6 0.0000 0.0000 0.0000 -0.5409 0.0000 19.8319
#
#
#
# Elastic Compliance Matrix: (Units=1/GPa)
#
#
# Indices 1 2 3 4 5 6 
#
# 1 0.008572 -0.004642 0.002353 0.000000 0.002952 0.000000
# 2 -0.004642 0.010385 -0.006232 0.000000 -0.000143 0.000000
# 3 0.002353 -0.006232 0.025120 0.000000 -0.006002 0.000000
# 4 0.000000 0.000000 0.000000 0.032733 0.000000 0.000893
# 5 0.002952 -0.000143 -0.006002 0.000000 0.045084 0.000000
# 6 0.000000 0.000000 0.000000 0.000893 0.000000 0.050448
#
#
# Mechanical properties :
#
#
# Convention : Reuss Voigt Hill
#
# Bulk Modulus (GPa) = 36.98955 61.55422 49.27188
# Shear Modulus (GPa) = 25.20201 31.62680 28.41440
#
# Velocity S-wave (km/s) = 3.16568 3.54631 3.36139
# Velocity P-wave (km/s) = 5.29820 6.42226 5.88712
#
# Compressibility (1/GPa) = 0.02703466
#
# Stress axis : x y z
#
# Youngs Moduli (GPa) = 116.65762 96.28916 39.80844
#
# Poissons Ratio (x) = 0.44702 -0.09368
# Poissons Ratio (y) = 0.54158 0.24810
# Poissons Ratio (z) = -0.27452 0.60010
#
# Static dielectric constant tensor:
#      x y z
#    x 1.959790 0.000000 0.019780 
#    y 0.000000 2.038000 0.000000 
#    z 0.019780 0.000000 2.085150 
# 
# From -- ./inp_files/212824.got.cif
#   From: 2010.05.17/outbox.cif.g08.bks.cpg/sg15_107_cif.got.tgz:212824.got - 2010.06.03 18:47:42.
