data_PCOD9295621
_publ_section_title
;
Structure prediction by ZEFSAII (Michael W. Deem and Ramdas Pophale) SiO2 
 PCOD9295621
Probable space group: C 2/C
;
_chemical_formula_sum "Si O2"
_cell_formula_units_Z 36
_cell_length_a 11.315835
_cell_length_b 16.493839
_cell_length_c 8.389563
_cell_angle_alpha 90.000000
_cell_angle_beta 98.894670
_cell_angle_gamma 90.000000
_cell_volume 1547.010723
_symmetry_space_group_name_H-M "C 2/C"
_symmetry_group_IT_number 15
_symmetry_cell_setting 'monoclinic'
loop_
_space_group_symop_operation_xyz
x,y,z
-x,y,1/2-z
-x,-y,-z
x,-y,1/2+z
1/2+x,1/2+y,z
1/2-x,1/2+y,1/2-z
1/2-x,1/2-y,-z
1/2+x,1/2-y,1/2+z
loop_
_atom_site_type_symbol
_atom_site_label
_atom_site_fract_x
_atom_site_fract_y
_atom_site_fract_z
Si Si1 0.141416 0.697298 0.761976
Si Si2 0.000000 0.266488 0.750000
Si Si3 0.214874 0.648455 0.122996
Si Si4 0.339905 0.376663 0.121183
Si Si5 0.124029 0.028669 0.196218
O O1 0.186045 0.790018 0.783421
O O2 0.204602 0.653849 0.625070
O O3 0.000000 0.690286 0.750000
O O4 0.201365 0.659101 0.932659
O O5 0.090365 0.321426 0.670102
O O6 0.079979 0.204129 0.870380
O O7 0.260845 0.561278 0.183986
O O8 0.375712 0.431920 0.281404
O O9 0.362631 0.434327 0.975873
O O10 0.000000 0.057324 0.250000
#
# Coordination Sequence:
#
# PCOD9295621 Si02
#       5
#     8   4   8   8   8
#     4  10  23  43  66  95 140 177 217 279 334 406
#     4  10  24  42  68 100 140 172 222 282 328 412
#     4  10  24  40  68 100 136 173 230 268 344 392
#     4  11  25  43  69  99 135 179 228 272 344 394
#     4  12  25  42  71  99 134 177 228 284 331 402
#
# _framework density 23.270686999999999
#
# number of rings (size 3 to 8) (size 9 to 14) (size 15 to 20)
#    0.000    1.333    1.111    2.667   15.556    1.778 
#    2.000    2.222    0.000    0.000    0.000    0.000 
#    0.000    0.000    0.000    0.000    0.000    0.000 
#
# Total GULP energy -100717.900882 kJ/mol
# GULP energy per Si atom -5595.438938 kJ/mol
# Density = 2.321772 g / cm^3
# Si number density = 23.270687 Si / 1000 Ang^3
#
#
#
# Elastic Constant Matrix: (Units=GPa)
#
#
# Indices 1 2 3 4 5 6 
#
# 1 188.8475 69.2971 30.9971 0.0000 -29.7157 0.0000
# 2 69.2971 65.0108 27.3754 0.0000 -12.5360 0.0000
# 3 30.9971 27.3754 68.0592 0.0000 -19.2405 0.0000
# 4 0.0000 0.0000 0.0000 30.0485 0.0000 -0.0730
# 5 -29.7157 -12.5360 -19.2405 0.0000 33.4612 0.0000
# 6 0.0000 0.0000 0.0000 -0.0730 0.0000 43.1379
#
#
#
# Elastic Compliance Matrix: (Units=1/GPa)
#
#
# Indices 1 2 3 4 5 6 
#
# 1 0.009456 -0.009467 0.001042 0.000000 0.005450 0.000000
# 2 -0.009467 0.028283 -0.007697 0.000000 -0.002237 0.000000
# 3 0.001042 -0.007697 0.020014 0.000000 0.009550 0.000000
# 4 0.000000 0.000000 0.000000 0.033280 0.000000 0.000056
# 5 0.005450 -0.002237 0.009550 0.000000 0.039378 0.000000
# 6 0.000000 0.000000 0.000000 0.000056 0.000000 0.023182
#
#
# Mechanical properties :
#
#
# Convention : Reuss Voigt Hill
#
# Bulk Modulus (GPa) = 39.20185 64.13965 51.67075
# Shear Modulus (GPa) = 25.72814 34.27936 30.00375
#
# Velocity S-wave (km/s) = 3.32867 3.84222 3.59463
# Velocity P-wave (km/s) = 5.62636 6.87792 6.28338
#
# Compressibility (1/GPa) = 0.02550900
#
# Stress axis : x y z
#
# Youngs Moduli (GPa) = 105.75677 35.35690 49.96417
#
# Poissons Ratio (x) = 0.33472 -0.05206
# Poissons Ratio (y) = 1.00120 0.38458
# Poissons Ratio (z) = -0.11020 0.27214
#
# Static dielectric constant tensor:
#      x y z
#    x 1.864600 0.000000 0.021360 
#    y 0.000000 1.878140 0.000000 
#    z 0.021360 0.000000 1.951670 
# 
# From -- ./inp_files/28739.got.cif
#   From: 2010.05.17/outbox.cif.g08.bks.cpg/sg15_15_cif.got.tgz:28739.got - 2010.06.03 18:47:42.
