data_PCOD9295678
_publ_section_title
;
Structure prediction by ZEFSAII (Michael W. Deem and Ramdas Pophale) SiO2 
 PCOD9295678
Probable space group: C 2/C
;
_chemical_formula_sum "Si O2"
_cell_formula_units_Z 48
_cell_length_a 16.823561
_cell_length_b 16.587308
_cell_length_c 6.926305
_cell_angle_alpha 90.000000
_cell_angle_beta 57.895076
_cell_angle_gamma 90.000000
_cell_volume 1637.261136
_symmetry_space_group_name_H-M "C 2/C"
_symmetry_group_IT_number 15
_symmetry_cell_setting 'monoclinic'
loop_
_space_group_symop_operation_xyz
x,y,z
-x,y,1/2-z
-x,-y,-z
x,-y,1/2+z
1/2+x,1/2+y,z
1/2-x,1/2+y,1/2-z
1/2-x,1/2-y,-z
1/2+x,1/2-y,1/2+z
loop_
_atom_site_type_symbol
_atom_site_label
_atom_site_fract_x
_atom_site_fract_y
_atom_site_fract_z
Si Si1 0.353560 0.687781 0.183319
Si Si2 0.500000 0.018532 0.250000
Si Si3 0.146933 0.010150 0.432297
Si Si4 0.016860 0.670956 0.954556
Si Si5 0.183350 0.690181 0.198236
Si Si6 0.207875 0.487970 0.508369
Si Si7 0.500000 0.391182 0.750000
O O1 0.374243 0.607267 0.026396
O O2 0.394001 0.776895 0.094333
O O3 0.240137 0.683927 0.330240
O O4 0.416678 0.664955 0.282913
O O5 0.490353 0.083080 0.439297
O O6 0.397498 0.976700 0.373234
O O7 0.059018 0.950158 0.536590
O O8 0.173496 0.992620 0.647227
O O9 0.266255 0.988330 0.274556
O O10 0.000000 0.666414 0.750000
O O11 0.922638 0.716533 0.147032
O O12 0.191189 0.605709 0.079705
O O13 0.250000 0.750000 0.000000
#
# Coordination Sequence:
#
# PCOD9295678 Si02
#       7
#     8   4   8   8   8   8   4
#     4  11  23  41  65 100 137 175 229 283 351 422
#     4  10  24  49  70 100 137 186 242 296 350 416
#     4  11  24  42  64  99 143 180 225 287 349 430
#     4  11  24  44  69 103 135 181 237 293 354 414
#     4  10  24  43  68  98 137 187 233 288 355 413
#     4  10  23  43  67  95 137 180 234 285 352 416
#     4  12  24  39  62 102 135 184 222 280 352 414
#
# _framework density 29.317252
#
# number of rings (size 3 to 8) (size 9 to 14) (size 15 to 20)
#    0.000    1.333    2.500    2.500    2.333    4.667 
#    3.000    0.000    0.000    0.000    0.000    0.000 
#    0.000    0.000    0.000    0.000    0.000    0.000 
#
# Total GULP energy -134078.801566 kJ/mol
# GULP energy per Si atom -5586.616732 kJ/mol
# Density = 2.925052 g / cm^3
# Si number density = 29.317252 Si / 1000 Ang^3
#
#
#
# Elastic Constant Matrix: (Units=GPa)
#
#
# Indices 1 2 3 4 5 6 
#
# 1 183.1303 28.1500 25.6606 0.0000 4.4847 0.0000
# 2 28.1500 117.1826 17.7964 0.0000 -5.3352 0.0000
# 3 25.6606 17.7964 203.0168 0.0000 4.5257 0.0000
# 4 0.0000 0.0000 0.0000 38.1557 0.0000 -2.8419
# 5 4.4847 -5.3352 4.5257 0.0000 65.8207 0.0000
# 6 0.0000 0.0000 0.0000 -2.8419 0.0000 68.6878
#
#
#
# Elastic Compliance Matrix: (Units=1/GPa)
#
#
# Indices 1 2 3 4 5 6 
#
# 1 0.005758 -0.001313 -0.000603 0.000000 -0.000457 0.000000
# 2 -0.001313 0.008986 -0.000641 0.000000 0.000862 0.000000
# 3 -0.000603 -0.000641 0.005066 0.000000 -0.000359 0.000000
# 4 0.000000 0.000000 0.000000 0.026289 0.000000 0.001088
# 5 -0.000457 0.000862 -0.000359 0.000000 0.015319 0.000000
# 6 0.000000 0.000000 0.000000 0.001088 0.000000 0.014604
#
#
# Mechanical properties :
#
#
# Convention : Reuss Voigt Hill
#
# Bulk Modulus (GPa) = 68.03868 71.83819 69.93844
# Shear Modulus (GPa) = 58.11760 63.31433 60.71597
#
# Velocity S-wave (km/s) = 4.45721 4.65222 4.55576
# Velocity P-wave (km/s) = 7.05316 7.30852 7.18198
#
# Compressibility (1/GPa) = 0.01469752
#
# Stress axis : x y z
#
# Youngs Moduli (GPa) = 173.67218 111.28950 197.39216
#
# Poissons Ratio (x) = 0.14607 0.11894
# Poissons Ratio (y) = 0.22795 0.12653
# Poissons Ratio (z) = 0.10464 0.07134
#
# Static dielectric constant tensor:
#      x y z
#    x 2.654030 0.000000 0.369720 
#    y 0.000000 2.206770 0.000000 
#    z 0.369720 0.000000 2.505400 
# 
# From -- ./inp_files/50070.got.cif
#   From: 2010.05.17/outbox.cif.g08.bks.cpg/sg15_26_cif.got.tgz:50070.got - 2010.06.03 18:47:42.
