data_PCOD9295511
_publ_section_title
;
Structure prediction by ZEFSAII (Michael W. Deem and Ramdas Pophale) SiO2 
 PCOD9295511
Probable space group: C 2/C
;
_chemical_formula_sum "Si O2"
_cell_formula_units_Z 48
_cell_length_a 10.507245
_cell_length_b 9.636694
_cell_length_c 24.411501
_cell_angle_alpha 90.000000
_cell_angle_beta 97.030433
_cell_angle_gamma 90.000000
_cell_volume 2453.204403
_symmetry_space_group_name_H-M "C 2/C"
_symmetry_group_IT_number 15
_symmetry_cell_setting 'monoclinic'
loop_
_space_group_symop_operation_xyz
x,y,z
-x,y,1/2-z
-x,-y,-z
x,-y,1/2+z
1/2+x,1/2+y,z
1/2-x,1/2+y,1/2-z
1/2-x,1/2-y,-z
1/2+x,1/2-y,1/2+z
loop_
_atom_site_type_symbol
_atom_site_label
_atom_site_fract_x
_atom_site_fract_y
_atom_site_fract_z
Si Si1 0.385887 0.412508 0.466408
Si Si2 0.128317 0.417487 0.520112
Si Si3 0.709610 0.888709 0.642022
Si Si4 0.256048 0.410716 0.350657
Si Si5 0.141849 0.916633 0.267353
Si Si6 0.551260 0.875558 0.809654
O O1 0.500000 0.500000 0.500000
O O2 0.245381 0.443144 0.484645
O O3 0.403429 0.247436 0.477733
O O4 0.368357 0.440954 0.400471
O O5 0.182444 0.457802 0.582634
O O6 0.000000 0.500000 0.500000
O O7 0.787179 0.745913 0.637347
O O8 0.572676 0.844592 0.660372
O O9 0.778047 0.988182 0.688135
O O10 0.296313 0.408682 0.289235
O O11 0.144748 0.523857 0.347203
O O12 0.121136 0.764827 0.293225
O O13 0.000000 0.975737 0.250000
O O14 0.500000 0.942391 0.750000
#
# Coordination Sequence:
#
# PCOD9295511 Si02
#       6
#     8   8   8   8   8   8
#     4  10  24  41  62  89 121 156 203 251 295 349
#     4  10  23  43  62  88 120 158 204 247 295 353
#     4  11  23  40  62  86 120 156 193 245 292 350
#     4  11  21  40  61  85 121 155 190 246 294 345
#     4  11  22  38  59  89 120 152 194 238 294 355
#     4  11  21  39  58  87 122 150 194 239 290 354
#
# _framework density 19.566244999999999
#
# number of rings (size 3 to 8) (size 9 to 14) (size 15 to 20)
#    0.000    1.333    5.000    1.000    2.333    2.667 
#    3.000    0.000    0.000    0.000    0.000    0.000 
#    0.000    0.000    0.000    0.000    0.000    0.000 
#
# Total GULP energy -133976.913992 kJ/mol
# GULP energy per Si atom -5582.371416 kJ/mol
# Density = 1.952171 g / cm^3
# Si number density = 19.566245 Si / 1000 Ang^3
#
#
#
# Elastic Constant Matrix: (Units=GPa)
#
#
# Indices 1 2 3 4 5 6 
#
# 1 86.5063 61.8564 35.9071 0.0000 18.6854 0.0000
# 2 61.8564 88.8906 61.7012 0.0000 33.0979 0.0000
# 3 35.9071 61.7012 141.0328 0.0000 25.4988 0.0000
# 4 0.0000 0.0000 0.0000 34.4741 0.0000 13.1850
# 5 18.6854 33.0979 25.4988 0.0000 35.8137 0.0000
# 6 0.0000 0.0000 0.0000 13.1850 0.0000 27.4785
#
#
#
# Elastic Compliance Matrix: (Units=1/GPa)
#
#
# Indices 1 2 3 4 5 6 
#
# 1 0.023686 -0.019153 0.001587 0.000000 0.004212 0.000000
# 2 -0.019153 0.037008 -0.007962 0.000000 -0.018539 0.000000
# 3 0.001587 -0.007962 0.010317 0.000000 -0.000815 0.000000
# 4 0.000000 0.000000 0.000000 0.035527 0.000000 -0.017047
# 5 0.004212 -0.018539 -0.000815 0.000000 0.043439 0.000000
# 6 0.000000 0.000000 0.000000 -0.017047 0.000000 0.044572
#
#
# Mechanical properties :
#
#
# Convention : Reuss Voigt Hill
#
# Bulk Modulus (GPa) = 50.11214 70.59543 60.35379
# Shear Modulus (GPa) = 19.82110 30.01760 24.91935
#
# Velocity S-wave (km/s) = 3.18626 3.92108 3.57261
# Velocity P-wave (km/s) = 6.26127 7.52717 6.92321
#
# Compressibility (1/GPa) = 0.01995524
#
# Stress axis : x y z
#
# Youngs Moduli (GPa) = 42.21833 27.02152 96.92367
#
# Poissons Ratio (x) = 0.51754 -0.15382
# Poissons Ratio (y) = 0.80860 0.77175
# Poissons Ratio (z) = -0.06700 0.21516
#
# Static dielectric constant tensor:
#      x y z
#    x 1.709710 0.000000 -0.036240 
#    y 0.000000 1.681000 0.000000 
#    z -0.036240 0.000000 1.707600 
# 
# From -- ./inp_files/267641.got.cif
#   From: 2010.05.17/outbox.cif.g08.bks.cpg/sg15_134_cif.got.tgz:267641.got - 2010.06.03 18:47:42.
