data_PCOD9295491
_publ_section_title
;
Structure prediction by ZEFSAII (Michael W. Deem and Ramdas Pophale) SiO2 
 PCOD9295491
Probable space group: C 2/C
;
_chemical_formula_sum "Si O2"
_cell_formula_units_Z 48
_cell_length_a 29.959336
_cell_length_b 8.722240
_cell_length_c 18.225862
_cell_angle_alpha 90.000000
_cell_angle_beta 26.746953
_cell_angle_gamma 90.000000
_cell_volume 2143.433323
_symmetry_space_group_name_H-M "C 2/C"
_symmetry_group_IT_number 15
_symmetry_cell_setting 'monoclinic'
loop_
_space_group_symop_operation_xyz
x,y,z
-x,y,1/2-z
-x,-y,-z
x,-y,1/2+z
1/2+x,1/2+y,z
1/2-x,1/2+y,1/2-z
1/2-x,1/2-y,-z
1/2+x,1/2-y,1/2+z
loop_
_atom_site_type_symbol
_atom_site_label
_atom_site_fract_x
_atom_site_fract_y
_atom_site_fract_z
Si Si1 0.458997 0.637702 0.011827
Si Si2 0.669607 0.549260 0.911663
Si Si3 0.000000 0.418839 0.750000
Si Si4 0.138137 0.309343 0.670265
Si Si5 0.000000 0.134809 0.250000
Si Si6 0.437837 0.153273 0.959522
Si Si7 0.881660 0.458306 0.172574
O O1 0.378370 0.568312 0.074611
O O2 0.558449 0.701303 0.827678
O O3 0.500000 0.500000 0.000000
O O4 0.651217 0.723032 0.907801
O O5 0.597770 0.542446 0.088157
O O6 0.779850 0.525406 0.775025
O O7 0.915573 0.334366 0.828306
O O8 0.937182 0.517428 0.901456
O O9 0.250000 0.250000 0.500000
O O10 0.138051 0.464837 0.719632
O O11 0.016425 0.236429 0.300065
O O12 0.593087 0.221544 0.869967
O O13 0.450078 0.068916 0.019342
#
# Coordination Sequence:
#
# PCOD9295491 Si02
#       7
#     8   8   4   8   4   8   8
#     4  12  28  46  72 112 161 192 257 321 375 465
#     4  10  23  42  76 105 145 195 251 311 374 445
#     4  11  24  49  78 105 152 197 244 317 384 447
#     4  12  31  48  80 111 153 201 259 311 391 467
#     4   7  20  39  70  99 144 191 234 313 370 439
#     4   9  20  43  76 100 144 197 243 303 384 438
#     4  12  25  47  77 109 147 205 252 311 384 463
#
# _framework density 22.393979000000002
#
# number of rings (size 3 to 8) (size 9 to 14) (size 15 to 20)
#    1.000    0.333    1.667    2.500    7.000    4.000 
#    0.000    1.667    0.000    0.000    0.000    0.000 
#    0.000    0.000    0.000    0.000    0.000    0.000 
#
# Total GULP energy -133781.662946 kJ/mol
# GULP energy per Si atom -5574.235956 kJ/mol
# Density = 2.234301 g / cm^3
# Si number density = 22.393979 Si / 1000 Ang^3
#
#
#
# Elastic Constant Matrix: (Units=GPa)
#
#
# Indices 1 2 3 4 5 6 
#
# 1 124.3548 66.0567 30.5115 -0.0002 -6.3570 -0.0001
# 2 66.0567 115.8196 62.5304 -0.0015 -15.3689 -0.0004
# 3 30.5115 62.5304 77.9935 -0.0008 -11.9714 -0.0002
# 4 -0.0002 -0.0015 -0.0008 24.6637 0.0000 -9.4080
# 5 -6.3570 -15.3689 -11.9714 0.0000 34.0435 0.0000
# 6 -0.0001 -0.0004 -0.0002 -9.4080 0.0000 28.3223
#
#
#
# Elastic Compliance Matrix: (Units=1/GPa)
#
#
# Indices 1 2 3 4 5 6 
#
# 1 0.011634 -0.007431 0.001295 0.000000 -0.000727 0.000000
# 2 -0.007431 0.020213 -0.012802 0.000001 0.003236 0.000000
# 3 0.001295 -0.012802 0.022969 0.000000 0.002539 0.000000
# 4 0.000000 0.000001 0.000000 0.046428 0.000000 0.015422
# 5 -0.000727 0.003236 0.002539 0.000000 0.031592 0.000000
# 6 0.000000 0.000000 0.000000 0.015422 0.000000 0.040431
#
#
# Mechanical properties :
#
#
# Convention : Reuss Voigt Hill
#
# Bulk Modulus (GPa) = 59.03329 70.70724 64.87026
# Shear Modulus (GPa) = 23.06376 28.01053 25.53714
#
# Velocity S-wave (km/s) = 3.21270 3.54051 3.38058
# Velocity P-wave (km/s) = 6.33880 6.95388 6.65345
#
# Compressibility (1/GPa) = 0.01693959
#
# Stress axis : x y z
#
# Youngs Moduli (GPa) = 85.95607 49.47213 43.53716
#
# Poissons Ratio (x) = 0.36761 -0.05637
# Poissons Ratio (y) = 0.63871 0.55737
# Poissons Ratio (z) = -0.11129 0.63335
#
# Static dielectric constant tensor:
#      x y z
#    x 1.875850 0.000000 -0.129340 
#    y 0.000000 1.869330 0.000000 
#    z -0.129340 0.000000 1.778030 
# 
# From -- ./inp_files/219264.got.cif
#   From: 2010.05.17/outbox.cif.g08.bks.cpg/sg15_110_cif.got.tgz:219264.got - 2010.06.03 18:47:42.
