data_PCOD9295305
_publ_section_title
;
Structure prediction by ZEFSAII (Michael W. Deem and Ramdas Pophale) SiO2 
 PCOD9295305
Probable space group: C 2/C
;
_chemical_formula_sum "Si O2"
_cell_formula_units_Z 48
_cell_length_a 22.949349
_cell_length_b 6.761724
_cell_length_c 21.658391
_cell_angle_alpha 90.000000
_cell_angle_beta 133.893949
_cell_angle_gamma 90.000000
_cell_volume 2421.937466
_symmetry_space_group_name_H-M "C 2/C"
_symmetry_group_IT_number 15
_symmetry_cell_setting 'monoclinic'
loop_
_space_group_symop_operation_xyz
x,y,z
-x,y,1/2-z
-x,-y,-z
x,-y,1/2+z
1/2+x,1/2+y,z
1/2-x,1/2+y,1/2-z
1/2-x,1/2-y,-z
1/2+x,1/2-y,1/2+z
loop_
_atom_site_type_symbol
_atom_site_label
_atom_site_fract_x
_atom_site_fract_y
_atom_site_fract_z
Si Si1 0.565673 0.099034 0.592914
Si Si2 0.786336 0.348264 0.845802
Si Si3 0.621452 0.228139 0.376982
Si Si4 0.553658 0.823365 0.695609
Si Si5 0.631959 0.499114 0.161775
Si Si6 0.752132 0.446080 0.961865
O O1 0.569677 0.335478 0.592618
O O2 0.500000 0.000000 0.500000
O O3 0.651097 0.011045 0.633543
O O4 0.550263 0.018561 0.650695
O O5 0.702793 0.380092 0.748269
O O6 0.826305 0.136392 0.859824
O O7 0.771805 0.388567 0.906489
O O8 0.535220 0.239386 0.347179
O O9 0.605932 0.148607 0.296108
O O10 0.667876 0.435327 0.404155
O O11 0.679193 0.087369 0.459129
O O12 0.592178 0.653507 0.680837
O O13 0.750000 0.250000 0.000000
#
# Coordination Sequence:
#
# PCOD9295305 Si02
#       6
#     8   8   8   8   8   8
#     4  11  25  42  66  96 130 168 219 278 331 389
#     4  11  23  41  66  99 127 172 219 268 332 393
#     4  10  23  43  63  97 134 171 216 273 320 399
#     4  10  23  42  68  93 131 175 216 267 335 392
#     4  11  23  41  70  95 131 173 222 273 329 407
#     4  11  25  40  67  96 132 172 219 268 327 390
#
# _framework density 19.818843000000001
#
# number of rings (size 3 to 8) (size 9 to 14) (size 15 to 20)
#    0.000    1.333    3.333    1.000    2.333    9.333 
#    0.000    3.333    0.000    0.000    0.000    0.000 
#    0.000    0.000    0.000    0.000    0.000    0.000 
#
# Total GULP energy -134171.278219 kJ/mol
# GULP energy per Si atom -5590.469926 kJ/mol
# Density = 1.977373 g / cm^3
# Si number density = 19.818843 Si / 1000 Ang^3
#
#
#
# Elastic Constant Matrix: (Units=GPa)
#
#
# Indices 1 2 3 4 5 6 
#
# 1 115.1566 47.6439 34.8858 0.0000 -20.1181 0.0000
# 2 47.6439 121.0211 35.2373 0.0002 -20.0468 0.0008
# 3 34.8858 35.2373 71.6559 0.0000 -11.1935 -0.0002
# 4 0.0000 0.0002 0.0000 28.5889 0.0000 2.1365
# 5 -20.1181 -20.0468 -11.1935 0.0000 31.3488 0.0000
# 6 0.0000 0.0008 -0.0002 2.1365 0.0000 21.1511
#
#
#
# Elastic Compliance Matrix: (Units=1/GPa)
#
#
# Indices 1 2 3 4 5 6 
#
# 1 0.011725 -0.002827 -0.003627 0.000000 0.004421 0.000000
# 2 -0.002827 0.011039 -0.003424 0.000000 0.004022 0.000000
# 3 -0.003627 -0.003424 0.017686 0.000000 0.001798 0.000000
# 4 0.000000 0.000000 0.000000 0.035245 0.000000 -0.003560
# 5 0.004421 0.004022 0.001798 0.000000 0.037951 0.000000
# 6 0.000000 0.000000 0.000000 -0.003560 0.000000 0.047638
#
#
# Mechanical properties :
#
#
# Convention : Reuss Voigt Hill
#
# Bulk Modulus (GPa) = 48.32465 60.37417 54.34941
# Shear Modulus (GPa) = 26.60445 28.88887 27.74666
#
# Velocity S-wave (km/s) = 3.66783 3.82206 3.74574
# Velocity P-wave (km/s) = 6.50949 7.07154 6.79632
#
# Compressibility (1/GPa) = 0.02069337
#
# Stress axis : x y z
#
# Youngs Moduli (GPa) = 85.28902 90.58540 56.54177
#
# Poissons Ratio (x) = 0.25612 0.20509
# Poissons Ratio (y) = 0.24114 0.19359
# Poissons Ratio (z) = 0.30936 0.31015
#
# Static dielectric constant tensor:
#      x y z
#    x 1.660970 0.000000 0.034540 
#    y 0.000000 1.684770 0.000000 
#    z 0.034540 0.000000 1.686970 
# 
# From -- ./inp_files/254235.got.cif
#   From: 2010.05.17/outbox.cif.g08.bks.cpg/sg15_128_cif.got.tgz:254235.got - 2010.06.03 18:47:42.
