data_PCOD9295055
_publ_section_title
;
Structure prediction by ZEFSAII (Michael W. Deem and Ramdas Pophale) SiO2 
 PCOD9295055
Probable space group: C 2/C
;
_chemical_formula_sum "Si O2"
_cell_formula_units_Z 52
_cell_length_a 19.632287
_cell_length_b 16.700813
_cell_length_c 9.517284
_cell_angle_alpha 90.000000
_cell_angle_beta 118.997889
_cell_angle_gamma 90.000000
_cell_volume 2729.289878
_symmetry_space_group_name_H-M "C 2/C"
_symmetry_group_IT_number 15
_symmetry_cell_setting 'monoclinic'
loop_
_space_group_symop_operation_xyz
x,y,z
-x,y,1/2-z
-x,-y,-z
x,-y,1/2+z
1/2+x,1/2+y,z
1/2-x,1/2+y,1/2-z
1/2-x,1/2-y,-z
1/2+x,1/2-y,1/2+z
loop_
_atom_site_type_symbol
_atom_site_label
_atom_site_fract_x
_atom_site_fract_y
_atom_site_fract_z
Si Si1 0.000000 0.500000 0.250000
Si Si2 0.706324 0.579078 0.040351
Si Si3 0.118198 0.632532 0.957841
Si Si4 0.706324 0.420922 0.872297
Si Si5 0.075926 0.788800 0.408245
Si Si6 0.924074 0.788800 0.756394
Si Si7 0.881802 0.367468 0.721444
O O1 0.942523 0.440592 0.109577
O O2 0.942523 0.559408 0.275469
O O3 0.702637 0.562125 0.202637
O O4 0.795430 0.602599 0.096994
O O5 0.684039 0.500000 0.934039
O O6 0.648524 0.652600 0.953905
O O7 0.093648 0.701775 0.826216
O O8 0.204570 0.602599 0.006134
O O9 0.120081 0.663869 0.120081
O O10 0.648524 0.347400 0.843143
O O11 0.062802 0.783888 0.562802
O O12 0.093648 0.701775 0.361079
O O13 0.000000 0.819428 0.250000
O O14 0.000000 0.819428 0.750000
#
# Coordination Sequence:
#
# PCOD9295055 Si02
#       7
#     4   8   8   8   8   8   8
#     4  12  22  36  68  98 126 148 202 244 314 356
#     4  10  23  42  63  91 124 164 206 253 306 365
#     4  11  23  40  63  94 128 159 200 250 311 372
#     4  10  23  42  63  91 124 164 206 253 306 365
#     4  11  24  41  63  90 124 163 209 256 306 361
#     4  11  24  41  63  90 124 163 209 256 306 361
#     4  11  23  40  63  94 128 159 200 250 311 372
#
# _framework density 19.052574
#
# number of rings (size 3 to 8) (size 9 to 14) (size 15 to 20)
#    0.000    1.231    3.077    2.308    0.000    5.538 
#    0.000    3.077    0.000    0.000    0.000    0.000 
#    0.000    0.000    0.000    0.000    0.000    0.000 
#
# Total GULP energy -145276.204431 kJ/mol
# GULP energy per Si atom -5587.546324 kJ/mol
# Density = 1.900921 g / cm^3
# Si number density = 19.052574 Si / 1000 Ang^3
#
#
#
# Elastic Constant Matrix: (Units=GPa)
#
#
# Indices 1 2 3 4 5 6 
#
# 1 119.2511 67.0774 51.7767 0.0000 10.7591 0.0000
# 2 67.0774 105.4476 57.5623 0.0000 8.2404 0.0000
# 3 51.7767 57.5623 92.1612 0.0000 12.7014 0.0000
# 4 0.0000 0.0000 0.0000 23.3363 0.0000 4.3836
# 5 10.7591 8.2404 12.7014 0.0000 25.8433 0.0000
# 6 0.0000 0.0000 0.0000 4.3836 0.0000 28.3981
#
#
#
# Elastic Compliance Matrix: (Units=1/GPa)
#
#
# Indices 1 2 3 4 5 6 
#
# 1 0.013832 -0.006905 -0.003183 0.000000 -0.001992 0.000000
# 2 -0.006905 0.017838 -0.007373 0.000000 0.000811 0.000000
# 3 -0.003183 -0.007373 0.017954 0.000000 -0.005147 0.000000
# 4 0.000000 0.000000 0.000000 0.044131 0.000000 -0.006812
# 5 -0.001992 0.000811 -0.005147 0.000000 0.041795 0.000000
# 6 0.000000 0.000000 0.000000 -0.006812 0.000000 0.036265
#
#
# Mechanical properties :
#
#
# Convention : Reuss Voigt Hill
#
# Bulk Modulus (GPa) = 68.03153 74.41030 71.22091
# Shear Modulus (GPa) = 23.62521 24.87843 24.25182
#
# Velocity S-wave (km/s) = 3.52518 3.61748 3.57163
# Velocity P-wave (km/s) = 7.23561 7.52251 7.38045
#
# Compressibility (1/GPa) = 0.01469907
#
# Stress axis : x y z
#
# Youngs Moduli (GPa) = 72.29804 56.06129 55.69891
#
# Poissons Ratio (x) = 0.38712 0.17730
# Poissons Ratio (y) = 0.49923 0.41069
# Poissons Ratio (z) = 0.23014 0.41336
#
# Static dielectric constant tensor:
#      x y z
#    x 1.668860 0.000000 0.011110 
#    y 0.000000 1.631080 0.000000 
#    z 0.011110 0.000000 1.656020 
# 
# From -- ./inp_files/49221.got.cif
#   From: 2010.05.17/outbox.cif.g08.bks.cpg/sg15_25_cif.got.tgz:49221.got - 2010.06.03 18:47:42.
