data_PCOD9295779
_publ_section_title
;
Structure prediction by ZEFSAII (Michael W. Deem and Ramdas Pophale) SiO2 
 PCOD9295779
Probable space group: C 2/C
;
_chemical_formula_sum "Si O2"
_cell_formula_units_Z 64
_cell_length_a 29.526700
_cell_length_b 19.078016
_cell_length_c 9.637517
_cell_angle_alpha 90.000000
_cell_angle_beta 146.493198
_cell_angle_gamma 90.000000
_cell_volume 2996.958026
_symmetry_space_group_name_H-M "C 2/C"
_symmetry_group_IT_number 15
_symmetry_cell_setting 'monoclinic'
loop_
_space_group_symop_operation_xyz
x,y,z
-x,y,1/2-z
-x,-y,-z
x,-y,1/2+z
1/2+x,1/2+y,z
1/2-x,1/2+y,1/2-z
1/2-x,1/2-y,-z
1/2+x,1/2-y,1/2+z
loop_
_atom_site_type_symbol
_atom_site_label
_atom_site_fract_x
_atom_site_fract_y
_atom_site_fract_z
Si Si1 0.837230 0.100942 0.331592
Si Si2 0.665451 0.944004 0.991975
Si Si3 0.151819 0.423648 0.271714
Si Si4 0.561768 0.344568 0.652468
Si Si5 0.580690 0.190184 0.784129
Si Si6 0.115622 0.684503 0.177145
Si Si7 0.855010 0.053960 0.924880
Si Si8 0.132364 0.841443 0.301816
O O1 0.896846 0.147419 0.390696
O O2 0.821977 0.134630 0.442746
O O3 0.880000 0.025169 0.455575
O O4 0.749753 0.089571 0.034210
O O5 0.630672 0.938353 0.058020
O O6 0.763384 0.953495 0.250707
O O7 0.651735 0.873357 0.870523
O O8 0.632047 0.009501 0.818147
O O9 0.108568 0.355993 0.226158
O O10 0.595869 0.272704 0.804720
O O11 0.463953 0.342316 0.403856
O O12 0.589016 0.408669 0.818971
O O13 0.482640 0.184522 0.550549
O O14 0.625114 0.166454 0.039094
O O15 0.149301 0.762182 0.295864
O O16 0.853434 0.103011 0.784863
#
# Coordination Sequence:
#
# PCOD9295779 Si02
#       8
#     8   8   8   8   8   8   8   8
#     4  11  25  39  61  95 130 166 216 261 309 366
#     4  11  25  43  68  95 127 162 208 258 317 377
#     4  11  25  44  67  95 126 165 204 263 315 376
#     4  11  22  43  61  93 132 166 213 262 308 369
#     4  10  23  43  69  92 128 164 207 261 313 374
#     4  10  23  44  66  96 125 165 209 257 315 378
#     4  11  23  41  63  92 127 170 213 262 305 374
#     4  11  24  39  65  92 129 172 212 257 314 367
#
# _framework density 21.354987000000001
#
# number of rings (size 3 to 8) (size 9 to 14) (size 15 to 20)
#    0.000    1.250    2.500    2.250    8.750    6.000 
#    0.000    0.000    0.000    0.000    0.000    0.000 
#    0.000    0.000    0.000    0.000    0.000    0.000 
#
# Total GULP energy -179036.847034 kJ/mol
# GULP energy per Si atom -5594.901470 kJ/mol
# Density = 2.130638 g / cm^3
# Si number density = 21.354987 Si / 1000 Ang^3
#
#
#
# Elastic Constant Matrix: (Units=GPa)
#
#
# Indices 1 2 3 4 5 6 
#
# 1 88.9056 11.4364 11.0719 0.0000 -20.7268 0.0000
# 2 11.4364 57.8072 12.3884 0.0000 3.7322 0.0000
# 3 11.0719 12.3884 48.1304 0.0000 -24.3875 0.0000
# 4 0.0000 0.0000 0.0000 29.7165 0.0000 -11.6199
# 5 -20.7268 3.7322 -24.3875 0.0000 29.6237 0.0000
# 6 0.0000 0.0000 0.0000 -11.6199 0.0000 32.9114
#
#
#
# Elastic Compliance Matrix: (Units=1/GPa)
#
#
# Indices 1 2 3 4 5 6 
#
# 1 0.014935 -0.005308 0.006115 0.000000 0.016152 0.000000
# 2 -0.005308 0.022372 -0.013463 0.000000 -0.017616 0.000000
# 3 0.006115 -0.013463 0.044372 0.000000 0.042503 0.000000
# 4 0.000000 0.000000 0.000000 0.039041 0.000000 0.013784
# 5 0.016152 -0.017616 0.042503 0.000000 0.082268 0.000000
# 6 0.000000 0.000000 0.000000 0.013784 0.000000 0.035251
#
#
# Mechanical properties :
#
#
# Convention : Reuss Voigt Hill
#
# Bulk Modulus (GPa) = 17.74125 29.40406 23.57265
# Shear Modulus (GPa) = 17.70921 29.11343 23.41132
#
# Velocity S-wave (km/s) = 2.88284 3.69631 3.31462
# Velocity P-wave (km/s) = 4.40532 5.65827 5.07064
#
# Compressibility (1/GPa) = 0.05636581
#
# Stress axis : x y z
#
# Youngs Moduli (GPa) = 66.95798 44.69971 22.53689
#
# Poissons Ratio (x) = 0.23726 -0.13781
# Poissons Ratio (y) = 0.35541 0.30341
# Poissons Ratio (z) = -0.40944 0.60179
#
# Static dielectric constant tensor:
#      x y z
#    x 1.761360 0.000000 0.005740 
#    y 0.000000 1.739270 0.000000 
#    z 0.005740 0.000000 1.769210 
# 
# From -- ./inp_files/70641.got.cif
#   From: 2010.05.17/outbox.cif.g08.bks.cpg/sg15_36_cif.got.tgz:70641.got - 2010.06.03 18:47:42.
