data_PCOD9295194
_publ_section_title
;
Structure prediction by ZEFSAII (Michael W. Deem and Ramdas Pophale) SiO2 
 PCOD9295194
Probable space group: C 2/C
;
_chemical_formula_sum "Si O2"
_cell_formula_units_Z 56
_cell_length_a 11.751925
_cell_length_b 21.246859
_cell_length_c 12.165016
_cell_angle_alpha 90.000000
_cell_angle_beta 69.978549
_cell_angle_gamma 90.000000
_cell_volume 2853.928138
_symmetry_space_group_name_H-M "C 2/C"
_symmetry_group_IT_number 15
_symmetry_cell_setting 'monoclinic'
loop_
_space_group_symop_operation_xyz
x,y,z
-x,y,1/2-z
-x,-y,-z
x,-y,1/2+z
1/2+x,1/2+y,z
1/2-x,1/2+y,1/2-z
1/2-x,1/2-y,-z
1/2+x,1/2-y,1/2+z
loop_
_atom_site_type_symbol
_atom_site_label
_atom_site_fract_x
_atom_site_fract_y
_atom_site_fract_z
Si Si1 0.081000 0.062425 0.990849
Si Si2 0.569316 0.092327 0.058898
Si Si3 0.130271 0.869900 0.243679
Si Si4 0.424792 0.331441 0.666431
Si Si5 0.258218 0.489265 0.392661
Si Si6 0.307453 0.087720 0.244626
Si Si7 0.677781 0.217034 0.924397
O O1 0.124618 0.097606 0.865347
O O2 0.996935 0.113177 0.080688
O O3 0.188584 0.037072 0.034553
O O4 0.000000 0.000000 0.000000
O O5 0.427842 0.092086 0.131347
O O6 0.644914 0.085519 0.147236
O O7 0.625881 0.037510 0.965389
O O8 0.602283 0.159088 0.996568
O O9 0.160974 0.926685 0.148138
O O10 0.228961 0.815409 0.192593
O O11 0.000000 0.844611 0.250000
O O12 0.500000 0.317089 0.750000
O O13 0.289996 0.357306 0.735993
O O14 0.406454 0.269598 0.600689
O O15 0.257321 0.524863 0.276755
O O16 0.750000 0.250000 0.000000
#
# Coordination Sequence:
#
# PCOD9295194 Si02
#       7
#     8   8   8   8   8   8   8
#     4  12  23  38  67 103 136 166 219 281 348 400
#     4  10  23  42  66  95 125 174 224 267 320 405
#     4  11  23  38  65  99 125 173 223 279 335 392
#     4  12  25  44  64  97 134 178 218 279 337 396
#     4  11  21  39  65  97 136 160 212 277 343 401
#     4  11  22  40  65  96 129 170 212 264 340 394
#     4  11  24  45  66  88 131 174 234 273 316 397
#
# _framework density 19.622077000000001
#
# number of rings (size 3 to 8) (size 9 to 14) (size 15 to 20)
#    0.000    0.857    4.286    3.857    0.000    2.286 
#    2.571    1.429    6.286    0.000    0.000    0.000 
#    0.000    0.000    0.000    0.000    0.000    0.000 
#
# Total GULP energy -156435.125344 kJ/mol
# GULP energy per Si atom -5586.968762 kJ/mol
# Density = 1.957742 g / cm^3
# Si number density = 19.622077 Si / 1000 Ang^3
#
#
#
# Elastic Constant Matrix: (Units=GPa)
#
#
# Indices 1 2 3 4 5 6 
#
# 1 42.7275 31.2435 17.9658 0.0000 3.1738 0.0000
# 2 31.2435 128.7867 45.0388 0.0000 9.3581 0.0000
# 3 17.9658 45.0388 79.9343 0.0000 3.4190 0.0000
# 4 0.0000 0.0000 0.0000 35.2860 0.0000 4.3900
# 5 3.1738 9.3581 3.4190 0.0000 26.9031 0.0000
# 6 0.0000 0.0000 0.0000 4.3900 0.0000 17.1892
#
#
#
# Elastic Compliance Matrix: (Units=1/GPa)
#
#
# Indices 1 2 3 4 5 6 
#
# 1 0.029116 -0.005876 -0.003191 0.000000 -0.000985 0.000000
# 2 -0.005876 0.011053 -0.004798 0.000000 -0.002542 0.000000
# 3 -0.003191 -0.004798 0.015930 0.000000 0.000021 0.000000
# 4 0.000000 0.000000 0.000000 0.029270 0.000000 -0.007475
# 5 -0.000985 -0.002542 0.000021 0.000000 0.038168 0.000000
# 6 0.000000 0.000000 0.000000 -0.007475 0.000000 0.060085
#
#
# Mechanical properties :
#
#
# Convention : Reuss Voigt Hill
#
# Bulk Modulus (GPa) = 35.25068 48.88275 42.06672
# Shear Modulus (GPa) = 22.64400 26.35568 24.49984
#
# Velocity S-wave (km/s) = 3.40075 3.66890 3.53737
# Velocity P-wave (km/s) = 5.78135 6.55087 6.17810
#
# Compressibility (1/GPa) = 0.02836825
#
# Stress axis : x y z
#
# Youngs Moduli (GPa) = 34.34573 90.47276 62.77357
#
# Poissons Ratio (x) = 0.53161 0.20031
# Poissons Ratio (y) = 0.20181 0.30122
# Poissons Ratio (z) = 0.10960 0.43413
#
# Static dielectric constant tensor:
#      x y z
#    x 1.713570 0.000000 -0.024270 
#    y 0.000000 1.669830 0.000000 
#    z -0.024270 0.000000 1.714680 
# 
# From -- ./inp_files/89557.got.cif
#   From: 2010.05.17/outbox.cif.g08.bks.cpg/sg15_45_cif.got.tgz:89557.got - 2010.06.03 18:47:42.
