data_PCOD9295477
_publ_section_title
;
Structure prediction by ZEFSAII (Michael W. Deem and Ramdas Pophale) SiO2 
 PCOD9295477
Probable space group: C 2/C
;
_chemical_formula_sum "Si O2"
_cell_formula_units_Z 40
_cell_length_a 14.041770
_cell_length_b 10.374811
_cell_length_c 12.176027
_cell_angle_alpha 90.000000
_cell_angle_beta 66.891908
_cell_angle_gamma 90.000000
_cell_volume 1631.492342
_symmetry_space_group_name_H-M "C 2/C"
_symmetry_group_IT_number 15
_symmetry_cell_setting 'monoclinic'
loop_
_space_group_symop_operation_xyz
x,y,z
-x,y,1/2-z
-x,-y,-z
x,-y,1/2+z
1/2+x,1/2+y,z
1/2-x,1/2+y,1/2-z
1/2-x,1/2-y,-z
1/2+x,1/2-y,1/2+z
loop_
_atom_site_type_symbol
_atom_site_label
_atom_site_fract_x
_atom_site_fract_y
_atom_site_fract_z
Si Si1 0.290552 0.616907 0.927853
Si Si2 0.641170 0.757636 0.796522
Si Si3 0.093278 0.524972 0.877534
Si Si4 0.381654 0.296835 0.727757
Si Si5 0.916977 0.111036 0.453958
O O1 0.371921 0.660862 0.797909
O O2 0.196764 0.545440 0.905718
O O3 0.349789 0.519807 0.981523
O O4 0.250000 0.750000 0.000000
O O5 0.763619 0.789732 0.744425
O O6 0.595934 0.898879 0.801484
O O7 0.604966 0.693329 0.927005
O O8 0.077242 0.655240 0.819007
O O9 0.000000 0.500000 0.000000
O O10 0.459689 0.394224 0.629305
O O11 0.380170 0.320764 0.857939
#
# Coordination Sequence:
#
# PCOD9295477 Si02
#       5
#     8   8   8   8   8
#     4  11  28  46  71 106 140 187 243 300 350 427
#     4  11  24  45  73 102 149 187 232 305 358 427
#     4  11  23  46  71 106 144 185 238 292 364 422
#     4  10  23  42  73 107 136 188 239 287 353 435
#     4  11  23  46  75 101 144 192 242 286 367 425
#
# _framework density 24.517430999999998
#
# number of rings (size 3 to 8) (size 9 to 14) (size 15 to 20)
#    0.000    1.200    4.000    0.600    5.600    0.000 
#    7.200    8.000    0.000    0.000    0.000    0.000 
#    0.000    0.000    0.000    0.000    0.000    0.000 
#
# Total GULP energy -111926.676137 kJ/mol
# GULP energy per Si atom -5596.333807 kJ/mol
# Density = 2.446163 g / cm^3
# Si number density = 24.517431 Si / 1000 Ang^3
#
#
#
# Elastic Constant Matrix: (Units=GPa)
#
#
# Indices 1 2 3 4 5 6 
#
# 1 46.6502 31.5876 22.1162 0.0000 12.7111 0.0000
# 2 31.5876 148.2016 41.2006 0.0000 -3.1119 0.0000
# 3 22.1162 41.2006 113.3039 0.0000 -8.7478 0.0000
# 4 0.0000 0.0000 0.0000 60.2653 0.0000 -3.8644
# 5 12.7111 -3.1119 -8.7478 0.0000 40.7959 0.0000
# 6 0.0000 0.0000 0.0000 -3.8644 0.0000 28.4051
#
#
#
# Elastic Compliance Matrix: (Units=1/GPa)
#
#
# Indices 1 2 3 4 5 6 
#
# 1 0.030304 -0.005350 -0.004810 0.000000 -0.010882 0.000000
# 2 -0.005350 0.008451 -0.001881 0.000000 0.001908 0.000000
# 3 -0.004810 -0.001881 0.010731 0.000000 0.003656 0.000000
# 4 0.000000 0.000000 0.000000 0.016739 0.000000 0.002277
# 5 -0.010882 0.001908 0.003656 0.000000 0.028832 0.000000
# 6 0.000000 0.000000 0.000000 0.002277 0.000000 0.035515
#
#
# Mechanical properties :
#
#
# Convention : Reuss Voigt Hill
#
# Bulk Modulus (GPa) = 39.36494 55.32937 47.34715
# Shear Modulus (GPa) = 30.65164 40.11002 35.38083
#
# Velocity S-wave (km/s) = 3.53965 4.04911 3.80292
# Velocity P-wave (km/s) = 5.72680 6.66909 6.21583
#
# Compressibility (1/GPa) = 0.02540331
#
# Stress axis : x y z
#
# Youngs Moduli (GPa) = 32.99874 118.32881 93.18762
#
# Poissons Ratio (x) = 0.63310 0.44821
# Poissons Ratio (y) = 0.17656 0.17532
# Poissons Ratio (z) = 0.15872 0.22262
#
# Static dielectric constant tensor:
#      x y z
#    x 2.043600 0.000000 -0.026590 
#    y 0.000000 2.104320 0.000000 
#    z -0.026590 0.000000 1.933340 
# 
# From -- ./inp_files/159119.got.cif
#   From: 2010.05.17/outbox.cif.g08.bks.cpg/sg15_80_cif.got.tgz:159119.got - 2010.06.03 18:47:42.
