data_PCOD9295123
_publ_section_title
;
Structure prediction by ZEFSAII (Michael W. Deem and Ramdas Pophale) SiO2 
 PCOD9295123
Probable space group: C 2/C
;
_chemical_formula_sum "Si O2"
_cell_formula_units_Z 56
_cell_length_a 27.806889
_cell_length_b 7.930486
_cell_length_c 11.545489
_cell_angle_alpha 90.000000
_cell_angle_beta 104.208304
_cell_angle_gamma 90.000000
_cell_volume 2468.152203
_symmetry_space_group_name_H-M "C 2/C"
_symmetry_group_IT_number 15
_symmetry_cell_setting 'monoclinic'
loop_
_space_group_symop_operation_xyz
x,y,z
-x,y,1/2-z
-x,-y,-z
x,-y,1/2+z
1/2+x,1/2+y,z
1/2-x,1/2+y,1/2-z
1/2-x,1/2-y,-z
1/2+x,1/2-y,1/2+z
loop_
_atom_site_type_symbol
_atom_site_label
_atom_site_fract_x
_atom_site_fract_y
_atom_site_fract_z
Si Si1 0.880271 0.219551 0.523370
Si Si2 0.263991 0.368008 0.615207
Si Si3 0.880953 0.903646 0.670283
Si Si4 0.704238 0.157999 0.671862
Si Si5 0.377500 0.017557 0.701833
Si Si6 0.038833 0.604685 0.591673
Si Si7 0.478315 0.545886 0.358358
O O1 0.831220 0.214082 0.416342
O O2 0.869539 0.357201 0.617182
O O3 0.923645 0.304105 0.474748
O O4 0.893680 0.036102 0.577946
O O5 0.250000 0.250000 0.500000
O O6 0.321846 0.420650 0.653507
O O7 0.256868 0.257704 0.726999
O O8 0.229960 0.530763 0.600004
O O9 0.886315 0.702903 0.648180
O O10 0.918255 0.955567 0.797535
O O11 0.668156 0.054805 0.738218
O O12 0.427390 0.992483 0.805130
O O13 0.010829 0.755125 0.638479
O O14 0.000000 0.500000 0.500000
O O15 0.500000 0.468090 0.250000
O O16 0.500000 0.500000 0.500000
#
# Coordination Sequence:
#
# PCOD9295123 Si02
#       7
#     8   8   8   8   8   8   8
#     4  11  23  44  72  97 142 189 240 298 370 451
#     4  11  25  45  69 104 144 186 242 307 371 444
#     4  10  24  44  71 102 143 191 244 303 368 442
#     4  10  23  42  65 102 137 183 242 294 365 448
#     4   9  22  44  64  99 138 181 240 299 362 432
#     4  10  24  41  64 102 140 186 239 301 371 435
#     4  11  25  47  72 106 145 191 249 308 370 449
#
# _framework density 22.689039999999999
#
# number of rings (size 3 to 8) (size 9 to 14) (size 15 to 20)
#    0.000    1.714    0.000    3.429   10.000    0.571 
#    0.000    2.857    0.000    0.000    0.000    0.000 
#    0.000    0.000    0.000    0.000    0.000    0.000 
#
# Total GULP energy -156275.390808 kJ/mol
# GULP energy per Si atom -5581.263957 kJ/mol
# Density = 2.263740 g / cm^3
# Si number density = 22.689040 Si / 1000 Ang^3
#
#
#
# Elastic Constant Matrix: (Units=GPa)
#
#
# Indices 1 2 3 4 5 6 
#
# 1 68.5667 25.9027 40.7346 0.0000 17.7634 0.0000
# 2 25.9027 33.6827 32.3967 0.0000 13.1055 0.0000
# 3 40.7346 32.3967 134.6498 0.0000 22.3340 0.0000
# 4 0.0000 0.0000 0.0000 52.3590 0.0000 1.0547
# 5 17.7634 13.1055 22.3340 0.0000 31.8075 0.0000
# 6 0.0000 0.0000 0.0000 1.0547 0.0000 22.3245
#
#
#
# Elastic Compliance Matrix: (Units=1/GPa)
#
#
# Indices 1 2 3 4 5 6 
#
# 1 0.022352 -0.012298 -0.002912 0.000000 -0.005371 0.000000
# 2 -0.012298 0.048853 -0.006603 0.000000 -0.008624 0.000000
# 3 -0.002912 -0.006603 0.010385 0.000000 -0.002945 0.000000
# 4 0.000000 0.000000 0.000000 0.019117 0.000000 -0.000903
# 5 -0.005371 -0.008624 -0.002945 0.000000 0.040060 0.000000
# 6 0.000000 0.000000 0.000000 -0.000903 0.000000 0.044836
#
#
# Mechanical properties :
#
#
# Convention : Reuss Voigt Hill
#
# Bulk Modulus (GPa) = 26.34180 48.32970 37.33575
# Shear Modulus (GPa) = 20.67110 30.48921 25.58016
#
# Velocity S-wave (km/s) = 3.02165 3.66975 3.36136
# Velocity P-wave (km/s) = 4.87944 6.26923 5.61748
#
# Compressibility (1/GPa) = 0.03796247
#
# Stress axis : x y z
#
# Youngs Moduli (GPa) = 44.73927 20.46965 96.29463
#
# Poissons Ratio (x) = 0.25174 0.28042
# Poissons Ratio (y) = 0.55022 0.63584
# Poissons Ratio (z) = 0.13029 0.13516
#
# Static dielectric constant tensor:
#      x y z
#    x 1.915750 0.000000 0.003960 
#    y 0.000000 1.847970 0.000000 
#    z 0.003960 0.000000 1.983170 
# 
# From -- ./inp_files/122013.got.cif
#   From: 2010.05.17/outbox.cif.g08.bks.cpg/sg15_62_cif.got.tgz:122013.got - 2010.06.03 18:47:42.
