data_PCOD9295731
_publ_section_title
;
Structure prediction by ZEFSAII (Michael W. Deem and Ramdas Pophale) SiO2 
 PCOD9295731
Probable space group: C 2/C
;
_chemical_formula_sum "Si O2"
_cell_formula_units_Z 48
_cell_length_a 14.700810
_cell_length_b 11.472140
_cell_length_c 14.538025
_cell_angle_alpha 90.000000
_cell_angle_beta 96.258338
_cell_angle_gamma 90.000000
_cell_volume 2437.222544
_symmetry_space_group_name_H-M "C 2/C"
_symmetry_group_IT_number 15
_symmetry_cell_setting 'monoclinic'
loop_
_space_group_symop_operation_xyz
x,y,z
-x,y,1/2-z
-x,-y,-z
x,-y,1/2+z
1/2+x,1/2+y,z
1/2-x,1/2+y,1/2-z
1/2-x,1/2-y,-z
1/2+x,1/2-y,1/2+z
loop_
_atom_site_type_symbol
_atom_site_label
_atom_site_fract_x
_atom_site_fract_y
_atom_site_fract_z
Si Si1 0.814830 0.744253 0.916568
Si Si2 0.992908 0.638879 0.505662
Si Si3 0.195473 0.954920 0.370591
Si Si4 0.328892 0.499447 0.837624
Si Si5 0.711192 0.874606 0.467580
Si Si6 0.002344 0.161041 0.859868
O O1 0.756541 0.656124 0.848588
O O2 0.826442 0.872827 0.881193
O O3 0.750000 0.750000 0.000000
O O4 0.914003 0.687872 0.940954
O O5 0.896842 0.648776 0.546891
O O6 0.000000 0.500000 0.500000
O O7 0.987393 0.718324 0.412702
O O8 0.098584 0.902189 0.395019
O O9 0.176645 0.018079 0.272476
O O10 0.251198 0.032765 0.450652
O O11 0.248453 0.574160 0.876142
O O12 0.420757 0.571070 0.871076
O O13 0.750000 0.750000 0.500000
O O14 0.000000 0.182691 0.750000
#
# Coordination Sequence:
#
# PCOD9295731 Si02
#       6
#     8   8   8   8   8   8
#     4  12  23  44  69  93 130 179 219 269 330 398
#     4  12  23  42  64  98 129 168 221 266 333 393
#     4  11  25  45  67  98 131 177 225 267 332 396
#     4  11  25  44  69  96 131 178 222 275 324 393
#     4  12  25  42  66  99 135 170 211 276 332 386
#     4  10  23  43  68  95 128 174 228 272 321 393
#
# _framework density 19.69455
#
# number of rings (size 3 to 8) (size 9 to 14) (size 15 to 20)
#    0.000    0.667    6.667    0.000    4.667    1.333 
#    0.000    0.833    0.000    0.000    0.000    0.000 
#    0.000    0.000    0.000    0.000    0.000    0.000 
#
# Total GULP energy -133915.645528 kJ/mol
# GULP energy per Si atom -5579.818564 kJ/mol
# Density = 1.964972 g / cm^3
# Si number density = 19.694550 Si / 1000 Ang^3
#
#
#
# Elastic Constant Matrix: (Units=GPa)
#
#
# Indices 1 2 3 4 5 6 
#
# 1 164.7371 35.4757 18.8900 0.0000 -15.6997 0.0000
# 2 35.4757 133.0091 22.7833 0.0000 -15.8224 0.0000
# 3 18.8900 22.7833 55.0231 0.0000 -9.4570 0.0000
# 4 0.0000 0.0000 0.0000 33.4775 0.0000 -2.1938
# 5 -15.6997 -15.8224 -9.4570 0.0000 23.2826 0.0000
# 6 0.0000 0.0000 0.0000 -2.1938 0.0000 38.0134
#
#
#
# Elastic Compliance Matrix: (Units=1/GPa)
#
#
# Indices 1 2 3 4 5 6 
#
# 1 0.006785 -0.001206 -0.001273 0.000000 0.003238 0.000000
# 2 -0.001206 0.008759 -0.002504 0.000000 0.004122 0.000000
# 3 -0.001273 -0.002504 0.020650 0.000000 0.005827 0.000000
# 4 0.000000 0.000000 0.000000 0.029984 0.000000 0.001730
# 5 0.003238 0.004122 0.005827 0.000000 0.050302 0.000000
# 6 0.000000 0.000000 0.000000 0.001730 0.000000 0.026406
#
#
# Mechanical properties :
#
#
# Convention : Reuss Voigt Hill
#
# Bulk Modulus (GPa) = 38.13007 56.34081 47.23544
# Shear Modulus (GPa) = 30.94130 37.32937 34.13534
#
# Velocity S-wave (km/s) = 3.96796 4.35836 4.16773
# Velocity P-wave (km/s) = 6.35576 7.34823 6.86994
#
# Compressibility (1/GPa) = 0.02622602
#
# Stress axis : x y z
#
# Youngs Moduli (GPa) = 147.39180 114.16380 48.42662
#
# Poissons Ratio (x) = 0.13771 0.06166
# Poissons Ratio (y) = 0.17780 0.12128
# Poissons Ratio (z) = 0.18766 0.28591
#
# Static dielectric constant tensor:
#      x y z
#    x 2.335400 0.000000 -0.222800 
#    y 0.000000 1.580380 0.000000 
#    z -0.222800 0.000000 1.811410 
# 
# From -- ./inp_files/152033.got.cif
#   From: 2010.05.17/outbox.cif.g08.bks.cpg/sg15_77_cif.got.tgz:152033.got - 2010.06.03 18:47:42.
