data_PCOD9295910
_publ_section_title
;
Structure prediction by ZEFSAII (Michael W. Deem and Ramdas Pophale) SiO2 
 PCOD9295910
Probable space group: C 2/C
;
_chemical_formula_sum "Si O2"
_cell_formula_units_Z 40
_cell_length_a 30.836017
_cell_length_b 8.756174
_cell_length_c 14.127237
_cell_angle_alpha 90.000000
_cell_angle_beta 28.304727
_cell_angle_gamma 90.000000
_cell_volume 1808.654369
_symmetry_space_group_name_H-M "C 2/C"
_symmetry_group_IT_number 15
_symmetry_cell_setting 'monoclinic'
loop_
_space_group_symop_operation_xyz
x,y,z
-x,y,1/2-z
-x,-y,-z
x,-y,1/2+z
1/2+x,1/2+y,z
1/2-x,1/2+y,1/2-z
1/2-x,1/2-y,-z
1/2+x,1/2-y,1/2+z
loop_
_atom_site_type_symbol
_atom_site_label
_atom_site_fract_x
_atom_site_fract_y
_atom_site_fract_z
Si Si1 0.237977 0.491564 0.498096
Si Si2 0.618270 0.635424 0.927291
Si Si3 0.265272 0.704616 0.613144
Si Si4 0.442815 0.704012 0.947654
Si Si5 0.551232 0.160333 0.407218
O O1 0.312988 0.410720 0.289797
O O2 0.274937 0.557494 0.526667
O O3 0.208907 0.644865 0.496656
O O4 0.153373 0.381344 0.678230
O O5 0.674915 0.691737 0.908242
O O6 0.553981 0.763869 0.005365
O O7 0.571071 0.475705 0.041433
O O8 0.157809 0.722539 0.846507
O O9 0.500000 0.770197 0.750000
O O10 0.499809 0.729439 0.933460
O O11 0.500000 0.000000 0.500000
#
# Coordination Sequence:
#
# PCOD9295910 Si02
#       5
#     8   8   8   8   8
#     4  10  23  43  72  96 137 177 228 276 332 411
#     4  11  26  42  73  98 137 181 229 274 341 405
#     4  10  23  45  69 102 131 180 228 277 332 405
#     4  11  25  43  67 100 140 174 224 283 341 398
#     4  12  25  42  67 100 137 173 224 284 338 391
#
# _framework density 22.115888999999999
#
# number of rings (size 3 to 8) (size 9 to 14) (size 15 to 20)
#    0.000    1.200    2.000    2.400    8.400    3.200 
#    0.000    0.000    0.000    0.000    0.000    0.000 
#    0.000    0.000    0.000    0.000    0.000    0.000 
#
# Total GULP energy -111958.131251 kJ/mol
# GULP energy per Si atom -5597.906563 kJ/mol
# Density = 2.206555 g / cm^3
# Si number density = 22.115889 Si / 1000 Ang^3
#
#
#
# Elastic Constant Matrix: (Units=GPa)
#
#
# Indices 1 2 3 4 5 6 
#
# 1 203.1285 41.5524 23.3620 0.0000 -9.2732 0.0000
# 2 41.5524 49.3766 -0.3423 0.0000 -9.2650 0.0000
# 3 23.3620 -0.3423 38.0014 0.0000 13.8847 0.0000
# 4 0.0000 0.0000 0.0000 16.1600 0.0000 -3.1985
# 5 -9.2732 -9.2650 13.8847 0.0000 25.5936 0.0000
# 6 0.0000 0.0000 0.0000 -3.1985 0.0000 21.0468
#
#
#
# Elastic Compliance Matrix: (Units=1/GPa)
#
#
# Indices 1 2 3 4 5 6 
#
# 1 0.006755 -0.005044 -0.005519 0.000000 0.003615 0.000000
# 2 -0.005044 0.025841 0.000728 0.000000 0.007132 0.000000
# 3 -0.005519 0.000728 0.037851 0.000000 -0.022271 0.000000
# 4 0.000000 0.000000 0.000000 0.063800 0.000000 0.009696
# 5 0.003615 0.007132 -0.022271 0.000000 0.055046 0.000000
# 6 0.000000 0.000000 0.000000 0.009696 0.000000 0.048987
#
#
# Mechanical properties :
#
#
# Convention : Reuss Voigt Hill
#
# Bulk Modulus (GPa) = 19.69423 46.62786 33.16104
# Shear Modulus (GPa) = 18.19008 27.62238 22.90623
#
# Velocity S-wave (km/s) = 2.87102 3.53793 3.22178
# Velocity P-wave (km/s) = 4.46259 6.14967 5.37276
#
# Compressibility (1/GPa) = 0.05077630
#
# Stress axis : x y z
#
# Youngs Moduli (GPa) = 148.04685 38.69879 26.41917
#
# Poissons Ratio (x) = 0.19520 0.14581
# Poissons Ratio (y) = 0.74677 -0.01923
# Poissons Ratio (z) = 0.81706 -0.02817
#
# Static dielectric constant tensor:
#      x y z
#    x 1.809350 0.000000 -0.079720 
#    y 0.000000 1.831270 0.000000 
#    z -0.079720 0.000000 2.031900 
# 
# From -- ./inp_files/150662.got.cif
#   From: 2010.05.17/outbox.cif.g08.bks.cpg/sg15_76_cif.got.tgz:150662.got - 2010.06.03 18:47:42.
