data_PCOD9295299
_publ_section_title
;
Structure prediction by ZEFSAII (Michael W. Deem and Ramdas Pophale) SiO2 
 PCOD9295299
Probable space group: C 2/C
;
_chemical_formula_sum "Si O2"
_cell_formula_units_Z 56
_cell_length_a 9.350846
_cell_length_b 29.579111
_cell_length_c 10.482455
_cell_angle_alpha 90.000000
_cell_angle_beta 108.116112
_cell_angle_gamma 90.000000
_cell_volume 2755.614119
_symmetry_space_group_name_H-M "C 2/C"
_symmetry_group_IT_number 15
_symmetry_cell_setting 'monoclinic'
loop_
_space_group_symop_operation_xyz
x,y,z
-x,y,1/2-z
-x,-y,-z
x,-y,1/2+z
1/2+x,1/2+y,z
1/2-x,1/2+y,1/2-z
1/2-x,1/2-y,-z
1/2+x,1/2-y,1/2+z
loop_
_atom_site_type_symbol
_atom_site_label
_atom_site_fract_x
_atom_site_fract_y
_atom_site_fract_z
Si Si1 0.340357 0.357341 0.640962
Si Si2 0.000000 0.892487 0.250000
Si Si3 0.598633 0.542559 0.981173
Si Si4 0.218432 0.161146 0.661224
Si Si5 0.830517 0.573630 0.244308
Si Si6 0.371125 0.980219 0.375633
Si Si7 0.500000 0.100650 0.750000
Si Si8 0.679502 0.742594 0.337053
O O1 0.500000 0.367734 0.750000
O O2 0.367018 0.346056 0.498207
O O3 0.227603 0.397862 0.649784
O O4 0.280634 0.309493 0.681885
O O5 0.004320 0.924371 0.128780
O O6 0.858271 0.861065 0.237042
O O7 0.722417 0.524980 0.916483
O O8 0.500000 0.500000 0.000000
O O9 0.694400 0.573719 0.104893
O O10 0.370096 0.134161 0.669994
O O11 0.249124 0.213018 0.705730
O O12 0.841527 0.519549 0.266801
O O13 0.000000 0.588149 0.250000
O O14 0.427088 0.933476 0.332062
O O15 0.500000 0.000000 0.500000
O O16 0.500000 0.745198 0.250000
O O17 0.750000 0.750000 0.500000
#
# Coordination Sequence:
#
# PCOD9295299 Si02
#       8
#     8   4   8   8   8   8   4   8
#     4  10  23  42  68  92 126 170 215 263 329 391
#     4  12  26  42  60  97 131 166 218 270 318 392
#     4  12  27  43  62  89 132 172 219 264 325 384
#     4  11  23  41  69  94 128 168 216 266 330 389
#     4  12  25  42  62  94 129 167 216 268 320 385
#     4  12  23  41  62  91 125 170 218 269 316 383
#     4  12  22  40  64  93 121 170 218 268 320 376
#     4   9  19  41  69  98 126 165 219 272 325 401
#
# _framework density 20.322149
#
# number of rings (size 3 to 8) (size 9 to 14) (size 15 to 20)
#    0.000    0.857    4.286    2.571    6.000    0.000 
#    1.286    0.000    0.000    3.429    0.000    0.000 
#    0.000    0.000    0.000    0.000    0.000    0.000 
#
# Total GULP energy -155954.432307 kJ/mol
# GULP energy per Si atom -5569.801154 kJ/mol
# Density = 2.027590 g / cm^3
# Si number density = 20.322149 Si / 1000 Ang^3
#
#
#
# Elastic Constant Matrix: (Units=GPa)
#
#
# Indices 1 2 3 4 5 6 
#
# 1 82.7074 25.5109 -4.8259 0.0000 -8.0889 0.0000
# 2 25.5109 96.2236 -6.8071 0.0000 -8.0776 0.0000
# 3 -4.8259 -6.8071 47.5109 0.0000 14.0294 0.0000
# 4 0.0000 0.0000 0.0000 11.1180 0.0000 7.0131
# 5 -8.0889 -8.0776 14.0294 0.0000 31.1780 0.0000
# 6 0.0000 0.0000 0.0000 7.0131 0.0000 24.3019
#
#
#
# Elastic Compliance Matrix: (Units=1/GPa)
#
#
# Indices 1 2 3 4 5 6 
#
# 1 0.013372 -0.003322 0.000129 0.000000 0.002551 0.000000
# 2 -0.003322 0.011476 0.000788 0.000000 0.001757 0.000000
# 3 0.000129 0.000788 0.024337 0.000000 -0.010714 0.000000
# 4 0.000000 0.000000 0.000000 0.109961 0.000000 -0.031733
# 5 0.002551 0.001757 -0.010714 0.000000 0.038012 0.000000
# 6 0.000000 0.000000 0.000000 -0.031733 0.000000 0.050307
#
#
# Mechanical properties :
#
#
# Convention : Reuss Voigt Hill
#
# Bulk Modulus (GPa) = 22.53433 28.24418 25.38926
# Shear Modulus (GPa) = 18.72186 27.49052 23.10619
#
# Velocity S-wave (km/s) = 3.03851 3.68195 3.37559
# Velocity P-wave (km/s) = 4.83970 5.65721 5.26435
#
# Compressibility (1/GPa) = 0.04437673
#
# Stress axis : x y z
#
# Youngs Moduli (GPa) = 74.78038 87.13507 41.08896
#
# Poissons Ratio (x) = 0.28947 -0.00531
# Poissons Ratio (y) = 0.24843 -0.03238
# Poissons Ratio (z) = -0.00966 -0.06867
#
# Static dielectric constant tensor:
#      x y z
#    x 1.723460 0.000000 0.032290 
#    y 0.000000 1.413260 0.000000 
#    z 0.032290 0.000000 1.861170 
# 
# From -- ./inp_files/82303.got.cif
#   From: 2010.05.17/outbox.cif.g08.bks.cpg/sg15_42_cif.got.tgz:82303.got - 2010.06.03 18:47:42.
