data_PCOD9295000
_publ_section_title
;
Structure prediction by ZEFSAII (Michael W. Deem and Ramdas Pophale) SiO2 
 PCOD9295000
Probable space group: C 2/C
;
_chemical_formula_sum "Si O2"
_cell_formula_units_Z 44
_cell_length_a 18.937044
_cell_length_b 9.008268
_cell_length_c 13.368193
_cell_angle_alpha 90.000000
_cell_angle_beta 80.617832
_cell_angle_gamma 90.000000
_cell_volume 2249.973509
_symmetry_space_group_name_H-M "C 2/C"
_symmetry_group_IT_number 15
_symmetry_cell_setting 'monoclinic'
loop_
_space_group_symop_operation_xyz
x,y,z
-x,y,1/2-z
-x,-y,-z
x,-y,1/2+z
1/2+x,1/2+y,z
1/2-x,1/2+y,1/2-z
1/2-x,1/2-y,-z
1/2+x,1/2-y,1/2+z
loop_
_atom_site_type_symbol
_atom_site_label
_atom_site_fract_x
_atom_site_fract_y
_atom_site_fract_z
Si Si1 0.544100 0.862134 0.876106
Si Si2 0.827355 0.724906 0.527503
Si Si3 0.402776 0.938777 0.428933
Si Si4 0.500000 0.351757 0.750000
Si Si5 0.118870 0.639701 0.780001
Si Si6 0.959738 0.922857 0.416615
O O1 0.513259 0.701952 0.857970
O O2 0.474773 0.969250 0.885711
O O3 0.602103 0.965380 0.806886
O O4 0.572971 0.842638 0.982291
O O5 0.750000 0.750000 0.500000
O O6 0.851397 0.564735 0.482314
O O7 0.829305 0.707082 0.647993
O O8 0.887713 0.841364 0.473360
O O9 0.368742 0.858426 0.341674
O O10 0.548390 0.243405 0.806199
O O11 0.548499 0.454237 0.667723
O O12 0.000000 0.000000 0.500000
#
# Coordination Sequence:
#
# PCOD9295000 Si02
#       6
#     8   8   8   4   8   8
#     4   9  18  31  58  88 116 146 192 245 299 363
#     4  10  23  42  58  83 128 167 198 250 312 380
#     4   9  17  32  61  83 108 153 204 235 284 364
#     4  12  22  32  62  96 120 146 194 272 318 342
#     4  11  19  37  62  88 114 156 204 247 297 372
#     4  11  22  37  57  94 124 149 195 269 318 341
#
# _framework density 19.555785
#
# number of rings (size 3 to 8) (size 9 to 14) (size 15 to 20)
#    0.000    1.818    3.636    2.182    5.091    0.000 
#    3.273    0.000    0.000    3.273    0.000    0.000 
#    0.000    0.000    0.000    0.000    0.000    0.000 
#
# Total GULP energy -122487.655177 kJ/mol
# GULP energy per Si atom -5567.620690 kJ/mol
# Density = 1.951128 g / cm^3
# Si number density = 19.555785 Si / 1000 Ang^3
#
#
#
# Elastic Constant Matrix: (Units=GPa)
#
#
# Indices 1 2 3 4 5 6 
#
# 1 94.6302 23.5642 35.0245 0.0000 35.6780 0.0000
# 2 23.5642 93.4958 29.3126 0.0000 8.3044 0.0000
# 3 35.0245 29.3126 109.8334 0.0000 40.2500 0.0000
# 4 0.0000 0.0000 0.0000 28.7131 0.0000 9.5616
# 5 35.6780 8.3044 40.2500 0.0000 28.9568 0.0000
# 6 0.0000 0.0000 0.0000 9.5616 0.0000 17.2890
#
#
#
# Elastic Compliance Matrix: (Units=1/GPa)
#
#
# Indices 1 2 3 4 5 6 
#
# 1 0.023324 -0.004962 0.007942 0.000000 -0.038354 0.000000
# 2 -0.004962 0.012785 -0.005557 0.000000 0.010172 0.000000
# 3 0.007942 -0.005557 0.022537 0.000000 -0.039518 0.000000
# 4 0.000000 0.000000 0.000000 0.042689 0.000000 -0.023609
# 5 -0.038354 0.010172 -0.039518 0.000000 0.133804 0.000000
# 6 0.000000 0.000000 0.000000 -0.023609 0.000000 0.070897
#
#
# Mechanical properties :
#
#
# Convention : Reuss Voigt Hill
#
# Bulk Modulus (GPa) = 18.69441 52.64020 35.66731
# Shear Modulus (GPa) = 15.19654 28.99566 22.09610
#
# Velocity S-wave (km/s) = 2.79065 3.85478 3.36505
# Velocity P-wave (km/s) = 4.46810 6.84024 5.77723
#
# Compressibility (1/GPa) = 0.05349192
#
# Stress axis : x y z
#
# Youngs Moduli (GPa) = 42.87422 78.21612 44.37063
#
# Poissons Ratio (x) = 0.38809 -0.35238
# Poissons Ratio (y) = 0.21273 0.24659
# Poissons Ratio (z) = -0.34050 0.43468
#
# Static dielectric constant tensor:
#      x y z
#    x 1.685060 0.000000 0.009860 
#    y 0.000000 1.710970 0.000000 
#    z 0.009860 0.000000 1.772120 
# 
# From -- ./inp_files/159301.got.cif
#   From: 2010.05.17/outbox.cif.g08.bks.cpg/sg15_80_cif.got.tgz:159301.got - 2010.06.03 18:47:42.
