data_PCOD9295841
_publ_section_title
;
Structure prediction by ZEFSAII (Michael W. Deem and Ramdas Pophale) SiO2 
 PCOD9295841
Probable space group: C 2/C
;
_chemical_formula_sum "Si O2"
_cell_formula_units_Z 56
_cell_length_a 27.610955
_cell_length_b 12.274440
_cell_length_c 14.751248
_cell_angle_alpha 90.000000
_cell_angle_beta 31.517664
_cell_angle_gamma 90.000000
_cell_volume 2613.457224
_symmetry_space_group_name_H-M "C 2/C"
_symmetry_group_IT_number 15
_symmetry_cell_setting 'monoclinic'
loop_
_space_group_symop_operation_xyz
x,y,z
-x,y,1/2-z
-x,-y,-z
x,-y,1/2+z
1/2+x,1/2+y,z
1/2-x,1/2+y,1/2-z
1/2-x,1/2-y,-z
1/2+x,1/2-y,1/2+z
loop_
_atom_site_type_symbol
_atom_site_label
_atom_site_fract_x
_atom_site_fract_y
_atom_site_fract_z
Si Si1 0.500000 0.146635 0.250000
Si Si2 0.301146 0.849698 0.791126
Si Si3 0.915573 0.999228 0.201989
Si Si4 0.000000 0.081849 0.250000
Si Si5 0.869553 0.227299 0.844224
Si Si6 0.317866 0.677070 0.628167
Si Si7 0.263315 0.677012 0.388609
Si Si8 0.676119 0.995752 0.407679
O O1 0.534440 0.227271 0.273549
O O2 0.414638 0.072774 0.421393
O O3 0.330576 0.829344 0.847667
O O4 0.351614 0.761847 0.648806
O O5 0.320369 0.956993 0.701856
O O6 0.194160 0.810359 0.969160
O O7 0.871547 0.879793 0.279496
O O8 0.960258 0.015393 0.229507
O O9 0.847687 0.096955 0.280679
O O10 0.000000 0.000000 0.000000
O O11 0.908935 0.146583 0.427207
O O12 0.240526 0.734093 0.686758
O O13 0.267934 0.578352 0.758735
O O14 0.250000 0.750000 0.500000
O O15 0.189470 0.590749 0.462078
#
# Coordination Sequence:
#
# PCOD9295841 Si02
#       8
#     4   8   8   4   8   8   8   8
#     4  12  27  45  74 106 148 190 245 301 366 444
#     4  10  23  43  70  94 139 190 237 291 362 437
#     4  12  26  43  72 109 142 187 251 303 359 446
#     4  12  23  41  72 104 142 180 239 311 352 432
#     4  11  24  44  70 100 138 191 237 298 363 438
#     4  11  23  46  70 103 143 190 237 295 375 424
#     4  11  25  46  71 103 146 191 235 296 368 428
#     4  11  25  45  71 105 145 191 241 300 363 444
#
# _framework density 21.427555000000002
#
# number of rings (size 3 to 8) (size 9 to 14) (size 15 to 20)
#    0.000    0.857    2.857    3.857    4.000    4.000 
#    2.571    0.000    0.000    0.000    0.000    0.000 
#    0.000    0.000    0.000    0.000    0.000    0.000 
#
# Total GULP energy -156007.537455 kJ/mol
# GULP energy per Si atom -5571.697766 kJ/mol
# Density = 2.137879 g / cm^3
# Si number density = 21.427555 Si / 1000 Ang^3
#
#
#
# Elastic Constant Matrix: (Units=GPa)
#
#
# Indices 1 2 3 4 5 6 
#
# 1 106.6079 32.7012 22.4603 0.0000 -0.4984 0.0000
# 2 32.7012 102.7285 45.9508 0.0000 -5.1957 0.0000
# 3 22.4603 45.9508 121.2195 0.0000 -1.8833 0.0000
# 4 0.0000 0.0000 0.0000 31.1680 0.0000 4.1326
# 5 -0.4984 -5.1957 -1.8833 0.0000 26.2586 0.0000
# 6 0.0000 0.0000 0.0000 4.1326 0.0000 25.4298
#
#
#
# Elastic Compliance Matrix: (Units=1/GPa)
#
#
# Indices 1 2 3 4 5 6 
#
# 1 0.010467 -0.002991 -0.000812 0.000000 -0.000451 0.000000
# 2 -0.002991 0.012683 -0.004220 0.000000 0.002150 0.000000
# 3 -0.000812 -0.004220 0.009998 0.000000 -0.000133 0.000000
# 4 0.000000 0.000000 0.000000 0.032791 0.000000 -0.005329
# 5 -0.000451 0.002150 -0.000133 0.000000 0.038490 0.000000
# 6 0.000000 0.000000 0.000000 -0.005329 0.000000 0.040190
#
#
# Mechanical properties :
#
#
# Convention : Reuss Voigt Hill
#
# Bulk Modulus (GPa) = 58.48029 59.19785 58.83907
# Shear Modulus (GPa) = 30.05426 31.86754 30.96090
#
# Velocity S-wave (km/s) = 3.74919 3.86064 3.80532
# Velocity P-wave (km/s) = 6.78920 6.89635 6.84299
#
# Compressibility (1/GPa) = 0.01709978
#
# Stress axis : x y z
#
# Youngs Moduli (GPa) = 95.54039 78.84562 100.02316
#
# Poissons Ratio (x) = 0.23585 0.08126
# Poissons Ratio (y) = 0.28579 0.42211
# Poissons Ratio (z) = 0.07762 0.33274
#
# Static dielectric constant tensor:
#      x y z
#    x 1.887460 0.000000 0.038890 
#    y 0.000000 1.795660 0.000000 
#    z 0.038890 0.000000 1.717860 
# 
# From -- ./inp_files/181940.got.cif
#   From: 2010.05.17/outbox.cif.g08.bks.cpg/sg15_91_cif.got.tgz:181940.got - 2010.06.03 18:47:42.
