data_PCOD9295094
_publ_section_title
;
Structure prediction by ZEFSAII (Michael W. Deem and Ramdas Pophale) SiO2 
 PCOD9295094
Probable space group: C 2/C
;
_chemical_formula_sum "Si O2"
_cell_formula_units_Z 60
_cell_length_a 11.777805
_cell_length_b 22.402783
_cell_length_c 21.821863
_cell_angle_alpha 90.000000
_cell_angle_beta 145.309713
_cell_angle_gamma 90.000000
_cell_volume 3277.007043
_symmetry_space_group_name_H-M "C 2/C"
_symmetry_group_IT_number 15
_symmetry_cell_setting 'monoclinic'
loop_
_space_group_symop_operation_xyz
x,y,z
-x,y,1/2-z
-x,-y,-z
x,-y,1/2+z
1/2+x,1/2+y,z
1/2-x,1/2+y,1/2-z
1/2-x,1/2-y,-z
1/2+x,1/2-y,1/2+z
loop_
_atom_site_type_symbol
_atom_site_label
_atom_site_fract_x
_atom_site_fract_y
_atom_site_fract_z
Si Si1 0.919021 0.530409 0.825640
Si Si2 0.162914 0.412723 0.961524
Si Si3 0.250000 0.250000 0.500000
Si Si4 0.065916 0.948249 0.075585
Si Si5 0.238915 0.103441 0.854298
Si Si6 0.164560 0.363524 0.374895
Si Si7 0.119534 0.282700 0.890804
Si Si8 0.709304 0.760417 0.162039
O O1 0.750293 0.529461 0.698548
O O2 0.824789 0.554112 0.846746
O O3 0.018875 0.466704 0.879514
O O4 0.077937 0.580088 0.874362
O O5 0.104789 0.351882 0.901665
O O6 0.383544 0.430849 0.037825
O O7 0.171131 0.402705 0.038027
O O8 0.202323 0.307732 0.434712
O O9 0.493630 0.256362 0.591644
O O10 0.141759 0.889774 0.073220
O O11 0.000000 0.000000 0.000000
O O12 0.289814 0.168826 0.850960
O O13 0.000000 0.098767 0.750000
O O14 0.000000 0.348415 0.250000
O O15 0.229464 0.271510 0.874787
O O16 0.897840 0.254754 0.788933
O O17 0.250000 0.250000 0.000000
#
# Coordination Sequence:
#
# PCOD9295094 Si02
#       8
#     8   8   4   8   8   8   8   8
#     4  11  24  42  67  98 132 171 225 268 334 408
#     4  12  24  41  70  97 135 172 219 288 331 394
#     4  12  24  42  66  94 142 174 214 280 336 400
#     4  11  23  41  69  95 129 174 220 269 336 397
#     4  12  21  44  70  93 128 184 228 266 337 413
#     4  10  23  42  64  94 129 176 220 263 331 403
#     4  11  23  43  69  99 130 174 236 278 332 396
#     4  11  24  41  68 100 132 179 224 280 338 406
#
# _framework density 18.30939
#
# number of rings (size 3 to 8) (size 9 to 14) (size 15 to 20)
#    0.000    0.800    6.667    1.200    0.000    4.267 
#    0.000    0.000    0.000    0.800    0.000    0.000 
#    0.000    0.000    0.000    0.000    0.000    0.000 
#
# Total GULP energy -167150.483263 kJ/mol
# GULP energy per Si atom -5571.682775 kJ/mol
# Density = 1.826772 g / cm^3
# Si number density = 18.309390 Si / 1000 Ang^3
#
#
#
# Elastic Constant Matrix: (Units=GPa)
#
#
# Indices 1 2 3 4 5 6 
#
# 1 71.8612 35.6427 57.3518 0.0005 17.3647 0.0000
# 2 35.6427 152.1767 79.0124 0.0004 -5.7306 0.0000
# 3 57.3518 79.0124 120.1961 -0.0013 5.9072 -0.0008
# 4 0.0005 0.0004 -0.0013 32.1364 -0.0004 -5.5079
# 5 17.3647 -5.7306 5.9072 -0.0004 28.9059 -0.0002
# 6 0.0000 0.0000 -0.0008 -5.5079 -0.0002 31.0532
#
#
#
# Elastic Compliance Matrix: (Units=1/GPa)
#
#
# Indices 1 2 3 4 5 6 
#
# 1 0.027013 -0.000788 -0.011684 -0.000001 -0.013996 -0.000001
# 2 -0.000788 0.010332 -0.006606 0.000000 0.003871 0.000000
# 3 -0.011684 -0.006606 0.018139 0.000001 0.002002 0.000001
# 4 -0.000001 0.000000 0.000001 0.032093 0.000001 0.005692
# 5 -0.013996 0.003871 0.002002 0.000001 0.043361 0.000000
# 6 -0.000001 0.000000 0.000001 0.005692 0.000000 0.033212
#
#
# Mechanical properties :
#
#
# Convention : Reuss Voigt Hill
#
# Bulk Modulus (GPa) = 57.70788 76.47198 67.08993
# Shear Modulus (GPa) = 24.02909 29.90089 26.96499
#
# Velocity S-wave (km/s) = 3.62662 4.04554 3.84179
# Velocity P-wave (km/s) = 7.00879 7.97991 7.51007
#
# Compressibility (1/GPa) = 0.01732866
#
# Stress axis : x y z
#
# Youngs Moduli (GPa) = 37.01899 96.79126 55.13051
#
# Poissons Ratio (x) = 0.07624 0.64413
# Poissons Ratio (y) = 0.02916 0.36419
# Poissons Ratio (z) = 0.43252 0.63940
#
# Static dielectric constant tensor:
#      x y z
#    x 1.647120 0.000000 -0.000400 
#    y 0.000000 1.599910 0.000000 
#    z -0.000400 0.000000 1.613810 
# 
# From -- ./inp_files/240881.got.cif
#   From: 2010.05.17/outbox.cif.g08.bks.cpg/sg15_121_cif.got.tgz:240881.got - 2010.06.03 18:47:42.
