data_PCOD9295505
_publ_section_title
;
Structure prediction by ZEFSAII (Michael W. Deem and Ramdas Pophale) SiO2 
 PCOD9295505
Probable space group: C 2/C
;
_chemical_formula_sum "Si O2"
_cell_formula_units_Z 48
_cell_length_a 16.451701
_cell_length_b 8.749625
_cell_length_c 28.116003
_cell_angle_alpha 90.000000
_cell_angle_beta 29.828576
_cell_angle_gamma 90.000000
_cell_volume 2013.100486
_symmetry_space_group_name_H-M "C 2/C"
_symmetry_group_IT_number 15
_symmetry_cell_setting 'monoclinic'
loop_
_space_group_symop_operation_xyz
x,y,z
-x,y,1/2-z
-x,-y,-z
x,-y,1/2+z
1/2+x,1/2+y,z
1/2-x,1/2+y,1/2-z
1/2-x,1/2-y,-z
1/2+x,1/2-y,1/2+z
loop_
_atom_site_type_symbol
_atom_site_label
_atom_site_fract_x
_atom_site_fract_y
_atom_site_fract_z
Si Si1 0.841861 0.122909 0.805556
Si Si2 0.985738 0.793874 0.706714
Si Si3 0.660398 0.096690 0.803137
Si Si4 0.426421 0.537262 0.107615
Si Si5 0.862658 0.674545 0.005768
Si Si6 0.939809 0.228274 0.010762
O O1 0.895281 0.951457 0.765401
O O2 0.760565 0.171301 0.796547
O O3 0.702909 0.147874 0.915935
O O4 0.000000 0.197658 0.750000
O O5 0.000000 0.706706 0.750000
O O6 0.890510 0.696789 0.716422
O O7 0.170941 0.833110 0.597049
O O8 0.781873 0.974245 0.718652
O O9 0.486486 0.057471 0.916678
O O10 0.565954 0.660678 0.049054
O O11 0.374458 0.595228 0.081049
O O12 0.501377 0.367315 0.063819
O O13 0.911522 0.692057 0.036582
#
# Coordination Sequence:
#
# PCOD9295505 Si02
#       6
#     8   8   8   8   8   8
#     4  10  23  43  61  91 139 171 210 275 330 393
#     4  11  23  40  67  96 126 174 221 267 336 398
#     4  11  21  38  67  94 129 169 222 271 326 383
#     4   9  18  38  64  95 126 165 222 269 326 388
#     4   9  19  38  61  94 126 168 218 268 320 399
#     4   8  18  39  65  88 131 168 216 275 325 380
#
# _framework density 23.843817000000001
#
# number of rings (size 3 to 8) (size 9 to 14) (size 15 to 20)
#    1.000    1.333    0.000    2.500    0.000    0.000 
#    3.000   25.000    0.000    0.000    0.000    0.000 
#    0.000    0.000    0.000    0.000    0.000    0.000 
#
# Total GULP energy -133669.948758 kJ/mol
# GULP energy per Si atom -5569.581198 kJ/mol
# Density = 2.378955 g / cm^3
# Si number density = 23.843817 Si / 1000 Ang^3
#
#
#
# Elastic Constant Matrix: (Units=GPa)
#
#
# Indices 1 2 3 4 5 6 
#
# 1 131.9772 5.4286 34.6728 -0.0028 -8.2758 0.0050
# 2 5.4286 55.0617 54.5309 -0.0063 -9.8985 0.0037
# 3 34.6728 54.5309 171.7175 -0.0002 -12.7409 0.0002
# 4 -0.0028 -0.0063 -0.0002 36.6159 -0.0002 6.6455
# 5 -8.2758 -9.8985 -12.7409 -0.0002 37.8066 -0.0006
# 6 0.0050 0.0037 0.0002 6.6455 -0.0006 29.2781
#
#
#
# Elastic Compliance Matrix: (Units=1/GPa)
#
#
# Indices 1 2 3 4 5 6 
#
# 1 0.008133 0.001433 -0.001987 0.000001 0.001486 -0.000002
# 2 0.001433 0.027415 -0.008656 0.000006 0.004574 -0.000005
# 3 -0.001987 -0.008656 0.008998 -0.000002 0.000331 0.000002
# 4 0.000001 0.000006 -0.000002 0.028484 0.000001 -0.006465
# 5 0.001486 0.004574 0.000331 0.000001 0.028085 -0.000001
# 6 -0.000002 -0.000005 0.000002 -0.006465 -0.000001 0.035623
#
#
# Mechanical properties :
#
#
# Convention : Reuss Voigt Hill
#
# Bulk Modulus (GPa) = 38.27489 60.89121 49.58305
# Shear Modulus (GPa) = 30.51263 38.34841 34.43052
#
# Velocity S-wave (km/s) = 3.58115 4.01473 3.80413
# Velocity P-wave (km/s) = 5.76079 6.86176 6.33524
#
# Compressibility (1/GPa) = 0.02612679
#
# Stress axis : x y z
#
# Youngs Moduli (GPa) = 122.95050 36.47639 111.13435
#
# Poissons Ratio (x) = -0.05228 0.22084
# Poissons Ratio (y) = -0.17622 0.96197
# Poissons Ratio (z) = 0.24432 0.31574
#
# Static dielectric constant tensor:
#      x y z
#    x 1.968940 0.000000 0.040900 
#    y 0.000000 2.038920 0.000000 
#    z 0.040900 0.000000 1.960430 
# 
# From -- ./inp_files/315850.got.cif
#   From: 2010.05.17/outbox.cif.g08.bks.cpg/sg15_158_cif.got.tgz:315850.got - 2010.06.03 18:47:42.
