data_PCOD9295257
_publ_section_title
;
Structure prediction by ZEFSAII (Michael W. Deem and Ramdas Pophale) SiO2 
 PCOD9295257
Probable space group: C 2/C
;
_chemical_formula_sum "Si O2"
_cell_formula_units_Z 56
_cell_length_a 20.411948
_cell_length_b 12.984641
_cell_length_c 12.764061
_cell_angle_alpha 90.000000
_cell_angle_beta 126.681597
_cell_angle_gamma 90.000000
_cell_volume 2713.064196
_symmetry_space_group_name_H-M "C 2/C"
_symmetry_group_IT_number 15
_symmetry_cell_setting 'monoclinic'
loop_
_space_group_symop_operation_xyz
x,y,z
-x,y,1/2-z
-x,-y,-z
x,-y,1/2+z
1/2+x,1/2+y,z
1/2-x,1/2+y,1/2-z
1/2-x,1/2-y,-z
1/2+x,1/2-y,1/2+z
loop_
_atom_site_type_symbol
_atom_site_label
_atom_site_fract_x
_atom_site_fract_y
_atom_site_fract_z
Si Si1 0.702699 0.211262 0.753194
Si Si2 0.985590 0.317462 0.845603
Si Si3 0.452701 0.658758 0.429486
Si Si4 0.639261 0.046932 0.523048
Si Si5 0.559457 0.509593 0.399235
Si Si6 0.676260 0.124911 0.215756
Si Si7 0.754221 0.027471 0.944202
O O1 0.628438 0.291389 0.697844
O O2 0.678345 0.138052 0.631458
O O3 0.781196 0.277865 0.796278
O O4 0.720536 0.135713 0.867155
O O5 0.891661 0.346313 0.764728
O O6 0.000000 0.260544 0.750000
O O7 0.005009 0.249428 0.964713
O O8 0.050207 0.411590 0.905306
O O9 0.514301 0.608529 0.405941
O O10 0.433079 0.572053 0.498428
O O11 0.631956 0.947206 0.589181
O O12 0.700476 0.013880 0.489162
O O13 0.500000 0.472939 0.250000
O O14 0.649583 0.533060 0.441973
O O15 0.741986 0.054423 0.338168
#
# Coordination Sequence:
#
# PCOD9295257 Si02
#       7
#     8   8   8   8   8   8   8
#     4  10  23  42  67  96 132 173 222 273 328 392
#     4  11  21  40  66  96 125 171 221 271 330 391
#     4  10  23  43  62  97 135 173 223 271 325 397
#     4  10  24  40  65  93 132 169 218 273 326 396
#     4  11  24  41  67  96 139 175 218 273 332 392
#     4  11  22  41  65  92 132 171 213 274 330 390
#     4  11  23  42  66  99 126 174 222 270 333 391
#
# _framework density 20.640868999999999
#
# number of rings (size 3 to 8) (size 9 to 14) (size 15 to 20)
#    0.000    1.429    2.857    1.714    2.000    4.571 
#    2.571    0.000    0.000    0.000    0.000    0.000 
#    0.000    0.000    0.000    0.000    0.000    0.000 
#
# Total GULP energy -156405.916070 kJ/mol
# GULP energy per Si atom -5585.925574 kJ/mol
# Density = 2.059389 g / cm^3
# Si number density = 20.640869 Si / 1000 Ang^3
#
#
#
# Elastic Constant Matrix: (Units=GPa)
#
#
# Indices 1 2 3 4 5 6 
#
# 1 110.1845 48.5000 21.0156 0.0000 24.6107 0.0000
# 2 48.5000 96.9573 20.5523 0.0000 9.8821 0.0000
# 3 21.0156 20.5523 49.4422 0.0000 22.5254 0.0000
# 4 0.0000 0.0000 0.0000 8.4799 0.0000 4.6832
# 5 24.6107 9.8821 22.5254 0.0000 34.4171 0.0000
# 6 0.0000 0.0000 0.0000 4.6832 0.0000 16.6940
#
#
#
# Elastic Compliance Matrix: (Units=1/GPa)
#
#
# Indices 1 2 3 4 5 6 
#
# 1 0.013460 -0.006005 0.000534 0.000000 -0.008250 0.000000
# 2 -0.006005 0.013991 -0.004830 0.000000 0.003438 0.000000
# 3 0.000534 -0.004830 0.030704 0.000000 -0.019090 0.000000
# 4 0.000000 0.000000 0.000000 0.139546 0.000000 -0.039147
# 5 -0.008250 0.003438 -0.019090 0.000000 0.046461 0.000000
# 6 0.000000 0.000000 0.000000 -0.039147 0.000000 0.070884
#
#
# Mechanical properties :
#
#
# Convention : Reuss Voigt Hill
#
# Bulk Modulus (GPa) = 26.62956 48.52441 37.57698
# Shear Modulus (GPa) = 14.36098 23.01927 18.69012
#
# Velocity S-wave (km/s) = 2.64058 3.34313 3.01240
# Velocity P-wave (km/s) = 4.71447 6.20177 5.50855
#
# Compressibility (1/GPa) = 0.03755226
#
# Stress axis : x y z
#
# Youngs Moduli (GPa) = 74.29495 71.47413 32.56947
#
# Poissons Ratio (x) = 0.42921 -0.01738
# Poissons Ratio (y) = 0.44615 0.15730
# Poissons Ratio (z) = -0.03964 0.34519
#
# Static dielectric constant tensor:
#      x y z
#    x 1.707840 0.000000 -0.003030 
#    y 0.000000 1.734220 0.000000 
#    z -0.003030 0.000000 1.747470 
# 
# From -- ./inp_files/105807.got.cif
#   From: 2010.05.17/outbox.cif.g08.bks.cpg/sg15_53_cif.got.tgz:105807.got - 2010.06.03 18:47:42.
