data_PCOD9295523
_publ_section_title
;
Structure prediction by ZEFSAII (Michael W. Deem and Ramdas Pophale) SiO2 
 PCOD9295523
Probable space group: C 2/C
;
_chemical_formula_sum "Si O2"
_cell_formula_units_Z 64
_cell_length_a 21.044560
_cell_length_b 31.709563
_cell_length_c 14.944135
_cell_angle_alpha 90.000000
_cell_angle_beta 160.530150
_cell_angle_gamma 90.000000
_cell_volume 3323.917592
_symmetry_space_group_name_H-M "C 2/C"
_symmetry_group_IT_number 15
_symmetry_cell_setting 'monoclinic'
loop_
_space_group_symop_operation_xyz
x,y,z
-x,y,1/2-z
-x,-y,-z
x,-y,1/2+z
1/2+x,1/2+y,z
1/2-x,1/2+y,1/2-z
1/2-x,1/2-y,-z
1/2+x,1/2-y,1/2+z
loop_
_atom_site_type_symbol
_atom_site_label
_atom_site_fract_x
_atom_site_fract_y
_atom_site_fract_z
Si Si1 0.552328 0.205421 0.042325
Si Si2 0.687496 0.917762 0.437502
Si Si3 0.684318 0.625187 0.807770
Si Si4 0.189471 0.680727 0.939469
Si Si5 0.538558 0.453628 0.014303
Si Si6 0.427667 0.705413 0.417669
Si Si7 0.062550 0.625190 0.185977
Si Si8 0.912912 0.546370 0.888639
O O1 0.369686 0.200268 0.733817
O O2 0.533043 0.250005 0.066077
O O3 0.740240 0.205528 0.230481
O O4 0.563054 0.165525 0.122006
O O5 0.500000 0.920528 0.250000
O O6 0.731735 0.868516 0.481719
O O7 0.645514 0.939050 0.287514
O O8 0.861530 0.939037 0.719562
O O9 0.574221 0.582083 0.637012
O O10 0.554834 0.665517 0.613799
O O11 0.762486 0.625468 0.012499
O O12 0.869794 0.626981 0.989593
O O13 0.000000 0.683453 0.750000
O O14 0.358585 0.700257 0.222723
O O15 0.500000 0.500000 0.000000
O O16 0.727107 0.454672 0.204215
O O17 0.051319 0.582091 0.114067
O O18 0.000000 0.500000 0.000000
#
# Coordination Sequence:
#
# PCOD9295523 Si02
#       8
#     8   8   8   8   8   8   8   8
#     4  11  22  39  62  91 122 158 201 249 305 366
#     4  11  21  40  66  92 127 164 203 257 309 364
#     4  10  23  43  63  86 120 161 205 254 304 358
#     4   9  19  36  60  90 123 157 197 246 304 358
#     4  11  24  41  64  95 126 163 208 256 311 371
#     4  11  22  39  62  91 122 158 201 249 305 366
#     4  10  23  43  63  86 120 161 205 254 304 358
#     4  11  24  41  64  95 126 163 208 256 311 371
#
# _framework density 19.254387999999999
#
# number of rings (size 3 to 8) (size 9 to 14) (size 15 to 20)
#    0.000    1.500    2.500    2.250    1.750    2.000 
#    0.000    1.875    0.000    0.000    0.000    0.000 
#    0.000    0.000    0.000    0.000    0.000    0.000 
#
# Total GULP energy -178853.333302 kJ/mol
# GULP energy per Si atom -5589.166666 kJ/mol
# Density = 1.921056 g / cm^3
# Si number density = 19.254388 Si / 1000 Ang^3
#
#
#
# Elastic Constant Matrix: (Units=GPa)
#
#
# Indices 1 2 3 4 5 6 
#
# 1 67.6769 59.2574 44.9785 0.0000 -24.9696 0.0000
# 2 59.2574 200.3189 75.0796 0.0001 -23.6580 0.0000
# 3 44.9785 75.0796 106.1139 0.0002 -32.6931 -0.0001
# 4 0.0000 0.0001 0.0002 37.7406 0.0000 -3.3700
# 5 -24.9696 -23.6580 -32.6931 0.0000 31.2500 0.0000
# 6 0.0000 0.0000 -0.0001 -3.3700 0.0000 35.5032
#
#
#
# Elastic Compliance Matrix: (Units=1/GPa)
#
#
# Indices 1 2 3 4 5 6 
#
# 1 0.026476 -0.004885 -0.003523 0.000000 0.013771 0.000000
# 2 -0.004885 0.007696 -0.004105 0.000000 -0.002372 0.000000
# 3 -0.003523 -0.004105 0.017703 0.000000 0.012597 0.000000
# 4 0.000000 0.000000 0.000000 0.026723 0.000000 0.002537
# 5 0.013771 -0.002372 0.012597 0.000000 0.054387 0.000000
# 6 0.000000 0.000000 0.000000 0.002537 0.000000 0.028407
#
#
# Mechanical properties :
#
#
# Convention : Reuss Voigt Hill
#
# Bulk Modulus (GPa) = 37.24743 81.41562 59.33153
# Shear Modulus (GPa) = 25.59284 33.88504 29.73894
#
# Velocity S-wave (km/s) = 3.64977 4.19962 3.93431
# Velocity P-wave (km/s) = 6.09491 8.11737 7.17773
#
# Compressibility (1/GPa) = 0.02684749
#
# Stress axis : x y z
#
# Youngs Moduli (GPa) = 37.77041 129.94489 56.48783
#
# Poissons Ratio (x) = 0.63479 0.19902
# Poissons Ratio (y) = 0.18451 0.23189
# Poissons Ratio (z) = 0.13307 0.53343
#
# Static dielectric constant tensor:
#      x y z
#    x 1.658290 0.000000 0.000660 
#    y 0.000000 1.646990 0.000000 
#    z 0.000660 0.000000 1.657870 
# 
# From -- ./inp_files/170092.got.cif
#   From: 2010.05.17/outbox.cif.g08.bks.cpg/sg15_86_cif.got.tgz:170092.got - 2010.06.03 18:47:42.
