data_PCOD9295681
_publ_section_title
;
Structure prediction by ZEFSAII (Michael W. Deem and Ramdas Pophale) SiO2 
 PCOD9295681
Probable space group: C 2/C
;
_chemical_formula_sum "Si O2"
_cell_formula_units_Z 64
_cell_length_a 15.530889
_cell_length_b 27.284716
_cell_length_c 12.421671
_cell_angle_alpha 90.000000
_cell_angle_beta 38.431963
_cell_angle_gamma 90.000000
_cell_volume 3271.871311
_symmetry_space_group_name_H-M "C 2/C"
_symmetry_group_IT_number 15
_symmetry_cell_setting 'monoclinic'
loop_
_space_group_symop_operation_xyz
x,y,z
-x,y,1/2-z
-x,-y,-z
x,-y,1/2+z
1/2+x,1/2+y,z
1/2-x,1/2+y,1/2-z
1/2-x,1/2-y,-z
1/2+x,1/2-y,1/2+z
loop_
_atom_site_type_symbol
_atom_site_label
_atom_site_fract_x
_atom_site_fract_y
_atom_site_fract_z
Si Si1 0.179633 0.303442 0.949657
Si Si2 0.565532 0.925700 0.801784
Si Si3 0.380951 0.523863 0.289807
Si Si4 0.129112 0.467387 0.190787
Si Si5 0.812937 0.892946 0.687513
Si Si6 0.649068 0.204454 0.730602
Si Si7 0.557604 0.585658 0.810573
Si Si8 0.318370 0.891634 0.178876
O O1 0.244042 0.348545 0.820318
O O2 0.273271 0.255946 0.833387
O O3 0.181352 0.312733 0.076617
O O4 0.016893 0.292592 0.088643
O O5 0.500000 0.914253 0.750000
O O6 0.718284 0.906694 0.677766
O O7 0.568266 0.984611 0.808374
O O8 0.471239 0.901671 0.985286
O O9 0.500000 0.546376 0.250000
O O10 0.247620 0.513066 0.494533
O O11 0.327134 0.560597 0.252375
O O12 0.446551 0.473843 0.178902
O O13 0.196468 0.429672 0.207870
O O14 0.000000 0.444819 0.250000
O O15 0.966014 0.887047 0.489721
O O16 0.701503 0.162708 0.758743
O O17 0.500000 0.598603 0.750000
O O18 0.714942 0.597723 0.683149
#
# Coordination Sequence:
#
# PCOD9295681 Si02
#       8
#     8   8   8   8   8   8   8   8
#     4  10  23  43  67  97 126 154 189 255 318 386
#     4  11  22  38  57  87 124 166 211 253 299 354
#     4  11  22  39  57  90 130 167 206 255 304 365
#     4  11  22  35  59  91 129 160 202 255 308 370
#     4  12  22  39  65  90 121 169 212 250 306 370
#     4  10  23  43  67  96 128 151 192 250 324 380
#     4  11  24  40  58  86 129 173 216 256 291 348
#     4  12  22  38  63  91 120 169 207 252 306 369
#
# _framework density 19.560672
#
# number of rings (size 3 to 8) (size 9 to 14) (size 15 to 20)
#    0.000    1.000    1.250    7.500    3.500    0.000 
#    2.250    0.000    0.000    4.500    0.000    0.000 
#    0.000    0.000    0.000    0.000    0.000    0.000 
#
# Total GULP energy -178784.218061 kJ/mol
# GULP energy per Si atom -5587.006814 kJ/mol
# Density = 1.951615 g / cm^3
# Si number density = 19.560672 Si / 1000 Ang^3
#
#
#
# Elastic Constant Matrix: (Units=GPa)
#
#
# Indices 1 2 3 4 5 6 
#
# 1 94.6653 38.2148 6.0789 0.0000 -3.2128 0.0000
# 2 38.2148 68.1706 32.7108 0.0000 14.1581 0.0000
# 3 6.0789 32.7108 91.8065 0.0000 -2.0903 0.0001
# 4 0.0000 0.0000 0.0000 16.1452 0.0000 0.0727
# 5 -3.2128 14.1581 -2.0903 0.0000 24.1705 0.0000
# 6 0.0000 0.0000 0.0001 0.0727 0.0000 9.1267
#
#
#
# Elastic Compliance Matrix: (Units=1/GPa)
#
#
# Indices 1 2 3 4 5 6 
#
# 1 0.015765 -0.012646 0.003685 0.000000 0.009822 0.000000
# 2 -0.012646 0.031281 -0.010785 0.000000 -0.020937 0.000000
# 3 0.003685 -0.010785 0.014675 0.000000 0.008076 0.000000
# 4 0.000000 0.000000 0.000000 0.061940 0.000000 -0.000494
# 5 0.009822 -0.020937 0.008076 0.000000 0.055641 0.000000
# 6 0.000000 0.000000 0.000000 -0.000494 0.000000 0.109573
#
#
# Mechanical properties :
#
#
# Convention : Reuss Voigt Hill
#
# Bulk Modulus (GPa) = 44.98242 45.40572 45.19407
# Shear Modulus (GPa) = 14.89086 21.73098 18.31092
#
# Velocity S-wave (km/s) = 2.76210 3.33671 3.06291
# Velocity P-wave (km/s) = 5.76355 6.17317 5.97187
#
# Compressibility (1/GPa) = 0.02223091
#
# Stress axis : x y z
#
# Youngs Moduli (GPa) = 63.43129 31.96794 68.14291
#
# Poissons Ratio (x) = 0.40426 -0.25114
# Poissons Ratio (y) = 0.80214 0.73492
# Poissons Ratio (z) = -0.23377 0.34477
#
# Static dielectric constant tensor:
#      x y z
#    x 1.687470 0.000000 0.001060 
#    y 0.000000 1.643430 0.000000 
#    z 0.001060 0.000000 1.693730 
# 
# From -- ./inp_files/101303.got.cif
#   From: 2010.05.17/outbox.cif.g08.bks.cpg/sg15_51_cif.got.tgz:101303.got - 2010.06.03 18:47:42.
