data_PCOD9295173
_publ_section_title
;
Structure prediction by ZEFSAII (Michael W. Deem and Ramdas Pophale) SiO2 
 PCOD9295173
Probable space group: C 2/C
;
_chemical_formula_sum "Si O2"
_cell_formula_units_Z 48
_cell_length_a 5.242863
_cell_length_b 18.242614
_cell_length_c 21.477533
_cell_angle_alpha 90.000000
_cell_angle_beta 84.591462
_cell_angle_gamma 90.000000
_cell_volume 2045.041601
_symmetry_space_group_name_H-M "C 2/C"
_symmetry_group_IT_number 15
_symmetry_cell_setting 'monoclinic'
loop_
_space_group_symop_operation_xyz
x,y,z
-x,y,1/2-z
-x,-y,-z
x,-y,1/2+z
1/2+x,1/2+y,z
1/2-x,1/2+y,1/2-z
1/2-x,1/2-y,-z
1/2+x,1/2-y,1/2+z
loop_
_atom_site_type_symbol
_atom_site_label
_atom_site_fract_x
_atom_site_fract_y
_atom_site_fract_z
Si Si1 0.904565 0.787132 0.175364
Si Si2 0.500000 0.574629 0.750000
Si Si3 0.699844 0.661837 0.502044
Si Si4 0.229820 0.351586 0.640600
Si Si5 0.337314 0.124311 0.920024
Si Si6 0.628953 0.997041 0.182355
Si Si7 0.000000 0.198410 0.250000
O O1 0.684380 0.812006 0.131648
O O2 0.745750 0.748773 0.233752
O O3 0.044353 0.860940 0.195497
O O4 0.079924 0.725072 0.142004
O O5 0.584303 0.514556 0.800194
O O6 0.750000 0.750000 0.500000
O O7 0.685381 0.633918 0.431429
O O8 0.440909 0.634338 0.541567
O O9 0.943815 0.632562 0.534173
O O10 0.062296 0.419731 0.669982
O O11 0.449566 0.344237 0.687502
O O12 0.396604 0.052445 0.877581
O O13 0.500000 0.965362 0.250000
#
# Coordination Sequence:
#
# PCOD9295173 Si02
#       7
#     8   4   8   8   8   8   4
#     4  11  23  40  72 106 141 193 244 325 365 462
#     4  10  23  42  66 103 144 184 248 300 391 440
#     4  12  26  50  77 112 146 205 255 321 364 461
#     4  12  26  45  73 106 156 190 260 310 393 444
#     4  11  28  47  76 107 149 197 259 302 385 446
#     4  11  27  45  72 107 151 202 244 326 384 462
#     4  12  23  40  70 111 142 190 248 320 383 430
#
# _framework density 23.471405000000001
#
# number of rings (size 3 to 8) (size 9 to 14) (size 15 to 20)
#    0.000    0.667    3.333    3.000   11.667    1.333 
#    0.000    0.000    0.000    0.000    0.000    0.000 
#    0.000    0.000    0.000    0.000    0.000    0.000 
#
# Total GULP energy -133696.129594 kJ/mol
# GULP energy per Si atom -5570.672066 kJ/mol
# Density = 2.341798 g / cm^3
# Si number density = 23.471405 Si / 1000 Ang^3
#
#
#
# Elastic Constant Matrix: (Units=GPa)
#
#
# Indices 1 2 3 4 5 6 
#
# 1 82.2349 15.8218 35.2680 0.0000 5.4864 0.0000
# 2 15.8218 98.8298 27.5689 0.0000 8.7577 0.0000
# 3 35.2680 27.5689 171.5660 0.0000 16.2998 0.0000
# 4 0.0000 0.0000 0.0000 13.4133 0.0000 -1.5564
# 5 5.4864 8.7577 16.2998 0.0000 48.7747 0.0000
# 6 0.0000 0.0000 0.0000 -1.5564 0.0000 22.7556
#
#
#
# Elastic Compliance Matrix: (Units=1/GPa)
#
#
# Indices 1 2 3 4 5 6 
#
# 1 0.013542 -0.001429 -0.002514 0.000000 -0.000427 0.000000
# 2 -0.001429 0.010834 -0.001320 0.000000 -0.001344 0.000000
# 3 -0.002514 -0.001320 0.006721 0.000000 -0.001727 0.000000
# 4 0.000000 0.000000 0.000000 0.075149 0.000000 0.005140
# 5 -0.000427 -0.001344 -0.001727 0.000000 0.021369 0.000000
# 6 0.000000 0.000000 0.000000 0.005140 0.000000 0.044297
#
#
# Mechanical properties :
#
#
# Convention : Reuss Voigt Hill
#
# Bulk Modulus (GPa) = 48.60664 56.66089 52.63376
# Shear Modulus (GPa) = 26.41396 35.25354 30.83375
#
# Velocity S-wave (km/s) = 3.35829 3.87974 3.62839
# Velocity P-wave (km/s) = 5.98258 6.65302 6.32669
#
# Compressibility (1/GPa) = 0.02057332
#
# Stress axis : x y z
#
# Youngs Moduli (GPa) = 73.84618 92.29919 148.77784
#
# Poissons Ratio (x) = 0.13189 0.37396
# Poissons Ratio (y) = 0.10552 0.19632
# Poissons Ratio (z) = 0.18562 0.12180
#
# Static dielectric constant tensor:
#      x y z
#    x 1.736410 0.000000 -0.049990 
#    y 0.000000 1.879600 0.000000 
#    z -0.049990 0.000000 1.946060 
# 
# From -- ./inp_files/227379.got.cif
#   From: 2010.05.17/outbox.cif.g08.bks.cpg/sg15_114_cif.got.tgz:227379.got - 2010.06.03 18:47:42.
