data_PCOD9295383
_publ_section_title
;
Structure prediction by ZEFSAII (Michael W. Deem and Ramdas Pophale) SiO2 
 PCOD9295383
Probable space group: C 2/C
;
_chemical_formula_sum "Si O2"
_cell_formula_units_Z 32
_cell_length_a 22.196573
_cell_length_b 4.832079
_cell_length_c 10.784797
_cell_angle_alpha 90.000000
_cell_angle_beta 87.791036
_cell_angle_gamma 90.000000
_cell_volume 1155.870243
_symmetry_space_group_name_H-M "C 2/C"
_symmetry_group_IT_number 15
_symmetry_cell_setting 'monoclinic'
loop_
_space_group_symop_operation_xyz
x,y,z
-x,y,1/2-z
-x,-y,-z
x,-y,1/2+z
1/2+x,1/2+y,z
1/2-x,1/2+y,1/2-z
1/2-x,1/2-y,-z
1/2+x,1/2-y,1/2+z
loop_
_atom_site_type_symbol
_atom_site_label
_atom_site_fract_x
_atom_site_fract_y
_atom_site_fract_z
Si Si1 0.600894 0.623956 0.957546
Si Si2 0.501473 0.797521 0.382901
Si Si3 0.828320 0.559766 0.696166
Si Si4 0.305986 0.433816 0.368182
O O1 0.554454 0.429220 0.886355
O O2 0.619202 0.907551 0.886540
O O3 0.562881 0.655093 0.088002
O O4 0.662047 0.489220 0.004271
O O5 0.500000 0.938347 0.250000
O O6 0.500000 0.000000 0.500000
O O7 0.765831 0.527496 0.625583
O O8 0.829401 0.863779 0.755877
O O9 0.821224 0.370624 0.819508
#
# Coordination Sequence:
#
# PCOD9295383 Si02
#       4
#     8   8   8   8
#     4  11  25  44  73 102 147 199 259 310 378 454
#     4  11  28  48  73 109 148 202 262 321 382 444
#     4  10  23  42  70 111 150 194 241 310 381 460
#     4  10  23  42  71 109 153 191 245 305 385 457
#
# _framework density 27.684767000000001
#
# number of rings (size 3 to 8) (size 9 to 14) (size 15 to 20)
#    0.000    1.500    0.000    2.250   10.500    4.000 
#    0.000    7.500    0.000    0.000    0.000    0.000 
#    0.000    0.000    0.000    0.000    0.000    0.000 
#
# Total GULP energy -89696.858927 kJ/mol
# GULP energy per Si atom -5606.053683 kJ/mol
# Density = 2.762176 g / cm^3
# Si number density = 27.684767 Si / 1000 Ang^3
#
#
#
# Elastic Constant Matrix: (Units=GPa)
#
#
# Indices 1 2 3 4 5 6 
#
# 1 162.6027 28.3014 59.6390 0.0000 -7.3865 0.0000
# 2 28.3014 65.5127 22.9073 0.0000 -8.7562 0.0000
# 3 59.6390 22.9073 166.3614 0.0000 -1.5049 0.0000
# 4 0.0000 0.0000 0.0000 36.5656 0.0000 -9.1279
# 5 -7.3865 -8.7562 -1.5049 0.0000 53.5060 0.0000
# 6 0.0000 0.0000 0.0000 -9.1279 0.0000 44.5305
#
#
#
# Elastic Compliance Matrix: (Units=1/GPa)
#
#
# Indices 1 2 3 4 5 6 
#
# 1 0.007439 -0.002317 -0.002342 0.000000 0.000582 0.000000
# 2 -0.002317 0.017117 -0.001504 0.000000 0.002439 0.000000
# 3 -0.002342 -0.001504 0.007055 0.000000 -0.000371 0.000000
# 4 0.000000 0.000000 0.000000 0.028823 0.000000 0.005908
# 5 0.000582 0.002439 -0.000371 0.000000 0.019159 0.000000
# 6 0.000000 0.000000 0.000000 0.005908 0.000000 0.023668
#
#
# Mechanical properties :
#
#
# Convention : Reuss Voigt Hill
#
# Bulk Modulus (GPa) = 51.85830 68.46355 60.16093
# Shear Modulus (GPa) = 40.97881 45.82903 43.40392
#
# Velocity S-wave (km/s) = 3.85150 4.07306 3.96383
# Velocity P-wave (km/s) = 6.20896 6.84859 6.53660
#
# Compressibility (1/GPa) = 0.01928332
#
# Stress axis : x y z
#
# Youngs Moduli (GPa) = 134.43060 58.42128 141.75248
#
# Poissons Ratio (x) = 0.13534 0.33205
# Poissons Ratio (y) = 0.31143 0.21325
# Poissons Ratio (z) = 0.31490 0.08789
#
# Static dielectric constant tensor:
#      x y z
#    x 2.296200 0.000000 -0.094800 
#    y 0.000000 2.216550 0.000000 
#    z -0.094800 0.000000 2.138840 
# 
# From -- ./inp_files/115451.got.cif
#   From: 2010.05.17/outbox.cif.g08.bks.cpg/sg15_58_cif.got.tgz:115451.got - 2010.06.03 18:47:42.
