data_PCOD9295295
_publ_section_title
;
Structure prediction by ZEFSAII (Michael W. Deem and Ramdas Pophale) SiO2 
 PCOD9295295
Probable space group: C 2/C
;
_chemical_formula_sum "Si O2"
_cell_formula_units_Z 56
_cell_length_a 11.495116
_cell_length_b 11.481026
_cell_length_c 17.078293
_cell_angle_alpha 90.000000
_cell_angle_beta 82.183506
_cell_angle_gamma 90.000000
_cell_volume 2232.978332
_symmetry_space_group_name_H-M "C 2/C"
_symmetry_group_IT_number 15
_symmetry_cell_setting 'monoclinic'
loop_
_space_group_symop_operation_xyz
x,y,z
-x,y,1/2-z
-x,-y,-z
x,-y,1/2+z
1/2+x,1/2+y,z
1/2-x,1/2+y,1/2-z
1/2-x,1/2-y,-z
1/2+x,1/2-y,1/2+z
loop_
_atom_site_type_symbol
_atom_site_label
_atom_site_fract_x
_atom_site_fract_y
_atom_site_fract_z
Si Si1 0.131498 0.795490 0.846091
Si Si2 0.015822 0.864454 0.501712
Si Si3 0.865338 0.019453 0.747051
Si Si4 0.795253 0.134776 0.916376
Si Si5 0.028394 0.603431 0.616768
Si Si6 0.372147 0.073537 0.061378
Si Si7 0.717397 0.309644 0.376705
O O1 0.178033 0.897054 0.786633
O O2 0.228677 0.752775 0.898566
O O3 0.071644 0.674341 0.825899
O O4 0.019898 0.837615 0.906749
O O5 0.913201 0.828070 0.450360
O O6 0.147655 0.844026 0.461919
O O7 0.000000 0.000000 0.500000
O O8 0.000000 0.992570 0.750000
O O9 0.820004 0.067945 0.832885
O O10 0.850625 0.125063 0.686708
O O11 0.705391 0.038081 0.961408
O O12 0.056939 0.627227 0.519938
O O13 0.153851 0.636162 0.639500
O O14 0.970073 0.476890 0.612085
O O15 0.295632 0.170607 0.113601
#
# Coordination Sequence:
#
# PCOD9295295 Si02
#       7
#     8   8   8   8   8   8   8
#     4  11  25  44  72 100 138 178 230 295 341 417
#     4  12  22  42  68 108 133 176 232 282 346 408
#     4  12  27  46  64  99 136 184 233 275 353 428
#     4  11  26  45  68  99 139 183 228 285 352 416
#     4  10  23  42  68 108 134 175 230 283 354 414
#     4  10  23  42  69 101 140 176 224 287 347 420
#     4  12  24  39  71  97 140 181 224 285 349 411
#
# _framework density 25.078613000000001
#
# number of rings (size 3 to 8) (size 9 to 14) (size 15 to 20)
#    0.000    0.857    4.286    1.714    6.000    1.143 
#    0.000    2.143    0.000    0.000    0.000    0.000 
#    0.000    0.000    0.000    0.000    0.000    0.000 
#
# Total GULP energy -156226.828307 kJ/mol
# GULP energy per Si atom -5579.529582 kJ/mol
# Density = 2.502153 g / cm^3
# Si number density = 25.078613 Si / 1000 Ang^3
#
#
#
# Elastic Constant Matrix: (Units=GPa)
#
#
# Indices 1 2 3 4 5 6 
#
# 1 105.2503 8.4722 -5.4923 0.0000 9.5353 0.0000
# 2 8.4722 74.1371 18.1096 0.0000 14.8493 0.0000
# 3 -5.4923 18.1096 99.7986 0.0000 -8.5807 0.0000
# 4 0.0000 0.0000 0.0000 23.3194 0.0000 5.9218
# 5 9.5353 14.8493 -8.5807 0.0000 32.9314 0.0000
# 6 0.0000 0.0000 0.0000 5.9218 0.0000 34.4940
#
#
#
# Elastic Compliance Matrix: (Units=1/GPa)
#
#
# Indices 1 2 3 4 5 6 
#
# 1 0.009802 -0.000761 0.000474 0.000000 -0.002372 0.000000
# 2 -0.000761 0.016062 -0.003642 0.000000 -0.007971 0.000000
# 3 0.000474 -0.003642 0.011085 0.000000 0.004393 0.000000
# 4 0.000000 0.000000 0.000000 0.044837 0.000000 -0.007698
# 5 -0.002372 -0.007971 0.004393 0.000000 0.035792 0.000000
# 6 0.000000 0.000000 0.000000 -0.007698 0.000000 0.030312
#
#
# Mechanical properties :
#
#
# Convention : Reuss Voigt Hill
#
# Bulk Modulus (GPa) = 34.37555 35.70722 35.04138
# Shear Modulus (GPa) = 30.22158 35.35539 32.78848
#
# Velocity S-wave (km/s) = 3.47518 3.75878 3.61976
# Velocity P-wave (km/s) = 5.46255 5.75386 5.61010
#
# Compressibility (1/GPa) = 0.02909044
#
# Stress axis : x y z
#
# Youngs Moduli (GPa) = 102.02015 62.26016 90.21346
#
# Poissons Ratio (x) = 0.04737 -0.04272
# Poissons Ratio (y) = 0.07762 0.32854
# Poissons Ratio (z) = -0.04831 0.22674
#
# Static dielectric constant tensor:
#      x y z
#    x 1.866030 0.000000 -0.020350 
#    y 0.000000 1.982020 0.000000 
#    z -0.020350 0.000000 2.002720 
# 
# From -- ./inp_files/237521.got.cif
#   From: 2010.05.17/outbox.cif.g08.bks.cpg/sg15_119_cif.got.tgz:237521.got - 2010.06.03 18:47:42.
