data_PCOD9295166
_publ_section_title
;
Structure prediction by ZEFSAII (Michael W. Deem and Ramdas Pophale) SiO2 
 PCOD9295166
Probable space group: C 2/C
;
_chemical_formula_sum "Si O2"
_cell_formula_units_Z 40
_cell_length_a 11.837330
_cell_length_b 8.470369
_cell_length_c 16.031932
_cell_angle_alpha 90.000000
_cell_angle_beta 69.387325
_cell_angle_gamma 90.000000
_cell_volume 1504.559249
_symmetry_space_group_name_H-M "C 2/C"
_symmetry_group_IT_number 15
_symmetry_cell_setting 'monoclinic'
loop_
_space_group_symop_operation_xyz
x,y,z
-x,y,1/2-z
-x,-y,-z
x,-y,1/2+z
1/2+x,1/2+y,z
1/2-x,1/2+y,1/2-z
1/2-x,1/2-y,-z
1/2+x,1/2-y,1/2+z
loop_
_atom_site_type_symbol
_atom_site_label
_atom_site_fract_x
_atom_site_fract_y
_atom_site_fract_z
Si Si1 0.519037 0.203514 0.146565
Si Si2 0.180410 0.806600 0.418861
Si Si3 0.499679 0.856208 0.416512
Si Si4 0.782268 0.842192 0.603059
Si Si5 0.616019 0.655634 0.247331
O O1 0.500000 0.173974 0.250000
O O2 0.423552 0.316498 0.126468
O O3 0.500330 0.040280 0.100089
O O4 0.660276 0.243813 0.109555
O O5 0.120029 0.709907 0.509657
O O6 0.293067 0.718265 0.346492
O O7 0.206518 0.985627 0.439576
O O8 0.608586 0.777198 0.440308
O O9 0.535796 0.784672 0.317834
O O10 0.792604 0.887620 0.699992
O O11 0.500000 0.546759 0.250000
#
# Coordination Sequence:
#
# PCOD9295166 Si02
#       5
#     8   8   8   8   8
#     4  12  23  45  71  99 141 182 225 288 339 405
#     4  12  24  46  73 102 136 186 229 276 354 401
#     4  10  24  45  69 104 139 179 230 282 340 410
#     4  10  25  44  67 101 137 176 232 282 333 408
#     4  10  23  42  66 100 135 177 228 278 331 404
#
# _framework density 26.585861000000001
#
# number of rings (size 3 to 8) (size 9 to 14) (size 15 to 20)
#    1.200    0.000    2.000    4.200    0.000    4.800 
#    3.600    0.000    0.000    0.000    0.000    0.000 
#    0.000    0.000    0.000    0.000    0.000    0.000 
#
# Total GULP energy -111755.424790 kJ/mol
# GULP energy per Si atom -5587.771239 kJ/mol
# Density = 2.652535 g / cm^3
# Si number density = 26.585861 Si / 1000 Ang^3
#
#
#
# Elastic Constant Matrix: (Units=GPa)
#
#
# Indices 1 2 3 4 5 6 
#
# 1 201.6980 16.6555 49.3745 0.0000 -17.5659 0.0000
# 2 16.6555 63.9542 44.7987 0.0000 -6.7987 0.0000
# 3 49.3745 44.7987 167.7467 0.0000 -13.7420 0.0000
# 4 0.0000 0.0000 0.0000 31.1912 0.0000 5.5850
# 5 -17.5659 -6.7987 -13.7420 0.0000 61.6973 0.0000
# 6 0.0000 0.0000 0.0000 5.5850 0.0000 34.2612
#
#
#
# Elastic Compliance Matrix: (Units=1/GPa)
#
#
# Indices 1 2 3 4 5 6 
#
# 1 0.005435 -0.000291 -0.001424 0.000000 0.001198 0.000000
# 2 -0.000291 0.019310 -0.004995 0.000000 0.000933 0.000000
# 3 -0.001424 -0.004995 0.007778 0.000000 0.000777 0.000000
# 4 0.000000 0.000000 0.000000 0.033024 0.000000 -0.005383
# 5 0.001198 0.000933 0.000777 0.000000 0.016825 0.000000
# 6 0.000000 0.000000 0.000000 -0.005383 0.000000 0.030065
#
#
# Mechanical properties :
#
#
# Convention : Reuss Voigt Hill
#
# Bulk Modulus (GPa) = 52.34563 72.78403 62.56483
# Shear Modulus (GPa) = 37.81456 46.93460 42.37458
#
# Velocity S-wave (km/s) = 3.77550 4.20622 3.99667
# Velocity P-wave (km/s) = 6.22398 7.14326 6.69941
#
# Compressibility (1/GPa) = 0.01910379
#
# Stress axis : x y z
#
# Youngs Moduli (GPa) = 183.99876 51.78685 128.56640
#
# Poissons Ratio (x) = 0.01505 0.18307
# Poissons Ratio (y) = 0.05347 0.64219
# Poissons Ratio (z) = 0.26200 0.25868
#
# Static dielectric constant tensor:
#      x y z
#    x 2.337660 0.000000 0.218830 
#    y 0.000000 2.016800 0.000000 
#    z 0.218830 0.000000 2.244980 
# 
# From -- ./inp_files/202491.got.cif
#   From: 2010.05.17/outbox.cif.g08.bks.cpg/sg15_102_cif.got.tgz:202491.got - 2010.06.03 18:47:42.
