data_PCOD9295840
_publ_section_title
;
Structure prediction by ZEFSAII (Michael W. Deem and Ramdas Pophale) SiO2 
 PCOD9295840
Probable space group: C 2/C
;
_chemical_formula_sum "Si O2"
_cell_formula_units_Z 64
_cell_length_a 31.093945
_cell_length_b 14.704798
_cell_length_c 9.152184
_cell_angle_alpha 90.000000
_cell_angle_beta 40.666976
_cell_angle_gamma 90.000000
_cell_volume 2726.977648
_symmetry_space_group_name_H-M "C 2/C"
_symmetry_group_IT_number 15
_symmetry_cell_setting 'monoclinic'
loop_
_space_group_symop_operation_xyz
x,y,z
-x,y,1/2-z
-x,-y,-z
x,-y,1/2+z
1/2+x,1/2+y,z
1/2-x,1/2+y,1/2-z
1/2-x,1/2-y,-z
1/2+x,1/2-y,1/2+z
loop_
_atom_site_type_symbol
_atom_site_label
_atom_site_fract_x
_atom_site_fract_y
_atom_site_fract_z
Si Si1 0.247516 0.286008 0.172198
Si Si2 0.668919 0.991230 0.590049
Si Si3 0.026962 0.243952 0.542989
Si Si4 0.424716 0.439880 0.999496
Si Si5 0.194674 0.367071 0.767137
Si Si6 0.063768 0.731372 0.482070
Si Si7 0.114781 0.616099 0.990285
Si Si8 0.627586 0.402153 0.663654
O O1 0.269600 0.218504 0.246098
O O2 0.173204 0.316374 0.387942
O O3 0.250000 0.250000 0.000000
O O4 0.297873 0.369410 0.023915
O O5 0.714335 0.917910 0.563323
O O6 0.609397 0.944682 0.650299
O O7 0.697811 0.058842 0.391727
O O8 0.641717 0.049792 0.793798
O O9 0.063192 0.325217 0.532713
O O10 0.079385 0.185409 0.314601
O O11 0.000000 0.185108 0.750000
O O12 0.968417 0.282994 0.594370
O O13 0.500000 0.448581 0.750000
O O14 0.416272 0.337645 0.080904
O O15 0.380266 0.442927 0.973757
O O16 0.400890 0.520242 0.161109
O O17 0.122360 0.327820 0.902834
O O18 0.000000 0.723006 0.750000
#
# Coordination Sequence:
#
# PCOD9295840 Si02
#       8
#     8   8   8   8   8   8   8   8
#     4  12  23  44  74  92 138 182 226 278 347 422
#     4  10  23  43  70  94 135 169 229 287 337 400
#     4  12  24  41  68  99 134 181 229 280 345 414
#     4  11  23  40  65  97 138 177 223 276 337 409
#     4  11  22  45  67  98 129 181 222 282 348 404
#     4  11  21  41  67  93 136 181 221 274 343 411
#     4  11  24  46  69 100 134 186 227 286 350 402
#     4  12  24  42  63  99 131 180 223 274 342 405
#
# _framework density 23.469206
#
# number of rings (size 3 to 8) (size 9 to 14) (size 15 to 20)
#    0.000    0.750    6.250    2.250    1.750    1.500 
#    0.000   12.500    0.000    0.000    0.000    0.000 
#    0.000    0.000    0.000    0.000    0.000    0.000 
#
# Total GULP energy -178542.228447 kJ/mol
# GULP energy per Si atom -5579.444639 kJ/mol
# Density = 2.341579 g / cm^3
# Si number density = 23.469206 Si / 1000 Ang^3
#
#
#
# Elastic Constant Matrix: (Units=GPa)
#
#
# Indices 1 2 3 4 5 6 
#
# 1 158.7328 43.8478 25.4769 0.0000 22.3945 0.0000
# 2 43.8478 83.2797 11.3334 0.0000 3.0035 0.0000
# 3 25.4769 11.3334 17.7733 0.0000 1.5539 0.0000
# 4 0.0000 0.0000 0.0000 16.2412 0.0000 10.3957
# 5 22.3945 3.0035 1.5539 0.0000 44.5958 0.0000
# 6 0.0000 0.0000 0.0000 10.3957 0.0000 17.3716
#
#
#
# Elastic Compliance Matrix: (Units=1/GPa)
#
#
# Indices 1 2 3 4 5 6 
#
# 1 0.009644 -0.003389 -0.011295 0.000000 -0.004221 0.000000
# 2 -0.003389 0.014355 -0.004374 0.000000 0.000887 0.000000
# 3 -0.011295 -0.004374 0.074950 0.000000 0.003355 0.000000
# 4 0.000000 0.000000 0.000000 0.099800 0.000000 -0.059724
# 5 -0.004221 0.000887 0.003355 0.000000 0.024367 0.000000
# 6 0.000000 0.000000 0.000000 -0.059724 0.000000 0.093306
#
#
# Mechanical properties :
#
#
# Convention : Reuss Voigt Hill
#
# Bulk Modulus (GPa) = 16.43787 46.78912 31.61349
# Shear Modulus (GPa) = 13.33990 27.58356 20.46173
#
# Velocity S-wave (km/s) = 2.38670 3.43200 2.95592
# Velocity P-wave (km/s) = 3.82287 5.97365 5.01492
#
# Compressibility (1/GPa) = 0.06083513
#
# Stress axis : x y z
#
# Youngs Moduli (GPa) = 103.68809 69.66167 13.34216
#
# Poissons Ratio (x) = 0.23605 0.15070
# Poissons Ratio (y) = 0.35135 0.05836
# Poissons Ratio (z) = 1.17113 0.30470
#
# Static dielectric constant tensor:
#      x y z
#    x 1.821410 0.000000 -0.065570 
#    y 0.000000 1.930260 0.000000 
#    z -0.065570 0.000000 2.119020 
# 
# From -- ./inp_files/70142.got.cif
#   From: 2010.05.17/outbox.cif.g08.bks.cpg/sg15_36_cif.got.tgz:70142.got - 2010.06.03 18:47:42.
