data_PCOD9295184
_publ_section_title
;
Structure prediction by ZEFSAII (Michael W. Deem and Ramdas Pophale) SiO2 
 PCOD9295184
Probable space group: C 2/C
;
_chemical_formula_sum "Si O2"
_cell_formula_units_Z 48
_cell_length_a 15.734988
_cell_length_b 27.477967
_cell_length_c 9.770668
_cell_angle_alpha 90.000000
_cell_angle_beta 35.728302
_cell_angle_gamma 90.000000
_cell_volume 2466.863908
_symmetry_space_group_name_H-M "C 2/C"
_symmetry_group_IT_number 15
_symmetry_cell_setting 'monoclinic'
loop_
_space_group_symop_operation_xyz
x,y,z
-x,y,1/2-z
-x,-y,-z
x,-y,1/2+z
1/2+x,1/2+y,z
1/2-x,1/2+y,1/2-z
1/2-x,1/2-y,-z
1/2+x,1/2-y,1/2+z
loop_
_atom_site_type_symbol
_atom_site_label
_atom_site_fract_x
_atom_site_fract_y
_atom_site_fract_z
Si Si1 0.364425 0.362249 0.997760
Si Si2 0.080961 0.967969 0.503613
Si Si3 0.291863 0.304737 0.631750
Si Si4 0.336336 0.115304 0.999585
Si Si5 0.883047 0.208822 0.700803
Si Si6 0.395480 0.996313 0.508563
O O1 0.433516 0.409873 0.979189
O O2 0.311266 0.328164 0.186984
O O3 0.500000 0.335258 0.750000
O O4 0.255507 0.378341 0.020527
O O5 0.250185 0.976994 0.249835
O O6 0.000000 0.000000 0.500000
O O7 0.000000 0.982581 0.750000
O O8 0.228508 0.351603 0.793784
O O9 0.175390 0.261069 0.772294
O O10 0.441288 0.291384 0.516789
O O11 0.333845 0.308859 0.416345
O O12 0.346841 0.058475 0.029301
O O13 0.500000 0.131160 0.750000
O O14 0.500000 0.000000 0.500000
O O15 0.500000 0.015612 0.250000
#
# Coordination Sequence:
#
# PCOD9295184 Si02
#       6
#     8   8   8   8   8   8
#     4  11  22  42  62  94 128 164 211 265 313 371
#     4  11  23  39  63  93 124 163 211 264 315 373
#     4  10  23  43  64  95 128 165 207 259 320 374
#     4  11  24  42  64  91 129 168 213 260 313 378
#     4  10  23  42  66  93 130 163 207 263 313 383
#     4  11  23  43  63  90 130 171 213 263 318 380
#
# _framework density 19.457903999999999
#
# number of rings (size 3 to 8) (size 9 to 14) (size 15 to 20)
#    0.000    1.333    1.667    5.000    2.333    4.000 
#    0.000    0.000    0.000    0.000    0.000    0.000 
#    0.000    0.000    0.000    0.000    0.000    0.000 
#
# Total GULP energy -133705.399724 kJ/mol
# GULP energy per Si atom -5571.058322 kJ/mol
# Density = 1.941362 g / cm^3
# Si number density = 19.457904 Si / 1000 Ang^3
#
#
#
# Elastic Constant Matrix: (Units=GPa)
#
#
# Indices 1 2 3 4 5 6 
#
# 1 66.3255 0.7561 -5.3067 0.0001 5.2784 0.0000
# 2 0.7561 39.7376 7.4566 0.0000 12.0373 0.0000
# 3 -5.3067 7.4566 93.7794 0.0001 -9.9062 0.0000
# 4 0.0001 0.0000 0.0001 70.6811 -0.0001 -4.6258
# 5 5.2784 12.0373 -9.9062 -0.0001 36.5602 0.0000
# 6 0.0000 0.0000 0.0000 -4.6258 0.0000 29.5283
#
#
#
# Elastic Compliance Matrix: (Units=1/GPa)
#
#
# Indices 1 2 3 4 5 6 
#
# 1 0.015293 0.000233 0.000623 0.000000 -0.002116 0.000000
# 2 0.000233 0.028978 -0.003400 0.000000 -0.010496 0.000000
# 3 0.000623 -0.003400 0.011404 0.000000 0.004119 0.000000
# 4 0.000000 0.000000 0.000000 0.014295 0.000000 0.002239
# 5 -0.002116 -0.010496 0.004119 0.000000 0.032229 0.000000
# 6 0.000000 0.000000 0.000000 0.002239 0.000000 0.034217
#
#
# Mechanical properties :
#
#
# Convention : Reuss Voigt Hill
#
# Bulk Modulus (GPa) = 19.76748 22.85050 21.30899
# Shear Modulus (GPa) = 31.57267 40.48300 36.02783
#
# Velocity S-wave (km/s) = 4.03254 4.56625 4.30767
# Velocity P-wave (km/s) = 5.64473 6.29046 5.97632
#
# Compressibility (1/GPa) = 0.05058813
#
# Stress axis : x y z
#
# Youngs Moduli (GPa) = 65.39042 34.50898 87.68826
#
# Poissons Ratio (x) = -0.00804 -0.05466
# Poissons Ratio (y) = -0.01523 0.29811
# Poissons Ratio (z) = -0.04076 0.11732
#
# Static dielectric constant tensor:
#      x y z
#    x 1.675230 0.000000 -0.001600 
#    y 0.000000 1.662360 0.000000 
#    z -0.001600 0.000000 1.715770 
# 
# From -- ./inp_files/43839.got.cif
#   From: 2010.05.17/outbox.cif.g08.bks.cpg/sg15_22_cif.got.tgz:43839.got - 2010.06.03 18:47:42.
