data_PCOD9295985
_publ_section_title
;
Structure prediction by ZEFSAII (Michael W. Deem and Ramdas Pophale) SiO2 
 PCOD9295985
Probable space group: C 2/C
;
_chemical_formula_sum "Si O2"
_cell_formula_units_Z 64
_cell_length_a 28.367518
_cell_length_b 8.121277
_cell_length_c 14.606421
_cell_angle_alpha 90.000000
_cell_angle_beta 71.598077
_cell_angle_gamma 90.000000
_cell_volume 3192.964539
_symmetry_space_group_name_H-M "C 2/C"
_symmetry_group_IT_number 15
_symmetry_cell_setting 'monoclinic'
loop_
_space_group_symop_operation_xyz
x,y,z
-x,y,1/2-z
-x,-y,-z
x,-y,1/2+z
1/2+x,1/2+y,z
1/2-x,1/2+y,1/2-z
1/2-x,1/2-y,-z
1/2+x,1/2-y,1/2+z
loop_
_atom_site_type_symbol
_atom_site_label
_atom_site_fract_x
_atom_site_fract_y
_atom_site_fract_z
Si Si1 0.693515 0.596024 0.452982
Si Si2 0.190282 0.087807 0.767321
Si Si3 0.799491 0.594572 0.646189
Si Si4 0.120133 0.017930 0.147683
Si Si5 0.441557 0.815994 0.772347
Si Si6 0.892991 0.375928 0.405439
Si Si7 0.617212 0.117760 0.368159
Si Si8 0.720327 0.084109 0.506516
O O1 0.693969 0.534066 0.349614
O O2 0.684325 0.788106 0.447163
O O3 0.649994 0.511801 0.535571
O O4 0.745527 0.554076 0.468242
O O5 0.246621 0.151429 0.717003
O O6 0.163488 0.996666 0.698525
O O7 0.153403 0.232954 0.818064
O O8 0.848420 0.544950 0.671027
O O9 0.784301 0.432776 0.599569
O O10 0.084729 0.859837 0.187497
O O11 0.095278 0.197948 0.148952
O O12 0.500000 0.798543 0.750000
O O13 0.427318 0.866178 0.676678
O O14 0.421682 0.967102 0.847144
O O15 0.897068 0.372609 0.515063
O O16 0.834540 0.403147 0.420472
O O17 0.750000 0.250000 0.500000
#
# Coordination Sequence:
#
# PCOD9295985 Si02
#       8
#     8   8   8   8   8   8   8   8
#     4  12  22  36  60  92 139 176 221 256 329 404
#     4  11  22  35  58  94 136 177 216 264 315 407
#     4  11  22  33  57  93 132 183 216 262 319 395
#     4  11  23  44  67  97 135 173 224 277 337 402
#     4  11  28  49  72  98 129 172 236 299 341 393
#     4  11  23  44  71  96 138 178 217 280 343 406
#     4  10  23  44  63  97 135 172 227 276 333 408
#     4  11  20  36  58  91 138 176 211 256 324 403
#
# _framework density 20.044069
#
# number of rings (size 3 to 8) (size 9 to 14) (size 15 to 20)
#    0.000    1.000    3.750    3.375    7.000    1.000 
#    0.000    0.625    0.000    0.000    0.000    0.000 
#    0.000    0.000    0.000    0.000    0.000    0.000 
#
# Total GULP energy -178507.250856 kJ/mol
# GULP energy per Si atom -5578.351589 kJ/mol
# Density = 1.999845 g / cm^3
# Si number density = 20.044069 Si / 1000 Ang^3
#
#
#
# Elastic Constant Matrix: (Units=GPa)
#
#
# Indices 1 2 3 4 5 6 
#
# 1 132.8457 41.4055 32.3216 0.0000 3.6449 0.0000
# 2 41.4055 83.1452 29.5985 0.0000 -0.7087 0.0000
# 3 32.3216 29.5985 67.7603 0.0000 9.5622 0.0000
# 4 0.0000 0.0000 0.0000 33.9623 0.0000 1.5940
# 5 3.6449 -0.7087 9.5622 0.0000 25.9861 0.0000
# 6 0.0000 0.0000 0.0000 1.5940 0.0000 18.1341
#
#
#
# Elastic Compliance Matrix: (Units=1/GPa)
#
#
# Indices 1 2 3 4 5 6 
#
# 1 0.009365 -0.003666 -0.002812 0.000000 -0.000379 0.000000
# 2 -0.003666 0.015876 -0.005611 0.000000 0.003012 0.000000
# 3 -0.002812 -0.005611 0.019531 0.000000 -0.006945 0.000000
# 4 0.000000 0.000000 0.000000 0.029566 0.000000 -0.002599
# 5 -0.000379 0.003012 -0.006945 0.000000 0.041173 0.000000
# 6 0.000000 0.000000 0.000000 -0.002599 0.000000 0.055373
#
#
# Mechanical properties :
#
#
# Convention : Reuss Voigt Hill
#
# Bulk Modulus (GPa) = 48.56109 54.48915 51.52512
# Shear Modulus (GPa) = 24.76151 27.64486 26.20319
#
# Velocity S-wave (km/s) = 3.51857 3.71779 3.61955
# Velocity P-wave (km/s) = 6.38646 6.75818 6.57495
#
# Compressibility (1/GPa) = 0.02059262
#
# Stress axis : x y z
#
# Youngs Moduli (GPa) = 106.78447 62.98898 51.20178
#
# Poissons Ratio (x) = 0.23089 0.14400
# Poissons Ratio (y) = 0.39143 0.28731
# Poissons Ratio (z) = 0.30031 0.35345
#
# Static dielectric constant tensor:
#      x y z
#    x 1.722870 0.000000 0.030980 
#    y 0.000000 1.882430 0.000000 
#    z 0.030980 0.000000 1.743020 
# 
# From -- ./inp_files/176558.got.cif
#   From: 2010.05.17/outbox.cif.g08.bks.cpg/sg15_89_cif.got.tgz:176558.got - 2010.06.03 18:47:42.
