data_PCOD9295839
_publ_section_title
;
Structure prediction by ZEFSAII (Michael W. Deem and Ramdas Pophale) SiO2 
 PCOD9295839
Probable space group: C 2/C
;
_chemical_formula_sum "Si O2"
_cell_formula_units_Z 40
_cell_length_a 15.840962
_cell_length_b 6.698833
_cell_length_c 18.286389
_cell_angle_alpha 90.000000
_cell_angle_beta 66.523265
_cell_angle_gamma 90.000000
_cell_volume 1779.848669
_symmetry_space_group_name_H-M "C 2/C"
_symmetry_group_IT_number 15
_symmetry_cell_setting 'monoclinic'
loop_
_space_group_symop_operation_xyz
x,y,z
-x,y,1/2-z
-x,-y,-z
x,-y,1/2+z
1/2+x,1/2+y,z
1/2-x,1/2+y,1/2-z
1/2-x,1/2-y,-z
1/2+x,1/2-y,1/2+z
loop_
_atom_site_type_symbol
_atom_site_label
_atom_site_fract_x
_atom_site_fract_y
_atom_site_fract_z
Si Si1 0.773542 0.454710 0.333113
Si Si2 0.866404 0.103825 0.233893
Si Si3 0.679825 0.655551 0.611062
Si Si4 0.464968 0.575722 0.434293
Si Si5 0.321046 0.156405 0.033094
O O1 0.808741 0.610326 0.381217
O O2 0.722775 0.575314 0.286905
O O3 0.855904 0.318975 0.275151
O O4 0.698442 0.298298 0.390289
O O5 0.860561 0.941451 0.300452
O O6 0.955296 0.087010 0.152958
O O7 0.613466 0.573088 0.570555
O O8 0.781801 0.560324 0.565048
O O9 0.500000 0.500000 0.500000
O O10 0.419547 0.792537 0.466180
O O11 0.250000 0.250000 0.000000
#
# Coordination Sequence:
#
# PCOD9295839 Si02
#       5
#     8   8   8   8   8
#     4  11  21  41  71  93 126 184 226 266 334 403
#     4  11  22  41  69  97 133 178 228 272 329 400
#     4  10  23  43  70  94 134 180 221 268 332 401
#     4  11  22  42  68 101 138 167 221 287 330 387
#     4   9  21  41  66  92 132 168 217 269 339 394
#
# _framework density 22.473821999999998
#
# number of rings (size 3 to 8) (size 9 to 14) (size 15 to 20)
#    0.000    1.600    4.000    0.600    0.000    3.200 
#    0.000   15.000    0.000    0.000    0.000    0.000 
#    0.000    0.000    0.000    0.000    0.000    0.000 
#
# Total GULP energy -111811.999564 kJ/mol
# GULP energy per Si atom -5590.599978 kJ/mol
# Density = 2.242267 g / cm^3
# Si number density = 22.473822 Si / 1000 Ang^3
#
#
#
# Elastic Constant Matrix: (Units=GPa)
#
#
# Indices 1 2 3 4 5 6 
#
# 1 67.7985 24.1817 34.8805 0.0001 -5.2256 0.0002
# 2 24.1817 108.8048 27.5277 0.0002 -8.7488 0.0006
# 3 34.8805 27.5277 120.7519 -0.0001 -14.5694 0.0000
# 4 0.0001 0.0002 -0.0001 36.0347 0.0001 3.4916
# 5 -5.2256 -8.7488 -14.5694 0.0001 43.5138 0.0002
# 6 0.0002 0.0006 0.0000 3.4916 0.0002 17.8152
#
#
#
# Elastic Compliance Matrix: (Units=1/GPa)
#
#
# Indices 1 2 3 4 5 6 
#
# 1 0.018131 -0.002866 -0.004576 0.000000 0.000069 0.000000
# 2 -0.002866 0.010274 -0.001361 0.000000 0.001266 0.000000
# 3 -0.004576 -0.001361 0.010227 0.000000 0.002601 0.000000
# 4 0.000000 0.000000 0.000000 0.028288 0.000000 -0.005544
# 5 0.000069 0.001266 0.002601 0.000000 0.024115 0.000000
# 6 0.000000 0.000000 0.000000 -0.005544 0.000000 0.057219
#
#
# Mechanical properties :
#
#
# Convention : Reuss Voigt Hill
#
# Bulk Modulus (GPa) = 47.56095 52.28167 49.92131
# Shear Modulus (GPa) = 28.92345 33.52375 31.22360
#
# Velocity S-wave (km/s) = 3.59135 3.86642 3.73142
# Velocity P-wave (km/s) = 6.19724 6.57618 6.38952
#
# Compressibility (1/GPa) = 0.02102565
#
# Stress axis : x y z
#
# Youngs Moduli (GPa) = 55.15315 97.33256 97.77680
#
# Poissons Ratio (x) = 0.27900 0.44739
# Poissons Ratio (y) = 0.15809 0.13312
# Poissons Ratio (z) = 0.25236 0.13251
#
# Static dielectric constant tensor:
#      x y z
#    x 1.835030 0.000000 -0.008530 
#    y 0.000000 1.846570 0.000000 
#    z -0.008530 0.000000 1.916690 
# 
# From -- ./inp_files/195608.got.cif
#   From: 2010.05.17/outbox.cif.g08.bks.cpg/sg15_98_cif.got.tgz:195608.got - 2010.06.03 18:47:42.
