data_PCOD9295008
_publ_section_title
;
Structure prediction by ZEFSAII (Michael W. Deem and Ramdas Pophale) SiO2 
 PCOD9295008
Probable space group: C 2/C
;
_chemical_formula_sum "Si O2"
_cell_formula_units_Z 48
_cell_length_a 15.624169
_cell_length_b 18.930459
_cell_length_c 11.268682
_cell_angle_alpha 90.000000
_cell_angle_beta 140.667894
_cell_angle_gamma 90.000000
_cell_volume 2112.483359
_symmetry_space_group_name_H-M "C 2/C"
_symmetry_group_IT_number 15
_symmetry_cell_setting 'monoclinic'
loop_
_space_group_symop_operation_xyz
x,y,z
-x,y,1/2-z
-x,-y,-z
x,-y,1/2+z
1/2+x,1/2+y,z
1/2-x,1/2+y,1/2-z
1/2-x,1/2-y,-z
1/2+x,1/2-y,1/2+z
loop_
_atom_site_type_symbol
_atom_site_label
_atom_site_fract_x
_atom_site_fract_y
_atom_site_fract_z
Si Si1 0.329938 0.091946 0.834027
Si Si2 0.117022 0.005800 0.726718
Si Si3 0.214403 0.876484 0.958499
Si Si4 0.680527 0.721433 0.805295
Si Si5 0.500000 0.372304 0.250000
Si Si6 0.422271 0.161443 0.475750
Si Si7 0.000000 0.240719 0.250000
O O1 0.260359 0.024862 0.820665
O O2 0.277961 0.090797 0.643648
O O3 0.269686 0.161876 0.835115
O O4 0.490365 0.102665 0.997727
O O5 0.103228 0.067629 0.811274
O O6 0.116194 0.931738 0.790498
O O7 0.000000 0.000000 0.500000
O O8 0.325343 0.862880 0.976897
O O9 0.130368 0.807928 0.905174
O O10 0.536140 0.684229 0.684127
O O11 0.657336 0.789333 0.699824
O O12 0.750000 0.750000 0.000000
O O13 0.522849 0.212953 0.657093
#
# Coordination Sequence:
#
# PCOD9295008 Si02
#       7
#     8   8   8   8   4   8   4
#     4  11  23  44  66  99 136 177 223 280 340 404
#     4  11  25  42  68  94 128 180 232 279 331 397
#     4  12  24  42  69  98 134 177 225 283 332 409
#     4  11  24  41  67  98 138 177 217 272 345 415
#     4  10  23  42  60  92 125 166 220 276 316 392
#     4  12  24  41  69 103 137 171 220 280 351 412
#     4  12  21  40  68 104 131 166 222 278 348 400
#
# _framework density 22.722073000000002
#
# number of rings (size 3 to 8) (size 9 to 14) (size 15 to 20)
#    0.000    0.667    3.333    5.000    4.667    0.667 
#    0.000    0.000    0.000    0.000    0.000    0.000 
#    0.000    0.000    0.000    0.000    0.000    0.000 
#
# Total GULP energy -133838.839128 kJ/mol
# GULP energy per Si atom -5576.618297 kJ/mol
# Density = 2.267036 g / cm^3
# Si number density = 22.722073 Si / 1000 Ang^3
#
#
#
# Elastic Constant Matrix: (Units=GPa)
#
#
# Indices 1 2 3 4 5 6 
#
# 1 139.2421 16.1559 -0.6652 0.0000 11.8253 0.0000
# 2 16.1559 47.5803 6.7045 0.0000 -2.8388 0.0000
# 3 -0.6652 6.7045 52.0585 0.0000 -19.5739 0.0000
# 4 0.0000 0.0000 0.0000 18.7580 0.0000 10.7325
# 5 11.8253 -2.8388 -19.5739 0.0000 42.1145 0.0000
# 6 0.0000 0.0000 0.0000 10.7325 0.0000 27.0321
#
#
#
# Elastic Compliance Matrix: (Units=1/GPa)
#
#
# Indices 1 2 3 4 5 6 
#
# 1 0.007713 -0.002699 -0.000529 0.000000 -0.002593 0.000000
# 2 -0.002699 0.022351 -0.002498 0.000000 0.001103 0.000000
# 3 -0.000529 -0.002498 0.023650 0.000000 0.010972 0.000000
# 4 0.000000 0.000000 0.000000 0.068980 0.000000 -0.027387
# 5 -0.002593 0.001103 0.010972 0.000000 0.029647 0.000000
# 6 0.000000 0.000000 0.000000 -0.027387 0.000000 0.047866
#
#
# Mechanical properties :
#
#
# Convention : Reuss Voigt Hill
#
# Bulk Modulus (GPa) = 23.66236 31.47458 27.56847
# Shear Modulus (GPa) = 22.14872 32.02665 27.08769
#
# Velocity S-wave (km/s) = 3.12551 3.75840 3.45647
# Velocity P-wave (km/s) = 4.84371 5.71980 5.29989
#
# Compressibility (1/GPa) = 0.04226120
#
# Stress axis : x y z
#
# Youngs Moduli (GPa) = 129.65770 44.73997 42.28408
#
# Poissons Ratio (x) = 0.12075 0.02237
# Poissons Ratio (y) = 0.34995 0.10563
# Poissons Ratio (z) = 0.06858 0.11177
#
# Static dielectric constant tensor:
#      x y z
#    x 1.852020 0.000000 0.020900 
#    y 0.000000 1.848580 0.000000 
#    z 0.020900 0.000000 1.978030 
# 
# From -- ./inp_files/100099.got.cif
#   From: 2010.05.17/outbox.cif.g08.bks.cpg/sg15_51_cif.got.tgz:100099.got - 2010.06.03 18:47:42.
