data_PCOD9295116
_publ_section_title
;
Structure prediction by ZEFSAII (Michael W. Deem and Ramdas Pophale) SiO2 
 PCOD9295116
Probable space group: C 2/C
;
_chemical_formula_sum "Si O2"
_cell_formula_units_Z 52
_cell_length_a 16.819790
_cell_length_b 19.413544
_cell_length_c 9.980954
_cell_angle_alpha 90.000000
_cell_angle_beta 135.696817
_cell_angle_gamma 90.000000
_cell_volume 2276.333582
_symmetry_space_group_name_H-M "C 2/C"
_symmetry_group_IT_number 15
_symmetry_cell_setting 'monoclinic'
loop_
_space_group_symop_operation_xyz
x,y,z
-x,y,1/2-z
-x,-y,-z
x,-y,1/2+z
1/2+x,1/2+y,z
1/2-x,1/2+y,1/2-z
1/2-x,1/2-y,-z
1/2+x,1/2-y,1/2+z
loop_
_atom_site_type_symbol
_atom_site_label
_atom_site_fract_x
_atom_site_fract_y
_atom_site_fract_z
Si Si1 0.599290 0.966427 0.266136
Si Si2 0.888722 0.745710 0.535821
Si Si3 0.000000 0.109532 0.750000
Si Si4 0.176199 0.433539 0.076399
Si Si5 0.706378 0.637847 0.417551
Si Si6 0.818234 0.799378 0.183624
Si Si7 0.882840 0.035207 0.394164
O O1 0.500000 0.942037 0.250000
O O2 0.585985 0.951193 0.088998
O O3 0.710102 0.919457 0.424952
O O4 0.631386 0.040034 0.376155
O O5 0.785723 0.696390 0.450949
O O6 0.866375 0.823495 0.559511
O O7 0.880468 0.751355 0.367873
O O8 0.000000 0.722110 0.750000
O O9 0.922892 0.157408 0.749765
O O10 0.903800 0.061106 0.568513
O O11 0.226202 0.356113 0.128629
O O12 0.279491 0.484389 0.242217
O O13 0.632484 0.602378 0.215079
O O14 0.750000 0.750000 0.000000
O O15 0.000000 0.000000 0.500000
#
# Coordination Sequence:
#
# PCOD9295116 Si02
#       7
#     8   8   4   8   8   8   8
#     4  11  23  44  71 101 142 186 243 299 359 435
#     4  11  23  42  71  97 137 189 235 286 357 436
#     4  12  24  44  66 106 134 182 232 284 370 424
#     4  11  24  45  69 107 141 188 239 303 363 430
#     4  10  23  42  65 101 134 176 240 291 344 428
#     4  12  26  46  68 100 148 183 235 298 365 436
#     4  11  23  40  72  99 140 177 230 297 360 426
#
# _framework density 22.843751999999999
#
# number of rings (size 3 to 8) (size 9 to 14) (size 15 to 20)
#    0.000    0.923    3.077    3.692    2.154    2.462 
#    4.154    0.000    0.000    0.000    0.000    0.000 
#    0.000    0.000    0.000    0.000    0.000    0.000 
#
# Total GULP energy -145129.946004 kJ/mol
# GULP energy per Si atom -5581.921000 kJ/mol
# Density = 2.279176 g / cm^3
# Si number density = 22.843752 Si / 1000 Ang^3
#
#
#
# Elastic Constant Matrix: (Units=GPa)
#
#
# Indices 1 2 3 4 5 6 
#
# 1 91.7659 11.3857 19.4292 0.0000 -0.4990 0.0000
# 2 11.3857 79.3599 40.3889 0.0000 -2.0476 0.0000
# 3 19.4292 40.3889 125.1584 0.0000 -5.5975 0.0000
# 4 0.0000 0.0000 0.0000 55.7858 0.0000 -3.4756
# 5 -0.4990 -2.0476 -5.5975 0.0000 36.2471 0.0000
# 6 0.0000 0.0000 0.0000 -3.4756 0.0000 31.3801
#
#
#
# Elastic Compliance Matrix: (Units=1/GPa)
#
#
# Indices 1 2 3 4 5 6 
#
# 1 0.011318 -0.000873 -0.001481 0.000000 -0.000122 0.000000
# 2 -0.000873 0.015145 -0.004747 0.000000 0.000111 0.000000
# 3 -0.001481 -0.004747 0.009806 0.000000 0.001226 0.000000
# 4 0.000000 0.000000 0.000000 0.018050 0.000000 0.001999
# 5 -0.000122 0.000111 0.001226 0.000000 0.027782 0.000000
# 6 0.000000 0.000000 0.000000 0.001999 0.000000 0.032089
#
#
# Mechanical properties :
#
#
# Convention : Reuss Voigt Hill
#
# Bulk Modulus (GPa) = 45.31459 48.74353 47.02906
# Shear Modulus (GPa) = 36.83284 39.68796 38.26040
#
# Velocity S-wave (km/s) = 4.01980 4.17269 4.09696
# Velocity P-wave (km/s) = 6.43622 6.67827 6.55836
#
# Compressibility (1/GPa) = 0.02206795
#
# Stress axis : x y z
#
# Youngs Moduli (GPa) = 88.35096 66.02947 101.97506
#
# Poissons Ratio (x) = 0.05767 0.15099
# Poissons Ratio (y) = 0.07717 0.48405
# Poissons Ratio (z) = 0.13082 0.31342
#
# Static dielectric constant tensor:
#      x y z
#    x 1.894000 0.000000 -0.185750 
#    y 0.000000 1.855000 0.000000 
#    z -0.185750 0.000000 2.172200 
# 
# From -- ./inp_files/50719.got.cif
#   From: 2010.05.17/outbox.cif.g08.bks.cpg/sg15_26_cif.got.tgz:50719.got - 2010.06.03 18:47:42.
