data_PCOD9295885
_publ_section_title
;
Structure prediction by ZEFSAII (Michael W. Deem and Ramdas Pophale) SiO2 
 PCOD9295885
Probable space group: C 2/C
;
_chemical_formula_sum "Si O2"
_cell_formula_units_Z 60
_cell_length_a 17.778902
_cell_length_b 22.880331
_cell_length_c 7.819675
_cell_angle_alpha 90.000000
_cell_angle_beta 69.327870
_cell_angle_gamma 90.000000
_cell_volume 2976.141095
_symmetry_space_group_name_H-M "C 2/C"
_symmetry_group_IT_number 15
_symmetry_cell_setting 'monoclinic'
loop_
_space_group_symop_operation_xyz
x,y,z
-x,y,1/2-z
-x,-y,-z
x,-y,1/2+z
1/2+x,1/2+y,z
1/2-x,1/2+y,1/2-z
1/2-x,1/2-y,-z
1/2+x,1/2-y,1/2+z
loop_
_atom_site_type_symbol
_atom_site_label
_atom_site_fract_x
_atom_site_fract_y
_atom_site_fract_z
Si Si1 0.161601 0.087614 0.483633
Si Si2 0.265272 0.814030 0.065089
Si Si3 0.566020 0.668751 0.339558
Si Si4 0.546090 0.204337 0.030201
Si Si5 0.173070 0.575210 0.605694
Si Si6 0.000000 0.376276 0.250000
Si Si7 0.268557 0.485887 0.307603
Si Si8 0.776197 0.815404 0.015539
O O1 0.228358 0.137624 0.468104
O O2 0.084848 0.120021 0.467497
O O3 0.160370 0.049809 0.657675
O O4 0.192762 0.038455 0.328980
O O5 0.217765 0.818732 0.283545
O O6 0.250000 0.750000 0.000000
O O7 0.361271 0.817029 0.020661
O O8 0.500000 0.654675 0.250000
O O9 0.548626 0.729979 0.449839
O O10 0.645951 0.673676 0.160091
O O11 0.500000 0.202703 0.250000
O O12 0.505898 0.164193 0.915109
O O13 0.204869 0.519838 0.476183
O O14 0.215421 0.561408 0.751273
O O15 0.210791 0.636379 0.514065
O O16 0.078922 0.583952 0.683808
O O17 0.750000 0.750000 0.000000
#
# Coordination Sequence:
#
# PCOD9295885 Si02
#       8
#     8   8   8   8   8   4   8   8
#     4  11  22  44  69  98 133 176 239 294 342 424
#     4  12  24  41  69 104 131 183 239 275 355 437
#     4  12  26  44  67 102 138 183 232 295 373 419
#     4  12  27  42  65 106 153 184 225 293 358 435
#     4  11  23  43  71 100 137 191 228 294 346 423
#     4  12  24  46  66 106 152 182 234 286 370 416
#     4  10  23  43  71  97 134 183 248 283 340 419
#     4  12  22  43  69  98 137 185 228 285 355 433
#
# _framework density 20.160336000000001
#
# number of rings (size 3 to 8) (size 9 to 14) (size 15 to 20)
#    0.000    0.533    7.333    0.000    3.733    0.533 
#    0.000    0.667    0.000    0.000    0.000    0.000 
#    0.000    0.000    0.000    0.000    0.000    0.000 
#
# Total GULP energy -167456.638428 kJ/mol
# GULP energy per Si atom -5581.887948 kJ/mol
# Density = 2.011445 g / cm^3
# Si number density = 20.160336 Si / 1000 Ang^3
#
#
#
# Elastic Constant Matrix: (Units=GPa)
#
#
# Indices 1 2 3 4 5 6 
#
# 1 77.5149 24.1195 3.0824 0.0000 27.1968 0.0000
# 2 24.1195 115.3655 2.5132 0.0000 21.7134 0.0000
# 3 3.0824 2.5132 69.4993 0.0000 14.4139 0.0000
# 4 0.0000 0.0000 0.0000 22.8428 0.0000 -0.7495
# 5 27.1968 21.7134 14.4139 0.0000 30.0242 0.0000
# 6 0.0000 0.0000 0.0000 -0.7495 0.0000 23.1128
#
#
#
# Elastic Compliance Matrix: (Units=1/GPa)
#
#
# Indices 1 2 3 4 5 6 
#
# 1 0.019536 -0.000632 0.003034 0.000000 -0.018696 0.000000
# 2 -0.000632 0.010156 0.001183 0.000000 -0.007341 0.000000
# 3 0.003034 0.001183 0.016613 0.000000 -0.011579 0.000000
# 4 0.000000 0.000000 0.000000 0.043824 0.000000 0.001421
# 5 -0.018696 -0.007341 -0.011579 0.000000 0.061110 0.000000
# 6 0.000000 0.000000 0.000000 0.001421 0.000000 0.043312
#
#
# Mechanical properties :
#
#
# Convention : Reuss Voigt Hill
#
# Bulk Modulus (GPa) = 18.69994 35.75667 27.22831
# Shear Modulus (GPa) = 24.36576 30.70691 27.53634
#
# Velocity S-wave (km/s) = 3.48026 3.90697 3.69977
# Velocity P-wave (km/s) = 5.04434 6.17472 5.63793
#
# Compressibility (1/GPa) = 0.05347610
#
# Stress axis : x y z
#
# Youngs Moduli (GPa) = 51.18649 98.46395 60.19452
#
# Poissons Ratio (x) = 0.06220 -0.18263
# Poissons Ratio (y) = 0.03233 -0.07122
# Poissons Ratio (z) = -0.15530 -0.11650
#
# Static dielectric constant tensor:
#      x y z
#    x 1.744420 0.000000 0.075160 
#    y 0.000000 1.692550 0.000000 
#    z 0.075160 0.000000 1.770590 
# 
# From -- ./inp_files/50195.got.cif
#   From: 2010.05.17/outbox.cif.g08.bks.cpg/sg15_26_cif.got.tgz:50195.got - 2010.06.03 18:47:42.
