data_PCOD9295265
_publ_section_title
;
Structure prediction by ZEFSAII (Michael W. Deem and Ramdas Pophale) SiO2 
 PCOD9295265
Probable space group: C 2/C
;
_chemical_formula_sum "Si O2"
_cell_formula_units_Z 60
_cell_length_a 24.195273
_cell_length_b 23.071084
_cell_length_c 11.275755
_cell_angle_alpha 90.000000
_cell_angle_beta 27.930968
_cell_angle_gamma 90.000000
_cell_volume 2948.274526
_symmetry_space_group_name_H-M "C 2/C"
_symmetry_group_IT_number 15
_symmetry_cell_setting 'monoclinic'
loop_
_space_group_symop_operation_xyz
x,y,z
-x,y,1/2-z
-x,-y,-z
x,-y,1/2+z
1/2+x,1/2+y,z
1/2-x,1/2+y,1/2-z
1/2-x,1/2-y,-z
1/2+x,1/2-y,1/2+z
loop_
_atom_site_type_symbol
_atom_site_label
_atom_site_fract_x
_atom_site_fract_y
_atom_site_fract_z
Si Si1 0.500956 0.068989 0.504745
Si Si2 0.862389 0.057208 0.485423
Si Si3 0.869106 0.075759 0.939502
Si Si4 0.225536 0.643683 0.610336
Si Si5 0.500000 0.137324 0.750000
Si Si6 0.752955 0.614592 0.564266
Si Si7 0.358426 0.215127 0.511815
Si Si8 0.747663 0.172437 0.300075
O O1 0.386533 0.099999 0.665659
O O2 0.493315 0.095262 0.650671
O O3 0.500000 0.000000 0.500000
O O4 0.623209 0.088917 0.215260
O O5 0.834622 0.103169 0.436064
O O6 0.793120 0.079241 0.733581
O O7 0.833971 0.991762 0.500408
O O8 0.000000 0.058080 0.250000
O O9 0.841197 0.105468 0.864463
O O10 0.000000 0.080277 0.750000
O O11 0.784832 0.108255 0.191131
O O12 0.245865 0.673006 0.445375
O O13 0.200878 0.691252 0.755812
O O14 0.612322 0.178241 0.519819
O O15 0.791211 0.679266 0.535683
O O16 0.500000 0.205127 0.250000
O O17 0.329965 0.283103 0.573811
#
# Coordination Sequence:
#
# PCOD9295265 Si02
#       8
#     8   8   8   8   4   8   8   8
#     4  11  22  38  69  99 134 171 207 273 339 405
#     4  10  25  42  65  96 142 177 219 277 335 408
#     4  11  25  42  65 100 134 180 227 272 333 405
#     4  10  23  42  67  97 133 172 221 271 339 403
#     4  10  24  42  58 100 136 162 226 266 332 398
#     4  11  24  43  68 101 135 175 229 278 341 397
#     4  11  23  46  68  95 132 172 228 284 331 398
#     4  11  24  43  68  95 131 177 222 276 333 397
#
# _framework density 20.350887
#
# number of rings (size 3 to 8) (size 9 to 14) (size 15 to 20)
#    0.000    1.333    2.667    1.600    7.467    2.667 
#    4.800    1.333    0.000    0.000    0.000    0.000 
#    0.000    0.000    0.000    0.000    0.000    0.000 
#
# Total GULP energy -167392.935517 kJ/mol
# GULP energy per Si atom -5579.764517 kJ/mol
# Density = 2.030457 g / cm^3
# Si number density = 20.350887 Si / 1000 Ang^3
#
#
#
# Elastic Constant Matrix: (Units=GPa)
#
#
# Indices 1 2 3 4 5 6 
#
# 1 76.4811 21.7774 3.7206 0.0003 -8.8177 0.0001
# 2 21.7774 81.8100 15.0061 -0.0001 -7.9964 0.0000
# 3 3.7206 15.0061 61.3022 0.0001 -4.8177 0.0002
# 4 0.0003 -0.0001 0.0001 -25.2291 -0.0005 -13.3218
# 5 -8.8177 -7.9964 -4.8177 -0.0005 23.1185 -0.0002
# 6 0.0001 0.0000 0.0002 -13.3218 -0.0002 8.0764
#
#
#
# Elastic Compliance Matrix: (Units=1/GPa)
#
#
# Indices 1 2 3 4 5 6 
#
# 1 0.014566 -0.003505 0.000321 0.000000 0.004410 0.000000
# 2 -0.003505 0.013985 -0.002984 0.000000 0.002878 0.000000
# 3 0.000321 -0.002984 0.017234 0.000000 0.002681 0.000000
# 4 0.000000 0.000000 0.000000 -0.021185 -0.000001 -0.034944
# 5 0.004410 0.002878 0.002681 -0.000001 0.046492 0.000000
# 6 0.000000 0.000000 0.000000 -0.034944 0.000000 0.066178
#
#
# Mechanical properties :
#
#
# Convention : Reuss Voigt Hill
#
# Bulk Modulus (GPa) = 29.89748 33.40018 31.64883
# Shear Modulus (GPa) = 31.10253 13.13241 22.11747
#
# Velocity S-wave (km/s) = 3.91361 2.54303 3.30025
# Velocity P-wave (km/s) = 5.92829 5.00704 5.48703
#
# Compressibility (1/GPa) = 0.03344763
#
# Stress axis : x y z
#
# Youngs Moduli (GPa) = 68.65273 71.50369 58.02325
#
# Poissons Ratio (x) = 0.25063 -0.01860
# Poissons Ratio (y) = 0.24064 0.17317
# Poissons Ratio (z) = -0.02201 0.21340
#
# Static dielectric constant tensor:
#      x y z
#    x -10.529380 -0.000040 8.405750 
#    y -0.000040 1.687750 0.000030 
#    z 8.405750 0.000030 -4.091960 
# 
# From -- ./inp_files/119946.got.cif
#   From: 2010.05.17/outbox.cif.g08.bks.cpg/sg15_60_cif.got.tgz:119946.got - 2010.06.03 18:47:42.
