data_PCOD9295627
_publ_section_title
;
Structure prediction by ZEFSAII (Michael W. Deem and Ramdas Pophale) SiO2 
 PCOD9295627
Probable space group: C 2/C
;
_chemical_formula_sum "Si O2"
_cell_formula_units_Z 40
_cell_length_a 22.646390
_cell_length_b 8.556524
_cell_length_c 10.201718
_cell_angle_alpha 90.000000
_cell_angle_beta 77.782101
_cell_angle_gamma 90.000000
_cell_volume 1932.056003
_symmetry_space_group_name_H-M "C 2/C"
_symmetry_group_IT_number 15
_symmetry_cell_setting 'monoclinic'
loop_
_space_group_symop_operation_xyz
x,y,z
-x,y,1/2-z
-x,-y,-z
x,-y,1/2+z
1/2+x,1/2+y,z
1/2-x,1/2+y,1/2-z
1/2-x,1/2-y,-z
1/2+x,1/2-y,1/2+z
loop_
_atom_site_type_symbol
_atom_site_label
_atom_site_fract_x
_atom_site_fract_y
_atom_site_fract_z
Si Si1 0.960546 0.011718 0.647882
Si Si2 0.760252 0.940789 0.487137
Si Si3 0.368842 0.690035 0.050885
Si Si4 0.687064 0.973560 0.275239
Si Si5 0.931558 0.651885 0.273571
O O1 0.941975 0.187937 0.689411
O O2 0.000000 0.953315 0.750000
O O3 0.905073 0.905149 0.640532
O O4 0.000000 0.000000 0.500000
O O5 0.750000 0.750000 0.500000
O O6 0.831600 0.935680 0.480969
O O7 0.733365 0.023081 0.370684
O O8 0.724966 0.015284 0.625130
O O9 0.330289 0.806581 0.158359
O O10 0.407492 0.794631 0.929251
O O11 0.623228 0.059696 0.272010
O O12 0.000000 0.579471 0.250000
#
# Coordination Sequence:
#
# PCOD9295627 Si02
#       5
#     8   8   8   8   8
#     4  11  23  42  67  98 139 184 226 269 341 405
#     4  10  23  43  66  96 140 169 223 285 342 400
#     4  11  24  45  68  99 143 175 227 287 335 413
#     4  11  23  44  70  99 132 180 227 281 349 392
#     4  11  23  44  69  97 142 178 221 289 334 401
#
# _framework density 20.703332
#
# number of rings (size 3 to 8) (size 9 to 14) (size 15 to 20)
#    0.000    1.200    8.000    0.000    2.800    3.200 
#    0.000    5.000    0.000    0.000    0.000    0.000 
#    0.000    0.000    0.000    0.000    0.000    0.000 
#
# Total GULP energy -111370.589250 kJ/mol
# GULP energy per Si atom -5568.529462 kJ/mol
# Density = 2.065621 g / cm^3
# Si number density = 20.703332 Si / 1000 Ang^3
#
#
#
# Elastic Constant Matrix: (Units=GPa)
#
#
# Indices 1 2 3 4 5 6 
#
# 1 141.5036 17.2427 25.9449 0.0000 41.3670 0.0000
# 2 17.2427 27.8908 5.8396 0.0000 11.9822 0.0000
# 3 25.9449 5.8396 109.5292 0.0000 17.1708 0.0000
# 4 0.0000 0.0000 0.0000 24.8865 0.0000 -2.8874
# 5 41.3670 11.9822 17.1708 0.0000 53.4903 0.0000
# 6 0.0000 0.0000 0.0000 -2.8874 0.0000 31.8456
#
#
#
# Elastic Compliance Matrix: (Units=1/GPa)
#
#
# Indices 1 2 3 4 5 6 
#
# 1 0.009470 -0.002910 -0.001097 0.000000 -0.006320 0.000000
# 2 -0.002910 0.040626 -0.000424 0.000000 -0.006714 0.000000
# 3 -0.001097 -0.000424 0.009756 0.000000 -0.002188 0.000000
# 4 0.000000 0.000000 0.000000 0.040610 0.000000 0.003682
# 5 -0.006320 -0.006714 -0.002188 0.000000 0.025789 0.000000
# 6 0.000000 0.000000 0.000000 0.003682 0.000000 0.031735
#
#
# Mechanical properties :
#
#
# Convention : Reuss Voigt Hill
#
# Bulk Modulus (GPa) = 19.61204 41.88646 30.74925
# Shear Modulus (GPa) = 27.19677 37.37088 32.28382
#
# Velocity S-wave (km/s) = 3.62835 4.25322 3.95315
# Velocity P-wave (km/s) = 5.20064 6.66299 5.97671
#
# Compressibility (1/GPa) = 0.05098908
#
# Stress axis : x y z
#
# Youngs Moduli (GPa) = 105.59370 24.61459 102.50580
#
# Poissons Ratio (x) = 0.07163 0.11249
# Poissons Ratio (y) = 0.30727 0.04348
# Poissons Ratio (z) = 0.11588 0.01044
#
# Static dielectric constant tensor:
#      x y z
#    x 1.555690 0.000000 -0.098820 
#    y 0.000000 1.789260 0.000000 
#    z -0.098820 0.000000 1.670800 
# 
# From -- ./inp_files/59912.got.cif
#   From: 2010.05.17/outbox.cif.g08.bks.cpg/sg15_30_cif.got.tgz:59912.got - 2010.06.03 18:47:42.
