data_PCOD9295325
_publ_section_title
;
Structure prediction by ZEFSAII (Michael W. Deem and Ramdas Pophale) SiO2 
 PCOD9295325
Probable space group: C 2/C
;
_chemical_formula_sum "Si O2"
_cell_formula_units_Z 52
_cell_length_a 10.546533
_cell_length_b 11.022590
_cell_length_c 28.408658
_cell_angle_alpha 90.000000
_cell_angle_beta 39.260320
_cell_angle_gamma 90.000000
_cell_volume 2089.976025
_symmetry_space_group_name_H-M "C 2/C"
_symmetry_group_IT_number 15
_symmetry_cell_setting 'monoclinic'
loop_
_space_group_symop_operation_xyz
x,y,z
-x,y,1/2-z
-x,-y,-z
x,-y,1/2+z
1/2+x,1/2+y,z
1/2-x,1/2+y,1/2-z
1/2-x,1/2-y,-z
1/2+x,1/2-y,1/2+z
loop_
_atom_site_type_symbol
_atom_site_label
_atom_site_fract_x
_atom_site_fract_y
_atom_site_fract_z
Si Si1 0.555621 0.829158 0.517737
Si Si2 0.000000 0.120924 0.250000
Si Si3 0.260348 0.303957 0.307756
Si Si4 0.896477 0.057646 0.104638
Si Si5 0.204806 0.350977 0.213895
Si Si6 0.270538 0.482562 0.384469
Si Si7 0.214969 0.923569 0.963953
O O1 0.737664 0.879231 0.432743
O O2 0.611790 0.867006 0.554461
O O3 0.550772 0.686264 0.512377
O O4 0.360833 0.904634 0.559783
O O5 0.187825 0.212732 0.199447
O O6 0.028931 0.040763 0.195145
O O7 0.500000 0.288364 0.250000
O O8 0.147310 0.182284 0.356391
O O9 0.219066 0.334420 0.265494
O O10 0.188023 0.414474 0.361486
O O11 0.863996 0.944421 0.148328
O O12 0.751256 0.051671 0.100436
O O13 0.115845 0.037181 0.018951
O O14 0.000000 0.403276 0.250000
#
# Coordination Sequence:
#
# PCOD9295325 Si02
#       7
#     8   4   8   8   8   8   8
#     4  10  23  42  68  98 137 182 234 282 349 420
#     4  10  24  44  66  98 138 180 236 284 352 406
#     4  12  27  43  71 101 138 186 231 287 356 417
#     4  11  24  45  65 101 140 175 240 286 356 408
#     4  10  27  44  67 100 135 182 228 291 352 409
#     4  11  23  42  65 101 136 181 231 284 342 421
#     4  10  23  42  71  96 134 187 223 294 345 419
#
# _framework density 24.880669000000001
#
# number of rings (size 3 to 8) (size 9 to 14) (size 15 to 20)
#    0.462    0.923    2.308    1.385    8.615    1.231 
#    0.000    0.769    0.000    0.000    0.000    0.000 
#    0.000    0.000    0.000    0.000    0.000    0.000 
#
# Total GULP energy -145200.757454 kJ/mol
# GULP energy per Si atom -5584.644517 kJ/mol
# Density = 2.482404 g / cm^3
# Si number density = 24.880669 Si / 1000 Ang^3
#
#
#
# Elastic Constant Matrix: (Units=GPa)
#
#
# Indices 1 2 3 4 5 6 
#
# 1 72.7929 7.6764 30.3248 0.0000 32.7376 0.0000
# 2 7.6764 127.9739 51.7897 0.0000 3.3997 0.0000
# 3 30.3248 51.7897 108.1128 0.0001 30.4663 0.0000
# 4 0.0000 0.0000 0.0001 49.9378 0.0000 12.9361
# 5 32.7376 3.3997 30.4663 0.0000 48.2114 0.0000
# 6 0.0000 0.0000 0.0000 12.9361 0.0000 25.5643
#
#
#
# Elastic Compliance Matrix: (Units=1/GPa)
#
#
# Indices 1 2 3 4 5 6 
#
# 1 0.020195 0.000003 -0.002192 0.000000 -0.012328 0.000000
# 2 0.000003 0.010000 -0.005587 0.000000 0.002823 0.000000
# 3 -0.002192 -0.005587 0.014612 0.000000 -0.007352 0.000000
# 4 0.000000 0.000000 0.000000 0.023046 0.000000 -0.011662
# 5 -0.012328 0.002823 -0.007352 0.000000 0.033560 0.000000
# 6 0.000000 0.000000 0.000000 -0.011662 0.000000 0.045018
#
#
# Mechanical properties :
#
#
# Convention : Reuss Voigt Hill
#
# Bulk Modulus (GPa) = 34.18086 54.27349 44.22717
# Shear Modulus (GPa) = 29.11486 39.34862 34.23174
#
# Velocity S-wave (km/s) = 3.42450 3.98111 3.71325
# Velocity P-wave (km/s) = 5.42255 6.55692 6.01653
#
# Compressibility (1/GPa) = 0.02925614
#
# Stress axis : x y z
#
# Youngs Moduli (GPa) = 49.51759 100.00232 68.43547
#
# Poissons Ratio (x) = -0.00032 0.15001
# Poissons Ratio (y) = -0.00016 0.38233
# Poissons Ratio (z) = 0.10854 0.55868
#
# Static dielectric constant tensor:
#      x y z
#    x 2.059350 0.000000 -0.040890 
#    y 0.000000 1.933230 0.000000 
#    z -0.040890 0.000000 2.005850 
# 
# From -- ./inp_files/269198.got.cif
#   From: 2010.05.17/outbox.cif.g08.bks.cpg/sg15_135_cif.got.tgz:269198.got - 2010.06.03 18:47:42.
