data_PCOD9295201
_publ_section_title
;
Structure prediction by ZEFSAII (Michael W. Deem and Ramdas Pophale) SiO2 
 PCOD9295201
Probable space group: C 2/C
;
_chemical_formula_sum "Si O2"
_cell_formula_units_Z 56
_cell_length_a 19.384350
_cell_length_b 20.575313
_cell_length_c 23.135397
_cell_angle_alpha 90.000000
_cell_angle_beta 162.962440
_cell_angle_gamma 90.000000
_cell_volume 2703.585514
_symmetry_space_group_name_H-M "C 2/C"
_symmetry_group_IT_number 15
_symmetry_cell_setting 'monoclinic'
loop_
_space_group_symop_operation_xyz
x,y,z
-x,y,1/2-z
-x,-y,-z
x,-y,1/2+z
1/2+x,1/2+y,z
1/2-x,1/2+y,1/2-z
1/2-x,1/2-y,-z
1/2+x,1/2-y,1/2+z
loop_
_atom_site_type_symbol
_atom_site_label
_atom_site_fract_x
_atom_site_fract_y
_atom_site_fract_z
Si Si1 0.447877 0.156403 0.901340
Si Si2 0.224370 0.044793 0.897995
Si Si3 0.726334 0.081102 0.282076
Si Si4 0.264874 0.316491 0.477012
Si Si5 0.856657 0.036906 0.801092
Si Si6 0.775533 0.082604 0.083256
Si Si7 0.535018 0.300781 0.987585
O O1 0.319349 0.097999 0.830843
O O2 0.493183 0.225022 0.968519
O O3 0.274275 0.175183 0.709532
O O4 0.681056 0.127355 0.058186
O O5 0.142668 0.024799 0.766971
O O6 0.000000 0.078626 0.750000
O O7 0.388096 0.980262 0.050313
O O8 0.451574 0.091903 0.074953
O O9 0.837306 0.148863 0.348415
O O10 0.894616 0.057551 0.470215
O O11 0.766302 0.026531 0.263660
O O12 0.250000 0.250000 0.500000
O O13 0.337350 0.372501 0.578560
O O14 0.417190 0.306629 0.542487
O O15 0.000000 0.334904 0.250000
O O16 0.000000 0.034537 0.250000
#
# Coordination Sequence:
#
# PCOD9295201 Si02
#       7
#     8   8   8   8   8   8   8
#     4  11  23  40  58  92 125 171 221 259 321 387
#     4  11  25  43  66  97 124 169 221 277 334 379
#     4  10  23  42  66  96 128 172 222 268 333 384
#     4  12  22  36  53  83 137 174 206 250 297 386
#     4  10  23  43  66  92 133 167 216 278 323 393
#     4  11  24  36  55  91 127 172 217 245 317 384
#     4  11  24  36  62  94 127 178 212 265 322 383
#
# _framework density 20.713232999999999
#
# number of rings (size 3 to 8) (size 9 to 14) (size 15 to 20)
#    0.000    1.143    4.286    0.857    8.000    0.571 
#    0.000    0.000    0.000    0.857    0.000    0.000 
#    0.000    0.000    0.000    0.000    0.000    0.000 
#
# Total GULP energy -155887.130686 kJ/mol
# GULP energy per Si atom -5567.397525 kJ/mol
# Density = 2.066609 g / cm^3
# Si number density = 20.713233 Si / 1000 Ang^3
#
#
#
# Elastic Constant Matrix: (Units=GPa)
#
#
# Indices 1 2 3 4 5 6 
#
# 1 93.5714 29.7317 44.6303 0.2551 14.6598 0.2634
# 2 29.7317 95.4420 14.4640 -0.4591 11.5511 -0.4623
# 3 44.6303 14.4640 84.9264 0.2003 23.0605 0.3118
# 4 0.2551 -0.4591 0.2003 -127.3338 0.0298 -161.3922
# 5 14.6598 11.5511 23.0605 0.0298 34.6646 0.0304
# 6 0.2634 -0.4623 0.3118 -161.3922 0.0304 -148.2731
#
#
#
# Elastic Compliance Matrix: (Units=1/GPa)
#
#
# Indices 1 2 3 4 5 6 
#
# 1 0.015425 -0.003638 -0.007377 -0.000008 -0.000403 0.000032
# 2 -0.003638 0.011855 0.000669 -0.000011 -0.002857 -0.000030
# 3 -0.007377 0.000669 0.018003 0.000046 -0.009080 -0.000029
# 4 -0.000008 -0.000011 0.000046 0.020688 -0.000021 -0.022518
# 5 -0.000403 -0.002857 -0.009080 -0.000021 0.036011 0.000020
# 6 0.000032 -0.000030 -0.000029 -0.022518 0.000020 0.017766
#
#
# Mechanical properties :
#
#
# Convention : Reuss Voigt Hill
#
# Bulk Modulus (GPa) = 40.66667 50.17688 45.42178
# Shear Modulus (GPa) = 33.63906 -35.84755 -1.10424
#
# Velocity S-wave (km/s) = 4.03431 -4.16463 -0.73094
# Velocity P-wave (km/s) = 6.43247 1.07312 4.61130
#
# Compressibility (1/GPa) = 0.02459016
#
# Stress axis : x y z
#
# Youngs Moduli (GPa) = 64.83124 84.35187 55.54594
#
# Poissons Ratio (x) = 0.30688 0.40975
# Poissons Ratio (y) = 0.23587 -0.03714
# Poissons Ratio (z) = 0.47825 -0.05640
#
# Static dielectric constant tensor:
#      x y z
#    x 1.823610 -0.000070 -0.041910 
#    y -0.000070 1.722710 0.000160 
#    z -0.041910 0.000160 1.722950 
# 
# From -- ./inp_files/216608.got.cif
#   From: 2010.05.17/outbox.cif.g08.bks.cpg/sg15_109_cif.got.tgz:216608.got - 2010.06.03 18:47:42.
