data_PCOD9295445
_publ_section_title
;
Structure prediction by ZEFSAII (Michael W. Deem and Ramdas Pophale) SiO2 
 PCOD9295445
Probable space group: C 2/C
;
_chemical_formula_sum "Si O2"
_cell_formula_units_Z 60
_cell_length_a 22.168031
_cell_length_b 18.246331
_cell_length_c 11.015432
_cell_angle_alpha 90.000000
_cell_angle_beta 37.957334
_cell_angle_gamma 90.000000
_cell_volume 2740.513383
_symmetry_space_group_name_H-M "C 2/C"
_symmetry_group_IT_number 15
_symmetry_cell_setting 'monoclinic'
loop_
_space_group_symop_operation_xyz
x,y,z
-x,y,1/2-z
-x,-y,-z
x,-y,1/2+z
1/2+x,1/2+y,z
1/2-x,1/2+y,1/2-z
1/2-x,1/2-y,-z
1/2+x,1/2-y,1/2+z
loop_
_atom_site_type_symbol
_atom_site_label
_atom_site_fract_x
_atom_site_fract_y
_atom_site_fract_z
Si Si1 0.113127 0.247263 0.084229
Si Si2 0.101367 0.661153 0.919270
Si Si3 0.213237 0.495014 0.925548
Si Si4 0.500000 0.960623 0.750000
Si Si5 0.235762 0.578820 0.137877
Si Si6 0.114688 0.208950 0.581238
Si Si7 0.403655 0.212366 0.138771
Si Si8 0.764902 0.144585 0.471815
O O1 0.197292 0.302415 0.996496
O O2 0.000000 0.271883 0.250000
O O3 0.132587 0.235747 0.911214
O O4 0.134990 0.178799 0.136595
O O5 0.193364 0.632763 0.699514
O O6 0.045984 0.596091 0.078621
O O7 0.134879 0.727062 0.952413
O O8 0.019975 0.698887 0.963605
O O9 0.230527 0.484435 0.751517
O O10 0.094493 0.490633 0.133297
O O11 0.238033 0.556148 0.990687
O O12 0.275020 0.427919 0.880251
O O13 0.141602 0.631546 0.304584
O O14 0.323473 0.635438 0.025469
O O15 0.128989 0.249906 0.685865
O O16 0.000000 0.191229 0.750000
#
# Coordination Sequence:
#
# PCOD9295445 Si02
#       8
#     8   8   8   4   8   8   8   8
#     4  11  23  40  65  98 133 181 233 288 341 395
#     4  11  20  40  66 103 134 169 229 289 344 400
#     4  12  28  41  66  98 143 185 220 275 348 431
#     4  12  24  42  66 104 142 178 222 278 354 426
#     4  12  25  45  65  98 136 183 228 272 343 418
#     4  10  23  42  71  98 127 173 234 295 331 391
#     4  11  20  38  68  97 129 175 225 285 350 399
#     4  11  25  39  62  98 140 177 230 285 337 409
#
# _framework density 21.893708
#
# number of rings (size 3 to 8) (size 9 to 14) (size 15 to 20)
#    0.000    0.800    6.000    2.000    4.667    3.200 
#    0.000    1.333    0.000    0.000    0.000    0.000 
#    0.000    0.000    0.000    0.000    0.000    0.000 
#
# Total GULP energy -167219.816700 kJ/mol
# GULP energy per Si atom -5573.993890 kJ/mol
# Density = 2.184388 g / cm^3
# Si number density = 21.893708 Si / 1000 Ang^3
#
#
#
# Elastic Constant Matrix: (Units=GPa)
#
#
# Indices 1 2 3 4 5 6 
#
# 1 133.1856 34.9256 22.0542 0.0000 13.8467 0.0000
# 2 34.9256 53.7466 -2.0879 0.0000 10.2271 0.0000
# 3 22.0542 -2.0879 39.6829 0.0000 14.8495 0.0000
# 4 0.0000 0.0000 0.0000 17.0246 0.0000 6.7676
# 5 13.8467 10.2271 14.8495 0.0000 26.3749 0.0000
# 6 0.0000 0.0000 0.0000 6.7676 0.0000 5.5502
#
#
#
# Elastic Compliance Matrix: (Units=1/GPa)
#
#
# Indices 1 2 3 4 5 6 
#
# 1 0.010366 -0.007182 -0.006517 0.000000 0.001012 0.000000
# 2 -0.007182 0.025889 0.009754 0.000000 -0.011760 0.000000
# 3 -0.006517 0.009754 0.037336 0.000000 -0.021382 0.000000
# 4 0.000000 0.000000 0.000000 0.113992 0.000000 -0.138996
# 5 0.001012 -0.011760 -0.021382 0.000000 0.053982 0.000000
# 6 0.000000 0.000000 0.000000 -0.138996 0.000000 0.349659
#
#
# Mechanical properties :
#
#
# Convention : Reuss Voigt Hill
#
# Bulk Modulus (GPa) = 15.22038 37.37764 26.29901
# Shear Modulus (GPa) = 8.05135 21.23814 14.64475
#
# Velocity S-wave (km/s) = 1.91975 3.11795 2.58912
# Velocity P-wave (km/s) = 3.44688 5.48375 4.57999
#
# Compressibility (1/GPa) = 0.06570139
#
# Stress axis : x y z
#
# Youngs Moduli (GPa) = 96.47366 38.62611 26.78364
#
# Poissons Ratio (x) = 0.27739 0.17456
# Poissons Ratio (y) = 0.69283 -0.26125
# Poissons Ratio (z) = 0.62876 -0.37676
#
# Static dielectric constant tensor:
#      x y z
#    x 1.857530 0.000000 0.051490 
#    y 0.000000 1.828150 0.000000 
#    z 0.051490 0.000000 1.903650 
# 
# From -- ./inp_files/113790.got.cif
#   From: 2010.05.17/outbox.cif.g08.bks.cpg/sg15_57_cif.got.tgz:113790.got - 2010.06.03 18:47:42.
