data_PCOD9295459
_publ_section_title
;
Structure prediction by ZEFSAII (Michael W. Deem and Ramdas Pophale) SiO2 
 PCOD9295459
Probable space group: C 2/C
;
_chemical_formula_sum "Si O2"
_cell_formula_units_Z 60
_cell_length_a 15.889892
_cell_length_b 17.367024
_cell_length_c 16.929206
_cell_angle_alpha 90.000000
_cell_angle_beta 148.730091
_cell_angle_gamma 90.000000
_cell_volume 2424.985304
_symmetry_space_group_name_H-M "C 2/C"
_symmetry_group_IT_number 15
_symmetry_cell_setting 'monoclinic'
loop_
_space_group_symop_operation_xyz
x,y,z
-x,y,1/2-z
-x,-y,-z
x,-y,1/2+z
1/2+x,1/2+y,z
1/2-x,1/2+y,1/2-z
1/2-x,1/2-y,-z
1/2+x,1/2-y,1/2+z
loop_
_atom_site_type_symbol
_atom_site_label
_atom_site_fract_x
_atom_site_fract_y
_atom_site_fract_z
Si Si1 0.563202 0.283530 0.477092
Si Si2 0.616980 0.965865 0.684220
Si Si3 0.769205 0.956760 0.100540
Si Si4 0.712960 0.812155 0.700950
Si Si5 0.307150 0.042720 0.609681
Si Si6 0.500000 0.318047 0.250000
Si Si7 0.681545 0.213826 0.865406
Si Si8 0.889582 0.054241 0.857409
O O1 0.471234 0.214580 0.445605
O O2 0.721496 0.291319 0.658396
O O3 0.551469 0.275110 0.372662
O O4 0.459255 0.360597 0.411889
O O5 0.424288 0.957183 0.534299
O O6 0.699780 0.904074 0.693491
O O7 0.692883 0.967311 0.833322
O O8 0.697228 0.047457 0.723890
O O9 0.842196 0.873145 0.136823
O O10 0.887055 0.976876 0.266755
O O11 0.779317 0.017925 0.039120
O O12 0.796745 0.768297 0.694649
O O13 0.500000 0.050310 0.750000
O O14 0.248103 0.126997 0.590301
O O15 0.500000 0.204808 0.750000
O O16 0.750000 0.250000 0.000000
O O17 0.000000 0.000000 0.000000
#
# Coordination Sequence:
#
# PCOD9295459 Si02
#       8
#     8   8   8   8   8   4   8   8
#     4  11  26  46  70 105 150 196 241 311 370 457
#     4  11  23  44  73 104 139 191 252 306 374 453
#     4  10  23  42  72 107 140 186 248 304 375 448
#     4  12  26  45  72 108 147 197 253 305 383 450
#     4   9  21  43  70 103 140 184 236 303 364 444
#     4  10  24  48  70 108 150 188 246 310 374 446
#     4  11  25  47  71 102 147 191 242 305 376 445
#     4  11  23  43  69 102 139 185 245 308 371 432
#
# _framework density 24.742417
#
# number of rings (size 3 to 8) (size 9 to 14) (size 15 to 20)
#    0.000    1.333    1.333    2.800    7.467    0.533 
#    9.600    0.000    0.000    0.000    0.000    0.000 
#    0.000    0.000    0.000    0.000    0.000    0.000 
#
# Total GULP energy -167224.765589 kJ/mol
# GULP energy per Si atom -5574.158853 kJ/mol
# Density = 2.468610 g / cm^3
# Si number density = 24.742417 Si / 1000 Ang^3
#
#
#
# Elastic Constant Matrix: (Units=GPa)
#
#
# Indices 1 2 3 4 5 6 
#
# 1 100.9776 29.8895 29.2726 -0.0009 -16.5041 -0.0001
# 2 29.8895 102.8088 22.2741 -0.0016 -22.5883 -0.0006
# 3 29.2726 22.2741 100.4342 -0.0031 -24.8332 -0.0016
# 4 -0.0009 -0.0016 -0.0031 24.7848 -0.0022 -5.4859
# 5 -16.5041 -22.5883 -24.8332 -0.0022 63.4563 -0.0006
# 6 -0.0001 -0.0006 -0.0016 -5.4859 -0.0006 44.9221
#
#
#
# Elastic Compliance Matrix: (Units=1/GPa)
#
#
# Indices 1 2 3 4 5 6 
#
# 1 0.011580 -0.002576 -0.002531 0.000000 0.001105 0.000000
# 2 -0.002576 0.011351 -0.001033 0.000001 0.002966 0.000000
# 3 -0.002531 -0.001033 0.011813 0.000002 0.003597 0.000001
# 4 0.000000 0.000001 0.000002 0.041468 0.000002 0.005064
# 5 0.001105 0.002966 0.003597 0.000002 0.018510 0.000001
# 6 0.000000 0.000000 0.000001 0.005064 0.000001 0.022879
#
#
# Mechanical properties :
#
#
# Convention : Reuss Voigt Hill
#
# Bulk Modulus (GPa) = 44.51443 51.89922 48.20683
# Shear Modulus (GPa) = 36.39846 41.48492 38.94169
#
# Velocity S-wave (km/s) = 3.83965 4.09916 3.97152
# Velocity P-wave (km/s) = 6.13901 6.58980 6.36839
#
# Compressibility (1/GPa) = 0.02246462
#
# Stress axis : x y z
#
# Youngs Moduli (GPa) = 86.35780 88.09626 84.65319
#
# Poissons Ratio (x) = 0.22690 0.21423
# Poissons Ratio (y) = 0.22242 0.08747
# Poissons Ratio (z) = 0.21855 0.09103
#
# Static dielectric constant tensor:
#      x y z
#    x 2.180170 0.000000 -0.048810 
#    y 0.000000 2.001340 0.000000 
#    z -0.048810 0.000000 1.920830 
# 
# From -- ./inp_files/211770.got.cif
#   From: 2010.05.17/outbox.cif.g08.bks.cpg/sg15_106_cif.got.tgz:211770.got - 2010.06.03 18:47:42.
