data_PCOD9295996
_publ_section_title
;
Structure prediction by ZEFSAII (Michael W. Deem and Ramdas Pophale) SiO2 
 PCOD9295996
Probable space group: C 2/C
;
_chemical_formula_sum "Si O2"
_cell_formula_units_Z 60
_cell_length_a 22.198547
_cell_length_b 13.057719
_cell_length_c 30.185721
_cell_angle_alpha 90.000000
_cell_angle_beta 20.843372
_cell_angle_gamma 90.000000
_cell_volume 3113.272059
_symmetry_space_group_name_H-M "C 2/C"
_symmetry_group_IT_number 15
_symmetry_cell_setting 'monoclinic'
loop_
_space_group_symop_operation_xyz
x,y,z
-x,y,1/2-z
-x,-y,-z
x,-y,1/2+z
1/2+x,1/2+y,z
1/2-x,1/2+y,1/2-z
1/2-x,1/2-y,-z
1/2+x,1/2-y,1/2+z
loop_
_atom_site_type_symbol
_atom_site_label
_atom_site_fract_x
_atom_site_fract_y
_atom_site_fract_z
Si Si1 0.918005 0.465238 0.702464
Si Si2 0.490174 0.785554 0.582161
Si Si3 0.263269 0.962946 0.459736
Si Si4 0.940150 0.164414 0.208550
Si Si5 0.166087 0.666162 0.789165
Si Si6 0.807971 0.648235 0.366826
Si Si7 0.931358 0.392436 0.531186
Si Si8 0.500000 0.810663 0.250000
O O1 0.955461 0.381927 0.638320
O O2 0.818452 0.563285 0.751213
O O3 0.825912 0.406572 0.806455
O O4 0.092499 0.511716 0.602908
O O5 0.342912 0.700546 0.689859
O O6 0.678207 0.741459 0.457616
O O7 0.468966 0.816066 0.545554
O O8 0.344794 0.884473 0.368358
O O9 0.097357 0.910186 0.592870
O O10 0.235641 0.066387 0.451599
O O11 0.902185 0.238330 0.192856
O O12 0.769552 0.103417 0.336425
O O13 0.973734 0.240314 0.225855
O O14 0.027023 0.641557 0.921607
O O15 0.000000 0.673702 0.250000
O O16 0.000000 0.500000 0.500000
#
# Coordination Sequence:
#
# PCOD9295996 Si02
#       8
#     8   8   8   8   8   8   8   4
#     4  11  22  43  64  93 126 165 209 263 316 366
#     4  11  25  41  68  91 122 174 209 257 318 379
#     4  11  22  40  65  95 129 165 207 268 312 381
#     4  11  25  37  67  97 124 171 210 255 329 374
#     4  11  23  42  65  90 128 166 210 261 312 378
#     4  10  23  44  64  93 127 162 213 261 310 378
#     4  11  24  43  59  91 133 162 208 267 307 370
#     4  12  20  40  64  96 130 160 210 270 314 374
#
# _framework density 19.272328000000002
#
# number of rings (size 3 to 8) (size 9 to 14) (size 15 to 20)
#    0.000    1.067    4.667    2.000    3.733    3.733 
#    2.400    0.000    0.000    0.000    0.000    0.000 
#    0.000    0.000    0.000    0.000    0.000    0.000 
#
# Total GULP energy -167584.475220 kJ/mol
# GULP energy per Si atom -5586.149174 kJ/mol
# Density = 1.922846 g / cm^3
# Si number density = 19.272328 Si / 1000 Ang^3
#
#
#
# Elastic Constant Matrix: (Units=GPa)
#
#
# Indices 1 2 3 4 5 6 
#
# 1 41.9879 -4.1884 5.2521 0.0092 8.9551 0.0021
# 2 -4.1884 56.4424 29.9341 0.0132 -12.3151 0.0009
# 3 5.2521 29.9341 89.9613 0.0333 2.1532 0.0005
# 4 0.0092 0.0132 0.0333 -38.3626 -0.0027 -6.2650
# 5 8.9551 -12.3151 2.1532 -0.0027 19.0225 -0.0011
# 6 0.0021 0.0009 0.0005 -6.2650 -0.0011 23.7120
#
#
#
# Elastic Compliance Matrix: (Units=1/GPa)
#
#
# Indices 1 2 3 4 5 6 
#
# 1 0.026616 -0.000092 -0.001225 0.000006 -0.012450 -0.000001
# 2 -0.000092 0.026645 -0.009300 0.000000 0.018346 0.000000
# 3 -0.001225 -0.009300 0.014451 0.000009 -0.007080 0.000002
# 4 0.000006 0.000000 0.000009 -0.024989 -0.000008 -0.006602
# 5 -0.012450 0.018346 -0.007080 -0.000008 0.071109 0.000002
# 6 -0.000001 0.000000 0.000002 -0.006602 0.000002 0.040428
#
#
# Mechanical properties :
#
#
# Convention : Reuss Voigt Hill
#
# Bulk Modulus (GPa) = 21.51511 27.82081 24.66796
# Shear Modulus (GPa) = 26.17969 11.36729 18.77349
#
# Velocity S-wave (km/s) = 3.68966 2.43126 3.12447
# Velocity P-wave (km/s) = 5.41659 4.72741 5.08369
#
# Compressibility (1/GPa) = 0.04647896
#
# Stress axis : x y z
#
# Youngs Moduli (GPa) = 37.57157 37.52989 69.19765
#
# Poissons Ratio (x) = 0.00344 0.08479
# Poissons Ratio (y) = 0.00344 0.64353
# Poissons Ratio (z) = 0.04604 0.34902
#
# Static dielectric constant tensor:
#      x y z
#    x 1.659550 0.000000 -0.020680 
#    y 0.000000 1.644510 0.000000 
#    z -0.020680 0.000000 1.644670 
# 
# From -- ./inp_files/317944.got.cif
#   From: 2010.05.17/outbox.cif.g08.bks.cpg/sg15_159_cif.got.tgz:317944.got - 2010.06.03 18:47:42.
