data_PCOD9295122
_publ_section_title
;
Structure prediction by ZEFSAII (Michael W. Deem and Ramdas Pophale) SiO2 
 PCOD9295122
Probable space group: C 2/C
;
_chemical_formula_sum "Si O2"
_cell_formula_units_Z 40
_cell_length_a 16.763269
_cell_length_b 9.188272
_cell_length_c 16.434790
_cell_angle_alpha 90.000000
_cell_angle_beta 31.077027
_cell_angle_gamma 90.000000
_cell_volume 1306.671059
_symmetry_space_group_name_H-M "C 2/C"
_symmetry_group_IT_number 15
_symmetry_cell_setting 'monoclinic'
loop_
_space_group_symop_operation_xyz
x,y,z
-x,y,1/2-z
-x,-y,-z
x,-y,1/2+z
1/2+x,1/2+y,z
1/2-x,1/2+y,1/2-z
1/2-x,1/2-y,-z
1/2+x,1/2-y,1/2+z
loop_
_atom_site_type_symbol
_atom_site_label
_atom_site_fract_x
_atom_site_fract_y
_atom_site_fract_z
Si Si1 0.736985 0.207959 0.155813
Si Si2 0.897281 0.528895 0.508665
Si Si3 0.689686 0.404356 0.471338
Si Si4 0.500000 0.626097 0.750000
Si Si5 0.105866 0.103532 0.346592
Si Si6 0.000000 0.619017 0.750000
O O1 0.893499 0.296314 0.997525
O O2 0.739247 0.033241 0.147172
O O3 0.616343 0.271536 0.198422
O O4 0.769399 0.216070 0.224663
O O5 0.719520 0.490517 0.690375
O O6 0.000000 0.500000 0.500000
O O7 0.938093 0.466451 0.384271
O O8 0.608558 0.514888 0.605331
O O9 0.541188 0.319870 0.567377
O O10 0.838766 0.309219 0.362923
O O11 0.000000 0.000000 0.500000
#
# Coordination Sequence:
#
# PCOD9295122 Si02
#       6
#     8   8   8   4   8   4
#     4  11  24  38  70 103 147 183 253 313 382 447
#     4  12  26  43  70 109 148 198 255 318 383 457
#     4  11  22  38  65 102 143 193 233 307 393 446
#     4  12  21  40  68 107 144 188 247 324 388 445
#     4  10  23  42  65 101 152 200 241 305 390 462
#     4  12  25  44  70 107 152 188 259 316 374 459
#
# _framework density 30.612141999999999
#
# number of rings (size 3 to 8) (size 9 to 14) (size 15 to 20)
#    0.000    0.800    4.000    3.600    5.600    0.000 
#    0.000    0.000    0.000    6.000    0.000    0.000 
#    0.000    0.000    0.000    0.000    0.000    0.000 
#
# Total GULP energy -111580.029309 kJ/mol
# GULP energy per Si atom -5579.001465 kJ/mol
# Density = 3.054247 g / cm^3
# Si number density = 30.612142 Si / 1000 Ang^3
#
#
#
# Elastic Constant Matrix: (Units=GPa)
#
#
# Indices 1 2 3 4 5 6 
#
# 1 235.9049 38.5286 76.5056 0.0000 -66.3628 0.0000
# 2 38.5286 97.5222 12.7184 0.0000 3.1840 0.0000
# 3 76.5056 12.7184 188.5461 0.0000 -0.9691 0.0000
# 4 0.0000 0.0000 0.0000 60.1505 0.0000 3.0121
# 5 -66.3628 3.1840 -0.9691 0.0000 83.0904 0.0000
# 6 0.0000 0.0000 0.0000 3.0121 0.0000 24.3310
#
#
#
# Elastic Compliance Matrix: (Units=1/GPa)
#
#
# Indices 1 2 3 4 5 6 
#
# 1 0.007189 -0.002677 -0.002707 0.000000 0.005813 0.000000
# 2 -0.002677 0.011356 0.000307 0.000000 -0.002570 0.000000
# 3 -0.002707 0.000307 0.006371 0.000000 -0.002099 0.000000
# 4 0.000000 0.000000 0.000000 0.016729 0.000000 -0.002071
# 5 0.005813 -0.002570 -0.002099 0.000000 0.016752 0.000000
# 6 0.000000 0.000000 0.000000 -0.002071 0.000000 0.041356
#
#
# Mechanical properties :
#
#
# Convention : Reuss Voigt Hill
#
# Bulk Modulus (GPa) = 67.74180 86.38650 77.06415
# Shear Modulus (GPa) = 43.54407 59.79575 51.66991
#
# Velocity S-wave (km/s) = 3.77562 4.42445 4.11285
# Velocity P-wave (km/s) = 6.41749 7.37441 6.91253
#
# Compressibility (1/GPa) = 0.01476194
#
# Stress axis : x y z
#
# Youngs Moduli (GPa) = 139.09584 88.06240 156.97285
#
# Poissons Ratio (x) = 0.23575 0.42488
# Poissons Ratio (y) = 0.37237 -0.04820
# Poissons Ratio (z) = 0.37649 -0.02704
#
# Static dielectric constant tensor:
#      x y z
#    x 2.919590 0.000000 0.053750 
#    y 0.000000 2.510780 0.000000 
#    z 0.053750 0.000000 2.498330 
# 
# From -- ./inp_files/210787.got.cif
#   From: 2010.05.17/outbox.cif.g08.bks.cpg/sg15_106_cif.got.tgz:210787.got - 2010.06.03 18:47:42.
