data_PCOD9295893
_publ_section_title
;
Structure prediction by ZEFSAII (Michael W. Deem and Ramdas Pophale) SiO2 
 PCOD9295893
Probable space group: C 2/C
;
_chemical_formula_sum "Si O2"
_cell_formula_units_Z 40
_cell_length_a 13.798347
_cell_length_b 4.829961
_cell_length_c 26.706047
_cell_angle_alpha 90.000000
_cell_angle_beta 125.293550
_cell_angle_gamma 90.000000
_cell_volume 1452.707868
_symmetry_space_group_name_H-M "C 2/C"
_symmetry_group_IT_number 15
_symmetry_cell_setting 'monoclinic'
loop_
_space_group_symop_operation_xyz
x,y,z
-x,y,1/2-z
-x,-y,-z
x,-y,1/2+z
1/2+x,1/2+y,z
1/2-x,1/2+y,1/2-z
1/2-x,1/2-y,-z
1/2+x,1/2-y,1/2+z
loop_
_atom_site_type_symbol
_atom_site_label
_atom_site_fract_x
_atom_site_fract_y
_atom_site_fract_z
Si Si1 0.671430 0.840696 0.741807
Si Si2 0.718829 0.943572 0.361010
Si Si3 0.791083 0.967487 0.073401
Si Si4 0.035194 0.083200 0.617027
Si Si5 0.452910 0.241169 0.519073
O O1 0.775877 0.609648 0.770783
O O2 0.651795 0.938328 0.792517
O O3 0.563910 0.695501 0.680572
O O4 0.744085 0.196807 0.405984
O O5 0.845061 0.831742 0.376675
O O6 0.656583 0.691902 0.371205
O O7 0.894173 0.858964 0.066604
O O8 0.683958 0.148850 0.019148
O O9 0.019243 0.766269 0.592345
O O10 0.500000 0.500000 0.500000
O O11 0.500000 0.000000 0.500000
#
# Coordination Sequence:
#
# PCOD9295893 Si02
#       5
#     8   8   8   8   8
#     4  10  23  43  72 101 137 189 228 287 351 411
#     4  11  24  46  68 101 146 175 236 282 348 412
#     4  12  25  44  73 106 135 190 226 287 351 420
#     4  11  25  46  73 101 144 183 235 285 350 414
#     4  12  24  45  72 102 143 184 228 294 353 413
#
# _framework density 27.534783999999998
#
# number of rings (size 3 to 8) (size 9 to 14) (size 15 to 20)
#    0.000    0.800    4.000    3.000    0.000    7.200 
#    0.000   10.000    0.000    0.000    0.000    0.000 
#    0.000    0.000    0.000    0.000    0.000    0.000 
#
# Total GULP energy -111653.816310 kJ/mol
# GULP energy per Si atom -5582.690815 kJ/mol
# Density = 2.747211 g / cm^3
# Si number density = 27.534784 Si / 1000 Ang^3
#
#
#
# Elastic Constant Matrix: (Units=GPa)
#
#
# Indices 1 2 3 4 5 6 
#
# 1 174.5920 35.4997 26.1198 0.0003 -9.9596 -0.0006
# 2 35.4997 183.3531 53.0218 0.0012 -17.6414 -0.0010
# 3 26.1198 53.0218 137.5827 -0.0001 1.1845 0.0000
# 4 0.0003 0.0012 -0.0001 65.2124 -0.0001 -11.1057
# 5 -9.9596 -17.6414 1.1845 -0.0001 33.4395 0.0003
# 6 -0.0006 -0.0010 0.0000 -11.1057 0.0003 37.8429
#
#
#
# Elastic Compliance Matrix: (Units=1/GPa)
#
#
# Indices 1 2 3 4 5 6 
#
# 1 0.006100 -0.000794 -0.000865 0.000000 0.001429 0.000000
# 2 -0.000794 0.006634 -0.002435 0.000000 0.003350 0.000000
# 3 -0.000865 -0.002435 0.008387 0.000000 -0.001839 0.000000
# 4 0.000000 0.000000 0.000000 0.016141 0.000000 0.004737
# 5 0.001429 0.003350 -0.001839 0.000000 0.032163 0.000000
# 6 0.000000 0.000000 0.000000 0.004737 0.000000 0.027815
#
#
# Mechanical properties :
#
#
# Convention : Reuss Voigt Hill
#
# Bulk Modulus (GPa) = 77.31125 80.53448 78.92287
# Shear Modulus (GPa) = 45.56356 52.69140 49.12748
#
# Velocity S-wave (km/s) = 4.07229 4.37925 4.22856
# Velocity P-wave (km/s) = 7.08873 7.40825 7.25025
#
# Compressibility (1/GPa) = 0.01293473
#
# Stress axis : x y z
#
# Youngs Moduli (GPa) = 163.93897 150.73891 119.23723
#
# Poissons Ratio (x) = 0.11962 0.10308
# Poissons Ratio (y) = 0.13009 0.29032
# Poissons Ratio (z) = 0.14173 0.36702
#
# Static dielectric constant tensor:
#      x y z
#    x 1.943730 -0.000010 -0.071370 
#    y -0.000010 2.198560 0.000000 
#    z -0.071370 0.000000 2.273650 
# 
# From -- ./inp_files/294331.got.cif
#   From: 2010.05.17/outbox.cif.g08.bks.cpg/sg15_148_cif.got.tgz:294331.got - 2010.06.03 18:47:42.
