data_PCOD9295058
_publ_section_title
;
Structure prediction by ZEFSAII (Michael W. Deem and Ramdas Pophale) SiO2 
 PCOD9295058
Probable space group: C 2/C
;
_chemical_formula_sum "Si O2"
_cell_formula_units_Z 40
_cell_length_a 23.218757
_cell_length_b 9.520641
_cell_length_c 14.558960
_cell_angle_alpha 90.000000
_cell_angle_beta 29.000816
_cell_angle_gamma 90.000000
_cell_volume 1560.335163
_symmetry_space_group_name_H-M "C 2/C"
_symmetry_group_IT_number 15
_symmetry_cell_setting 'monoclinic'
loop_
_space_group_symop_operation_xyz
x,y,z
-x,y,1/2-z
-x,-y,-z
x,-y,1/2+z
1/2+x,1/2+y,z
1/2-x,1/2+y,1/2-z
1/2-x,1/2-y,-z
1/2+x,1/2-y,1/2+z
loop_
_atom_site_type_symbol
_atom_site_label
_atom_site_fract_x
_atom_site_fract_y
_atom_site_fract_z
Si Si1 0.829493 0.453393 0.896012
Si Si2 0.886444 0.287316 0.443437
Si Si3 0.152305 0.547296 0.341172
Si Si4 0.351053 0.734812 0.136187
Si Si5 0.073360 0.853859 0.237062
O O1 0.876932 0.576564 0.892543
O O2 0.685830 0.450812 0.101425
O O3 0.872527 0.467724 0.730705
O O4 0.872636 0.298941 0.863989
O O5 0.918200 0.336530 0.502681
O O6 0.747989 0.242121 0.644437
O O7 0.000000 0.202051 0.250000
O O8 0.281986 0.618201 0.171781
O O9 0.141812 0.396903 0.405345
O O10 0.483933 0.673664 0.947537
O O11 0.000000 0.897030 0.250000
#
# Coordination Sequence:
#
# PCOD9295058 Si02
#       5
#     8   8   8   8   8
#     4  11  23  38  73  95 128 182 214 266 347 375
#     4  10  23  42  64  95 134 173 220 269 321 402
#     4  10  23  44  62  97 129 172 217 272 319 387
#     4  10  23  42  63  91 139 164 218 277 317 376
#     4  11  21  41  67  99 129 171 228 273 313 402
#
# _framework density 25.635518999999999
#
# number of rings (size 3 to 8) (size 9 to 14) (size 15 to 20)
#    1.200    0.400    2.000    3.000    2.800    4.800 
#    3.600    0.000    0.000    0.000    0.000    0.000 
#    0.000    0.000    0.000    0.000    0.000    0.000 
#
# Total GULP energy -111514.115281 kJ/mol
# GULP energy per Si atom -5575.705764 kJ/mol
# Density = 2.557717 g / cm^3
# Si number density = 25.635519 Si / 1000 Ang^3
#
#
#
# Elastic Constant Matrix: (Units=GPa)
#
#
# Indices 1 2 3 4 5 6 
#
# 1 84.8496 32.9465 29.7713 0.0000 -7.0564 0.0000
# 2 32.9465 59.1697 -1.1843 0.0000 -11.0142 0.0000
# 3 29.7713 -1.1843 217.0091 0.0000 -7.3741 0.0000
# 4 0.0000 0.0000 0.0000 19.2627 0.0000 -4.1943
# 5 -7.0564 -11.0142 -7.3741 0.0000 41.8808 0.0000
# 6 0.0000 0.0000 0.0000 -4.1943 0.0000 9.3469
#
#
#
# Elastic Compliance Matrix: (Units=1/GPa)
#
#
# Indices 1 2 3 4 5 6 
#
# 1 0.016068 -0.009003 -0.002255 0.000000 -0.000057 0.000000
# 2 -0.009003 0.022829 0.001521 0.000000 0.004755 0.000000
# 3 -0.002255 0.001521 0.004956 0.000000 0.000893 0.000000
# 4 0.000000 0.000000 0.000000 0.057535 0.000000 0.025818
# 5 -0.000057 0.004755 0.000893 0.000000 0.025275 0.000000
# 6 0.000000 0.000000 0.000000 0.025818 0.000000 0.118573
#
#
# Mechanical properties :
#
#
# Convention : Reuss Voigt Hill
#
# Bulk Modulus (GPa) = 41.01861 53.78838 47.40350
# Shear Modulus (GPa) = 18.32600 34.06442 26.19521
#
# Velocity S-wave (km/s) = 2.67660 3.64922 3.20008
# Velocity P-wave (km/s) = 5.05843 6.22762 5.67323
#
# Compressibility (1/GPa) = 0.02437918
#
# Stress axis : x y z
#
# Youngs Moduli (GPa) = 62.23631 43.80426 201.76934
#
# Poissons Ratio (x) = 0.39435 0.45507
# Poissons Ratio (y) = 0.56029 -0.30693
# Poissons Ratio (z) = 0.14037 -0.06664
#
# Static dielectric constant tensor:
#      x y z
#    x 1.997200 0.000000 0.024840 
#    y 0.000000 1.935440 0.000000 
#    z 0.024840 0.000000 2.163700 
# 
# From -- ./inp_files/151459.got.cif
#   From: 2010.05.17/outbox.cif.g08.bks.cpg/sg15_76_cif.got.tgz:151459.got - 2010.06.03 18:47:42.
