data_PCOD9295451
_publ_section_title
;
Structure prediction by ZEFSAII (Michael W. Deem and Ramdas Pophale) SiO2 
 PCOD9295451
Probable space group: C 2/C
;
_chemical_formula_sum "Si O2"
_cell_formula_units_Z 40
_cell_length_a 9.690254
_cell_length_b 14.043567
_cell_length_c 14.423374
_cell_angle_alpha 90.000000
_cell_angle_beta 119.704498
_cell_angle_gamma 90.000000
_cell_volume 1704.886961
_symmetry_space_group_name_H-M "C 2/C"
_symmetry_group_IT_number 15
_symmetry_cell_setting 'monoclinic'
loop_
_space_group_symop_operation_xyz
x,y,z
-x,y,1/2-z
-x,-y,-z
x,-y,1/2+z
1/2+x,1/2+y,z
1/2-x,1/2+y,1/2-z
1/2-x,1/2-y,-z
1/2+x,1/2-y,1/2+z
loop_
_atom_site_type_symbol
_atom_site_label
_atom_site_fract_x
_atom_site_fract_y
_atom_site_fract_z
Si Si1 0.091438 0.259758 0.183884
Si Si2 0.507532 0.919040 0.858636
Si Si3 0.041127 0.205514 0.669757
Si Si4 0.014835 0.892734 0.971022
Si Si5 0.145531 0.403401 0.502104
O O1 0.269062 0.290942 0.264495
O O2 0.000000 0.255921 0.250000
O O3 0.993279 0.333192 0.084083
O O4 0.103177 0.155408 0.141101
O O5 0.500000 0.957595 0.750000
O O6 0.545819 0.808150 0.857001
O O7 0.621079 0.991667 0.950374
O O8 0.366925 0.911252 0.890239
O O9 0.990931 0.161923 0.557882
O O10 0.000000 0.150665 0.750000
O O11 0.185567 0.870955 0.980954
O O12 0.000000 0.000000 0.000000
#
# Coordination Sequence:
#
# PCOD9295451 Si02
#       5
#     8   8   8   8   8
#     4  12  24  45  79  98 142 193 241 292 355 430
#     4  10  23  42  72 101 140 182 238 291 355 420
#     4  11  26  45  72 107 145 185 239 295 363 418
#     4  12  28  46  69 111 145 182 245 297 353 424
#     4  11  23  46  73 103 141 190 241 291 354 435
#
# _framework density 23.461966
#
# number of rings (size 3 to 8) (size 9 to 14) (size 15 to 20)
#    0.000    0.800    4.000    2.400    5.600    4.800 
#    0.000    0.000    0.000    0.000    0.000    0.000 
#    0.000    0.000    0.000    0.000    0.000    0.000 
#
# Total GULP energy -111689.456880 kJ/mol
# GULP energy per Si atom -5584.472844 kJ/mol
# Density = 2.340857 g / cm^3
# Si number density = 23.461966 Si / 1000 Ang^3
#
#
#
# Elastic Constant Matrix: (Units=GPa)
#
#
# Indices 1 2 3 4 5 6 
#
# 1 63.6247 6.5647 37.0538 0.0000 -39.9997 0.0000
# 2 6.5647 76.7028 30.6569 0.0000 -1.1514 0.0000
# 3 37.0538 30.6569 130.9659 0.0000 -50.9305 0.0000
# 4 0.0000 0.0000 0.0000 25.7058 0.0000 -9.7997
# 5 -39.9997 -1.1514 -50.9305 0.0000 51.6512 0.0000
# 6 0.0000 0.0000 0.0000 -9.7997 0.0000 137.9934
#
#
#
# Elastic Compliance Matrix: (Units=1/GPa)
#
#
# Indices 1 2 3 4 5 6 
#
# 1 0.031321 -0.003112 0.002064 0.000000 0.026222 0.000000
# 2 -0.003112 0.015487 -0.005754 0.000000 -0.007739 0.000000
# 3 0.002064 -0.005754 0.014549 0.000000 0.015817 0.000000
# 4 0.000000 0.000000 0.000000 0.039984 0.000000 0.002840
# 5 0.026222 -0.007739 0.015817 0.000000 0.055091 0.000000
# 6 0.000000 0.000000 0.000000 0.002840 0.000000 0.007448
#
#
# Mechanical properties :
#
#
# Convention : Reuss Voigt Hill
#
# Bulk Modulus (GPa) = 20.94088 46.64933 33.79510
# Shear Modulus (GPa) = 25.85263 56.20461 41.02862
#
# Velocity S-wave (km/s) = 3.32308 4.89976 4.18632
# Velocity P-wave (km/s) = 4.86505 7.20668 6.14837
#
# Compressibility (1/GPa) = 0.04775349
#
# Stress axis : x y z
#
# Youngs Moduli (GPa) = 31.92714 64.56850 68.73128
#
# Poissons Ratio (x) = 0.20094 -0.14186
# Poissons Ratio (y) = 0.09936 0.39551
# Poissons Ratio (z) = -0.06590 0.37155
#
# Static dielectric constant tensor:
#      x y z
#    x 14.185280 0.000000 1.452990 
#    y 0.000000 1.609340 0.000000 
#    z 1.452990 0.000000 2.044260 
# 
# From -- ./inp_files/133301.got.cif
#   From: 2010.05.17/outbox.cif.g08.bks.cpg/sg15_67_cif.got.tgz:133301.got - 2010.06.03 18:47:42.
