data_PCOD9295254
_publ_section_title
;
Structure prediction by ZEFSAII (Michael W. Deem and Ramdas Pophale) SiO2 
 PCOD9295254
Probable space group: C 2/C
;
_chemical_formula_sum "Si O2"
_cell_formula_units_Z 44
_cell_length_a 22.363017
_cell_length_b 7.492822
_cell_length_c 27.800507
_cell_angle_alpha 90.000000
_cell_angle_beta 158.202681
_cell_angle_gamma 90.000000
_cell_volume 1729.744670
_symmetry_space_group_name_H-M "C 2/C"
_symmetry_group_IT_number 15
_symmetry_cell_setting 'monoclinic'
loop_
_space_group_symop_operation_xyz
x,y,z
-x,y,1/2-z
-x,-y,-z
x,-y,1/2+z
1/2+x,1/2+y,z
1/2-x,1/2+y,1/2-z
1/2-x,1/2-y,-z
1/2+x,1/2-y,1/2+z
loop_
_atom_site_type_symbol
_atom_site_label
_atom_site_fract_x
_atom_site_fract_y
_atom_site_fract_z
Si Si1 0.688062 0.534570 0.647054
Si Si2 0.319126 0.257439 0.447631
Si Si3 0.377031 0.336616 0.019295
Si Si4 0.948517 0.465227 0.907141
Si Si5 0.568872 0.839604 0.740048
Si Si6 0.000000 0.667720 0.750000
O O1 0.500000 0.500000 0.500000
O O2 0.718572 0.711649 0.637688
O O3 0.376729 0.451941 0.509000
O O4 0.764122 0.512671 0.756587
O O5 0.451621 0.107779 0.550040
O O6 0.203774 0.609878 0.300748
O O7 0.157873 0.220536 0.356728
O O8 0.447270 0.291229 0.123680
O O9 0.486477 0.224447 0.063221
O O10 0.190154 0.276267 0.872636
O O11 0.000000 0.500000 0.000000
O O12 0.489531 0.025966 0.697969
#
# Coordination Sequence:
#
# PCOD9295254 Si02
#       6
#     8   8   8   8   8   4
#     4   9  21  41  60  90 135 172 215 282 340 394
#     4  10  23  42  67  95 134 179 217 282 350 402
#     4   9  21  41  60  93 133 166 225 274 337 394
#     4  11  25  40  65  99 128 176 237 275 335 420
#     4   9  19  37  66  92 127 176 221 269 338 410
#     4   8  18  42  68  96 138 178 218 284 352 398
#
# _framework density 25.437279
#
# number of rings (size 3 to 8) (size 9 to 14) (size 15 to 20)
#    0.000    2.909    0.000    0.000    5.091    8.727 
#    0.000   11.818    0.000    0.000    0.000    0.000 
#    0.000    0.000    0.000    0.000    0.000    0.000 
#
# Total GULP energy -122903.315273 kJ/mol
# GULP energy per Si atom -5586.514331 kJ/mol
# Density = 2.537938 g / cm^3
# Si number density = 25.437279 Si / 1000 Ang^3
#
#
#
# Elastic Constant Matrix: (Units=GPa)
#
#
# Indices 1 2 3 4 5 6 
#
# 1 94.4089 12.4978 53.4151 0.0003 0.5318 -0.0005
# 2 12.4978 96.2485 41.5280 0.0043 -0.1667 -0.0003
# 3 53.4151 41.5280 180.8713 0.0230 -11.1135 0.0004
# 4 0.0003 0.0043 0.0230 22.6181 -0.0046 13.2138
# 5 0.5318 -0.1667 -11.1135 -0.0046 36.9679 -0.0012
# 6 -0.0005 -0.0003 0.0004 13.2138 -0.0012 24.1915
#
#
#
# Elastic Compliance Matrix: (Units=1/GPa)
#
#
# Indices 1 2 3 4 5 6 
#
# 1 0.012782 0.000003 -0.003858 0.000005 -0.001344 -0.000002
# 2 0.000003 0.011553 -0.002700 0.000000 -0.000760 0.000000
# 3 -0.003858 -0.002700 0.007428 -0.000010 0.002276 0.000005
# 4 0.000005 0.000000 -0.000010 0.064933 0.000004 -0.035467
# 5 -0.001344 -0.000760 0.002276 0.000004 0.027751 -0.000001
# 6 -0.000002 0.000000 0.000005 -0.035467 -0.000001 0.060710
#
#
# Mechanical properties :
#
#
# Convention : Reuss Voigt Hill
#
# Bulk Modulus (GPa) = 53.61275 65.15672 59.38474
# Shear Modulus (GPa) = 24.45170 34.36135 29.40652
#
# Velocity S-wave (km/s) = 3.10377 3.67935 3.40375
# Velocity P-wave (km/s) = 5.82810 6.61214 6.23246
#
# Compressibility (1/GPa) = 0.01865228
#
# Stress axis : x y z
#
# Youngs Moduli (GPa) = 78.23338 86.55691 134.62692
#
# Poissons Ratio (x) = -0.00022 0.51939
# Poissons Ratio (y) = -0.00020 0.36349
# Poissons Ratio (z) = 0.30183 0.23370
#
# Static dielectric constant tensor:
#      x y z
#    x 2.199930 0.000000 -0.035290 
#    y 0.000000 2.020070 -0.000010 
#    z -0.035290 -0.000010 2.050800 
# 
# From -- ./inp_files/318655.got.cif
#   From: 2010.05.17/outbox.cif.g08.bks.cpg/sg15_160_cif.got.tgz:318655.got - 2010.06.03 18:47:42.
