data_PCOD9295800
_publ_section_title
;
Structure prediction by ZEFSAII (Michael W. Deem and Ramdas Pophale) SiO2 
 PCOD9295800
Probable space group: C 2/C
;
_chemical_formula_sum "Si O2"
_cell_formula_units_Z 64
_cell_length_a 22.102375
_cell_length_b 8.502693
_cell_length_c 27.022501
_cell_angle_alpha 90.000000
_cell_angle_beta 32.877613
_cell_angle_gamma 90.000000
_cell_volume 2756.753296
_symmetry_space_group_name_H-M "C 2/C"
_symmetry_group_IT_number 15
_symmetry_cell_setting 'monoclinic'
loop_
_space_group_symop_operation_xyz
x,y,z
-x,y,1/2-z
-x,-y,-z
x,-y,1/2+z
1/2+x,1/2+y,z
1/2-x,1/2+y,1/2-z
1/2-x,1/2-y,-z
1/2+x,1/2-y,1/2+z
loop_
_atom_site_type_symbol
_atom_site_label
_atom_site_fract_x
_atom_site_fract_y
_atom_site_fract_z
Si Si1 0.759283 0.199624 0.760146
Si Si2 0.001692 0.311820 0.925603
Si Si3 0.186142 0.133006 0.506408
Si Si4 0.340206 0.868979 0.416667
Si Si5 0.271565 0.380355 0.812606
Si Si6 0.090270 0.626760 0.523431
Si Si7 0.963945 0.841245 0.551543
Si Si8 0.983851 0.074910 0.312958
O O1 0.742028 0.226323 0.712867
O O2 0.744430 0.030658 0.796198
O O3 0.666013 0.315111 0.848022
O O4 0.889483 0.245528 0.676619
O O5 0.888467 0.230175 0.981833
O O6 0.002120 0.498745 0.925090
O O7 0.002778 0.278370 0.982954
O O8 0.250000 0.250000 0.500000
O O9 0.098540 0.027902 0.597220
O O10 0.281410 0.004436 0.424789
O O11 0.250000 0.750000 0.500000
O O12 0.384273 0.930627 0.438736
O O13 0.429105 0.743741 0.336976
O O14 0.195347 0.382317 0.914323
O O15 0.398303 0.397533 0.742542
O O16 0.034575 0.796857 0.552102
O O17 0.000000 0.000000 0.500000
O O18 0.000000 0.986720 0.250000
#
# Coordination Sequence:
#
# PCOD9295800 Si02
#       8
#     8   8   8   8   8   8   8   8
#     4  12  25  43  70 103 147 185 242 294 362 436
#     4  12  24  46  71 103 142 184 242 293 366 439
#     4  11  23  45  73 102 135 185 236 304 364 432
#     4  10  23  43  69  99 133 184 233 289 360 431
#     4  12  24  45  69 106 142 192 234 301 364 431
#     4  12  24  46  73  98 141 192 237 289 367 434
#     4  12  27  44  68 106 144 191 235 300 361 429
#     4  11  25  46  73 104 142 186 245 298 370 440
#
# _framework density 23.215713999999998
#
# number of rings (size 3 to 8) (size 9 to 14) (size 15 to 20)
#    0.000    0.500    5.000    4.125    3.500    0.000 
#    0.000    0.625    0.000    0.000    0.000    0.000 
#    0.000    0.000    0.000    0.000    0.000    0.000 
#
# Total GULP energy -178594.831641 kJ/mol
# GULP energy per Si atom -5581.088489 kJ/mol
# Density = 2.316287 g / cm^3
# Si number density = 23.215714 Si / 1000 Ang^3
#
#
#
# Elastic Constant Matrix: (Units=GPa)
#
#
# Indices 1 2 3 4 5 6 
#
# 1 65.5602 11.4029 21.9647 -0.0031 -26.2393 0.0041
# 2 11.4029 60.9640 8.2043 -0.0041 -13.5886 0.0029
# 3 21.9647 8.2043 126.7752 -0.0008 -11.2609 0.0028
# 4 -0.0031 -0.0041 -0.0008 20.8722 0.0021 1.8085
# 5 -26.2393 -13.5886 -11.2609 0.0021 46.5072 -0.0044
# 6 0.0041 0.0029 0.0028 1.8085 -0.0044 41.3431
#
#
#
# Elastic Compliance Matrix: (Units=1/GPa)
#
#
# Indices 1 2 3 4 5 6 
#
# 1 0.020568 -0.001129 -0.002544 0.000002 0.010658 -0.000001
# 2 -0.001129 0.017668 -0.000558 0.000003 0.004390 -0.000001
# 3 -0.002544 -0.000558 0.008404 0.000000 0.000437 0.000000
# 4 0.000002 0.000003 0.000000 0.048093 -0.000001 -0.002104
# 5 0.010658 0.004390 0.000437 -0.000001 0.028904 0.000002
# 6 -0.000001 -0.000001 0.000000 -0.002104 0.000002 0.024280
#
#
# Mechanical properties :
#
#
# Convention : Reuss Voigt Hill
#
# Bulk Modulus (GPa) = 26.19301 37.38257 31.78779
# Shear Modulus (GPa) = 29.56783 35.85968 32.71375
#
# Velocity S-wave (km/s) = 3.57264 3.93444 3.75790
# Velocity P-wave (km/s) = 5.32215 6.06440 5.70536
#
# Compressibility (1/GPa) = 0.03817813
#
# Stress axis : x y z
#
# Youngs Moduli (GPa) = 48.62025 56.59977 118.99701
#
# Poissons Ratio (x) = 0.06390 0.30269
# Poissons Ratio (y) = 0.05489 0.06638
# Poissons Ratio (z) = 0.12367 0.03157
#
# Static dielectric constant tensor:
#      x y z
#    x 1.895370 0.000000 -0.015550 
#    y 0.000000 1.959110 -0.000010 
#    z -0.015550 -0.000010 1.897940 
# 
# From -- ./inp_files/318609.got.cif
#   From: 2010.05.17/outbox.cif.g08.bks.cpg/sg15_160_cif.got.tgz:318609.got - 2010.06.03 18:47:42.
