data_PCOD9295077
_publ_section_title
;
Structure prediction by ZEFSAII (Michael W. Deem and Ramdas Pophale) SiO2 
 PCOD9295077
Probable space group: C 2/C
;
_chemical_formula_sum "Si O2"
_cell_formula_units_Z 44
_cell_length_a 11.121020
_cell_length_b 22.665064
_cell_length_c 13.250985
_cell_angle_alpha 90.000000
_cell_angle_beta 34.740626
_cell_angle_gamma 90.000000
_cell_volume 1903.354493
_symmetry_space_group_name_H-M "C 2/C"
_symmetry_group_IT_number 15
_symmetry_cell_setting 'monoclinic'
loop_
_space_group_symop_operation_xyz
x,y,z
-x,y,1/2-z
-x,-y,-z
x,-y,1/2+z
1/2+x,1/2+y,z
1/2-x,1/2+y,1/2-z
1/2-x,1/2-y,-z
1/2+x,1/2-y,1/2+z
loop_
_atom_site_type_symbol
_atom_site_label
_atom_site_fract_x
_atom_site_fract_y
_atom_site_fract_z
Si Si1 0.260546 0.558540 0.788396
Si Si2 0.399290 0.190165 0.605676
Si Si3 0.113914 0.194717 0.275300
Si Si4 0.126395 0.876356 0.963147
Si Si5 0.500000 0.305607 0.250000
Si Si6 0.983387 0.541332 0.155964
O O1 0.163343 0.622766 0.827042
O O2 0.492073 0.565702 0.584685
O O3 0.156804 0.500320 0.816436
O O4 0.201137 0.554448 0.947974
O O5 0.634591 0.186751 0.401397
O O6 0.417508 0.235787 0.684492
O O7 0.215851 0.217087 0.657198
O O8 0.038482 0.159692 0.427414
O O9 0.000000 0.176174 0.250000
O O10 0.353960 0.899880 0.772827
O O11 0.103629 0.838860 0.081641
O O12 0.000000 0.508170 0.250000
#
# Coordination Sequence:
#
# PCOD9295077 Si02
#       6
#     8   8   8   8   4   8
#     4  10  23  42  63  99 135 172 231 270 340 413
#     4  11  23  45  66 102 139 172 236 280 342 413
#     4  12  27  44  70  98 142 189 225 281 342 415
#     4  11  23  44  67 100 139 177 230 281 347 402
#     4  10  24  42  74 102 134 180 222 296 344 400
#     4  11  22  40  68  97 135 180 220 287 342 401
#
# _framework density 23.117080999999999
#
# number of rings (size 3 to 8) (size 9 to 14) (size 15 to 20)
#    0.000    1.091    1.818    5.455    0.000    5.091 
#    0.000    0.000    0.000    0.000    0.000    0.000 
#    0.000    0.000    0.000    0.000    0.000    0.000 
#
# Total GULP energy -122589.393808 kJ/mol
# GULP energy per Si atom -5572.245173 kJ/mol
# Density = 2.306447 g / cm^3
# Si number density = 23.117081 Si / 1000 Ang^3
#
#
#
# Elastic Constant Matrix: (Units=GPa)
#
#
# Indices 1 2 3 4 5 6 
#
# 1 117.7835 26.7638 65.4831 -0.0009 21.8214 0.0004
# 2 26.7638 52.9507 22.2283 -0.0001 10.3623 0.0000
# 3 65.4831 22.2283 125.4789 -0.0007 15.1238 0.0003
# 4 -0.0009 -0.0001 -0.0007 36.8624 0.0008 4.1301
# 5 21.8214 10.3623 15.1238 0.0008 41.1169 -0.0003
# 6 0.0004 0.0000 0.0003 4.1301 -0.0003 36.7440
#
#
#
# Elastic Compliance Matrix: (Units=1/GPa)
#
#
# Indices 1 2 3 4 5 6 
#
# 1 0.013260 -0.003472 -0.005820 0.000000 -0.004021 0.000000
# 2 -0.003472 0.021957 -0.001709 0.000000 -0.003063 0.000000
# 3 -0.005820 -0.001709 0.011390 0.000000 -0.000670 0.000000
# 4 0.000000 0.000000 0.000000 0.027474 -0.000001 -0.003088
# 5 -0.004021 -0.003063 -0.000670 -0.000001 0.027473 0.000000
# 6 0.000000 0.000000 0.000000 -0.003088 0.000000 0.027562
#
#
# Mechanical properties :
#
#
# Convention : Reuss Voigt Hill
#
# Bulk Modulus (GPa) = 40.64097 58.35150 49.49623
# Shear Modulus (GPa) = 31.38336 35.06054 33.22195
#
# Velocity S-wave (km/s) = 3.68854 3.89865 3.79505
# Velocity P-wave (km/s) = 5.97989 6.74999 6.37658
#
# Compressibility (1/GPa) = 0.02460571
#
# Stress axis : x y z
#
# Youngs Moduli (GPa) = 75.41545 45.54367 87.79452
#
# Poissons Ratio (x) = 0.15813 0.51098
# Poissons Ratio (y) = 0.26184 0.15001
# Poissons Ratio (z) = 0.43893 0.07782
#
# Static dielectric constant tensor:
#      x y z
#    x 1.930500 0.000000 -0.012810 
#    y 0.000000 1.875290 0.000000 
#    z -0.012810 0.000000 1.932130 
# 
# From -- ./inp_files/91108.got.cif
#   From: 2010.05.17/outbox.cif.g08.bks.cpg/sg15_46_cif.got.tgz:91108.got - 2010.06.03 18:47:42.
