data_PCOD9295070
_publ_section_title
;
Structure prediction by ZEFSAII (Michael W. Deem and Ramdas Pophale) SiO2 
 PCOD9295070
Probable space group: C 2/C
;
_chemical_formula_sum "Si O2"
_cell_formula_units_Z 40
_cell_length_a 16.190888
_cell_length_b 7.508822
_cell_length_c 22.509566
_cell_angle_alpha 90.000000
_cell_angle_beta 143.777224
_cell_angle_gamma 90.000000
_cell_volume 1617.122772
_symmetry_space_group_name_H-M "C 2/C"
_symmetry_group_IT_number 15
_symmetry_cell_setting 'monoclinic'
loop_
_space_group_symop_operation_xyz
x,y,z
-x,y,1/2-z
-x,-y,-z
x,-y,1/2+z
1/2+x,1/2+y,z
1/2-x,1/2+y,1/2-z
1/2-x,1/2-y,-z
1/2+x,1/2-y,1/2+z
loop_
_atom_site_type_symbol
_atom_site_label
_atom_site_fract_x
_atom_site_fract_y
_atom_site_fract_z
Si Si1 0.580373 0.536334 0.714824
Si Si2 0.568948 0.078054 0.949972
Si Si3 0.287936 0.764214 0.399173
Si Si4 0.685158 0.561771 0.499066
Si Si5 0.299330 0.144004 0.274838
O O1 0.635574 0.646289 0.802571
O O2 0.426683 0.466199 0.618708
O O3 0.608943 0.676768 0.677093
O O4 0.694388 0.383648 0.768169
O O5 0.616733 0.276508 0.997325
O O6 0.411495 0.018041 0.841678
O O7 0.664904 0.076830 0.945916
O O8 0.615497 0.928378 0.024633
O O9 0.301721 0.614947 0.455581
O O10 0.296067 0.666490 0.339836
#
# Coordination Sequence:
#
# PCOD9295070 Si02
#       5
#     8   8   8   8   8
#     4  10  23  42  63  94 133 166 212 268 312 379
#     4  11  24  43  67  98 131 166 216 267 318 385
#     4  10  23  43  69  93 127 177 209 264 324 381
#     4  11  24  43  67  98 131 166 216 267 318 385
#     4  10  23  42  63  94 133 166 212 268 312 379
#
# _framework density 24.735288000000001
#
# number of rings (size 3 to 8) (size 9 to 14) (size 15 to 20)
#    1.200    0.400    2.000    1.800    0.000    8.000 
#    0.000    4.000    0.000    0.000    0.000    0.000 
#    0.000    0.000    0.000    0.000    0.000    0.000 
#
# Total GULP energy -111444.313689 kJ/mol
# GULP energy per Si atom -5572.215684 kJ/mol
# Density = 2.467899 g / cm^3
# Si number density = 24.735288 Si / 1000 Ang^3
#
#
#
# Elastic Constant Matrix: (Units=GPa)
#
#
# Indices 1 2 3 4 5 6 
#
# 1 58.1991 25.6476 39.2176 0.0000 16.8137 0.0000
# 2 25.6476 140.3788 60.5598 0.0000 -8.4386 0.0000
# 3 39.2176 60.5598 117.3282 0.0000 -1.9828 0.0000
# 4 0.0000 0.0000 0.0000 38.0993 0.0000 -2.2665
# 5 16.8137 -8.4386 -1.9828 0.0000 17.3381 0.0000
# 6 0.0000 0.0000 0.0000 -2.2665 0.0000 19.1493
#
#
#
# Elastic Compliance Matrix: (Units=1/GPa)
#
#
# Indices 1 2 3 4 5 6 
#
# 1 0.038653 -0.004704 -0.011186 0.000000 -0.041053 0.000000
# 2 -0.004704 0.010012 -0.003442 0.000000 0.009041 0.000000
# 3 -0.011186 -0.003442 0.014221 0.000000 0.010798 0.000000
# 4 0.000000 0.000000 0.000000 0.026433 0.000000 0.003129
# 5 -0.041053 0.009041 0.010798 0.000000 0.103122 0.000000
# 6 0.000000 0.000000 0.000000 0.003129 0.000000 0.052592
#
#
# Mechanical properties :
#
#
# Convention : Reuss Voigt Hill
#
# Bulk Modulus (GPa) = 41.28586 62.97290 52.12938
# Shear Modulus (GPa) = 17.13671 27.61608 22.37640
#
# Velocity S-wave (km/s) = 2.63497 3.34498 3.01098
# Velocity P-wave (km/s) = 5.09752 6.35866 5.76269
#
# Compressibility (1/GPa) = 0.02422137
#
# Stress axis : x y z
#
# Youngs Moduli (GPa) = 25.87119 99.88434 70.31741
#
# Poissons Ratio (x) = 0.46988 0.78654
# Poissons Ratio (y) = 0.12171 0.24206
# Poissons Ratio (z) = 0.28939 0.34383
#
# Static dielectric constant tensor:
#      x y z
#    x 2.045660 0.000000 0.017850 
#    y 0.000000 2.061840 0.000000 
#    z 0.017850 0.000000 1.931120 
# 
# From -- ./inp_files/298297.got.cif
#   From: 2010.05.17/outbox.cif.g08.bks.cpg/sg15_150_cif.got.tgz:298297.got - 2010.06.03 18:47:42.
