data_PCOD9295355
_publ_section_title
;
Structure prediction by ZEFSAII (Michael W. Deem and Ramdas Pophale) SiO2 
 PCOD9295355
Probable space group: C 2/C
;
_chemical_formula_sum "Si O2"
_cell_formula_units_Z 40
_cell_length_a 5.216261
_cell_length_b 15.267457
_cell_length_c 21.936015
_cell_angle_alpha 90.000000
_cell_angle_beta 104.003670
_cell_angle_gamma 90.000000
_cell_volume 1695.043840
_symmetry_space_group_name_H-M "C 2/C"
_symmetry_group_IT_number 15
_symmetry_cell_setting 'monoclinic'
loop_
_space_group_symop_operation_xyz
x,y,z
-x,y,1/2-z
-x,-y,-z
x,-y,1/2+z
1/2+x,1/2+y,z
1/2-x,1/2+y,1/2-z
1/2-x,1/2-y,-z
1/2+x,1/2-y,1/2+z
loop_
_atom_site_type_symbol
_atom_site_label
_atom_site_fract_x
_atom_site_fract_y
_atom_site_fract_z
Si Si1 0.000000 0.521739 0.250000
Si Si2 0.053717 0.910159 0.103137
Si Si3 0.846404 0.367302 0.320177
Si Si4 0.939489 0.895420 0.854434
Si Si5 0.982085 0.805455 0.983345
Si Si6 0.000000 0.787468 0.750000
O O1 0.189190 0.454004 0.223849
O O2 0.831293 0.580922 0.195384
O O3 0.851610 0.859719 0.135380
O O4 0.352127 0.882360 0.138813
O O5 0.981399 0.010438 0.114293
O O6 0.017534 0.887649 0.030600
O O7 0.821800 0.281761 0.276753
O O8 0.920469 0.833025 0.911155
O O9 0.107811 0.849432 0.810372
O O10 0.250000 0.750000 0.000000
O O11 0.750000 0.750000 0.000000
#
# Coordination Sequence:
#
# PCOD9295355 Si02
#       6
#     4   8   8   8   8   4
#     4   9  22  42  66 101 136 176 224 277 340 404
#     4  11  23  46  69  97 131 176 225 277 333 394
#     4  10  23  42  69  96 134 173 218 276 334 398
#     4  11  24  42  69 102 138 180 227 280 338 411
#     4  12  27  47  70 100 136 180 231 285 341 402
#     4  11  22  38  62  99 134 174 216 267 334 400
#
# _framework density 23.598210999999999
#
# number of rings (size 3 to 8) (size 9 to 14) (size 15 to 20)
#    0.000    1.200    0.000    5.400    0.000   14.400 
#    0.000    7.000    0.000    0.000    0.000    0.000 
#    0.000    0.000    0.000    0.000    0.000    0.000 
#
# Total GULP energy -111908.934002 kJ/mol
# GULP energy per Si atom -5595.446700 kJ/mol
# Density = 2.354450 g / cm^3
# Si number density = 23.598211 Si / 1000 Ang^3
#
#
#
# Elastic Constant Matrix: (Units=GPa)
#
#
# Indices 1 2 3 4 5 6 
#
# 1 123.1297 32.3446 45.0882 0.0000 -13.6315 0.0000
# 2 32.3446 145.9375 74.9640 0.0000 -7.5720 0.0000
# 3 45.0882 74.9640 199.2880 0.0000 -28.3156 0.0000
# 4 0.0000 0.0000 0.0000 64.7822 0.0000 -12.1571
# 5 -13.6315 -7.5720 -28.3156 0.0000 36.7198 0.0000
# 6 0.0000 0.0000 0.0000 -12.1571 0.0000 15.9111
#
#
#
# Elastic Compliance Matrix: (Units=1/GPa)
#
#
# Indices 1 2 3 4 5 6 
#
# 1 0.009163 -0.001253 -0.001297 0.000000 0.002143 0.000000
# 2 -0.001253 0.008686 -0.003139 0.000000 -0.001095 0.000000
# 3 -0.001297 -0.003139 0.007111 0.000000 0.004355 0.000000
# 4 0.000000 0.000000 0.000000 0.018020 0.000000 0.013769
# 5 0.002143 -0.001095 0.004355 0.000000 0.031161 0.000000
# 6 0.000000 0.000000 0.000000 0.013769 0.000000 0.073369
#
#
# Mechanical properties :
#
#
# Convention : Reuss Voigt Hill
#
# Bulk Modulus (GPa) = 73.63680 85.90543 79.77112
# Shear Modulus (GPa) = 30.59670 44.54650 37.57160
#
# Velocity S-wave (km/s) = 3.60470 4.34949 3.99449
# Velocity P-wave (km/s) = 6.97117 7.85535 7.42643
#
# Compressibility (1/GPa) = 0.01358017
#
# Stress axis : x y z
#
# Youngs Moduli (GPa) = 109.13468 115.13103 140.62901
#
# Poissons Ratio (x) = 0.14430 0.18242
# Poissons Ratio (y) = 0.13678 0.44147
# Poissons Ratio (z) = 0.14157 0.36142
#
# Static dielectric constant tensor:
#      x y z
#    x 1.894350 0.000000 0.007390 
#    y 0.000000 1.957320 0.000000 
#    z 0.007390 0.000000 1.881380 
# 
# From -- ./inp_files/260485.got.cif
#   From: 2010.05.17/outbox.cif.g08.bks.cpg/sg15_131_cif.got.tgz:260485.got - 2010.06.03 18:47:42.
