data_PCOD9295229
_publ_section_title
;
Structure prediction by ZEFSAII (Michael W. Deem and Ramdas Pophale) SiO2 
 PCOD9295229
Probable space group: C 2/C
;
_chemical_formula_sum "Si O2"
_cell_formula_units_Z 52
_cell_length_a 16.272476
_cell_length_b 8.027942
_cell_length_c 26.855582
_cell_angle_alpha 90.000000
_cell_angle_beta 135.322724
_cell_angle_gamma 90.000000
_cell_volume 2466.706059
_symmetry_space_group_name_H-M "C 2/C"
_symmetry_group_IT_number 15
_symmetry_cell_setting 'monoclinic'
loop_
_space_group_symop_operation_xyz
x,y,z
-x,y,1/2-z
-x,-y,-z
x,-y,1/2+z
1/2+x,1/2+y,z
1/2-x,1/2+y,1/2-z
1/2-x,1/2-y,-z
1/2+x,1/2-y,1/2+z
loop_
_atom_site_type_symbol
_atom_site_label
_atom_site_fract_x
_atom_site_fract_y
_atom_site_fract_z
Si Si1 0.963811 0.891660 0.426056
Si Si2 0.361906 0.322947 0.482995
Si Si3 0.095576 0.347036 0.394621
Si Si4 0.751294 0.529785 0.203834
Si Si5 0.979568 0.295473 0.827842
Si Si6 0.500000 0.441316 0.250000
Si Si7 0.368188 0.673627 0.253760
O O1 0.924956 0.785471 0.457449
O O2 0.862820 0.035428 0.379417
O O3 0.960600 0.788503 0.373468
O O4 0.084217 0.993373 0.481628
O O5 0.221156 0.328201 0.422233
O O6 0.392218 0.200440 0.541861
O O7 0.049848 0.534256 0.366161
O O8 0.994691 0.226194 0.330018
O O9 0.702194 0.561441 0.237777
O O10 0.802065 0.346009 0.217651
O O11 0.858357 0.655872 0.247624
O O12 0.034003 0.167132 0.812531
O O13 0.392900 0.561247 0.217380
#
# Coordination Sequence:
#
# PCOD9295229 Si02
#       7
#     8   8   8   8   8   4   8
#     4  11  22  42  63  92 128 174 210 263 306 399
#     4  10  23  42  67  87 129 175 217 250 320 366
#     4  10  23  43  65  97 125 170 212 270 307 386
#     4  11  21  41  64  95 125 167 203 275 315 393
#     4  11  25  40  66  96 133 158 218 261 331 367
#     4  12  24  40  58 102 124 170 198 272 326 378
#     4  11  22  39  66  92 130 160 215 260 335 369
#
# _framework density 21.080743999999999
#
# number of rings (size 3 to 8) (size 9 to 14) (size 15 to 20)
#    0.000    1.231    4.615    0.000    4.308    2.462 
#    0.000    0.000    0.000    0.000    0.000    0.000 
#    0.000    0.000    0.000    0.000    0.000    0.000 
#
# Total GULP energy -145129.870561 kJ/mol
# GULP energy per Si atom -5581.918099 kJ/mol
# Density = 2.103276 g / cm^3
# Si number density = 21.080744 Si / 1000 Ang^3
#
#
#
# Elastic Constant Matrix: (Units=GPa)
#
#
# Indices 1 2 3 4 5 6 
#
# 1 115.0490 53.5469 38.8704 0.0000 -9.6396 0.0000
# 2 53.5469 101.9904 25.6997 0.0000 -10.9747 0.0000
# 3 38.8704 25.6997 65.5507 0.0000 1.5679 0.0000
# 4 0.0000 0.0000 0.0000 19.7252 0.0000 -0.9559
# 5 -9.6396 -10.9747 1.5679 0.0000 41.2402 0.0000
# 6 0.0000 0.0000 0.0000 -0.9559 0.0000 38.4766
#
#
#
# Elastic Compliance Matrix: (Units=1/GPa)
#
#
# Indices 1 2 3 4 5 6 
#
# 1 0.013297 -0.005300 -0.005853 0.000000 0.001920 0.000000
# 2 -0.005300 0.013392 -0.002165 0.000000 0.002407 0.000000
# 3 -0.005853 -0.002165 0.019639 0.000000 -0.002691 0.000000
# 4 0.000000 0.000000 0.000000 0.050758 0.000000 0.001261
# 5 0.001920 0.002407 -0.002691 0.000000 0.025440 0.000000
# 6 0.000000 0.000000 0.000000 0.001261 0.000000 0.026021
#
#
# Mechanical properties :
#
#
# Convention : Reuss Voigt Hill
#
# Bulk Modulus (GPa) = 50.78160 57.64713 54.21436
# Shear Modulus (GPa) = 27.51073 30.85329 29.18201
#
# Velocity S-wave (km/s) = 3.61642 3.82982 3.72465
# Velocity P-wave (km/s) = 6.44821 6.85288 6.65362
#
# Compressibility (1/GPa) = 0.01969217
#
# Stress axis : x y z
#
# Youngs Moduli (GPa) = 75.20536 74.67174 50.91806
#
# Poissons Ratio (x) = 0.39573 0.29802
# Poissons Ratio (y) = 0.39856 0.11026
# Poissons Ratio (z) = 0.44018 0.16169
#
# Static dielectric constant tensor:
#      x y z
#    x 1.791940 0.000000 0.003840 
#    y 0.000000 1.765570 0.000000 
#    z 0.003840 0.000000 1.789810 
# 
# From -- ./inp_files/295295.got.cif
#   From: 2010.05.17/outbox.cif.g08.bks.cpg/sg15_148_cif.got.tgz:295295.got - 2010.06.03 18:47:42.
