data_PCOD9295931
_publ_section_title
;
Structure prediction by ZEFSAII (Michael W. Deem and Ramdas Pophale) SiO2 
 PCOD9295931
Probable space group: C 2/C
;
_chemical_formula_sum "Si O2"
_cell_formula_units_Z 64
_cell_length_a 26.326494
_cell_length_b 9.410074
_cell_length_c 13.636983
_cell_angle_alpha 90.000000
_cell_angle_beta 51.971512
_cell_angle_gamma 90.000000
_cell_volume 2661.139949
_symmetry_space_group_name_H-M "C 2/C"
_symmetry_group_IT_number 15
_symmetry_cell_setting 'monoclinic'
loop_
_space_group_symop_operation_xyz
x,y,z
-x,y,1/2-z
-x,-y,-z
x,-y,1/2+z
1/2+x,1/2+y,z
1/2-x,1/2+y,1/2-z
1/2-x,1/2-y,-z
1/2+x,1/2-y,1/2+z
loop_
_atom_site_type_symbol
_atom_site_label
_atom_site_fract_x
_atom_site_fract_y
_atom_site_fract_z
Si Si1 0.224703 0.090984 0.042806
Si Si2 0.995026 0.668199 0.510852
Si Si3 0.691487 0.922514 0.418923
Si Si4 0.169864 0.895870 0.325274
Si Si5 0.605644 0.178500 0.531203
Si Si6 0.932139 0.130512 0.717103
Si Si7 0.595269 0.318715 0.759686
Si Si8 0.141166 0.111427 0.504056
O O1 0.167114 0.121609 0.187530
O O2 0.280850 0.990155 0.013766
O O3 0.188799 0.999389 0.002924
O O4 0.250000 0.250000 0.000000
O O5 0.041592 0.710731 0.546264
O O6 0.018902 0.757898 0.389051
O O7 0.000000 0.500000 0.500000
O O8 0.925227 0.714871 0.630215
O O9 0.755039 0.937359 0.274704
O O10 0.675912 0.757937 0.441353
O O11 0.626921 0.016236 0.485752
O O12 0.162537 0.765037 0.409583
O O13 0.134302 0.845668 0.267437
O O14 0.126088 0.019955 0.426030
O O15 0.596386 0.235153 0.653353
O O16 0.915188 0.145512 0.851603
O O17 0.947890 0.962340 0.689053
#
# Coordination Sequence:
#
# PCOD9295931 Si02
#       8
#     8   8   8   8   8   8   8   8
#     4  11  21  40  68  98 136 185 223 271 353 424
#     4  11  27  46  71 102 134 177 243 298 357 410
#     4  12  23  39  66 105 144 175 228 285 353 422
#     4  11  21  42  65 100 140 178 229 270 351 432
#     4  11  24  45  68  98 139 188 225 287 356 424
#     4  10  23  43  73  99 132 181 235 287 349 422
#     4  11  21  46  71  91 137 182 234 281 347 423
#     4  11  23  40  66 100 146 179 225 287 345 420
#
# _framework density 24.049845000000001
#
# number of rings (size 3 to 8) (size 9 to 14) (size 15 to 20)
#    0.000    1.000    6.250    1.875    1.750    1.000 
#    6.750    0.000    0.000    0.000    0.000    0.000 
#    0.000    0.000    0.000    0.000    0.000    0.000 
#
# Total GULP energy -178732.695857 kJ/mol
# GULP energy per Si atom -5585.396746 kJ/mol
# Density = 2.399511 g / cm^3
# Si number density = 24.049845 Si / 1000 Ang^3
#
#
#
# Elastic Constant Matrix: (Units=GPa)
#
#
# Indices 1 2 3 4 5 6 
#
# 1 56.6568 4.4391 6.7073 0.0000 3.8105 0.0000
# 2 4.4391 164.5018 62.0569 0.0000 -9.2735 0.0000
# 3 6.7073 62.0569 123.8915 0.0000 12.3945 0.0000
# 4 0.0000 0.0000 0.0000 37.4733 0.0000 -9.5287
# 5 3.8105 -9.2735 12.3945 0.0000 19.2742 0.0000
# 6 0.0000 0.0000 0.0000 -9.5287 0.0000 31.8153
#
#
#
# Elastic Compliance Matrix: (Units=1/GPa)
#
#
# Indices 1 2 3 4 5 6 
#
# 1 0.017976 -0.000565 -0.000329 0.000000 -0.003614 0.000000
# 2 -0.000565 0.008342 -0.004874 0.000000 0.007260 0.000000
# 3 -0.000329 -0.004874 0.011499 0.000000 -0.009675 0.000000
# 4 0.000000 0.000000 0.000000 0.028885 0.000000 0.008651
# 5 -0.003614 0.007260 -0.009675 0.000000 0.062312 0.000000
# 6 0.000000 0.000000 0.000000 0.008651 0.000000 0.034022
#
#
# Mechanical properties :
#
#
# Convention : Reuss Voigt Hill
#
# Bulk Modulus (GPa) = 38.04933 54.60631 46.32782
# Shear Modulus (GPa) = 27.27267 35.83568 31.55417
#
# Velocity S-wave (km/s) = 3.37115 3.86432 3.62613
# Velocity P-wave (km/s) = 5.56851 6.53187 6.06933
#
# Compressibility (1/GPa) = 0.02628167
#
# Stress axis : x y z
#
# Youngs Moduli (GPa) = 55.62857 119.87139 86.96544
#
# Poissons Ratio (x) = 0.06771 0.02859
# Poissons Ratio (y) = 0.03142 0.42390
# Poissons Ratio (z) = 0.01829 0.58430
#
# Static dielectric constant tensor:
#      x y z
#    x 2.048140 0.000000 0.036870 
#    y 0.000000 1.908970 0.000000 
#    z 0.036870 0.000000 1.971040 
# 
# From -- ./inp_files/181124.got.cif
#   From: 2010.05.17/outbox.cif.g08.bks.cpg/sg15_91_cif.got.tgz:181124.got - 2010.06.03 18:47:42.
