data_PCOD9295870
_publ_section_title
;
Structure prediction by ZEFSAII (Michael W. Deem and Ramdas Pophale) SiO2 
 PCOD9295870
Probable space group: C 2/C
;
_chemical_formula_sum "Si O2"
_cell_formula_units_Z 36
_cell_length_a 5.313907
_cell_length_b 17.376294
_cell_length_c 15.273785
_cell_angle_alpha 90.000000
_cell_angle_beta 78.646546
_cell_angle_gamma 90.000000
_cell_volume 1382.722408
_symmetry_space_group_name_H-M "C 2/C"
_symmetry_group_IT_number 15
_symmetry_cell_setting 'monoclinic'
loop_
_space_group_symop_operation_xyz
x,y,z
-x,y,1/2-z
-x,-y,-z
x,-y,1/2+z
1/2+x,1/2+y,z
1/2-x,1/2+y,1/2-z
1/2-x,1/2-y,-z
1/2+x,1/2-y,1/2+z
loop_
_atom_site_type_symbol
_atom_site_label
_atom_site_fract_x
_atom_site_fract_y
_atom_site_fract_z
Si Si1 0.704628 0.701841 0.656648
Si Si2 0.953723 0.576229 0.054092
Si Si3 0.500000 0.922611 0.250000
Si Si4 0.974239 0.169282 0.026306
Si Si5 0.250134 0.069010 0.248032
O O1 0.500000 0.717200 0.750000
O O2 0.903257 0.764713 0.602142
O O3 0.549694 0.686148 0.576143
O O4 0.875420 0.631699 0.684809
O O5 0.757309 0.636872 0.025180
O O6 0.793007 0.544380 0.146178
O O7 0.231761 0.611499 0.058281
O O8 0.000000 0.500000 0.000000
O O9 0.280493 0.986507 0.294030
O O10 0.500000 0.117446 0.250000
O O11 0.000000 0.117125 0.250000
#
# Coordination Sequence:
#
# PCOD9295870 Si02
#       5
#     8   8   4   8   8
#     4  11  27  48  78 106 155 201 251 319 374 452
#     4  12  26  48  75 107 155 192 241 321 379 443
#     4  10  24  42  74 108 142 200 254 298 384 450
#     4  11  29  48  75 116 147 196 262 303 383 454
#     4  10  23  43  71 105 142 195 251 303 370 462
#
# _framework density 26.035594
#
# number of rings (size 3 to 8) (size 9 to 14) (size 15 to 20)
#    0.667    0.444    0.000    4.000    9.333    4.444 
#    0.000    0.000    0.000    0.000    0.000    0.000 
#    0.000    0.000    0.000    0.000    0.000    0.000 
#
# Total GULP energy -100203.701875 kJ/mol
# GULP energy per Si atom -5566.872326 kJ/mol
# Density = 2.597634 g / cm^3
# Si number density = 26.035594 Si / 1000 Ang^3
#
#
#
# Elastic Constant Matrix: (Units=GPa)
#
#
# Indices 1 2 3 4 5 6 
#
# 1 145.4967 32.5943 -14.1033 0.0000 33.1073 0.0000
# 2 32.5943 122.8875 32.9921 0.0000 11.6969 0.0000
# 3 -14.1033 32.9921 86.5985 0.0000 -2.7164 0.0000
# 4 0.0000 0.0000 0.0000 53.1290 0.0000 11.2907
# 5 33.1073 11.6969 -2.7164 0.0000 39.9666 0.0000
# 6 0.0000 0.0000 0.0000 11.2907 0.0000 45.7084
#
#
#
# Elastic Compliance Matrix: (Units=1/GPa)
#
#
# Indices 1 2 3 4 5 6 
#
# 1 0.009148 -0.002371 0.002182 0.000000 -0.006736 0.000000
# 2 -0.002371 0.010026 -0.004245 0.000000 -0.001259 0.000000
# 3 0.002182 -0.004245 0.013531 0.000000 0.000355 0.000000
# 4 0.000000 0.000000 0.000000 0.019865 0.000000 -0.004907
# 5 -0.006736 -0.001259 0.000355 0.000000 0.030993 0.000000
# 6 0.000000 0.000000 0.000000 -0.004907 0.000000 0.023090
#
#
# Mechanical properties :
#
#
# Convention : Reuss Voigt Hill
#
# Bulk Modulus (GPa) = 41.95186 50.88322 46.41754
# Shear Modulus (GPa) = 40.49611 47.99410 44.24510
#
# Velocity S-wave (km/s) = 3.94815 4.29814 4.12686
# Velocity P-wave (km/s) = 6.07718 6.64968 6.36986
#
# Compressibility (1/GPa) = 0.02383684
#
# Stress axis : x y z
#
# Youngs Moduli (GPa) = 109.30788 99.74066 73.90225
#
# Poissons Ratio (x) = 0.23650 -0.16125
# Poissons Ratio (y) = 0.25919 0.31374
# Poissons Ratio (z) = -0.23851 0.42343
#
# Static dielectric constant tensor:
#      x y z
#    x 2.028490 0.000000 0.073700 
#    y 0.000000 2.060000 0.000000 
#    z 0.073700 0.000000 2.214090 
# 
# From -- ./inp_files/128784.got.cif
#   From: 2010.05.17/outbox.cif.g08.bks.cpg/sg15_65_cif.got.tgz:128784.got - 2010.06.03 18:47:42.
