data_PCOD9295199
_publ_section_title
;
Structure prediction by ZEFSAII (Michael W. Deem and Ramdas Pophale) SiO2 
 PCOD9295199
Probable space group: C 2/C
;
_chemical_formula_sum "Si O2"
_cell_formula_units_Z 48
_cell_length_a 8.041493
_cell_length_b 18.374016
_cell_length_c 14.037477
_cell_angle_alpha 90.000000
_cell_angle_beta 88.722875
_cell_angle_gamma 90.000000
_cell_volume 2073.585458
_symmetry_space_group_name_H-M "C 2/C"
_symmetry_group_IT_number 15
_symmetry_cell_setting 'monoclinic'
loop_
_space_group_symop_operation_xyz
x,y,z
-x,y,1/2-z
-x,-y,-z
x,-y,1/2+z
1/2+x,1/2+y,z
1/2-x,1/2+y,1/2-z
1/2-x,1/2-y,-z
1/2+x,1/2-y,1/2+z
loop_
_atom_site_type_symbol
_atom_site_label
_atom_site_fract_x
_atom_site_fract_y
_atom_site_fract_z
Si Si1 0.759433 0.831783 0.959185
Si Si2 0.199454 0.329883 0.739598
Si Si3 0.246179 0.663887 0.785766
Si Si4 0.472196 0.082625 0.573639
Si Si5 0.768784 0.461870 0.903257
Si Si6 0.434056 0.600800 0.612685
O O1 0.766710 0.837201 0.845965
O O2 0.750000 0.750000 0.000000
O O3 0.599365 0.876712 0.000190
O O4 0.917639 0.868674 0.006941
O O5 0.251701 0.250300 0.703309
O O6 0.243967 0.394690 0.667751
O O7 0.000000 0.328363 0.750000
O O8 0.087166 0.632848 0.840424
O O9 0.288306 0.640761 0.677110
O O10 0.400166 0.626401 0.839177
O O11 0.312223 0.061338 0.510869
O O12 0.566460 0.012520 0.615417
O O13 0.614383 0.516340 0.890292
#
# Coordination Sequence:
#
# PCOD9295199 Si02
#       6
#     8   8   8   8   8   8
#     4  11  21  42  68  97 133 175 223 277 328 392
#     4  12  22  42  70  97 130 176 224 275 329 400
#     4  11  23  44  69  95 132 180 218 274 338 396
#     4  10  24  41  73  98 130 176 229 272 329 412
#     4  10  24  42  68 102 128 174 225 275 332 402
#     4  10  23  42  66  95 140 173 213 275 347 387
#
# _framework density 23.148312000000001
#
# number of rings (size 3 to 8) (size 9 to 14) (size 15 to 20)
#    0.000    1.333    5.000    0.000    2.333    3.333 
#    0.000    1.667    0.000    0.000    0.000    0.000 
#    0.000    0.000    0.000    0.000    0.000    0.000 
#
# Total GULP energy -134276.103154 kJ/mol
# GULP energy per Si atom -5594.837631 kJ/mol
# Density = 2.309563 g / cm^3
# Si number density = 23.148312 Si / 1000 Ang^3
#
#
#
# Elastic Constant Matrix: (Units=GPa)
#
#
# Indices 1 2 3 4 5 6 
#
# 1 50.1376 21.6431 40.6301 0.0000 8.9499 0.0000
# 2 21.6431 182.7115 76.8107 0.0000 2.7514 0.0000
# 3 40.6301 76.8107 135.1205 0.0000 32.0734 0.0000
# 4 0.0000 0.0000 0.0000 45.6430 0.0000 -6.8003
# 5 8.9499 2.7514 32.0734 0.0000 38.7832 0.0000
# 6 0.0000 0.0000 0.0000 -6.8003 0.0000 22.7187
#
#
#
# Elastic Compliance Matrix: (Units=1/GPa)
#
#
# Indices 1 2 3 4 5 6 
#
# 1 0.026399 0.000361 -0.008326 0.000000 0.000768 0.000000
# 2 0.000361 0.007618 -0.005339 0.000000 0.003791 0.000000
# 3 -0.008326 -0.005339 0.015420 0.000000 -0.010453 0.000000
# 4 0.000000 0.000000 0.000000 0.022932 0.000000 0.006864
# 5 0.000768 0.003791 -0.010453 0.000000 0.033982 0.000000
# 6 0.000000 0.000000 0.000000 0.006864 0.000000 0.046071
#
#
# Mechanical properties :
#
#
# Convention : Reuss Voigt Hill
#
# Bulk Modulus (GPa) = 43.80113 71.79308 57.79711
# Shear Modulus (GPa) = 26.78962 36.68803 31.73882
#
# Velocity S-wave (km/s) = 3.40561 3.98541 3.70686
# Velocity P-wave (km/s) = 5.86747 7.22909 6.58358
#
# Compressibility (1/GPa) = 0.02283046
#
# Stress axis : x y z
#
# Youngs Moduli (GPa) = 37.88024 131.27337 64.84899
#
# Poissons Ratio (x) = -0.04745 0.53992
# Poissons Ratio (y) = -0.01369 0.34623
# Poissons Ratio (z) = 0.31538 0.70087
#
# Static dielectric constant tensor:
#      x y z
#    x -4.400770 0.000000 -6.733150 
#    y 0.000000 1.844110 0.000000 
#    z -6.733150 0.000000 -5.339330 
# 
# From -- ./inp_files/134829.got.cif
#   From: 2010.05.17/outbox.cif.g08.bks.cpg/sg15_68_cif.got.tgz:134829.got - 2010.06.03 18:47:42.
