data_PCOD9295350
_publ_section_title
;
Structure prediction by ZEFSAII (Michael W. Deem and Ramdas Pophale) SiO2 
 PCOD9295350
Probable space group: C 2/C
;
_chemical_formula_sum "Si O2"
_cell_formula_units_Z 44
_cell_length_a 15.064656
_cell_length_b 22.939438
_cell_length_c 9.869296
_cell_angle_alpha 90.000000
_cell_angle_beta 41.153712
_cell_angle_gamma 90.000000
_cell_volume 2244.438832
_symmetry_space_group_name_H-M "C 2/C"
_symmetry_group_IT_number 15
_symmetry_cell_setting 'monoclinic'
loop_
_space_group_symop_operation_xyz
x,y,z
-x,y,1/2-z
-x,-y,-z
x,-y,1/2+z
1/2+x,1/2+y,z
1/2-x,1/2+y,1/2-z
1/2-x,1/2-y,-z
1/2+x,1/2-y,1/2+z
loop_
_atom_site_type_symbol
_atom_site_label
_atom_site_fract_x
_atom_site_fract_y
_atom_site_fract_z
Si Si1 0.864875 0.469667 0.213650
Si Si2 0.000000 0.865111 0.250000
Si Si3 0.500000 0.842951 0.750000
Si Si4 0.000000 0.624260 0.750000
Si Si5 0.877058 0.759479 0.251848
Si Si6 0.864759 0.737313 0.971418
Si Si7 0.760319 0.564845 0.546831
O O1 0.802978 0.512744 0.397385
O O2 0.767715 0.456326 0.196091
O O3 0.918785 0.413833 0.234539
O O4 0.000000 0.500000 0.000000
O O5 0.028749 0.815887 0.332539
O O6 0.126379 0.906989 0.135206
O O7 0.530835 0.797847 0.835295
O O8 0.627232 0.884392 0.585364
O O9 0.897284 0.668405 0.942163
O O10 0.750000 0.750000 0.500000
O O11 0.825357 0.762086 0.160480
O O12 0.000000 0.763500 0.750000
O O13 0.750000 0.750000 0.000000
#
# Coordination Sequence:
#
# PCOD9295350 Si02
#       7
#     8   4   4   4   8   8   8
#     4  12  22  43  70 101 121 177 243 280 333 411
#     4  11  28  42  67 101 144 174 225 288 352 400
#     4  11  21  38  70  96 124 169 229 284 330 408
#     4  10  23  42  69  95 138 171 226 288 340 400
#     4  11  24  42  70 101 134 183 234 271 345 433
#     4  10  26  41  65  99 141 173 219 279 353 410
#     4  12  25  42  70  97 134 175 229 290 344 403
#
# _framework density 19.604011
#
# number of rings (size 3 to 8) (size 9 to 14) (size 15 to 20)
#    0.545    0.364    5.455    1.091    7.636    0.727 
#    0.000    0.000    2.000    0.000    0.000    0.000 
#    0.000    0.000    0.000    0.000    0.000    0.000 
#
# Total GULP energy -122564.515624 kJ/mol
# GULP energy per Si atom -5571.114347 kJ/mol
# Density = 1.955939 g / cm^3
# Si number density = 19.604011 Si / 1000 Ang^3
#
#
#
# Elastic Constant Matrix: (Units=GPa)
#
#
# Indices 1 2 3 4 5 6 
#
# 1 196.2518 60.6747 73.0791 0.0000 11.3533 0.0000
# 2 60.6747 107.4555 28.1148 0.0000 6.7257 0.0000
# 3 73.0791 28.1148 80.0102 0.0000 16.6053 0.0000
# 4 0.0000 0.0000 0.0000 8.3026 0.0000 -2.9748
# 5 11.3533 6.7257 16.6053 0.0000 44.1091 0.0000
# 6 0.0000 0.0000 0.0000 -2.9748 0.0000 45.1760
#
#
#
# Elastic Compliance Matrix: (Units=1/GPa)
#
#
# Indices 1 2 3 4 5 6 
#
# 1 0.008581 -0.003086 -0.006935 0.000000 0.000872 0.000000
# 2 -0.003086 0.011360 -0.001062 0.000000 -0.000538 0.000000
# 3 -0.006935 -0.001062 0.020395 0.000000 -0.005731 0.000000
# 4 0.000000 0.000000 0.000000 0.123354 0.000000 0.008123
# 5 0.000872 -0.000538 -0.005731 0.000000 0.024686 0.000000
# 6 0.000000 0.000000 0.000000 0.008123 0.000000 0.022671
#
#
# Mechanical properties :
#
#
# Convention : Reuss Voigt Hill
#
# Bulk Modulus (GPa) = 55.02988 78.60609 66.81798
# Shear Modulus (GPa) = 20.89705 34.30747 27.60226
#
# Velocity S-wave (km/s) = 3.26844 4.18787 3.75639
# Velocity P-wave (km/s) = 6.50963 7.97297 7.27817
#
# Compressibility (1/GPa) = 0.01817195
#
# Stress axis : x y z
#
# Youngs Moduli (GPa) = 116.53224 88.02846 49.03191
#
# Poissons Ratio (x) = 0.27162 0.34002
# Poissons Ratio (y) = 0.35957 0.05206
# Poissons Ratio (z) = 0.80812 0.09346
#
# Static dielectric constant tensor:
#      x y z
#    x 1.738570 0.000000 -0.004530 
#    y 0.000000 1.712620 0.000000 
#    z -0.004530 0.000000 1.709400 
# 
# From -- ./inp_files/42026.got.cif
#   From: 2010.05.17/outbox.cif.g08.bks.cpg/sg15_22_cif.got.tgz:42026.got - 2010.06.03 18:47:42.
