data_PCOD9295388
_publ_section_title
;
Structure prediction by ZEFSAII (Michael W. Deem and Ramdas Pophale) SiO2 
 PCOD9295388
Probable space group: C 2/C
;
_chemical_formula_sum "Si O2"
_cell_formula_units_Z 44
_cell_length_a 8.626003
_cell_length_b 31.448157
_cell_length_c 9.084610
_cell_angle_alpha 90.000000
_cell_angle_beta 56.674199
_cell_angle_gamma 90.000000
_cell_volume 2059.153661
_symmetry_space_group_name_H-M "C 2/C"
_symmetry_group_IT_number 15
_symmetry_cell_setting 'monoclinic'
loop_
_space_group_symop_operation_xyz
x,y,z
-x,y,1/2-z
-x,-y,-z
x,-y,1/2+z
1/2+x,1/2+y,z
1/2-x,1/2+y,1/2-z
1/2-x,1/2-y,-z
1/2+x,1/2-y,1/2+z
loop_
_atom_site_type_symbol
_atom_site_label
_atom_site_fract_x
_atom_site_fract_y
_atom_site_fract_z
Si Si1 0.636721 0.007355 0.562578
Si Si2 0.583970 0.697705 0.972914
Si Si3 0.699012 0.205769 0.350622
Si Si4 0.791465 0.082885 0.085503
Si Si5 0.000000 0.864549 0.250000
Si Si6 0.000000 0.347623 0.750000
Si Si7 0.500000 0.554547 0.250000
O O1 0.500000 0.030882 0.750000
O O2 0.704200 0.963281 0.602491
O O3 0.500000 0.000000 0.500000
O O4 0.821014 0.028325 0.399112
O O5 0.650601 0.744601 0.890781
O O6 0.578491 0.665197 0.839672
O O7 0.374050 0.700720 0.147709
O O8 0.723790 0.687347 0.035229
O O9 0.514872 0.183550 0.381674
O O10 0.655619 0.118872 0.212746
O O11 0.944365 0.079453 0.132187
O O12 0.855914 0.103228 0.899188
#
# Coordination Sequence:
#
# PCOD9295388 Si02
#       7
#     8   8   8   8   4   4   4
#     4  12  25  49  76 109 143 187 245 290 358 442
#     4  10  23  44  66  97 133 188 236 283 351 426
#     4  10  23  42  70  93 136 186 236 284 348 427
#     4  12  27  45  70 106 139 186 229 297 360 419
#     4  12  26  40  68 100 142 176 240 286 364 412
#     4  12  23  42  66  99 146 176 230 291 354 414
#     4  12  27  50  78  99 152 194 240 297 356 440
#
# _framework density 21.368002000000001
#
# number of rings (size 3 to 8) (size 9 to 14) (size 15 to 20)
#    0.000    0.727    4.545    1.636    7.636    1.455 
#    0.000    0.000    0.000    0.000    0.000    0.000 
#    0.000    0.000    0.000    0.000    0.000    0.000 
#
# Total GULP energy -122682.629141 kJ/mol
# GULP energy per Si atom -5576.483143 kJ/mol
# Density = 2.131937 g / cm^3
# Si number density = 21.368002 Si / 1000 Ang^3
#
#
#
# Elastic Constant Matrix: (Units=GPa)
#
#
# Indices 1 2 3 4 5 6 
#
# 1 135.5454 42.9885 32.6907 0.0000 18.0984 0.0000
# 2 42.9885 61.9582 27.7457 0.0000 5.3698 0.0000
# 3 32.6907 27.7457 96.2595 0.0000 11.5580 0.0000
# 4 0.0000 0.0000 0.0000 741.6461 0.0000 312.2314
# 5 18.0984 5.3698 11.5580 0.0000 30.8102 0.0000
# 6 0.0000 0.0000 0.0000 312.2314 0.0000 159.0159
#
#
#
# Elastic Compliance Matrix: (Units=1/GPa)
#
#
# Indices 1 2 3 4 5 6 
#
# 1 0.010216 -0.006185 -0.001147 0.000000 -0.004493 0.000000
# 2 -0.006185 0.022325 -0.004507 0.000000 0.001433 0.000000
# 3 -0.001147 -0.004507 0.012463 0.000000 -0.003216 0.000000
# 4 0.000000 0.000000 0.000000 0.007778 0.000000 -0.015272
# 5 -0.004493 0.001433 -0.003216 0.000000 0.036053 0.000000
# 6 0.000000 0.000000 0.000000 -0.015272 0.000000 0.036275
#
#
# Mechanical properties :
#
#
# Convention : Reuss Voigt Hill
#
# Bulk Modulus (GPa) = 46.88918 55.62365 51.25641
# Shear Modulus (GPa) = 32.07276 198.98366 115.52821
#
# Velocity S-wave (km/s) = 3.87844 9.66046 7.36093
# Velocity P-wave (km/s) = 6.48442 12.26867 9.81244
#
# Compressibility (1/GPa) = 0.02132688
#
# Stress axis : x y z
#
# Youngs Moduli (GPa) = 97.88870 44.79269 80.23545
#
# Poissons Ratio (x) = 0.27704 0.09205
# Poissons Ratio (y) = 0.60543 0.36158
# Poissons Ratio (z) = 0.11230 0.20186
#
# Static dielectric constant tensor:
#      x y z
#    x 1.808850 0.000000 -0.045410 
#    y 0.000000 1.750730 0.000000 
#    z -0.045410 0.000000 1.839660 
# 
# From -- ./inp_files/25780.got.cif
#   From: 2010.05.17/outbox.cif.g08.bks.cpg/sg15_13_cif.got.tgz:25780.got - 2010.06.03 18:47:42.
