data_PCOD9295484
_publ_section_title
;
Structure prediction by ZEFSAII (Michael W. Deem and Ramdas Pophale) SiO2 
 PCOD9295484
Probable space group: C 2/C
;
_chemical_formula_sum "Si O2"
_cell_formula_units_Z 32
_cell_length_a 9.801818
_cell_length_b 9.514027
_cell_length_c 16.055563
_cell_angle_alpha 90.000000
_cell_angle_beta 135.526507
_cell_angle_gamma 90.000000
_cell_volume 1048.947619
_symmetry_space_group_name_H-M "C 2/C"
_symmetry_group_IT_number 15
_symmetry_cell_setting 'monoclinic'
loop_
_space_group_symop_operation_xyz
x,y,z
-x,y,1/2-z
-x,-y,-z
x,-y,1/2+z
1/2+x,1/2+y,z
1/2-x,1/2+y,1/2-z
1/2-x,1/2-y,-z
1/2+x,1/2-y,1/2+z
loop_
_atom_site_type_symbol
_atom_site_label
_atom_site_fract_x
_atom_site_fract_y
_atom_site_fract_z
Si Si1 0.227887 0.776836 0.636933
Si Si2 0.659076 0.317637 0.877676
Si Si3 0.139377 0.083523 0.947998
Si Si4 0.097875 0.480942 0.654528
O O1 0.072896 0.853122 0.506556
O O2 0.358682 0.701195 0.622376
O O3 0.160488 0.642971 0.662918
O O4 0.323632 0.901745 0.730087
O O5 0.500000 0.238903 0.750000
O O6 0.818198 0.388292 0.886083
O O7 0.750000 0.250000 0.000000
O O8 0.538315 0.449513 0.863837
O O9 0.364012 0.033256 0.055448
#
# Coordination Sequence:
#
# PCOD9295484 Si02
#       4
#     8   8   8   8
#     4  10  23  42  74 112 146 202 266 317 399 474
#     4  11  27  45  76 117 155 203 270 325 397 479
#     4  10  24  48  74 102 162 205 256 331 404 471
#     4  11  25  45  79 108 156 209 264 324 411 474
#
# _framework density 30.506768000000001
#
# number of rings (size 3 to 8) (size 9 to 14) (size 15 to 20)
#    0.000    1.500    0.000    3.750   10.500   12.000 
#    0.000    2.500    0.000    0.000    0.000    0.000 
#    0.000    0.000    0.000    0.000    0.000    0.000 
#
# Total GULP energy -89730.233934 kJ/mol
# GULP energy per Si atom -5608.139621 kJ/mol
# Density = 3.043733 g / cm^3
# Si number density = 30.506768 Si / 1000 Ang^3
#
#
#
# Elastic Constant Matrix: (Units=GPa)
#
#
# Indices 1 2 3 4 5 6 
#
# 1 137.7175 35.7278 47.7701 0.0000 -16.9209 0.0000
# 2 35.7278 197.8419 103.4016 0.0000 -16.9848 0.0000
# 3 47.7701 103.4016 253.1231 0.0000 -40.3302 0.0000
# 4 0.0000 0.0000 0.0000 85.6780 0.0000 -9.2145
# 5 -16.9209 -16.9848 -40.3302 0.0000 66.9772 0.0000
# 6 0.0000 0.0000 0.0000 -9.2145 0.0000 52.6080
#
#
#
# Elastic Compliance Matrix: (Units=1/GPa)
#
#
# Indices 1 2 3 4 5 6 
#
# 1 0.007962 -0.000826 -0.000971 0.000000 0.001217 0.000000
# 2 -0.000826 0.006512 -0.002516 0.000000 -0.000072 0.000000
# 3 -0.000971 -0.002516 0.005554 0.000000 0.002461 0.000000
# 4 0.000000 0.000000 0.000000 0.011896 0.000000 0.002084
# 5 0.001217 -0.000072 0.002461 0.000000 0.016701 0.000000
# 6 0.000000 0.000000 0.000000 0.002084 0.000000 0.019373
#
#
# Mechanical properties :
#
#
# Convention : Reuss Voigt Hill
#
# Bulk Modulus (GPa) = 87.70293 106.94237 97.32265
# Shear Modulus (GPa) = 62.16922 67.83817 65.00369
#
# Velocity S-wave (km/s) = 4.51919 4.72074 4.62106
# Velocity P-wave (km/s) = 7.48611 8.05265 7.77454
#
# Compressibility (1/GPa) = 0.01140213
#
# Stress axis : x y z
#
# Youngs Moduli (GPa) = 125.59761 153.55209 180.05513
#
# Poissons Ratio (x) = 0.12678 0.17490
# Poissons Ratio (y) = 0.10370 0.45302
# Poissons Ratio (z) = 0.12200 0.38634
#
# Static dielectric constant tensor:
#      x y z
#    x 2.445040 0.000000 0.084560 
#    y 0.000000 2.436550 0.000000 
#    z 0.084560 0.000000 2.472770 
# 
# From -- ./inp_files/152351.got.cif
#   From: 2010.05.17/outbox.cif.g08.bks.cpg/sg15_77_cif.got.tgz:152351.got - 2010.06.03 18:47:42.
