data_PCOD9295760
_publ_section_title
;
Structure prediction by ZEFSAII (Michael W. Deem and Ramdas Pophale) SiO2 
 PCOD9295760
Probable space group: C 2/C
;
_chemical_formula_sum "Si O2"
_cell_formula_units_Z 32
_cell_length_a 7.149633
_cell_length_b 35.493711
_cell_length_c 5.587236
_cell_angle_alpha 90.000000
_cell_angle_beta 72.679904
_cell_angle_gamma 90.000000
_cell_volume 1353.565513
_symmetry_space_group_name_H-M "C 2/C"
_symmetry_group_IT_number 15
_symmetry_cell_setting 'monoclinic'
loop_
_space_group_symop_operation_xyz
x,y,z
-x,y,1/2-z
-x,-y,-z
x,-y,1/2+z
1/2+x,1/2+y,z
1/2-x,1/2+y,1/2-z
1/2-x,1/2-y,-z
1/2+x,1/2-y,1/2+z
loop_
_atom_site_type_symbol
_atom_site_label
_atom_site_fract_x
_atom_site_fract_y
_atom_site_fract_z
Si Si1 0.000000 0.232454 0.750000
Si Si2 0.265180 0.092410 0.595562
Si Si3 0.277110 0.296023 0.743029
Si Si4 0.500000 0.522809 0.750000
Si Si5 0.293817 0.121127 0.083603
O O1 0.127476 0.262414 0.854766
O O2 0.167879 0.207862 0.559419
O O3 0.192594 0.104469 0.359501
O O4 0.497882 0.099725 0.501195
O O5 0.188155 0.050550 0.672205
O O6 0.204154 0.115960 0.854451
O O7 0.500000 0.294075 0.750000
O O8 0.186121 0.334833 0.865723
O O9 0.500000 0.500000 0.500000
#
# Coordination Sequence:
#
# PCOD9295760 Si02
#       5
#     4   8   8   4   8
#     4  10  24  45  62  98 146 186 242 304 360 432
#     4  10  23  45  68 101 142 173 228 288 336 417
#     4  11  24  42  68  98 137 190 243 297 365 413
#     4  12  26  45  74 108 144 180 220 274 352 434
#     4  10  23  43  69 101 134 185 236 292 341 407
#
# _framework density 23.641266999999999
#
# number of rings (size 3 to 8) (size 9 to 14) (size 15 to 20)
#    0.000    1.500    0.000    3.750    7.000    0.000 
#    9.000   15.000    0.000    0.000    0.000    0.000 
#    0.000    0.000    0.000    0.000    0.000    0.000 
#
# Total GULP energy -89209.058243 kJ/mol
# GULP energy per Si atom -5575.566140 kJ/mol
# Density = 2.358746 g / cm^3
# Si number density = 23.641267 Si / 1000 Ang^3
#
#
#
# Elastic Constant Matrix: (Units=GPa)
#
#
# Indices 1 2 3 4 5 6 
#
# 1 114.8190 32.4985 33.0452 0.0000 -27.7660 0.0000
# 2 32.4985 143.2180 90.9857 0.0000 7.6348 0.0000
# 3 33.0452 90.9857 201.9139 0.0000 15.4317 0.0000
# 4 0.0000 0.0000 0.0000 -2.4406 0.0000 -3.0772
# 5 -27.7660 7.6348 15.4317 0.0000 46.9300 0.0000
# 6 0.0000 0.0000 0.0000 -3.0772 0.0000 49.7747
#
#
#
# Elastic Compliance Matrix: (Units=1/GPa)
#
#
# Indices 1 2 3 4 5 6 
#
# 1 0.011606 -0.002051 -0.001565 0.000000 0.007715 0.000000
# 2 -0.002051 0.010146 -0.004121 0.000000 -0.001509 0.000000
# 3 -0.001565 -0.004121 0.007268 0.000000 -0.002645 0.000000
# 4 0.000000 0.000000 0.000000 -0.380112 0.000000 -0.023500
# 5 0.007715 -0.001509 -0.002645 0.000000 0.026988 0.000000
# 6 0.000000 0.000000 0.000000 -0.023500 0.000000 0.018638
#
#
# Mechanical properties :
#
#
# Convention : Reuss Voigt Hill
#
# Bulk Modulus (GPa) = 73.81957 85.88998 79.85478
# Shear Modulus (GPa) = -17.51451 39.08092 10.78320
#
# Velocity S-wave (km/s) = -2.72480 4.07022 2.13801
# Velocity P-wave (km/s) = 4.62529 7.64842 6.32027
#
# Compressibility (1/GPa) = 0.01354654
#
# Stress axis : x y z
#
# Youngs Moduli (GPa) = 86.16396 98.55845 137.58989
#
# Poissons Ratio (x) = 0.20210 0.21533
# Poissons Ratio (y) = 0.17669 0.56703
# Poissons Ratio (z) = 0.13485 0.40618
#
# Static dielectric constant tensor:
#      x y z
#    x 1.978060 0.000000 0.067790 
#    y 0.000000 1.836950 0.000000 
#    z 0.067790 0.000000 2.154740 
# 
# From -- ./inp_files/2588.got.cif
#   From: 2010.05.17/outbox.cif.g08.bks.cpg/sg15_2_cif.got.tgz:2588.got - 2010.06.03 18:47:42.
