data_PCOD9295048
_publ_section_title
;
Structure prediction by ZEFSAII (Michael W. Deem and Ramdas Pophale) SiO2 
 PCOD9295048
Probable space group: C 2/C
;
_chemical_formula_sum "Si O2"
_cell_formula_units_Z 40
_cell_length_a 17.118985
_cell_length_b 15.325422
_cell_length_c 9.274435
_cell_angle_alpha 90.000000
_cell_angle_beta 56.858156
_cell_angle_gamma 90.000000
_cell_volume 2037.366717
_symmetry_space_group_name_H-M "C 2/C"
_symmetry_group_IT_number 15
_symmetry_cell_setting 'monoclinic'
loop_
_space_group_symop_operation_xyz
x,y,z
-x,y,1/2-z
-x,-y,-z
x,-y,1/2+z
1/2+x,1/2+y,z
1/2-x,1/2+y,1/2-z
1/2-x,1/2-y,-z
1/2+x,1/2-y,1/2+z
loop_
_atom_site_type_symbol
_atom_site_label
_atom_site_fract_x
_atom_site_fract_y
_atom_site_fract_z
Si Si1 0.207565 0.568634 0.840415
Si Si2 0.090058 0.464931 0.735843
Si Si3 0.685546 0.740502 0.424423
Si Si4 0.500000 0.799589 0.750000
Si Si5 0.871513 0.937711 0.625140
Si Si6 0.000000 0.015037 0.250000
O O1 0.129940 0.521579 0.822255
O O2 0.207858 0.671978 0.812565
O O3 0.304801 0.521013 0.715808
O O4 0.172599 0.552051 0.038383
O O5 0.000000 0.507851 0.750000
O O6 0.050596 0.367870 0.808433
O O7 0.750000 0.750000 0.500000
O O8 0.578973 0.747884 0.587953
O O9 0.690388 0.648430 0.339235
O O10 0.934250 0.957610 0.421106
O O11 0.936562 0.930973 0.701132
#
# Coordination Sequence:
#
# PCOD9295048 Si02
#       6
#     8   8   8   4   8   4
#     4  11  21  39  61  91 119 158 195 252 304 356
#     4   9  19  35  60  86 118 150 193 237 310 355
#     4  11  22  37  61  93 119 162 206 246 303 368
#     4   8  19  36  59  84 118 154 199 244 295 358
#     4  11  22  41  64  87 124 160 208 253 299 363
#     4  10  23  42  63  86 118 170 205 250 303 352
#
# _framework density 19.633187
#
# number of rings (size 3 to 8) (size 9 to 14) (size 15 to 20)
#    0.600    1.200    0.000    6.000    0.000    1.600 
#    1.800    4.000    0.000    0.000    0.000    0.000 
#    0.000    0.000    0.000    0.000    0.000    0.000 
#
# Total GULP energy -111539.028867 kJ/mol
# GULP energy per Si atom -5576.951443 kJ/mol
# Density = 1.958850 g / cm^3
# Si number density = 19.633187 Si / 1000 Ang^3
#
#
#
# Elastic Constant Matrix: (Units=GPa)
#
#
# Indices 1 2 3 4 5 6 
#
# 1 84.7785 30.1810 24.5549 0.0000 6.5307 0.0000
# 2 30.1810 109.3779 28.7972 0.0000 3.7376 0.0000
# 3 24.5549 28.7972 77.5724 0.0000 -10.5175 0.0000
# 4 0.0000 0.0000 0.0000 15.6294 0.0000 -5.1947
# 5 6.5307 3.7376 -10.5175 0.0000 37.9810 0.0000
# 6 0.0000 0.0000 0.0000 -5.1947 0.0000 23.7613
#
#
#
# Elastic Compliance Matrix: (Units=1/GPa)
#
#
# Indices 1 2 3 4 5 6 
#
# 1 0.014159 -0.002771 -0.003892 0.000000 -0.003240 0.000000
# 2 -0.002771 0.010842 -0.003354 0.000000 -0.001519 0.000000
# 3 -0.003892 -0.003354 0.016109 0.000000 0.005460 0.000000
# 4 0.000000 0.000000 0.000000 0.068995 0.000000 0.015084
# 5 -0.003240 -0.001519 0.005460 0.000000 0.028547 0.000000
# 6 0.000000 0.000000 0.000000 0.015084 0.000000 0.045383
#
#
# Mechanical properties :
#
#
# Convention : Reuss Voigt Hill
#
# Bulk Modulus (GPa) = 47.44975 48.75497 48.10236
# Shear Modulus (GPa) = 23.68601 28.02072 25.85337
#
# Velocity S-wave (km/s) = 3.47713 3.78194 3.63274
# Velocity P-wave (km/s) = 6.35147 6.63006 6.49226
#
# Compressibility (1/GPa) = 0.02107493
#
# Stress axis : x y z
#
# Youngs Moduli (GPa) = 70.62646 92.23210 62.07895
#
# Poissons Ratio (x) = 0.25562 0.24163
# Poissons Ratio (y) = 0.19574 0.20819
# Poissons Ratio (z) = 0.27490 0.30931
#
# Static dielectric constant tensor:
#      x y z
#    x 1.730300 0.000000 -0.014960 
#    y 0.000000 1.704820 0.000000 
#    z -0.014960 0.000000 1.692030 
# 
# From -- ./inp_files/46948.got.cif
#   From: 2010.05.17/outbox.cif.g08.bks.cpg/sg15_24_cif.got.tgz:46948.got - 2010.06.03 18:47:42.
