data_PCOD9295950
_publ_section_title
;
Structure prediction by ZEFSAII (Michael W. Deem and Ramdas Pophale) SiO2 
 PCOD9295950
Probable space group: C 2/C
;
_chemical_formula_sum "Si O2"
_cell_formula_units_Z 32
_cell_length_a 18.203344
_cell_length_b 11.706621
_cell_length_c 14.487650
_cell_angle_alpha 90.000000
_cell_angle_beta 155.729020
_cell_angle_gamma 90.000000
_cell_volume 1269.048352
_symmetry_space_group_name_H-M "C 2/C"
_symmetry_group_IT_number 15
_symmetry_cell_setting 'monoclinic'
loop_
_space_group_symop_operation_xyz
x,y,z
-x,y,1/2-z
-x,-y,-z
x,-y,1/2+z
1/2+x,1/2+y,z
1/2-x,1/2+y,1/2-z
1/2-x,1/2-y,-z
1/2+x,1/2-y,1/2+z
loop_
_atom_site_type_symbol
_atom_site_label
_atom_site_fract_x
_atom_site_fract_y
_atom_site_fract_z
Si Si1 0.967233 0.128272 0.433507
Si Si2 0.494624 0.940512 0.850257
Si Si3 0.411872 0.822917 0.051155
Si Si4 0.648917 0.284651 0.502551
O O1 0.925446 0.178096 0.485375
O O2 0.094240 0.212061 0.521313
O O3 0.789459 0.135046 0.167015
O O4 0.000000 0.000000 0.500000
O O5 0.500000 0.978137 0.750000
O O6 0.661884 0.852141 0.037533
O O7 0.320205 0.863707 0.674466
O O8 0.499953 0.066786 0.901535
O O9 0.500000 0.792670 0.250000
O O10 0.500000 0.296766 0.250000
#
# Coordination Sequence:
#
# PCOD9295950 Si02
#       4
#     8   8   8   8
#     4  12  30  47  78 113 151 203 261 314 388 457
#     4  10  23  43  75 106 149 200 250 304 382 449
#     4  11  28  52  79 109 156 203 260 316 381 456
#     4  11  24  42  74 111 159 195 251 314 386 447
#
# _framework density 25.215744999999998
#
# number of rings (size 3 to 8) (size 9 to 14) (size 15 to 20)
#    0.000    1.000    0.000    5.250   17.500    3.000 
#    0.000    0.000    0.000    0.000    0.000    0.000 
#    0.000    0.000    0.000    0.000    0.000    0.000 
#
# Total GULP energy -89237.621934 kJ/mol
# GULP energy per Si atom -5577.351371 kJ/mol
# Density = 2.515835 g / cm^3
# Si number density = 25.215745 Si / 1000 Ang^3
#
#
#
# Elastic Constant Matrix: (Units=GPa)
#
#
# Indices 1 2 3 4 5 6 
#
# 1 70.1987 30.5175 16.1971 0.0000 -16.5153 -0.0001
# 2 30.5175 185.1605 39.6140 -0.0002 1.7787 -0.0002
# 3 16.1971 39.6140 119.9620 -0.0001 -9.0896 -0.0001
# 4 0.0000 -0.0002 -0.0001 34.2584 -0.0001 -0.7324
# 5 -16.5153 1.7787 -9.0896 -0.0001 44.9318 -0.0001
# 6 -0.0001 -0.0002 -0.0001 -0.7324 -0.0001 27.8951
#
#
#
# Elastic Compliance Matrix: (Units=1/GPa)
#
#
# Indices 1 2 3 4 5 6 
#
# 1 0.017083 -0.002671 -0.000956 0.000000 0.006192 0.000000
# 2 -0.002671 0.006246 -0.001823 0.000000 -0.001598 0.000000
# 3 -0.000956 -0.001823 0.009187 0.000000 0.001579 0.000000
# 4 0.000000 0.000000 0.000000 0.029206 0.000000 0.000767
# 5 0.006192 -0.001598 0.001579 0.000000 0.024915 0.000000
# 6 0.000000 0.000000 0.000000 0.000767 0.000000 0.035869
#
#
# Mechanical properties :
#
#
# Convention : Reuss Voigt Hill
#
# Bulk Modulus (GPa) = 46.25819 60.88649 53.57234
# Shear Modulus (GPa) = 35.55918 40.68323 38.12121
#
# Velocity S-wave (km/s) = 3.75933 4.02108 3.89241
# Velocity P-wave (km/s) = 6.10149 6.76442 6.44149
#
# Compressibility (1/GPa) = 0.02161779
#
# Stress axis : x y z
#
# Youngs Moduli (GPa) = 58.53610 160.09509 108.85308
#
# Poissons Ratio (x) = 0.42756 0.10401
# Poissons Ratio (y) = 0.15633 0.19845
# Poissons Ratio (z) = 0.05593 0.29187
#
# Static dielectric constant tensor:
#      x y z
#    x 1.984820 0.000000 0.053440 
#    y 0.000000 2.513730 0.000000 
#    z 0.053440 0.000000 2.222190 
# 
# From -- ./inp_files/219384.got.cif
#   From: 2010.05.17/outbox.cif.g08.bks.cpg/sg15_110_cif.got.tgz:219384.got - 2010.06.03 18:47:42.
