data_PCOD9295641
_publ_section_title
;
Structure prediction by ZEFSAII (Michael W. Deem and Ramdas Pophale) SiO2 
 PCOD9295641
Probable space group: C 2/C
;
_chemical_formula_sum "Si O2"
_cell_formula_units_Z 60
_cell_length_a 24.229929
_cell_length_b 13.700930
_cell_length_c 9.747229
_cell_angle_alpha 90.000000
_cell_angle_beta 61.423547
_cell_angle_gamma 90.000000
_cell_volume 2841.624692
_symmetry_space_group_name_H-M "C 2/C"
_symmetry_group_IT_number 15
_symmetry_cell_setting 'monoclinic'
loop_
_space_group_symop_operation_xyz
x,y,z
-x,y,1/2-z
-x,-y,-z
x,-y,1/2+z
1/2+x,1/2+y,z
1/2-x,1/2+y,1/2-z
1/2-x,1/2-y,-z
1/2+x,1/2-y,1/2+z
loop_
_atom_site_type_symbol
_atom_site_label
_atom_site_fract_x
_atom_site_fract_y
_atom_site_fract_z
Si Si1 0.142915 0.996393 0.155144
Si Si2 0.544632 0.963211 0.825699
Si Si3 0.430916 0.772445 0.842797
Si Si4 0.058409 0.947413 0.506497
Si Si5 0.907219 0.652333 0.669724
Si Si6 0.500000 0.725303 0.250000
Si Si7 0.796399 0.798193 0.835942
Si Si8 0.706308 0.324095 0.969891
O O1 0.089452 0.998819 0.100448
O O2 0.165448 0.107136 0.155574
O O3 0.112632 0.948936 0.327136
O O4 0.201774 0.932286 0.036555
O O5 0.500000 0.981441 0.750000
O O6 0.569641 0.853415 0.777698
O O7 0.600121 0.041467 0.773317
O O8 0.500000 0.000000 0.000000
O O9 0.500000 0.721609 0.750000
O O10 0.367026 0.711297 0.926647
O O11 0.431889 0.831863 0.985443
O O12 0.034483 0.845478 0.598662
O O13 0.000000 0.000000 0.500000
O O14 0.843754 0.710998 0.749216
O O15 0.953464 0.706976 0.719644
O O16 0.771932 0.826738 0.713912
O O17 0.750000 0.750000 0.000000
O O18 0.750000 0.250000 0.000000
#
# Coordination Sequence:
#
# PCOD9295641 Si02
#       8
#     8   8   8   8   8   4   8   8
#     4  12  25  46  71 102 145 186 233 294 350 431
#     4  11  20  38  63  96 138 177 222 283 344 404
#     4  10  23  43  66  99 139 178 230 289 357 407
#     4  12  23  41  67 107 149 183 227 285 357 424
#     4  11  22  40  64  99 137 178 226 285 341 426
#     4  12  24  36  66 106 142 178 232 268 366 420
#     4  11  26  49  69  96 137 187 233 291 347 420
#     4  11  28  48  72 102 139 184 244 289 358 429
#
# _framework density 21.114681999999998
#
# number of rings (size 3 to 8) (size 9 to 14) (size 15 to 20)
#    0.000    0.800    7.333    0.000    5.600    1.067 
#    2.400    2.667    0.000    0.000    0.000    0.000 
#    0.000    0.000    0.000    0.000    0.000    0.000 
#
# Total GULP energy -167417.346165 kJ/mol
# GULP energy per Si atom -5580.578206 kJ/mol
# Density = 2.106662 g / cm^3
# Si number density = 21.114682 Si / 1000 Ang^3
#
#
#
# Elastic Constant Matrix: (Units=GPa)
#
#
# Indices 1 2 3 4 5 6 
#
# 1 42.4635 -0.7695 15.6558 0.0000 6.7625 0.0000
# 2 -0.7695 62.8929 20.1475 0.0000 -4.2903 0.0000
# 3 15.6558 20.1475 145.9271 0.0000 -4.2382 0.0000
# 4 0.0000 0.0000 0.0000 33.2060 0.0000 -6.8671
# 5 6.7625 -4.2903 -4.2382 0.0000 34.7301 0.0000
# 6 0.0000 0.0000 0.0000 -6.8671 0.0000 24.4686
#
#
#
# Elastic Compliance Matrix: (Units=1/GPa)
#
#
# Indices 1 2 3 4 5 6 
#
# 1 0.025510 0.000922 -0.003016 0.000000 -0.005221 0.000000
# 2 0.000922 0.016780 -0.002369 0.000000 0.001604 0.000000
# 3 -0.003016 -0.002369 0.007539 0.000000 0.001215 0.000000
# 4 0.000000 0.000000 0.000000 0.031971 0.000000 0.008973
# 5 -0.005221 0.001604 0.001215 0.000000 0.030157 0.000000
# 6 0.000000 0.000000 0.000000 0.008973 0.000000 0.043387
#
#
# Mechanical properties :
#
#
# Convention : Reuss Voigt Hill
#
# Bulk Modulus (GPa) = 24.44839 35.70569 30.07704
# Shear Modulus (GPa) = 28.10539 32.89757 30.50148
#
# Velocity S-wave (km/s) = 3.65236 3.95149 3.80486
# Velocity P-wave (km/s) = 5.42128 6.14541 5.79467
#
# Compressibility (1/GPa) = 0.04090249
#
# Stress axis : x y z
#
# Youngs Moduli (GPa) = 39.20071 59.59598 132.64997
#
# Poissons Ratio (x) = -0.05495 0.40004
# Poissons Ratio (y) = -0.03614 0.31425
# Poissons Ratio (z) = 0.11822 0.14118
#
# Static dielectric constant tensor:
#      x y z
#    x 1.845180 0.000000 -0.047470 
#    y 0.000000 1.831580 0.000000 
#    z -0.047470 0.000000 1.772550 
# 
# From -- ./inp_files/61883.got.cif
#   From: 2010.05.17/outbox.cif.g08.bks.cpg/sg15_31_cif.got.tgz:61883.got - 2010.06.03 18:47:42.
