data_PCOD9295059
_publ_section_title
;
Structure prediction by ZEFSAII (Michael W. Deem and Ramdas Pophale) SiO2 
 PCOD9295059
Probable space group: C 2/C
;
_chemical_formula_sum "Si O2"
_cell_formula_units_Z 64
_cell_length_a 22.542676
_cell_length_b 26.427425
_cell_length_c 11.243768
_cell_angle_alpha 90.000000
_cell_angle_beta 149.924560
_cell_angle_gamma 90.000000
_cell_volume 3356.843739
_symmetry_space_group_name_H-M "C 2/C"
_symmetry_group_IT_number 15
_symmetry_cell_setting 'monoclinic'
loop_
_space_group_symop_operation_xyz
x,y,z
-x,y,1/2-z
-x,-y,-z
x,-y,1/2+z
1/2+x,1/2+y,z
1/2-x,1/2+y,1/2-z
1/2-x,1/2-y,-z
1/2+x,1/2-y,1/2+z
loop_
_atom_site_type_symbol
_atom_site_label
_atom_site_fract_x
_atom_site_fract_y
_atom_site_fract_z
Si Si1 0.286016 0.190489 0.558764
Si Si2 0.882502 0.104338 0.840888
Si Si3 0.926268 0.002442 0.496992
Si Si4 0.299630 0.300838 0.330087
Si Si5 0.727676 0.644802 0.063754
Si Si6 0.633439 0.610068 0.142171
Si Si7 0.102276 0.751369 0.335352
Si Si8 0.555249 0.794395 0.500149
O O1 0.250000 0.250000 0.500000
O O2 0.257269 0.179543 0.646426
O O3 0.210142 0.150903 0.349226
O O4 0.421069 0.188649 0.747355
O O5 0.874831 0.153521 0.908653
O O6 0.781677 0.107804 0.564175
O O7 0.873705 0.054022 0.904456
O O8 0.004218 0.109143 0.977564
O O9 0.000000 0.010061 0.750000
O O10 0.838846 0.049856 0.322726
O O11 0.000000 0.000000 0.500000
O O12 0.381955 0.250050 0.469313
O O13 0.189516 0.286450 0.054886
O O14 0.644048 0.627973 0.025545
O O15 0.856154 0.658067 0.338330
O O16 0.676622 0.698927 0.934218
O O17 0.051713 0.729194 0.126883
O O18 0.000000 0.764649 0.250000
#
# Coordination Sequence:
#
# PCOD9295059 Si02
#       8
#     8   8   8   8   8   8   8   8
#     4  12  26  39  54  87 127 166 197 245 304 369
#     4  11  21  37  64  93 117 148 200 255 311 362
#     4  10  23  42  63  92 125 158 202 261 318 368
#     4  11  22  35  58  87 118 162 198 247 306 357
#     4  11  21  37  64  88 113 162 204 247 299 360
#     4  11  24  39  59  87 122 158 198 244 305 370
#     4  11  18  34  57  84 122 158 201 246 291 364
#     4  11  22  38  56  87 124 160 207 242 298 374
#
# _framework density 19.065528
#
# number of rings (size 3 to 8) (size 9 to 14) (size 15 to 20)
#    0.000    1.000    3.750    5.625    3.500    3.000 
#    0.000    0.000    0.000    0.750    6.500    0.000 
#    0.000    0.000    0.000    0.000    0.000    0.000 
#
# Total GULP energy -178433.887953 kJ/mol
# GULP energy per Si atom -5576.058999 kJ/mol
# Density = 1.902213 g / cm^3
# Si number density = 19.065528 Si / 1000 Ang^3
#
#
#
# Elastic Constant Matrix: (Units=GPa)
#
#
# Indices 1 2 3 4 5 6 
#
# 1 70.4466 15.8508 21.9979 0.0000 -4.2510 0.0000
# 2 15.8508 113.1848 53.3154 0.0000 -5.6396 0.0000
# 3 21.9979 53.3154 78.8894 0.0000 1.4423 0.0000
# 4 0.0000 0.0000 0.0000 28.0790 0.0000 -3.1961
# 5 -4.2510 -5.6396 1.4423 0.0000 39.9661 0.0000
# 6 0.0000 0.0000 0.0000 -3.1961 0.0000 18.3152
#
#
#
# Elastic Compliance Matrix: (Units=1/GPa)
#
#
# Indices 1 2 3 4 5 6 
#
# 1 0.015681 -0.000044 -0.004376 0.000000 0.001820 0.000000
# 2 -0.000044 0.013148 -0.008913 0.000000 0.002172 0.000000
# 3 -0.004376 -0.008913 0.019965 0.000000 -0.002444 0.000000
# 4 0.000000 0.000000 0.000000 0.036336 0.000000 0.006341
# 5 0.001820 0.002172 -0.002444 0.000000 0.025610 0.000000
# 6 0.000000 0.000000 0.000000 0.006341 0.000000 0.055706
#
#
# Mechanical properties :
#
#
# Convention : Reuss Voigt Hill
#
# Bulk Modulus (GPa) = 45.19308 49.42768 47.31038
# Shear Modulus (GPa) = 24.93918 28.69584 26.81751
#
# Velocity S-wave (km/s) = 3.62066 3.88379 3.75453
# Velocity P-wave (km/s) = 6.42140 6.78920 6.60786
#
# Compressibility (1/GPa) = 0.02212728
#
# Stress axis : x y z
#
# Youngs Moduli (GPa) = 63.76984 76.05680 50.08837
#
# Poissons Ratio (x) = 0.00335 0.21920
# Poissons Ratio (y) = 0.00281 0.44645
# Poissons Ratio (z) = 0.27907 0.67791
#
# Static dielectric constant tensor:
#      x y z
#    x 1.732300 0.000000 -0.036160 
#    y 0.000000 1.706830 0.000000 
#    z -0.036160 0.000000 1.733500 
# 
# From -- ./inp_files/90802.got.cif
#   From: 2010.05.17/outbox.cif.g08.bks.cpg/sg15_46_cif.got.tgz:90802.got - 2010.06.03 18:47:42.
