data_PCOD9295863
_publ_section_title
;
Structure prediction by ZEFSAII (Michael W. Deem and Ramdas Pophale) SiO2 
 PCOD9295863
Probable space group: C 2/C
;
_chemical_formula_sum "Si O2"
_cell_formula_units_Z 60
_cell_length_a 11.255808
_cell_length_b 8.514896
_cell_length_c 28.975181
_cell_angle_alpha 90.000000
_cell_angle_beta 97.854042
_cell_angle_gamma 90.000000
_cell_volume 2750.989969
_symmetry_space_group_name_H-M "C 2/C"
_symmetry_group_IT_number 15
_symmetry_cell_setting 'monoclinic'
loop_
_space_group_symop_operation_xyz
x,y,z
-x,y,1/2-z
-x,-y,-z
x,-y,1/2+z
1/2+x,1/2+y,z
1/2-x,1/2+y,1/2-z
1/2-x,1/2-y,-z
1/2+x,1/2-y,1/2+z
loop_
_atom_site_type_symbol
_atom_site_label
_atom_site_fract_x
_atom_site_fract_y
_atom_site_fract_z
Si Si1 0.141571 0.374594 0.709470
Si Si2 0.000000 0.137577 0.750000
Si Si3 0.156164 0.615901 0.793838
Si Si4 0.723236 0.041263 0.625146
Si Si5 0.548428 0.403931 0.822789
Si Si6 0.371051 0.435497 0.975709
Si Si7 0.808315 0.088695 0.366433
Si Si8 0.366855 0.940291 0.481493
O O1 0.141424 0.494694 0.751777
O O2 0.250003 0.249495 0.717193
O O3 0.146320 0.463674 0.661808
O O4 0.032891 0.255505 0.710978
O O5 0.916117 0.014643 0.718951
O O6 0.048798 0.724948 0.805709
O O7 0.205753 0.521493 0.840407
O O8 0.850396 0.950432 0.634942
O O9 0.731713 0.228769 0.633938
O O10 0.663883 0.017211 0.572698
O O11 0.418359 0.433769 0.836646
O O12 0.352185 0.458006 0.919829
O O13 0.372714 0.248663 0.985099
O O14 0.500000 0.500000 0.000000
O O15 0.248477 0.495290 0.994261
O O16 0.500000 0.000000 0.500000
#
# Coordination Sequence:
#
# PCOD9295863 Si02
#       8
#     8   4   8   8   8   8   8   8
#     4  11  23  40  62  93 129 178 218 270 331 395
#     4  12  24  40  62  96 130 180 224 270 330 396
#     4  11  23  41  63  90 135 172 220 272 328 396
#     4  10  24  43  64  95 134 170 222 278 335 402
#     4  11  25  41  63  94 133 173 221 274 328 397
#     4  10  23  43  71 102 135 176 223 284 349 406
#     4  11  23  42  65  96 131 173 221 270 337 405
#     4  10  23  46  70 100 136 175 226 287 342 407
#
# _framework density 21.810327999999998
#
# number of rings (size 3 to 8) (size 9 to 14) (size 15 to 20)
#    0.000    1.333    1.333    4.000    3.733    4.800 
#    7.200    0.000    0.000    0.000    0.000    0.000 
#    0.000    0.000    0.000    0.000    0.000    0.000 
#
# Total GULP energy -167548.281216 kJ/mol
# GULP energy per Si atom -5584.942707 kJ/mol
# Density = 2.176069 g / cm^3
# Si number density = 21.810328 Si / 1000 Ang^3
#
#
#
# Elastic Constant Matrix: (Units=GPa)
#
#
# Indices 1 2 3 4 5 6 
#
# 1 81.9657 29.5100 39.8539 0.0000 -3.1433 0.0000
# 2 29.5100 105.1081 67.2890 0.0000 -1.8285 0.0000
# 3 39.8539 67.2890 113.6112 0.0000 0.9040 0.0000
# 4 0.0000 0.0000 0.0000 35.4737 0.0000 7.1428
# 5 -3.1433 -1.8285 0.9040 0.0000 28.8203 0.0000
# 6 0.0000 0.0000 0.0000 7.1428 0.0000 38.7650
#
#
#
# Elastic Compliance Matrix: (Units=1/GPa)
#
#
# Indices 1 2 3 4 5 6 
#
# 1 0.014907 -0.001288 -0.004480 0.000000 0.001685 0.000000
# 2 -0.001288 0.015482 -0.008726 0.000000 0.001115 0.000000
# 3 -0.004480 -0.008726 0.015554 0.000000 -0.001530 0.000000
# 4 0.000000 0.000000 0.000000 0.029276 0.000000 -0.005394
# 5 0.001685 0.001115 -0.001530 0.000000 0.035000 0.000000
# 6 0.000000 0.000000 0.000000 -0.005394 0.000000 0.026790
#
#
# Mechanical properties :
#
#
# Convention : Reuss Voigt Hill
#
# Bulk Modulus (GPa) = 58.98301 63.77678 61.37989
# Shear Modulus (GPa) = 29.12929 31.54727 30.33828
#
# Velocity S-wave (km/s) = 3.65851 3.80733 3.73366
# Velocity P-wave (km/s) = 6.70437 6.97372 6.84037
#
# Compressibility (1/GPa) = 0.01695404
#
# Stress axis : x y z
#
# Youngs Moduli (GPa) = 67.08395 64.59288 64.29223
#
# Poissons Ratio (x) = 0.08320 0.28801
# Poissons Ratio (y) = 0.08641 0.56104
# Poissons Ratio (z) = 0.30051 0.56366
#
# Static dielectric constant tensor:
#      x y z
#    x 1.915400 0.000000 0.008630 
#    y 0.000000 1.785520 0.000000 
#    z 0.008630 0.000000 1.785620 
# 
# From -- ./inp_files/310347.got.cif
#   From: 2010.05.17/outbox.cif.g08.bks.cpg/sg15_156_cif.got.tgz:310347.got - 2010.06.03 18:47:42.
