data_PCOD9295602
_publ_section_title
;
Structure prediction by ZEFSAII (Michael W. Deem and Ramdas Pophale) SiO2 
 PCOD9295602
Probable space group: C 2/C
;
_chemical_formula_sum "Si O2"
_cell_formula_units_Z 52
_cell_length_a 32.650761
_cell_length_b 7.785284
_cell_length_c 9.053094
_cell_angle_alpha 90.000000
_cell_angle_beta 121.810750
_cell_angle_gamma 90.000000
_cell_volume 1955.592488
_symmetry_space_group_name_H-M "C 2/C"
_symmetry_group_IT_number 15
_symmetry_cell_setting 'monoclinic'
loop_
_space_group_symop_operation_xyz
x,y,z
-x,y,1/2-z
-x,-y,-z
x,-y,1/2+z
1/2+x,1/2+y,z
1/2-x,1/2+y,1/2-z
1/2-x,1/2-y,-z
1/2+x,1/2-y,1/2+z
loop_
_atom_site_type_symbol
_atom_site_label
_atom_site_fract_x
_atom_site_fract_y
_atom_site_fract_z
Si Si1 0.500000 0.552640 0.750000
Si Si2 0.389639 0.026348 0.733420
Si Si3 0.562640 0.504238 0.578829
Si Si4 0.451938 0.847138 0.093403
Si Si5 0.673328 0.457394 0.209514
Si Si6 0.173731 0.341698 0.120465
Si Si7 0.730056 0.601428 0.569061
O O1 0.543663 0.523484 0.705533
O O2 0.462181 0.651462 0.557216
O O3 0.354347 0.898985 0.578078
O O4 0.413688 0.143047 0.653375
O O5 0.359009 0.122964 0.798121
O O6 0.429777 0.926418 0.904217
O O7 0.535581 0.650228 0.425643
O O8 0.618552 0.540743 0.661013
O O9 0.500000 0.928713 0.250000
O O10 0.681521 0.639300 0.143477
O O11 0.708891 0.460965 0.416081
O O12 0.688900 0.333344 0.105778
O O13 0.223854 0.440544 0.242200
O O14 0.750000 0.750000 0.500000
#
# Coordination Sequence:
#
# PCOD9295602 Si02
#       7
#     4   8   8   8   8   8   8
#     4  10  24  42  62 102 138 180 222 292 354 416
#     4  10  24  43  70  96 133 185 231 288 342 415
#     4  11  24  42  68 101 139 180 234 288 359 407
#     4  11  24  45  66  98 136 183 231 289 346 419
#     4  11  24  41  72 103 137 186 233 286 351 422
#     4  10  23  45  68  99 138 176 234 287 347 418
#     4  10  23  43  66 102 140 179 228 288 348 417
#
# _framework density 26.590408
#
# number of rings (size 3 to 8) (size 9 to 14) (size 15 to 20)
#    0.000    1.538    0.769    2.308   10.769    0.000 
#    6.923    3.846    0.000    0.000    0.000    0.000 
#    0.000    0.000    0.000    0.000    0.000    0.000 
#
# Total GULP energy -145314.267770 kJ/mol
# GULP energy per Si atom -5589.010299 kJ/mol
# Density = 2.652989 g / cm^3
# Si number density = 26.590408 Si / 1000 Ang^3
#
#
#
# Elastic Constant Matrix: (Units=GPa)
#
#
# Indices 1 2 3 4 5 6 
#
# 1 202.4249 19.0199 75.8656 0.0000 -12.9639 0.0000
# 2 19.0199 47.6917 26.3756 0.0000 -7.3999 0.0000
# 3 75.8656 26.3756 202.4570 0.0000 -6.9226 0.0000
# 4 0.0000 0.0000 0.0000 25.0460 0.0000 2.5973
# 5 -12.9639 -7.3999 -6.9226 0.0000 66.1243 0.0000
# 6 0.0000 0.0000 0.0000 2.5973 0.0000 19.2805
#
#
#
# Elastic Compliance Matrix: (Units=1/GPa)
#
#
# Indices 1 2 3 4 5 6 
#
# 1 0.005853 -0.001089 -0.002024 0.000000 0.000814 0.000000
# 2 -0.001089 0.023131 -0.002533 0.000000 0.002110 0.000000
# 3 -0.002024 -0.002533 0.006026 0.000000 -0.000049 0.000000
# 4 0.000000 0.000000 0.000000 0.040492 0.000000 -0.005455
# 5 0.000814 0.002110 -0.000049 0.000000 0.015514 0.000000
# 6 0.000000 0.000000 0.000000 -0.005455 0.000000 0.052601
#
#
# Mechanical properties :
#
#
# Convention : Reuss Voigt Hill
#
# Bulk Modulus (GPa) = 42.16166 77.23286 59.69726
# Shear Modulus (GPa) = 30.71005 44.17767 37.44386
#
# Velocity S-wave (km/s) = 3.40211 4.08047 3.75663
# Velocity P-wave (km/s) = 5.59668 7.16301 6.42774
#
# Compressibility (1/GPa) = 0.02371823
#
# Stress axis : x y z
#
# Youngs Moduli (GPa) = 170.85478 43.23274 165.94927
#
# Poissons Ratio (x) = 0.04707 0.33581
# Poissons Ratio (y) = 0.18603 0.42039
# Poissons Ratio (z) = 0.34574 0.10952
#
# Static dielectric constant tensor:
#      x y z
#    x 2.069150 0.000000 0.093550 
#    y 0.000000 2.564670 0.000000 
#    z 0.093550 0.000000 2.171910 
# 
# From -- ./inp_files/65612.got.cif
#   From: 2010.05.17/outbox.cif.g08.bks.cpg/sg15_33_cif.got.tgz:65612.got - 2010.06.03 18:47:42.
