data_PCOD9295430
_publ_section_title
;
Structure prediction by ZEFSAII (Michael W. Deem and Ramdas Pophale) SiO2 
 PCOD9295430
Probable space group: C 2/C
;
_chemical_formula_sum "Si O2"
_cell_formula_units_Z 32
_cell_length_a 17.051163
_cell_length_b 8.585921
_cell_length_c 20.691859
_cell_angle_alpha 90.000000
_cell_angle_beta 25.217793
_cell_angle_gamma 90.000000
_cell_volume 1290.658763
_symmetry_space_group_name_H-M "C 2/C"
_symmetry_group_IT_number 15
_symmetry_cell_setting 'monoclinic'
loop_
_space_group_symop_operation_xyz
x,y,z
-x,y,1/2-z
-x,-y,-z
x,-y,1/2+z
1/2+x,1/2+y,z
1/2-x,1/2+y,1/2-z
1/2-x,1/2-y,-z
1/2+x,1/2-y,1/2+z
loop_
_atom_site_type_symbol
_atom_site_label
_atom_site_fract_x
_atom_site_fract_y
_atom_site_fract_z
Si Si1 0.563869 0.418812 0.083321
Si Si2 0.817529 0.400194 0.647065
Si Si3 0.174060 0.334852 0.151707
Si Si4 0.140690 0.349605 0.736523
O O1 0.365963 0.494964 0.218583
O O2 0.515081 0.275112 0.166219
O O3 0.699434 0.566175 0.992347
O O4 0.669577 0.337351 0.944314
O O5 0.794557 0.272103 0.608131
O O6 0.822565 0.332068 0.715282
O O7 0.000000 0.500000 0.500000
O O8 0.085972 0.473168 0.261454
O O9 0.000000 0.251511 0.250000
#
# Coordination Sequence:
#
# PCOD9295430 Si02
#       4
#     8   8   8   8
#     4  10  24  43  70 108 145 193 254 304 373 441
#     4  12  25  43  74 107 146 200 255 313 367 449
#     4  10  27  47  71 110 154 195 247 311 381 445
#     4  10  23  42  71 106 142 192 250 307 360 441
#
# _framework density 24.79354
#
# number of rings (size 3 to 8) (size 9 to 14) (size 15 to 20)
#    1.500    0.000    0.000    3.750   10.500    2.000 
#    0.000    1.250    0.000    0.000    0.000    0.000 
#    0.000    0.000    0.000    0.000    0.000    0.000 
#
# Total GULP energy -89335.461838 kJ/mol
# GULP energy per Si atom -5583.466365 kJ/mol
# Density = 2.473711 g / cm^3
# Si number density = 24.793540 Si / 1000 Ang^3
#
#
#
# Elastic Constant Matrix: (Units=GPa)
#
#
# Indices 1 2 3 4 5 6 
#
# 1 70.5343 37.2161 42.0782 -0.0004 -10.2747 0.0000
# 2 37.2161 109.4538 65.6931 0.0008 5.5369 0.0000
# 3 42.0782 65.6931 183.1833 0.0018 -13.1979 0.0001
# 4 -0.0004 0.0008 0.0018 62.2765 0.0001 10.3947
# 5 -10.2747 5.5369 -13.1979 0.0001 31.7122 0.0000
# 6 0.0000 0.0000 0.0001 10.3947 0.0000 1.8843
#
#
#
# Elastic Compliance Matrix: (Units=1/GPa)
#
#
# Indices 1 2 3 4 5 6 
#
# 1 0.019283 -0.005739 -0.001906 0.000004 0.006457 -0.000020
# 2 -0.005739 0.013834 -0.004073 -0.000002 -0.005970 0.000012
# 3 -0.001906 -0.004073 0.007592 -0.000001 0.003253 0.000008
# 4 0.000004 -0.000002 -0.000001 0.202695 0.000001 -1.118178
# 5 0.006457 -0.005970 0.003253 0.000001 0.036022 -0.000005
# 6 -0.000020 0.000012 0.000008 -1.118178 -0.000005 6.699183
#
#
# Mechanical properties :
#
#
# Convention : Reuss Voigt Hill
#
# Bulk Modulus (GPa) = 57.89454 72.57180 65.23317
# Shear Modulus (GPa) = 0.71349 33.72018 17.21683
#
# Velocity S-wave (km/s) = 0.53703 3.69187 2.63802
# Velocity P-wave (km/s) = 4.87708 6.89255 5.97047
#
# Compressibility (1/GPa) = 0.01727278
#
# Stress axis : x y z
#
# Youngs Moduli (GPa) = 51.85813 72.28386 131.71910
#
# Poissons Ratio (x) = 0.41486 0.25107
# Poissons Ratio (y) = 0.29763 0.53650
# Poissons Ratio (z) = 0.09885 0.29442
#
# Static dielectric constant tensor:
#      x y z
#    x 1.978690 0.000000 -0.023250 
#    y 0.000000 2.077740 0.000000 
#    z -0.023250 0.000000 1.951680 
# 
# From -- ./inp_files/300429.got.cif
#   From: 2010.05.17/outbox.cif.g08.bks.cpg/sg15_151_cif.got.tgz:300429.got - 2010.06.03 18:47:42.
