data_PCOD9295596
_publ_section_title
;
Structure prediction by ZEFSAII (Michael W. Deem and Ramdas Pophale) SiO2 
 PCOD9295596
Probable space group: C 2/C
;
_chemical_formula_sum "Si O2"
_cell_formula_units_Z 52
_cell_length_a 6.748453
_cell_length_b 12.574502
_cell_length_c 28.431854
_cell_angle_alpha 90.000000
_cell_angle_beta 88.429816
_cell_angle_gamma 90.000000
_cell_volume 2411.776717
_symmetry_space_group_name_H-M "C 2/C"
_symmetry_group_IT_number 15
_symmetry_cell_setting 'monoclinic'
loop_
_space_group_symop_operation_xyz
x,y,z
-x,y,1/2-z
-x,-y,-z
x,-y,1/2+z
1/2+x,1/2+y,z
1/2-x,1/2+y,1/2-z
1/2-x,1/2-y,-z
1/2+x,1/2-y,1/2+z
loop_
_atom_site_type_symbol
_atom_site_label
_atom_site_fract_x
_atom_site_fract_y
_atom_site_fract_z
Si Si1 0.500000 0.295767 0.750000
Si Si2 0.755064 0.437140 0.542054
Si Si3 0.085073 0.330198 0.478598
Si Si4 0.908365 0.155797 0.085902
Si Si5 0.992035 0.369029 0.627388
Si Si6 0.129883 0.194905 0.796358
Si Si7 0.677297 0.546544 0.320305
O O1 0.356895 0.224175 0.782667
O O2 0.355410 0.375103 0.722795
O O3 0.812900 0.556465 0.529718
O O4 0.521039 0.415145 0.546522
O O5 0.883392 0.358057 0.508219
O O6 0.824550 0.412572 0.594915
O O7 0.250000 0.250000 0.500000
O O8 0.027757 0.273975 0.429330
O O9 0.670147 0.156199 0.089611
O O10 0.942380 0.104950 0.136907
O O11 0.096467 0.451849 0.662372
O O12 0.937331 0.269036 0.659932
O O13 0.000000 0.213417 0.750000
O O14 0.110005 0.071695 0.810198
#
# Coordination Sequence:
#
# PCOD9295596 Si02
#       7
#     4   8   8   8   8   8   8
#     4  12  24  44  66 100 126 172 228 264 338 400
#     4  11  24  43  70  97 135 179 219 277 330 393
#     4  11  23  45  69  99 137 177 224 273 329 396
#     4  10  23  43  65  99 134 172 221 269 328 393
#     4  10  24  44  64  99 131 168 222 271 328 394
#     4  12  24  44  70  93 134 174 217 279 331 391
#     4  10  24  43  65  98 131 173 218 273 330 397
#
# _framework density 21.560866999999998
#
# number of rings (size 3 to 8) (size 9 to 14) (size 15 to 20)
#    0.923    0.308    3.846    1.385    2.154    4.308 
#    5.538    0.000    0.000    0.000    0.000    0.000 
#    0.000    0.000    0.000    0.000    0.000    0.000 
#
# Total GULP energy -144876.181324 kJ/mol
# GULP energy per Si atom -5572.160820 kJ/mol
# Density = 2.151179 g / cm^3
# Si number density = 21.560867 Si / 1000 Ang^3
#
#
#
# Elastic Constant Matrix: (Units=GPa)
#
#
# Indices 1 2 3 4 5 6 
#
# 1 63.2255 41.2094 36.6188 0.0000 -24.3427 0.0000
# 2 41.2094 121.6775 57.2692 0.0000 -2.0457 0.0000
# 3 36.6188 57.2692 76.1040 0.0000 4.3500 0.0000
# 4 0.0000 0.0000 0.0000 25.7467 0.0000 5.0024
# 5 -24.3427 -2.0457 4.3500 0.0000 29.6723 0.0000
# 6 0.0000 0.0000 0.0000 5.0024 0.0000 21.3895
#
#
#
# Elastic Compliance Matrix: (Units=1/GPa)
#
#
# Indices 1 2 3 4 5 6 
#
# 1 0.047985 -0.005486 -0.021368 0.000000 0.042120 0.000000
# 2 -0.005486 0.013510 -0.007385 0.000000 -0.002487 0.000000
# 3 -0.021368 -0.007385 0.030263 0.000000 -0.022476 0.000000
# 4 0.000000 0.000000 0.000000 0.040689 0.000000 -0.009516
# 5 0.042120 -0.002487 -0.022476 0.000000 0.071380 0.000000
# 6 0.000000 0.000000 0.000000 -0.009516 0.000000 0.048977
#
#
# Mechanical properties :
#
#
# Convention : Reuss Voigt Hill
#
# Bulk Modulus (GPa) = 42.95385 59.02243 50.98814
# Shear Modulus (GPa) = 15.19556 23.75567 19.47562
#
# Velocity S-wave (km/s) = 2.65764 3.32293 3.00873
# Velocity P-wave (km/s) = 5.42059 6.49282 5.98078
#
# Compressibility (1/GPa) = 0.02328080
#
# Stress axis : x y z
#
# Youngs Moduli (GPa) = 20.83984 74.01657 33.04324
#
# Poissons Ratio (x) = 0.40607 0.70607
# Poissons Ratio (y) = 0.11433 0.24402
# Poissons Ratio (z) = 0.44530 0.54660
#
# Static dielectric constant tensor:
#      x y z
#    x 1.919660 0.000000 0.069070 
#    y 0.000000 1.739400 0.000000 
#    z 0.069070 0.000000 1.835680 
# 
# From -- ./inp_files/306907.got.cif
#   From: 2010.05.17/outbox.cif.g08.bks.cpg/sg15_154_cif.got.tgz:306907.got - 2010.06.03 18:47:42.
