data_PCOD9295804
_publ_section_title
;
Structure prediction by ZEFSAII (Michael W. Deem and Ramdas Pophale) SiO2 
 PCOD9295804
Probable space group: C 2/C
;
_chemical_formula_sum "Si O2"
_cell_formula_units_Z 36
_cell_length_a 18.403867
_cell_length_b 9.418800
_cell_length_c 9.268486
_cell_angle_alpha 90.000000
_cell_angle_beta 121.175921
_cell_angle_gamma 90.000000
_cell_volume 1374.595895
_symmetry_space_group_name_H-M "C 2/C"
_symmetry_group_IT_number 15
_symmetry_cell_setting 'monoclinic'
loop_
_space_group_symop_operation_xyz
x,y,z
-x,y,1/2-z
-x,-y,-z
x,-y,1/2+z
1/2+x,1/2+y,z
1/2-x,1/2+y,1/2-z
1/2-x,1/2-y,-z
1/2+x,1/2-y,1/2+z
loop_
_atom_site_type_symbol
_atom_site_label
_atom_site_fract_x
_atom_site_fract_y
_atom_site_fract_z
Si Si1 0.790089 0.349010 0.262414
Si Si2 0.500000 0.536454 0.250000
Si Si3 0.387226 0.273715 0.107921
Si Si4 0.345451 0.149043 0.376426
Si Si5 0.027188 0.298981 0.083566
O O1 0.809173 0.244604 0.417167
O O2 0.705919 0.282042 0.108882
O O3 0.788863 0.507712 0.322657
O O4 0.879284 0.345532 0.266432
O O5 0.418489 0.433822 0.163773
O O6 0.508420 0.641677 0.123386
O O7 0.365773 0.197000 0.233420
O O8 0.458406 0.208789 0.073221
O O9 0.441152 0.118588 0.531926
#
# Coordination Sequence:
#
# PCOD9295804 Si02
#       5
#     8   4   8   8   8
#     4  10  27  42  70 105 141 184 232 282 354 413
#     4  12  22  42  80 102 136 186 236 288 350 416
#     4  10  23  43  69  99 143 178 228 290 344 405
#     4  12  23  47  71 100 148 181 234 289 347 417
#     4  10  25  44  68 101 140 181 232 280 350 410
#
# _framework density 26.189515
#
# number of rings (size 3 to 8) (size 9 to 14) (size 15 to 20)
#    1.333    0.000    2.222    2.000    6.222    1.778 
#    0.000    2.222    0.000    0.000    0.000    0.000 
#    0.000    0.000    0.000    0.000    0.000    0.000 
#
# Total GULP energy -100462.302013 kJ/mol
# GULP energy per Si atom -5581.239001 kJ/mol
# Density = 2.612991 g / cm^3
# Si number density = 26.189515 Si / 1000 Ang^3
#
#
#
# Elastic Constant Matrix: (Units=GPa)
#
#
# Indices 1 2 3 4 5 6 
#
# 1 146.7822 28.2353 38.0644 0.0000 16.8241 0.0000
# 2 28.2353 160.1745 4.3220 0.0000 23.1862 0.0000
# 3 38.0644 4.3220 38.4629 0.0000 -6.4775 0.0000
# 4 0.0000 0.0000 0.0000 23.9279 0.0000 17.3909
# 5 16.8241 23.1862 -6.4775 0.0000 56.7608 0.0000
# 6 0.0000 0.0000 0.0000 17.3909 0.0000 38.1351
#
#
#
# Elastic Compliance Matrix: (Units=1/GPa)
#
#
# Indices 1 2 3 4 5 6 
#
# 1 0.010193 -0.000954 -0.010628 0.000000 -0.003845 0.000000
# 2 -0.000954 0.006782 -0.000242 0.000000 -0.002515 0.000000
# 3 -0.010628 -0.000242 0.037818 0.000000 0.007565 0.000000
# 4 0.000000 0.000000 0.000000 0.062511 0.000000 -0.028507
# 5 -0.003845 -0.002515 0.007565 0.000000 0.020648 0.000000
# 6 0.000000 0.000000 0.000000 -0.028507 0.000000 0.039223
#
#
# Mechanical properties :
#
#
# Convention : Reuss Voigt Hill
#
# Bulk Modulus (GPa) = 32.10659 54.07365 43.09012
# Shear Modulus (GPa) = 23.67388 42.08463 32.87925
#
# Velocity S-wave (km/s) = 3.00983 4.01300 3.54706
# Velocity P-wave (km/s) = 4.93606 6.49339 5.76753
#
# Compressibility (1/GPa) = 0.03114625
#
# Stress axis : x y z
#
# Youngs Moduli (GPa) = 98.10743 147.45098 26.44259
#
# Poissons Ratio (x) = 0.14060 0.28102
# Poissons Ratio (y) = 0.09355 0.00640
# Poissons Ratio (z) = 1.04265 0.03569
#
# Static dielectric constant tensor:
#      x y z
#    x 2.102150 0.000000 0.117580 
#    y 0.000000 1.980860 0.000000 
#    z 0.117580 0.000000 2.195210 
# 
# From -- ./inp_files/109846.got.cif
#   From: 2010.05.17/outbox.cif.g08.bks.cpg/sg15_55_cif.got.tgz:109846.got - 2010.06.03 18:47:42.
