data_PCOD9295428
_publ_section_title
;
Structure prediction by ZEFSAII (Michael W. Deem and Ramdas Pophale) SiO2 
 PCOD9295428
Probable space group: C 2/C
;
_chemical_formula_sum "Si O2"
_cell_formula_units_Z 24
_cell_length_a 24.275875
_cell_length_b 7.226619
_cell_length_c 8.042291
_cell_angle_alpha 90.000000
_cell_angle_beta 135.070258
_cell_angle_gamma 90.000000
_cell_volume 996.418166
_symmetry_space_group_name_H-M "C 2/C"
_symmetry_group_IT_number 15
_symmetry_cell_setting 'monoclinic'
loop_
_space_group_symop_operation_xyz
x,y,z
-x,y,1/2-z
-x,-y,-z
x,-y,1/2+z
1/2+x,1/2+y,z
1/2-x,1/2+y,1/2-z
1/2-x,1/2-y,-z
1/2+x,1/2-y,1/2+z
loop_
_atom_site_type_symbol
_atom_site_label
_atom_site_fract_x
_atom_site_fract_y
_atom_site_fract_z
Si Si1 0.087499 0.928130 0.192205
Si Si2 0.667745 0.264472 0.684117
Si Si3 0.309574 0.833968 0.765536
O O1 0.109584 0.821979 0.408595
O O2 0.114088 0.791730 0.098803
O O3 0.140867 0.108197 0.277846
O O4 0.000000 0.000000 0.000000
O O5 0.753949 0.323557 0.807291
O O6 0.666679 0.045950 0.707555
O O7 0.250000 0.750000 0.500000
#
# Coordination Sequence:
#
# PCOD9295428 Si02
#       3
#     8   8   8
#     4  11  25  45  71 107 149 186 237 306 363 432
#     4  11  23  44  74 106 141 192 244 293 362 434
#     4  10  23  42  71 106 137 190 244 294 353 435
#
# _framework density 24.086272999999998
#
# number of rings (size 3 to 8) (size 9 to 14) (size 15 to 20)
#    0.000    1.333    3.333    1.000    0.000   12.000 
#    0.000    3.333    0.000    0.000    0.000    0.000 
#    0.000    0.000    0.000    0.000    0.000    0.000 
#
# Total GULP energy -67189.743526 kJ/mol
# GULP energy per Si atom -5599.145294 kJ/mol
# Density = 2.403145 g / cm^3
# Si number density = 24.086273 Si / 1000 Ang^3
#
#
#
# Elastic Constant Matrix: (Units=GPa)
#
#
# Indices 1 2 3 4 5 6 
#
# 1 116.7047 67.1415 62.5605 0.0000 25.0071 0.0000
# 2 67.1415 262.1422 75.0366 0.0000 25.3132 0.0000
# 3 62.5605 75.0366 128.3945 0.0000 15.3715 0.0000
# 4 0.0000 0.0000 0.0000 46.8731 0.0000 4.8951
# 5 25.0071 25.3132 15.3715 0.0000 38.6831 0.0000
# 6 0.0000 0.0000 0.0000 4.8951 0.0000 52.6789
#
#
#
# Elastic Compliance Matrix: (Units=1/GPa)
#
#
# Indices 1 2 3 4 5 6 
#
# 1 0.013258 -0.001433 -0.004944 0.000000 -0.005668 0.000000
# 2 -0.001433 0.004893 -0.001983 0.000000 -0.001487 0.000000
# 3 -0.004944 -0.001983 0.011359 0.000000 -0.000020 0.000000
# 4 0.000000 0.000000 0.000000 0.021543 0.000000 -0.002002
# 5 -0.005668 -0.001487 -0.000020 0.000000 0.030497 0.000000
# 6 0.000000 0.000000 0.000000 -0.002002 0.000000 0.019169
#
#
# Mechanical properties :
#
#
# Convention : Reuss Voigt Hill
#
# Bulk Modulus (GPa) = 78.18961 101.85764 90.02363
# Shear Modulus (GPa) = 41.08391 47.81388 44.44889
#
# Velocity S-wave (km/s) = 4.13449 4.46029 4.30048
# Velocity P-wave (km/s) = 7.43806 8.30097 7.88133
#
# Compressibility (1/GPa) = 0.01278942
#
# Stress axis : x y z
#
# Youngs Moduli (GPa) = 75.42669 204.36842 88.03775
#
# Poissons Ratio (x) = 0.29291 0.43523
# Poissons Ratio (y) = 0.10810 0.17460
# Poissons Ratio (z) = 0.37289 0.40531
#
# Static dielectric constant tensor:
#      x y z
#    x 2.022330 0.000000 -0.114880 
#    y 0.000000 1.900150 0.000000 
#    z -0.114880 0.000000 2.027430 
# 
# From -- ./inp_files/101947.got.cif
#   From: 2010.05.17/outbox.cif.g08.bks.cpg/sg15_51_cif.got.tgz:101947.got - 2010.06.03 18:47:42.
