data_PCOD9295353
_publ_section_title
;
Structure prediction by ZEFSAII (Michael W. Deem and Ramdas Pophale) SiO2 
 PCOD9295353
Probable space group: C 2/C
;
_chemical_formula_sum "Si O2"
_cell_formula_units_Z 32
_cell_length_a 9.738156
_cell_length_b 10.515772
_cell_length_c 13.085957
_cell_angle_alpha 90.000000
_cell_angle_beta 86.784047
_cell_angle_gamma 90.000000
_cell_volume 1337.946982
_symmetry_space_group_name_H-M "C 2/C"
_symmetry_group_IT_number 15
_symmetry_cell_setting 'monoclinic'
loop_
_space_group_symop_operation_xyz
x,y,z
-x,y,1/2-z
-x,-y,-z
x,-y,1/2+z
1/2+x,1/2+y,z
1/2-x,1/2+y,1/2-z
1/2-x,1/2-y,-z
1/2+x,1/2-y,1/2+z
loop_
_atom_site_type_symbol
_atom_site_label
_atom_site_fract_x
_atom_site_fract_y
_atom_site_fract_z
Si Si1 0.500000 0.743032 0.750000
Si Si2 0.094738 0.750902 0.545954
Si Si3 0.125265 0.956430 0.394790
Si Si4 0.350483 0.859174 0.947762
Si Si5 0.500000 0.663388 0.250000
O O1 0.395652 0.654960 0.689316
O O2 0.410294 0.821411 0.834465
O O3 0.250000 0.750000 0.500000
O O4 0.046936 0.883261 0.491525
O O5 0.984980 0.647518 0.513746
O O6 0.091226 0.757343 0.667935
O O7 0.264961 0.011267 0.439305
O O8 0.083451 0.074805 0.324013
O O9 0.250000 0.750000 0.000000
#
# Coordination Sequence:
#
# PCOD9295353 Si02
#       5
#     4   8   8   8   4
#     4   9  24  42  69 104 136 185 226 284 351 414
#     4  11  26  44  67 104 141 174 229 290 342 411
#     4  10  23  42  69  96 132 182 228 276 343 413
#     4  11  23  43  70  98 134 180 233 278 343 419
#     4  11  22  42  71  94 130 183 224 272 349 404
#
# _framework density 23.917242999999999
#
# number of rings (size 3 to 8) (size 9 to 14) (size 15 to 20)
#    0.000    1.500    2.500    0.750   14.000    1.000 
#    0.000    3.750    0.000    0.000    0.000    0.000 
#    0.000    0.000    0.000    0.000    0.000    0.000 
#
# Total GULP energy -89166.718428 kJ/mol
# GULP energy per Si atom -5572.919902 kJ/mol
# Density = 2.386281 g / cm^3
# Si number density = 23.917243 Si / 1000 Ang^3
#
#
#
# Elastic Constant Matrix: (Units=GPa)
#
#
# Indices 1 2 3 4 5 6 
#
# 1 149.2131 45.1081 53.8933 0.0000 12.6361 0.0000
# 2 45.1081 90.9504 31.4120 0.0000 2.9594 0.0000
# 3 53.8933 31.4120 201.6920 0.0000 -25.0621 0.0000
# 4 0.0000 0.0000 0.0000 19.4684 0.0000 21.3749
# 5 12.6361 2.9594 -25.0621 0.0000 52.1100 0.0000
# 6 0.0000 0.0000 0.0000 21.3749 0.0000 66.3474
#
#
#
# Elastic Compliance Matrix: (Units=1/GPa)
#
#
# Indices 1 2 3 4 5 6 
#
# 1 0.008803 -0.003518 -0.002175 0.000000 -0.002981 0.000000
# 2 -0.003518 0.013157 -0.001166 0.000000 -0.000455 0.000000
# 3 -0.002175 -0.001166 0.006163 0.000000 0.003558 0.000000
# 4 0.000000 0.000000 0.000000 0.079478 0.000000 -0.025605
# 5 -0.002981 -0.000455 0.003558 0.000000 0.021650 0.000000
# 6 0.000000 0.000000 0.000000 -0.025605 0.000000 0.023321
#
#
# Mechanical properties :
#
#
# Convention : Reuss Voigt Hill
#
# Bulk Modulus (GPa) = 69.41345 78.07581 73.74463
# Shear Modulus (GPa) = 29.22420 48.34797 38.78609
#
# Velocity S-wave (km/s) = 3.49934 4.50095 4.03138
# Velocity P-wave (km/s) = 6.73888 7.72829 7.25048
#
# Compressibility (1/GPa) = 0.01440643
#
# Stress axis : x y z
#
# Youngs Moduli (GPa) = 113.59419 76.00418 162.26505
#
# Poissons Ratio (x) = 0.26738 0.35289
# Poissons Ratio (y) = 0.39962 0.18914
# Poissons Ratio (z) = 0.24704 0.08859
#
# Static dielectric constant tensor:
#      x y z
#    x 2.107250 0.000000 0.011040 
#    y 0.000000 2.048040 0.000000 
#    z 0.011040 0.000000 1.873520 
# 
# From -- ./inp_files/123237.got.cif
#   From: 2010.05.17/outbox.cif.g08.bks.cpg/sg15_62_cif.got.tgz:123237.got - 2010.06.03 18:47:42.
