data_PCOD9295716
_publ_section_title
;
Structure prediction by ZEFSAII (Michael W. Deem and Ramdas Pophale) SiO2 
 PCOD9295716
Probable space group: C 2/C
;
_chemical_formula_sum "Si O2"
_cell_formula_units_Z 40
_cell_length_a 6.993897
_cell_length_b 24.850360
_cell_length_c 11.911607
_cell_angle_alpha 90.000000
_cell_angle_beta 69.218759
_cell_angle_gamma 90.000000
_cell_volume 1935.561130
_symmetry_space_group_name_H-M "C 2/C"
_symmetry_group_IT_number 15
_symmetry_cell_setting 'monoclinic'
loop_
_space_group_symop_operation_xyz
x,y,z
-x,y,1/2-z
-x,-y,-z
x,-y,1/2+z
1/2+x,1/2+y,z
1/2-x,1/2+y,1/2-z
1/2-x,1/2-y,-z
1/2+x,1/2-y,1/2+z
loop_
_atom_site_type_symbol
_atom_site_label
_atom_site_fract_x
_atom_site_fract_y
_atom_site_fract_z
Si Si1 0.671085 0.705003 0.424339
Si Si2 0.500000 0.123608 0.250000
Si Si3 0.000000 0.732564 0.750000
Si Si4 0.922133 0.038852 0.654010
Si Si5 0.613711 0.659853 0.836210
Si Si6 0.143371 0.468062 0.558250
O O1 0.750000 0.750000 0.500000
O O2 0.827529 0.666423 0.324957
O O3 0.547888 0.734058 0.351370
O O4 0.529955 0.666343 0.527465
O O5 0.483204 0.080956 0.358385
O O6 0.189827 0.694861 0.684742
O O7 0.837876 0.097979 0.698380
O O8 0.000000 0.009664 0.750000
O O9 0.137327 0.047884 0.543614
O O10 0.739592 0.007296 0.632739
O O11 0.500000 0.682160 0.750000
O O12 0.000000 0.500000 0.500000
#
# Coordination Sequence:
#
# PCOD9295716 Si02
#       6
#     8   4   4   8   8   8
#     4  12  25  47  70 105 148 188 252 308 355 444
#     4  12  26  47  74 108 146 199 238 308 380 428
#     4  12  26  43  74 102 138 201 240 304 384 420
#     4  10  23  43  68 103 138 179 235 298 361 444
#     4  11  23  45  72 101 141 186 241 305 368 434
#     4  11  24  44  72 103 144 184 237 300 366 445
#
# _framework density 20.665842000000001
#
# number of rings (size 3 to 8) (size 9 to 14) (size 15 to 20)
#    0.000    0.800    4.000    3.000    0.000    7.200 
#    1.800    0.000    0.000    0.000    0.000    0.000 
#    0.000    0.000    0.000    0.000    0.000    0.000 
#
# Total GULP energy -111443.174357 kJ/mol
# GULP energy per Si atom -5572.158718 kJ/mol
# Density = 2.061881 g / cm^3
# Si number density = 20.665842 Si / 1000 Ang^3
#
#
#
# Elastic Constant Matrix: (Units=GPa)
#
#
# Indices 1 2 3 4 5 6 
#
# 1 139.2235 75.1315 68.1333 0.0000 20.2204 0.0000
# 2 75.1315 106.0463 34.7265 0.0000 21.2221 0.0000
# 3 68.1333 34.7265 106.7310 0.0000 6.5493 0.0000
# 4 0.0000 0.0000 0.0000 50.7039 0.0000 0.0139
# 5 20.2204 21.2221 6.5493 0.0000 53.1455 0.0000
# 6 0.0000 0.0000 0.0000 0.0139 0.0000 42.5964
#
#
#
# Elastic Compliance Matrix: (Units=1/GPa)
#
#
# Indices 1 2 3 4 5 6 
#
# 1 0.015259 -0.008192 -0.006973 0.000000 -0.001675 0.000000
# 2 -0.008192 0.015783 0.000292 0.000000 -0.003222 0.000000
# 3 -0.006973 0.000292 0.013673 0.000000 0.000851 0.000000
# 4 0.000000 0.000000 0.000000 0.019722 0.000000 -0.000006
# 5 -0.001675 -0.003222 0.000851 0.000000 0.020635 0.000000
# 6 0.000000 0.000000 0.000000 -0.000006 0.000000 0.023476
#
#
# Mechanical properties :
#
#
# Convention : Reuss Voigt Hill
#
# Bulk Modulus (GPa) = 66.80174 78.66481 72.73327
# Shear Modulus (GPa) = 34.89563 40.88981 37.89272
#
# Velocity S-wave (km/s) = 4.11367 4.45299 4.28669
# Velocity P-wave (km/s) = 7.41336 8.03658 7.73125
#
# Compressibility (1/GPa) = 0.01496967
#
# Stress axis : x y z
#
# Youngs Moduli (GPa) = 65.53418 63.35960 73.13599
#
# Poissons Ratio (x) = 0.51906 0.50995
# Poissons Ratio (y) = 0.53688 -0.02137
# Poissons Ratio (z) = 0.45695 -0.01851
#
# Static dielectric constant tensor:
#      x y z
#    x 1.688340 0.000000 -0.037190 
#    y 0.000000 1.755020 0.000000 
#    z -0.037190 0.000000 1.773870 
# 
# From -- ./inp_files/73105.got.cif
#   From: 2010.05.17/outbox.cif.g08.bks.cpg/sg15_37_cif.got.tgz:73105.got - 2010.06.03 18:47:42.
