data_PCOD9295109
_publ_section_title
;
Structure prediction by ZEFSAII (Michael W. Deem and Ramdas Pophale) SiO2 
 PCOD9295109
Probable space group: C 2/C
;
_chemical_formula_sum "Si O2"
_cell_formula_units_Z 64
_cell_length_a 28.603901
_cell_length_b 12.166653
_cell_length_c 8.550852
_cell_angle_alpha 90.000000
_cell_angle_beta 86.666854
_cell_angle_gamma 90.000000
_cell_volume 2970.779926
_symmetry_space_group_name_H-M "C 2/C"
_symmetry_group_IT_number 15
_symmetry_cell_setting 'monoclinic'
loop_
_space_group_symop_operation_xyz
x,y,z
-x,y,1/2-z
-x,-y,-z
x,-y,1/2+z
1/2+x,1/2+y,z
1/2-x,1/2+y,1/2-z
1/2-x,1/2-y,-z
1/2+x,1/2-y,1/2+z
loop_
_atom_site_type_symbol
_atom_site_label
_atom_site_fract_x
_atom_site_fract_y
_atom_site_fract_z
Si Si1 0.673118 0.153736 0.519811
Si Si2 0.407454 0.974713 0.987203
Si Si3 0.115013 0.160420 0.885457
Si Si4 0.248381 0.942966 0.660908
Si Si5 0.782935 0.352585 0.979500
Si Si6 0.550746 0.142042 0.315604
Si Si7 0.131622 0.720688 0.860412
Si Si8 0.363971 0.559739 0.290410
O O1 0.656086 0.249986 0.406795
O O2 0.727077 0.128836 0.479153
O O3 0.659181 0.190920 0.695792
O O4 0.641536 0.043796 0.495916
O O5 0.408091 0.870446 0.105320
O O6 0.445166 0.066058 0.031333
O O7 0.417178 0.922689 0.816835
O O8 0.071677 0.238241 0.849360
O O9 0.124656 0.064087 0.761125
O O10 0.112203 0.098553 0.053357
O O11 0.273520 0.907869 0.815311
O O12 0.192672 0.932915 0.681719
O O13 0.264647 0.064249 0.614468
O O14 0.750000 0.250000 0.000000
O O15 0.834363 0.307032 0.002623
O O16 0.500000 0.149087 0.250000
O O17 0.120962 0.848964 0.841984
#
# Coordination Sequence:
#
# PCOD9295109 Si02
#       8
#     8   8   8   8   8   8   8   8
#     4  10  23  42  64  98 131 179 227 279 328 384
#     4  11  22  42  73 101 138 166 207 276 354 406
#     4  10  26  43  70  94 137 176 226 272 339 394
#     4  12  25  39  62  91 131 183 240 281 315 374
#     4  12  26  40  57  89 129 176 238 282 326 368
#     4  11  25  47  77 107 131 162 213 279 352 429
#     4  11  23  41  63  93 133 184 222 273 335 388
#     4  11  25  44  62  95 137 189 234 269 316 386
#
# _framework density 21.543165999999999
#
# number of rings (size 3 to 8) (size 9 to 14) (size 15 to 20)
#    0.000    1.000    3.750    1.875    7.000    2.000 
#    0.000    0.625    0.000    0.000    0.000    0.000 
#    0.000    0.000    0.000    0.000    0.000    0.000 
#
# Total GULP energy -178866.427925 kJ/mol
# GULP energy per Si atom -5589.575873 kJ/mol
# Density = 2.149413 g / cm^3
# Si number density = 21.543166 Si / 1000 Ang^3
#
#
#
# Elastic Constant Matrix: (Units=GPa)
#
#
# Indices 1 2 3 4 5 6 
#
# 1 57.3596 27.5329 8.8436 0.0000 17.9134 0.0000
# 2 27.5329 145.4244 35.6124 0.0000 -3.3000 0.0000
# 3 8.8436 35.6124 91.7358 0.0000 9.7541 0.0000
# 4 0.0000 0.0000 0.0000 51.4416 0.0000 6.5736
# 5 17.9134 -3.3000 9.7541 0.0000 20.1365 0.0000
# 6 0.0000 0.0000 0.0000 6.5736 0.0000 18.1563
#
#
#
# Elastic Compliance Matrix: (Units=1/GPa)
#
#
# Indices 1 2 3 4 5 6 
#
# 1 0.029189 -0.006880 0.002886 0.000000 -0.028493 0.000000
# 2 -0.006880 0.009375 -0.003996 0.000000 0.009592 0.000000
# 3 0.002886 -0.003996 0.013196 0.000000 -0.009615 0.000000
# 4 0.000000 0.000000 0.000000 0.020383 0.000000 -0.007380
# 5 -0.028493 0.009592 -0.009615 0.000000 0.081238 0.000000
# 6 0.000000 0.000000 0.000000 -0.007380 0.000000 0.057749
#
#
# Mechanical properties :
#
#
# Convention : Reuss Voigt Hill
#
# Bulk Modulus (GPa) = 27.94719 48.72195 38.33457
# Shear Modulus (GPa) = 20.91728 32.78227 26.84978
#
# Velocity S-wave (km/s) = 3.11938 3.90513 3.53416
# Velocity P-wave (km/s) = 5.09656 6.55732 5.87254
#
# Compressibility (1/GPa) = 0.03578177
#
# Stress axis : x y z
#
# Youngs Moduli (GPa) = 34.25897 106.66375 75.77864
#
# Poissons Ratio (x) = 0.73382 -0.21873
# Poissons Ratio (y) = 0.23569 0.30283
# Poissons Ratio (z) = -0.09888 0.42626
#
# Static dielectric constant tensor:
#      x y z
#    x 1.810470 0.000000 0.005930 
#    y 0.000000 1.808930 0.000000 
#    z 0.005930 0.000000 1.833280 
# 
# From -- ./inp_files/69366.got.cif
#   From: 2010.05.17/outbox.cif.g08.bks.cpg/sg15_35_cif.got.tgz:69366.got - 2010.06.03 18:47:42.
