data_PCOD9295909
_publ_section_title
;
Structure prediction by ZEFSAII (Michael W. Deem and Ramdas Pophale) SiO2 
 PCOD9295909
Probable space group: C 2/C
;
_chemical_formula_sum "Si O2"
_cell_formula_units_Z 52
_cell_length_a 9.151396
_cell_length_b 16.838229
_cell_length_c 21.868193
_cell_angle_alpha 90.000000
_cell_angle_beta 139.417704
_cell_angle_gamma 90.000000
_cell_volume 2192.150571
_symmetry_space_group_name_H-M "C 2/C"
_symmetry_group_IT_number 15
_symmetry_cell_setting 'monoclinic'
loop_
_space_group_symop_operation_xyz
x,y,z
-x,y,1/2-z
-x,-y,-z
x,-y,1/2+z
1/2+x,1/2+y,z
1/2-x,1/2+y,1/2-z
1/2-x,1/2-y,-z
1/2+x,1/2-y,1/2+z
loop_
_atom_site_type_symbol
_atom_site_label
_atom_site_fract_x
_atom_site_fract_y
_atom_site_fract_z
Si Si1 0.229325 0.963480 0.903090
Si Si2 0.877640 0.193849 0.453270
Si Si3 0.680277 0.160694 0.961951
Si Si4 0.303050 0.354634 0.062614
Si Si5 0.826685 0.359804 0.250568
Si Si6 0.711727 0.960234 0.718396
Si Si7 0.500000 0.148345 0.250000
O O1 0.971949 0.938839 0.810276
O O2 0.229329 0.056130 0.923170
O O3 0.315376 0.904834 0.983433
O O4 0.663032 0.040866 0.130487
O O5 0.868602 0.288065 0.466353
O O6 0.779773 0.152817 0.482709
O O7 0.721698 0.190819 0.344196
O O8 0.107059 0.144859 0.515246
O O9 0.451240 0.166453 0.851731
O O10 0.750000 0.250000 0.000000
O O11 0.567810 0.331496 0.160571
O O12 0.814688 0.454026 0.258548
O O13 0.000000 0.341090 0.250000
O O14 0.566773 0.902576 0.712784
#
# Coordination Sequence:
#
# PCOD9295909 Si02
#       7
#     8   8   8   8   8   8   4
#     4  10  24  47  73 101 150 192 247 302 366 444
#     4  11  26  46  71 110 145 191 246 298 375 447
#     4  12  28  46  71 108 148 196 247 305 376 435
#     4  10  25  47  75 107 146 195 247 304 369 445
#     4  11  23  45  74 105 147 192 248 307 367 440
#     4  10  23  43  72 111 138 193 246 300 367 439
#     4  12  24  42  76 104 148 182 240 308 372 434
#
# _framework density 23.720998999999999
#
# number of rings (size 3 to 8) (size 9 to 14) (size 15 to 20)
#    0.000    1.231    3.846    0.000    6.462    4.923 
#    2.769    0.000    0.000    0.000    0.000    0.000 
#    0.000    0.000    0.000    0.000    0.000    0.000 
#
# Total GULP energy -145272.394473 kJ/mol
# GULP energy per Si atom -5587.399787 kJ/mol
# Density = 2.366701 g / cm^3
# Si number density = 23.720999 Si / 1000 Ang^3
#
#
#
# Elastic Constant Matrix: (Units=GPa)
#
#
# Indices 1 2 3 4 5 6 
#
# 1 115.1670 59.1786 35.1583 0.0000 -9.8241 0.0000
# 2 59.1786 81.5228 28.8528 0.0000 -15.8769 0.0000
# 3 35.1583 28.8528 165.2976 -0.0002 -6.9247 -0.0001
# 4 0.0000 0.0000 -0.0002 -4.7498 -0.0001 20.9270
# 5 -9.8241 -15.8769 -6.9247 -0.0001 43.7603 0.0001
# 6 0.0000 0.0000 -0.0001 20.9270 0.0001 22.2162
#
#
#
# Elastic Compliance Matrix: (Units=1/GPa)
#
#
# Indices 1 2 3 4 5 6 
#
# 1 0.014119 -0.009913 -0.001299 0.000000 -0.000632 0.000000
# 2 -0.009913 0.020938 -0.001330 0.000000 0.005161 0.000000
# 3 -0.001299 -0.001330 0.006569 0.000000 0.000265 0.000000
# 4 0.000000 0.000000 0.000000 -0.040879 0.000000 0.038507
# 5 -0.000632 0.005161 0.000265 0.000000 0.024624 0.000000
# 6 0.000000 0.000000 0.000000 0.038507 0.000000 0.008740
#
#
# Mechanical properties :
#
#
# Convention : Reuss Voigt Hill
#
# Bulk Modulus (GPa) = 60.45079 67.59631 64.02355
# Shear Modulus (GPa) = 77.26664 28.16518 52.71591
#
# Velocity S-wave (km/s) = 5.71348 3.44954 4.71927
# Velocity P-wave (km/s) = 8.31050 6.66513 7.53288
#
# Compressibility (1/GPa) = 0.01654238
#
# Stress axis : x y z
#
# Youngs Moduli (GPa) = 70.82422 47.75956 152.22183
#
# Poissons Ratio (x) = 0.47343 0.19779
# Poissons Ratio (y) = 0.70207 0.20248
# Poissons Ratio (z) = 0.09203 0.06353
#
# Static dielectric constant tensor:
#      x y z
#    x 1.865410 0.000000 0.193270 
#    y 0.000000 1.884140 0.000000 
#    z 0.193270 0.000000 1.976090 
# 
# From -- ./inp_files/293477.got.cif
#   From: 2010.05.17/outbox.cif.g08.bks.cpg/sg15_147_cif.got.tgz:293477.got - 2010.06.03 18:47:42.
