data_PCOD9295960
_publ_section_title
;
Structure prediction by ZEFSAII (Michael W. Deem and Ramdas Pophale) SiO2 
 PCOD9295960
Probable space group: C 2/C
;
_chemical_formula_sum "Si O2"
_cell_formula_units_Z 24
_cell_length_a 17.813368
_cell_length_b 7.254822
_cell_length_c 13.510271
_cell_angle_alpha 90.000000
_cell_angle_beta 145.468878
_cell_angle_gamma 90.000000
_cell_volume 989.709928
_symmetry_space_group_name_H-M "C 2/C"
_symmetry_group_IT_number 15
_symmetry_cell_setting 'monoclinic'
loop_
_space_group_symop_operation_xyz
x,y,z
-x,y,1/2-z
-x,-y,-z
x,-y,1/2+z
1/2+x,1/2+y,z
1/2-x,1/2+y,1/2-z
1/2-x,1/2-y,-z
1/2+x,1/2-y,1/2+z
loop_
_atom_site_type_symbol
_atom_site_label
_atom_site_fract_x
_atom_site_fract_y
_atom_site_fract_z
Si Si1 0.076728 0.190841 0.429287
Si Si2 0.848403 0.661026 0.799263
Si Si3 0.721278 0.323578 0.577326
O O1 0.226265 0.259834 0.608063
O O2 0.000000 0.262453 0.250000
O O3 0.982789 0.239655 0.417838
O O4 0.101362 0.971938 0.446477
O O5 0.840036 0.454465 0.747303
O O6 0.812153 0.675674 0.874805
O O7 0.750000 0.250000 0.500000
#
# Coordination Sequence:
#
# PCOD9295960 Si02
#       3
#     8   8   8
#     4  10  23  43  77 105 153 191 252 297 376 435
#     4  10  24  44  74 106 154 192 247 309 368 435
#     4  10  25  43  76 112 149 195 253 303 375 440
#
# _framework density 24.249528999999999
#
# number of rings (size 3 to 8) (size 9 to 14) (size 15 to 20)
#    2.000    0.000    0.000    2.000    4.667    1.333 
#    0.000    1.667    0.000    0.000    0.000    0.000 
#    0.000    0.000    0.000    0.000    0.000    0.000 
#
# Total GULP energy -67009.663725 kJ/mol
# GULP energy per Si atom -5584.138644 kJ/mol
# Density = 2.419434 g / cm^3
# Si number density = 24.249529 Si / 1000 Ang^3
#
#
#
# Elastic Constant Matrix: (Units=GPa)
#
#
# Indices 1 2 3 4 5 6 
#
# 1 187.8515 79.7915 38.8376 0.0000 -20.8367 0.0000
# 2 79.7915 112.9020 16.4963 0.0000 0.1331 0.0000
# 3 38.8376 16.4963 107.6665 0.0000 14.9903 0.0000
# 4 0.0000 0.0000 0.0000 25.2950 0.0000 -10.7101
# 5 -20.8367 0.1331 14.9903 0.0000 36.8314 0.0000
# 6 0.0000 0.0000 0.0000 -10.7101 0.0000 24.2500
#
#
#
# Elastic Compliance Matrix: (Units=1/GPa)
#
#
# Indices 1 2 3 4 5 6 
#
# 1 0.009370 -0.006137 -0.003372 0.000000 0.006695 0.000000
# 2 -0.006137 0.013091 0.000740 0.000000 -0.003821 0.000000
# 3 -0.003372 0.000740 0.011297 0.000000 -0.006508 0.000000
# 4 0.000000 0.000000 0.000000 0.048627 0.000000 0.021476
# 5 0.006695 -0.003821 -0.006508 0.000000 0.033601 0.000000
# 6 0.000000 0.000000 0.000000 0.021476 0.000000 0.050722
#
#
# Mechanical properties :
#
#
# Convention : Reuss Voigt Hill
#
# Bulk Modulus (GPa) = 61.65302 75.40785 68.53044
# Shear Modulus (GPa) = 26.36401 35.49495 30.92948
#
# Velocity S-wave (km/s) = 3.30084 3.83003 3.57524
# Velocity P-wave (km/s) = 6.32511 7.12201 6.73536
#
# Compressibility (1/GPa) = 0.01621981
#
# Stress axis : x y z
#
# Youngs Moduli (GPa) = 106.72350 76.38804 88.51939
#
# Poissons Ratio (x) = 0.46882 0.29847
# Poissons Ratio (y) = 0.65500 -0.06551
# Poissons Ratio (z) = 0.35985 -0.05653
#
# Static dielectric constant tensor:
#      x y z
#    x 1.896150 0.000000 -0.019270 
#    y 0.000000 1.964690 0.000000 
#    z -0.019270 0.000000 1.994140 
# 
# From -- ./inp_files/45333.got.cif
#   From: 2010.05.17/outbox.cif.g08.bks.cpg/sg15_23_cif.got.tgz:45333.got - 2010.06.03 18:47:42.
