data_PCOD9295213
_publ_section_title
;
Structure prediction by ZEFSAII (Michael W. Deem and Ramdas Pophale) SiO2 
 PCOD9295213
Probable space group: C 2/C
;
_chemical_formula_sum "Si O2"
_cell_formula_units_Z 48
_cell_length_a 21.593616
_cell_length_b 9.887737
_cell_length_c 9.093836
_cell_angle_alpha 90.000000
_cell_angle_beta 89.336988
_cell_angle_gamma 90.000000
_cell_volume 1941.513078
_symmetry_space_group_name_H-M "C 2/C"
_symmetry_group_IT_number 15
_symmetry_cell_setting 'monoclinic'
loop_
_space_group_symop_operation_xyz
x,y,z
-x,y,1/2-z
-x,-y,-z
x,-y,1/2+z
1/2+x,1/2+y,z
1/2-x,1/2+y,1/2-z
1/2-x,1/2-y,-z
1/2+x,1/2-y,1/2+z
loop_
_atom_site_type_symbol
_atom_site_label
_atom_site_fract_x
_atom_site_fract_y
_atom_site_fract_z
Si Si1 0.829721 0.398039 0.588139
Si Si2 0.754288 0.026186 0.666727
Si Si3 0.032309 0.195392 0.607669
Si Si4 0.912391 0.777594 0.926732
Si Si5 0.842957 0.048191 0.912753
Si Si6 0.934280 0.512784 0.421589
O O1 0.793026 0.436076 0.734897
O O2 0.783708 0.385133 0.449321
O O3 0.874262 0.269357 0.574117
O O4 0.877139 0.517774 0.537678
O O5 0.801072 0.949604 0.558450
O O6 0.797348 0.097682 0.785766
O O7 0.094931 0.126918 0.559084
O O8 0.055260 0.345736 0.656430
O O9 0.000000 0.129750 0.750000
O O10 0.018815 0.187978 0.019793
O O11 0.870483 0.898744 0.868673
O O12 0.920594 0.632155 0.844082
O O13 0.000000 0.500000 0.500000
#
# Coordination Sequence:
#
# PCOD9295213 Si02
#       6
#     8   8   8   8   8   8
#     4   9  21  43  65  98 127 178 221 275 327 387
#     4  10  23  42  66  98 137 179 221 273 320 407
#     4  11  22  40  69  99 135 172 221 285 337 388
#     4   9  21  41  67  90 134 171 225 271 335 388
#     4  11  23  45  64 103 131 181 221 269 338 401
#     4   8  19  40  61  97 124 173 222 277 323 387
#
# _framework density 24.722982999999999
#
# number of rings (size 3 to 8) (size 9 to 14) (size 15 to 20)
#    1.000    1.333    0.000    1.500    2.333    2.667 
#    9.000    4.167    0.000    0.000    0.000    0.000 
#    0.000    0.000    0.000    0.000    0.000    0.000 
#
# Total GULP energy -133813.967602 kJ/mol
# GULP energy per Si atom -5575.581983 kJ/mol
# Density = 2.466671 g / cm^3
# Si number density = 24.722983 Si / 1000 Ang^3
#
#
#
# Elastic Constant Matrix: (Units=GPa)
#
#
# Indices 1 2 3 4 5 6 
#
# 1 185.3511 29.2739 56.2660 0.0000 -20.6770 0.0000
# 2 29.2739 59.6562 0.9016 0.0000 3.5973 0.0000
# 3 56.2660 0.9016 96.9924 0.0000 8.5340 0.0000
# 4 0.0000 0.0000 0.0000 -20.1150 0.0000 -34.7981
# 5 -20.6770 3.5973 8.5340 0.0000 38.7456 0.0000
# 6 0.0000 0.0000 0.0000 -34.7981 0.0000 23.5820
#
#
#
# Elastic Compliance Matrix: (Units=1/GPa)
#
#
# Indices 1 2 3 4 5 6 
#
# 1 0.008397 -0.004405 -0.005364 0.000000 0.006071 0.000000
# 2 -0.004405 0.019168 0.002795 0.000000 -0.004746 0.000000
# 3 -0.005364 0.002795 0.013941 0.000000 -0.006193 0.000000
# 4 0.000000 0.000000 0.000000 -0.013993 0.000000 -0.020649
# 5 0.006071 -0.004746 -0.006193 0.000000 0.030854 0.000000
# 6 0.000000 0.000000 0.000000 -0.020649 0.000000 0.011936
#
#
# Mechanical properties :
#
#
# Convention : Reuss Voigt Hill
#
# Bulk Modulus (GPa) = 36.28876 57.20919 46.74898
# Shear Modulus (GPa) = 53.51176 25.47973 39.49574
#
# Velocity S-wave (km/s) = 4.65742 3.21379 4.00125
# Velocity P-wave (km/s) = 6.60546 6.07961 6.34798
#
# Compressibility (1/GPa) = 0.02755674
#
# Stress axis : x y z
#
# Youngs Moduli (GPa) = 119.09550 52.16908 71.73198
#
# Poissons Ratio (x) = 0.22982 0.38478
# Poissons Ratio (y) = 0.52466 -0.20049
# Poissons Ratio (z) = 0.63885 -0.14581
#
# Static dielectric constant tensor:
#      x y z
#    x 2.033940 0.000000 0.016380 
#    y 0.000000 2.067920 0.000000 
#    z 0.016380 0.000000 1.942020 
# 
# From -- ./inp_files/60599.got.cif
#   From: 2010.05.17/outbox.cif.g08.bks.cpg/sg15_31_cif.got.tgz:60599.got - 2010.06.03 18:47:42.
