data_PCOD9295978
_publ_section_title
;
Structure prediction by ZEFSAII (Michael W. Deem and Ramdas Pophale) SiO2 
 PCOD9295978
Probable space group: C 2/C
;
_chemical_formula_sum "Si O2"
_cell_formula_units_Z 40
_cell_length_a 13.880001
_cell_length_b 10.347794
_cell_length_c 13.657388
_cell_angle_alpha 90.000000
_cell_angle_beta 121.170350
_cell_angle_gamma 90.000000
_cell_volume 1678.386777
_symmetry_space_group_name_H-M "C 2/C"
_symmetry_group_IT_number 15
_symmetry_cell_setting 'monoclinic'
loop_
_space_group_symop_operation_xyz
x,y,z
-x,y,1/2-z
-x,-y,-z
x,-y,1/2+z
1/2+x,1/2+y,z
1/2-x,1/2+y,1/2-z
1/2-x,1/2-y,-z
1/2+x,1/2-y,1/2+z
loop_
_atom_site_type_symbol
_atom_site_label
_atom_site_fract_x
_atom_site_fract_y
_atom_site_fract_z
Si Si1 0.972056 0.054996 0.092208
Si Si2 0.251297 0.056553 0.020666
Si Si3 0.719888 0.360134 0.728455
Si Si4 0.652763 0.904849 0.124864
Si Si5 0.567981 0.837271 0.388196
O O1 0.910787 0.193112 0.063421
O O2 0.096163 0.088923 0.196975
O O3 0.877528 0.959654 0.084214
O O4 0.000000 0.000000 0.000000
O O5 0.322822 0.924266 0.064677
O O6 0.243850 0.106449 0.127359
O O7 0.319453 0.131730 0.972599
O O8 0.715518 0.203931 0.725986
O O9 0.804496 0.450104 0.832754
O O10 0.523074 0.893625 0.083984
O O11 0.500000 0.835204 0.250000
#
# Coordination Sequence:
#
# PCOD9295978 Si02
#       5
#     8   8   8   8   8
#     4   9  22  39  64  92 128 164 213 259 313 390
#     4  11  22  41  66  94 123 172 213 264 327 376
#     4  10  23  44  62  99 131 167 214 267 316 385
#     4  11  24  40  67  92 133 167 214 266 321 381
#     4  11  22  40  65  94 131 166 214 268 321 383
#
# _framework density 23.832409999999999
#
# number of rings (size 3 to 8) (size 9 to 14) (size 15 to 20)
#    0.000    1.600    2.000    1.800    5.600    3.200 
#    0.000    6.000    0.000    0.000    0.000    0.000 
#    0.000    0.000    0.000    0.000    0.000    0.000 
#
# Total GULP energy -111656.875903 kJ/mol
# GULP energy per Si atom -5582.843795 kJ/mol
# Density = 2.377817 g / cm^3
# Si number density = 23.832410 Si / 1000 Ang^3
#
#
#
# Elastic Constant Matrix: (Units=GPa)
#
#
# Indices 1 2 3 4 5 6 
#
# 1 157.6527 10.8851 27.2574 0.0000 -13.4900 0.0000
# 2 10.8851 73.0355 24.0411 0.0000 2.5935 0.0000
# 3 27.2574 24.0411 72.7821 0.0000 -19.4299 0.0000
# 4 0.0000 0.0000 0.0000 30.2916 0.0000 2.0302
# 5 -13.4900 2.5935 -19.4299 0.0000 35.9297 0.0000
# 6 0.0000 0.0000 0.0000 2.0302 0.0000 45.1194
#
#
#
# Elastic Compliance Matrix: (Units=1/GPa)
#
#
# Indices 1 2 3 4 5 6 
#
# 1 0.006851 -0.000406 -0.002030 0.000000 0.001504 0.000000
# 2 -0.000406 0.016036 -0.006422 0.000000 -0.004783 0.000000
# 3 -0.002030 -0.006422 0.019332 0.000000 0.010156 0.000000
# 4 0.000000 0.000000 0.000000 0.033112 0.000000 -0.001490
# 5 0.001504 -0.004783 0.010156 0.000000 0.034234 0.000000
# 6 0.000000 0.000000 0.000000 -0.001490 0.000000 0.022230
#
#
# Mechanical properties :
#
#
# Convention : Reuss Voigt Hill
#
# Bulk Modulus (GPa) = 40.81079 47.53752 44.17415
# Shear Modulus (GPa) = 31.70990 38.35392 35.03191
#
# Velocity S-wave (km/s) = 3.65161 4.01598 3.83812
# Velocity P-wave (km/s) = 5.91103 6.44159 6.18200
#
# Compressibility (1/GPa) = 0.02450333
#
# Stress axis : x y z
#
# Youngs Moduli (GPa) = 145.96928 62.35908 51.72702
#
# Poissons Ratio (x) = 0.02533 0.10501
# Poissons Ratio (y) = 0.05929 0.33217
# Poissons Ratio (z) = 0.29633 0.40045
#
# Static dielectric constant tensor:
#      x y z
#    x 1.854540 0.000000 -0.021380 
#    y 0.000000 1.952740 0.000000 
#    z -0.021380 0.000000 1.937320 
# 
# From -- ./inp_files/150789.got.cif
#   From: 2010.05.17/outbox.cif.g08.bks.cpg/sg15_76_cif.got.tgz:150789.got - 2010.06.03 18:47:42.
