data_PCOD9295884
_publ_section_title
;
Structure prediction by ZEFSAII (Michael W. Deem and Ramdas Pophale) SiO2 
 PCOD9295884
Probable space group: C 2/C
;
_chemical_formula_sum "Si O2"
_cell_formula_units_Z 40
_cell_length_a 21.036001
_cell_length_b 5.074859
_cell_length_c 15.112462
_cell_angle_alpha 90.000000
_cell_angle_beta 113.552810
_cell_angle_gamma 90.000000
_cell_volume 1478.924145
_symmetry_space_group_name_H-M "C 2/C"
_symmetry_group_IT_number 15
_symmetry_cell_setting 'monoclinic'
loop_
_space_group_symop_operation_xyz
x,y,z
-x,y,1/2-z
-x,-y,-z
x,-y,1/2+z
1/2+x,1/2+y,z
1/2-x,1/2+y,1/2-z
1/2-x,1/2-y,-z
1/2+x,1/2-y,1/2+z
loop_
_atom_site_type_symbol
_atom_site_label
_atom_site_fract_x
_atom_site_fract_y
_atom_site_fract_z
Si Si1 0.275811 0.877057 0.377581
Si Si2 0.981886 0.688849 0.407914
Si Si3 0.439640 0.790336 0.170650
Si Si4 0.802514 0.387347 0.182505
Si Si5 0.607667 0.540989 0.518815
O O1 0.213402 0.675787 0.364186
O O2 0.286290 0.887502 0.277634
O O3 0.341747 0.707299 0.446934
O O4 0.250251 0.169368 0.387341
O O5 0.906496 0.808088 0.395492
O O6 0.000000 0.500000 0.500000
O O7 0.010995 0.519093 0.342874
O O8 0.033659 0.932053 0.444237
O O9 0.500000 0.610523 0.250000
O O10 0.382807 0.829880 0.215184
O O11 0.384393 0.733082 0.059957
#
# Coordination Sequence:
#
# PCOD9295884 Si02
#       5
#     8   8   8   8   8
#     4  10  24  46  71  97 140 191 242 284 356 430
#     4   9  22  41  63 101 130 180 228 281 360 417
#     4  11  26  42  66 105 142 179 233 299 356 416
#     4  10  25  44  68 103 139 187 235 298 352 418
#     4  10  23  43  71  97 133 186 233 288 354 426
#
# _framework density 27.046690000000002
#
# number of rings (size 3 to 8) (size 9 to 14) (size 15 to 20)
#    0.000    2.000    0.000    0.000   16.800    5.600 
#    0.000    0.000    0.000    0.000    0.000    0.000 
#    0.000    0.000    0.000    0.000    0.000    0.000 
#
# Total GULP energy -111493.928466 kJ/mol
# GULP energy per Si atom -5574.696423 kJ/mol
# Density = 2.698513 g / cm^3
# Si number density = 27.046690 Si / 1000 Ang^3
#
#
#
# Elastic Constant Matrix: (Units=GPa)
#
#
# Indices 1 2 3 4 5 6 
#
# 1 107.5143 -4.8832 30.4972 0.0000 3.9007 0.0000
# 2 -4.8832 92.8930 33.9545 0.0002 -6.3473 -0.0002
# 3 30.4972 33.9545 83.0063 0.0000 5.2794 0.0000
# 4 0.0000 0.0002 0.0000 23.1571 0.0000 13.8474
# 5 3.9007 -6.3473 5.2794 0.0000 37.5292 0.0000
# 6 0.0000 -0.0002 0.0000 13.8474 0.0000 -10.4683
#
#
#
# Elastic Compliance Matrix: (Units=1/GPa)
#
#
# Indices 1 2 3 4 5 6 
#
# 1 0.010811 0.002372 -0.004941 0.000000 -0.000027 0.000000
# 2 0.002372 0.013498 -0.006582 0.000000 0.002962 0.000000
# 3 -0.004941 -0.006582 0.016743 0.000000 -0.002955 0.000000
# 4 0.000000 0.000000 0.000000 0.024111 0.000000 0.031894
# 5 -0.000027 0.002962 -0.002955 0.000000 0.027565 0.000000
# 6 0.000000 0.000000 0.000000 0.031894 0.000000 -0.053337
#
#
# Mechanical properties :
#
#
# Convention : Reuss Voigt Hill
#
# Bulk Modulus (GPa) = 43.95194 44.72784 44.33989
# Shear Modulus (GPa) = 76.59841 24.96662 50.78251
#
# Velocity S-wave (km/s) = 5.32750 3.04154 4.33781
# Velocity P-wave (km/s) = 7.35722 5.37660 6.44347
#
# Compressibility (1/GPa) = 0.02275212
#
# Stress axis : x y z
#
# Youngs Moduli (GPa) = 92.49521 74.08571 59.72723
#
# Poissons Ratio (x) = -0.17577 0.29511
# Poissons Ratio (y) = -0.21944 0.39310
# Poissons Ratio (z) = 0.45701 0.48760
#
# Static dielectric constant tensor:
#      x y z
#    x 1.859840 0.000000 0.416060 
#    y 0.000000 -0.298290 0.000000 
#    z 0.416060 0.000000 1.506070 
# 
# From -- ./inp_files/212616.got.cif
#   From: 2010.05.17/outbox.cif.g08.bks.cpg/sg15_107_cif.got.tgz:212616.got - 2010.06.03 18:47:42.
