data_PCOD9295906
_publ_section_title
;
Structure prediction by ZEFSAII (Michael W. Deem and Ramdas Pophale) SiO2 
 PCOD9295906
Probable space group: C 2/C
;
_chemical_formula_sum "Si O2"
_cell_formula_units_Z 48
_cell_length_a 25.386741
_cell_length_b 9.738418
_cell_length_c 8.342068
_cell_angle_alpha 90.000000
_cell_angle_beta 72.694005
_cell_angle_gamma 90.000000
_cell_volume 1969.017215
_symmetry_space_group_name_H-M "C 2/C"
_symmetry_group_IT_number 15
_symmetry_cell_setting 'monoclinic'
loop_
_space_group_symop_operation_xyz
x,y,z
-x,y,1/2-z
-x,-y,-z
x,-y,1/2+z
1/2+x,1/2+y,z
1/2-x,1/2+y,1/2-z
1/2-x,1/2-y,-z
1/2+x,1/2-y,1/2+z
loop_
_atom_site_type_symbol
_atom_site_label
_atom_site_fract_x
_atom_site_fract_y
_atom_site_fract_z
Si Si1 0.451898 0.091390 0.924879
Si Si2 0.469921 0.631518 0.602877
Si Si3 0.264876 0.143993 0.843008
Si Si4 0.624714 0.571473 0.382153
Si Si5 0.796593 0.938347 0.402712
Si Si6 0.607864 0.143837 0.821686
O O1 0.500000 0.060348 0.750000
O O2 0.571334 0.034334 0.950650
O O3 0.401011 0.130119 0.858674
O O4 0.468547 0.221503 0.017262
O O5 0.500000 0.645646 0.750000
O O6 0.500000 0.500000 0.500000
O O7 0.407694 0.569301 0.625771
O O8 0.326544 0.136407 0.716642
O O9 0.225425 0.156814 0.721012
O O10 0.250000 0.250000 0.000000
O O11 0.251008 0.997187 0.939935
O O12 0.675599 0.566481 0.214520
O O13 0.653370 0.601323 0.525425
O O14 0.587993 0.703259 0.381724
#
# Coordination Sequence:
#
# PCOD9295906 Si02
#       6
#     8   8   8   8   8   8
#     4  12  29  50  75 107 158 205 264 334 404 473
#     4  12  26  48  79 111 149 202 268 329 401 479
#     4  11  23  46  73 109 157 205 255 321 388 474
#     4  11  23  45  74 110 145 201 259 324 382 470
#     4  10  23  43  72 107 153 199 258 316 381 459
#     4  12  26  49  74 112 156 207 264 320 404 473
#
# _framework density 24.377645000000001
#
# number of rings (size 3 to 8) (size 9 to 14) (size 15 to 20)
#    0.000    0.667    1.667    6.000    2.333    5.333 
#    3.000    0.833    0.000    0.000    0.000    0.000 
#    0.000    0.000    0.000    0.000    0.000    0.000 
#
# Total GULP energy -133856.824583 kJ/mol
# GULP energy per Si atom -5577.367691 kJ/mol
# Density = 2.432216 g / cm^3
# Si number density = 24.377645 Si / 1000 Ang^3
#
#
#
# Elastic Constant Matrix: (Units=GPa)
#
#
# Indices 1 2 3 4 5 6 
#
# 1 129.1421 55.1149 55.9374 0.0000 14.1803 0.0000
# 2 55.1149 156.7145 75.9500 0.0000 -0.9618 0.0000
# 3 55.9374 75.9500 128.3903 0.0000 20.5559 0.0000
# 4 0.0000 0.0000 0.0000 61.3330 0.0000 -3.3997
# 5 14.1803 -0.9618 20.5559 0.0000 71.0203 0.0000
# 6 0.0000 0.0000 0.0000 -3.3997 0.0000 39.8548
#
#
#
# Elastic Compliance Matrix: (Units=1/GPa)
#
#
# Indices 1 2 3 4 5 6 
#
# 1 0.010049 -0.002119 -0.002935 0.000000 -0.001186 0.000000
# 2 -0.002119 0.009601 -0.005080 0.000000 0.002023 0.000000
# 3 -0.002935 -0.005080 0.012572 0.000000 -0.003122 0.000000
# 4 0.000000 0.000000 0.000000 0.016382 0.000000 0.001397
# 5 -0.001186 0.002023 -0.003122 0.000000 0.015248 0.000000
# 6 0.000000 0.000000 0.000000 0.001397 0.000000 0.025210
#
#
# Mechanical properties :
#
#
# Convention : Reuss Voigt Hill
#
# Bulk Modulus (GPa) = 83.65256 87.58352 85.61804
# Shear Modulus (GPa) = 44.12460 49.59126 46.85793
#
# Velocity S-wave (km/s) = 4.25908 4.51521 4.38901
# Velocity P-wave (km/s) = 7.65350 7.94912 7.80271
#
# Compressibility (1/GPa) = 0.01195421
#
# Stress axis : x y z
#
# Youngs Moduli (GPa) = 99.51019 104.15874 79.53958
#
# Poissons Ratio (x) = 0.22073 0.23344
# Poissons Ratio (y) = 0.21088 0.40407
# Poissons Ratio (z) = 0.29205 0.52913
#
# Static dielectric constant tensor:
#      x y z
#    x 2.171910 0.000000 -0.080210 
#    y 0.000000 1.971550 0.000000 
#    z -0.080210 0.000000 2.038140 
# 
# From -- ./inp_files/60547.got.cif
#   From: 2010.05.17/outbox.cif.g08.bks.cpg/sg15_31_cif.got.tgz:60547.got - 2010.06.03 18:47:42.
