data_PCOD9295395
_publ_section_title
;
Structure prediction by ZEFSAII (Michael W. Deem and Ramdas Pophale) SiO2 
 PCOD9295395
Probable space group: C 2/C
;
_chemical_formula_sum "Si O2"
_cell_formula_units_Z 48
_cell_length_a 8.626653
_cell_length_b 16.996769
_cell_length_c 24.599986
_cell_angle_alpha 90.000000
_cell_angle_beta 41.876359
_cell_angle_gamma 90.000000
_cell_volume 2407.749757
_symmetry_space_group_name_H-M "C 2/C"
_symmetry_group_IT_number 15
_symmetry_cell_setting 'monoclinic'
loop_
_space_group_symop_operation_xyz
x,y,z
-x,y,1/2-z
-x,-y,-z
x,-y,1/2+z
1/2+x,1/2+y,z
1/2-x,1/2+y,1/2-z
1/2-x,1/2-y,-z
1/2+x,1/2-y,1/2+z
loop_
_atom_site_type_symbol
_atom_site_label
_atom_site_fract_x
_atom_site_fract_y
_atom_site_fract_z
Si Si1 0.104586 0.585864 0.977132
Si Si2 0.254817 0.833695 0.338721
Si Si3 0.608117 0.302196 0.161540
Si Si4 0.464072 0.516585 0.572243
Si Si5 0.226563 0.779883 0.569119
Si Si6 0.233604 0.850998 0.838618
O O1 0.221376 0.624314 0.892992
O O2 0.312988 0.566978 0.964896
O O3 0.000000 0.500000 0.000000
O O4 0.898721 0.648481 0.040213
O O5 0.500000 0.812366 0.250000
O O6 0.211703 0.789384 0.406151
O O7 0.074615 0.810624 0.338901
O O8 0.242824 0.925587 0.356782
O O9 0.500000 0.305469 0.250000
O O10 0.727346 0.216342 0.125575
O O11 0.500000 0.500000 0.500000
O O12 0.400899 0.431201 0.612806
O O13 0.250000 0.750000 0.500000
O O14 0.957696 0.806156 0.648617
O O15 0.500000 0.867177 0.750000
#
# Coordination Sequence:
#
# PCOD9295395 Si02
#       6
#     8   8   8   8   8   8
#     4  11  24  42  67  99 133 177 231 274 355 417
#     4  11  25  42  66 100 134 178 233 282 348 422
#     4  10  23  42  70  95 133 179 231 289 351 412
#     4  11  25  41  66  99 135 176 222 286 345 416
#     4  12  24  44  71  99 139 180 233 292 348 418
#     4  11  22  42  68  93 132 184 224 278 349 404
#
# _framework density 19.935627
#
# number of rings (size 3 to 8) (size 9 to 14) (size 15 to 20)
#    0.000    1.000    3.333    3.500    2.333    1.333 
#    0.000    0.833    0.000    0.000    0.000    0.000 
#    0.000    0.000    0.000    0.000    0.000    0.000 
#
# Total GULP energy -133621.839478 kJ/mol
# GULP energy per Si atom -5567.576645 kJ/mol
# Density = 1.989025 g / cm^3
# Si number density = 19.935627 Si / 1000 Ang^3
#
#
#
# Elastic Constant Matrix: (Units=GPa)
#
#
# Indices 1 2 3 4 5 6 
#
# 1 94.0961 45.2003 48.3414 -0.0006 6.0112 0.0007
# 2 45.2003 140.4019 17.9491 -0.0047 6.8007 0.0012
# 3 48.3414 17.9491 66.0867 -0.0051 -6.2501 -0.0047
# 4 -0.0006 -0.0047 -0.0051 36.1071 -0.0021 -5.2487
# 5 6.0112 6.8007 -6.2501 -0.0021 35.8415 0.0010
# 6 0.0007 0.0012 -0.0047 -5.2487 0.0010 39.7610
#
#
#
# Elastic Compliance Matrix: (Units=1/GPa)
#
#
# Indices 1 2 3 4 5 6 
#
# 1 0.020396 -0.004511 -0.014170 -0.000003 -0.005036 -0.000002
# 2 -0.004511 0.008489 0.000928 0.000001 -0.000692 0.000000
# 3 -0.014170 0.000928 0.025880 0.000004 0.006713 0.000004
# 4 -0.000003 0.000001 0.000004 0.028237 0.000003 0.003727
# 5 -0.005036 -0.000692 0.006713 0.000003 0.030047 0.000001
# 6 -0.000002 0.000000 0.000004 0.003727 0.000001 0.025642
#
#
# Mechanical properties :
#
#
# Convention : Reuss Voigt Hill
#
# Bulk Modulus (GPa) = 51.92235 58.17404 55.04820
# Shear Modulus (GPa) = 27.68280 34.94818 31.31549
#
# Velocity S-wave (km/s) = 3.73045 4.19149 3.96767
# Velocity P-wave (km/s) = 6.68255 7.25734 6.97587
#
# Compressibility (1/GPa) = 0.01925953
#
# Stress axis : x y z
#
# Youngs Moduli (GPa) = 49.02947 117.79364 38.64002
#
# Poissons Ratio (x) = 0.53133 0.54755
# Poissons Ratio (y) = 0.22116 -0.03587
# Poissons Ratio (z) = 0.69477 -0.10934
#
# Static dielectric constant tensor:
#      x y z
#    x 1.745950 0.000000 -0.084170 
#    y 0.000000 1.718420 0.000030 
#    z -0.084170 0.000030 1.769740 
# 
# From -- ./inp_files/288999.got.cif
#   From: 2010.05.17/outbox.cif.g08.bks.cpg/sg15_145_cif.got.tgz:288999.got - 2010.06.03 18:47:42.
