data_PCOD9295706
_publ_section_title
;
Structure prediction by ZEFSAII (Michael W. Deem and Ramdas Pophale) SiO2 
 PCOD9295706
Probable space group: C 2/C
;
_chemical_formula_sum "Si O2"
_cell_formula_units_Z 56
_cell_length_a 16.150400
_cell_length_b 26.878238
_cell_length_c 7.332306
_cell_angle_alpha 90.000000
_cell_angle_beta 44.335375
_cell_angle_gamma 90.000000
_cell_volume 2224.400564
_symmetry_space_group_name_H-M "C 2/C"
_symmetry_group_IT_number 15
_symmetry_cell_setting 'monoclinic'
loop_
_space_group_symop_operation_xyz
x,y,z
-x,y,1/2-z
-x,-y,-z
x,-y,1/2+z
1/2+x,1/2+y,z
1/2-x,1/2+y,1/2-z
1/2-x,1/2-y,-z
1/2+x,1/2-y,1/2+z
loop_
_atom_site_type_symbol
_atom_site_label
_atom_site_fract_x
_atom_site_fract_y
_atom_site_fract_z
Si Si1 0.528608 0.431408 0.486544
Si Si2 0.606786 0.960908 0.325263
Si Si3 0.238005 0.808333 0.555861
Si Si4 0.704004 0.480865 0.735045
Si Si5 0.465291 0.144666 0.585523
Si Si6 0.647520 0.223407 0.271237
Si Si7 0.981878 0.177556 0.560700
O O1 0.500000 0.436774 0.750000
O O2 0.403112 0.441028 0.580235
O O3 0.622132 0.473970 0.279066
O O4 0.577729 0.376220 0.370053
O O5 0.720306 0.984617 0.246795
O O6 0.543507 0.910228 0.478078
O O7 0.500000 0.000000 0.500000
O O8 0.680472 0.951125 0.023595
O O9 0.250000 0.750000 0.500000
O O10 0.331698 0.835181 0.282601
O O11 0.284022 0.809461 0.689222
O O12 0.107358 0.828701 0.762613
O O13 0.500000 0.143915 0.750000
O O14 0.552432 0.183613 0.352595
O O15 0.573566 0.272868 0.440163
O O16 0.750000 0.250000 0.000000
O O17 0.000000 0.187388 0.750000
#
# Coordination Sequence:
#
# PCOD9295706 Si02
#       7
#     8   8   8   8   8   8   8
#     4  11  26  46  74 104 143 188 244 302 368 433
#     4  12  25  45  73 102 142 189 239 295 356 438
#     4  11  23  41  70  94 137 187 230 288 343 424
#     4  11  25  47  71 103 140 183 242 301 363 424
#     4  10  23  43  68 100 138 191 236 285 354 424
#     4  11  24  45  66  99 144 183 234 296 351 418
#     4  12  26  42  69 107 140 186 238 297 359 424
#
# _framework density 25.175322999999999
#
# number of rings (size 3 to 8) (size 9 to 14) (size 15 to 20)
#    0.000    0.857    4.286    2.143    4.000    2.286 
#    0.000    2.857    0.000    0.000    0.000    0.000 
#    0.000    0.000    0.000    0.000    0.000    0.000 
#
# Total GULP energy -156127.198072 kJ/mol
# GULP energy per Si atom -5575.971360 kJ/mol
# Density = 2.511802 g / cm^3
# Si number density = 25.175323 Si / 1000 Ang^3
#
#
#
# Elastic Constant Matrix: (Units=GPa)
#
#
# Indices 1 2 3 4 5 6 
#
# 1 72.4632 10.2215 27.0766 0.0000 -14.0272 0.0000
# 2 10.2215 182.5146 47.5571 0.0000 -29.2657 0.0000
# 3 27.0766 47.5571 125.8862 0.0000 -41.4411 0.0000
# 4 0.0000 0.0000 0.0000 27.9817 0.0000 -0.3373
# 5 -14.0272 -29.2657 -41.4411 0.0000 45.0179 0.0000
# 6 0.0000 0.0000 0.0000 -0.3373 0.0000 30.7386
#
#
#
# Elastic Compliance Matrix: (Units=1/GPa)
#
#
# Indices 1 2 3 4 5 6 
#
# 1 0.015203 0.000213 -0.002504 0.000000 0.002570 0.000000
# 2 0.000213 0.006306 -0.001516 0.000000 0.002770 0.000000
# 3 -0.002504 -0.001516 0.012158 0.000000 0.009426 0.000000
# 4 0.000000 0.000000 0.000000 0.035742 0.000000 0.000392
# 5 0.002570 0.002770 0.009426 0.000000 0.033492 0.000000
# 6 0.000000 0.000000 0.000000 0.000392 0.000000 0.032537
#
#
# Mechanical properties :
#
#
# Convention : Reuss Voigt Hill
#
# Bulk Modulus (GPa) = 38.38326 61.17495 49.77911
# Shear Modulus (GPa) = 32.95134 40.48156 36.71645
#
# Velocity S-wave (km/s) = 3.62176 4.01432 3.82308
# Velocity P-wave (km/s) = 5.72442 6.77043 6.26928
#
# Compressibility (1/GPa) = 0.02605303
#
# Stress axis : x y z
#
# Youngs Moduli (GPa) = 65.77466 158.56949 82.24877
#
# Poissons Ratio (x) = -0.03382 0.20599
# Poissons Ratio (y) = -0.01403 0.12471
# Poissons Ratio (z) = 0.16473 0.24044
#
# Static dielectric constant tensor:
#      x y z
#    x 2.214540 0.000000 0.189570 
#    y 0.000000 1.922640 0.000000 
#    z 0.189570 0.000000 2.116430 
# 
# From -- ./inp_files/34205.got.cif
#   From: 2010.05.17/outbox.cif.g08.bks.cpg/sg15_18_cif.got.tgz:34205.got - 2010.06.03 18:47:42.
