data_PCOD9295438
_publ_section_title
;
Structure prediction by ZEFSAII (Michael W. Deem and Ramdas Pophale) SiO2 
 PCOD9295438
Probable space group: C 2/C
;
_chemical_formula_sum "Si O2"
_cell_formula_units_Z 48
_cell_length_a 14.315923
_cell_length_b 11.078525
_cell_length_c 21.662188
_cell_angle_alpha 90.000000
_cell_angle_beta 138.552045
_cell_angle_gamma 90.000000
_cell_volume 2274.164549
_symmetry_space_group_name_H-M "C 2/C"
_symmetry_group_IT_number 15
_symmetry_cell_setting 'monoclinic'
loop_
_space_group_symop_operation_xyz
x,y,z
-x,y,1/2-z
-x,-y,-z
x,-y,1/2+z
1/2+x,1/2+y,z
1/2-x,1/2+y,1/2-z
1/2-x,1/2-y,-z
1/2+x,1/2-y,1/2+z
loop_
_atom_site_type_symbol
_atom_site_label
_atom_site_fract_x
_atom_site_fract_y
_atom_site_fract_z
Si Si1 0.472644 0.294682 0.471224
Si Si2 0.478264 0.007723 0.806581
Si Si3 0.671554 0.142761 0.996629
Si Si4 0.409936 0.762778 0.600162
Si Si5 0.046889 0.002968 0.340738
Si Si6 0.152403 0.958198 0.641077
O O1 0.390012 0.201004 0.472255
O O2 0.506055 0.234202 0.422714
O O3 0.609226 0.345886 0.576013
O O4 0.387069 0.417911 0.414516
O O5 0.500000 0.065929 0.750000
O O6 0.566377 0.883607 0.850363
O O7 0.316509 0.971040 0.737562
O O8 0.545875 0.089895 0.892874
O O9 0.750000 0.250000 0.000000
O O10 0.792731 0.044030 0.067874
O O11 0.250000 0.750000 0.500000
O O12 0.457372 0.641895 0.657998
O O13 0.000000 0.045966 0.250000
O O14 0.946077 0.048171 0.346577
#
# Coordination Sequence:
#
# PCOD9295438 Si02
#       6
#     8   8   8   8   8   8
#     4  10  23  42  71  94 142 177 227 280 345 406
#     4  12  26  42  71 100 135 178 237 279 345 415
#     4  12  25  45  70 102 136 183 223 289 345 412
#     4  11  23  44  69  95 133 186 225 282 345 405
#     4  11  25  44  70  99 142 177 231 285 349 408
#     4  10  23  45  67 101 135 184 224 283 348 408
#
# _framework density 21.106653000000001
#
# number of rings (size 3 to 8) (size 9 to 14) (size 15 to 20)
#    0.000    1.000    3.333    2.500    4.667    6.667 
#    0.000    0.000    0.000    0.000    0.000    0.000 
#    0.000    0.000    0.000    0.000    0.000    0.000 
#
# Total GULP energy -134243.958402 kJ/mol
# GULP energy per Si atom -5593.498267 kJ/mol
# Density = 2.105861 g / cm^3
# Si number density = 21.106653 Si / 1000 Ang^3
#
#
#
# Elastic Constant Matrix: (Units=GPa)
#
#
# Indices 1 2 3 4 5 6 
#
# 1 101.9298 21.1395 47.3271 0.0000 -5.1247 0.0000
# 2 21.1395 42.3363 7.6155 0.0000 -10.0923 0.0000
# 3 47.3271 7.6155 121.1640 0.0000 5.1830 0.0000
# 4 0.0000 0.0000 0.0000 15.9843 0.0000 -1.8682
# 5 -5.1247 -10.0923 5.1830 0.0000 42.6936 0.0000
# 6 0.0000 0.0000 0.0000 -1.8682 0.0000 24.8916
#
#
#
# Elastic Compliance Matrix: (Units=1/GPa)
#
#
# Indices 1 2 3 4 5 6 
#
# 1 0.013265 -0.005539 -0.004871 0.000000 0.000874 0.000000
# 2 -0.005539 0.027757 0.000168 0.000000 0.005876 0.000000
# 3 -0.004871 0.000168 0.010222 0.000000 -0.001786 0.000000
# 4 0.000000 0.000000 0.000000 0.063115 0.000000 0.004737
# 5 0.000874 0.005876 -0.001786 0.000000 0.025133 0.000000
# 6 0.000000 0.000000 0.000000 0.004737 0.000000 0.040530
#
#
# Mechanical properties :
#
#
# Convention : Reuss Voigt Hill
#
# Bulk Modulus (GPa) = 32.51043 46.39936 39.45490
# Shear Modulus (GPa) = 23.72388 29.33712 26.53050
#
# Velocity S-wave (km/s) = 3.35625 3.73224 3.54923
# Velocity P-wave (km/s) = 5.51866 6.37212 5.96068
#
# Compressibility (1/GPa) = 0.03075936
#
# Stress axis : x y z
#
# Youngs Moduli (GPa) = 75.38755 36.02732 97.83216
#
# Poissons Ratio (x) = 0.19955 0.47649
# Poissons Ratio (y) = 0.41756 -0.01639
# Poissons Ratio (z) = 0.36718 -0.00604
#
# Static dielectric constant tensor:
#      x y z
#    x 1.661240 0.000000 0.007440 
#    y 0.000000 1.804320 0.000000 
#    z 0.007440 0.000000 1.758360 
# 
# From -- ./inp_files/243981.got.cif
#   From: 2010.05.17/outbox.cif.g08.bks.cpg/sg15_122_cif.got.tgz:243981.got - 2010.06.03 18:47:42.
