data_PCOD9295962
_publ_section_title
;
Structure prediction by ZEFSAII (Michael W. Deem and Ramdas Pophale) SiO2 
 PCOD9295962
Probable space group: C 2/C
;
_chemical_formula_sum "Si O2"
_cell_formula_units_Z 32
_cell_length_a 9.151871
_cell_length_b 14.558930
_cell_length_c 12.406588
_cell_angle_alpha 90.000000
_cell_angle_beta 47.291516
_cell_angle_gamma 90.000000
_cell_volume 1214.700556
_symmetry_space_group_name_H-M "C 2/C"
_symmetry_group_IT_number 15
_symmetry_cell_setting 'monoclinic'
loop_
_space_group_symop_operation_xyz
x,y,z
-x,y,1/2-z
-x,-y,-z
x,-y,1/2+z
1/2+x,1/2+y,z
1/2-x,1/2+y,1/2-z
1/2-x,1/2-y,-z
1/2+x,1/2-y,1/2+z
loop_
_atom_site_type_symbol
_atom_site_label
_atom_site_fract_x
_atom_site_fract_y
_atom_site_fract_z
Si Si1 0.192146 0.650751 0.577393
Si Si2 0.772515 0.949445 0.829887
Si Si3 0.775112 0.847462 0.379887
Si Si4 0.131293 0.849190 0.925983
O O1 0.250000 0.750000 0.500000
O O2 0.156683 0.585968 0.492014
O O3 0.399649 0.621014 0.532637
O O4 0.000000 0.655196 0.750000
O O5 0.746915 0.893632 0.733050
O O6 0.000000 0.930352 0.750000
O O7 0.754316 0.057884 0.827834
O O8 0.770683 0.872290 0.508669
O O9 0.640440 0.761674 0.416695
O O10 0.000000 0.812345 0.250000
#
# Coordination Sequence:
#
# PCOD9295962 Si02
#       4
#     8   8   8   8
#     4  11  24  43  74 107 143 197 238 295 361 425
#     4   9  21  44  73 109 139 191 246 295 365 430
#     4  10  23  43  77 109 143 196 235 304 373 423
#     4  10  23  46  73 107 151 187 247 298 361 443
#
# _framework density 26.343941999999998
#
# number of rings (size 3 to 8) (size 9 to 14) (size 15 to 20)
#    0.000    2.000    0.000    2.250    7.000    9.000 
#    0.000    6.250   11.000    4.500    0.000    0.000 
#    0.000    0.000    0.000    0.000    0.000    0.000 
#
# Total GULP energy -89730.281095 kJ/mol
# GULP energy per Si atom -5608.142568 kJ/mol
# Density = 2.628398 g / cm^3
# Si number density = 26.343942 Si / 1000 Ang^3
#
#
#
# Elastic Constant Matrix: (Units=GPa)
#
#
# Indices 1 2 3 4 5 6 
#
# 1 107.9282 28.9818 72.9673 0.0001 15.3286 0.0000
# 2 28.9818 88.8318 50.2171 0.0000 47.6355 0.0000
# 3 72.9673 50.2171 214.6473 0.0003 23.6472 -0.0001
# 4 0.0001 0.0000 0.0003 32.1147 -0.0002 -3.4004
# 5 15.3286 47.6355 23.6472 -0.0002 58.7420 0.0001
# 6 0.0000 0.0000 -0.0001 -3.4004 0.0001 18.5913
#
#
#
# Elastic Compliance Matrix: (Units=1/GPa)
#
#
# Indices 1 2 3 4 5 6 
#
# 1 0.012305 -0.001742 -0.003743 0.000000 -0.000291 0.000000
# 2 -0.001742 0.022222 -0.002795 0.000000 -0.016440 0.000000
# 3 -0.003743 -0.002795 0.006517 0.000000 0.000620 0.000000
# 4 0.000000 0.000000 0.000000 0.031753 0.000000 0.005808
# 5 -0.000291 -0.016440 0.000620 0.000000 0.030182 0.000000
# 6 0.000000 0.000000 0.000000 0.005808 0.000000 0.054851
#
#
# Mechanical properties :
#
#
# Convention : Reuss Voigt Hill
#
# Bulk Modulus (GPa) = 40.84614 79.52665 60.18640
# Shear Modulus (GPa) = 27.38920 39.17235 33.28077
#
# Velocity S-wave (km/s) = 3.22790 3.86029 3.55817
# Velocity P-wave (km/s) = 5.42504 7.07973 6.30688
#
# Compressibility (1/GPa) = 0.02448211
#
# Stress axis : x y z
#
# Youngs Moduli (GPa) = 81.26462 45.00039 153.44494
#
# Poissons Ratio (x) = 0.07841 0.57441
# Poissons Ratio (y) = 0.14160 0.42893
# Poissons Ratio (z) = 0.30421 0.12579
#
# Static dielectric constant tensor:
#      x y z
#    x 2.112860 0.000000 -0.006610 
#    y 0.000000 1.996010 0.000000 
#    z -0.006610 0.000000 2.085720 
# 
# From -- ./inp_files/143257.got.cif
#   From: 2010.05.17/outbox.cif.g08.bks.cpg/sg15_72_cif.got.tgz:143257.got - 2010.06.03 18:47:42.
