data_PCOD9295276
_publ_section_title
;
Structure prediction by ZEFSAII (Michael W. Deem and Ramdas Pophale) SiO2 
 PCOD9295276
Probable space group: C 2/C
;
_chemical_formula_sum "Si O2"
_cell_formula_units_Z 52
_cell_length_a 20.333707
_cell_length_b 9.430448
_cell_length_c 18.472246
_cell_angle_alpha 90.000000
_cell_angle_beta 135.650899
_cell_angle_gamma 90.000000
_cell_volume 2476.072659
_symmetry_space_group_name_H-M "C 2/C"
_symmetry_group_IT_number 15
_symmetry_cell_setting 'monoclinic'
loop_
_space_group_symop_operation_xyz
x,y,z
-x,y,1/2-z
-x,-y,-z
x,-y,1/2+z
1/2+x,1/2+y,z
1/2-x,1/2+y,1/2-z
1/2-x,1/2-y,-z
1/2+x,1/2-y,1/2+z
loop_
_atom_site_type_symbol
_atom_site_label
_atom_site_fract_x
_atom_site_fract_y
_atom_site_fract_z
Si Si1 0.642625 0.073868 0.242752
Si Si2 0.367041 0.894299 0.592905
Si Si3 0.500000 0.640634 0.250000
Si Si4 0.956352 0.219552 0.940887
Si Si5 0.650688 0.568150 0.920357
Si Si6 0.008622 0.366369 0.385902
Si Si7 0.357892 0.444948 0.919713
O O1 0.631072 0.072619 0.320235
O O2 0.584821 0.198806 0.159634
O O3 0.752636 0.089882 0.312770
O O4 0.594706 0.928525 0.178706
O O5 0.389975 0.727598 0.606724
O O6 0.259074 0.915273 0.482009
O O7 0.433059 0.003325 0.602869
O O8 0.410137 0.536778 0.176155
O O9 0.501668 0.741388 0.321538
O O10 0.901409 0.072543 0.908121
O O11 0.944220 0.312638 0.003585
O O12 0.066667 0.181471 0.023549
O O13 0.648676 0.510499 0.001007
#
# Coordination Sequence:
#
# PCOD9295276 Si02
#       7
#     8   8   4   8   8   8   8
#     4  11  24  42  70  93 134 180 224 281 340 407
#     4  10  23  44  68  97 135 173 234 278 337 400
#     4  12  24  38  70  98 134 174 222 278 354 390
#     4  11  25  44  64  97 137 180 223 284 338 410
#     4  10  23  42  67  99 130 182 222 281 337 406
#     4  12  24  43  67 103 133 177 224 289 334 412
#     4  10  24  44  64  97 138 173 230 282 335 411
#
# _framework density 21.001000000000001
#
# number of rings (size 3 to 8) (size 9 to 14) (size 15 to 20)
#    0.000    1.231    3.077    1.385    6.462    1.846 
#    5.538    0.000    0.000    0.000    0.000    0.000 
#    0.000    0.000    0.000    0.000    0.000    0.000 
#
# Total GULP energy -145361.462660 kJ/mol
# GULP energy per Si atom -5590.825487 kJ/mol
# Density = 2.095320 g / cm^3
# Si number density = 21.001000 Si / 1000 Ang^3
#
#
#
# Elastic Constant Matrix: (Units=GPa)
#
#
# Indices 1 2 3 4 5 6 
#
# 1 74.9113 30.4460 33.0738 0.0000 25.0372 0.0000
# 2 30.4460 95.5176 47.0295 0.0000 30.3277 0.0000
# 3 33.0738 47.0295 95.7411 0.0000 31.1575 0.0000
# 4 0.0000 0.0000 0.0000 30.8122 0.0000 -2.6680
# 5 25.0372 30.3277 31.1575 0.0000 30.9845 0.0000
# 6 0.0000 0.0000 0.0000 -2.6680 0.0000 19.6892
#
#
#
# Elastic Compliance Matrix: (Units=1/GPa)
#
#
# Indices 1 2 3 4 5 6 
#
# 1 0.018705 -0.001188 -0.001988 0.000000 -0.011952 0.000000
# 2 -0.001188 0.016312 -0.004041 0.000000 -0.010942 0.000000
# 3 -0.001988 -0.004041 0.016807 0.000000 -0.011338 0.000000
# 4 0.000000 0.000000 0.000000 0.032840 0.000000 0.004450
# 5 -0.011952 -0.010942 -0.011338 0.000000 0.064044 0.000000
# 6 0.000000 0.000000 0.000000 0.004450 0.000000 0.051392
#
#
# Mechanical properties :
#
#
# Convention : Reuss Voigt Hill
#
# Bulk Modulus (GPa) = 26.74666 54.14095 40.44381
# Shear Modulus (GPa) = 22.02667 26.67189 24.34928
#
# Velocity S-wave (km/s) = 3.24209 3.56761 3.40874
# Velocity P-wave (km/s) = 5.17479 6.54268 5.89852
#
# Compressibility (1/GPa) = 0.03738784
#
# Stress axis : x y z
#
# Youngs Moduli (GPa) = 53.46301 61.30427 59.50015
#
# Poissons Ratio (x) = 0.07284 0.11830
# Poissons Ratio (y) = 0.06353 0.24046
# Poissons Ratio (z) = 0.10630 0.24775
#
# Static dielectric constant tensor:
#      x y z
#    x 1.774630 0.000000 0.014700 
#    y 0.000000 1.740370 0.000000 
#    z 0.014700 0.000000 1.753640 
# 
# From -- ./inp_files/255090.got.cif
#   From: 2010.05.17/outbox.cif.g08.bks.cpg/sg15_128_cif.got.tgz:255090.got - 2010.06.03 18:47:42.
