data_PCOD9295645
_publ_section_title
;
Structure prediction by ZEFSAII (Michael W. Deem and Ramdas Pophale) SiO2 
 PCOD9295645
Probable space group: C 2/C
;
_chemical_formula_sum "Si O2"
_cell_formula_units_Z 36
_cell_length_a 22.839911
_cell_length_b 7.441661
_cell_length_c 10.609201
_cell_angle_alpha 90.000000
_cell_angle_beta 133.049571
_cell_angle_gamma 90.000000
_cell_volume 1317.721834
_symmetry_space_group_name_H-M "C 2/C"
_symmetry_group_IT_number 15
_symmetry_cell_setting 'monoclinic'
loop_
_space_group_symop_operation_xyz
x,y,z
-x,y,1/2-z
-x,-y,-z
x,-y,1/2+z
1/2+x,1/2+y,z
1/2-x,1/2+y,1/2-z
1/2-x,1/2-y,-z
1/2+x,1/2-y,1/2+z
loop_
_atom_site_type_symbol
_atom_site_label
_atom_site_fract_x
_atom_site_fract_y
_atom_site_fract_z
Si Si1 0.337942 0.998466 0.609921
Si Si2 0.626359 0.533006 0.996969
Si Si3 0.722339 0.288974 0.294720
Si Si4 0.574538 0.337831 0.681322
Si Si5 0.500000 0.914984 0.250000
O O1 0.333473 0.840281 0.705491
O O2 0.255096 0.968890 0.413060
O O3 0.354074 0.188346 0.701023
O O4 0.417515 0.977874 0.640016
O O5 0.674728 0.351472 0.104145
O O6 0.695690 0.680572 0.094917
O O7 0.572377 0.586036 0.037949
O O8 0.587893 0.490728 0.806391
O O9 0.502473 0.214771 0.630945
#
# Coordination Sequence:
#
# PCOD9295645 Si02
#       5
#     8   8   8   8   4
#     4   9  20  44  66  99 132 186 227 278 346 403
#     4  12  24  41  68 105 136 176 234 288 342 393
#     4  11  22  37  70 102 134 178 232 290 336 396
#     4  10  23  43  67 101 140 181 225 279 339 414
#     4   8  22  46  68  96 144 188 218 278 350 412
#
# _framework density 27.319877000000002
#
# number of rings (size 3 to 8) (size 9 to 14) (size 15 to 20)
#    1.333    0.444    0.000    5.333    0.000    3.556 
#    0.000    8.889    0.000    0.000    0.000    0.000 
#    0.000    0.000    0.000    0.000    0.000    0.000 
#
# Total GULP energy -100749.262463 kJ/mol
# GULP energy per Si atom -5597.181248 kJ/mol
# Density = 2.725770 g / cm^3
# Si number density = 27.319877 Si / 1000 Ang^3
#
#
#
# Elastic Constant Matrix: (Units=GPa)
#
#
# Indices 1 2 3 4 5 6 
#
# 1 200.0296 73.8384 49.5889 0.0000 -0.0060 0.0000
# 2 73.8384 122.8790 57.7697 0.0000 2.0662 0.0000
# 3 49.5889 57.7697 127.5660 0.0000 -3.7451 0.0000
# 4 0.0000 0.0000 0.0000 26.0591 0.0000 1.1042
# 5 -0.0060 2.0662 -3.7451 0.0000 31.8015 0.0000
# 6 0.0000 0.0000 0.0000 1.1042 0.0000 70.1353
#
#
#
# Elastic Compliance Matrix: (Units=1/GPa)
#
#
# Indices 1 2 3 4 5 6 
#
# 1 0.006517 -0.003467 -0.000960 0.000000 0.000113 0.000000
# 2 -0.003467 0.012231 -0.004230 0.000000 -0.001293 0.000000
# 3 -0.000960 -0.004230 0.010171 0.000000 0.001472 0.000000
# 4 0.000000 0.000000 0.000000 0.038400 0.000000 -0.000605
# 5 0.000113 -0.001293 0.001472 0.000000 0.031702 0.000000
# 6 0.000000 0.000000 0.000000 -0.000605 0.000000 0.014268
#
#
# Mechanical properties :
#
#
# Convention : Reuss Voigt Hill
#
# Bulk Modulus (GPa) = 86.15653 90.31874 88.23764
# Shear Modulus (GPa) = 37.18286 43.55104 40.36695
#
# Velocity S-wave (km/s) = 3.69320 3.99697 3.84808
# Velocity P-wave (km/s) = 7.05627 7.37784 7.21885
#
# Compressibility (1/GPa) = 0.01160678
#
# Stress axis : x y z
#
# Youngs Moduli (GPa) = 153.44662 81.75717 98.31946
#
# Poissons Ratio (x) = 0.28342 0.09440
# Poissons Ratio (y) = 0.53193 0.41584
# Poissons Ratio (z) = 0.14733 0.34579
#
# Static dielectric constant tensor:
#      x y z
#    x 2.216880 0.000000 -0.018440 
#    y 0.000000 2.180290 0.000000 
#    z -0.018440 0.000000 2.086660 
# 
# From -- ./inp_files/109832.got.cif
#   From: 2010.05.17/outbox.cif.g08.bks.cpg/sg15_55_cif.got.tgz:109832.got - 2010.06.03 18:47:42.
