data_PCOD9295208
_publ_section_title
;
Structure prediction by ZEFSAII (Michael W. Deem and Ramdas Pophale) SiO2 
 PCOD9295208
Probable space group: C 2/C
;
_chemical_formula_sum "Si O2"
_cell_formula_units_Z 60
_cell_length_a 18.520935
_cell_length_b 16.726309
_cell_length_c 9.180981
_cell_angle_alpha 90.000000
_cell_angle_beta 84.041510
_cell_angle_gamma 90.000000
_cell_volume 2828.781582
_symmetry_space_group_name_H-M "C 2/C"
_symmetry_group_IT_number 15
_symmetry_cell_setting 'monoclinic'
loop_
_space_group_symop_operation_xyz
x,y,z
-x,y,1/2-z
-x,-y,-z
x,-y,1/2+z
1/2+x,1/2+y,z
1/2-x,1/2+y,1/2-z
1/2-x,1/2-y,-z
1/2+x,1/2-y,1/2+z
loop_
_atom_site_type_symbol
_atom_site_label
_atom_site_fract_x
_atom_site_fract_y
_atom_site_fract_z
Si Si1 0.067868 0.235281 0.126142
Si Si2 0.572009 0.329434 0.314185
Si Si3 0.415340 0.086405 0.993292
Si Si4 0.804601 0.749288 0.699352
Si Si5 0.500000 0.021983 0.250000
Si Si6 0.848305 0.307237 0.874069
Si Si7 0.275251 0.411936 0.256911
Si Si8 0.295836 0.027476 0.451202
O O1 0.083867 0.322589 0.055375
O O2 0.139143 0.211580 0.202675
O O3 0.000000 0.238660 0.250000
O O4 0.055614 0.181770 0.987599
O O5 0.500000 0.359028 0.250000
O O6 0.595606 0.244784 0.231815
O O7 0.642548 0.385137 0.283640
O O8 0.448293 0.038258 0.849548
O O9 0.338282 0.042823 0.027483
O O10 0.461848 0.072010 0.129356
O O11 0.843371 0.731411 0.536411
O O12 0.730696 0.796112 0.683166
O O13 0.776614 0.664020 0.766393
O O14 0.852998 0.402421 0.895374
O O15 0.247307 0.485742 0.168842
O O16 0.259998 0.430421 0.428280
#
# Coordination Sequence:
#
# PCOD9295208 Si02
#       8
#     8   8   8   8   4   8   8   8
#     4  12  25  39  62  92 134 176 219 276 324 396
#     4  11  26  45  66  94 133 176 228 275 341 398
#     4  11  23  38  57  93 131 177 216 266 315 403
#     4   9  19  41  61  94 130 165 222 275 324 391
#     4  10  24  36  54  84 142 178 208 250 332 390
#     4   9  21  38  69  92 124 173 219 275 329 398
#     4  10  23  42  66  97 130 172 220 280 329 405
#     4  11  22  39  68  97 131 169 222 272 334 383
#
# _framework density 21.210546000000001
#
# number of rings (size 3 to 8) (size 9 to 14) (size 15 to 20)
#    0.000    1.600    2.000    2.400    6.533    4.267 
#    0.000    0.667    0.000    0.800    0.000    0.000 
#    0.000    0.000    0.000    0.000    0.000    0.000 
#
# Total GULP energy -167695.286060 kJ/mol
# GULP energy per Si atom -5589.842869 kJ/mol
# Density = 2.116227 g / cm^3
# Si number density = 21.210546 Si / 1000 Ang^3
#
#
#
# Elastic Constant Matrix: (Units=GPa)
#
#
# Indices 1 2 3 4 5 6 
#
# 1 62.2087 -4.5211 28.8596 0.0000 4.3904 0.0000
# 2 -4.5211 22.3518 2.7184 0.0000 -7.7131 0.0000
# 3 28.8596 2.7184 79.2215 0.0000 9.5681 0.0000
# 4 0.0000 0.0000 0.0000 16.9740 0.0000 0.2993
# 5 4.3904 -7.7131 9.5681 0.0000 36.9594 0.0000
# 6 0.0000 0.0000 0.0000 0.2993 0.0000 14.0812
#
#
#
# Elastic Compliance Matrix: (Units=1/GPa)
#
#
# Indices 1 2 3 4 5 6 
#
# 1 0.019883 0.005160 -0.007499 0.000000 0.000657 0.000000
# 2 0.005160 0.050233 -0.004950 0.000000 0.011152 0.000000
# 3 -0.007499 -0.004950 0.016043 0.000000 -0.004296 0.000000
# 4 0.000000 0.000000 0.000000 0.058936 0.000000 -0.001253
# 5 0.000657 0.011152 -0.004296 0.000000 0.030418 0.000000
# 6 0.000000 0.000000 0.000000 -0.001253 0.000000 0.071043
#
#
# Mechanical properties :
#
#
# Convention : Reuss Voigt Hill
#
# Bulk Modulus (GPa) = 13.97035 24.21064 19.09050
# Shear Modulus (GPa) = 17.54414 22.71793 20.13103
#
# Velocity S-wave (km/s) = 2.87913 3.27627 3.08410
# Velocity P-wave (km/s) = 4.20158 5.07456 4.65856
#
# Compressibility (1/GPa) = 0.07158018
#
# Stress axis : x y z
#
# Youngs Moduli (GPa) = 50.29491 19.90720 62.33064
#
# Poissons Ratio (x) = -0.10273 0.46744
# Poissons Ratio (y) = -0.25953 0.30856
# Poissons Ratio (z) = 0.37718 0.09855
#
# Static dielectric constant tensor:
#      x y z
#    x 1.772380 0.000000 -0.012990 
#    y 0.000000 1.779440 0.000000 
#    z -0.012990 0.000000 1.754030 
# 
# From -- ./inp_files/49082.got.cif
#   From: 2010.05.17/outbox.cif.g08.bks.cpg/sg15_25_cif.got.tgz:49082.got - 2010.06.03 18:47:42.
