data_PCOD9295643
_publ_section_title
;
Structure prediction by ZEFSAII (Michael W. Deem and Ramdas Pophale) SiO2 
 PCOD9295643
Probable space group: C 2/C
;
_chemical_formula_sum "Si O2"
_cell_formula_units_Z 40
_cell_length_a 26.926776
_cell_length_b 9.206101
_cell_length_c 9.074885
_cell_angle_alpha 90.000000
_cell_angle_beta 128.661827
_cell_angle_gamma 90.000000
_cell_volume 1756.576454
_symmetry_space_group_name_H-M "C 2/C"
_symmetry_group_IT_number 15
_symmetry_cell_setting 'monoclinic'
loop_
_space_group_symop_operation_xyz
x,y,z
-x,y,1/2-z
-x,-y,-z
x,-y,1/2+z
1/2+x,1/2+y,z
1/2-x,1/2+y,1/2-z
1/2-x,1/2-y,-z
1/2+x,1/2-y,1/2+z
loop_
_atom_site_type_symbol
_atom_site_label
_atom_site_fract_x
_atom_site_fract_y
_atom_site_fract_z
Si Si1 0.736521 0.587070 0.929743
Si Si2 0.626617 0.022709 0.857082
Si Si3 0.592484 0.812808 0.016342
Si Si4 0.345618 0.519718 0.466229
Si Si5 0.442447 0.693526 0.255266
O O1 0.676010 0.574446 0.711871
O O2 0.750000 0.750000 0.000000
O O3 0.800592 0.519409 0.983509
O O4 0.713248 0.506942 0.032640
O O5 0.618065 0.055562 0.667122
O O6 0.606990 0.179680 0.881657
O O7 0.580875 0.899095 0.842397
O O8 0.641029 0.683640 0.063682
O O9 0.546022 0.731416 0.049317
O O10 0.407364 0.458085 0.662988
O O11 0.500000 0.703301 0.250000
#
# Coordination Sequence:
#
# PCOD9295643 Si02
#       5
#     8   8   8   8   8
#     4  12  25  39  71 103 141 181 217 288 351 417
#     4  10  23  43  67 100 137 170 233 270 351 404
#     4  10  23  44  65 103 129 182 225 280 348 399
#     4  12  25  44  67 106 140 179 231 279 357 413
#     4  10  26  47  69  99 136 187 236 286 336 404
#
# _framework density 22.771567999999998
#
# number of rings (size 3 to 8) (size 9 to 14) (size 15 to 20)
#    1.200    0.000    4.000    1.200    5.600    3.200 
#    0.000    1.000    0.000    0.000    0.000    0.000 
#    0.000    0.000    0.000    0.000    0.000    0.000 
#
# Total GULP energy -111366.082165 kJ/mol
# GULP energy per Si atom -5568.304108 kJ/mol
# Density = 2.271974 g / cm^3
# Si number density = 22.771568 Si / 1000 Ang^3
#
#
#
# Elastic Constant Matrix: (Units=GPa)
#
#
# Indices 1 2 3 4 5 6 
#
# 1 143.3666 22.1761 18.3673 0.0000 -28.5888 0.0000
# 2 22.1761 80.9766 35.8264 0.0000 -10.3872 0.0000
# 3 18.3673 35.8264 46.7376 0.0000 -17.5811 0.0000
# 4 0.0000 0.0000 0.0000 16.9945 0.0000 -6.4170
# 5 -28.5888 -10.3872 -17.5811 0.0000 20.8954 0.0000
# 6 0.0000 0.0000 0.0000 -6.4170 0.0000 25.2184
#
#
#
# Elastic Compliance Matrix: (Units=1/GPa)
#
#
# Indices 1 2 3 4 5 6 
#
# 1 0.009985 -0.002416 0.003826 0.000000 0.015680 0.000000
# 2 -0.002416 0.019508 -0.016971 0.000000 -0.007887 0.000000
# 3 0.003826 -0.016971 0.046375 0.000000 0.035818 0.000000
# 4 0.000000 0.000000 0.000000 0.065097 0.000000 0.016564
# 5 0.015680 -0.007887 0.035818 0.000000 0.095526 0.000000
# 6 0.000000 0.000000 0.000000 0.016564 0.000000 0.043869
#
#
# Mechanical properties :
#
#
# Convention : Reuss Voigt Hill
#
# Bulk Modulus (GPa) = 22.34826 47.09116 34.71971
# Shear Modulus (GPa) = 15.31879 25.60240 20.46060
#
# Velocity S-wave (km/s) = 2.59649 3.35672 3.00078
# Velocity P-wave (km/s) = 4.33871 5.97897 5.22363
#
# Compressibility (1/GPa) = 0.04474622
#
# Stress axis : x y z
#
# Youngs Moduli (GPa) = 100.14566 51.26216 21.56351
#
# Poissons Ratio (x) = 0.12385 -0.08251
# Poissons Ratio (y) = 0.24196 0.36595
# Poissons Ratio (z) = -0.38318 0.86996
#
# Static dielectric constant tensor:
#      x y z
#    x 2.333790 0.000000 -0.044680 
#    y 0.000000 1.803680 0.000000 
#    z -0.044680 0.000000 1.884420 
# 
# From -- ./inp_files/68440.got.cif
#   From: 2010.05.17/outbox.cif.g08.bks.cpg/sg15_35_cif.got.tgz:68440.got - 2010.06.03 18:47:42.
