data_PCOD9295742
_publ_section_title
;
Structure prediction by ZEFSAII (Michael W. Deem and Ramdas Pophale) SiO2 
 PCOD9295742
Probable space group: C 2/C
;
_chemical_formula_sum "Si O2"
_cell_formula_units_Z 48
_cell_length_a 14.348694
_cell_length_b 12.341814
_cell_length_c 24.844885
_cell_angle_alpha 90.000000
_cell_angle_beta 26.706058
_cell_angle_gamma 90.000000
_cell_volume 1977.308492
_symmetry_space_group_name_H-M "C 2/C"
_symmetry_group_IT_number 15
_symmetry_cell_setting 'monoclinic'
loop_
_space_group_symop_operation_xyz
x,y,z
-x,y,1/2-z
-x,-y,-z
x,-y,1/2+z
1/2+x,1/2+y,z
1/2-x,1/2+y,1/2-z
1/2-x,1/2-y,-z
1/2+x,1/2-y,1/2+z
loop_
_atom_site_type_symbol
_atom_site_label
_atom_site_fract_x
_atom_site_fract_y
_atom_site_fract_z
Si Si1 0.000000 0.864959 0.250000
Si Si2 0.500000 0.991511 0.250000
Si Si3 0.764716 0.330167 0.824033
Si Si4 0.190139 0.630076 0.360898
Si Si5 0.001169 0.066021 0.377370
Si Si6 0.172411 0.481001 0.978829
Si Si7 0.107807 0.124199 0.904052
O O1 0.865966 0.785266 0.281313
O O2 0.833454 0.931283 0.370478
O O3 0.704506 0.916633 0.153452
O O4 0.550161 0.080757 0.271250
O O5 0.609461 0.338910 0.854568
O O6 0.610505 0.366729 0.951887
O O7 0.411060 0.587425 0.227713
O O8 0.150022 0.610978 0.444776
O O9 0.157432 0.753577 0.362391
O O10 0.037281 0.548131 0.409318
O O11 0.073277 0.958960 0.372568
O O12 0.758094 0.061572 0.491196
#
# Coordination Sequence:
#
# PCOD9295742 Si02
#       7
#     4   4   8   8   8   8   8
#     4  11  20  43  72  90 130 185 210 267 334 394
#     4   9  20  37  66  90 134 169 204 271 328 386
#     4  10  23  43  68  98 130 173 226 271 328 395
#     4  11  25  43  66  98 133 178 219 274 331 398
#     4  11  24  40  67  99 131 163 226 276 320 395
#     4  11  24  44  68  92 139 173 219 275 333 385
#     4  11  24  43  68  96 135 176 220 271 340 390
#
# _framework density 24.275423
#
# number of rings (size 3 to 8) (size 9 to 14) (size 15 to 20)
#    0.000    1.333    3.333    2.000    4.667    7.333 
#    0.000    0.833    0.000    0.000    0.000    0.000 
#    0.000    0.000    0.000    0.000    0.000    0.000 
#
# Total GULP energy -133992.539973 kJ/mol
# GULP energy per Si atom -5583.022499 kJ/mol
# Density = 2.422017 g / cm^3
# Si number density = 24.275423 Si / 1000 Ang^3
#
#
#
# Elastic Constant Matrix: (Units=GPa)
#
#
# Indices 1 2 3 4 5 6 
#
# 1 123.2415 5.8300 -13.4150 -0.0025 -21.8174 0.0011
# 2 5.8300 50.8973 -3.0674 -0.0067 13.2662 0.0010
# 3 -13.4150 -3.0674 46.2961 -0.0271 -1.7027 0.0178
# 4 -0.0025 -0.0067 -0.0271 33.1454 0.0052 -6.9964
# 5 -21.8174 13.2662 -1.7027 0.0052 36.9194 -0.0045
# 6 0.0011 0.0010 0.0178 -6.9964 -0.0045 2.9261
#
#
#
# Elastic Compliance Matrix: (Units=1/GPa)
#
#
# Indices 1 2 3 4 5 6 
#
# 1 0.009782 -0.002744 0.002906 -0.000001 0.006901 -0.000013
# 2 -0.002744 0.022509 0.000340 0.000002 -0.009694 -0.000018
# 3 0.002906 0.000340 0.022562 -0.000020 0.002636 -0.000183
# 4 -0.000001 0.000002 -0.000020 0.060913 0.000007 0.145647
# 5 0.006901 -0.009694 0.002636 0.000007 0.034769 0.000054
# 6 -0.000013 -0.000018 -0.000183 0.145647 0.000054 0.690004
#
#
# Mechanical properties :
#
#
# Convention : Reuss Voigt Hill
#
# Bulk Modulus (GPa) = 17.90280 22.12557 20.01418
# Shear Modulus (GPa) = 5.82647 30.00399 17.91523
#
# Velocity S-wave (km/s) = 1.55092 3.51947 2.71956
# Velocity P-wave (km/s) = 3.25546 5.06455 4.25721
#
# Compressibility (1/GPa) = 0.05585719
#
# Stress axis : x y z
#
# Youngs Moduli (GPa) = 102.22908 44.42687 44.32265
#
# Poissons Ratio (x) = 0.12191 -0.12882
# Poissons Ratio (y) = 0.28051 -0.01506
# Poissons Ratio (z) = -0.29713 -0.01509
#
# Static dielectric constant tensor:
#      x y z
#    x 2.011910 0.000000 0.029880 
#    y 0.000000 1.919760 0.000010 
#    z 0.029880 0.000010 1.943900 
# 
# From -- ./inp_files/152226.got.cif
#   From: 2010.05.17/outbox.cif.g08.bks.cpg/sg15_77_cif.got.tgz:152226.got - 2010.06.03 18:47:42.
