data_PCOD9295739
_publ_section_title
;
Structure prediction by ZEFSAII (Michael W. Deem and Ramdas Pophale) SiO2 
 PCOD9295739
Probable space group: C 2/C
;
_chemical_formula_sum "Si O2"
_cell_formula_units_Z 64
_cell_length_a 11.913100
_cell_length_b 9.273772
_cell_length_c 23.669648
_cell_angle_alpha 90.000000
_cell_angle_beta 92.616381
_cell_angle_gamma 90.000000
_cell_volume 2612.281885
_symmetry_space_group_name_H-M "C 2/C"
_symmetry_group_IT_number 15
_symmetry_cell_setting 'monoclinic'
loop_
_space_group_symop_operation_xyz
x,y,z
-x,y,1/2-z
-x,-y,-z
x,-y,1/2+z
1/2+x,1/2+y,z
1/2-x,1/2+y,1/2-z
1/2-x,1/2-y,-z
1/2+x,1/2-y,1/2+z
loop_
_atom_site_type_symbol
_atom_site_label
_atom_site_fract_x
_atom_site_fract_y
_atom_site_fract_z
Si Si1 0.956817 0.251141 0.836086
Si Si2 0.679373 0.501395 0.714364
Si Si3 0.658896 0.651478 0.909281
Si Si4 0.324875 0.383991 0.905763
Si Si5 0.055971 0.266554 0.412141
Si Si6 0.277150 0.413330 0.661853
Si Si7 0.931608 0.539413 0.693543
Si Si8 0.123720 0.926526 0.001887
O O1 0.912434 0.125942 0.793972
O O2 0.842765 0.337395 0.849847
O O3 0.030227 0.176797 0.887425
O O4 0.038945 0.369780 0.810568
O O5 0.663442 0.399693 0.660489
O O6 0.685846 0.417367 0.772595
O O7 0.802707 0.566577 0.705804
O O8 0.713002 0.804652 0.921926
O O9 0.723693 0.579440 0.857983
O O10 0.681330 0.539973 0.960232
O O11 0.430851 0.285516 0.923809
O O12 0.326762 0.540684 0.935553
O O13 0.047948 0.401627 0.369691
O O14 0.123939 0.157322 0.372678
O O15 0.118248 0.232087 0.473795
O O16 0.000000 0.595491 0.750000
O O17 0.000000 0.000000 0.000000
#
# Coordination Sequence:
#
# PCOD9295739 Si02
#       8
#     8   8   8   8   8   8   8   8
#     4  12  25  44  67  99 145 174 237 279 344 419
#     4  12  26  40  67 102 139 186 225 286 347 415
#     4  11  24  42  72 102 138 184 234 289 355 415
#     4  11  23  42  72  98 136 185 236 284 357 412
#     4  10  23  43  68  97 134 178 232 289 347 412
#     4  11  25  40  66 103 138 182 229 281 350 419
#     4  12  25  42  65  98 143 181 222 289 342 423
#     4   9  20  44  71  98 131 181 238 296 344 418
#
# _framework density 24.499652000000001
#
# number of rings (size 3 to 8) (size 9 to 14) (size 15 to 20)
#    0.000    1.000    3.750    3.375    5.250    1.000 
#    0.000    0.625    8.250    7.500    0.000    0.000 
#    0.000    0.000    0.000    0.000    0.000    0.000 
#
# Total GULP energy -178725.807109 kJ/mol
# GULP energy per Si atom -5585.181472 kJ/mol
# Density = 2.444389 g / cm^3
# Si number density = 24.499652 Si / 1000 Ang^3
#
#
#
# Elastic Constant Matrix: (Units=GPa)
#
#
# Indices 1 2 3 4 5 6 
#
# 1 98.3095 16.0968 7.7864 0.0000 16.3635 0.0000
# 2 16.0968 58.5706 6.9024 0.0000 -0.5077 0.0000
# 3 7.7864 6.9024 65.7699 0.0000 3.8438 0.0000
# 4 0.0000 0.0000 0.0000 19.7805 0.0000 -14.7750
# 5 16.3635 -0.5077 3.8438 0.0000 25.0734 0.0000
# 6 0.0000 0.0000 0.0000 -14.7750 0.0000 31.8279
#
#
#
# Elastic Compliance Matrix: (Units=1/GPa)
#
#
# Indices 1 2 3 4 5 6 
#
# 1 0.012070 -0.003312 -0.000623 0.000000 -0.007849 0.000000
# 2 -0.003312 0.018206 -0.001682 0.000000 0.002788 0.000000
# 3 -0.000623 -0.001682 0.015572 0.000000 -0.002015 0.000000
# 4 0.000000 0.000000 0.000000 0.077389 0.000000 0.035925
# 5 -0.007849 0.002788 -0.002015 0.000000 0.045371 0.000000
# 6 0.000000 0.000000 0.000000 0.035925 0.000000 0.048096
#
#
# Mechanical properties :
#
#
# Convention : Reuss Voigt Hill
#
# Bulk Modulus (GPa) = 28.88808 31.58013 30.23411
# Shear Modulus (GPa) = 20.87902 28.12731 24.50317
#
# Velocity S-wave (km/s) = 2.92244 3.39199 3.16594
# Velocity P-wave (km/s) = 4.81709 5.31590 5.07263
#
# Compressibility (1/GPa) = 0.03461635
#
# Stress axis : x y z
#
# Youngs Moduli (GPa) = 82.85030 54.92719 64.21588
#
# Poissons Ratio (x) = 0.18191 0.03999
# Poissons Ratio (y) = 0.27438 0.10798
# Poissons Ratio (z) = 0.05159 0.09236
#
# Static dielectric constant tensor:
#      x y z
#    x 1.957050 0.000000 0.033720 
#    y 0.000000 2.000890 0.000000 
#    z 0.033720 0.000000 2.064490 
# 
# From -- ./inp_files/268900.got.cif
#   From: 2010.05.17/outbox.cif.g08.bks.cpg/sg15_135_cif.got.tgz:268900.got - 2010.06.03 18:47:42.
