data_PCOD9295741
_publ_section_title
;
Structure prediction by ZEFSAII (Michael W. Deem and Ramdas Pophale) SiO2 
 PCOD9295741
Probable space group: C 2/C
;
_chemical_formula_sum "Si O2"
_cell_formula_units_Z 56
_cell_length_a 27.250040
_cell_length_b 11.380943
_cell_length_c 13.750751
_cell_angle_alpha 90.000000
_cell_angle_beta 147.196899
_cell_angle_gamma 90.000000
_cell_volume 2310.328305
_symmetry_space_group_name_H-M "C 2/C"
_symmetry_group_IT_number 15
_symmetry_cell_setting 'monoclinic'
loop_
_space_group_symop_operation_xyz
x,y,z
-x,y,1/2-z
-x,-y,-z
x,-y,1/2+z
1/2+x,1/2+y,z
1/2-x,1/2+y,1/2-z
1/2-x,1/2-y,-z
1/2+x,1/2-y,1/2+z
loop_
_atom_site_type_symbol
_atom_site_label
_atom_site_fract_x
_atom_site_fract_y
_atom_site_fract_z
Si Si1 0.015737 0.545978 0.388957
Si Si2 0.953086 0.160701 0.271019
Si Si3 0.841634 0.618190 0.632750
Si Si4 0.982989 0.801420 0.030705
Si Si5 0.687445 0.475780 0.750323
Si Si6 0.788277 0.501529 0.235093
Si Si7 0.143151 0.085429 0.878338
O O1 0.926836 0.471906 0.269047
O O2 0.000000 0.575510 0.250000
O O3 0.032932 0.663314 0.481031
O O4 0.109632 0.474355 0.560198
O O5 0.878097 0.251761 0.182118
O O6 0.011845 0.161429 0.468384
O O7 0.000000 0.201204 0.250000
O O8 0.909485 0.034239 0.179856
O O9 0.772038 0.600540 0.429163
O O10 0.793240 0.588752 0.653591
O O11 0.898889 0.890242 0.911784
O O12 0.064968 0.820589 0.241960
O O13 0.725489 0.539982 0.718939
O O14 0.673537 0.560192 0.818877
O O15 0.729327 0.607107 0.089677
#
# Coordination Sequence:
#
# PCOD9295741 Si02
#       7
#     8   8   8   8   8   8   8
#     4  12  25  45  72 100 142 186 228 289 354 411
#     4  11  24  40  75 102 138 188 234 286 351 409
#     4  11  24  45  68 104 139 181 242 281 342 424
#     4  11  26  46  70 105 142 179 236 292 344 420
#     4  10  23  43  68  97 140 181 231 290 338 415
#     4  11  24  43  72  96 138 188 226 288 349 408
#     4  10  26  45  69 102 139 179 238 287 346 422
#
# _framework density 24.238980000000002
#
# number of rings (size 3 to 8) (size 9 to 14) (size 15 to 20)
#    0.000    1.143    2.857    2.571    8.000    1.714 
#    0.000    4.286    3.143    0.000    0.000    0.000 
#    0.000    0.000    0.000    0.000    0.000    0.000 
#
# Total GULP energy -156487.427954 kJ/mol
# GULP energy per Si atom -5588.836713 kJ/mol
# Density = 2.418381 g / cm^3
# Si number density = 24.238980 Si / 1000 Ang^3
#
#
#
# Elastic Constant Matrix: (Units=GPa)
#
#
# Indices 1 2 3 4 5 6 
#
# 1 141.1795 11.6216 19.5555 0.0000 -8.4357 0.0000
# 2 11.6216 41.2104 9.3993 0.0000 4.2490 0.0000
# 3 19.5555 9.3993 167.2092 0.0000 -3.6447 0.0000
# 4 0.0000 0.0000 0.0000 35.4506 0.0000 -1.8510
# 5 -8.4357 4.2490 -3.6447 0.0000 28.6322 0.0000
# 6 0.0000 0.0000 0.0000 -1.8510 0.0000 3.9744
#
#
#
# Elastic Compliance Matrix: (Units=1/GPa)
#
#
# Indices 1 2 3 4 5 6 
#
# 1 0.007509 -0.002210 -0.000700 0.000000 0.002451 0.000000
# 2 -0.002210 0.025659 -0.001285 0.000000 -0.004622 0.000000
# 3 -0.000700 -0.001285 0.006151 0.000000 0.000767 0.000000
# 4 0.000000 0.000000 0.000000 0.028911 0.000000 0.013465
# 5 0.002451 -0.004622 0.000767 0.000000 0.036432 0.000000
# 6 0.000000 0.000000 0.000000 0.013465 0.000000 0.257884
#
#
# Mechanical properties :
#
#
# Convention : Reuss Voigt Hill
#
# Bulk Modulus (GPa) = 32.33347 47.86131 40.09739
# Shear Modulus (GPa) = 13.11489 34.21293 23.66391
#
# Velocity S-wave (km/s) = 2.32861 3.76105 3.12793
# Velocity P-wave (km/s) = 4.53853 6.21684 5.44277
#
# Compressibility (1/GPa) = 0.03092770
#
# Stress axis : x y z
#
# Youngs Moduli (GPa) = 133.18022 38.97316 162.56488
#
# Poissons Ratio (x) = 0.08615 0.11387
# Poissons Ratio (y) = 0.29439 0.20883
# Poissons Ratio (z) = 0.09329 0.05006
#
# Static dielectric constant tensor:
#      x y z
#    x 1.980610 0.000000 -0.034550 
#    y 0.000000 1.884160 0.000000 
#    z -0.034550 0.000000 2.039560 
# 
# From -- ./inp_files/178431.got.cif
#   From: 2010.05.17/outbox.cif.g08.bks.cpg/sg15_90_cif.got.tgz:178431.got - 2010.06.03 18:47:42.
