data_PCOD9295692
_publ_section_title
;
Structure prediction by ZEFSAII (Michael W. Deem and Ramdas Pophale) SiO2 
 PCOD9295692
Probable space group: C 2/C
;
_chemical_formula_sum "Si O2"
_cell_formula_units_Z 48
_cell_length_a 28.816688
_cell_length_b 4.970418
_cell_length_c 15.446354
_cell_angle_alpha 90.000000
_cell_angle_beta 102.191924
_cell_angle_gamma 90.000000
_cell_volume 2162.497376
_symmetry_space_group_name_H-M "C 2/C"
_symmetry_group_IT_number 15
_symmetry_cell_setting 'monoclinic'
loop_
_space_group_symop_operation_xyz
x,y,z
-x,y,1/2-z
-x,-y,-z
x,-y,1/2+z
1/2+x,1/2+y,z
1/2-x,1/2+y,1/2-z
1/2-x,1/2-y,-z
1/2+x,1/2-y,1/2+z
loop_
_atom_site_type_symbol
_atom_site_label
_atom_site_fract_x
_atom_site_fract_y
_atom_site_fract_z
Si Si1 0.684515 0.250711 0.056477
Si Si2 0.905619 0.596725 0.562609
Si Si3 0.631180 0.612028 0.166635
Si Si4 0.949244 0.884708 0.004057
Si Si5 0.854976 0.619064 0.212116
Si Si6 0.774610 0.930031 0.082406
O O1 0.638799 0.062996 0.021909
O O2 0.693708 0.368915 0.963467
O O3 0.669677 0.483677 0.116199
O O4 0.731900 0.101825 0.106053
O O5 0.947885 0.402004 0.549994
O O6 0.886265 0.502161 0.646940
O O7 0.922228 0.901898 0.555862
O O8 0.649810 0.878329 0.221098
O O9 0.622044 0.377165 0.233081
O O10 0.582930 0.646420 0.094089
O O11 0.000000 0.000000 0.000000
O O12 0.693989 0.241544 0.344816
O O13 0.750000 0.750000 0.000000
#
# Coordination Sequence:
#
# PCOD9295692 Si02
#       6
#     8   8   8   8   8   8
#     4  10  23  43  67  98 134 195 235 282 327 414
#     4  11  22  43  72  95 133 179 223 264 346 412
#     4  11  25  43  67  97 143 170 220 289 353 384
#     4  11  24  46  74 100 125 174 229 275 335 432
#     4  12  24  43  65 103 139 180 215 284 341 394
#     4  11  23  41  71  93 137 185 252 267 323 417
#
# _framework density 22.196556999999999
#
# number of rings (size 3 to 8) (size 9 to 14) (size 15 to 20)
#    0.000    1.000    1.667    6.500    4.667    0.000 
#    3.000    5.000    0.000    0.000    0.000    0.000 
#    0.000    0.000    0.000    0.000    0.000    0.000 
#
# Total GULP energy -134323.094509 kJ/mol
# GULP energy per Si atom -5596.795605 kJ/mol
# Density = 2.214604 g / cm^3
# Si number density = 22.196557 Si / 1000 Ang^3
#
#
#
# Elastic Constant Matrix: (Units=GPa)
#
#
# Indices 1 2 3 4 5 6 
#
# 1 103.2438 22.4229 33.0576 0.0000 -2.4470 0.0000
# 2 22.4229 103.4927 34.8952 0.0000 9.9302 0.0000
# 3 33.0576 34.8952 85.7170 0.0000 4.0899 0.0000
# 4 0.0000 0.0000 0.0000 52.0401 0.0000 -1.3620
# 5 -2.4470 9.9302 4.0899 0.0000 18.2630 0.0000
# 6 0.0000 0.0000 0.0000 -1.3620 0.0000 36.7178
#
#
#
# Elastic Compliance Matrix: (Units=1/GPa)
#
#
# Indices 1 2 3 4 5 6 
#
# 1 0.011334 -0.001432 -0.003940 0.000000 0.003180 0.000000
# 2 -0.001432 0.011876 -0.004008 0.000000 -0.005752 0.000000
# 3 -0.003940 -0.004008 0.014898 0.000000 -0.001685 0.000000
# 4 0.000000 0.000000 0.000000 0.019235 0.000000 0.000713
# 5 0.003180 -0.005752 -0.001685 0.000000 0.058686 0.000000
# 6 0.000000 0.000000 0.000000 0.000713 0.000000 0.027261
#
#
# Mechanical properties :
#
#
# Convention : Reuss Voigt Hill
#
# Bulk Modulus (GPa) = 51.68542 52.57832 52.13187
# Shear Modulus (GPa) = 29.67386 34.87602 32.27494
#
# Velocity S-wave (km/s) = 3.66029 3.96818 3.81734
# Velocity P-wave (km/s) = 6.41868 6.68837 6.55491
#
# Compressibility (1/GPa) = 0.01934782
#
# Stress axis : x y z
#
# Youngs Moduli (GPa) = 88.23273 84.20268 67.12480
#
# Poissons Ratio (x) = 0.12061 0.26444
# Poissons Ratio (y) = 0.12638 0.26903
# Poissons Ratio (z) = 0.34760 0.33748
#
# Static dielectric constant tensor:
#      x y z
#    x 1.829470 0.000000 -0.025900 
#    y 0.000000 1.925630 0.000000 
#    z -0.025900 0.000000 1.826300 
# 
# From -- ./inp_files/175694.got.cif
#   From: 2010.05.17/outbox.cif.g08.bks.cpg/sg15_88_cif.got.tgz:175694.got - 2010.06.03 18:47:42.
