data_PCOD9295633
_publ_section_title
;
Structure prediction by ZEFSAII (Michael W. Deem and Ramdas Pophale) SiO2 
 PCOD9295633
Probable space group: C 2/C
;
_chemical_formula_sum "Si O2"
_cell_formula_units_Z 60
_cell_length_a 10.716192
_cell_length_b 8.859020
_cell_length_c 28.165783
_cell_angle_alpha 90.000000
_cell_angle_beta 103.797446
_cell_angle_gamma 90.000000
_cell_volume 2596.761337
_symmetry_space_group_name_H-M "C 2/C"
_symmetry_group_IT_number 15
_symmetry_cell_setting 'monoclinic'
loop_
_space_group_symop_operation_xyz
x,y,z
-x,y,1/2-z
-x,-y,-z
x,-y,1/2+z
1/2+x,1/2+y,z
1/2-x,1/2+y,1/2-z
1/2-x,1/2-y,-z
1/2+x,1/2-y,1/2+z
loop_
_atom_site_type_symbol
_atom_site_label
_atom_site_fract_x
_atom_site_fract_y
_atom_site_fract_z
Si Si1 0.383102 0.922329 0.537744
Si Si2 0.829120 0.010547 0.286905
Si Si3 0.120586 0.539691 0.829776
Si Si4 0.500000 0.268590 0.750000
Si Si5 0.375524 0.832982 0.800154
Si Si6 0.105007 0.731565 0.924180
Si Si7 0.667792 0.240457 0.567662
Si Si8 0.824993 0.421507 0.900591
O O1 0.358522 0.842695 0.485432
O O2 0.284389 0.851703 0.567050
O O3 0.530894 0.899538 0.566319
O O4 0.360863 0.102174 0.534461
O O5 0.763702 0.020483 0.332879
O O6 0.718894 0.067443 0.240703
O O7 0.876299 0.839985 0.283755
O O8 0.941832 0.126625 0.285652
O O9 0.092750 0.628454 0.875528
O O10 0.015695 0.409087 0.813518
O O11 0.099506 0.660253 0.785387
O O12 0.323870 0.845155 0.849141
O O13 0.215806 0.848746 0.923109
O O14 0.969096 0.803255 0.926978
O O15 0.700491 0.100866 0.605182
#
# Coordination Sequence:
#
# PCOD9295633 Si02
#       8
#     8   8   8   4   8   8   8   8
#     4  10  23  43  66  98 133 175 216 269 337 401
#     4  12  25  43  64  96 127 175 217 272 325 397
#     4  12  23  44  64  90 131 167 221 275 318 391
#     4  12  26  42  62  94 128 170 216 264 334 384
#     4  12  23  46  67  91 135 174 221 270 335 379
#     4  11  22  41  66  96 130 170 217 272 327 382
#     4  10  23  43  67  97 136 171 216 273 334 397
#     4  11  22  43  65  99 129 175 218 272 324 399
#
# _framework density 23.105705
#
# number of rings (size 3 to 8) (size 9 to 14) (size 15 to 20)
#    0.000    0.800    6.667    1.600    1.867    4.267 
#    7.200    2.667    0.000    0.000    0.000    0.000 
#    0.000    0.000    0.000    0.000    0.000    0.000 
#
# Total GULP energy -167865.352447 kJ/mol
# GULP energy per Si atom -5595.511748 kJ/mol
# Density = 2.305312 g / cm^3
# Si number density = 23.105705 Si / 1000 Ang^3
#
#
#
# Elastic Constant Matrix: (Units=GPa)
#
#
# Indices 1 2 3 4 5 6 
#
# 1 154.7934 62.9931 2.8214 0.0000 -45.1260 0.0000
# 2 62.9931 92.5037 4.8885 0.0000 -6.9395 0.0000
# 3 2.8214 4.8885 58.8312 0.0000 -18.6695 0.0000
# 4 0.0000 0.0000 0.0000 30.1361 0.0000 -12.6070
# 5 -45.1260 -6.9395 -18.6695 0.0000 37.4196 0.0000
# 6 0.0000 0.0000 0.0000 -12.6070 0.0000 46.1928
#
#
#
# Elastic Compliance Matrix: (Units=1/GPa)
#
#
# Indices 1 2 3 4 5 6 
#
# 1 0.016911 -0.010237 0.007021 0.000000 0.021998 0.000000
# 2 -0.010237 0.017165 -0.004566 0.000000 -0.011440 0.000000
# 3 0.007021 -0.004566 0.023119 0.000000 0.019154 0.000000
# 4 0.000000 0.000000 0.000000 0.037460 0.000000 0.010224
# 5 0.021998 -0.011440 0.019154 0.000000 0.060687 0.000000
# 6 0.000000 0.000000 0.000000 0.010224 0.000000 0.024439
#
#
# Mechanical properties :
#
#
# Convention : Reuss Voigt Hill
#
# Bulk Modulus (GPa) = 24.02085 49.72603 36.87344
# Shear Modulus (GPa) = 23.89815 38.44470 31.17143
#
# Velocity S-wave (km/s) = 3.21954 4.08347 3.67697
# Velocity P-wave (km/s) = 4.92333 6.61822 5.83267
#
# Compressibility (1/GPa) = 0.04163050
#
# Stress axis : x y z
#
# Youngs Moduli (GPa) = 59.13257 58.25951 43.25474
#
# Poissons Ratio (x) = 0.59640 -0.30367
# Poissons Ratio (y) = 0.60533 0.19749
# Poissons Ratio (z) = -0.41514 0.26599
#
# Static dielectric constant tensor:
#      x y z
#    x 1.870250 0.000000 -0.020360 
#    y 0.000000 1.840130 0.000000 
#    z -0.020360 0.000000 1.923840 
# 
# From -- ./inp_files/291592.got.cif
#   From: 2010.05.17/outbox.cif.g08.bks.cpg/sg15_146_cif.got.tgz:291592.got - 2010.06.03 18:47:42.
