data_PCOD9295473
_publ_section_title
;
Structure prediction by ZEFSAII (Michael W. Deem and Ramdas Pophale) SiO2 
 PCOD9295473
Probable space group: C 2/C
;
_chemical_formula_sum "Si O2"
_cell_formula_units_Z 32
_cell_length_a 28.447560
_cell_length_b 5.178034
_cell_length_c 18.792349
_cell_angle_alpha 90.000000
_cell_angle_beta 27.192940
_cell_angle_gamma 90.000000
_cell_volume 1265.016233
_symmetry_space_group_name_H-M "C 2/C"
_symmetry_group_IT_number 15
_symmetry_cell_setting 'monoclinic'
loop_
_space_group_symop_operation_xyz
x,y,z
-x,y,1/2-z
-x,-y,-z
x,-y,1/2+z
1/2+x,1/2+y,z
1/2-x,1/2+y,1/2-z
1/2-x,1/2-y,-z
1/2+x,1/2-y,1/2+z
loop_
_atom_site_type_symbol
_atom_site_label
_atom_site_fract_x
_atom_site_fract_y
_atom_site_fract_z
Si Si1 0.745644 0.541332 0.797373
Si Si2 0.096387 0.238699 0.174276
Si Si3 0.876723 0.251199 0.920400
Si Si4 0.056344 0.255071 0.392842
O O1 0.797852 0.291398 0.687218
O O2 0.828526 0.693854 0.733355
O O3 0.660769 0.378419 0.956049
O O4 0.161050 0.469229 0.052193
O O5 0.058368 0.277486 0.304982
O O6 0.000000 0.205197 0.250000
O O7 0.153332 0.965970 0.095578
O O8 0.000000 0.288108 0.750000
O O9 0.000000 0.500000 0.500000
O O10 0.000000 0.000000 0.500000
#
# Coordination Sequence:
#
# PCOD9295473 Si02
#       4
#     8   8   8   8
#     4  12  28  46  75 114 158 202 258 321 395 462
#     4  10  23  42  73 103 147 200 253 307 388 445
#     4  10  23  42  73 103 149 197 255 306 386 451
#     4  12  28  46  75 114 157 200 260 318 391 466
#
# _framework density 25.296118
#
# number of rings (size 3 to 8) (size 9 to 14) (size 15 to 20)
#    0.000    1.000    0.000    4.500   21.000    2.000 
#    0.000    0.000    0.000    0.000    0.000    0.000 
#    0.000    0.000    0.000    0.000    0.000    0.000 
#
# Total GULP energy -89323.184739 kJ/mol
# GULP energy per Si atom -5582.699046 kJ/mol
# Density = 2.523854 g / cm^3
# Si number density = 25.296118 Si / 1000 Ang^3
#
#
#
# Elastic Constant Matrix: (Units=GPa)
#
#
# Indices 1 2 3 4 5 6 
#
# 1 109.3818 0.6822 33.3274 -0.0065 5.3248 0.0207
# 2 0.6822 189.3673 38.8283 -0.0312 3.6956 0.0926
# 3 33.3274 38.8283 113.7100 -0.0525 14.6512 0.0139
# 4 -0.0065 -0.0312 -0.0525 51.9809 0.0275 13.3794
# 5 5.3248 3.6956 14.6512 0.0275 46.2406 -0.0102
# 6 0.0207 0.0926 0.0139 13.3794 -0.0102 18.7073
#
#
#
# Elastic Compliance Matrix: (Units=1/GPa)
#
#
# Indices 1 2 3 4 5 6 
#
# 1 0.010107 0.000612 -0.003143 0.000002 -0.000217 -0.000013
# 2 0.000612 0.005717 -0.002151 0.000010 0.000154 -0.000035
# 3 -0.003143 -0.002151 0.010823 0.000012 -0.002895 -0.000004
# 4 0.000002 0.000010 0.000012 0.023578 -0.000023 -0.016863
# 5 -0.000217 0.000154 -0.002895 -0.000023 0.022556 0.000030
# 6 -0.000013 -0.000035 -0.000004 -0.016863 0.000030 0.065516
#
#
# Mechanical properties :
#
#
# Convention : Reuss Voigt Hill
#
# Bulk Modulus (GPa) = 57.86395 62.01498 59.93947
# Shear Modulus (GPa) = 32.58972 46.02716 39.30844
#
# Velocity S-wave (km/s) = 3.59322 4.27023 3.94627
# Velocity P-wave (km/s) = 6.33556 6.99156 6.67163
#
# Compressibility (1/GPa) = 0.01728192
#
# Stress axis : x y z
#
# Youngs Moduli (GPa) = 98.94356 174.92695 92.39327
#
# Poissons Ratio (x) = -0.10712 0.29043
# Poissons Ratio (y) = -0.06059 0.19877
# Poissons Ratio (z) = 0.31102 0.37634
#
# Static dielectric constant tensor:
#      x y z
#    x 1.958680 -0.000090 0.088610 
#    y -0.000090 2.084900 0.000140 
#    z 0.088610 0.000140 1.874780 
# 
# From -- ./inp_files/223500.got.cif
#   From: 2010.05.17/outbox.cif.g08.bks.cpg/sg15_112_cif.got.tgz:223500.got - 2010.06.03 18:47:42.
