data_PCOD9295326
_publ_section_title
;
Structure prediction by ZEFSAII (Michael W. Deem and Ramdas Pophale) SiO2 
 PCOD9295326
Probable space group: C 2/C
;
_chemical_formula_sum "Si O2"
_cell_formula_units_Z 40
_cell_length_a 9.679230
_cell_length_b 16.869946
_cell_length_c 11.991384
_cell_angle_alpha 90.000000
_cell_angle_beta 74.186693
_cell_angle_gamma 90.000000
_cell_volume 1883.947222
_symmetry_space_group_name_H-M "C 2/C"
_symmetry_group_IT_number 15
_symmetry_cell_setting 'monoclinic'
loop_
_space_group_symop_operation_xyz
x,y,z
-x,y,1/2-z
-x,-y,-z
x,-y,1/2+z
1/2+x,1/2+y,z
1/2-x,1/2+y,1/2-z
1/2-x,1/2-y,-z
1/2+x,1/2-y,1/2+z
loop_
_atom_site_type_symbol
_atom_site_label
_atom_site_fract_x
_atom_site_fract_y
_atom_site_fract_z
Si Si1 0.841059 0.715111 0.822787
Si Si2 0.637084 0.852495 0.952720
Si Si3 0.164621 0.543306 0.245237
Si Si4 0.329022 0.602259 0.790153
Si Si5 0.692024 0.838564 0.536390
O O1 0.756107 0.789194 0.890205
O O2 0.744832 0.679505 0.746837
O O3 0.000000 0.737585 0.750000
O O4 0.859413 0.648787 0.915165
O O5 0.665651 0.929418 0.873925
O O6 0.476972 0.829701 0.950929
O O7 0.273209 0.470266 0.226292
O O8 0.205394 0.616653 0.153492
O O9 0.000000 0.521032 0.250000
O O10 0.500000 0.606791 0.750000
O O11 0.268030 0.603877 0.929422
O O12 0.750000 0.750000 0.500000
#
# Coordination Sequence:
#
# PCOD9295326 Si02
#       5
#     8   8   8   8   8
#     4  11  22  42  70  98 132 175 220 274 331 395
#     4  10  23  42  68  99 130 174 221 273 327 404
#     4  10  25  43  67  94 133 175 224 267 337 401
#     4  12  26  43  65  97 136 174 224 279 335 389
#     4  11  23  44  71  97 133 178 221 276 334 398
#
# _framework density 21.232016999999999
#
# number of rings (size 3 to 8) (size 9 to 14) (size 15 to 20)
#    0.000    1.200    2.000    3.000    2.800    4.800 
#    3.600    0.000    0.000    0.000    0.000    0.000 
#    0.000    0.000    0.000    0.000    0.000    0.000 
#
# Total GULP energy -111648.295116 kJ/mol
# GULP energy per Si atom -5582.414756 kJ/mol
# Density = 2.118369 g / cm^3
# Si number density = 21.232017 Si / 1000 Ang^3
#
#
#
# Elastic Constant Matrix: (Units=GPa)
#
#
# Indices 1 2 3 4 5 6 
#
# 1 140.7427 50.8837 28.6725 0.0000 -29.8987 0.0000
# 2 50.8837 66.0606 5.6040 0.0000 -12.0409 0.0000
# 3 28.6725 5.6040 74.0893 0.0000 -14.8188 0.0000
# 4 0.0000 0.0000 0.0000 35.6043 0.0000 6.1966
# 5 -29.8987 -12.0409 -14.8188 0.0000 32.1504 0.0000
# 6 0.0000 0.0000 0.0000 6.1966 0.0000 10.8652
#
#
#
# Elastic Compliance Matrix: (Units=1/GPa)
#
#
# Indices 1 2 3 4 5 6 
#
# 1 0.011895 -0.007667 -0.002627 0.000000 0.006979 0.000000
# 2 -0.007667 0.021189 0.001681 0.000000 0.001580 0.000000
# 3 -0.002627 0.001681 0.015448 0.000000 0.005306 0.000000
# 4 0.000000 0.000000 0.000000 0.031182 0.000000 -0.017783
# 5 0.006979 0.001580 0.005306 0.000000 0.040632 0.000000
# 6 0.000000 0.000000 0.000000 -0.017783 0.000000 0.102179
#
#
# Mechanical properties :
#
#
# Convention : Reuss Voigt Hill
#
# Bulk Modulus (GPa) = 31.94503 50.13480 41.03991
# Shear Modulus (GPa) = 19.98500 28.77282 24.37891
#
# Velocity S-wave (km/s) = 3.07134 3.68525 3.39221
# Velocity P-wave (km/s) = 5.25888 6.46314 5.89186
#
# Compressibility (1/GPa) = 0.03130377
#
# Stress axis : x y z
#
# Youngs Moduli (GPa) = 84.06809 47.19475 64.73203
#
# Poissons Ratio (x) = 0.36186 0.17008
# Poissons Ratio (y) = 0.64457 -0.10879
# Poissons Ratio (z) = 0.22089 -0.07931
#
# Static dielectric constant tensor:
#      x y z
#    x 1.711820 0.000000 0.010030 
#    y 0.000000 1.774010 0.000000 
#    z 0.010030 0.000000 1.821610 
# 
# From -- ./inp_files/76674.got.cif
#   From: 2010.05.17/outbox.cif.g08.bks.cpg/sg15_39_cif.got.tgz:76674.got - 2010.06.03 18:47:42.
