data_PCOD9295433
_publ_section_title
;
Structure prediction by ZEFSAII (Michael W. Deem and Ramdas Pophale) SiO2 
 PCOD9295433
Probable space group: C 2/C
;
_chemical_formula_sum "Si O2"
_cell_formula_units_Z 60
_cell_length_a 15.610959
_cell_length_b 12.798112
_cell_length_c 16.964855
_cell_angle_alpha 90.000000
_cell_angle_beta 53.668580
_cell_angle_gamma 90.000000
_cell_volume 2730.530250
_symmetry_space_group_name_H-M "C 2/C"
_symmetry_group_IT_number 15
_symmetry_cell_setting 'monoclinic'
loop_
_space_group_symop_operation_xyz
x,y,z
-x,y,1/2-z
-x,-y,-z
x,-y,1/2+z
1/2+x,1/2+y,z
1/2-x,1/2+y,1/2-z
1/2-x,1/2-y,-z
1/2+x,1/2-y,1/2+z
loop_
_atom_site_type_symbol
_atom_site_label
_atom_site_fract_x
_atom_site_fract_y
_atom_site_fract_z
Si Si1 0.374227 0.720489 0.442485
Si Si2 0.406781 0.491990 0.986019
Si Si3 0.704684 0.014970 0.703350
Si Si4 0.539622 0.169272 0.457311
Si Si5 0.832917 0.450710 0.103512
Si Si6 0.500000 0.137006 0.750000
Si Si7 0.317226 0.344110 0.424643
Si Si8 0.592916 0.194459 0.252130
O O1 0.250000 0.750000 0.500000
O O2 0.411257 0.600116 0.418467
O O3 0.407507 0.751548 0.512383
O O4 0.442080 0.791509 0.346238
O O5 0.299095 0.464241 0.092258
O O6 0.500000 0.500000 0.000000
O O7 0.391045 0.600657 0.948463
O O8 0.726790 0.052155 0.780340
O O9 0.593941 0.069188 0.738501
O O10 0.686002 0.890115 0.710456
O O11 0.420859 0.140231 0.548452
O O12 0.547254 0.208578 0.364030
O O13 0.605292 0.060625 0.429193
O O14 0.759969 0.433900 0.067583
O O15 0.250000 0.250000 0.500000
O O16 0.372354 0.293774 0.317707
O O17 0.500000 0.144476 0.250000
#
# Coordination Sequence:
#
# PCOD9295433 Si02
#       8
#     8   8   8   8   8   4   8   8
#     4  12  26  47  76 106 152 200 252 309 395 469
#     4  12  30  50  71 107 159 197 248 318 396 466
#     4  11  23  46  76 106 145 194 256 320 378 453
#     4  10  23  42  71 108 143 184 245 324 374 449
#     4  10  23  42  71 108 141 181 249 319 372 445
#     4  12  24  46  78 108 144 202 258 316 378 470
#     4  12  26  45  72 102 145 201 255 307 381 459
#     4  11  24  40  74 106 139 184 252 314 377 434
#
# _framework density 21.973755000000001
#
# number of rings (size 3 to 8) (size 9 to 14) (size 15 to 20)
#    0.000    0.800    4.667    1.600    5.600    0.000 
#    8.400    0.000    0.000    0.000    0.000    0.000 
#    0.000    0.000    0.000    0.000    0.000    0.000 
#
# Total GULP energy -167747.526614 kJ/mol
# GULP energy per Si atom -5591.584220 kJ/mol
# Density = 2.192374 g / cm^3
# Si number density = 21.973755 Si / 1000 Ang^3
#
#
#
# Elastic Constant Matrix: (Units=GPa)
#
#
# Indices 1 2 3 4 5 6 
#
# 1 121.0469 39.9959 25.7368 0.0000 18.8502 0.0000
# 2 39.9959 100.2840 32.1575 0.0000 8.7249 0.0000
# 3 25.7368 32.1575 104.3656 0.0000 13.6452 0.0000
# 4 0.0000 0.0000 0.0000 26.3162 0.0000 9.9101
# 5 18.8502 8.7249 13.6452 0.0000 38.5047 0.0000
# 6 0.0000 0.0000 0.0000 9.9101 0.0000 37.5746
#
#
#
# Elastic Compliance Matrix: (Units=1/GPa)
#
#
# Indices 1 2 3 4 5 6 
#
# 1 0.010200 -0.003425 -0.000953 0.000000 -0.003880 0.000000
# 2 -0.003425 0.012283 -0.002931 0.000000 -0.000068 0.000000
# 3 -0.000953 -0.002931 0.011086 0.000000 -0.002798 0.000000
# 4 0.000000 0.000000 0.000000 0.042190 0.000000 -0.011127
# 5 -0.003880 -0.000068 -0.002798 0.000000 0.028877 0.000000
# 6 0.000000 0.000000 0.000000 -0.011127 0.000000 0.029548
#
#
# Mechanical properties :
#
#
# Convention : Reuss Voigt Hill
#
# Bulk Modulus (GPa) = 52.76800 57.94187 55.35493
# Shear Modulus (GPa) = 32.23336 35.66619 33.94978
#
# Velocity S-wave (km/s) = 3.83417 4.03318 3.93493
# Velocity P-wave (km/s) = 6.60813 6.93647 6.77429
#
# Compressibility (1/GPa) = 0.01895088
#
# Stress axis : x y z
#
# Youngs Moduli (GPa) = 98.04296 81.41004 90.20640
#
# Poissons Ratio (x) = 0.27882 0.08594
# Poissons Ratio (y) = 0.33578 0.26443
# Poissons Ratio (z) = 0.09341 0.23864
#
# Static dielectric constant tensor:
#      x y z
#    x 1.813340 0.000000 -0.027520 
#    y 0.000000 1.859570 0.000000 
#    z -0.027520 0.000000 1.783710 
# 
# From -- ./inp_files/154236.got.cif
#   From: 2010.05.17/outbox.cif.g08.bks.cpg/sg15_78_cif.got.tgz:154236.got - 2010.06.03 18:47:42.
