data_PCOD9295337
_publ_section_title
;
Structure prediction by ZEFSAII (Michael W. Deem and Ramdas Pophale) SiO2 
 PCOD9295337
Probable space group: C 2/C
;
_chemical_formula_sum "Si O2"
_cell_formula_units_Z 44
_cell_length_a 26.209142
_cell_length_b 7.194969
_cell_length_c 8.685859
_cell_angle_alpha 90.000000
_cell_angle_beta 95.855578
_cell_angle_gamma 90.000000
_cell_volume 1629.380513
_symmetry_space_group_name_H-M "C 2/C"
_symmetry_group_IT_number 15
_symmetry_cell_setting 'monoclinic'
loop_
_space_group_symop_operation_xyz
x,y,z
-x,y,1/2-z
-x,-y,-z
x,-y,1/2+z
1/2+x,1/2+y,z
1/2-x,1/2+y,1/2-z
1/2-x,1/2-y,-z
1/2+x,1/2-y,1/2+z
loop_
_atom_site_type_symbol
_atom_site_label
_atom_site_fract_x
_atom_site_fract_y
_atom_site_fract_z
Si Si1 0.075419 0.382305 0.032157
Si Si2 0.915365 0.957764 0.173813
Si Si3 0.818025 0.745920 0.856094
Si Si4 0.287905 0.890918 0.691333
Si Si5 0.000000 0.258417 0.250000
Si Si6 0.869095 0.225909 0.952598
O O1 0.121154 0.267191 0.129647
O O2 0.195232 0.399952 0.281359
O O3 0.027782 0.384658 0.132306
O O4 0.100227 0.581901 0.999280
O O5 0.958463 0.114254 0.171053
O O6 0.902349 0.887797 0.338485
O O7 0.865950 0.065701 0.082636
O O8 0.934597 0.764070 0.105500
O O9 0.773498 0.893513 0.815189
O O10 0.805272 0.680452 0.029084
O O11 0.318640 0.787595 0.839671
#
# Coordination Sequence:
#
# PCOD9295337 Si02
#       6
#     8   8   8   8   4   8
#     4  11  26  48  70 105 150 193 243 303 367 433
#     4  12  26  49  73 109 144 188 253 301 366 442
#     4  10  23  42  69 103 144 188 245 290 367 437
#     4  10  23  43  70 106 142 192 233 299 368 439
#     4  12  28  48  76 110 144 198 248 306 372 436
#     4  11  27  46  77 105 150 191 242 307 373 439
#
# _framework density 27.00413
#
# number of rings (size 3 to 8) (size 9 to 14) (size 15 to 20)
#    0.000    1.091    3.636    0.545    5.091    3.636 
#    0.000    0.000    0.000    0.000    0.000    0.000 
#    0.000    0.000    0.000    0.000    0.000    0.000 
#
# Total GULP energy -123004.560163 kJ/mol
# GULP energy per Si atom -5591.116371 kJ/mol
# Density = 2.694267 g / cm^3
# Si number density = 27.004130 Si / 1000 Ang^3
#
#
#
# Elastic Constant Matrix: (Units=GPa)
#
#
# Indices 1 2 3 4 5 6 
#
# 1 102.6329 17.8074 6.1728 0.0000 1.6053 0.0000
# 2 17.8074 165.9896 21.3093 0.0000 -8.4531 0.0000
# 3 6.1728 21.3093 72.4292 0.0000 -8.4979 0.0000
# 4 0.0000 0.0000 0.0000 45.9602 0.0000 10.7972
# 5 1.6053 -8.4531 -8.4979 0.0000 26.3356 0.0000
# 6 0.0000 0.0000 0.0000 10.7972 0.0000 32.0660
#
#
#
# Elastic Compliance Matrix: (Units=1/GPa)
#
#
# Indices 1 2 3 4 5 6 
#
# 1 0.009984 -0.001043 -0.000680 0.000000 -0.001163 0.000000
# 2 -0.001043 0.006425 -0.001613 0.000000 0.001605 0.000000
# 3 -0.000680 -0.001613 0.014845 0.000000 0.004314 0.000000
# 4 0.000000 0.000000 0.000000 0.023627 0.000000 -0.007956
# 5 -0.001163 0.001605 0.004314 0.000000 0.039950 0.000000
# 6 0.000000 0.000000 0.000000 -0.007956 0.000000 0.033864
#
#
# Mechanical properties :
#
#
# Convention : Reuss Voigt Hill
#
# Bulk Modulus (GPa) = 40.68168 47.95899 44.32034
# Shear Modulus (GPa) = 34.82824 40.58985 37.70904
#
# Velocity S-wave (km/s) = 3.59519 3.88119 3.74092
# Velocity P-wave (km/s) = 5.68608 6.15494 5.92515
#
# Compressibility (1/GPa) = 0.02458109
#
# Stress axis : x y z
#
# Youngs Moduli (GPa) = 100.16503 155.63717 67.36138
#
# Poissons Ratio (x) = 0.16231 0.04584
# Poissons Ratio (y) = 0.10446 0.10866
# Poissons Ratio (z) = 0.06816 0.25106
#
# Static dielectric constant tensor:
#      x y z
#    x 2.147280 0.000000 0.031210 
#    y 0.000000 2.111460 0.000000 
#    z 0.031210 0.000000 2.203300 
# 
# From -- ./inp_files/116526.got.cif
#   From: 2010.05.17/outbox.cif.g08.bks.cpg/sg15_59_cif.got.tgz:116526.got - 2010.06.03 18:47:42.
