data_PCOD9295673
_publ_section_title
;
Structure prediction by ZEFSAII (Michael W. Deem and Ramdas Pophale) SiO2 
 PCOD9295673
Probable space group: C 2/C
;
_chemical_formula_sum "Si O2"
_cell_formula_units_Z 40
_cell_length_a 11.853173
_cell_length_b 7.951064
_cell_length_c 17.735631
_cell_angle_alpha 90.000000
_cell_angle_beta 76.391337
_cell_angle_gamma 90.000000
_cell_volume 1624.573875
_symmetry_space_group_name_H-M "C 2/C"
_symmetry_group_IT_number 15
_symmetry_cell_setting 'monoclinic'
loop_
_space_group_symop_operation_xyz
x,y,z
-x,y,1/2-z
-x,-y,-z
x,-y,1/2+z
1/2+x,1/2+y,z
1/2-x,1/2+y,1/2-z
1/2-x,1/2-y,-z
1/2+x,1/2-y,1/2+z
loop_
_atom_site_type_symbol
_atom_site_label
_atom_site_fract_x
_atom_site_fract_y
_atom_site_fract_z
Si Si1 0.369812 0.065027 0.264323
Si Si2 0.519086 0.484730 0.336730
Si Si3 0.839127 0.702396 0.644088
Si Si4 0.766142 0.847757 0.112050
Si Si5 0.281093 0.485089 0.452503
O O1 0.500000 0.130378 0.250000
O O2 0.270426 0.197301 0.302333
O O3 0.352375 0.969592 0.188515
O O4 0.347715 0.913527 0.327362
O O5 0.500000 0.493644 0.250000
O O6 0.555271 0.670696 0.360257
O O7 0.626150 0.368800 0.347469
O O8 0.403328 0.430698 0.397774
O O9 0.812755 0.648077 0.562713
O O10 0.749406 0.664294 0.081335
O O11 0.787432 0.974484 0.039223
#
# Coordination Sequence:
#
# PCOD9295673 Si02
#       5
#     8   8   8   8   8
#     4  11  23  41  62  90 124 164 212 260 310 370
#     4  11  23  41  65  92 127 170 213 263 314 372
#     4  11  24  39  63  93 123 164 214 260 312 376
#     4  10  23  43  67  95 129 170 212 256 318 381
#     4  11  23  43  65  94 134 166 206 265 316 376
#
# _framework density 24.621841
#
# number of rings (size 3 to 8) (size 9 to 14) (size 15 to 20)
#    0.000    1.200    0.000    7.200    0.000    8.800 
#    0.000   12.000    0.000    0.000    0.000    0.000 
#    0.000    0.000    0.000    0.000    0.000    0.000 
#
# Total GULP energy -112099.886335 kJ/mol
# GULP energy per Si atom -5604.994317 kJ/mol
# Density = 2.456580 g / cm^3
# Si number density = 24.621841 Si / 1000 Ang^3
#
#
#
# Elastic Constant Matrix: (Units=GPa)
#
#
# Indices 1 2 3 4 5 6 
#
# 1 95.4895 13.9708 21.2119 0.0000 19.0878 0.0000
# 2 13.9708 85.5803 -17.5649 0.0000 16.2424 0.0000
# 3 21.2119 -17.5649 94.3497 0.0000 21.5003 0.0000
# 4 0.0000 0.0000 0.0000 31.6633 0.0000 9.3461
# 5 19.0878 16.2424 21.5003 0.0000 32.9225 0.0000
# 6 0.0000 0.0000 0.0000 9.3461 0.0000 44.0478
#
#
#
# Elastic Compliance Matrix: (Units=1/GPa)
#
#
# Indices 1 2 3 4 5 6 
#
# 1 0.012105 -0.001363 -0.001797 0.000000 -0.005172 0.000000
# 2 -0.001363 0.014928 0.005385 0.000000 -0.010091 0.000000
# 3 -0.001797 0.005385 0.014537 0.000000 -0.011109 0.000000
# 4 0.000000 0.000000 0.000000 0.033693 0.000000 -0.007149
# 5 -0.005172 -0.010091 -0.011109 0.000000 0.045606 0.000000
# 6 0.000000 0.000000 0.000000 -0.007149 0.000000 0.024219
#
#
# Mechanical properties :
#
#
# Convention : Reuss Voigt Hill
#
# Bulk Modulus (GPa) = 21.72945 34.51722 28.12334
# Shear Modulus (GPa) = 32.05602 38.91349 35.48476
#
# Velocity S-wave (km/s) = 3.61215 3.97980 3.80042
# Velocity P-wave (km/s) = 5.12262 5.93024 5.54116
#
# Compressibility (1/GPa) = 0.04602050
#
# Stress axis : x y z
#
# Youngs Moduli (GPa) = 82.61189 66.98841 68.79133
#
# Poissons Ratio (x) = 0.09131 0.12358
# Poissons Ratio (y) = 0.11261 -0.37045
# Poissons Ratio (z) = 0.14841 -0.36074
#
# Static dielectric constant tensor:
#      x y z
#    x 1.918370 0.000000 0.063070 
#    y 0.000000 2.013250 0.000000 
#    z 0.063070 0.000000 1.933150 
# 
# From -- ./inp_files/195070.got.cif
#   From: 2010.05.17/outbox.cif.g08.bks.cpg/sg15_98_cif.got.tgz:195070.got - 2010.06.03 18:47:42.
