data_PCOD9295526
_publ_section_title
;
Structure prediction by ZEFSAII (Michael W. Deem and Ramdas Pophale) SiO2 
 PCOD9295526
Probable space group: C 2/C
;
_chemical_formula_sum "Si O2"
_cell_formula_units_Z 32
_cell_length_a 20.866172
_cell_length_b 7.154953
_cell_length_c 14.852449
_cell_angle_alpha 90.000000
_cell_angle_beta 45.168939
_cell_angle_gamma 90.000000
_cell_volume 1572.567903
_symmetry_space_group_name_H-M "C 2/C"
_symmetry_group_IT_number 15
_symmetry_cell_setting 'monoclinic'
loop_
_space_group_symop_operation_xyz
x,y,z
-x,y,1/2-z
-x,-y,-z
x,-y,1/2+z
1/2+x,1/2+y,z
1/2-x,1/2+y,1/2-z
1/2-x,1/2-y,-z
1/2+x,1/2-y,1/2+z
loop_
_atom_site_type_symbol
_atom_site_label
_atom_site_fract_x
_atom_site_fract_y
_atom_site_fract_z
Si Si1 0.897320 0.762753 0.358355
Si Si2 0.625245 0.010905 0.956298
Si Si3 0.203727 0.111577 0.116796
Si Si4 0.070672 0.587202 0.806267
O O1 0.877461 0.698127 0.479946
O O2 0.899682 0.577062 0.292334
O O3 0.000000 0.837525 0.250000
O O4 0.826396 0.914867 0.395062
O O5 0.537908 0.901236 0.081941
O O6 0.606077 0.036743 0.870627
O O7 0.721306 0.918709 0.880716
O O8 0.115223 0.218418 0.236916
O O9 0.250000 0.250000 0.000000
#
# Coordination Sequence:
#
# PCOD9295526 Si02
#       4
#     8   8   8   8
#     4  10  23  43  63  92 129 165 212 261 317 382
#     4  10  23  45  65  91 134 168 209 268 315 379
#     4  12  25  37  70  93 125 169 215 262 321 379
#     4  10  24  45  63  94 131 168 211 265 318 380
#
# _framework density 20.348883000000001
#
# number of rings (size 3 to 8) (size 9 to 14) (size 15 to 20)
#    0.000    1.500    2.500    0.750    7.000    0.000 
#    0.000    3.750    0.000    0.000    0.000    0.000 
#    0.000    0.000    0.000    0.000    0.000    0.000 
#
# Total GULP energy -89389.050302 kJ/mol
# GULP energy per Si atom -5586.815644 kJ/mol
# Density = 2.030257 g / cm^3
# Si number density = 20.348883 Si / 1000 Ang^3
#
#
#
# Elastic Constant Matrix: (Units=GPa)
#
#
# Indices 1 2 3 4 5 6 
#
# 1 133.2277 37.8460 23.0261 -0.0003 -6.5355 -0.0001
# 2 37.8460 63.7682 24.6785 -0.0010 -13.6720 0.0032
# 3 23.0261 24.6785 35.2684 -0.0002 4.2726 0.0001
# 4 -0.0003 -0.0010 -0.0002 25.5455 0.0000 -9.2085
# 5 -6.5355 -13.6720 4.2726 0.0000 38.1569 0.0002
# 6 -0.0001 0.0032 0.0001 -9.2085 0.0002 22.6758
#
#
#
# Elastic Compliance Matrix: (Units=1/GPa)
#
#
# Indices 1 2 3 4 5 6 
#
# 1 0.009263 -0.004168 -0.003185 0.000000 0.000450 0.000001
# 2 -0.004168 0.027435 -0.017822 -0.000001 0.011112 -0.000004
# 3 -0.003185 -0.017822 0.044346 0.000000 -0.011897 0.000003
# 4 0.000000 -0.000001 0.000000 0.045859 0.000000 0.018623
# 5 0.000450 0.011112 -0.011897 0.000000 0.031598 -0.000002
# 6 0.000001 -0.000004 0.000003 0.018623 -0.000002 0.051663
#
#
# Mechanical properties :
#
#
# Convention : Reuss Voigt Hill
#
# Bulk Modulus (GPa) = 32.58154 44.81839 38.69996
# Shear Modulus (GPa) = 18.46752 27.05653 22.76203
#
# Velocity S-wave (km/s) = 3.01582 3.65037 3.34816
# Velocity P-wave (km/s) = 5.30783 6.31187 5.83150
#
# Compressibility (1/GPa) = 0.03069223
#
# Stress axis : x y z
#
# Youngs Moduli (GPa) = 107.96140 36.44943 22.55008
#
# Poissons Ratio (x) = 0.15193 0.07183
# Poissons Ratio (y) = 0.45000 0.40189
# Poissons Ratio (z) = 0.34388 0.64961
#
# Static dielectric constant tensor:
#      x y z
#    x 1.719200 0.000000 -0.020250 
#    y 0.000000 1.710110 0.000000 
#    z -0.020250 0.000000 1.744510 
# 
# From -- ./inp_files/165918.got.cif
#   From: 2010.05.17/outbox.cif.g08.bks.cpg/sg15_83_cif.got.tgz:165918.got - 2010.06.03 18:47:42.
