data_PCOD9295537
_publ_section_title
;
Structure prediction by ZEFSAII (Michael W. Deem and Ramdas Pophale) SiO2 
 PCOD9295537
Probable space group: C 2/C
;
_chemical_formula_sum "Si O2"
_cell_formula_units_Z 44
_cell_length_a 11.939117
_cell_length_b 7.835789
_cell_length_c 30.413124
_cell_angle_alpha 90.000000
_cell_angle_beta 142.241684
_cell_angle_gamma 90.000000
_cell_volume 1742.219839
_symmetry_space_group_name_H-M "C 2/C"
_symmetry_group_IT_number 15
_symmetry_cell_setting 'monoclinic'
loop_
_space_group_symop_operation_xyz
x,y,z
-x,y,1/2-z
-x,-y,-z
x,-y,1/2+z
1/2+x,1/2+y,z
1/2-x,1/2+y,1/2-z
1/2-x,1/2-y,-z
1/2+x,1/2-y,1/2+z
loop_
_atom_site_type_symbol
_atom_site_label
_atom_site_fract_x
_atom_site_fract_y
_atom_site_fract_z
Si Si1 0.125064 0.552042 0.831375
Si Si2 0.157690 0.323965 0.720119
Si Si3 0.599622 0.488436 0.143356
Si Si4 0.293930 0.061708 0.491731
Si Si5 0.823589 0.599699 0.396901
Si Si6 0.500000 0.597430 0.750000
O O1 0.274145 0.426575 0.855381
O O2 0.259962 0.704733 0.884009
O O3 0.000000 0.592772 0.750000
O O4 0.987876 0.480689 0.825200
O O5 0.351862 0.393371 0.798857
O O6 0.158594 0.199487 0.679086
O O7 0.069243 0.210566 0.731157
O O8 0.399811 0.470007 0.061723
O O9 0.250000 0.250000 0.500000
O O10 0.482058 0.965698 0.562339
O O11 0.308464 0.047423 0.443225
O O12 0.667732 0.513749 0.319190
#
# Coordination Sequence:
#
# PCOD9295537 Si02
#       6
#     8   8   8   8   8   4
#     4  10  23  43  64 104 142 175 240 309 349 419
#     4  11  24  39  70 105 142 182 244 308 355 425
#     4  11  24  42  68 103 139 189 241 291 366 432
#     4  11  26  45  68 101 146 190 240 290 370 445
#     4  11  25  43  71 101 141 191 236 298 369 422
#     4  12  20  44  72 100 142 184 242 312 352 416
#
# _framework density 25.255137000000001
#
# number of rings (size 3 to 8) (size 9 to 14) (size 15 to 20)
#    0.000    1.091    5.455    1.091    7.636    2.182 
#    0.000    1.818    0.000    0.000    0.000    0.000 
#    0.000    0.000    0.000    0.000    0.000    0.000 
#
# Total GULP energy -122664.350401 kJ/mol
# GULP energy per Si atom -5575.652291 kJ/mol
# Density = 2.519765 g / cm^3
# Si number density = 25.255137 Si / 1000 Ang^3
#
#
#
# Elastic Constant Matrix: (Units=GPa)
#
#
# Indices 1 2 3 4 5 6 
#
# 1 135.2381 21.6852 45.4775 0.0000 32.7103 0.0000
# 2 21.6852 94.4985 23.2572 0.0000 26.7643 0.0000
# 3 45.4775 23.2572 95.9552 0.0000 30.6564 0.0000
# 4 0.0000 0.0000 0.0000 63.9263 0.0000 5.6677
# 5 32.7103 26.7643 30.6564 0.0000 46.1164 0.0000
# 6 0.0000 0.0000 0.0000 5.6677 0.0000 50.3946
#
#
#
# Elastic Compliance Matrix: (Units=1/GPa)
#
#
# Indices 1 2 3 4 5 6 
#
# 1 0.009563 -0.000120 -0.002994 0.000000 -0.004723 0.000000
# 2 -0.000120 0.012729 -0.000883 0.000000 -0.006715 0.000000
# 3 -0.002994 -0.000883 0.014236 0.000000 -0.006827 0.000000
# 4 0.000000 0.000000 0.000000 0.015801 0.000000 -0.001777
# 5 -0.004723 -0.006715 -0.006827 0.000000 0.033470 0.000000
# 6 0.000000 0.000000 0.000000 -0.001777 0.000000 0.020043
#
#
# Mechanical properties :
#
#
# Convention : Reuss Voigt Hill
#
# Bulk Modulus (GPa) = 35.04651 56.28128 45.66389
# Shear Modulus (GPa) = 40.53613 47.77226 44.15419
#
# Velocity S-wave (km/s) = 4.01067 4.35396 4.18583
# Velocity P-wave (km/s) = 5.94596 6.89995 6.44064
#
# Compressibility (1/GPa) = 0.02853351
#
# Stress axis : x y z
#
# Youngs Moduli (GPa) = 104.57156 78.56102 70.24519
#
# Poissons Ratio (x) = 0.00942 0.21034
# Poissons Ratio (y) = 0.01254 0.06202
# Poissons Ratio (z) = 0.31312 0.06936
#
# Static dielectric constant tensor:
#      x y z
#    x 2.128770 0.000000 -0.041800 
#    y 0.000000 2.184520 0.000000 
#    z -0.041800 0.000000 2.067820 
# 
# From -- ./inp_files/294916.got.cif
#   From: 2010.05.17/outbox.cif.g08.bks.cpg/sg15_148_cif.got.tgz:294916.got - 2010.06.03 18:47:42.
