data_PCOD9295314
_publ_section_title
;
Structure prediction by ZEFSAII (Michael W. Deem and Ramdas Pophale) SiO2 
 PCOD9295314
Probable space group: C 2/C
;
_chemical_formula_sum "Si O2"
_cell_formula_units_Z 48
_cell_length_a 17.189970
_cell_length_b 10.908578
_cell_length_c 25.990367
_cell_angle_alpha 90.000000
_cell_angle_beta 150.584576
_cell_angle_gamma 90.000000
_cell_volume 2393.643369
_symmetry_space_group_name_H-M "C 2/C"
_symmetry_group_IT_number 15
_symmetry_cell_setting 'monoclinic'
loop_
_space_group_symop_operation_xyz
x,y,z
-x,y,1/2-z
-x,-y,-z
x,-y,1/2+z
1/2+x,1/2+y,z
1/2-x,1/2+y,1/2-z
1/2-x,1/2-y,-z
1/2+x,1/2-y,1/2+z
loop_
_atom_site_type_symbol
_atom_site_label
_atom_site_fract_x
_atom_site_fract_y
_atom_site_fract_z
Si Si1 0.743898 0.446447 0.477344
Si Si2 0.644392 0.676080 0.606279
Si Si3 0.018288 0.721778 0.320842
Si Si4 0.060603 0.027369 0.466904
Si Si5 0.696060 0.258878 0.699994
Si Si6 0.945771 0.591077 0.512342
O O1 0.881516 0.375512 0.587951
O O2 0.620802 0.346930 0.384009
O O3 0.654494 0.526793 0.468220
O O4 0.819212 0.527879 0.476141
O O5 0.670062 0.568983 0.578275
O O6 0.503558 0.609549 0.557564
O O7 0.755791 0.735927 0.713277
O O8 0.609046 0.788332 0.548742
O O9 0.000000 0.689602 0.250000
O O10 0.849081 0.735371 0.251364
O O11 0.912716 0.121289 0.374107
O O12 0.596595 0.137179 0.630559
O O13 0.000000 0.500000 0.500000
#
# Coordination Sequence:
#
# PCOD9295314 Si02
#       6
#     8   8   8   8   8   8
#     4  11  25  43  64  99 141 171 223 291 335 399
#     4  10  23  42  68  95 134 178 222 273 348 403
#     4  11  25  39  66  99 131 173 234 276 334 402
#     4  10  24  43  69  94 140 177 224 283 345 405
#     4  11  24  42  70  98 126 184 231 270 338 416
#     4  11  25  42  68  98 137 174 224 281 343 397
#
# _framework density 20.053114000000001
#
# number of rings (size 3 to 8) (size 9 to 14) (size 15 to 20)
#    0.000    1.333    1.667    2.000   14.000    4.000 
#    0.000    1.667    0.000    0.000    0.000    0.000 
#    0.000    0.000    0.000    0.000    0.000    0.000 
#
# Total GULP energy -133896.941474 kJ/mol
# GULP energy per Si atom -5579.039228 kJ/mol
# Density = 2.000747 g / cm^3
# Si number density = 20.053114 Si / 1000 Ang^3
#
#
#
# Elastic Constant Matrix: (Units=GPa)
#
#
# Indices 1 2 3 4 5 6 
#
# 1 163.9820 62.7036 60.5952 -0.0001 6.3998 0.0000
# 2 62.7036 86.2183 36.0127 0.0003 12.9803 0.0000
# 3 60.5952 36.0127 77.1003 0.0014 -2.7307 0.0003
# 4 -0.0001 0.0003 0.0014 7.7525 0.0001 -11.6992
# 5 6.3998 12.9803 -2.7307 0.0001 44.9986 0.0000
# 6 0.0000 0.0000 0.0003 -11.6992 0.0000 24.7103
#
#
#
# Elastic Compliance Matrix: (Units=1/GPa)
#
#
# Indices 1 2 3 4 5 6 
#
# 1 0.010075 -0.004921 -0.005632 0.000005 -0.000355 0.000002
# 2 -0.004921 0.017819 -0.004622 0.000001 -0.004721 0.000000
# 3 -0.005632 -0.004622 0.019674 -0.000014 0.003328 -0.000007
# 4 0.000005 0.000001 -0.000014 0.451780 -0.000003 0.213897
# 5 -0.000355 -0.004721 0.003328 -0.000003 0.023837 -0.000001
# 6 0.000002 0.000000 -0.000007 0.213897 -0.000001 0.141739
#
#
# Mechanical properties :
#
#
# Convention : Reuss Voigt Hill
#
# Bulk Modulus (GPa) = 58.08620 71.76930 64.92775
# Shear Modulus (GPa) = 7.13251 26.69156 16.91204
#
# Velocity S-wave (km/s) = 1.88800 3.65230 2.90722
# Velocity P-wave (km/s) = 5.81221 7.32483 6.61191
#
# Compressibility (1/GPa) = 0.01721579
#
# Stress axis : x y z
#
# Youngs Moduli (GPa) = 99.25416 56.11980 50.82948
#
# Poissons Ratio (x) = 0.27618 0.28628
# Poissons Ratio (y) = 0.48846 0.23496
# Poissons Ratio (z) = 0.55902 0.25941
#
# Static dielectric constant tensor:
#      x y z
#    x 1.694530 0.000000 -0.046710 
#    y 0.000000 1.647380 0.000000 
#    z -0.046710 0.000000 1.839070 
# 
# From -- ./inp_files/315903.got.cif
#   From: 2010.05.17/outbox.cif.g08.bks.cpg/sg15_158_cif.got.tgz:315903.got - 2010.06.03 18:47:42.
