data_PCOD9295066
_publ_section_title
;
Structure prediction by ZEFSAII (Michael W. Deem and Ramdas Pophale) SiO2 
 PCOD9295066
Probable space group: C 2/C
;
_chemical_formula_sum "Si O2"
_cell_formula_units_Z 48
_cell_length_a 9.390407
_cell_length_b 20.194355
_cell_length_c 27.721314
_cell_angle_alpha 90.000000
_cell_angle_beta 152.681103
_cell_angle_gamma 90.000000
_cell_volume 2412.607061
_symmetry_space_group_name_H-M "C 2/C"
_symmetry_group_IT_number 15
_symmetry_cell_setting 'monoclinic'
loop_
_space_group_symop_operation_xyz
x,y,z
-x,y,1/2-z
-x,-y,-z
x,-y,1/2+z
1/2+x,1/2+y,z
1/2-x,1/2+y,1/2-z
1/2-x,1/2-y,-z
1/2+x,1/2-y,1/2+z
loop_
_atom_site_type_symbol
_atom_site_label
_atom_site_fract_x
_atom_site_fract_y
_atom_site_fract_z
Si Si1 0.268445 0.598458 0.450307
Si Si2 0.321821 0.941582 0.974863
Si Si3 0.090634 0.229836 0.523758
Si Si4 0.256995 0.501566 0.865693
Si Si5 0.137747 0.328484 0.128335
Si Si6 0.230640 0.350395 0.629526
O O1 0.345951 0.671361 0.455957
O O2 0.590810 0.563710 0.561925
O O3 0.134963 0.550942 0.368490
O O4 0.047059 0.608706 0.429146
O O5 0.189542 0.890556 0.895052
O O6 0.041280 0.968602 0.922396
O O7 0.542151 0.899795 0.077383
O O8 0.500000 0.000000 0.000000
O O9 0.413421 0.195646 0.604186
O O10 0.136810 0.276862 0.583940
O O11 0.954523 0.277088 0.441408
O O12 0.000000 0.520689 0.750000
O O13 0.500000 0.326435 0.250000
O O14 0.500000 0.347575 0.750000
#
# Coordination Sequence:
#
# PCOD9295066 Si02
#       6
#     8   8   8   8   8   8
#     4  11  23  43  62  93 132 158 213 267 307 380
#     4  11  22  44  63  93 130 162 217 260 306 385
#     4  10  23  42  63  94 129 158 218 258 307 384
#     4  11  24  42  66  92 125 173 208 259 320 373
#     4  10  23  42  67  92 123 173 209 257 315 373
#     4  11  24  40  64  96 125 167 206 262 321 367
#
# _framework density 19.895492000000001
#
# number of rings (size 3 to 8) (size 9 to 14) (size 15 to 20)
#    0.000    1.333    3.333    1.500    2.333    3.333 
#    0.000    0.000    0.000    0.000    0.000    0.000 
#    0.000    0.000    0.000    0.000    0.000    0.000 
#
# Total GULP energy -134035.525512 kJ/mol
# GULP energy per Si atom -5584.813563 kJ/mol
# Density = 1.985021 g / cm^3
# Si number density = 19.895492 Si / 1000 Ang^3
#
#
#
# Elastic Constant Matrix: (Units=GPa)
#
#
# Indices 1 2 3 4 5 6 
#
# 1 69.5858 8.8116 -6.3961 -0.0035 2.3080 -0.0033
# 2 8.8116 67.6545 -10.6002 0.0025 -2.2749 0.0010
# 3 -6.3961 -10.6002 78.8094 0.0022 -6.2372 0.0027
# 4 -0.0035 0.0025 0.0022 11.6084 -0.0031 -2.9073
# 5 2.3080 -2.2749 -6.2372 -0.0031 25.6642 -0.0005
# 6 -0.0033 0.0010 0.0027 -2.9073 -0.0005 32.5015
#
#
#
# Elastic Compliance Matrix: (Units=1/GPa)
#
#
# Indices 1 2 3 4 5 6 
#
# 1 0.014723 -0.001828 0.000848 0.000005 -0.001280 0.000002
# 2 -0.001828 0.015414 0.002086 -0.000004 0.002038 -0.000001
# 3 0.000848 0.002086 0.013303 -0.000002 0.003342 -0.000001
# 4 0.000005 -0.000004 -0.000002 0.088118 0.000010 0.007882
# 5 -0.001280 0.002038 0.003342 0.000010 0.040073 0.000001
# 6 0.000002 -0.000001 -0.000001 0.007882 0.000001 0.031473
#
#
# Mechanical properties :
#
#
# Convention : Reuss Voigt Hill
#
# Bulk Modulus (GPa) = 21.90476 22.18669 22.04573
# Shear Modulus (GPa) = 23.13652 28.90378 26.02015
#
# Velocity S-wave (km/s) = 3.41384 3.81567 3.62033
# Velocity P-wave (km/s) = 5.15489 5.53067 5.34608
#
# Compressibility (1/GPa) = 0.04565218
#
# Stress axis : x y z
#
# Youngs Moduli (GPa) = 67.92291 64.87423 75.17256
#
# Poissons Ratio (x) = 0.11857 -0.06373
# Poissons Ratio (y) = 0.12415 -0.15683
# Poissons Ratio (z) = -0.05758 -0.13534
#
# Static dielectric constant tensor:
#      x y z
#    x 1.719790 -0.000010 0.003130 
#    y -0.000010 1.699160 0.000010 
#    z 0.003130 0.000010 1.656640 
# 
# From -- ./inp_files/290149.got.cif
#   From: 2010.05.17/outbox.cif.g08.bks.cpg/sg15_146_cif.got.tgz:290149.got - 2010.06.03 18:47:42.
