data_PCOD9295876
_publ_section_title
;
Structure prediction by ZEFSAII (Michael W. Deem and Ramdas Pophale) SiO2 
 PCOD9295876
Probable space group: C 2/C
;
_chemical_formula_sum "Si O2"
_cell_formula_units_Z 40
_cell_length_a 17.794362
_cell_length_b 7.983720
_cell_length_c 14.300775
_cell_angle_alpha 90.000000
_cell_angle_beta 130.812406
_cell_angle_gamma 90.000000
_cell_volume 1537.655861
_symmetry_space_group_name_H-M "C 2/C"
_symmetry_group_IT_number 15
_symmetry_cell_setting 'monoclinic'
loop_
_space_group_symop_operation_xyz
x,y,z
-x,y,1/2-z
-x,-y,-z
x,-y,1/2+z
1/2+x,1/2+y,z
1/2-x,1/2+y,1/2-z
1/2-x,1/2-y,-z
1/2+x,1/2-y,1/2+z
loop_
_atom_site_type_symbol
_atom_site_label
_atom_site_fract_x
_atom_site_fract_y
_atom_site_fract_z
Si Si1 0.744916 0.993313 0.106991
Si Si2 0.937909 0.698131 0.109441
Si Si3 0.636163 0.419525 0.961148
Si Si4 0.244119 0.216032 0.721982
Si Si5 0.525348 0.305328 0.552766
O O1 0.795946 0.850687 0.211509
O O2 0.811454 0.108597 0.095148
O O3 0.699663 0.109056 0.150837
O O4 0.661040 0.910728 0.977028
O O5 0.000000 0.655131 0.250000
O O6 0.902613 0.891768 0.084725
O O7 0.992809 0.693484 0.053866
O O8 0.546339 0.296435 0.916053
O O9 0.710954 0.406915 0.110582
O O10 0.360843 0.261306 0.829659
O O11 0.500000 0.500000 0.500000
#
# Coordination Sequence:
#
# PCOD9295876 Si02
#       5
#     8   8   8   8   8
#     4  11  24  45  71 108 143 199 248 306 373 441
#     4  10  23  43  71 109 153 194 246 304 380 450
#     4  11  24  44  75 106 142 204 252 295 381 449
#     4  11  24  46  74 108 151 188 252 314 365 451
#     4   9  21  43  68 104 141 191 238 299 369 438
#
# _framework density 26.013622000000002
#
# number of rings (size 3 to 8) (size 9 to 14) (size 15 to 20)
#    0.000    1.600    0.000    4.800    8.400    0.000 
#    3.600    2.000    0.000    0.000    0.000    0.000 
#    0.000    0.000    0.000    0.000    0.000    0.000 
#
# Total GULP energy -111793.050447 kJ/mol
# GULP energy per Si atom -5589.652522 kJ/mol
# Density = 2.595441 g / cm^3
# Si number density = 26.013622 Si / 1000 Ang^3
#
#
#
# Elastic Constant Matrix: (Units=GPa)
#
#
# Indices 1 2 3 4 5 6 
#
# 1 128.8033 8.7993 38.6535 0.0000 -8.9002 0.0000
# 2 8.7993 12.8855 0.8172 0.0000 -2.5962 0.0000
# 3 38.6535 0.8172 168.4386 0.0000 -4.9414 0.0000
# 4 0.0000 0.0000 0.0000 41.9602 0.0000 -1.4191
# 5 -8.9002 -2.5962 -4.9414 0.0000 35.3484 0.0000
# 6 0.0000 0.0000 0.0000 -1.4191 0.0000 27.0756
#
#
#
# Elastic Compliance Matrix: (Units=1/GPa)
#
#
# Indices 1 2 3 4 5 6 
#
# 1 0.008840 -0.005602 -0.001956 0.000000 0.001541 0.000000
# 2 -0.005602 0.082330 0.001026 0.000000 0.004780 0.000000
# 3 -0.001956 0.001026 0.006395 0.000000 0.000477 0.000000
# 4 0.000000 0.000000 0.000000 0.023874 0.000000 0.001251
# 5 0.001541 0.004780 0.000477 0.000000 0.029096 0.000000
# 6 0.000000 0.000000 0.000000 0.001251 0.000000 0.036999
#
#
# Mechanical properties :
#
#
# Convention : Reuss Voigt Hill
#
# Bulk Modulus (GPa) = 11.83417 45.18526 28.50971
# Shear Modulus (GPa) = 21.85644 38.33398 30.09521
#
# Velocity S-wave (km/s) = 2.90175 3.84293 3.40502
# Velocity P-wave (km/s) = 3.97316 6.09084 5.14220
#
# Compressibility (1/GPa) = 0.08450107
#
# Stress axis : x y z
#
# Youngs Moduli (GPa) = 113.12191 12.14619 156.37689
#
# Poissons Ratio (x) = 0.06804 0.30591
# Poissons Ratio (y) = 0.63373 -0.16050
# Poissons Ratio (z) = 0.22129 -0.01247
#
# Static dielectric constant tensor:
#      x y z
#    x 2.253190 0.000000 0.023350 
#    y 0.000000 2.094570 0.000000 
#    z 0.023350 0.000000 2.052730 
# 
# From -- ./inp_files/166493.got.cif
#   From: 2010.05.17/outbox.cif.g08.bks.cpg/sg15_84_cif.got.tgz:166493.got - 2010.06.03 18:47:42.
