data_PCOD9295655
_publ_section_title
;
Structure prediction by ZEFSAII (Michael W. Deem and Ramdas Pophale) SiO2 
 PCOD9295655
Probable space group: C 2/C
;
_chemical_formula_sum "Si O2"
_cell_formula_units_Z 52
_cell_length_a 10.461130
_cell_length_b 14.899314
_cell_length_c 15.410985
_cell_angle_alpha 90.000000
_cell_angle_beta 117.261634
_cell_angle_gamma 90.000000
_cell_volume 2135.206955
_symmetry_space_group_name_H-M "C 2/C"
_symmetry_group_IT_number 15
_symmetry_cell_setting 'monoclinic'
loop_
_space_group_symop_operation_xyz
x,y,z
-x,y,1/2-z
-x,-y,-z
x,-y,1/2+z
1/2+x,1/2+y,z
1/2-x,1/2+y,1/2-z
1/2-x,1/2-y,-z
1/2+x,1/2-y,1/2+z
loop_
_atom_site_type_symbol
_atom_site_label
_atom_site_fract_x
_atom_site_fract_y
_atom_site_fract_z
Si Si1 0.207880 0.505948 0.693118
Si Si2 0.500000 0.411106 0.250000
Si Si3 0.521476 0.821609 0.154535
Si Si4 0.831754 0.576586 0.134875
Si Si5 0.091171 0.761153 0.411096
Si Si6 0.981411 0.152510 0.444860
Si Si7 0.286435 0.079126 0.490146
O O1 0.377127 0.528416 0.754605
O O2 0.131368 0.602320 0.657066
O O3 0.148691 0.463552 0.763146
O O4 0.191296 0.443901 0.603482
O O5 0.575481 0.344414 0.341595
O O6 0.500000 0.831455 0.250000
O O7 0.568326 0.721717 0.145157
O O8 0.374118 0.838004 0.056804
O O9 0.921199 0.665979 0.140419
O O10 0.660128 0.596518 0.077169
O O11 0.851225 0.503216 0.066072
O O12 0.250000 0.750000 0.500000
O O13 0.989342 0.787395 0.459765
O O14 0.119204 0.096504 0.458766
#
# Coordination Sequence:
#
# PCOD9295655 Si02
#       7
#     8   4   8   8   8   8   8
#     4  12  25  45  73 106 143 190 240 302 359 436
#     4  12  24  44  76 106 142 192 244 298 364 424
#     4  12  27  47  66  98 150 187 236 295 373 436
#     4  11  23  44  70 105 144 181 240 297 357 432
#     4  10  23  43  67 104 142 186 234 297 362 424
#     4  11  24  45  72 101 138 188 241 297 356 435
#     4  12  25  46  72 106 142 188 242 301 368 422
#
# _framework density 24.353608999999999
#
# number of rings (size 3 to 8) (size 9 to 14) (size 15 to 20)
#    0.000    0.615    1.538    7.846    2.154    2.462 
#    0.000    0.000    0.000    0.000    0.000    0.000 
#    0.000    0.000    0.000    0.000    0.000    0.000 
#
# Total GULP energy -145666.071482 kJ/mol
# GULP energy per Si atom -5602.541211 kJ/mol
# Density = 2.429818 g / cm^3
# Si number density = 24.353609 Si / 1000 Ang^3
#
#
#
# Elastic Constant Matrix: (Units=GPa)
#
#
# Indices 1 2 3 4 5 6 
#
# 1 92.3580 18.7717 29.8571 0.0000 -16.0531 0.0000
# 2 18.7717 71.0212 43.3003 0.0000 -17.2051 0.0000
# 3 29.8571 43.3003 145.9626 0.0000 -26.5863 0.0000
# 4 0.0000 0.0000 0.0000 23.8096 0.0000 16.8470
# 5 -16.0531 -17.2051 -26.5863 0.0000 43.8969 0.0000
# 6 0.0000 0.0000 0.0000 16.8470 0.0000 5.1812
#
#
#
# Elastic Compliance Matrix: (Units=1/GPa)
#
#
# Indices 1 2 3 4 5 6 
#
# 1 0.012137 -0.001601 -0.001476 0.000000 0.002917 0.000000
# 2 -0.001601 0.018083 -0.004330 0.000000 0.003879 0.000000
# 3 -0.001476 -0.004330 0.009026 0.000000 0.003229 0.000000
# 4 0.000000 0.000000 0.000000 -0.032289 0.000000 0.104991
# 5 0.002917 0.003879 0.003229 0.000000 0.027324 0.000000
# 6 0.000000 0.000000 0.000000 0.104991 0.000000 -0.148382
#
#
# Mechanical properties :
#
#
# Convention : Reuss Voigt Hill
#
# Bulk Modulus (GPa) = 40.93246 54.80000 47.86623
# Shear Modulus (GPa) = -54.85984 29.07170 -12.89407
#
# Velocity S-wave (km/s) = -4.75134 3.45879 -2.30348
# Velocity P-wave (km/s) = 3.64092 6.20497 3.55284
#
# Compressibility (1/GPa) = 0.02443049
#
# Stress axis : x y z
#
# Youngs Moduli (GPa) = 82.39173 55.29908 110.79223
#
# Poissons Ratio (x) = 0.08855 0.16357
# Poissons Ratio (y) = 0.13193 0.47977
# Poissons Ratio (z) = 0.12164 0.23947
#
# Static dielectric constant tensor:
#      x y z
#    x 2.115060 0.000000 0.170130 
#    y 0.000000 1.933290 0.000000 
#    z 0.170130 0.000000 2.100070 
# 
# From -- ./inp_files/144318.got.cif
#   From: 2010.05.17/outbox.cif.g08.bks.cpg/sg15_73_cif.got.tgz:144318.got - 2010.06.03 18:47:42.
