data_PCOD9295318
_publ_section_title
;
Structure prediction by ZEFSAII (Michael W. Deem and Ramdas Pophale) SiO2 
 PCOD9295318
Probable space group: C 2/C
;
_chemical_formula_sum "Si O2"
_cell_formula_units_Z 52
_cell_length_a 10.461301
_cell_length_b 26.351750
_cell_length_c 11.064260
_cell_angle_alpha 90.000000
_cell_angle_beta 126.584474
_cell_angle_gamma 90.000000
_cell_volume 2449.185760
_symmetry_space_group_name_H-M "C 2/C"
_symmetry_group_IT_number 15
_symmetry_cell_setting 'monoclinic'
loop_
_space_group_symop_operation_xyz
x,y,z
-x,y,1/2-z
-x,-y,-z
x,-y,1/2+z
1/2+x,1/2+y,z
1/2-x,1/2+y,1/2-z
1/2-x,1/2-y,-z
1/2+x,1/2-y,1/2+z
loop_
_atom_site_type_symbol
_atom_site_label
_atom_site_fract_x
_atom_site_fract_y
_atom_site_fract_z
Si Si1 0.335025 0.075297 0.091500
Si Si2 0.463634 0.124929 0.933450
Si Si3 0.272252 0.804075 0.865768
Si Si4 0.500000 0.549892 0.250000
Si Si5 0.445625 0.626655 0.420496
Si Si6 0.235492 0.186706 0.635284
Si Si7 0.849522 0.524453 0.487090
O O1 0.500000 0.088474 0.250000
O O2 0.188254 0.099656 0.076544
O O3 0.326087 0.014039 0.084693
O O4 0.347501 0.096691 0.962303
O O5 0.371089 0.154117 0.776473
O O6 0.589820 0.081992 0.960393
O O7 0.561414 0.167587 0.062111
O O8 0.139277 0.834631 0.719085
O O9 0.265311 0.745344 0.826055
O O10 0.250398 0.810046 0.998046
O O11 0.528919 0.584460 0.384102
O O12 0.673240 0.524115 0.326801
O O13 0.571604 0.657902 0.568290
O O14 0.000000 0.500000 0.500000
#
# Coordination Sequence:
#
# PCOD9295318 Si02
#       7
#     8   8   8   4   8   8   8
#     4  11  24  43  67  91 133 186 225 279 352 415
#     4  11  22  44  67  96 136 177 227 285 342 409
#     4  11  21  43  66  98 138 176 229 277 349 404
#     4  12  22  42  68  96 130 180 224 284 348 404
#     4  12  22  42  66  96 139 177 222 286 345 412
#     4  11  24  37  70 104 130 178 229 291 334 404
#     4  10  23  42  68  96 134 180 234 281 341 412
#
# _framework density 21.231546999999999
#
# number of rings (size 3 to 8) (size 9 to 14) (size 15 to 20)
#    0.000    0.923    4.615    2.308    0.000    8.615 
#    0.000    4.615    0.000    0.000    0.000    0.000 
#    0.000    0.000    0.000    0.000    0.000    0.000 
#
# Total GULP energy -145213.119024 kJ/mol
# GULP energy per Si atom -5585.119962 kJ/mol
# Density = 2.118322 g / cm^3
# Si number density = 21.231547 Si / 1000 Ang^3
#
#
#
# Elastic Constant Matrix: (Units=GPa)
#
#
# Indices 1 2 3 4 5 6 
#
# 1 98.2707 51.5968 26.0430 0.0000 15.4249 0.0000
# 2 51.5968 127.7795 46.3801 0.0000 8.0204 0.0000
# 3 26.0430 46.3801 96.3161 0.0000 29.1617 0.0000
# 4 0.0000 0.0000 0.0000 28.8015 0.0000 12.5265
# 5 15.4249 8.0204 29.1617 0.0000 35.2870 0.0000
# 6 0.0000 0.0000 0.0000 12.5265 0.0000 -16.1959
#
#
#
# Elastic Compliance Matrix: (Units=1/GPa)
#
#
# Indices 1 2 3 4 5 6 
#
# 1 0.013679 -0.005359 0.000431 0.000000 -0.005118 0.000000
# 2 -0.005359 0.011708 -0.005458 0.000000 0.004192 0.000000
# 3 0.000431 -0.005458 0.016772 0.000000 -0.012809 0.000000
# 4 0.000000 0.000000 0.000000 0.025981 0.000000 0.020095
# 5 -0.005118 0.004192 -0.012809 0.000000 0.040209 0.000000
# 6 0.000000 0.000000 0.000000 0.020095 0.000000 -0.046202
#
#
# Mechanical properties :
#
#
# Convention : Reuss Voigt Hill
#
# Bulk Modulus (GPa) = 46.75547 63.37846 55.06696
# Shear Modulus (GPa) = 55.52734 22.80162 39.16448
#
# Velocity S-wave (km/s) = 5.11957 3.28067 4.29958
# Velocity P-wave (km/s) = 7.55091 6.65329 7.11627
#
# Compressibility (1/GPa) = 0.02138787
#
# Stress axis : x y z
#
# Youngs Moduli (GPa) = 73.10740 85.41334 59.62235
#
# Poissons Ratio (x) = 0.45770 -0.02572
# Poissons Ratio (y) = 0.39176 0.32542
# Poissons Ratio (z) = -0.03154 0.46619
#
# Static dielectric constant tensor:
#      x y z
#    x 1.806330 0.000000 0.015460 
#    y 0.000000 1.790010 0.000000 
#    z 0.015460 0.000000 1.827360 
# 
# From -- ./inp_files/91310.got.cif
#   From: 2010.05.17/outbox.cif.g08.bks.cpg/sg15_46_cif.got.tgz:91310.got - 2010.06.03 18:47:42.
