data_PCOD9295740
_publ_section_title
;
Structure prediction by ZEFSAII (Michael W. Deem and Ramdas Pophale) SiO2 
 PCOD9295740
Probable space group: C 2/C
;
_chemical_formula_sum "Si O2"
_cell_formula_units_Z 60
_cell_length_a 17.135989
_cell_length_b 25.761930
_cell_length_c 5.307368
_cell_angle_alpha 90.000000
_cell_angle_beta 90.681275
_cell_angle_gamma 90.000000
_cell_volume 2342.804612
_symmetry_space_group_name_H-M "C 2/C"
_symmetry_group_IT_number 15
_symmetry_cell_setting 'monoclinic'
loop_
_space_group_symop_operation_xyz
x,y,z
-x,y,1/2-z
-x,-y,-z
x,-y,1/2+z
1/2+x,1/2+y,z
1/2-x,1/2+y,1/2-z
1/2-x,1/2-y,-z
1/2+x,1/2-y,1/2+z
loop_
_atom_site_type_symbol
_atom_site_label
_atom_site_fract_x
_atom_site_fract_y
_atom_site_fract_z
Si Si1 0.782795 0.804391 0.113062
Si Si2 0.500000 0.884281 0.250000
Si Si3 0.046472 0.899490 0.997846
Si Si4 0.652999 0.123582 0.463030
Si Si5 0.171468 0.973542 0.183539
Si Si6 0.069006 0.700497 0.101032
Si Si7 0.123478 0.797895 0.872277
Si Si8 0.654641 0.014361 0.267700
O O1 0.722887 0.852113 0.123528
O O2 0.814797 0.797160 0.394797
O O3 0.750000 0.750000 0.000000
O O4 0.846521 0.816394 0.898091
O O5 0.417416 0.900452 0.372429
O O6 0.530501 0.849150 0.477205
O O7 0.058714 0.838365 0.958627
O O8 0.000000 0.919611 0.750000
O O9 0.132530 0.923175 0.057984
O O10 0.000000 0.910911 0.250000
O O11 0.629269 0.173959 0.294412
O O12 0.677240 0.074509 0.296229
O O13 0.145929 0.984025 0.470218
O O14 0.265462 0.979977 0.212031
O O15 0.000000 0.729141 0.250000
O O16 0.097042 0.738050 0.880584
O O17 0.609735 0.005762 0.009544
#
# Coordination Sequence:
#
# PCOD9295740 Si02
#       8
#     8   4   8   8   8   8   8   8
#     4  12  26  43  70 108 144 190 236 299 351 422
#     4  10  24  44  74 100 142 182 234 280 360 436
#     4  12  27  45  71 104 146 195 244 296 350 419
#     4  11  25  44  75 103 140 183 239 289 364 426
#     4  10  23  43  68  97 134 182 243 292 356 409
#     4  10  23  43  70 101 142 195 232 285 351 433
#     4  12  27  43  70 105 152 187 244 289 351 416
#     4  10  25  44  72 103 135 179 233 290 359 420
#
# _framework density 25.610329
#
# number of rings (size 3 to 8) (size 9 to 14) (size 15 to 20)
#    0.000    1.067    1.333    3.200   14.000    1.600 
#    0.000    0.667    0.000    0.000    0.000    0.000 
#    0.000    0.000    0.000    0.000    0.000    0.000 
#
# Total GULP energy -167525.930105 kJ/mol
# GULP energy per Si atom -5584.197670 kJ/mol
# Density = 2.555204 g / cm^3
# Si number density = 25.610329 Si / 1000 Ang^3
#
#
#
# Elastic Constant Matrix: (Units=GPa)
#
#
# Indices 1 2 3 4 5 6 
#
# 1 60.4625 10.0403 20.8685 0.0000 -12.5030 0.0000
# 2 10.0403 62.8169 1.0635 0.0000 -14.7546 0.0000
# 3 20.8685 1.0635 122.6281 0.0000 -1.2753 0.0000
# 4 0.0000 0.0000 0.0000 26.2998 0.0000 -15.4898
# 5 -12.5030 -14.7546 -1.2753 0.0000 30.0259 0.0000
# 6 0.0000 0.0000 0.0000 -15.4898 0.0000 17.4099
#
#
#
# Elastic Compliance Matrix: (Units=1/GPa)
#
#
# Indices 1 2 3 4 5 6 
#
# 1 0.019373 -0.001333 -0.003210 0.000000 0.007276 0.000000
# 2 -0.001333 0.018089 0.000157 0.000000 0.008340 0.000000
# 3 -0.003210 0.000157 0.008690 0.000000 -0.000890 0.000000
# 4 0.000000 0.000000 0.000000 0.079883 0.000000 0.071073
# 5 0.007276 0.008340 -0.000890 0.000000 0.040395 0.000000
# 6 0.000000 0.000000 0.000000 0.071073 0.000000 0.120673
#
#
# Mechanical properties :
#
#
# Convention : Reuss Voigt Hill
#
# Bulk Modulus (GPa) = 26.75248 34.42801 30.59024
# Shear Modulus (GPa) = 16.21616 29.00945 22.61281
#
# Velocity S-wave (km/s) = 2.51905 3.36925 2.97468
# Velocity P-wave (km/s) = 4.35080 5.34864 4.87532
#
# Compressibility (1/GPa) = 0.03737972
#
# Stress axis : x y z
#
# Youngs Moduli (GPa) = 51.61861 55.28313 115.07059
#
# Poissons Ratio (x) = 0.07371 0.36933
# Poissons Ratio (y) = 0.06882 -0.01804
# Poissons Ratio (z) = 0.16567 -0.00867
#
# Static dielectric constant tensor:
#      x y z
#    x 2.374820 0.000000 0.045690 
#    y 0.000000 1.989490 0.000000 
#    z 0.045690 0.000000 2.174150 
# 
# From -- ./inp_files/11551.got.cif
#   From: 2010.05.17/outbox.cif.g08.bks.cpg/sg15_6_cif.got.tgz:11551.got - 2010.06.03 18:47:42.
