data_PCOD9295050
_publ_section_title
;
Structure prediction by ZEFSAII (Michael W. Deem and Ramdas Pophale) SiO2 
 PCOD9295050
Probable space group: C 2/C
;
_chemical_formula_sum "Si O2"
_cell_formula_units_Z 44
_cell_length_a 23.342695
_cell_length_b 8.488795
_cell_length_c 9.981973
_cell_angle_alpha 90.000000
_cell_angle_beta 58.533136
_cell_angle_gamma 90.000000
_cell_volume 1687.069732
_symmetry_space_group_name_H-M "C 2/C"
_symmetry_group_IT_number 15
_symmetry_cell_setting 'monoclinic'
loop_
_space_group_symop_operation_xyz
x,y,z
-x,y,1/2-z
-x,-y,-z
x,-y,1/2+z
1/2+x,1/2+y,z
1/2-x,1/2+y,1/2-z
1/2-x,1/2-y,-z
1/2+x,1/2-y,1/2+z
loop_
_atom_site_type_symbol
_atom_site_label
_atom_site_fract_x
_atom_site_fract_y
_atom_site_fract_z
Si Si1 0.071179 0.823605 0.852989
Si Si2 0.780783 0.686057 0.255796
Si Si3 0.000000 0.370698 0.250000
Si Si4 0.771771 0.505892 0.524884
Si Si5 0.920550 0.183548 0.662206
Si Si6 0.589180 0.879246 0.563076
O O1 0.058881 0.742287 0.727019
O O2 0.098555 0.998765 0.812193
O O3 0.110772 0.710327 0.903731
O O4 0.994386 0.818282 0.005754
O O5 0.757710 0.544823 0.386458
O O6 0.756107 0.645542 0.136104
O O7 0.755178 0.843268 0.359282
O O8 0.861841 0.714120 0.164711
O O9 0.029413 0.497711 0.109580
O O10 0.851415 0.524248 0.443152
O O11 0.926840 0.247257 0.805789
#
# Coordination Sequence:
#
# PCOD9295050 Si02
#       6
#     8   8   4   8   8   8
#     4  11  24  38  64  95 124 170 204 262 319 385
#     4  10  23  46  65  98 129 173 212 275 310 390
#     4  12  24  36  64  94 128 162 212 252 328 374
#     4  10  24  42  68  92 132 167 222 263 328 368
#     4  10  23  42  63  89 133 161 214 258 319 373
#     4  11  23  42  62  91 129 167 208 270 306 386
#
# _framework density 26.080722999999999
#
# number of rings (size 3 to 8) (size 9 to 14) (size 15 to 20)
#    0.000    1.455    1.818    1.636   12.727    0.727 
#    0.000    0.000    0.000    0.000    0.000    0.000 
#    0.000    0.000    0.000    0.000    0.000    0.000 
#
# Total GULP energy -122952.475447 kJ/mol
# GULP energy per Si atom -5588.748884 kJ/mol
# Density = 2.602136 g / cm^3
# Si number density = 26.080723 Si / 1000 Ang^3
#
#
#
# Elastic Constant Matrix: (Units=GPa)
#
#
# Indices 1 2 3 4 5 6 
#
# 1 30.7520 -9.9985 18.3110 0.0000 12.5807 0.0000
# 2 -9.9985 99.4744 32.3512 0.0000 11.8566 0.0000
# 3 18.3110 32.3512 79.5535 0.0000 11.4651 0.0000
# 4 0.0000 0.0000 0.0000 49.2698 0.0000 2.4694
# 5 12.5807 11.8566 11.4651 0.0000 42.0032 0.0000
# 6 0.0000 0.0000 0.0000 2.4694 0.0000 36.4595
#
#
#
# Elastic Compliance Matrix: (Units=1/GPa)
#
#
# Indices 1 2 3 4 5 6 
#
# 1 0.050646 0.011446 -0.014219 0.000000 -0.014519 0.000000
# 2 0.011446 0.014346 -0.007693 0.000000 -0.005378 0.000000
# 3 -0.014219 -0.007693 0.018784 0.000000 0.001303 0.000000
# 4 0.000000 0.000000 0.000000 0.020366 0.000000 -0.001379
# 5 -0.014519 -0.005378 0.001303 0.000000 0.029319 0.000000
# 6 0.000000 0.000000 0.000000 -0.001379 0.000000 0.027521
#
#
# Mechanical properties :
#
#
# Convention : Reuss Voigt Hill
#
# Bulk Modulus (GPa) = 15.91298 32.34525 24.12911
# Shear Modulus (GPa) = 24.64715 36.82093 30.73404
#
# Velocity S-wave (km/s) = 3.07747 3.76148 3.43654
# Velocity P-wave (km/s) = 4.32926 5.59409 5.00182
#
# Compressibility (1/GPa) = 0.06284179
#
# Stress axis : x y z
#
# Youngs Moduli (GPa) = 19.74488 69.70409 53.23725
#
# Poissons Ratio (x) = -0.79780 0.75700
# Poissons Ratio (y) = -0.22599 0.40958
# Poissons Ratio (z) = 0.28076 0.53627
#
# Static dielectric constant tensor:
#      x y z
#    x 2.093820 0.000000 -0.072190 
#    y 0.000000 2.026710 0.000000 
#    z -0.072190 0.000000 2.136300 
# 
# From -- ./inp_files/125484.got.cif
#   From: 2010.05.17/outbox.cif.g08.bks.cpg/sg15_63_cif.got.tgz:125484.got - 2010.06.03 18:47:42.
