data_PCOD9295372
_publ_section_title
;
Structure prediction by ZEFSAII (Michael W. Deem and Ramdas Pophale) SiO2 
 PCOD9295372
Probable space group: C 2/C
;
_chemical_formula_sum "Si O2"
_cell_formula_units_Z 56
_cell_length_a 16.881780
_cell_length_b 12.072106
_cell_length_c 14.043861
_cell_angle_alpha 90.000000
_cell_angle_beta 117.240109
_cell_angle_gamma 90.000000
_cell_volume 2544.699701
_symmetry_space_group_name_H-M "C 2/C"
_symmetry_group_IT_number 15
_symmetry_cell_setting 'monoclinic'
loop_
_space_group_symop_operation_xyz
x,y,z
-x,y,1/2-z
-x,-y,-z
x,-y,1/2+z
1/2+x,1/2+y,z
1/2-x,1/2+y,1/2-z
1/2-x,1/2-y,-z
1/2+x,1/2-y,1/2+z
loop_
_atom_site_type_symbol
_atom_site_label
_atom_site_fract_x
_atom_site_fract_y
_atom_site_fract_z
Si Si1 0.067679 0.136000 0.018628
Si Si2 0.605704 0.700285 0.687498
Si Si3 0.899984 0.571037 0.197239
Si Si4 0.140577 0.050181 0.878169
Si Si5 0.196757 0.620684 0.761262
Si Si6 0.668515 0.143686 0.538818
Si Si7 0.906181 0.844553 0.751484
O O1 0.093450 0.045708 0.954119
O O2 0.972748 0.185536 0.932744
O O3 0.142044 0.231176 0.046568
O O4 0.075298 0.106425 0.132934
O O5 0.589180 0.619245 0.768421
O O6 0.701355 0.660676 0.698127
O O7 0.606853 0.823361 0.734951
O O8 0.824568 0.482059 0.182703
O O9 0.000000 0.522292 0.250000
O O10 0.887939 0.609605 0.082456
O O11 0.231140 0.118916 0.935606
O O12 0.153514 0.929487 0.841390
O O13 0.159146 0.585400 0.636193
O O14 0.141193 0.726889 0.764670
O O15 0.000000 0.834635 0.750000
#
# Coordination Sequence:
#
# PCOD9295372 Si02
#       7
#     8   8   8   8   8   8   8
#     4  11  22  45  71 101 136 185 242 294 348 422
#     4  11  23  42  72 106 132 180 246 295 344 417
#     4  12  23  45  75 101 140 186 248 300 338 430
#     4  11  23  40  70 103 134 176 236 288 348 422
#     4  10  27  43  66 102 146 183 230 297 364 414
#     4  10  23  42  70 103 130 185 240 292 343 415
#     4  11  26  46  65  97 148 185 223 290 364 432
#
# _framework density 22.006526999999998
#
# number of rings (size 3 to 8) (size 9 to 14) (size 15 to 20)
#    0.000    1.143    2.857    2.143    8.000    4.000 
#    2.571    1.429    0.000    0.000    0.000    0.000 
#    0.000    0.000    0.000    0.000    0.000    0.000 
#
# Total GULP energy -156472.741396 kJ/mol
# GULP energy per Si atom -5588.312193 kJ/mol
# Density = 2.195644 g / cm^3
# Si number density = 22.006527 Si / 1000 Ang^3
#
#
#
# Elastic Constant Matrix: (Units=GPa)
#
#
# Indices 1 2 3 4 5 6 
#
# 1 127.3534 36.2956 33.0801 0.0000 -7.3961 0.0000
# 2 36.2956 79.4823 18.0333 0.0000 -12.4758 0.0000
# 3 33.0801 18.0333 86.5824 0.0000 -15.4843 0.0000
# 4 0.0000 0.0000 0.0000 -8.5998 0.0000 -7.8908
# 5 -7.3961 -12.4758 -15.4843 0.0000 41.1515 0.0000
# 6 0.0000 0.0000 0.0000 -7.8908 0.0000 33.7459
#
#
#
# Elastic Compliance Matrix: (Units=1/GPa)
#
#
# Indices 1 2 3 4 5 6 
#
# 1 0.009692 -0.003831 -0.003003 0.000000 -0.000550 0.000000
# 2 -0.003831 0.015120 -0.001060 0.000000 0.003496 0.000000
# 3 -0.003003 -0.001060 0.013685 0.000000 0.004288 0.000000
# 4 0.000000 0.000000 0.000000 -0.095740 0.000000 -0.022387
# 5 -0.000550 0.003496 0.004288 0.000000 0.026875 0.000000
# 6 0.000000 0.000000 0.000000 -0.022387 0.000000 0.024398
#
#
# Mechanical properties :
#
#
# Convention : Reuss Voigt Hill
#
# Bulk Modulus (GPa) = 44.03696 52.02623 48.03160
# Shear Modulus (GPa) = 287.54128 26.99346 157.26737
#
# Velocity S-wave (km/s) = 11.44314 3.50610 8.46281
# Velocity P-wave (km/s) = 13.95164 6.33111 10.83354
#
# Compressibility (1/GPa) = 0.02270820
#
# Stress axis : x y z
#
# Youngs Moduli (GPa) = 103.17620 66.13706 73.07317
#
# Poissons Ratio (x) = 0.25335 0.21947
# Poissons Ratio (y) = 0.39524 0.07748
# Poissons Ratio (z) = 0.30988 0.07012
#
# Static dielectric constant tensor:
#      x y z
#    x 1.820090 0.000000 0.022160 
#    y 0.000000 1.811340 0.000000 
#    z 0.022160 0.000000 1.852430 
# 
# From -- ./inp_files/161426.got.cif
#   From: 2010.05.17/outbox.cif.g08.bks.cpg/sg15_81_cif.got.tgz:161426.got - 2010.06.03 18:47:42.
