data_PCOD9295266
_publ_section_title
;
Structure prediction by ZEFSAII (Michael W. Deem and Ramdas Pophale) SiO2 
 PCOD9295266
Probable space group: C 2/C
;
_chemical_formula_sum "Si O2"
_cell_formula_units_Z 48
_cell_length_a 16.048154
_cell_length_b 15.131545
_cell_length_c 29.998641
_cell_angle_alpha 90.000000
_cell_angle_beta 162.272952
_cell_angle_gamma 90.000000
_cell_volume 2218.056681
_symmetry_space_group_name_H-M "C 2/C"
_symmetry_group_IT_number 15
_symmetry_cell_setting 'monoclinic'
loop_
_space_group_symop_operation_xyz
x,y,z
-x,y,1/2-z
-x,-y,-z
x,-y,1/2+z
1/2+x,1/2+y,z
1/2-x,1/2+y,1/2-z
1/2-x,1/2-y,-z
1/2+x,1/2-y,1/2+z
loop_
_atom_site_type_symbol
_atom_site_label
_atom_site_fract_x
_atom_site_fract_y
_atom_site_fract_z
Si Si1 0.850175 0.908079 0.765282
Si Si2 0.743533 0.180062 0.085303
Si Si3 0.271328 0.850222 0.496985
Si Si4 0.678744 0.369316 0.084964
Si Si5 0.677316 0.584505 0.797554
Si Si6 0.039800 0.976149 0.445404
O O1 0.554032 0.863102 0.614757
O O2 0.099156 0.840646 0.881410
O O3 0.848529 0.981117 0.725714
O O4 0.889595 0.966662 0.830215
O O5 0.599064 0.274529 0.023075
O O6 0.000000 0.173452 0.250000
O O7 0.493146 0.111680 0.961099
O O8 0.250000 0.750000 0.500000
O O9 0.272880 0.922462 0.537577
O O10 0.990981 0.869703 0.327950
O O11 0.589638 0.398853 0.089320
O O12 0.000000 0.363208 0.250000
O O13 0.613271 0.448726 0.018175
O O14 0.500000 0.607860 0.750000
#
# Coordination Sequence:
#
# PCOD9295266 Si02
#       6
#     8   8   8   8   8   8
#     4  11  24  45  69 100 139 181 228 283 350 405
#     4  11  25  42  71 106 137 180 231 287 336 417
#     4  11  26  42  67 102 136 175 227 286 338 409
#     4  10  23  42  67  97 133 180 230 279 342 414
#     4  11  24  44  69 100 138 179 222 279 345 407
#     4  10  23  44  68  94 137 183 225 284 345 416
#
# _framework density 21.640564999999999
#
# number of rings (size 3 to 8) (size 9 to 14) (size 15 to 20)
#    0.000    1.333    0.000    4.500    9.333    4.000 
#    0.000    0.000    0.000    0.000    0.000    0.000 
#    0.000    0.000    0.000    0.000    0.000    0.000 
#
# Total GULP energy -133772.712155 kJ/mol
# GULP energy per Si atom -5573.863006 kJ/mol
# Density = 2.159131 g / cm^3
# Si number density = 21.640565 Si / 1000 Ang^3
#
#
#
# Elastic Constant Matrix: (Units=GPa)
#
#
# Indices 1 2 3 4 5 6 
#
# 1 90.4408 26.2839 31.8004 0.0300 6.1685 -0.0199
# 2 26.2839 111.9488 19.2180 0.0115 -6.7775 -0.0586
# 3 31.8004 19.2180 77.2532 -0.0214 18.9612 -0.0741
# 4 0.0300 0.0115 -0.0214 28.3950 -0.0668 7.5409
# 5 6.1685 -6.7775 18.9612 -0.0668 25.8767 0.0116
# 6 -0.0199 -0.0586 -0.0741 7.5409 0.0116 29.1710
#
#
#
# Elastic Compliance Matrix: (Units=1/GPa)
#
#
# Indices 1 2 3 4 5 6 
#
# 1 0.013478 -0.002335 -0.004912 -0.000017 -0.000225 -0.000004
# 2 -0.002335 0.010311 -0.002930 0.000007 0.005405 0.000008
# 3 -0.004912 -0.002930 0.019017 -0.000025 -0.013531 0.000051
# 4 -0.000017 0.000007 -0.000025 0.037814 0.000126 -0.009775
# 5 -0.000225 0.005405 -0.013531 0.000126 0.050029 -0.000076
# 6 -0.000004 0.000008 0.000051 -0.009775 -0.000076 0.036808
#
#
# Mechanical properties :
#
#
# Convention : Reuss Voigt Hill
#
# Bulk Modulus (GPa) = 44.54114 48.24972 46.39543
# Shear Modulus (GPa) = 25.60232 30.17791 27.89012
#
# Velocity S-wave (km/s) = 3.44331 3.73836 3.59387
# Velocity P-wave (km/s) = 6.03618 6.40142 6.22148
#
# Compressibility (1/GPa) = 0.02245115
#
# Stress axis : x y z
#
# Youngs Moduli (GPa) = 74.19502 96.98293 52.58578
#
# Poissons Ratio (x) = 0.22644 0.25830
# Poissons Ratio (y) = 0.17323 0.15410
# Poissons Ratio (z) = 0.36444 0.28420
#
# Static dielectric constant tensor:
#      x y z
#    x 2.008650 0.000840 -0.059200 
#    y 0.000840 1.989310 -0.000270 
#    z -0.059200 -0.000270 1.803440 
# 
# From -- ./inp_files/314166.got.cif
#   From: 2010.05.17/outbox.cif.g08.bks.cpg/sg15_158_cif.got.tgz:314166.got - 2010.06.03 18:47:42.
