data_PCOD9295976
_publ_section_title
;
Structure prediction by ZEFSAII (Michael W. Deem and Ramdas Pophale) SiO2 
 PCOD9295976
Probable space group: C 2/C
;
_chemical_formula_sum "Si O2"
_cell_formula_units_Z 44
_cell_length_a 6.715571
_cell_length_b 20.446517
_cell_length_c 14.005052
_cell_angle_alpha 90.000000
_cell_angle_beta 111.972462
_cell_angle_gamma 90.000000
_cell_volume 1783.352295
_symmetry_space_group_name_H-M "C 2/C"
_symmetry_group_IT_number 15
_symmetry_cell_setting 'monoclinic'
loop_
_space_group_symop_operation_xyz
x,y,z
-x,y,1/2-z
-x,-y,-z
x,-y,1/2+z
1/2+x,1/2+y,z
1/2-x,1/2+y,1/2-z
1/2-x,1/2-y,-z
1/2+x,1/2-y,1/2+z
loop_
_atom_site_type_symbol
_atom_site_label
_atom_site_fract_x
_atom_site_fract_y
_atom_site_fract_z
Si Si1 0.451039 0.086451 0.030298
Si Si2 0.005758 0.941414 0.143814
Si Si3 0.000000 0.212523 0.250000
Si Si4 0.573832 0.292588 0.126071
Si Si5 0.910000 0.538055 0.630195
Si Si6 0.775715 0.195762 0.393711
O O1 0.395580 0.147857 0.085983
O O2 0.525492 0.026714 0.109991
O O3 0.588415 0.089962 0.957135
O O4 0.222874 0.066706 0.944163
O O5 0.098925 0.867363 0.161996
O O6 0.168157 0.982312 0.110024
O O7 0.000000 0.966147 0.250000
O O8 0.801362 0.255970 0.174132
O O9 0.884009 0.173672 0.314729
O O10 0.369094 0.260576 0.145684
O O11 0.471344 0.291949 0.001367
O O12 0.000000 0.557878 0.750000
#
# Coordination Sequence:
#
# PCOD9295976 Si02
#       6
#     8   8   4   8   8   8
#     4  10  24  44  63  90 130 164 213 264 314 381
#     4  11  21  39  64  96 125 162 211 263 314 377
#     4  12  22  38  64  98 126 176 214 254 332 384
#     4  10  24  40  64  93 133 166 213 271 317 384
#     4  11  23  41  66  93 123 169 209 260 324 378
#     4  10  23  44  62  93 133 172 214 267 320 387
#
# _framework density 24.672636000000001
#
# number of rings (size 3 to 8) (size 9 to 14) (size 15 to 20)
#    0.000    1.455    1.818    2.727    1.273    8.727 
#    1.636    1.818    0.000    0.000    0.000    0.000 
#    0.000    0.000    0.000    0.000    0.000    0.000 
#
# Total GULP energy -122888.291464 kJ/mol
# GULP energy per Si atom -5585.831430 kJ/mol
# Density = 2.461648 g / cm^3
# Si number density = 24.672636 Si / 1000 Ang^3
#
#
#
# Elastic Constant Matrix: (Units=GPa)
#
#
# Indices 1 2 3 4 5 6 
#
# 1 99.1671 10.3635 51.3497 0.0000 -18.7207 0.0000
# 2 10.3635 50.7233 22.5267 0.0000 -8.8946 0.0000
# 3 51.3497 22.5267 127.9189 0.0000 -30.2512 0.0000
# 4 0.0000 0.0000 0.0000 16.0471 0.0000 3.2670
# 5 -18.7207 -8.8946 -30.2512 0.0000 67.6048 0.0000
# 6 0.0000 0.0000 0.0000 3.2670 0.0000 24.0877
#
#
#
# Elastic Compliance Matrix: (Units=1/GPa)
#
#
# Indices 1 2 3 4 5 6 
#
# 1 0.012850 -0.000257 -0.004786 0.000000 0.001383 0.000000
# 2 -0.000257 0.021489 -0.003388 0.000000 0.001240 0.000000
# 3 -0.004786 -0.003388 0.011090 0.000000 0.003191 0.000000
# 4 0.000000 0.000000 0.000000 0.064086 0.000000 -0.008692
# 5 0.001383 0.001240 0.003191 0.000000 0.016766 0.000000
# 6 0.000000 0.000000 0.000000 -0.008692 0.000000 0.042694
#
#
# Mechanical properties :
#
#
# Convention : Reuss Voigt Hill
#
# Bulk Modulus (GPa) = 35.00512 49.58768 42.29640
# Shear Modulus (GPa) = 25.59376 34.45255 30.02316
#
# Velocity S-wave (km/s) = 3.22426 3.74088 3.49214
# Velocity P-wave (km/s) = 5.29904 6.22903 5.78276
#
# Compressibility (1/GPa) = 0.02856725
#
# Stress axis : x y z
#
# Youngs Moduli (GPa) = 77.81982 46.53466 90.17151
#
# Poissons Ratio (x) = 0.01198 0.43156
# Poissons Ratio (y) = 0.02004 0.30547
# Poissons Ratio (z) = 0.37245 0.15764
#
# Static dielectric constant tensor:
#      x y z
#    x 1.999570 0.000000 -0.065670 
#    y 0.000000 1.990360 0.000000 
#    z -0.065670 0.000000 2.048300 
# 
# From -- ./inp_files/129475.got.cif
#   From: 2010.05.17/outbox.cif.g08.bks.cpg/sg15_65_cif.got.tgz:129475.got - 2010.06.03 18:47:42.
