data_PCOD9295507
_publ_section_title
;
Structure prediction by ZEFSAII (Michael W. Deem and Ramdas Pophale) SiO2 
 PCOD9295507
Probable space group: C 2/C
;
_chemical_formula_sum "Si O2"
_cell_formula_units_Z 40
_cell_length_a 8.993595
_cell_length_b 13.287487
_cell_length_c 17.233900
_cell_angle_alpha 90.000000
_cell_angle_beta 99.617545
_cell_angle_gamma 90.000000
_cell_volume 2030.543991
_symmetry_space_group_name_H-M "C 2/C"
_symmetry_group_IT_number 15
_symmetry_cell_setting 'monoclinic'
loop_
_space_group_symop_operation_xyz
x,y,z
-x,y,1/2-z
-x,-y,-z
x,-y,1/2+z
1/2+x,1/2+y,z
1/2-x,1/2+y,1/2-z
1/2-x,1/2-y,-z
1/2+x,1/2-y,1/2+z
loop_
_atom_site_type_symbol
_atom_site_label
_atom_site_fract_x
_atom_site_fract_y
_atom_site_fract_z
Si Si1 0.214380 0.156725 0.321701
Si Si2 0.882848 0.078624 0.340132
Si Si3 0.853923 0.153114 0.513136
Si Si4 0.333431 0.036883 0.467482
Si Si5 0.816837 0.863276 0.394357
O O1 0.225575 0.132170 0.231768
O O2 0.329727 0.100295 0.388408
O O3 0.229184 0.274053 0.343566
O O4 0.052601 0.109585 0.331677
O O5 0.868548 0.116025 0.426343
O O6 0.845949 0.960160 0.342230
O O7 0.750000 0.250000 0.500000
O O8 0.017894 0.172369 0.563174
O O9 0.773799 0.060613 0.550044
O O10 0.270167 0.101312 0.535001
O O11 0.500000 0.000000 0.500000
#
# Coordination Sequence:
#
# PCOD9295507 Si02
#       5
#     8   8   8   8   8
#     4  11  22  41  68  91 130 170 209 271 339 370
#     4  10  23  43  61  97 128 164 218 267 327 385
#     4  11  22  40  66  94 127 170 218 263 320 395
#     4  11  22  39  65  97 126 168 217 263 318 398
#     4  11  22  44  64  91 130 167 214 269 318 394
#
# _framework density 19.699154
#
# number of rings (size 3 to 8) (size 9 to 14) (size 15 to 20)
#    0.000    1.200    4.000    3.000    2.800    1.600 
#    3.600    7.000    0.000    0.000    0.000    0.000 
#    0.000    0.000    0.000    0.000    0.000    0.000 
#
# Total GULP energy -111709.046247 kJ/mol
# GULP energy per Si atom -5585.452312 kJ/mol
# Density = 1.965432 g / cm^3
# Si number density = 19.699154 Si / 1000 Ang^3
#
#
#
# Elastic Constant Matrix: (Units=GPa)
#
#
# Indices 1 2 3 4 5 6 
#
# 1 71.7893 13.5339 9.9304 0.0000 18.0194 0.0000
# 2 13.5339 112.1616 41.4537 0.0000 14.8053 0.0000
# 3 9.9304 41.4537 64.8832 0.0000 25.8499 0.0000
# 4 0.0000 0.0000 0.0000 29.6484 0.0000 5.7886
# 5 18.0194 14.8053 25.8499 0.0000 21.6216 0.0000
# 6 0.0000 0.0000 0.0000 5.7886 0.0000 16.1259
#
#
#
# Elastic Compliance Matrix: (Units=1/GPa)
#
#
# Indices 1 2 3 4 5 6 
#
# 1 0.019310 -0.002105 0.008071 0.000000 -0.024301 0.000000
# 2 -0.002105 0.011937 -0.009064 0.000000 0.004418 0.000000
# 3 0.008071 -0.009064 0.038526 0.000000 -0.046580 0.000000
# 4 0.000000 0.000000 0.000000 0.036271 0.000000 -0.013020
# 5 -0.024301 0.004418 -0.046580 0.000000 0.119167 0.000000
# 6 0.000000 0.000000 0.000000 -0.013020 0.000000 0.066686
#
#
# Mechanical properties :
#
#
# Convention : Reuss Voigt Hill
#
# Bulk Modulus (GPa) = 15.72920 42.07446 28.90183
# Shear Modulus (GPa) = 15.66006 25.74027 20.70016
#
# Velocity S-wave (km/s) = 2.82256 3.61871 3.24514
# Velocity P-wave (km/s) = 4.31561 6.23418 5.36141
#
# Compressibility (1/GPa) = 0.06357604
#
# Stress axis : x y z
#
# Youngs Moduli (GPa) = 51.78748 83.77590 25.95655
#
# Poissons Ratio (x) = 0.17638 -0.20951
# Poissons Ratio (y) = 0.10903 0.23527
# Poissons Ratio (z) = -0.41800 0.75936
#
# Static dielectric constant tensor:
#      x y z
#    x 1.583740 0.000000 0.089410 
#    y 0.000000 2.251600 0.000000 
#    z 0.089410 0.000000 1.638820 
# 
# From -- ./inp_files/187774.got.cif
#   From: 2010.05.17/outbox.cif.g08.bks.cpg/sg15_94_cif.got.tgz:187774.got - 2010.06.03 18:47:42.
