data_PCOD9295631
_publ_section_title
;
Structure prediction by ZEFSAII (Michael W. Deem and Ramdas Pophale) SiO2 
 PCOD9295631
Probable space group: C 2/C
;
_chemical_formula_sum "Si O2"
_cell_formula_units_Z 64
_cell_length_a 8.927874
_cell_length_b 23.858286
_cell_length_c 14.512688
_cell_angle_alpha 90.000000
_cell_angle_beta 66.052115
_cell_angle_gamma 90.000000
_cell_volume 2825.146512
_symmetry_space_group_name_H-M "C 2/C"
_symmetry_group_IT_number 15
_symmetry_cell_setting 'monoclinic'
loop_
_space_group_symop_operation_xyz
x,y,z
-x,y,1/2-z
-x,-y,-z
x,-y,1/2+z
1/2+x,1/2+y,z
1/2-x,1/2+y,1/2-z
1/2-x,1/2-y,-z
1/2+x,1/2-y,1/2+z
loop_
_atom_site_type_symbol
_atom_site_label
_atom_site_fract_x
_atom_site_fract_y
_atom_site_fract_z
Si Si1 0.796476 0.539558 0.050581
Si Si2 0.165895 0.813917 0.766505
Si Si3 0.105263 0.755084 0.961708
Si Si4 0.149845 0.133145 0.520230
Si Si5 0.177638 0.472501 0.175417
Si Si6 0.810645 0.932029 0.313479
Si Si7 0.930999 0.069380 0.118782
Si Si8 0.977054 0.649375 0.074371
O O1 0.793314 0.479919 0.104837
O O2 0.611208 0.560136 0.109616
O O3 0.912281 0.588604 0.059950
O O4 0.821468 0.535712 0.934214
O O5 0.172454 0.767508 0.844262
O O6 0.132912 0.873748 0.821796
O O7 0.338150 0.822733 0.672739
O O8 0.000000 0.802336 0.750000
O O9 0.250000 0.750000 0.000000
O O10 0.036365 0.814741 0.017109
O O11 0.001457 0.698550 0.992171
O O12 0.175475 0.120952 0.621224
O O13 0.071272 0.078900 0.491366
O O14 0.337343 0.139699 0.435198
O O15 0.226064 0.423096 0.235200
O O16 0.309344 0.519437 0.168017
O O17 0.000000 0.492773 0.250000
O O18 0.000000 0.948738 0.250000
#
# Coordination Sequence:
#
# PCOD9295631 Si02
#       8
#     8   8   8   8   8   8   8   8
#     4  12  24  44  67  99 146 182 236 302 349 437
#     4  11  23  42  71 101 129 179 246 291 356 434
#     4   9  23  47  68 101 138 175 234 305 365 420
#     4  10  23  43  66  97 137 182 234 286 358 423
#     4  12  26  38  64 101 144 185 238 288 362 436
#     4  12  24  42  66 100 146 195 232 284 366 448
#     4  11  22  40  63  95 136 180 230 288 347 420
#     4  11  24  44  74  99 137 180 236 310 353 415
#
# _framework density 22.653691999999999
#
# number of rings (size 3 to 8) (size 9 to 14) (size 15 to 20)
#    0.000    1.000    3.750    2.625    3.500    5.500 
#    4.500    3.125    0.000    0.000    0.000    0.000 
#    0.000    0.000    0.000    0.000    0.000    0.000 
#
# Total GULP energy -178640.891907 kJ/mol
# GULP energy per Si atom -5582.527872 kJ/mol
# Density = 2.260213 g / cm^3
# Si number density = 22.653692 Si / 1000 Ang^3
#
#
#
# Elastic Constant Matrix: (Units=GPa)
#
#
# Indices 1 2 3 4 5 6 
#
# 1 91.9605 12.8102 17.2805 0.0000 -4.3549 0.0000
# 2 12.8102 52.9978 16.3755 0.0000 -14.8023 0.0000
# 3 17.2805 16.3755 112.6102 0.0000 -0.6399 0.0000
# 4 0.0000 0.0000 0.0000 29.3044 0.0000 10.6379
# 5 -4.3549 -14.8023 -0.6399 0.0000 35.6563 0.0000
# 6 0.0000 0.0000 0.0000 10.6379 0.0000 21.2700
#
#
#
# Elastic Compliance Matrix: (Units=1/GPa)
#
#
# Indices 1 2 3 4 5 6 
#
# 1 0.011473 -0.002200 -0.001438 0.000000 0.000462 0.000000
# 2 -0.002200 0.022869 -0.002936 0.000000 0.009173 0.000000
# 3 -0.001438 -0.002936 0.009521 0.000000 -0.001224 0.000000
# 4 0.000000 0.000000 0.000000 0.041694 0.000000 -0.020853
# 5 0.000462 0.009173 -0.001224 0.000000 0.031888 0.000000
# 6 0.000000 0.000000 0.000000 -0.020853 0.000000 0.057444
#
#
# Mechanical properties :
#
#
# Convention : Reuss Voigt Hill
#
# Bulk Modulus (GPa) = 32.55654 38.94453 35.75054
# Shear Modulus (GPa) = 25.21749 31.31964 28.26857
#
# Velocity S-wave (km/s) = 3.34005 3.72229 3.53633
# Velocity P-wave (km/s) = 5.41084 5.97515 5.69998
#
# Compressibility (1/GPa) = 0.03071580
#
# Stress axis : x y z
#
# Youngs Moduli (GPa) = 87.16290 43.72636 105.03267
#
# Poissons Ratio (x) = 0.09618 0.15104
# Poissons Ratio (y) = 0.19173 0.30837
# Poissons Ratio (z) = 0.12534 0.12838
#
# Static dielectric constant tensor:
#      x y z
#    x 1.833790 0.000000 0.037250 
#    y 0.000000 2.066800 0.000000 
#    z 0.037250 0.000000 1.959660 
# 
# From -- ./inp_files/138580.got.cif
#   From: 2010.05.17/outbox.cif.g08.bks.cpg/sg15_70_cif.got.tgz:138580.got - 2010.06.03 18:47:42.
