data_PCOD9295669
_publ_section_title
;
Structure prediction by ZEFSAII (Michael W. Deem and Ramdas Pophale) SiO2 
 PCOD9295669
Probable space group: C 2/C
;
_chemical_formula_sum "Si O2"
_cell_formula_units_Z 56
_cell_length_a 13.538326
_cell_length_b 23.328386
_cell_length_c 13.229473
_cell_angle_alpha 90.000000
_cell_angle_beta 46.188197
_cell_angle_gamma 90.000000
_cell_volume 3015.083471
_symmetry_space_group_name_H-M "C 2/C"
_symmetry_group_IT_number 15
_symmetry_cell_setting 'monoclinic'
loop_
_space_group_symop_operation_xyz
x,y,z
-x,y,1/2-z
-x,-y,-z
x,-y,1/2+z
1/2+x,1/2+y,z
1/2-x,1/2+y,1/2-z
1/2-x,1/2-y,-z
1/2+x,1/2-y,1/2+z
loop_
_atom_site_type_symbol
_atom_site_label
_atom_site_fract_x
_atom_site_fract_y
_atom_site_fract_z
Si Si1 0.272763 0.983345 0.400874
Si Si2 0.534396 0.836775 0.967574
Si Si3 0.594541 0.737520 0.083541
Si Si4 0.519345 0.042735 0.579845
Si Si5 0.466722 0.605213 0.392843
Si Si6 0.766750 0.111219 0.155580
Si Si7 0.146722 0.697143 0.085697
O O1 0.344205 0.978139 0.459634
O O2 0.389127 0.960912 0.243873
O O3 0.139825 0.943283 0.496506
O O4 0.254277 0.047839 0.374666
O O5 0.658454 0.858825 0.808693
O O6 0.406309 0.826522 0.984175
O O7 0.555888 0.779569 0.018417
O O8 0.523598 0.891111 0.047544
O O9 0.500000 0.747350 0.250000
O O10 0.587530 0.670304 0.062428
O O11 0.750000 0.750000 0.000000
O O12 0.500000 0.000000 0.500000
O O13 0.500000 0.595071 0.250000
O O14 0.596686 0.606355 0.374912
O O15 0.740887 0.151411 0.077404
O O16 0.000000 0.708278 0.250000
O O17 0.250000 0.750000 0.000000
#
# Coordination Sequence:
#
# PCOD9295669 Si02
#       7
#     8   8   8   8   8   8   8
#     4  11  24  39  66  93 128 167 219 265 325 392
#     4  11  22  40  68  93 126 170 215 267 329 388
#     4  11  24  40  64  95 130 168 214 267 331 395
#     4  11  22  39  64  95 127 162 216 272 318 384
#     4  11  24  43  62  93 134 171 212 270 333 397
#     4  11  22  43  65  90 129 171 210 268 330 388
#     4  10  23  43  67  94 129 172 219 269 328 393
#
# _framework density 18.573283
#
# number of rings (size 3 to 8) (size 9 to 14) (size 15 to 20)
#    0.000    1.143    1.429    5.571    8.000    1.143 
#    2.571    0.714    0.000    0.000    0.000    0.000 
#    0.000    0.000    0.000    0.000    0.000    0.000 
#
# Total GULP energy -156082.187791 kJ/mol
# GULP energy per Si atom -5574.363850 kJ/mol
# Density = 1.853101 g / cm^3
# Si number density = 18.573283 Si / 1000 Ang^3
#
#
#
# Elastic Constant Matrix: (Units=GPa)
#
#
# Indices 1 2 3 4 5 6 
#
# 1 309.6655 238.1206 70.5112 0.0000 -41.2631 0.0000
# 2 238.1206 378.4543 78.9206 0.0000 -41.2874 0.0000
# 3 70.5112 78.9206 59.8742 0.0000 -13.6910 0.0000
# 4 0.0000 0.0000 0.0000 46.6863 0.0000 -0.2336
# 5 -41.2631 -41.2874 -13.6910 0.0000 35.8296 0.0000
# 6 0.0000 0.0000 0.0000 -0.2336 0.0000 41.1078
#
#
#
# Elastic Compliance Matrix: (Units=1/GPa)
#
#
# Indices 1 2 3 4 5 6 
#
# 1 0.006923 -0.003417 -0.002987 0.000000 0.002893 0.000000
# 2 -0.003417 0.005564 -0.003006 0.000000 0.001328 0.000000
# 3 -0.002987 -0.003006 0.024767 0.000000 0.002560 0.000000
# 4 0.000000 0.000000 0.000000 0.021420 0.000000 0.000122
# 5 0.002893 0.001328 0.002560 0.000000 0.033750 0.000000
# 6 0.000000 0.000000 0.000000 0.000122 0.000000 0.024327
#
#
# Mechanical properties :
#
#
# Convention : Reuss Voigt Hill
#
# Bulk Modulus (GPa) = 54.24926 169.23319 111.74123
# Shear Modulus (GPa) = 35.28200 48.75419 42.01809
#
# Velocity S-wave (km/s) = 4.36318 5.12900 4.76151
# Velocity P-wave (km/s) = 7.39289 11.24232 9.51432
#
# Compressibility (1/GPa) = 0.01843343
#
# Stress axis : x y z
#
# Youngs Moduli (GPa) = 144.45549 179.72294 40.37655
#
# Poissons Ratio (x) = 0.61414 0.12059
# Poissons Ratio (y) = 0.49363 0.12138
# Poissons Ratio (z) = 0.43143 0.54030
#
# Static dielectric constant tensor:
#      x y z
#    x 2.219530 0.000000 1.324690 
#    y 0.000000 1.839160 0.000000 
#    z 1.324690 0.000000 4.633750 
# 
# From -- ./inp_files/156159.got.cif
#   From: 2010.05.17/outbox.cif.g08.bks.cpg/sg15_79_cif.got.tgz:156159.got - 2010.06.03 18:47:42.
