data_PCOD9295132
_publ_section_title
;
Structure prediction by ZEFSAII (Michael W. Deem and Ramdas Pophale) SiO2 
 PCOD9295132
Probable space group: C 2/C
;
_chemical_formula_sum "Si O2"
_cell_formula_units_Z 64
_cell_length_a 30.604671
_cell_length_b 18.965676
_cell_length_c 9.768365
_cell_angle_alpha 90.000000
_cell_angle_beta 37.528202
_cell_angle_gamma 90.000000
_cell_volume 3453.850174
_symmetry_space_group_name_H-M "C 2/C"
_symmetry_group_IT_number 15
_symmetry_cell_setting 'monoclinic'
loop_
_space_group_symop_operation_xyz
x,y,z
-x,y,1/2-z
-x,-y,-z
x,-y,1/2+z
1/2+x,1/2+y,z
1/2-x,1/2+y,1/2-z
1/2-x,1/2-y,-z
1/2+x,1/2-y,1/2+z
loop_
_atom_site_type_symbol
_atom_site_label
_atom_site_fract_x
_atom_site_fract_y
_atom_site_fract_z
Si Si1 0.310271 0.562640 0.323846
Si Si2 0.570847 0.683186 0.485523
Si Si3 0.415352 0.852266 0.470860
Si Si4 0.186641 0.926069 0.357931
Si Si5 0.849554 0.570607 0.894025
Si Si6 0.582916 0.157900 0.005499
Si Si7 0.151260 0.406137 0.598553
Si Si8 0.069115 0.194685 0.169222
O O1 0.368080 0.624133 0.155930
O O2 0.334770 0.492653 0.182100
O O3 0.304114 0.552621 0.504102
O O4 0.232117 0.580905 0.454569
O O5 0.600630 0.759371 0.457188
O O6 0.550611 0.692281 0.376060
O O7 0.500000 0.666794 0.750000
O O8 0.500000 0.870394 0.250000
O O9 0.365580 0.905647 0.508593
O O10 0.389677 0.858610 0.690133
O O11 0.407055 0.773392 0.432615
O O12 0.130165 0.863035 0.492907
O O13 0.263055 0.901023 0.109653
O O14 0.900608 0.620260 0.677748
O O15 0.867000 0.488319 0.832755
O O16 0.500000 0.152309 0.250000
O O17 0.627986 0.117411 0.006680
O O18 0.000000 0.177929 0.250000
#
# Coordination Sequence:
#
# PCOD9295132 Si02
#       8
#     8   8   8   8   8   8   8   8
#     4  10  23  42  65  92 123 157 200 252 305 363
#     4  10  23  42  65  92 121 159 203 248 304 365
#     4  11  24  40  60  89 126 163 204 250 301 354
#     4  10  23  43  64  92 123 157 201 251 306 362
#     4  11  22  40  61  88 122 163 203 249 301 353
#     4  11  22  38  61  90 120 159 205 249 294 355
#     4  11  24  38  60  91 124 159 206 249 296 357
#     4  10  23  43  64  90 125 159 198 252 305 362
#
# _framework density 18.530045000000001
#
# number of rings (size 3 to 8) (size 9 to 14) (size 15 to 20)
#    0.000    1.500    2.500    1.500   10.500    6.500 
#    0.000    2.500    0.000    0.000    0.000    0.000 
#    0.000    0.000    0.000    0.000    0.000    0.000 
#
# Total GULP energy -178725.348119 kJ/mol
# GULP energy per Si atom -5585.167129 kJ/mol
# Density = 1.848787 g / cm^3
# Si number density = 18.530045 Si / 1000 Ang^3
#
#
#
# Elastic Constant Matrix: (Units=GPa)
#
#
# Indices 1 2 3 4 5 6 
#
# 1 64.4784 36.2510 -5.8384 0.0000 -6.7767 0.0000
# 2 36.2510 79.3692 40.7606 0.0000 -18.5262 0.0000
# 3 -5.8384 40.7606 68.1732 0.0000 -3.0696 0.0000
# 4 0.0000 0.0000 0.0000 34.9020 0.0000 22.2788
# 5 -6.7767 -18.5262 -3.0696 0.0000 12.8816 0.0000
# 6 0.0000 0.0000 0.0000 22.2788 0.0000 89.9579
#
#
#
# Elastic Compliance Matrix: (Units=1/GPa)
#
#
# Indices 1 2 3 4 5 6 
#
# 1 0.031272 -0.028803 0.018979 0.000000 -0.020451 0.000000
# 2 -0.028803 0.056707 -0.033744 0.000000 0.058362 0.000000
# 3 0.018979 -0.033744 0.035110 0.000000 -0.030179 0.000000
# 4 0.000000 0.000000 0.000000 0.034032 0.000000 -0.008428
# 5 -0.020451 0.058362 -0.030179 0.000000 0.143615 0.000000
# 6 0.000000 0.000000 0.000000 -0.008428 0.000000 0.013204
#
#
# Mechanical properties :
#
#
# Convention : Reuss Voigt Hill
#
# Bulk Modulus (GPa) = 27.81455 39.37414 33.59435
# Shear Modulus (GPa) = 12.10477 36.93814 24.52145
#
# Velocity S-wave (km/s) = 2.55865 4.46962 3.64171
# Velocity P-wave (km/s) = 4.87566 6.92326 5.98764
#
# Compressibility (1/GPa) = 0.03595240
#
# Stress axis : x y z
#
# Youngs Moduli (GPa) = 31.97753 17.63452 28.48157
#
# Poissons Ratio (x) = 0.50793 -0.54055
# Poissons Ratio (y) = 0.92106 0.96108
# Poissons Ratio (z) = -0.60689 0.59506
#
# Static dielectric constant tensor:
#      x y z
#    x 1.594290 0.000000 0.000800 
#    y 0.000000 1.622330 0.000000 
#    z 0.000800 0.000000 1.615780 
# 
# From -- ./inp_files/70576.got.cif
#   From: 2010.05.17/outbox.cif.g08.bks.cpg/sg15_36_cif.got.tgz:70576.got - 2010.06.03 18:47:42.
