data_PCOD9295969
_publ_section_title
;
Structure prediction by ZEFSAII (Michael W. Deem and Ramdas Pophale) SiO2 
 PCOD9295969
Probable space group: C 2/C
;
_chemical_formula_sum "Si O2"
_cell_formula_units_Z 44
_cell_length_a 17.626969
_cell_length_b 5.578276
_cell_length_c 24.626869
_cell_angle_alpha 90.000000
_cell_angle_beta 61.080979
_cell_angle_gamma 90.000000
_cell_volume 2119.560277
_symmetry_space_group_name_H-M "C 2/C"
_symmetry_group_IT_number 15
_symmetry_cell_setting 'monoclinic'
loop_
_space_group_symop_operation_xyz
x,y,z
-x,y,1/2-z
-x,-y,-z
x,-y,1/2+z
1/2+x,1/2+y,z
1/2-x,1/2+y,1/2-z
1/2-x,1/2-y,-z
1/2+x,1/2-y,1/2+z
loop_
_atom_site_type_symbol
_atom_site_label
_atom_site_fract_x
_atom_site_fract_y
_atom_site_fract_z
Si Si1 0.500000 0.719402 0.250000
Si Si2 0.002419 0.616787 0.940120
Si Si3 0.313228 0.759674 0.095245
Si Si4 0.502258 0.885553 0.831514
Si Si5 0.181956 0.234177 0.974811
Si Si6 0.632282 0.667596 0.704479
O O1 0.493856 0.851909 0.195117
O O2 0.406103 0.596231 0.285862
O O3 0.094457 0.749019 0.906118
O O4 0.998950 0.408524 0.896323
O O5 0.000000 0.500000 0.000000
O O6 0.915612 0.773104 0.966998
O O7 0.304309 0.512332 0.063951
O O8 0.232370 0.784355 0.163864
O O9 0.310977 0.011848 0.061239
O O10 0.585491 0.761604 0.775261
O O11 0.417981 0.782417 0.830094
O O12 0.250000 0.250000 0.000000
#
# Coordination Sequence:
#
# PCOD9295969 Si02
#       6
#     4   8   8   8   8   8
#     4   8  18  36  62  94 114 162 218 272 308 386
#     4  10  23  44  61  92 136 172 210 265 332 393
#     4  11  24  42  63  97 133 166 213 278 321 388
#     4   9  19  40  65  89 125 168 216 266 324 383
#     4  11  24  42  68  94 126 178 224 262 314 386
#     4   9  20  38  65  94 122 161 225 268 322 376
#
# _framework density 20.759022000000002
#
# number of rings (size 3 to 8) (size 9 to 14) (size 15 to 20)
#    0.000    2.545    0.000    2.182    7.636    1.455 
#   22.909    0.000    0.000    0.000    0.000    0.000 
#    0.000    0.000    0.000    0.000    0.000    0.000 
#
# Total GULP energy -122471.360633 kJ/mol
# GULP energy per Si atom -5566.880029 kJ/mol
# Density = 2.071177 g / cm^3
# Si number density = 20.759022 Si / 1000 Ang^3
#
#
#
# Elastic Constant Matrix: (Units=GPa)
#
#
# Indices 1 2 3 4 5 6 
#
# 1 88.4810 -1.8191 26.5758 -0.0981 -30.0229 -0.0144
# 2 -1.8191 67.6862 0.2539 -0.2235 -1.4041 -0.0047
# 3 26.5758 0.2539 81.9732 -0.1444 -5.8439 -0.0013
# 4 -0.0981 -0.2235 -0.1444 79.4664 -0.0082 -14.0323
# 5 -30.0229 -1.4041 -5.8439 -0.0082 54.4124 -0.0063
# 6 -0.0144 -0.0047 -0.0013 -14.0323 -0.0063 32.6602
#
#
#
# Elastic Compliance Matrix: (Units=1/GPa)
#
#
# Indices 1 2 3 4 5 6 
#
# 1 0.015359 0.000596 -0.004410 0.000016 0.008016 0.000015
# 2 0.000596 0.014805 -0.000190 0.000046 0.000690 0.000022
# 3 -0.004410 -0.000190 0.013559 0.000020 -0.000982 0.000007
# 4 0.000016 0.000046 0.000020 0.013617 0.000015 0.005851
# 5 0.008016 0.000690 -0.000982 0.000015 0.022714 0.000014
# 6 0.000015 0.000022 0.000007 0.005851 0.000014 0.033132
#
#
# Mechanical properties :
#
#
# Convention : Reuss Voigt Hill
#
# Bulk Modulus (GPa) = 27.99872 32.01794 30.00833
# Shear Modulus (GPa) = 37.56615 47.51645 42.54130
#
# Velocity S-wave (km/s) = 4.25859 4.78949 4.53182
# Velocity P-wave (km/s) = 6.13983 6.78548 6.47072
#
# Compressibility (1/GPa) = 0.03571592
#
# Stress axis : x y z
#
# Youngs Moduli (GPa) = 65.11020 67.54356 73.74989
#
# Poissons Ratio (x) = -0.04023 0.32521
# Poissons Ratio (y) = -0.03878 0.01399
# Poissons Ratio (z) = 0.28711 0.01281
#
# Static dielectric constant tensor:
#      x y z
#    x 1.709050 -0.000020 -0.027970 
#    y -0.000020 1.846850 -0.000010 
#    z -0.027970 -0.000010 1.729380 
# 
# From -- ./inp_files/246393.got.cif
#   From: 2010.05.17/outbox.cif.g08.bks.cpg/sg15_124_cif.got.tgz:246393.got - 2010.06.03 18:47:42.
