data_PCOD9295829
_publ_section_title
;
Structure prediction by ZEFSAII (Michael W. Deem and Ramdas Pophale) SiO2 
 PCOD9295829
Probable space group: C 2/C
;
_chemical_formula_sum "Si O2"
_cell_formula_units_Z 36
_cell_length_a 12.533458
_cell_length_b 7.385149
_cell_length_c 28.335872
_cell_angle_alpha 90.000000
_cell_angle_beta 150.783850
_cell_angle_gamma 90.000000
_cell_volume 1280.208261
_symmetry_space_group_name_H-M "C 2/C"
_symmetry_group_IT_number 15
_symmetry_cell_setting 'monoclinic'
loop_
_space_group_symop_operation_xyz
x,y,z
-x,y,1/2-z
-x,-y,-z
x,-y,1/2+z
1/2+x,1/2+y,z
1/2-x,1/2+y,1/2-z
1/2-x,1/2-y,-z
1/2+x,1/2-y,1/2+z
loop_
_atom_site_type_symbol
_atom_site_label
_atom_site_fract_x
_atom_site_fract_y
_atom_site_fract_z
Si Si1 0.036316 0.086612 0.855316
Si Si2 0.561390 0.787186 0.034991
Si Si3 0.568716 0.007556 0.680040
Si Si4 0.250000 0.250000 0.500000
Si Si5 0.644137 0.440992 0.121522
O O1 0.757261 0.077774 0.598274
O O2 0.805328 0.024078 0.745263
O O3 0.006146 0.300933 0.854167
O O4 0.046580 0.996530 0.912573
O O5 0.427557 0.833821 0.029392
O O6 0.671652 0.598232 0.094536
O O7 0.437721 0.730510 0.939002
O O8 0.388524 0.149367 0.596710
O O9 0.652073 0.060068 0.764978
#
# Coordination Sequence:
#
# PCOD9295829 Si02
#       5
#     8   8   8   4   8
#     4  10  23  44  76 104 138 195 247 310 362 448
#     4  11  22  44  74  99 145 187 243 300 379 421
#     4  10  23  43  70 107 146 180 256 300 373 431
#     4  12  26  38  68 108 144 198 228 302 364 448
#     4   9  22  42  73 101 130 194 246 294 365 444
#
# _framework density 28.120424
#
# number of rings (size 3 to 8) (size 9 to 14) (size 15 to 20)
#    1.333    0.444    0.000    4.667    0.000    6.222 
#    0.000    4.444   14.667    0.000    0.000    0.000 
#    0.000    0.000    0.000    0.000    0.000    0.000 
#
# Total GULP energy -100503.436003 kJ/mol
# GULP energy per Si atom -5583.524222 kJ/mol
# Density = 2.805642 g / cm^3
# Si number density = 28.120424 Si / 1000 Ang^3
#
#
#
# Elastic Constant Matrix: (Units=GPa)
#
#
# Indices 1 2 3 4 5 6 
#
# 1 205.5086 21.9043 18.6840 0.0000 -1.2840 0.0000
# 2 21.9043 100.2858 25.3314 0.0000 -2.2485 0.0000
# 3 18.6840 25.3314 198.5952 0.0000 -21.0077 0.0000
# 4 0.0000 0.0000 0.0000 35.6542 0.0001 -3.0369
# 5 -1.2840 -2.2485 -21.0077 0.0001 25.1105 0.0000
# 6 0.0000 0.0000 0.0000 -3.0369 0.0000 36.0658
#
#
#
# Elastic Compliance Matrix: (Units=1/GPa)
#
#
# Indices 1 2 3 4 5 6 
#
# 1 0.005005 -0.001006 -0.000357 0.000000 -0.000132 0.000000
# 2 -0.001006 0.010507 -0.001263 0.000000 -0.000167 0.000000
# 3 -0.000357 -0.001263 0.005723 0.000000 0.004656 0.000000
# 4 0.000000 0.000000 0.000000 0.028250 0.000000 0.002379
# 5 -0.000132 -0.000167 0.004656 0.000000 0.043698 0.000000
# 6 0.000000 0.000000 0.000000 0.002379 0.000000 0.027927
#
#
# Mechanical properties :
#
#
# Convention : Reuss Voigt Hill
#
# Bulk Modulus (GPa) = 62.56904 70.69210 66.63057
# Shear Modulus (GPa) = 37.96860 48.59743 43.28301
#
# Velocity S-wave (km/s) = 3.67851 4.16166 3.92752
# Velocity P-wave (km/s) = 6.35143 6.94883 6.65683
#
# Compressibility (1/GPa) = 0.01598234
#
# Stress axis : x y z
#
# Youngs Moduli (GPa) = 199.80835 95.17855 174.74640
#
# Poissons Ratio (x) = 0.09575 0.06230
# Poissons Ratio (y) = 0.20102 0.22074
# Poissons Ratio (z) = 0.07124 0.12023
#
# Static dielectric constant tensor:
#      x y z
#    x 2.131510 0.000000 -0.004950 
#    y 0.000000 1.967820 0.000000 
#    z -0.004950 0.000000 1.989620 
# 
# From -- ./inp_files/217879.got.cif
#   From: 2010.05.17/outbox.cif.g08.bks.cpg/sg15_109_cif.got.tgz:217879.got - 2010.06.03 18:47:42.
