data_PCOD9295851
_publ_section_title
;
Structure prediction by ZEFSAII (Michael W. Deem and Ramdas Pophale) SiO2 
 PCOD9295851
Probable space group: C 2/C
;
_chemical_formula_sum "Si O2"
_cell_formula_units_Z 36
_cell_length_a 19.223576
_cell_length_b 8.577457
_cell_length_c 10.348872
_cell_angle_alpha 90.000000
_cell_angle_beta 79.585225
_cell_angle_gamma 90.000000
_cell_volume 1678.305809
_symmetry_space_group_name_H-M "C 2/C"
_symmetry_group_IT_number 15
_symmetry_cell_setting 'monoclinic'
loop_
_space_group_symop_operation_xyz
x,y,z
-x,y,1/2-z
-x,-y,-z
x,-y,1/2+z
1/2+x,1/2+y,z
1/2-x,1/2+y,1/2-z
1/2-x,1/2-y,-z
1/2+x,1/2-y,1/2+z
loop_
_atom_site_type_symbol
_atom_site_label
_atom_site_fract_x
_atom_site_fract_y
_atom_site_fract_z
Si Si1 0.569912 0.940932 0.051199
Si Si2 0.560400 0.625372 0.956856
Si Si3 0.704995 0.437771 0.892033
Si Si4 0.791806 0.428022 0.125921
Si Si5 0.500000 0.160965 0.250000
O O1 0.562561 0.046955 0.179917
O O2 0.566972 0.755218 0.067763
O O3 0.500000 0.000000 0.000000
O O4 0.638672 0.983779 0.946703
O O5 0.633886 0.538671 0.909423
O O6 0.534633 0.727582 0.844434
O O7 0.500000 0.500000 0.000000
O O8 0.759821 0.504353 0.768336
O O9 0.691899 0.255716 0.866485
O O10 0.735962 0.445983 0.026804
#
# Coordination Sequence:
#
# PCOD9295851 Si02
#       5
#     8   8   8   8   4
#     4  10  23  43  70  99 133 181 228 287 345 415
#     4  11  25  45  70 105 137 182 238 289 350 418
#     4  11  26  45  73 103 142 184 233 295 352 425
#     4  11  26  46  70 104 144 183 236 290 357 418
#     4  10  24  44  72  96 144 178 238 290 356 412
#
# _framework density 21.450203999999999
#
# number of rings (size 3 to 8) (size 9 to 14) (size 15 to 20)
#    0.000    1.333    0.000    4.000   15.556    4.444 
#    0.000    0.000    0.000    0.000    0.000    0.000 
#    0.000    0.000    0.000    0.000    0.000    0.000 
#
# Total GULP energy -100672.394621 kJ/mol
# GULP energy per Si atom -5592.910812 kJ/mol
# Density = 2.140138 g / cm^3
# Si number density = 21.450204 Si / 1000 Ang^3
#
#
#
# Elastic Constant Matrix: (Units=GPa)
#
#
# Indices 1 2 3 4 5 6 
#
# 1 80.0043 60.0219 26.5124 0.0000 -30.2824 0.0000
# 2 60.0219 193.4905 66.9740 0.0000 -17.8547 0.0000
# 3 26.5124 66.9740 95.2016 0.0000 -14.1386 0.0000
# 4 0.0000 0.0000 0.0000 34.3009 0.0000 3.5190
# 5 -30.2824 -17.8547 -14.1386 0.0000 43.0718 0.0000
# 6 0.0000 0.0000 0.0000 3.5190 0.0000 37.1972
#
#
#
# Elastic Compliance Matrix: (Units=1/GPa)
#
#
# Indices 1 2 3 4 5 6 
#
# 1 0.021463 -0.005377 -0.000299 0.000000 0.012763 0.000000
# 2 -0.005377 0.008251 -0.004584 0.000000 -0.001865 0.000000
# 3 -0.000299 -0.004584 0.014190 0.000000 0.002548 0.000000
# 4 0.000000 0.000000 0.000000 0.029440 0.000000 -0.002785
# 5 0.012763 -0.001865 0.002548 0.000000 0.032254 0.000000
# 6 0.000000 0.000000 0.000000 -0.002785 0.000000 0.027147
#
#
# Mechanical properties :
#
#
# Convention : Reuss Voigt Hill
#
# Bulk Modulus (GPa) = 42.76318 75.07921 58.92119
# Shear Modulus (GPa) = 31.04446 37.25984 34.15215
#
# Velocity S-wave (km/s) = 3.80844 4.17230 3.99452
# Velocity P-wave (km/s) = 6.27043 7.63469 6.98594
#
# Compressibility (1/GPa) = 0.02338461
#
# Stress axis : x y z
#
# Youngs Moduli (GPa) = 46.59138 121.20203 70.46977
#
# Poissons Ratio (x) = 0.65167 0.02109
# Poissons Ratio (y) = 0.25051 0.32303
# Poissons Ratio (z) = 0.01394 0.55558
#
# Static dielectric constant tensor:
#      x y z
#    x 1.771330 0.000000 0.074730 
#    y 0.000000 1.765500 0.000000 
#    z 0.074730 0.000000 1.856350 
# 
# From -- ./inp_files/102635.got.cif
#   From: 2010.05.17/outbox.cif.g08.bks.cpg/sg15_52_cif.got.tgz:102635.got - 2010.06.03 18:47:42.
