data_PCOD9295542
_publ_section_title
;
Structure prediction by ZEFSAII (Michael W. Deem and Ramdas Pophale) SiO2 
 PCOD9295542
Probable space group: C 2/C
;
_chemical_formula_sum "Si O2"
_cell_formula_units_Z 52
_cell_length_a 12.104064
_cell_length_b 14.129054
_cell_length_c 15.448004
_cell_angle_alpha 90.000000
_cell_angle_beta 62.249223
_cell_angle_gamma 90.000000
_cell_volume 2338.033744
_symmetry_space_group_name_H-M "C 2/C"
_symmetry_group_IT_number 15
_symmetry_cell_setting 'monoclinic'
loop_
_space_group_symop_operation_xyz
x,y,z
-x,y,1/2-z
-x,-y,-z
x,-y,1/2+z
1/2+x,1/2+y,z
1/2-x,1/2+y,1/2-z
1/2-x,1/2-y,-z
1/2+x,1/2-y,1/2+z
loop_
_atom_site_type_symbol
_atom_site_label
_atom_site_fract_x
_atom_site_fract_y
_atom_site_fract_z
Si Si1 0.860132 0.363476 0.505320
Si Si2 0.500000 0.940064 0.750000
Si Si3 0.638077 0.744098 0.171967
Si Si4 0.261281 0.944305 0.059788
Si Si5 0.781000 0.426152 0.258684
Si Si6 0.563853 0.806474 0.565954
Si Si7 0.498055 0.403865 0.146108
O O1 0.741289 0.333833 0.608840
O O2 0.867469 0.305842 0.413971
O O3 0.847989 0.473844 0.490672
O O4 0.980645 0.340835 0.516287
O O5 0.529259 0.869405 0.661059
O O6 0.617353 0.006088 0.734081
O O7 0.500000 0.709652 0.250000
O O8 0.685790 0.817935 0.227382
O O9 0.280869 0.941991 0.155733
O O10 0.119513 0.966937 0.084691
O O11 0.298970 0.841912 0.010388
O O12 0.635512 0.440978 0.336928
O O13 0.526499 0.698919 0.596603
O O14 0.500000 0.392832 0.250000
#
# Coordination Sequence:
#
# PCOD9295542 Si02
#       7
#     8   4   8   8   8   8   8
#     4  11  24  43  65 102 133 173 227 277 323 401
#     4  12  24  38  68  96 124 168 220 266 320 384
#     4  11  23  41  69  95 136 176 222 273 337 388
#     4  11  24  41  68  95 131 173 218 273 332 389
#     4  11  22  41  65  94 129 171 217 271 323 393
#     4  12  22  42  65  97 127 169 220 268 325 396
#     4  10  23  43  64  90 135 171 210 268 333 389
#
# _framework density 22.240912000000002
#
# number of rings (size 3 to 8) (size 9 to 14) (size 15 to 20)
#    0.000    0.923    4.615    2.769    0.000    1.846 
#    0.000    3.077    0.000    0.000    0.000    0.000 
#    0.000    0.000    0.000    0.000    0.000    0.000 
#
# Total GULP energy -145358.203578 kJ/mol
# GULP energy per Si atom -5590.700138 kJ/mol
# Density = 2.219029 g / cm^3
# Si number density = 22.240912 Si / 1000 Ang^3
#
#
#
# Elastic Constant Matrix: (Units=GPa)
#
#
# Indices 1 2 3 4 5 6 
#
# 1 131.9711 8.2059 17.4048 0.0000 -10.3087 0.0000
# 2 8.2059 50.2092 6.2332 0.0000 15.0608 0.0000
# 3 17.4048 6.2332 53.2387 0.0000 -6.3335 0.0000
# 4 0.0000 0.0000 0.0000 21.9561 0.0000 -2.9960
# 5 -10.3087 15.0608 -6.3335 0.0000 22.2647 0.0000
# 6 0.0000 0.0000 0.0000 -2.9960 0.0000 21.3294
#
#
#
# Elastic Compliance Matrix: (Units=1/GPa)
#
#
# Indices 1 2 3 4 5 6 
#
# 1 0.008390 -0.002707 -0.001807 0.000000 0.005202 0.000000
# 2 -0.002707 0.027279 -0.004816 0.000000 -0.021076 0.000000
# 3 -0.001807 -0.004816 0.020934 0.000000 0.008376 0.000000
# 4 0.000000 0.000000 0.000000 0.046435 0.000000 0.006523
# 5 0.005202 -0.021076 0.008376 0.000000 0.063962 0.000000
# 6 0.000000 0.000000 0.000000 0.006523 0.000000 0.047800
#
#
# Mechanical properties :
#
#
# Convention : Reuss Voigt Hill
#
# Bulk Modulus (GPa) = 26.35547 33.23409 29.79478
# Shear Modulus (GPa) = 20.31608 26.68172 23.49890
#
# Velocity S-wave (km/s) = 3.02562 3.46738 3.25401
# Velocity P-wave (km/s) = 4.90730 5.56826 5.24819
#
# Compressibility (1/GPa) = 0.03794279
#
# Stress axis : x y z
#
# Youngs Moduli (GPa) = 119.18313 36.65811 47.76809
#
# Poissons Ratio (x) = 0.09925 0.08632
# Poissons Ratio (y) = 0.32267 0.23006
# Poissons Ratio (z) = 0.21538 0.17655
#
# Static dielectric constant tensor:
#      x y z
#    x 1.830730 0.000000 -0.056980 
#    y 0.000000 1.774620 0.000000 
#    z -0.056980 0.000000 1.816560 
# 
# From -- ./inp_files/144181.got.cif
#   From: 2010.05.17/outbox.cif.g08.bks.cpg/sg15_73_cif.got.tgz:144181.got - 2010.06.03 18:47:42.
