data_PCOD9295207
_publ_section_title
;
Structure prediction by ZEFSAII (Michael W. Deem and Ramdas Pophale) SiO2 
 PCOD9295207
Probable space group: C 2/C
;
_chemical_formula_sum "Si O2"
_cell_formula_units_Z 60
_cell_length_a 23.406141
_cell_length_b 9.213691
_cell_length_c 19.501101
_cell_angle_alpha 90.000000
_cell_angle_beta 137.628559
_cell_angle_gamma 90.000000
_cell_volume 2834.262703
_symmetry_space_group_name_H-M "C 2/C"
_symmetry_group_IT_number 15
_symmetry_cell_setting 'monoclinic'
loop_
_space_group_symop_operation_xyz
x,y,z
-x,y,1/2-z
-x,-y,-z
x,-y,1/2+z
1/2+x,1/2+y,z
1/2-x,1/2+y,1/2-z
1/2-x,1/2-y,-z
1/2+x,1/2-y,1/2+z
loop_
_atom_site_type_symbol
_atom_site_label
_atom_site_fract_x
_atom_site_fract_y
_atom_site_fract_z
Si Si1 0.669685 0.143971 0.414700
Si Si2 0.523803 0.237726 0.900051
Si Si3 0.123814 0.464796 0.238608
Si Si4 0.500000 0.324940 0.250000
Si Si5 0.096065 0.693808 0.111479
Si Si6 0.275987 0.698359 0.216401
Si Si7 0.310426 0.162192 0.504784
Si Si8 0.432143 0.478228 0.328418
O O1 0.750000 0.250000 0.500000
O O2 0.664422 0.063243 0.334864
O O3 0.579470 0.225440 0.345886
O O4 0.682207 0.007636 0.475451
O O5 0.503818 0.402071 0.901448
O O6 0.444041 0.154592 0.796973
O O7 0.556292 0.171908 0.001269
O O8 0.597324 0.229957 0.910377
O O9 0.071866 0.570616 0.143453
O O10 0.184717 0.360294 0.247784
O O11 0.453782 0.415573 0.270886
O O12 0.199603 0.684955 0.202629
O O13 0.067919 0.845146 0.119516
O O14 0.226735 0.690776 0.101960
O O15 0.347014 0.572540 0.271311
O O16 0.250000 0.250000 0.500000
#
# Coordination Sequence:
#
# PCOD9295207 Si02
#       8
#     8   8   8   4   8   8   8   8
#     4  12  26  43  69 100 141 185 231 288 360 413
#     4  10  25  41  68  96 130 184 225 284 348 412
#     4  11  22  44  65  94 135 174 224 281 346 414
#     4  12  26  44  68 106 148 182 232 290 360 420
#     4  11  22  43  67  96 137 173 236 281 345 411
#     4  10  23  42  66  97 128 179 224 283 339 413
#     4  11  23  41  65  93 131 169 232 280 341 422
#     4  11  24  41  69  99 139 177 229 286 349 417
#
# _framework density 21.169526000000001
#
# number of rings (size 3 to 8) (size 9 to 14) (size 15 to 20)
#    0.000    1.067    2.667    3.200    3.733    0.000 
#    0.000    1.333    0.000    0.000    0.000    0.000 
#    0.000    0.000    0.000    0.000    0.000    0.000 
#
# Total GULP energy -167205.967828 kJ/mol
# GULP energy per Si atom -5573.532261 kJ/mol
# Density = 2.112134 g / cm^3
# Si number density = 21.169526 Si / 1000 Ang^3
#
#
#
# Elastic Constant Matrix: (Units=GPa)
#
#
# Indices 1 2 3 4 5 6 
#
# 1 73.8091 32.5033 0.7958 0.0000 18.0745 0.0000
# 2 32.5033 122.9851 31.3818 0.0000 20.6163 0.0000
# 3 0.7958 31.3818 42.2497 0.0000 13.1257 0.0000
# 4 0.0000 0.0000 0.0000 15.8565 0.0000 12.7112
# 5 18.0745 20.6163 13.1257 0.0000 34.1264 0.0000
# 6 0.0000 0.0000 0.0000 12.7112 0.0000 -3.8715
#
#
#
# Elastic Compliance Matrix: (Units=1/GPa)
#
#
# Indices 1 2 3 4 5 6 
#
# 1 0.017716 -0.004712 0.005902 0.000000 -0.008807 0.000000
# 2 -0.004712 0.011698 -0.008154 0.000000 -0.001435 0.000000
# 3 0.005902 -0.008154 0.032998 0.000000 -0.010892 0.000000
# 4 0.000000 0.000000 0.000000 0.017364 0.000000 0.057010
# 5 -0.008807 -0.001435 -0.010892 0.000000 0.039023 0.000000
# 6 0.000000 0.000000 0.000000 0.057010 0.000000 -0.071117
#
#
# Mechanical properties :
#
#
# Convention : Reuss Voigt Hill
#
# Bulk Modulus (GPa) = 20.62525 40.93395 30.77960
# Shear Modulus (GPa) = 64.29129 20.84647 42.56888
#
# Velocity S-wave (km/s) = 5.51685 3.14146 4.48912
# Velocity P-wave (km/s) = 7.09542 5.70409 6.43745
#
# Compressibility (1/GPa) = 0.04848426
#
# Stress axis : x y z
#
# Youngs Moduli (GPa) = 56.44466 85.48794 30.30492
#
# Poissons Ratio (x) = 0.40282 -0.17887
# Poissons Ratio (y) = 0.26597 0.24711
# Poissons Ratio (z) = -0.33315 0.69708
#
# Static dielectric constant tensor:
#      x y z
#    x 1.817140 0.000000 0.053780 
#    y 0.000000 1.780880 0.000000 
#    z 0.053780 0.000000 1.797070 
# 
# From -- ./inp_files/255176.got.cif
#   From: 2010.05.17/outbox.cif.g08.bks.cpg/sg15_128_cif.got.tgz:255176.got - 2010.06.03 18:47:42.
