data_PCOD9295016
_publ_section_title
;
Structure prediction by ZEFSAII (Michael W. Deem and Ramdas Pophale) SiO2 
 PCOD9295016
Probable space group: C 2/C
;
_chemical_formula_sum "Si O2"
_cell_formula_units_Z 60
_cell_length_a 9.090600
_cell_length_b 10.246478
_cell_length_c 30.420812
_cell_angle_alpha 90.000000
_cell_angle_beta 123.029602
_cell_angle_gamma 90.000000
_cell_volume 2375.656081
_symmetry_space_group_name_H-M "C 2/C"
_symmetry_group_IT_number 15
_symmetry_cell_setting 'monoclinic'
loop_
_space_group_symop_operation_xyz
x,y,z
-x,y,1/2-z
-x,-y,-z
x,-y,1/2+z
1/2+x,1/2+y,z
1/2-x,1/2+y,1/2-z
1/2-x,1/2-y,-z
1/2+x,1/2-y,1/2+z
loop_
_atom_site_type_symbol
_atom_site_label
_atom_site_fract_x
_atom_site_fract_y
_atom_site_fract_z
Si Si1 0.038319 0.494289 0.676955
Si Si2 0.673050 0.364577 0.222777
Si Si3 0.018736 0.174493 0.606171
Si Si4 0.237790 0.140817 0.037160
Si Si5 0.500000 0.846615 0.750000
Si Si6 0.391987 0.579676 0.037838
Si Si7 0.398954 0.405257 0.692763
Si Si8 0.668465 0.776514 0.398562
O O1 0.151496 0.566872 0.733561
O O2 0.199904 0.437564 0.674449
O O3 0.922371 0.410383 0.692484
O O4 0.927424 0.588222 0.627893
O O5 0.653335 0.334462 0.168435
O O6 0.647014 0.242223 0.250625
O O7 0.507874 0.461348 0.203757
O O8 0.129113 0.208019 0.580981
O O9 0.883262 0.293118 0.592436
O O10 0.937857 0.033831 0.581359
O O11 0.060371 0.120208 0.036082
O O12 0.250000 0.250000 0.000000
O O13 0.249689 0.999477 0.015057
O O14 0.342669 0.707482 0.056748
O O15 0.500000 0.338542 0.750000
O O16 0.407040 0.322223 0.650342
#
# Coordination Sequence:
#
# PCOD9295016 Si02
#       8
#     8   8   8   8   4   8   8   8
#     4  11  26  38  58  91 130 176 227 269 330 387
#     4  11  23  41  63  90 129 183 222 273 334 391
#     4  11  24  41  66 103 132 172 225 272 341 407
#     4   9  22  46  73  99 132 174 218 278 350 412
#     4  12  24  40  60  88 130 180 226 278 322 380
#     4  10  23  46  72  97 135 173 219 285 340 404
#     4  10  23  42  61  90 132 180 227 272 325 387
#     4  12  26  40  68 101 134 178 225 280 331 401
#
# _framework density 25.256181999999999
#
# number of rings (size 3 to 8) (size 9 to 14) (size 15 to 20)
#    0.000    1.333    3.333    1.600    8.400    4.800 
#    0.000    6.000    0.000    0.000    0.000    0.000 
#    0.000    0.000    0.000    0.000    0.000    0.000 
#
# Total GULP energy -167740.379920 kJ/mol
# GULP energy per Si atom -5591.345997 kJ/mol
# Density = 2.519870 g / cm^3
# Si number density = 25.256182 Si / 1000 Ang^3
#
#
#
# Elastic Constant Matrix: (Units=GPa)
#
#
# Indices 1 2 3 4 5 6 
#
# 1 70.9797 23.6346 17.1586 0.0000 -7.1138 0.0000
# 2 23.6346 99.2756 27.2885 0.0000 -4.6642 0.0000
# 3 17.1586 27.2885 139.6868 0.0000 -6.3139 0.0000
# 4 0.0000 0.0000 0.0000 50.0465 0.0000 -5.5065
# 5 -7.1138 -4.6642 -6.3139 0.0000 39.1176 0.0000
# 6 0.0000 0.0000 0.0000 -5.5065 0.0000 35.8018
#
#
#
# Elastic Compliance Matrix: (Units=1/GPa)
#
#
# Indices 1 2 3 4 5 6 
#
# 1 0.015703 -0.003307 -0.001180 0.000000 0.002271 0.000000
# 2 -0.003307 0.011376 -0.001795 0.000000 0.000465 0.000000
# 3 -0.001180 -0.001795 0.007691 0.000000 0.000813 0.000000
# 4 0.000000 0.000000 0.000000 0.020325 0.000000 0.003126
# 5 0.002271 0.000465 0.000813 0.000000 0.026164 0.000000
# 6 0.000000 0.000000 0.000000 0.003126 0.000000 0.028412
#
#
# Mechanical properties :
#
#
# Convention : Reuss Voigt Hill
#
# Bulk Modulus (GPa) = 45.03549 49.56727 47.30138
# Shear Modulus (GPa) = 38.56919 41.11721 39.84320
#
# Velocity S-wave (km/s) = 3.91208 4.03923 3.97616
# Velocity P-wave (km/s) = 6.18676 6.43601 6.31262
#
# Compressibility (1/GPa) = 0.02220471
#
# Stress axis : x y z
#
# Youngs Moduli (GPa) = 63.68346 87.90750 130.01820
#
# Poissons Ratio (x) = 0.29073 0.15344
# Poissons Ratio (y) = 0.21062 0.23338
# Poissons Ratio (z) = 0.07515 0.15779
#
# Static dielectric constant tensor:
#      x y z
#    x 1.951730 0.000000 0.038440 
#    y 0.000000 2.145030 0.000000 
#    z 0.038440 0.000000 2.110140 
# 
# From -- ./inp_files/307506.got.cif
#   From: 2010.05.17/outbox.cif.g08.bks.cpg/sg15_154_cif.got.tgz:307506.got - 2010.06.03 18:47:42.
