data_PCOD9295482
_publ_section_title
;
Structure prediction by ZEFSAII (Michael W. Deem and Ramdas Pophale) SiO2 
 PCOD9295482
Probable space group: C 2/C
;
_chemical_formula_sum "Si O2"
_cell_formula_units_Z 48
_cell_length_a 23.078869
_cell_length_b 16.742646
_cell_length_c 16.701147
_cell_angle_alpha 90.000000
_cell_angle_beta 160.540665
_cell_angle_gamma 90.000000
_cell_volume 2149.852970
_symmetry_space_group_name_H-M "C 2/C"
_symmetry_group_IT_number 15
_symmetry_cell_setting 'monoclinic'
loop_
_space_group_symop_operation_xyz
x,y,z
-x,y,1/2-z
-x,-y,-z
x,-y,1/2+z
1/2+x,1/2+y,z
1/2-x,1/2+y,1/2-z
1/2-x,1/2-y,-z
1/2+x,1/2-y,1/2+z
loop_
_atom_site_type_symbol
_atom_site_label
_atom_site_fract_x
_atom_site_fract_y
_atom_site_fract_z
Si Si1 0.403570 0.313762 0.708611
Si Si2 0.228620 0.202388 0.740950
Si Si3 0.711822 0.122884 0.405913
Si Si4 0.516232 0.905953 0.027715
Si Si5 0.440578 0.710178 0.808822
Si Si6 0.633949 0.941426 0.353277
O O1 0.500000 0.320317 0.750000
O O2 0.250000 0.250000 0.500000
O O3 0.314737 0.398926 0.611230
O O4 0.546045 0.287988 0.958702
O O5 0.330632 0.130079 0.828785
O O6 0.180618 0.192640 0.771854
O O7 0.364247 0.275022 0.907309
O O8 0.603825 0.203075 0.289302
O O9 0.896240 0.143475 0.685856
O O10 0.655330 0.035998 0.363531
O O11 0.661849 0.123359 0.246584
O O12 0.563445 0.895924 0.181907
O O13 0.500000 0.000000 0.000000
O O14 0.500000 0.930279 0.250000
#
# Coordination Sequence:
#
# PCOD9295482 Si02
#       6
#     8   8   8   8   8   8
#     4  12  25  46  72  99 140 190 245 301 354 421
#     4  11  23  44  68 105 142 180 245 296 353 423
#     4   9  22  42  72 105 146 187 235 285 365 430
#     4   9  20  40  69 102 141 189 226 291 356 420
#     4  10  23  42  74 105 141 194 231 296 361 426
#     4  11  24  44  74 108 143 193 239 297 359 424
#
# _framework density 22.327107999999999
#
# number of rings (size 3 to 8) (size 9 to 14) (size 15 to 20)
#    0.000    1.667    1.667    1.500    9.333    3.333 
#    3.000    0.833    3.667    0.000    0.000    0.000 
#    0.000    0.000    0.000    0.000    0.000    0.000 
#
# Total GULP energy -133855.008251 kJ/mol
# GULP energy per Si atom -5577.292010 kJ/mol
# Density = 2.227629 g / cm^3
# Si number density = 22.327108 Si / 1000 Ang^3
#
#
#
# Elastic Constant Matrix: (Units=GPa)
#
#
# Indices 1 2 3 4 5 6 
#
# 1 167.0717 55.1439 71.0493 0.0000 14.5825 0.0000
# 2 55.1439 112.0225 58.9832 0.0000 8.6133 0.0000
# 3 71.0493 58.9832 156.8330 0.0000 -22.8373 0.0000
# 4 0.0000 0.0000 0.0000 38.8208 0.0000 -8.3006
# 5 14.5825 8.6133 -22.8373 0.0000 47.2744 0.0000
# 6 0.0000 0.0000 0.0000 -8.3006 0.0000 27.7689
#
#
#
# Elastic Compliance Matrix: (Units=1/GPa)
#
#
# Indices 1 2 3 4 5 6 
#
# 1 0.008580 -0.001927 -0.003761 0.000000 -0.004112 0.000000
# 2 -0.001927 0.012466 -0.004366 0.000000 -0.003786 0.000000
# 3 -0.003761 -0.004366 0.010764 0.000000 0.007156 0.000000
# 4 0.000000 0.000000 0.000000 0.027518 0.000000 0.008226
# 5 -0.004112 -0.003786 0.007156 0.000000 0.026568 0.000000
# 6 0.000000 0.000000 0.000000 0.008226 0.000000 0.038470
#
#
# Mechanical properties :
#
#
# Convention : Reuss Voigt Hill
#
# Bulk Modulus (GPa) = 85.46560 89.58665 87.52613
# Shear Modulus (GPa) = 33.69834 39.48956 36.59395
#
# Velocity S-wave (km/s) = 3.88919 4.21013 4.05284
# Velocity P-wave (km/s) = 7.65047 7.99033 7.82224
#
# Compressibility (1/GPa) = 0.01170061
#
# Stress axis : x y z
#
# Youngs Moduli (GPa) = 116.55266 80.22091 92.90072
#
# Poissons Ratio (x) = 0.15459 0.34939
# Poissons Ratio (y) = 0.22460 0.40565
# Poissons Ratio (z) = 0.43835 0.35028
#
# Static dielectric constant tensor:
#      x y z
#    x 1.881240 0.000000 -0.017790 
#    y 0.000000 1.844400 0.000000 
#    z -0.017790 0.000000 1.903350 
# 
# From -- ./inp_files/219990.got.cif
#   From: 2010.05.17/outbox.cif.g08.bks.cpg/sg15_110_cif.got.tgz:219990.got - 2010.06.03 18:47:42.
