data_PCOD9295145
_publ_section_title
;
Structure prediction by ZEFSAII (Michael W. Deem and Ramdas Pophale) SiO2 
 PCOD9295145
Probable space group: C 2/C
;
_chemical_formula_sum "Si O2"
_cell_formula_units_Z 40
_cell_length_a 10.747208
_cell_length_b 12.311147
_cell_length_c 18.121687
_cell_angle_alpha 90.000000
_cell_angle_beta 52.496558
_cell_angle_gamma 90.000000
_cell_volume 1902.126649
_symmetry_space_group_name_H-M "C 2/C"
_symmetry_group_IT_number 15
_symmetry_cell_setting 'monoclinic'
loop_
_space_group_symop_operation_xyz
x,y,z
-x,y,1/2-z
-x,-y,-z
x,-y,1/2+z
1/2+x,1/2+y,z
1/2-x,1/2+y,1/2-z
1/2-x,1/2-y,-z
1/2+x,1/2-y,1/2+z
loop_
_atom_site_type_symbol
_atom_site_label
_atom_site_fract_x
_atom_site_fract_y
_atom_site_fract_z
Si Si1 0.432760 0.817563 0.690156
Si Si2 0.631709 0.761230 0.367689
Si Si3 0.603074 0.383029 0.139310
Si Si4 0.540848 0.046786 0.649340
Si Si5 0.103176 0.067846 0.019932
O O1 0.500000 0.817579 0.750000
O O2 0.248757 0.806292 0.771447
O O3 0.501343 0.707240 0.631290
O O4 0.495822 0.928112 0.633118
O O5 0.740314 0.816501 0.392527
O O6 0.564490 0.863410 0.349712
O O7 0.489976 0.680547 0.437809
O O8 0.500000 0.407514 0.250000
O O9 0.620272 0.492610 0.086992
O O10 0.500000 0.042957 0.750000
O O11 0.721262 0.076687 0.573532
O O12 0.000000 0.000000 0.000000
#
# Coordination Sequence:
#
# PCOD9295145 Si02
#       5
#     8   8   8   8   8
#     4   8  18  38  65  87 124 175 221 263 335 397
#     4  10  23  42  65  95 136 171 228 274 345 399
#     4   9  22  43  67  98 132 178 227 276 337 411
#     4  11  24  42  63  98 136 173 221 280 334 401
#     4  12  25  41  71  99 133 175 233 271 339 409
#
# _framework density 21.029091999999999
#
# number of rings (size 3 to 8) (size 9 to 14) (size 15 to 20)
#    0.000    2.400    0.000    4.200   11.200    4.800 
#    0.000    0.000    0.000    0.000    0.000    0.000 
#    0.000    0.000    0.000    0.000    0.000    0.000 
#
# Total GULP energy -111569.742734 kJ/mol
# GULP energy per Si atom -5578.487137 kJ/mol
# Density = 2.098123 g / cm^3
# Si number density = 21.029092 Si / 1000 Ang^3
#
#
#
# Elastic Constant Matrix: (Units=GPa)
#
#
# Indices 1 2 3 4 5 6 
#
# 1 52.7878 25.7284 42.4131 0.0000 -20.3817 0.0000
# 2 25.7284 68.3324 30.8696 0.0000 8.4969 0.0000
# 3 42.4131 30.8696 105.5330 0.0000 -26.0522 0.0000
# 4 0.0000 0.0000 0.0000 33.6839 0.0000 -15.6078
# 5 -20.3817 8.4969 -26.0522 0.0000 33.2666 0.0000
# 6 0.0000 0.0000 0.0000 -15.6078 0.0000 24.4348
#
#
#
# Elastic Compliance Matrix: (Units=1/GPa)
#
#
# Indices 1 2 3 4 5 6 
#
# 1 0.040660 -0.015794 -0.005672 0.000000 0.024503 0.000000
# 2 -0.015794 0.026287 -0.006679 0.000000 -0.021622 0.000000
# 3 -0.005672 -0.006679 0.016453 0.000000 0.011116 0.000000
# 4 0.000000 0.000000 0.000000 0.042168 0.000000 0.026935
# 5 0.024503 -0.021622 0.011116 0.000000 0.059301 0.000000
# 6 0.000000 0.000000 0.000000 0.026935 0.000000 0.058130
#
#
# Mechanical properties :
#
#
# Convention : Reuss Voigt Hill
#
# Bulk Modulus (GPa) = 36.88734 47.18618 42.03676
# Shear Modulus (GPa) = 16.21658 26.78654 21.50156
#
# Velocity S-wave (km/s) = 2.77997 3.57288 3.20107
# Velocity P-wave (km/s) = 5.28048 6.28553 5.80480
#
# Compressibility (1/GPa) = 0.02710957
#
# Stress axis : x y z
#
# Youngs Moduli (GPa) = 24.59432 38.04161 60.77827
#
# Poissons Ratio (x) = 0.60082 0.34474
# Poissons Ratio (y) = 0.38843 0.40596
# Poissons Ratio (z) = 0.13950 0.25410
#
# Static dielectric constant tensor:
#      x y z
#    x 1.766230 0.000000 0.018540 
#    y 0.000000 1.783840 0.000000 
#    z 0.018540 0.000000 1.758410 
# 
# From -- ./inp_files/141915.got.cif
#   From: 2010.05.17/outbox.cif.g08.bks.cpg/sg15_71_cif.got.tgz:141915.got - 2010.06.03 18:47:42.
