data_PCOD9295734
_publ_section_title
;
Structure prediction by ZEFSAII (Michael W. Deem and Ramdas Pophale) SiO2 
 PCOD9295734
Probable space group: C 2/C
;
_chemical_formula_sum "Si O2"
_cell_formula_units_Z 36
_cell_length_a 6.924038
_cell_length_b 24.582594
_cell_length_c 10.985880
_cell_angle_alpha 90.000000
_cell_angle_beta 74.086426
_cell_angle_gamma 90.000000
_cell_volume 1798.253651
_symmetry_space_group_name_H-M "C 2/C"
_symmetry_group_IT_number 15
_symmetry_cell_setting 'monoclinic'
loop_
_space_group_symop_operation_xyz
x,y,z
-x,y,1/2-z
-x,-y,-z
x,-y,1/2+z
1/2+x,1/2+y,z
1/2-x,1/2+y,1/2-z
1/2-x,1/2-y,-z
1/2+x,1/2-y,1/2+z
loop_
_atom_site_type_symbol
_atom_site_label
_atom_site_fract_x
_atom_site_fract_y
_atom_site_fract_z
Si Si1 0.027115 0.273214 0.063659
Si Si2 0.400630 0.427201 0.631611
Si Si3 0.196876 0.312013 0.637401
Si Si4 0.500000 0.130128 0.750000
Si Si5 0.353952 0.451785 0.158414
O O1 0.885548 0.225604 0.142923
O O2 0.051221 0.327749 0.135591
O O3 0.250000 0.250000 0.000000
O O4 0.888249 0.294140 0.977661
O O5 0.500000 0.421221 0.750000
O O6 0.266207 0.374360 0.631896
O O7 0.549975 0.432824 0.488109
O O8 0.287562 0.485462 0.651522
O O9 0.000000 0.302646 0.750000
O O10 0.313426 0.090266 0.771271
O O11 0.500000 0.453682 0.250000
#
# Coordination Sequence:
#
# PCOD9295734 Si02
#       5
#     8   8   8   4   8
#     4  11  25  44  63  96 133 180 222 280 342 409
#     4  10  23  43  68  95 138 177 223 285 340 405
#     4  11  25  40  65  96 130 169 225 282 333 403
#     4  12  24  38  72  92 128 178 222 274 338 418
#     4  10  23  45  64  97 135 178 225 280 340 406
#
# _framework density 20.019423
#
# number of rings (size 3 to 8) (size 9 to 14) (size 15 to 20)
#    0.000    1.333    0.000    4.000    9.333    4.444 
#    0.000    4.444    0.000    0.000    0.000    0.000 
#    0.000    0.000    0.000    0.000    0.000    0.000 
#
# Total GULP energy -100312.590531 kJ/mol
# GULP energy per Si atom -5572.921696 kJ/mol
# Density = 1.997386 g / cm^3
# Si number density = 20.019423 Si / 1000 Ang^3
#
#
#
# Elastic Constant Matrix: (Units=GPa)
#
#
# Indices 1 2 3 4 5 6 
#
# 1 111.7920 94.7152 25.3052 0.0000 -11.7229 0.0000
# 2 94.7152 178.7833 37.8496 0.0000 -13.4300 0.0000
# 3 25.3052 37.8496 65.8342 0.0000 6.0820 0.0000
# 4 0.0000 0.0000 0.0000 20.8525 0.0000 -1.3863
# 5 -11.7229 -13.4300 6.0820 0.0000 34.8589 0.0000
# 6 0.0000 0.0000 0.0000 -1.3863 0.0000 43.1130
#
#
#
# Elastic Compliance Matrix: (Units=1/GPa)
#
#
# Indices 1 2 3 4 5 6 
#
# 1 0.016602 -0.008178 -0.001936 0.000000 0.002771 0.000000
# 2 -0.008178 0.010754 -0.003220 0.000000 0.001955 0.000000
# 3 -0.001936 -0.003220 0.018254 0.000000 -0.005077 0.000000
# 4 0.000000 0.000000 0.000000 0.048059 0.000000 0.001545
# 5 0.002771 0.001955 -0.005077 0.000000 0.031258 0.000000
# 6 0.000000 0.000000 0.000000 0.001545 0.000000 0.023245
#
#
# Mechanical properties :
#
#
# Convention : Reuss Voigt Hill
#
# Bulk Modulus (GPa) = 52.78944 74.68326 63.73635
# Shear Modulus (GPa) = 27.60089 33.00086 30.30088
#
# Velocity S-wave (km/s) = 3.71712 4.06451 3.89469
# Velocity P-wave (km/s) = 6.69694 7.70800 7.22019
#
# Compressibility (1/GPa) = 0.01894318
#
# Stress axis : x y z
#
# Youngs Moduli (GPa) = 60.23245 92.98667 54.78186
#
# Poissons Ratio (x) = 0.76040 0.10606
# Poissons Ratio (y) = 0.49255 0.17641
# Poissons Ratio (z) = 0.11661 0.29944
#
# Static dielectric constant tensor:
#      x y z
#    x 1.668400 0.000000 -0.049730 
#    y 0.000000 1.612280 0.000000 
#    z -0.049730 0.000000 1.618780 
# 
# From -- ./inp_files/72426.got.cif
#   From: 2010.05.17/outbox.cif.g08.bks.cpg/sg15_37_cif.got.tgz:72426.got - 2010.06.03 18:47:42.
