data_PCOD9295732
_publ_section_title
;
Structure prediction by ZEFSAII (Michael W. Deem and Ramdas Pophale) SiO2 
 PCOD9295732
Probable space group: C 2/C
;
_chemical_formula_sum "Si O2"
_cell_formula_units_Z 64
_cell_length_a 15.304840
_cell_length_b 11.635513
_cell_length_c 26.667979
_cell_angle_alpha 90.000000
_cell_angle_beta 44.326906
_cell_angle_gamma 90.000000
_cell_volume 3318.387209
_symmetry_space_group_name_H-M "C 2/C"
_symmetry_group_IT_number 15
_symmetry_cell_setting 'monoclinic'
loop_
_space_group_symop_operation_xyz
x,y,z
-x,y,1/2-z
-x,-y,-z
x,-y,1/2+z
1/2+x,1/2+y,z
1/2-x,1/2+y,1/2-z
1/2-x,1/2-y,-z
1/2+x,1/2-y,1/2+z
loop_
_atom_site_type_symbol
_atom_site_label
_atom_site_fract_x
_atom_site_fract_y
_atom_site_fract_z
Si Si1 0.353496 0.835316 0.933498
Si Si2 0.586603 0.526341 0.166145
Si Si3 0.160492 0.874617 0.931559
Si Si4 0.930437 0.839095 0.177913
Si Si5 0.734780 0.859312 0.346120
Si Si6 0.517098 0.027102 0.551020
Si Si7 0.117647 0.877322 0.413024
Si Si8 0.727113 0.786812 0.952720
O O1 0.274246 0.897364 0.922936
O O2 0.464284 0.759069 0.864970
O O3 0.415462 0.924589 0.946771
O O4 0.250000 0.750000 0.000000
O O5 0.500000 0.554247 0.250000
O O6 0.503415 0.458997 0.159171
O O7 0.689996 0.436132 0.144340
O O8 0.659288 0.634872 0.114267
O O9 0.186231 0.756778 0.891849
O O10 0.145984 0.987427 0.903871
O O11 0.029790 0.861379 0.014654
O O12 0.831090 0.827551 0.262931
O O13 0.864937 0.835062 0.150722
O O14 0.618857 0.934829 0.373395
O O15 0.606408 0.135188 0.510711
O O16 0.500000 0.000000 0.500000
O O17 0.193266 0.809411 0.425067
O O18 0.750000 0.750000 0.000000
#
# Coordination Sequence:
#
# PCOD9295732 Si02
#       8
#     8   8   8   8   8   8   8   8
#     4  12  22  38  66  98 131 172 221 276 330 394
#     4  10  23  43  68  95 131 173 216 274 334 396
#     4  11  23  42  66  94 135 168 219 276 328 399
#     4  11  24  41  69  97 130 173 220 275 339 391
#     4  11  23  44  66 100 129 173 226 274 331 398
#     4  12  23  39  66  97 128 172 225 272 320 393
#     4  11  25  42  63 100 132 174 215 271 339 391
#     4  12  25  43  66  96 132 172 222 266 328 401
#
# _framework density 19.286477000000001
#
# number of rings (size 3 to 8) (size 9 to 14) (size 15 to 20)
#    0.000    0.750    5.000    3.000    3.500    1.000 
#    4.500    0.000    2.750    0.000    0.000    0.000 
#    0.000    0.000    0.000    0.000    0.000    0.000 
#
# Total GULP energy -178802.853378 kJ/mol
# GULP energy per Si atom -5587.589168 kJ/mol
# Density = 1.924258 g / cm^3
# Si number density = 19.286477 Si / 1000 Ang^3
#
#
#
# Elastic Constant Matrix: (Units=GPa)
#
#
# Indices 1 2 3 4 5 6 
#
# 1 132.2760 51.6196 37.6277 0.0000 8.3222 0.0000
# 2 51.6196 92.6412 47.1332 0.0000 0.9481 0.0000
# 3 37.6277 47.1332 90.1144 0.0000 -7.8456 0.0000
# 4 0.0000 0.0000 0.0000 32.8996 0.0000 -6.5372
# 5 8.3222 0.9481 -7.8456 0.0000 25.9891 0.0000
# 6 0.0000 0.0000 0.0000 -6.5372 0.0000 46.3224
#
#
#
# Elastic Compliance Matrix: (Units=1/GPa)
#
#
# Indices 1 2 3 4 5 6 
#
# 1 0.010189 -0.004506 -0.002226 0.000000 -0.003770 0.000000
# 2 -0.004506 0.016923 -0.007084 0.000000 -0.001313 0.000000
# 3 -0.002226 -0.007084 0.016243 0.000000 0.005875 0.000000
# 4 0.000000 0.000000 0.000000 0.031272 0.000000 0.004413
# 5 -0.003770 -0.001313 0.005875 0.000000 0.041506 0.000000
# 6 0.000000 0.000000 0.000000 0.004413 0.000000 0.022211
#
#
# Mechanical properties :
#
#
# Convention : Reuss Voigt Hill
#
# Bulk Modulus (GPa) = 63.60190 65.31029 64.45609
# Shear Modulus (GPa) = 29.20277 32.95227 31.07752
#
# Velocity S-wave (km/s) = 3.89544 4.13797 4.01853
# Velocity P-wave (km/s) = 7.29943 7.53440 7.41784
#
# Compressibility (1/GPa) = 0.01572280
#
# Stress axis : x y z
#
# Youngs Moduli (GPa) = 98.14691 59.09213 61.56506
#
# Poissons Ratio (x) = 0.26628 0.13703
# Poissons Ratio (y) = 0.44227 0.43612
# Poissons Ratio (z) = 0.21845 0.41860
#
# Static dielectric constant tensor:
#      x y z
#    x 1.709840 0.000000 -0.007820 
#    y 0.000000 1.672370 0.000000 
#    z -0.007820 0.000000 1.651770 
# 
# From -- ./inp_files/296123.got.cif
#   From: 2010.05.17/outbox.cif.g08.bks.cpg/sg15_149_cif.got.tgz:296123.got - 2010.06.03 18:47:42.
