data_PCOD9295979
_publ_section_title
;
Structure prediction by ZEFSAII (Michael W. Deem and Ramdas Pophale) SiO2 
 PCOD9295979
Probable space group: C 2/C
;
_chemical_formula_sum "Si O2"
_cell_formula_units_Z 48
_cell_length_a 27.481256
_cell_length_b 9.372434
_cell_length_c 7.446399
_cell_angle_alpha 90.000000
_cell_angle_beta 99.517971
_cell_angle_gamma 90.000000
_cell_volume 1891.538337
_symmetry_space_group_name_H-M "C 2/C"
_symmetry_group_IT_number 15
_symmetry_cell_setting 'monoclinic'
loop_
_space_group_symop_operation_xyz
x,y,z
-x,y,1/2-z
-x,-y,-z
x,-y,1/2+z
1/2+x,1/2+y,z
1/2-x,1/2+y,1/2-z
1/2-x,1/2-y,-z
1/2+x,1/2-y,1/2+z
loop_
_atom_site_type_symbol
_atom_site_label
_atom_site_fract_x
_atom_site_fract_y
_atom_site_fract_z
Si Si1 0.964099 0.892780 0.875181
Si Si2 0.866739 0.366085 0.046142
Si Si3 0.261790 0.821063 0.785713
Si Si4 0.382268 0.375475 0.302795
Si Si5 0.715390 0.534584 0.571668
Si Si6 0.114654 0.309770 0.029267
O O1 0.937624 0.769946 0.972777
O O2 0.000000 0.825730 0.750000
O O3 0.921661 0.002689 0.778955
O O4 0.000000 0.000000 0.000000
O O5 0.864345 0.320930 0.254128
O O6 0.813849 0.359155 0.910588
O O7 0.898643 0.251158 0.949940
O O8 0.885805 0.528241 0.043260
O O9 0.256416 0.654280 0.794236
O O10 0.249259 0.896431 0.594990
O O11 0.219372 0.895106 0.879441
O O12 0.339744 0.454845 0.389553
O O13 0.362096 0.290661 0.114088
#
# Coordination Sequence:
#
# PCOD9295979 Si02
#       6
#     8   8   8   8   8   8
#     4  12  26  49  76 107 144 182 236 308 375 443
#     4  11  24  47  73 107 146 200 243 293 360 423
#     4  10  23  44  63 103 148 186 249 292 341 422
#     4  11  26  47  72 109 144 193 248 292 372 439
#     4  10  24  41  65  99 141 189 237 295 343 414
#     4  12  25  46  80 102 146 192 237 305 359 443
#
# _framework density 25.376173000000001
#
# number of rings (size 3 to 8) (size 9 to 14) (size 15 to 20)
#    0.000    1.000    3.333    2.000    4.667    4.667 
#    0.000    4.167    0.000    0.000    0.000    0.000 
#    0.000    0.000    0.000    0.000    0.000    0.000 
#
# Total GULP energy -134155.578655 kJ/mol
# GULP energy per Si atom -5589.815777 kJ/mol
# Density = 2.531842 g / cm^3
# Si number density = 25.376173 Si / 1000 Ang^3
#
#
#
# Elastic Constant Matrix: (Units=GPa)
#
#
# Indices 1 2 3 4 5 6 
#
# 1 102.4425 30.8113 11.5811 0.0000 -9.2483 0.0000
# 2 30.8113 168.5155 30.2484 0.0000 13.5327 0.0000
# 3 11.5811 30.2484 119.7674 0.0000 1.5812 0.0000
# 4 0.0000 0.0000 0.0000 45.9761 0.0000 1.2531
# 5 -9.2483 13.5327 1.5812 0.0000 25.3131 0.0000
# 6 0.0000 0.0000 0.0000 1.2531 0.0000 40.7049
#
#
#
# Elastic Compliance Matrix: (Units=1/GPa)
#
#
# Indices 1 2 3 4 5 6 
#
# 1 0.011006 -0.002341 -0.000543 0.000000 0.005307 0.000000
# 2 -0.002341 0.006989 -0.001479 0.000000 -0.004499 0.000000
# 3 -0.000543 -0.001479 0.008775 0.000000 0.000044 0.000000
# 4 0.000000 0.000000 0.000000 0.021769 0.000000 -0.000670
# 5 0.005307 -0.004499 0.000044 0.000000 0.043847 0.000000
# 6 0.000000 0.000000 0.000000 -0.000670 0.000000 0.024588
#
#
# Mechanical properties :
#
#
# Convention : Reuss Voigt Hill
#
# Bulk Modulus (GPa) = 55.42215 59.55634 57.48924
# Shear Modulus (GPa) = 37.96081 43.60446 40.78264
#
# Velocity S-wave (km/s) = 3.87191 4.14976 4.01324
# Velocity P-wave (km/s) = 6.47121 6.81770 6.64672
#
# Compressibility (1/GPa) = 0.01804333
#
# Stress axis : x y z
#
# Youngs Moduli (GPa) = 90.85839 143.08053 113.95910
#
# Poissons Ratio (x) = 0.33496 0.06189
# Poissons Ratio (y) = 0.21270 0.16859
# Poissons Ratio (z) = 0.04934 0.21167
#
# Static dielectric constant tensor:
#      x y z
#    x 2.011070 0.000000 -0.015470 
#    y 0.000000 2.160690 0.000000 
#    z -0.015470 0.000000 2.167540 
# 
# From -- ./inp_files/68562.got.cif
#   From: 2010.05.17/outbox.cif.g08.bks.cpg/sg15_35_cif.got.tgz:68562.got - 2010.06.03 18:47:42.
