data_PCOD9295155
_publ_section_title
;
Structure prediction by ZEFSAII (Michael W. Deem and Ramdas Pophale) SiO2 
 PCOD9295155
Probable space group: C 2/C
;
_chemical_formula_sum "Si O2"
_cell_formula_units_Z 48
_cell_length_a 28.551204
_cell_length_b 5.266642
_cell_length_c 14.217894
_cell_angle_alpha 90.000000
_cell_angle_beta 121.880875
_cell_angle_gamma 90.000000
_cell_volume 1815.419114
_symmetry_space_group_name_H-M "C 2/C"
_symmetry_group_IT_number 15
_symmetry_cell_setting 'monoclinic'
loop_
_space_group_symop_operation_xyz
x,y,z
-x,y,1/2-z
-x,-y,-z
x,-y,1/2+z
1/2+x,1/2+y,z
1/2-x,1/2+y,1/2-z
1/2-x,1/2-y,-z
1/2+x,1/2-y,1/2+z
loop_
_atom_site_type_symbol
_atom_site_label
_atom_site_fract_x
_atom_site_fract_y
_atom_site_fract_z
Si Si1 0.761417 0.672635 0.703045
Si Si2 0.474679 0.106133 0.353893
Si Si3 0.084898 0.149765 0.556063
Si Si4 0.578209 0.740993 0.880933
Si Si5 0.839378 0.642715 0.511324
Si Si6 0.124009 0.786780 0.756701
O O1 0.740146 0.402845 0.721542
O O2 0.722328 0.783348 0.578918
O O3 0.822122 0.640163 0.724908
O O4 0.467953 0.228165 0.449510
O O5 0.448765 0.304673 0.249232
O O6 0.534678 0.045856 0.376628
O O7 0.431214 0.879214 0.305710
O O8 0.129754 0.329348 0.555720
O O9 0.071862 0.959169 0.457458
O O10 0.116263 0.009164 0.673959
O O11 0.638527 0.865840 0.935273
O O12 0.862400 0.824946 0.618496
#
# Coordination Sequence:
#
# PCOD9295155 Si02
#       6
#     8   8   8   8   8   8
#     4  12  25  48  77 108 142 186 239 298 361 428
#     4  10  23  42  65  97 137 181 229 284 350 422
#     4  12  21  40  66  98 132 178 231 286 348 416
#     4  10  23  42  65  97 137 181 229 284 350 422
#     4  11  25  44  67  99 138 183 230 289 352 422
#     4  11  25  44  67  99 138 183 230 289 352 422
#
# _framework density 26.440173999999999
#
# number of rings (size 3 to 8) (size 9 to 14) (size 15 to 20)
#    0.000    1.000    1.667    5.000    0.000    4.000 
#    0.000    5.000    0.000    0.000    0.000    0.000 
#    0.000    0.000    0.000    0.000    0.000    0.000 
#
# Total GULP energy -134257.084686 kJ/mol
# GULP energy per Si atom -5594.045195 kJ/mol
# Density = 2.638000 g / cm^3
# Si number density = 26.440174 Si / 1000 Ang^3
#
#
#
# Elastic Constant Matrix: (Units=GPa)
#
#
# Indices 1 2 3 4 5 6 
#
# 1 98.9297 -1.2915 25.1488 0.0000 -15.2522 0.0000
# 2 -1.2915 72.5679 25.2061 0.0000 -9.2925 -0.0001
# 3 25.1488 25.2061 144.1953 0.0000 -17.7261 0.0000
# 4 0.0000 0.0000 0.0000 50.0429 0.0000 -10.4886
# 5 -15.2522 -9.2925 -17.7261 0.0000 59.0327 0.0000
# 6 0.0000 -0.0001 0.0000 -10.4886 0.0000 32.5869
#
#
#
# Elastic Compliance Matrix: (Units=1/GPa)
#
#
# Indices 1 2 3 4 5 6 
#
# 1 0.010963 0.001139 -0.001808 0.000000 0.002469 0.000000
# 2 0.001139 0.014936 -0.002580 0.000000 0.001871 0.000000
# 3 -0.001808 -0.002580 0.007885 0.000000 0.001495 0.000000
# 4 0.000000 0.000000 0.000000 0.021428 0.000000 0.006897
# 5 0.002469 0.001871 0.001495 0.000000 0.018321 0.000000
# 6 0.000000 0.000000 0.000000 0.006897 0.000000 0.032907
#
#
# Mechanical properties :
#
#
# Convention : Reuss Voigt Hill
#
# Bulk Modulus (GPa) = 36.64605 45.97996 41.31301
# Shear Modulus (GPa) = 40.97250 46.10779 43.54015
#
# Velocity S-wave (km/s) = 3.94081 4.18048 4.06241
# Velocity P-wave (km/s) = 5.88189 6.38199 6.13704
#
# Compressibility (1/GPa) = 0.02728807
#
# Stress axis : x y z
#
# Youngs Moduli (GPa) = 91.21381 66.95206 126.82358
#
# Poissons Ratio (x) = -0.07627 0.22926
# Poissons Ratio (y) = -0.10391 0.32715
# Poissons Ratio (z) = 0.16489 0.17271
#
# Static dielectric constant tensor:
#      x y z
#    x 2.051000 0.000000 0.022250 
#    y 0.000000 2.210760 0.000000 
#    z 0.022250 0.000000 2.088500 
# 
# From -- ./inp_files/179989.got.cif
#   From: 2010.05.17/outbox.cif.g08.bks.cpg/sg15_90_cif.got.tgz:179989.got - 2010.06.03 18:47:42.
