data_PCOD9295879
_publ_section_title
;
Structure prediction by ZEFSAII (Michael W. Deem and Ramdas Pophale) SiO2 
 PCOD9295879
Probable space group: C 2/C
;
_chemical_formula_sum "Si O2"
_cell_formula_units_Z 60
_cell_length_a 26.197164
_cell_length_b 7.918253
_cell_length_c 24.137253
_cell_angle_alpha 90.000000
_cell_angle_beta 30.151312
_cell_angle_gamma 90.000000
_cell_volume 2514.907366
_symmetry_space_group_name_H-M "C 2/C"
_symmetry_group_IT_number 15
_symmetry_cell_setting 'monoclinic'
loop_
_space_group_symop_operation_xyz
x,y,z
-x,y,1/2-z
-x,-y,-z
x,-y,1/2+z
1/2+x,1/2+y,z
1/2-x,1/2+y,1/2-z
1/2-x,1/2-y,-z
1/2+x,1/2-y,1/2+z
loop_
_atom_site_type_symbol
_atom_site_label
_atom_site_fract_x
_atom_site_fract_y
_atom_site_fract_z
Si Si1 0.919976 0.000958 0.779927
Si Si2 0.847570 0.297265 0.692430
Si Si3 0.982624 0.997273 0.593618
Si Si4 0.500000 0.084411 0.250000
Si Si5 0.185373 0.077395 0.947474
Si Si6 0.685817 0.212729 0.146287
Si Si7 0.634067 0.211526 0.595657
Si Si8 0.336131 0.815925 0.214103
O O1 0.958146 0.022386 0.682019
O O2 0.812772 0.101041 0.881431
O O3 0.000000 0.072333 0.750000
O O4 0.911273 0.809857 0.808213
O O5 0.937495 0.159191 0.603905
O O6 0.811544 0.278421 0.789938
O O7 0.754434 0.247146 0.740626
O O8 0.872788 0.496113 0.662073
O O9 0.104200 0.984874 0.478239
O O10 0.922587 0.826364 0.634679
O O11 0.416273 0.969126 0.359486
O O12 0.575072 0.155360 0.227885
O O13 0.227488 0.924253 0.946004
O O14 0.280670 0.159785 0.826171
O O15 0.124640 0.201937 0.044635
O O16 0.750000 0.250000 0.500000
#
# Coordination Sequence:
#
# PCOD9295879 Si02
#       8
#     8   8   8   4   8   8   8   8
#     4  11  21  40  65  89 133 177 215 261 333 384
#     4  10  23  43  71  91 127 175 219 269 339 386
#     4  11  23  44  68  97 135 176 217 275 331 398
#     4  12  22  40  66  90 136 172 214 260 322 394
#     4  11  24  40  66 100 134 171 222 272 330 388
#     4  10  24  42  63  95 128 173 217 269 323 393
#     4  12  23  38  61  96 130 176 215 263 321 395
#     4  11  23  47  71  95 131 174 220 283 330 391
#
# _framework density 23.857737
#
# number of rings (size 3 to 8) (size 9 to 14) (size 15 to 20)
#    0.000    1.067    5.333    0.800    5.600    1.067 
#    4.800    4.667    0.000    0.000    0.000    0.000 
#    0.000    0.000    0.000    0.000    0.000    0.000 
#
# Total GULP energy -167394.952703 kJ/mol
# GULP energy per Si atom -5579.831757 kJ/mol
# Density = 2.380344 g / cm^3
# Si number density = 23.857737 Si / 1000 Ang^3
#
#
#
# Elastic Constant Matrix: (Units=GPa)
#
#
# Indices 1 2 3 4 5 6 
#
# 1 143.4446 46.1198 13.9702 -0.0091 -11.9630 0.0045
# 2 46.1198 99.3228 8.8601 -0.0193 -10.6545 0.0110
# 3 13.9702 8.8601 55.9918 -0.0078 -4.5410 0.0072
# 4 -0.0091 -0.0193 -0.0078 11.7563 0.0036 -3.0108
# 5 -11.9630 -10.6545 -4.5410 0.0036 46.1107 -0.0022
# 6 0.0045 0.0110 0.0072 -3.0108 -0.0022 44.8148
#
#
#
# Elastic Compliance Matrix: (Units=1/GPa)
#
#
# Indices 1 2 3 4 5 6 
#
# 1 0.008378 -0.003636 -0.001418 -0.000001 0.001194 0.000000
# 2 -0.003636 0.012020 -0.000853 0.000015 0.001750 -0.000001
# 3 -0.001418 -0.000853 0.018450 0.000009 0.001252 -0.000002
# 4 -0.000001 0.000015 0.000009 0.086550 -0.000002 0.005815
# 5 0.001194 0.001750 0.001252 -0.000002 0.022524 0.000000
# 6 0.000000 -0.000001 -0.000002 0.005815 0.000000 0.022705
#
#
# Mechanical properties :
#
#
# Convention : Reuss Voigt Hill
#
# Bulk Modulus (GPa) = 36.98975 48.51773 42.75374
# Shear Modulus (GPa) = 26.11613 35.85696 30.98655
#
# Velocity S-wave (km/s) = 3.31216 3.88099 3.60780
# Velocity P-wave (km/s) = 5.49228 6.36107 5.94257
#
# Compressibility (1/GPa) = 0.02703451
#
# Stress axis : x y z
#
# Youngs Moduli (GPa) = 119.36110 83.19323 54.20019
#
# Poissons Ratio (x) = 0.30246 0.07687
# Poissons Ratio (y) = 0.43396 0.04623
# Poissons Ratio (z) = 0.16928 0.07097
#
# Static dielectric constant tensor:
#      x y z
#    x 1.921720 0.000000 -0.021770 
#    y 0.000000 2.087760 0.000010 
#    z -0.021770 0.000010 1.993450 
# 
# From -- ./inp_files/252094.got.cif
#   From: 2010.05.17/outbox.cif.g08.bks.cpg/sg15_127_cif.got.tgz:252094.got - 2010.06.03 18:47:42.
