data_PCOD9295773
_publ_section_title
;
Structure prediction by ZEFSAII (Michael W. Deem and Ramdas Pophale) SiO2 
 PCOD9295773
Probable space group: C 2/C
;
_chemical_formula_sum "Si O2"
_cell_formula_units_Z 60
_cell_length_a 11.188068
_cell_length_b 28.397879
_cell_length_c 7.731664
_cell_angle_alpha 90.000000
_cell_angle_beta 85.074582
_cell_angle_gamma 90.000000
_cell_volume 2447.413147
_symmetry_space_group_name_H-M "C 2/C"
_symmetry_group_IT_number 15
_symmetry_cell_setting 'monoclinic'
loop_
_space_group_symop_operation_xyz
x,y,z
-x,y,1/2-z
-x,-y,-z
x,-y,1/2+z
1/2+x,1/2+y,z
1/2-x,1/2+y,1/2-z
1/2-x,1/2-y,-z
1/2+x,1/2-y,1/2+z
loop_
_atom_site_type_symbol
_atom_site_label
_atom_site_fract_x
_atom_site_fract_y
_atom_site_fract_z
Si Si1 0.500000 0.054483 0.250000
Si Si2 0.149541 0.284314 0.434800
Si Si3 0.986198 0.633583 0.964338
Si Si4 0.259317 0.467311 0.767790
Si Si5 0.577973 0.392796 0.916957
Si Si6 0.595387 0.539803 0.925294
Si Si7 0.741126 0.194802 0.547396
Si Si8 0.006481 0.800846 0.042208
O O1 0.504201 0.087116 0.421448
O O2 0.378315 0.025172 0.254552
O O3 0.250000 0.250000 0.500000
O O4 0.204975 0.302459 0.251206
O O5 0.090155 0.330952 0.520006
O O6 0.037350 0.247826 0.443776
O O7 0.859854 0.660737 0.017937
O O8 0.000000 0.627810 0.750000
O O9 0.310922 0.427172 0.632524
O O10 0.335352 0.515124 0.737496
O O11 0.298093 0.450512 0.952017
O O12 0.500000 0.394266 0.750000
O O13 0.488889 0.415255 0.069502
O O14 0.602747 0.339987 0.972948
O O15 0.500000 0.500000 0.000000
O O16 0.750000 0.250000 0.500000
O O17 0.877460 0.178951 0.501584
O O18 0.000000 0.793031 0.250000
#
# Coordination Sequence:
#
# PCOD9295773 Si02
#       8
#     4   8   8   8   8   8   8   8
#     4  12  28  44  72 104 144 192 234 284 354 430
#     4  11  24  42  61  91 133 181 239 286 344 417
#     4  10  26  46  64  94 142 193 236 292 356 408
#     4  10  23  43  69 106 134 182 223 268 358 431
#     4   9  22  38  64  97 132 166 214 284 342 399
#     4   9  19  44  71  99 135 170 220 280 352 416
#     4  11  24  40  63  89 126 181 237 284 348 406
#     4  12  25  38  62 100 127 173 234 288 351 405
#
# _framework density 24.515681000000001
#
# number of rings (size 3 to 8) (size 9 to 14) (size 15 to 20)
#    0.000    1.600    2.667    1.200   10.267    2.667 
#    2.400    0.000    0.000    0.000    0.000    0.000 
#    0.000    0.000    0.000    0.000    0.000    0.000 
#
# Total GULP energy -167547.138733 kJ/mol
# GULP energy per Si atom -5584.904624 kJ/mol
# Density = 2.445988 g / cm^3
# Si number density = 24.515681 Si / 1000 Ang^3
#
#
#
# Elastic Constant Matrix: (Units=GPa)
#
#
# Indices 1 2 3 4 5 6 
#
# 1 129.9356 -12.6386 26.5050 0.0000 -5.3161 0.0000
# 2 -12.6386 53.1379 4.4735 0.0000 -3.8605 0.0000
# 3 26.5050 4.4735 62.8915 0.0000 6.6754 0.0000
# 4 0.0000 0.0000 0.0000 22.4937 0.0000 -1.3969
# 5 -5.3161 -3.8605 6.6754 0.0000 28.0874 0.0000
# 6 0.0000 0.0000 0.0000 -1.3969 0.0000 36.1787
#
#
#
# Elastic Compliance Matrix: (Units=1/GPa)
#
#
# Indices 1 2 3 4 5 6 
#
# 1 0.008964 0.002719 -0.004299 0.000000 0.003092 0.000000
# 2 0.002719 0.020006 -0.002991 0.000000 0.003975 0.000000
# 3 -0.004299 -0.002991 0.018522 0.000000 -0.005627 0.000000
# 4 0.000000 0.000000 0.000000 0.044564 0.000000 0.001721
# 5 0.003092 0.003975 -0.005627 0.000000 0.038072 0.000000
# 6 0.000000 0.000000 0.000000 0.001721 0.000000 0.027707
#
#
# Mechanical properties :
#
#
# Convention : Reuss Voigt Hill
#
# Bulk Modulus (GPa) = 26.07586 31.40497 28.74041
# Shear Modulus (GPa) = 27.81461 32.52696 30.17079
#
# Velocity S-wave (km/s) = 3.37198 3.64645 3.51190
# Velocity P-wave (km/s) = 5.08132 5.52872 5.30974
#
# Compressibility (1/GPa) = 0.03834965
#
# Stress axis : x y z
#
# Youngs Moduli (GPa) = 111.55620 49.98458 53.98884
#
# Poissons Ratio (x) = -0.13589 0.23212
# Poissons Ratio (y) = -0.30328 0.16147
# Poissons Ratio (z) = 0.47963 0.14949
#
# Static dielectric constant tensor:
#      x y z
#    x 2.000000 0.000000 0.012790 
#    y 0.000000 1.968770 0.000000 
#    z 0.012790 0.000000 2.048130 
# 
# From -- ./inp_files/35650.got.cif
#   From: 2010.05.17/outbox.cif.g08.bks.cpg/sg15_18_cif.got.tgz:35650.got - 2010.06.03 18:47:42.
