data_PCOD9295968
_publ_section_title
;
Structure prediction by ZEFSAII (Michael W. Deem and Ramdas Pophale) SiO2 
 PCOD9295968
Probable space group: C 2/C
;
_chemical_formula_sum "Si O2"
_cell_formula_units_Z 40
_cell_length_a 9.290754
_cell_length_b 17.389279
_cell_length_c 12.738886
_cell_angle_alpha 90.000000
_cell_angle_beta 89.873157
_cell_angle_gamma 90.000000
_cell_volume 2058.083180
_symmetry_space_group_name_H-M "C 2/C"
_symmetry_group_IT_number 15
_symmetry_cell_setting 'monoclinic'
loop_
_space_group_symop_operation_xyz
x,y,z
-x,y,1/2-z
-x,-y,-z
x,-y,1/2+z
1/2+x,1/2+y,z
1/2-x,1/2+y,1/2-z
1/2-x,1/2-y,-z
1/2+x,1/2-y,1/2+z
loop_
_atom_site_type_symbol
_atom_site_label
_atom_site_fract_x
_atom_site_fract_y
_atom_site_fract_z
Si Si1 0.139427 0.639334 0.574282
Si Si2 0.660671 0.270526 0.281069
Si Si3 0.500000 0.630873 0.250000
Si Si4 0.710608 0.906078 0.844415
Si Si5 0.364987 0.242727 0.593949
Si Si6 0.500000 0.030793 0.750000
O O1 0.271901 0.689480 0.617594
O O2 0.190427 0.599038 0.468706
O O3 0.081592 0.581640 0.663234
O O4 0.001072 0.693966 0.554697
O O5 0.500000 0.292824 0.250000
O O6 0.665607 0.178296 0.299169
O O7 0.770974 0.293425 0.188255
O O8 0.627736 0.583783 0.197154
O O9 0.565849 0.684043 0.344199
O O10 0.613608 0.974450 0.803655
O O11 0.250000 0.250000 0.500000
#
# Coordination Sequence:
#
# PCOD9295968 Si02
#       6
#     8   8   4   8   8   4
#     4  12  23  45  68  97 139 180 225 283 336 407
#     4  11  21  40  67 102 133 169 235 280 325 396
#     4  10  23  44  60 101 136 166 228 292 321 398
#     4  11  24  42  69  94 134 183 218 276 345 397
#     4  11  21  37  69 100 132 171 224 287 335 384
#     4  12  25  48  64  99 140 182 220 270 349 428
#
# _framework density 19.435559000000001
#
# number of rings (size 3 to 8) (size 9 to 14) (size 15 to 20)
#    0.000    0.800    7.000    2.400    5.600    0.000 
#    1.800    1.000    0.000    0.000    0.000    0.000 
#    0.000    0.000    0.000    0.000    0.000    0.000 
#
# Total GULP energy -111676.706951 kJ/mol
# GULP energy per Si atom -5583.835348 kJ/mol
# Density = 1.939132 g / cm^3
# Si number density = 19.435559 Si / 1000 Ang^3
#
#
#
# Elastic Constant Matrix: (Units=GPa)
#
#
# Indices 1 2 3 4 5 6 
#
# 1 131.9285 36.0586 31.1047 0.0000 9.3545 0.0000
# 2 36.0586 64.0066 23.5390 0.0000 8.1169 0.0000
# 3 31.1047 23.5390 101.7114 0.0000 1.2800 0.0000
# 4 0.0000 0.0000 0.0000 27.2380 0.0000 -7.5033
# 5 9.3545 8.1169 1.2800 0.0000 49.2717 0.0000
# 6 0.0000 0.0000 0.0000 -7.5033 0.0000 29.5624
#
#
#
# Elastic Compliance Matrix: (Units=1/GPa)
#
#
# Indices 1 2 3 4 5 6 
#
# 1 0.009289 -0.004447 -0.001799 0.000000 -0.000984 0.000000
# 2 -0.004447 0.019575 -0.003142 0.000000 -0.002299 0.000000
# 3 -0.001799 -0.003142 0.011102 0.000000 0.000571 0.000000
# 4 0.000000 0.000000 0.000000 0.039473 0.000000 0.010019
# 5 -0.000984 -0.002299 0.000571 0.000000 0.020846 0.000000
# 6 0.000000 0.000000 0.000000 0.010019 0.000000 0.036370
#
#
# Mechanical properties :
#
#
# Convention : Reuss Voigt Hill
#
# Bulk Modulus (GPa) = 47.18881 53.22790 50.20835
# Shear Modulus (GPa) = 30.77028 35.01070 32.89049
#
# Velocity S-wave (km/s) = 3.98325 4.24886 4.11820
# Velocity P-wave (km/s) = 6.74444 7.17752 6.96434
#
# Compressibility (1/GPa) = 0.02119147
#
# Stress axis : x y z
#
# Youngs Moduli (GPa) = 107.65162 51.08477 90.07504
#
# Poissons Ratio (x) = 0.22715 0.16207
# Poissons Ratio (y) = 0.47869 0.28297
# Poissons Ratio (z) = 0.19370 0.16048
#
# Static dielectric constant tensor:
#      x y z
#    x 1.681960 0.000000 0.010130 
#    y 0.000000 1.661110 0.000000 
#    z 0.010130 0.000000 1.715780 
# 
# From -- ./inp_files/76731.got.cif
#   From: 2010.05.17/outbox.cif.g08.bks.cpg/sg15_39_cif.got.tgz:76731.got - 2010.06.03 18:47:42.
