data_PCOD9295676
_publ_section_title
;
Structure prediction by ZEFSAII (Michael W. Deem and Ramdas Pophale) SiO2 
 PCOD9295676
Probable space group: C 2/C
;
_chemical_formula_sum "Si O2"
_cell_formula_units_Z 52
_cell_length_a 15.450182
_cell_length_b 16.067057
_cell_length_c 11.731997
_cell_angle_alpha 90.000000
_cell_angle_beta 66.208832
_cell_angle_gamma 90.000000
_cell_volume 2664.853557
_symmetry_space_group_name_H-M "C 2/C"
_symmetry_group_IT_number 15
_symmetry_cell_setting 'monoclinic'
loop_
_space_group_symop_operation_xyz
x,y,z
-x,y,1/2-z
-x,-y,-z
x,-y,1/2+z
1/2+x,1/2+y,z
1/2-x,1/2+y,1/2-z
1/2-x,1/2-y,-z
1/2+x,1/2-y,1/2+z
loop_
_atom_site_type_symbol
_atom_site_label
_atom_site_fract_x
_atom_site_fract_y
_atom_site_fract_z
Si Si1 0.394732 0.395766 0.533428
Si Si2 0.970376 0.595653 0.013700
Si Si3 0.294206 0.145128 0.260897
Si Si4 0.183670 0.781732 0.634993
Si Si5 0.419143 0.225740 0.385993
Si Si6 0.935710 0.933352 0.891313
Si Si7 0.500000 0.171600 0.750000
O O1 0.300294 0.405559 0.659218
O O2 0.388077 0.310260 0.465300
O O3 0.491997 0.392145 0.555217
O O4 0.399180 0.479810 0.458729
O O5 0.871098 0.603877 0.135563
O O6 0.038040 0.659794 0.046496
O O7 0.000000 0.500000 0.000000
O O8 0.975132 0.621705 0.878437
O O9 0.250208 0.218658 0.209629
O O10 0.341353 0.178397 0.351103
O O11 0.250000 0.750000 0.500000
O O12 0.143826 0.869929 0.610189
O O13 0.091529 0.729349 0.715985
O O14 0.500000 0.247678 0.250000
O O15 0.000000 0.953778 0.750000
#
# Coordination Sequence:
#
# PCOD9295676 Si02
#       7
#     8   8   8   8   8   8   4
#     4  11  23  42  68  97 132 175 214 276 342 390
#     4  11  26  43  68  95 133 179 222 276 335 391
#     4  11  23  42  68  96 130 174 222 272 323 408
#     4  12  23  42  69 101 132 174 228 268 336 401
#     4  10  23  43  67  95 134 174 220 269 334 403
#     4  11  23  41  66  98 137 169 218 282 332 397
#     4  12  24  44  72  94 136 176 218 284 336 388
#
# _framework density 19.513266999999999
#
# number of rings (size 3 to 8) (size 9 to 14) (size 15 to 20)
#    0.000    0.923    3.846    2.769    5.385    2.462 
#    0.000    0.000    0.000    0.000    0.000    0.000 
#    0.000    0.000    0.000    0.000    0.000    0.000 
#
# Total GULP energy -145081.845704 kJ/mol
# GULP energy per Si atom -5580.070989 kJ/mol
# Density = 1.946885 g / cm^3
# Si number density = 19.513267 Si / 1000 Ang^3
#
#
#
# Elastic Constant Matrix: (Units=GPa)
#
#
# Indices 1 2 3 4 5 6 
#
# 1 70.9538 36.5518 31.6272 0.0000 -8.5303 0.0000
# 2 36.5518 103.1927 59.1377 0.0000 -7.4034 0.0000
# 3 31.6272 59.1377 125.0520 0.0000 -6.0772 0.0000
# 4 0.0000 0.0000 0.0000 29.5962 0.0000 -1.3070
# 5 -8.5303 -7.4034 -6.0772 0.0000 39.6963 0.0000
# 6 0.0000 0.0000 0.0000 -1.3070 0.0000 -6.4332
#
#
#
# Elastic Compliance Matrix: (Units=1/GPa)
#
#
# Indices 1 2 3 4 5 6 
#
# 1 0.017880 -0.004976 -0.002042 0.000000 0.002602 0.000000
# 2 -0.004976 0.014771 -0.005687 0.000000 0.000815 0.000000
# 3 -0.002042 -0.005687 0.011213 0.000000 0.000217 0.000000
# 4 0.000000 0.000000 0.000000 0.033488 0.000000 -0.006803
# 5 0.002602 0.000815 0.000217 0.000000 0.025936 0.000000
# 6 0.000000 0.000000 0.000000 -0.006803 0.000000 -0.154062
#
#
# Mechanical properties :
#
#
# Convention : Reuss Voigt Hill
#
# Bulk Modulus (GPa) = 54.19199 61.53688 57.86444
# Shear Modulus (GPa) = -260.25622 24.03065 -118.11278
#
# Velocity S-wave (km/s) = -11.56129 3.51309 -7.78851
# Velocity P-wave (km/s) = 12.26319 6.93254 7.15282
#
# Compressibility (1/GPa) = 0.01845291
#
# Stress axis : x y z
#
# Youngs Moduli (GPa) = 55.92730 67.70102 89.18048
#
# Poissons Ratio (x) = 0.33690 0.18215
# Poissons Ratio (y) = 0.27831 0.50717
# Poissons Ratio (z) = 0.11423 0.38502
#
# Static dielectric constant tensor:
#      x y z
#    x 1.715010 0.000000 0.027420 
#    y 0.000000 1.653130 0.000000 
#    z 0.027420 0.000000 1.702050 
# 
# From -- ./inp_files/96948.got.cif
#   From: 2010.05.17/outbox.cif.g08.bks.cpg/sg15_49_cif.got.tgz:96948.got - 2010.06.03 18:47:42.
