data_PCOD9295410
_publ_section_title
;
Structure prediction by ZEFSAII (Michael W. Deem and Ramdas Pophale) SiO2 
 PCOD9295410
Probable space group: C 2/C
;
_chemical_formula_sum "Si O2"
_cell_formula_units_Z 32
_cell_length_a 27.234858
_cell_length_b 10.065486
_cell_length_c 15.281889
_cell_angle_alpha 90.000000
_cell_angle_beta 18.368060
_cell_angle_gamma 90.000000
_cell_volume 1320.118488
_symmetry_space_group_name_H-M "C 2/C"
_symmetry_group_IT_number 15
_symmetry_cell_setting 'monoclinic'
loop_
_space_group_symop_operation_xyz
x,y,z
-x,y,1/2-z
-x,-y,-z
x,-y,1/2+z
1/2+x,1/2+y,z
1/2-x,1/2+y,1/2-z
1/2-x,1/2-y,-z
1/2+x,1/2-y,1/2+z
loop_
_atom_site_type_symbol
_atom_site_label
_atom_site_fract_x
_atom_site_fract_y
_atom_site_fract_z
Si Si1 0.416206 0.289128 0.128009
Si Si2 0.489114 0.056262 0.116380
Si Si3 0.211442 0.916679 0.659239
Si Si4 0.342701 0.265844 0.571861
O O1 0.408408 0.197473 0.227105
O O2 0.356541 0.437473 0.245019
O O3 0.307267 0.231869 0.236676
O O4 0.600228 0.313114 0.795028
O O5 0.390638 0.947518 0.334999
O O6 0.633117 0.117132 0.927230
O O7 0.500000 0.000000 0.000000
O O8 0.183765 0.867407 0.804503
O O9 0.500000 0.292361 0.250000
#
# Coordination Sequence:
#
# PCOD9295410 Si02
#       4
#     8   8   8   8
#     4  10  23  42  70  99 134 181 234 281 349 418
#     4  11  25  45  69 100 143 183 227 294 352 413
#     4  10  23  44  70  98 136 183 232 288 347 420
#     4  11  24  42  70 103 139 188 236 289 353 417
#
# _framework density 24.240248999999999
#
# number of rings (size 3 to 8) (size 9 to 14) (size 15 to 20)
#    0.000    1.500    2.500    0.750   10.500    4.000 
#    0.000    6.250    0.000    0.000    0.000    0.000 
#    0.000    0.000    0.000    0.000    0.000    0.000 
#
# Total GULP energy -89252.673830 kJ/mol
# GULP energy per Si atom -5578.292114 kJ/mol
# Density = 2.418508 g / cm^3
# Si number density = 24.240249 Si / 1000 Ang^3
#
#
#
# Elastic Constant Matrix: (Units=GPa)
#
#
# Indices 1 2 3 4 5 6 
#
# 1 147.0654 40.7820 54.9121 0.0000 -10.9479 0.0000
# 2 40.7820 102.6568 44.5007 0.0000 10.4179 0.0000
# 3 54.9121 44.5007 109.8213 0.0000 7.4614 0.0000
# 4 0.0000 0.0000 0.0000 52.8559 0.0000 -0.4571
# 5 -10.9479 10.4179 7.4614 0.0000 46.3046 0.0000
# 6 0.0000 0.0000 0.0000 -0.4571 0.0000 60.9713
#
#
#
# Elastic Compliance Matrix: (Units=1/GPa)
#
#
# Indices 1 2 3 4 5 6 
#
# 1 0.009118 -0.002284 -0.003857 0.000000 0.003291 0.000000
# 2 -0.002284 0.012558 -0.003759 0.000000 -0.002760 0.000000
# 3 -0.003857 -0.003759 0.012701 0.000000 -0.002113 0.000000
# 4 0.000000 0.000000 0.000000 0.018921 0.000000 0.000142
# 5 0.003291 -0.002760 -0.002113 0.000000 0.023336 0.000000
# 6 0.000000 0.000000 0.000000 0.000142 0.000000 0.016402
#
#
# Mechanical properties :
#
#
# Convention : Reuss Voigt Hill
#
# Bulk Modulus (GPa) = 68.60370 71.10368 69.85369
# Shear Modulus (GPa) = 42.48210 46.64961 44.56585
#
# Velocity S-wave (km/s) = 4.19088 4.39164 4.29243
# Velocity P-wave (km/s) = 7.19590 7.42374 7.31071
#
# Compressibility (1/GPa) = 0.01457647
#
# Stress axis : x y z
#
# Youngs Moduli (GPa) = 109.66781 79.62877 78.73291
#
# Poissons Ratio (x) = 0.18190 0.30370
# Poissons Ratio (y) = 0.25052 0.29596
# Poissons Ratio (z) = 0.42302 0.29933
#
# Static dielectric constant tensor:
#      x y z
#    x 1.974420 0.000000 -0.084280 
#    y 0.000000 1.984200 0.000000 
#    z -0.084280 0.000000 2.109190 
# 
# From -- ./inp_files/177459.got.cif
#   From: 2010.05.17/outbox.cif.g08.bks.cpg/sg15_89_cif.got.tgz:177459.got - 2010.06.03 18:47:42.
