data_PCOD9295448
_publ_section_title
;
Structure prediction by ZEFSAII (Michael W. Deem and Ramdas Pophale) SiO2 
 PCOD9295448
Probable space group: C 2/C
;
_chemical_formula_sum "Si O2"
_cell_formula_units_Z 56
_cell_length_a 16.576275
_cell_length_b 14.856527
_cell_length_c 23.442024
_cell_angle_alpha 90.000000
_cell_angle_beta 151.829781
_cell_angle_gamma 90.000000
_cell_volume 2725.376818
_symmetry_space_group_name_H-M "C 2/C"
_symmetry_group_IT_number 15
_symmetry_cell_setting 'monoclinic'
loop_
_space_group_symop_operation_xyz
x,y,z
-x,y,1/2-z
-x,-y,-z
x,-y,1/2+z
1/2+x,1/2+y,z
1/2-x,1/2+y,1/2-z
1/2-x,1/2-y,-z
1/2+x,1/2-y,1/2+z
loop_
_atom_site_type_symbol
_atom_site_label
_atom_site_fract_x
_atom_site_fract_y
_atom_site_fract_z
Si Si1 0.500000 0.501360 0.750000
Si Si2 0.264481 0.670114 0.753674
Si Si3 0.858391 0.114399 0.060465
Si Si4 0.513234 0.189813 0.825964
Si Si5 0.588423 0.488620 0.616111
Si Si6 0.280832 0.856699 0.399547
Si Si7 0.000000 0.706038 0.250000
Si Si8 0.925826 0.364425 0.826354
O O1 0.590940 0.440162 0.852603
O O2 0.357775 0.564287 0.689267
O O3 0.154565 0.668737 0.742781
O O4 0.390077 0.585709 0.840457
O O5 0.160049 0.658368 0.629032
O O6 0.353978 0.766388 0.801037
O O7 0.921186 0.216113 0.107760
O O8 0.959777 0.072207 0.071765
O O9 0.656505 0.115164 0.926208
O O10 0.500000 0.199676 0.750000
O O11 0.500000 0.500000 0.500000
O O12 0.771833 0.436956 0.729282
O O13 0.169148 0.770106 0.351162
O O14 0.427193 0.882724 0.535467
O O15 0.001054 0.649303 0.192138
#
# Coordination Sequence:
#
# PCOD9295448 Si02
#       8
#     4   8   8   8   8   8   4   8
#     4  11  22  44  68  99 136 174 232 297 338 413
#     4  11  25  44  70 103 139 178 238 293 348 418
#     4  11  24  44  68  94 138 181 227 287 344 404
#     4  11  24  44  69  97 132 186 231 281 347 415
#     4  12  27  46  67 102 142 186 232 294 349 412
#     4  10  23  42  72 100 135 179 228 284 359 419
#     4   9  22  44  68 107 134 176 220 283 356 423
#     4  11  25  44  73 101 143 184 230 287 352 421
#
# _framework density 20.547616999999999
#
# number of rings (size 3 to 8) (size 9 to 14) (size 15 to 20)
#    0.000    1.143    3.571    1.286    6.000    5.143 
#    1.286    0.000    0.000    0.000    0.000    0.000 
#    0.000    0.000    0.000    0.000    0.000    0.000 
#
# Total GULP energy -156448.613474 kJ/mol
# GULP energy per Si atom -5587.450481 kJ/mol
# Density = 2.050085 g / cm^3
# Si number density = 20.547617 Si / 1000 Ang^3
#
#
#
# Elastic Constant Matrix: (Units=GPa)
#
#
# Indices 1 2 3 4 5 6 
#
# 1 116.5240 -4.1096 4.2763 -0.0006 -3.9437 -0.0004
# 2 -4.1096 54.6630 0.5373 -0.0010 8.1737 -0.0001
# 3 4.2763 0.5373 41.4483 -0.0031 0.3411 -0.0004
# 4 -0.0006 -0.0010 -0.0031 21.8496 0.0001 -13.0877
# 5 -3.9437 8.1737 0.3411 0.0001 22.5221 0.0003
# 6 -0.0004 -0.0001 -0.0004 -13.0877 0.0003 22.4668
#
#
#
# Elastic Compliance Matrix: (Units=1/GPa)
#
#
# Indices 1 2 3 4 5 6 
#
# 1 0.008678 0.000457 -0.000912 0.000000 0.001368 0.000000
# 2 0.000457 0.019369 -0.000241 0.000002 -0.006946 0.000001
# 3 -0.000912 -0.000241 0.024227 0.000006 -0.000439 0.000004
# 4 0.000000 0.000002 0.000006 0.070296 -0.000001 0.040950
# 5 0.001368 -0.006946 -0.000439 -0.000001 0.047168 -0.000001
# 6 0.000000 0.000001 0.000004 0.040950 -0.000001 0.068365
#
#
# Mechanical properties :
#
#
# Convention : Reuss Voigt Hill
#
# Bulk Modulus (GPa) = 19.65369 23.78259 21.71814
# Shear Modulus (GPa) = 19.49652 27.49645 23.49649
#
# Velocity S-wave (km/s) = 3.08368 3.66209 3.38526
# Velocity P-wave (km/s) = 4.71852 5.42961 5.08651
#
# Compressibility (1/GPa) = 0.05088104
#
# Stress axis : x y z
#
# Youngs Moduli (GPa) = 115.23645 51.62827 41.27575
#
# Poissons Ratio (x) = -0.02359 0.03766
# Poissons Ratio (y) = -0.05265 0.00995
# Poissons Ratio (z) = 0.10515 0.01245
#
# Static dielectric constant tensor:
#      x y z
#    x 1.744220 0.000000 0.019450 
#    y 0.000000 1.766420 0.000000 
#    z 0.019450 0.000000 1.715790 
# 
# From -- ./inp_files/245196.got.cif
#   From: 2010.05.17/outbox.cif.g08.bks.cpg/sg15_123_cif.got.tgz:245196.got - 2010.06.03 18:47:42.
