data_PCOD9295024
_publ_section_title
;
Structure prediction by ZEFSAII (Michael W. Deem and Ramdas Pophale) SiO2 
 PCOD9295024
Probable space group: C 2/C
;
_chemical_formula_sum "Si O2"
_cell_formula_units_Z 60
_cell_length_a 15.936575
_cell_length_b 17.112158
_cell_length_c 12.167219
_cell_angle_alpha 90.000000
_cell_angle_beta 73.085754
_cell_angle_gamma 90.000000
_cell_volume 3174.575115
_symmetry_space_group_name_H-M "C 2/C"
_symmetry_group_IT_number 15
_symmetry_cell_setting 'monoclinic'
loop_
_space_group_symop_operation_xyz
x,y,z
-x,y,1/2-z
-x,-y,-z
x,-y,1/2+z
1/2+x,1/2+y,z
1/2-x,1/2+y,1/2-z
1/2-x,1/2-y,-z
1/2+x,1/2-y,1/2+z
loop_
_atom_site_type_symbol
_atom_site_label
_atom_site_fract_x
_atom_site_fract_y
_atom_site_fract_z
Si Si1 0.500000 0.958684 0.250000
Si Si2 0.525373 0.839340 0.047940
Si Si3 0.662368 0.269978 0.601058
Si Si4 0.396158 0.429721 0.774638
Si Si5 0.630758 0.065024 0.335078
Si Si6 0.760429 0.946687 0.396468
Si Si7 0.784480 0.874959 0.624981
Si Si8 0.826391 0.295498 0.156036
O O1 0.535576 0.903265 0.140435
O O2 0.574863 0.011444 0.274852
O O3 0.580114 0.764512 0.066100
O O4 0.422886 0.820485 0.078663
O O5 0.567241 0.876953 0.924147
O O6 0.750000 0.250000 0.500000
O O7 0.645842 0.360892 0.633777
O O8 0.667127 0.228011 0.718213
O O9 0.500000 0.431040 0.750000
O O10 0.348501 0.510166 0.823933
O O11 0.368038 0.407018 0.661258
O O12 0.703203 0.110925 0.237925
O O13 0.682701 0.008394 0.399625
O O14 0.767911 0.921439 0.519836
O O15 0.737377 0.868335 0.338315
O O16 0.796740 0.782656 0.604679
#
# Coordination Sequence:
#
# PCOD9295024 Si02
#       8
#     4   8   8   8   8   8   8   8
#     4  12  22  38  62  90 128 154 204 254 308 368
#     4  12  21  38  62  93 121 162 210 253 314 371
#     4  11  21  39  64  91 123 162 211 264 311 370
#     4  10  23  42  64  90 121 159 214 264 308 371
#     4  11  24  38  61  93 126 160 201 261 314 373
#     4  11  22  41  62  90 125 165 207 252 325 378
#     4  10  23  42  62  87 125 164 203 257 322 365
#     4  11  22  39  60  89 124 162 205 255 310 387
#
# _framework density 18.900165999999999
#
# number of rings (size 3 to 8) (size 9 to 14) (size 15 to 20)
#    0.000    1.067    2.667    5.600    1.867    3.733 
#    0.000    2.667    0.000    0.000    0.000    0.000 
#    0.000    0.000    0.000    0.000    0.000    0.000 
#
# Total GULP energy -167694.012890 kJ/mol
# GULP energy per Si atom -5589.800430 kJ/mol
# Density = 1.885715 g / cm^3
# Si number density = 18.900166 Si / 1000 Ang^3
#
#
#
# Elastic Constant Matrix: (Units=GPa)
#
#
# Indices 1 2 3 4 5 6 
#
# 1 121.8105 66.4467 42.6270 0.0000 -9.6671 0.0000
# 2 66.4467 123.6567 48.8758 0.0000 1.8601 0.0000
# 3 42.6270 48.8758 66.1308 0.0000 -5.6929 0.0000
# 4 0.0000 0.0000 0.0000 10.0848 0.0000 -4.9400
# 5 -9.6671 1.8601 -5.6929 0.0000 18.6618 0.0000
# 6 0.0000 0.0000 0.0000 -4.9400 0.0000 33.3129
#
#
#
# Elastic Compliance Matrix: (Units=1/GPa)
#
#
# Indices 1 2 3 4 5 6 
#
# 1 0.013090 -0.005656 -0.003723 0.000000 0.006209 0.000000
# 2 -0.005656 0.014139 -0.007371 0.000000 -0.006588 0.000000
# 3 -0.003723 -0.007371 0.023483 0.000000 0.005970 0.000000
# 4 0.000000 0.000000 0.000000 0.106927 0.000000 0.015856
# 5 0.006209 -0.006588 0.005970 0.000000 0.059280 0.000000
# 6 0.000000 0.000000 0.000000 0.015856 0.000000 0.032370
#
#
# Mechanical properties :
#
#
# Convention : Reuss Voigt Hill
#
# Bulk Modulus (GPa) = 58.09912 69.72189 63.91051
# Shear Modulus (GPa) = 17.32950 22.65511 19.99231
#
# Velocity S-wave (km/s) = 3.03132 3.46594 3.25589
# Velocity P-wave (km/s) = 6.56190 7.27919 6.92983
#
# Compressibility (1/GPa) = 0.01721196
#
# Stress axis : x y z
#
# Youngs Moduli (GPa) = 76.39192 70.72863 42.58388
#
# Poissons Ratio (x) = 0.40003 0.15855
# Poissons Ratio (y) = 0.43206 0.31388
# Poissons Ratio (z) = 0.28443 0.52133
#
# Static dielectric constant tensor:
#      x y z
#    x 1.660370 0.000000 0.011020 
#    y 0.000000 1.655540 0.000000 
#    z 0.011020 0.000000 1.635430 
# 
# From -- ./inp_files/98736.got.cif
#   From: 2010.05.17/outbox.cif.g08.bks.cpg/sg15_50_cif.got.tgz:98736.got - 2010.06.03 18:47:42.
