data_PCOD9295535
_publ_section_title
;
Structure prediction by ZEFSAII (Michael W. Deem and Ramdas Pophale) SiO2 
 PCOD9295535
Probable space group: C 2/C
;
_chemical_formula_sum "Si O2"
_cell_formula_units_Z 40
_cell_length_a 26.253310
_cell_length_b 6.080691
_cell_length_c 14.210506
_cell_angle_alpha 90.000000
_cell_angle_beta 120.013205
_cell_angle_gamma 90.000000
_cell_volume 1964.352264
_symmetry_space_group_name_H-M "C 2/C"
_symmetry_group_IT_number 15
_symmetry_cell_setting 'monoclinic'
loop_
_space_group_symop_operation_xyz
x,y,z
-x,y,1/2-z
-x,-y,-z
x,-y,1/2+z
1/2+x,1/2+y,z
1/2-x,1/2+y,1/2-z
1/2-x,1/2-y,-z
1/2+x,1/2-y,1/2+z
loop_
_atom_site_type_symbol
_atom_site_label
_atom_site_fract_x
_atom_site_fract_y
_atom_site_fract_z
Si Si1 0.317020 0.705413 0.537206
Si Si2 0.988936 0.143839 0.583281
Si Si3 0.096339 0.175174 0.387390
Si Si4 0.403981 0.953960 0.756130
Si Si5 0.619481 0.050137 0.557721
O O1 0.250000 0.750000 0.500000
O O2 0.344237 0.463408 0.577522
O O3 0.357240 0.851764 0.642301
O O4 0.332741 0.791944 0.447049
O O5 0.045034 0.275190 0.675556
O O6 0.942923 0.330194 0.510997
O O7 0.000000 0.000000 0.500000
O O8 0.954096 0.992146 0.625319
O O9 0.076105 0.325104 0.280576
O O10 0.112588 0.329696 0.490708
O O11 0.373087 0.008049 0.825889
#
# Coordination Sequence:
#
# PCOD9295535 Si02
#       5
#     8   8   8   8   8
#     4  10  25  47  66  97 130 176 231 282 337 399
#     4  11  23  41  66  98 143 176 219 276 337 415
#     4  10  24  43  67  94 144 172 225 281 331 411
#     4  11  24  41  67 102 133 180 224 269 352 398
#     4  10  23  43  63  99 133 174 225 272 342 405
#
# _framework density 20.362946000000001
#
# number of rings (size 3 to 8) (size 9 to 14) (size 15 to 20)
#    0.000    1.600    2.000    0.600    2.800   12.000 
#    7.200    0.000    0.000    0.000    0.000    0.000 
#    0.000    0.000    0.000    0.000    0.000    0.000 
#
# Total GULP energy -111791.373165 kJ/mol
# GULP energy per Si atom -5589.568658 kJ/mol
# Density = 2.031660 g / cm^3
# Si number density = 20.362946 Si / 1000 Ang^3
#
#
#
# Elastic Constant Matrix: (Units=GPa)
#
#
# Indices 1 2 3 4 5 6 
#
# 1 129.1580 48.6504 39.4120 0.0000 3.8614 0.0000
# 2 48.6504 106.6270 44.9717 0.0000 -1.3319 0.0000
# 3 39.4120 44.9717 66.6185 0.0000 -33.3977 0.0000
# 4 0.0000 0.0000 0.0000 30.3896 0.0000 -12.5123
# 5 3.8614 -1.3319 -33.3977 0.0000 36.3252 0.0000
# 6 0.0000 0.0000 0.0000 -12.5123 0.0000 25.9367
#
#
#
# Elastic Compliance Matrix: (Units=1/GPa)
#
#
# Indices 1 2 3 4 5 6 
#
# 1 0.012967 0.000862 -0.016563 0.000000 -0.016575 0.000000
# 2 0.000862 0.018824 -0.023962 0.000000 -0.021432 0.000000
# 3 -0.016563 -0.023962 0.076849 0.000000 0.071538 0.000000
# 4 0.000000 0.000000 0.000000 0.041062 0.000000 0.019809
# 5 -0.016575 -0.021432 0.071538 0.000000 0.094278 0.000000
# 6 0.000000 0.000000 0.000000 0.019809 0.000000 0.048111
#
#
# Mechanical properties :
#
#
# Convention : Reuss Voigt Hill
#
# Bulk Modulus (GPa) = 34.11228 63.16351 48.63790
# Shear Modulus (GPa) = 13.11686 29.82160 21.46923
#
# Velocity S-wave (km/s) = 2.54077 3.83103 3.25056
# Velocity P-wave (km/s) = 5.03943 7.11725 6.16649
#
# Compressibility (1/GPa) = 0.02931495
#
# Stress axis : x y z
#
# Youngs Moduli (GPa) = 77.11609 53.12478 13.01247
#
# Poissons Ratio (x) = -0.04580 0.21553
# Poissons Ratio (y) = -0.06649 0.31180
# Poissons Ratio (z) = 1.27730 1.27296
#
# Static dielectric constant tensor:
#      x y z
#    x 1.716160 0.000000 -0.037480 
#    y 0.000000 1.794260 0.000000 
#    z -0.037480 0.000000 1.838140 
# 
# From -- ./inp_files/170754.got.cif
#   From: 2010.05.17/outbox.cif.g08.bks.cpg/sg15_86_cif.got.tgz:170754.got - 2010.06.03 18:47:42.
