data_PCOD9295691
_publ_section_title
;
Structure prediction by ZEFSAII (Michael W. Deem and Ramdas Pophale) SiO2 
 PCOD9295691
Probable space group: C 2/C
;
_chemical_formula_sum "Si O2"
_cell_formula_units_Z 56
_cell_length_a 16.459473
_cell_length_b 22.745944
_cell_length_c 13.883230
_cell_angle_alpha 90.000000
_cell_angle_beta 146.391321
_cell_angle_gamma 90.000000
_cell_volume 2877.013713
_symmetry_space_group_name_H-M "C 2/C"
_symmetry_group_IT_number 15
_symmetry_cell_setting 'monoclinic'
loop_
_space_group_symop_operation_xyz
x,y,z
-x,y,1/2-z
-x,-y,-z
x,-y,1/2+z
1/2+x,1/2+y,z
1/2-x,1/2+y,1/2-z
1/2-x,1/2-y,-z
1/2+x,1/2-y,1/2+z
loop_
_atom_site_type_symbol
_atom_site_label
_atom_site_fract_x
_atom_site_fract_y
_atom_site_fract_z
Si Si1 0.241003 0.179915 0.639095
Si Si2 0.832461 0.392165 0.047348
Si Si3 0.935705 0.910844 0.423557
Si Si4 0.567011 0.327886 0.408948
Si Si5 0.426778 0.800628 0.986376
Si Si6 0.597631 0.795123 0.756933
Si Si7 0.904327 0.982851 0.750930
O O1 0.243728 0.145260 0.540394
O O2 0.193544 0.132051 0.670942
O O3 0.405163 0.201497 0.816702
O O4 0.141123 0.237130 0.555522
O O5 0.846866 0.349737 0.970214
O O6 0.000000 0.403524 0.250000
O O7 0.742809 0.449984 0.929385
O O8 0.055250 0.869997 0.488270
O O9 0.005613 0.940331 0.587143
O O10 0.882265 0.959474 0.294642
O O11 0.500000 0.360288 0.250000
O O12 0.458904 0.271942 0.312229
O O13 0.730335 0.303915 0.553109
O O14 0.423697 0.818892 0.871582
O O15 0.500000 0.818494 0.750000
O O16 0.000000 0.994420 0.750000
#
# Coordination Sequence:
#
# PCOD9295691 Si02
#       7
#     8   8   8   8   8   8   8
#     4  11  23  40  65  99 135 165 210 257 328 386
#     4  10  23  43  67  98 132 167 206 268 325 382
#     4  11  24  40  68  94 121 172 217 268 312 371
#     4  11  22  37  59  87 128 162 216 262 315 383
#     4  11  23  38  64  97 137 166 205 258 327 400
#     4  11  22  35  57  87 127 172 205 256 322 378
#     4  11  23  44  70  90 124 168 226 264 317 369
#
# _framework density 19.464627
#
# number of rings (size 3 to 8) (size 9 to 14) (size 15 to 20)
#    0.000    1.143    2.857    4.286    4.000    0.000 
#    0.000    2.857    6.286    0.000    0.000    0.000 
#    0.000    0.000    0.000    0.000    0.000    0.000 
#
# Total GULP energy -156285.737856 kJ/mol
# GULP energy per Si atom -5581.633495 kJ/mol
# Density = 1.942032 g / cm^3
# Si number density = 19.464627 Si / 1000 Ang^3
#
#
#
# Elastic Constant Matrix: (Units=GPa)
#
#
# Indices 1 2 3 4 5 6 
#
# 1 152.5825 63.8076 46.6160 0.0000 -9.3183 0.0000
# 2 63.8076 85.0119 48.5842 0.0000 14.7539 0.0000
# 3 46.6160 48.5842 68.2256 0.0000 -5.4961 0.0000
# 4 0.0000 0.0000 0.0000 17.6820 0.0000 -8.9456
# 5 -9.3183 14.7539 -5.4961 0.0000 33.1820 0.0000
# 6 0.0000 0.0000 0.0000 -8.9456 0.0000 29.4139
#
#
#
# Elastic Compliance Matrix: (Units=1/GPa)
#
#
# Indices 1 2 3 4 5 6 
#
# 1 0.010978 -0.009326 -0.000281 0.000000 0.007183 0.000000
# 2 -0.009326 0.033066 -0.018821 0.000000 -0.020439 0.000000
# 3 -0.000281 -0.018821 0.029311 0.000000 0.013145 0.000000
# 4 0.000000 0.000000 0.000000 0.066838 0.000000 0.020327
# 5 0.007183 -0.020439 0.013145 0.000000 0.043419 0.000000
# 6 0.000000 0.000000 0.000000 0.020327 0.000000 0.040180
#
#
# Mechanical properties :
#
#
# Convention : Reuss Voigt Hill
#
# Bulk Modulus (GPa) = 60.61073 69.31507 64.96290
# Shear Modulus (GPa) = 17.47329 25.84306 21.65817
#
# Velocity S-wave (km/s) = 2.99941 3.64771 3.33933
# Velocity P-wave (km/s) = 6.57280 7.30952 6.95093
#
# Compressibility (1/GPa) = 0.01649873
#
# Stress axis : x y z
#
# Youngs Moduli (GPa) = 91.08772 30.24210 34.11637
#
# Poissons Ratio (x) = 0.28203 0.00960
# Poissons Ratio (y) = 0.84947 0.64212
# Poissons Ratio (z) = 0.02564 0.56920
#
# Static dielectric constant tensor:
#      x y z
#    x 1.736630 0.000000 -0.044500 
#    y 0.000000 1.673720 0.000000 
#    z -0.044500 0.000000 1.687190 
# 
# From -- ./inp_files/163827.got.cif
#   From: 2010.05.17/outbox.cif.g08.bks.cpg/sg15_82_cif.got.tgz:163827.got - 2010.06.03 18:47:42.
