data_PCOD9295524
_publ_section_title
;
Structure prediction by ZEFSAII (Michael W. Deem and Ramdas Pophale) SiO2 
 PCOD9295524
Probable space group: C 2/C
;
_chemical_formula_sum "Si O2"
_cell_formula_units_Z 40
_cell_length_a 5.092984
_cell_length_b 25.222908
_cell_length_c 13.472612
_cell_angle_alpha 90.000000
_cell_angle_beta 101.239633
_cell_angle_gamma 90.000000
_cell_volume 1697.496286
_symmetry_space_group_name_H-M "C 2/C"
_symmetry_group_IT_number 15
_symmetry_cell_setting 'monoclinic'
loop_
_space_group_symop_operation_xyz
x,y,z
-x,y,1/2-z
-x,-y,-z
x,-y,1/2+z
1/2+x,1/2+y,z
1/2-x,1/2+y,1/2-z
1/2-x,1/2-y,-z
1/2+x,1/2-y,1/2+z
loop_
_atom_site_type_symbol
_atom_site_label
_atom_site_fract_x
_atom_site_fract_y
_atom_site_fract_z
Si Si1 0.013919 0.808246 0.454038
Si Si2 0.714617 0.909990 0.677126
Si Si3 0.471279 0.197264 0.130432
Si Si4 0.475768 0.863561 0.367823
Si Si5 0.286678 0.025791 0.823277
O O1 0.618853 0.857505 0.614746
O O2 0.769856 0.847829 0.424736
O O3 0.923225 0.749218 0.417419
O O4 0.249871 0.824375 0.393777
O O5 0.500000 0.914068 0.750000
O O6 0.833321 0.808482 0.929824
O O7 0.000000 0.901596 0.750000
O O8 0.722529 0.967872 0.626476
O O9 0.500000 0.204848 0.250000
O O10 0.500000 0.860922 0.250000
O O11 0.376190 0.922545 0.389846
O O12 0.500000 0.022425 0.750000
O O13 0.000000 0.035297 0.750000
#
# Coordination Sequence:
#
# PCOD9295524 Si02
#       5
#     8   8   8   8   8
#     4  11  25  39  62  94 120 156 210 245 299 371
#     4   9  19  35  59  86 115 158 202 239 294 358
#     4  10  23  43  63  87 124 163 199 253 303 354
#     4  11  21  39  62  90 125 160 196 252 303 349
#     4   9  17  33  58  87 118 157 199 241 296 354
#
# _framework density 23.564117
#
# number of rings (size 3 to 8) (size 9 to 14) (size 15 to 20)
#    0.000    2.000    0.000    4.200    0.000   10.400 
#    0.000    2.000    0.000    0.000    0.000    0.000 
#    0.000    0.000    0.000    0.000    0.000    0.000 
#
# Total GULP energy -111842.748299 kJ/mol
# GULP energy per Si atom -5592.137415 kJ/mol
# Density = 2.351048 g / cm^3
# Si number density = 23.564117 Si / 1000 Ang^3
#
#
#
# Elastic Constant Matrix: (Units=GPa)
#
#
# Indices 1 2 3 4 5 6 
#
# 1 187.3960 75.5180 48.4809 0.0000 7.3058 0.0000
# 2 75.5180 196.0327 24.8584 0.0000 29.9304 0.0000
# 3 48.4809 24.8584 100.1309 0.0000 19.1835 0.0000
# 4 0.0000 0.0000 0.0000 -0.2546 0.0000 9.8201
# 5 7.3058 29.9304 19.1835 0.0000 42.1952 0.0000
# 6 0.0000 0.0000 0.0000 9.8201 0.0000 47.1911
#
#
#
# Elastic Compliance Matrix: (Units=1/GPa)
#
#
# Indices 1 2 3 4 5 6 
#
# 1 0.007162 -0.002675 -0.003209 0.000000 0.002117 0.000000
# 2 -0.002675 0.006766 0.000489 0.000000 -0.004558 0.000000
# 3 -0.003209 0.000489 0.012465 0.000000 -0.005458 0.000000
# 4 0.000000 0.000000 0.000000 -0.435153 0.000000 0.090552
# 5 0.002117 -0.004558 -0.005458 0.000000 0.029048 0.000000
# 6 0.000000 0.000000 0.000000 0.090552 0.000000 0.002347
#
#
# Mechanical properties :
#
#
# Convention : Reuss Voigt Hill
#
# Bulk Modulus (GPa) = 64.09415 86.80824 75.45120
# Shear Modulus (GPa) = -13.83608 40.13985 13.15188
#
# Velocity S-wave (km/s) = -2.42578 4.13174 2.36504
# Velocity P-wave (km/s) = 4.40602 7.72534 6.28864
#
# Compressibility (1/GPa) = 0.01560205
#
# Stress axis : x y z
#
# Youngs Moduli (GPa) = 139.62412 147.80331 80.22465
#
# Poissons Ratio (x) = 0.39542 0.25744
# Poissons Ratio (y) = 0.37353 -0.03922
# Poissons Ratio (z) = 0.44806 -0.07227
#
# Static dielectric constant tensor:
#      x y z
#    x 1.826300 0.000000 -0.000900 
#    y 0.000000 1.975890 0.000000 
#    z -0.000900 0.000000 1.889240 
# 
# From -- ./inp_files/129683.got.cif
#   From: 2010.05.17/outbox.cif.g08.bks.cpg/sg15_65_cif.got.tgz:129683.got - 2010.06.03 18:47:42.
