data_PCOD9295189
_publ_section_title
;
Structure prediction by ZEFSAII (Michael W. Deem and Ramdas Pophale) SiO2 
 PCOD9295189
Probable space group: C 2/C
;
_chemical_formula_sum "Si O2"
_cell_formula_units_Z 48
_cell_length_a 19.068587
_cell_length_b 27.807027
_cell_length_c 9.860593
_cell_angle_alpha 90.000000
_cell_angle_beta 29.217339
_cell_angle_gamma 90.000000
_cell_volume 2552.149381
_symmetry_space_group_name_H-M "C 2/C"
_symmetry_group_IT_number 15
_symmetry_cell_setting 'monoclinic'
loop_
_space_group_symop_operation_xyz
x,y,z
-x,y,1/2-z
-x,-y,-z
x,-y,1/2+z
1/2+x,1/2+y,z
1/2-x,1/2+y,1/2-z
1/2-x,1/2-y,-z
1/2+x,1/2-y,1/2+z
loop_
_atom_site_type_symbol
_atom_site_label
_atom_site_fract_x
_atom_site_fract_y
_atom_site_fract_z
Si Si1 0.623958 0.873008 0.137167
Si Si2 0.147988 0.950561 0.815076
Si Si3 0.931566 0.381600 0.726862
Si Si4 0.836067 0.261853 0.491466
Si Si5 0.319097 0.543836 0.921601
Si Si6 0.344135 0.774529 0.959488
O O1 0.500000 0.894316 0.250000
O O2 0.552240 0.873457 0.407127
O O3 0.658947 0.820048 0.019955
O O4 0.763772 0.904987 0.884788
O O5 0.194012 0.994288 0.639605
O O6 0.180089 0.963869 0.917611
O O7 0.977634 0.939371 0.104965
O O8 0.870289 0.328942 0.867118
O O9 0.000000 0.401100 0.750000
O O10 0.805074 0.417442 0.896478
O O11 0.750000 0.250000 0.500000
O O12 0.000000 0.248039 0.250000
O O13 0.750056 0.233642 0.750136
O O14 0.500000 0.755486 0.750000
O O15 0.250000 0.750000 0.000000
#
# Coordination Sequence:
#
# PCOD9295189 Si02
#       6
#     8   8   8   8   8   8
#     4  11  22  42  64  92 126 166 214 259 309 374
#     4  10  23  42  66  94 126 163 208 260 312 379
#     4  11  24  42  62  93 131 165 209 263 313 372
#     4  11  23  41  63  91 127 167 212 265 313 374
#     4  10  23  43  64  94 128 163 206 258 317 372
#     4  11  23  41  63  92 127 167 212 263 318 373
#
# _framework density 18.807677000000002
#
# number of rings (size 3 to 8) (size 9 to 14) (size 15 to 20)
#    0.000    1.333    1.667    5.000    2.333    4.000 
#    0.000    0.000    0.000    0.000    0.000    0.000 
#    0.000    0.000    0.000    0.000    0.000    0.000 
#
# Total GULP energy -133756.985509 kJ/mol
# GULP energy per Si atom -5573.207730 kJ/mol
# Density = 1.876487 g / cm^3
# Si number density = 18.807677 Si / 1000 Ang^3
#
#
#
# Elastic Constant Matrix: (Units=GPa)
#
#
# Indices 1 2 3 4 5 6 
#
# 1 105.6310 14.3110 27.3889 -0.0001 -4.6450 0.0000
# 2 14.3110 56.2967 49.7964 0.0000 -6.6916 0.0000
# 3 27.3889 49.7964 116.7168 -0.0002 11.0138 0.0000
# 4 -0.0001 0.0000 -0.0002 31.6932 0.0001 -8.2813
# 5 -4.6450 -6.6916 11.0138 0.0001 43.2360 0.0000
# 6 0.0000 0.0000 0.0000 -8.2813 0.0000 25.6217
#
#
#
# Elastic Compliance Matrix: (Units=1/GPa)
#
#
# Indices 1 2 3 4 5 6 
#
# 1 0.010209 -0.000215 -0.002463 0.000000 0.001691 0.000000
# 2 -0.000215 0.031277 -0.014087 0.000000 0.008406 0.000000
# 3 -0.002463 -0.014087 0.015766 0.000000 -0.006461 0.000000
# 4 0.000000 0.000000 0.000000 0.034463 0.000000 0.011139
# 5 0.001691 0.008406 -0.006461 0.000000 0.026257 0.000000
# 6 0.000000 0.000000 0.000000 0.011139 0.000000 0.042630
#
#
# Mechanical properties :
#
#
# Convention : Reuss Voigt Hill
#
# Bulk Modulus (GPa) = 42.15710 51.29302 46.72506
# Shear Modulus (GPa) = 24.74750 32.58673 28.66712
#
# Velocity S-wave (km/s) = 3.63136 4.16700 3.90837
# Velocity P-wave (km/s) = 6.32818 7.10517 6.72790
#
# Compressibility (1/GPa) = 0.02372079
#
# Stress axis : x y z
#
# Youngs Moduli (GPa) = 97.95111 31.97204 63.42921
#
# Poissons Ratio (x) = 0.00688 0.15625
# Poissons Ratio (y) = 0.02108 0.89353
# Poissons Ratio (z) = 0.24130 0.45039
#
# Static dielectric constant tensor:
#      x y z
#    x 1.586580 0.000000 0.038450 
#    y 0.000000 1.636760 0.000000 
#    z 0.038450 0.000000 1.617970 
# 
# From -- ./inp_files/52723.got.cif
#   From: 2010.05.17/outbox.cif.g08.bks.cpg/sg15_27_cif.got.tgz:52723.got - 2010.06.03 18:47:42.
