data_PCOD9295019
_publ_section_title
;
Structure prediction by ZEFSAII (Michael W. Deem and Ramdas Pophale) SiO2 
 PCOD9295019
Probable space group: C 2/C
;
_chemical_formula_sum "Si O2"
_cell_formula_units_Z 44
_cell_length_a 7.357834
_cell_length_b 28.994246
_cell_length_c 9.684411
_cell_angle_alpha 90.000000
_cell_angle_beta 121.048050
_cell_angle_gamma 90.000000
_cell_volume 1770.033815
_symmetry_space_group_name_H-M "C 2/C"
_symmetry_group_IT_number 15
_symmetry_cell_setting 'monoclinic'
loop_
_space_group_symop_operation_xyz
x,y,z
-x,y,1/2-z
-x,-y,-z
x,-y,1/2+z
1/2+x,1/2+y,z
1/2-x,1/2+y,1/2-z
1/2-x,1/2-y,-z
1/2+x,1/2-y,1/2+z
loop_
_atom_site_type_symbol
_atom_site_label
_atom_site_fract_x
_atom_site_fract_y
_atom_site_fract_z
Si Si1 0.083909 0.343006 0.430116
Si Si2 0.500000 0.565294 0.750000
Si Si3 0.461576 0.641356 0.503258
Si Si4 0.000000 0.218876 0.750000
Si Si5 0.772859 0.205500 0.234114
Si Si6 0.531253 0.942912 0.042221
Si Si7 0.500000 0.991600 0.750000
O O1 0.322630 0.360320 0.499017
O O2 0.099621 0.303309 0.547891
O O3 0.000000 0.327229 0.250000
O O4 0.959229 0.388325 0.428465
O O5 0.459609 0.596665 0.598151
O O6 0.726176 0.539935 0.829413
O O7 0.474484 0.684823 0.611438
O O8 0.285060 0.657811 0.326055
O O9 0.195463 0.252431 0.795283
O O10 0.000000 0.213569 0.250000
O O11 0.393300 0.969673 0.104278
O O12 0.454978 0.955821 0.859137
#
# Coordination Sequence:
#
# PCOD9295019 Si02
#       7
#     8   4   8   4   8   8   4
#     4  11  22  42  66  90 129 172 217 272 329 396
#     4  11  22  38  66  95 130 166 222 261 326 392
#     4  10  23  42  61  95 126 174 221 271 329 392
#     4  11  24  41  66  92 138 168 228 290 332 395
#     4  10  25  41  63  96 127 175 227 274 338 391
#     4  11  23  43  67  99 133 173 217 277 330 413
#     4  10  24  43  68  97 132 174 218 263 354 397
#
# _framework density 24.858283
#
# number of rings (size 3 to 8) (size 9 to 14) (size 15 to 20)
#    0.000    1.455    2.727    0.545    5.091    5.818 
#    0.000    0.000    2.000    0.000    0.000    0.000 
#    0.000    0.000    0.000    0.000    0.000    0.000 
#
# Total GULP energy -122752.879937 kJ/mol
# GULP energy per Si atom -5579.676361 kJ/mol
# Density = 2.480170 g / cm^3
# Si number density = 24.858283 Si / 1000 Ang^3
#
#
#
# Elastic Constant Matrix: (Units=GPa)
#
#
# Indices 1 2 3 4 5 6 
#
# 1 88.5145 21.9996 26.6764 0.0000 -4.3162 0.0000
# 2 21.9996 60.0729 31.4127 0.0000 4.1473 0.0000
# 3 26.6764 31.4127 146.1675 0.0000 -16.7855 0.0000
# 4 0.0000 0.0000 0.0000 21.7168 0.0000 3.4141
# 5 -4.3162 4.1473 -16.7855 0.0000 35.6577 0.0000
# 6 0.0000 0.0000 0.0000 3.4141 0.0000 13.0449
#
#
#
# Elastic Compliance Matrix: (Units=1/GPa)
#
#
# Indices 1 2 3 4 5 6 
#
# 1 0.012774 -0.004103 -0.001287 0.000000 0.001418 0.000000
# 2 -0.004103 0.020721 -0.004269 0.000000 -0.004916 0.000000
# 3 -0.001287 -0.004269 0.008492 0.000000 0.004338 0.000000
# 4 0.000000 0.000000 0.000000 0.048023 0.000000 -0.012569
# 5 0.001418 -0.004916 0.004338 0.000000 0.030830 0.000000
# 6 0.000000 0.000000 0.000000 -0.012569 0.000000 0.079948
#
#
# Mechanical properties :
#
#
# Convention : Reuss Voigt Hill
#
# Bulk Modulus (GPa) = 44.11215 50.54802 47.33009
# Shear Modulus (GPa) = 21.96241 28.39497 25.17869
#
# Velocity S-wave (km/s) = 2.97561 3.38342 3.18604
# Velocity P-wave (km/s) = 5.43963 5.97009 5.71103
#
# Compressibility (1/GPa) = 0.02266949
#
# Stress axis : x y z
#
# Youngs Moduli (GPa) = 78.28191 48.26103 117.75951
#
# Poissons Ratio (x) = 0.19802 0.15153
# Poissons Ratio (y) = 0.32120 0.50269
# Poissons Ratio (z) = 0.10073 0.20601
#
# Static dielectric constant tensor:
#      x y z
#    x 2.101990 0.000000 -0.030530 
#    y 0.000000 1.942320 0.000000 
#    z -0.030530 0.000000 2.000570 
# 
# From -- ./inp_files/26298.got.cif
#   From: 2010.05.17/outbox.cif.g08.bks.cpg/sg15_14_cif.got.tgz:26298.got - 2010.06.03 18:47:42.
