data_PCOD9295042
_publ_section_title
;
Structure prediction by ZEFSAII (Michael W. Deem and Ramdas Pophale) SiO2 
 PCOD9295042
Probable space group: C 2/C
;
_chemical_formula_sum "Si O2"
_cell_formula_units_Z 60
_cell_length_a 8.802752
_cell_length_b 27.259268
_cell_length_c 12.879365
_cell_angle_alpha 90.000000
_cell_angle_beta 92.817450
_cell_angle_gamma 90.000000
_cell_volume 3086.752584
_symmetry_space_group_name_H-M "C 2/C"
_symmetry_group_IT_number 15
_symmetry_cell_setting 'monoclinic'
loop_
_space_group_symop_operation_xyz
x,y,z
-x,y,1/2-z
-x,-y,-z
x,-y,1/2+z
1/2+x,1/2+y,z
1/2-x,1/2+y,1/2-z
1/2-x,1/2-y,-z
1/2+x,1/2-y,1/2+z
loop_
_atom_site_type_symbol
_atom_site_label
_atom_site_fract_x
_atom_site_fract_y
_atom_site_fract_z
Si Si1 0.316500 0.847492 0.249011
Si Si2 0.666137 0.555007 0.802201
Si Si3 0.682401 0.956452 0.762150
Si Si4 0.183356 0.697069 0.966949
Si Si5 0.406437 0.449880 0.966838
Si Si6 0.648770 0.223750 0.581561
Si Si7 0.000000 0.206461 0.250000
Si Si8 0.338028 0.622356 0.118710
O O1 0.500000 0.853674 0.250000
O O2 0.235802 0.899431 0.242821
O O3 0.277816 0.812758 0.151685
O O4 0.271970 0.820069 0.353387
O O5 0.500000 0.544002 0.750000
O O6 0.767758 0.507256 0.789245
O O7 0.656015 0.567038 0.923781
O O8 0.500000 0.952993 0.750000
O O9 0.770888 0.956400 0.877144
O O10 0.749376 0.912547 0.694869
O O11 0.002984 0.702053 0.974560
O O12 0.250000 0.750000 0.000000
O O13 0.239748 0.648278 0.026520
O O14 0.524920 0.410419 0.923482
O O15 0.500000 0.500000 0.000000
O O16 0.750000 0.250000 0.500000
O O17 0.589252 0.260476 0.669788
O O18 0.105327 0.169773 0.317122
#
# Coordination Sequence:
#
# PCOD9295042 Si02
#       8
#     8   8   8   8   8   8   4   8
#     4  10  23  42  62  97 139 173 225 291 350 405
#     4  12  24  42  70  99 135 180 232 281 344 429
#     4  12  27  45  67 105 139 176 232 291 351 425
#     4  11  22  42  68  98 135 183 231 283 350 412
#     4  12  24  46  72  99 138 186 233 281 353 429
#     4  11  24  43  68  99 138 182 233 285 355 414
#     4  12  22  46  72  92 144 186 222 294 346 416
#     4  12  24  44  73  96 138 186 229 283 353 420
#
# _framework density 19.437904
#
# number of rings (size 3 to 8) (size 9 to 14) (size 15 to 20)
#    0.000    0.533    7.333    1.200    1.867    4.800 
#    0.000    1.333    0.000    0.000    0.000    0.000 
#    0.000    0.000    0.000    0.000    0.000    0.000 
#
# Total GULP energy -167540.915589 kJ/mol
# GULP energy per Si atom -5584.697186 kJ/mol
# Density = 1.939366 g / cm^3
# Si number density = 19.437904 Si / 1000 Ang^3
#
#
#
# Elastic Constant Matrix: (Units=GPa)
#
#
# Indices 1 2 3 4 5 6 
#
# 1 74.1238 40.2123 66.5201 0.0000 7.0034 0.0000
# 2 40.2123 103.1658 22.8112 0.0000 -2.1479 0.0000
# 3 66.5201 22.8112 107.1069 0.0000 1.0364 0.0000
# 4 0.0000 0.0000 0.0000 38.8396 0.0000 2.7553
# 5 7.0034 -2.1479 1.0364 0.0000 32.3962 0.0000
# 6 0.0000 0.0000 0.0000 2.7553 0.0000 36.1712
#
#
#
# Elastic Compliance Matrix: (Units=1/GPa)
#
#
# Indices 1 2 3 4 5 6 
#
# 1 0.040983 -0.011071 -0.023009 0.000000 -0.008858 0.000000
# 2 -0.011071 0.013181 0.004038 0.000000 0.003138 0.000000
# 3 -0.023009 0.004038 0.022723 0.000000 0.004515 0.000000
# 4 0.000000 0.000000 0.000000 0.025887 0.000000 -0.001972
# 5 -0.008858 0.003138 0.004515 0.000000 0.032846 0.000000
# 6 0.000000 0.000000 0.000000 -0.001972 0.000000 0.027796
#
#
# Mechanical properties :
#
#
# Convention : Reuss Voigt Hill
#
# Bulk Modulus (GPa) = 59.51551 60.38707 59.95129
# Shear Modulus (GPa) = 21.82433 31.80494 26.81464
#
# Velocity S-wave (km/s) = 3.35441 4.04943 3.71819
# Velocity P-wave (km/s) = 6.75926 7.27997 7.02444
#
# Compressibility (1/GPa) = 0.01680234
#
# Stress axis : x y z
#
# Youngs Moduli (GPa) = 24.40029 75.86714 44.00826
#
# Poissons Ratio (x) = 0.83995 1.01261
# Poissons Ratio (y) = 0.27014 -0.17772
# Poissons Ratio (z) = 0.56144 -0.30638
#
# Static dielectric constant tensor:
#      x y z
#    x 1.713480 0.000000 0.098100 
#    y 0.000000 1.762570 0.000000 
#    z 0.098100 0.000000 1.854410 
# 
# From -- ./inp_files/81384.got.cif
#   From: 2010.05.17/outbox.cif.g08.bks.cpg/sg15_41_cif.got.tgz:81384.got - 2010.06.03 18:47:42.
