data_PCOD9295422
_publ_section_title
;
Structure prediction by ZEFSAII (Michael W. Deem and Ramdas Pophale) SiO2 
 PCOD9295422
Probable space group: C 2/C
;
_chemical_formula_sum "Si O2"
_cell_formula_units_Z 64
_cell_length_a 18.014343
_cell_length_b 14.283588
_cell_length_c 13.447599
_cell_angle_alpha 90.000000
_cell_angle_beta 47.114981
_cell_angle_gamma 90.000000
_cell_volume 2535.356581
_symmetry_space_group_name_H-M "C 2/C"
_symmetry_group_IT_number 15
_symmetry_cell_setting 'monoclinic'
loop_
_space_group_symop_operation_xyz
x,y,z
-x,y,1/2-z
-x,-y,-z
x,-y,1/2+z
1/2+x,1/2+y,z
1/2-x,1/2+y,1/2-z
1/2-x,1/2-y,-z
1/2+x,1/2-y,1/2+z
loop_
_atom_site_type_symbol
_atom_site_label
_atom_site_fract_x
_atom_site_fract_y
_atom_site_fract_z
Si Si1 0.236418 0.379979 0.427278
Si Si2 0.866128 0.771120 0.913521
Si Si3 0.729963 0.831532 0.665280
Si Si4 0.849517 0.969466 0.879818
Si Si5 0.114736 0.562183 0.659589
Si Si6 0.936785 0.927449 0.491411
Si Si7 0.948729 0.748327 0.050106
Si Si8 0.083526 0.576636 0.906070
O O1 0.243055 0.277452 0.373958
O O2 0.215471 0.365094 0.564128
O O3 0.336949 0.442809 0.317125
O O4 0.147442 0.425268 0.446851
O O5 0.905922 0.668794 0.853120
O O6 0.750000 0.750000 0.000000
O O7 0.890013 0.864501 0.827336
O O8 0.892806 0.790898 0.004370
O O9 0.823156 0.890475 0.626713
O O10 0.628600 0.821077 0.821980
O O11 0.727279 0.956610 0.010583
O O12 0.911437 0.016304 0.913521
O O13 0.139597 0.552429 0.753554
O O14 0.000000 0.516699 0.750000
O O15 0.000244 0.830196 0.431512
O O16 0.000000 0.000000 0.500000
O O17 0.037090 0.679388 0.933566
O O18 0.000000 0.500000 0.000000
#
# Coordination Sequence:
#
# PCOD9295422 Si02
#       8
#     8   8   8   8   8   8   8   8
#     4  10  23  47  67 102 145 189 248 296 366 445
#     4  10  23  42  71 102 146 191 237 309 385 443
#     4  10  25  47  73 101 147 198 239 311 366 442
#     4  10  23  44  71 106 149 192 247 310 375 453
#     4  11  23  45  72 106 149 191 244 321 374 448
#     4  11  23  46  75 110 151 191 253 303 374 458
#     4  12  25  48  74 109 147 197 249 308 382 451
#     4  12  27  43  71 107 141 191 258 303 375 457
#
# _framework density 25.242996000000002
#
# number of rings (size 3 to 8) (size 9 to 14) (size 15 to 20)
#    0.000    1.250    3.750    0.750    8.750    0.500 
#    0.000    3.750    0.000    0.000    0.000    0.000 
#    0.000    0.000    0.000    0.000    0.000    0.000 
#
# Total GULP energy -178550.888826 kJ/mol
# GULP energy per Si atom -5579.715276 kJ/mol
# Density = 2.518554 g / cm^3
# Si number density = 25.242996 Si / 1000 Ang^3
#
#
#
# Elastic Constant Matrix: (Units=GPa)
#
#
# Indices 1 2 3 4 5 6 
#
# 1 167.4607 21.2122 6.7274 0.0000 -19.3115 0.0000
# 2 21.2122 105.6787 -20.9128 0.0000 2.6206 0.0000
# 3 6.7274 -20.9128 67.4814 0.0000 -11.3546 0.0000
# 4 0.0000 0.0000 0.0000 19.5905 0.0000 0.1147
# 5 -19.3115 2.6206 -11.3546 0.0000 23.7866 0.0000
# 6 0.0000 0.0000 0.0000 0.1147 0.0000 46.7453
#
#
#
# Elastic Compliance Matrix: (Units=1/GPa)
#
#
# Indices 1 2 3 4 5 6 
#
# 1 0.006823 -0.001552 -0.000218 0.000000 0.005607 0.000000
# 2 -0.001552 0.010438 0.003244 0.000000 -0.000861 0.000000
# 3 -0.000218 0.003244 0.017132 0.000000 0.007644 0.000000
# 4 0.000000 0.000000 0.000000 0.051046 0.000000 -0.000125
# 5 0.005607 -0.000861 0.007644 0.000000 0.050336 0.000000
# 6 0.000000 0.000000 0.000000 -0.000125 0.000000 0.021393
#
#
# Mechanical properties :
#
#
# Convention : Reuss Voigt Hill
#
# Bulk Modulus (GPa) = 26.77869 39.40827 33.09348
# Shear Modulus (GPa) = 30.00019 40.26408 35.13213
#
# Velocity S-wave (km/s) = 3.45114 3.99815 3.73467
# Velocity P-wave (km/s) = 5.14897 6.07940 5.63343
#
# Compressibility (1/GPa) = 0.03734313
#
# Stress axis : x y z
#
# Youngs Moduli (GPa) = 146.55400 95.80824 58.36945
#
# Poissons Ratio (x) = 0.14867 0.01271
# Poissons Ratio (y) = 0.22741 -0.18938
# Poissons Ratio (z) = 0.03191 -0.31085
#
# Static dielectric constant tensor:
#      x y z
#    x 2.117660 0.000000 -0.185430 
#    y 0.000000 2.148110 0.000000 
#    z -0.185430 0.000000 2.978320 
# 
# From -- ./inp_files/162514.got.cif
#   From: 2010.05.17/outbox.cif.g08.bks.cpg/sg15_82_cif.got.tgz:162514.got - 2010.06.03 18:47:42.
