data_PCOD9295287
_publ_section_title
;
Structure prediction by ZEFSAII (Michael W. Deem and Ramdas Pophale) SiO2 
 PCOD9295287
Probable space group: C 2/C
;
_chemical_formula_sum "Si O2"
_cell_formula_units_Z 40
_cell_length_a 12.411905
_cell_length_b 29.729225
_cell_length_c 5.336462
_cell_angle_alpha 90.000000
_cell_angle_beta 74.433847
_cell_angle_gamma 90.000000
_cell_volume 1896.909438
_symmetry_space_group_name_H-M "C 2/C"
_symmetry_group_IT_number 15
_symmetry_cell_setting 'monoclinic'
loop_
_space_group_symop_operation_xyz
x,y,z
-x,y,1/2-z
-x,-y,-z
x,-y,1/2+z
1/2+x,1/2+y,z
1/2-x,1/2+y,1/2-z
1/2-x,1/2-y,-z
1/2+x,1/2-y,1/2+z
loop_
_atom_site_type_symbol
_atom_site_label
_atom_site_fract_x
_atom_site_fract_y
_atom_site_fract_z
Si Si1 0.871992 0.019368 0.575107
Si Si2 0.628175 0.129725 0.256440
Si Si3 0.817183 0.735362 0.207495
Si Si4 0.062034 0.180164 0.953354
Si Si5 0.254067 0.610298 0.670673
O O1 0.850338 0.072331 0.583552
O O2 0.818602 0.999025 0.360885
O O3 0.000000 0.000000 0.500000
O O4 0.500000 0.124670 0.250000
O O5 0.653858 0.183015 0.279343
O O6 0.665959 0.107336 0.496611
O O7 0.700179 0.110333 0.979459
O O8 0.750000 0.750000 0.500000
O O9 0.924543 0.766935 0.101393
O O10 0.750000 0.750000 0.000000
O O11 0.182517 0.157530 0.892591
O O12 0.000000 0.160463 0.750000
O O13 0.000000 0.171279 0.250000
#
# Coordination Sequence:
#
# PCOD9295287 Si02
#       5
#     8   8   8   8   8
#     4  10  23  42  68 102 137 176 205 273 365 447
#     4  12  25  45  71  96 137 194 241 291 331 400
#     4  12  22  43  61  92 138 185 233 283 345 378
#     4  12  25  38  64  96 137 183 221 281 341 411
#     4  12  25  44  70 102 140 176 233 286 343 421
#
# _framework density 21.086932000000001
#
# number of rings (size 3 to 8) (size 9 to 14) (size 15 to 20)
#    0.000    0.400    4.000    4.800    5.600    1.600 
#    0.000    0.000    0.000   12.000    0.000    0.000 
#    0.000    0.000    0.000    0.000    0.000    0.000 
#
# Total GULP energy -111627.523751 kJ/mol
# GULP energy per Si atom -5581.376188 kJ/mol
# Density = 2.103894 g / cm^3
# Si number density = 21.086932 Si / 1000 Ang^3
#
#
#
# Elastic Constant Matrix: (Units=GPa)
#
#
# Indices 1 2 3 4 5 6 
#
# 1 98.8244 15.4183 36.0788 0.0000 25.4520 0.0000
# 2 15.4183 98.0974 10.3505 0.0000 6.7609 0.0000
# 3 36.0788 10.3505 161.6248 0.0000 38.9018 0.0000
# 4 0.0000 0.0000 0.0000 34.4652 0.0000 -8.2221
# 5 25.4520 6.7609 38.9018 0.0000 37.6662 0.0000
# 6 0.0000 0.0000 0.0000 -8.2221 0.0000 34.7129
#
#
#
# Elastic Compliance Matrix: (Units=1/GPa)
#
#
# Indices 1 2 3 4 5 6 
#
# 1 0.012550 -0.001372 -0.000974 0.000000 -0.007228 0.000000
# 2 -0.001372 0.010482 -0.000180 0.000000 -0.000769 0.000000
# 3 -0.000974 -0.000180 0.008318 0.000000 -0.007900 0.000000
# 4 0.000000 0.000000 0.000000 0.030753 0.000000 0.007284
# 5 -0.007228 -0.000769 -0.007900 0.000000 0.039731 0.000000
# 6 0.000000 0.000000 0.000000 0.007284 0.000000 0.030533
#
#
# Mechanical properties :
#
#
# Convention : Reuss Voigt Hill
#
# Bulk Modulus (GPa) = 38.02548 53.58244 45.80396
# Shear Modulus (GPa) = 34.20381 41.14878 37.67630
#
# Velocity S-wave (km/s) = 4.03182 4.42224 4.23154
# Velocity P-wave (km/s) = 6.30444 7.17916 6.75598
#
# Compressibility (1/GPa) = 0.02629816
#
# Stress axis : x y z
#
# Youngs Moduli (GPa) = 79.68029 95.40617 120.22740
#
# Poissons Ratio (x) = 0.13086 0.11708
# Poissons Ratio (y) = 0.10929 0.02165
# Poissons Ratio (z) = 0.07760 0.01718
#
# Static dielectric constant tensor:
#      x y z
#    x 1.647610 0.000000 -0.110780 
#    y 0.000000 1.804540 0.000000 
#    z -0.110780 0.000000 1.629730 
# 
# From -- ./inp_files/5707.got.cif
#   From: 2010.05.17/outbox.cif.g08.bks.cpg/sg15_3_cif.got.tgz:5707.got - 2010.06.03 18:47:42.
