data_PCOD9295646
_publ_section_title
;
Structure prediction by ZEFSAII (Michael W. Deem and Ramdas Pophale) SiO2 
 PCOD9295646
Probable space group: C 2/C
;
_chemical_formula_sum "Si O2"
_cell_formula_units_Z 40
_cell_length_a 21.890352
_cell_length_b 8.557713
_cell_length_c 8.802034
_cell_angle_alpha 90.000000
_cell_angle_beta 75.564853
_cell_angle_gamma 90.000000
_cell_volume 1596.841936
_symmetry_space_group_name_H-M "C 2/C"
_symmetry_group_IT_number 15
_symmetry_cell_setting 'monoclinic'
loop_
_space_group_symop_operation_xyz
x,y,z
-x,y,1/2-z
-x,-y,-z
x,-y,1/2+z
1/2+x,1/2+y,z
1/2-x,1/2+y,1/2-z
1/2-x,1/2-y,-z
1/2+x,1/2-y,1/2+z
loop_
_atom_site_type_symbol
_atom_site_label
_atom_site_fract_x
_atom_site_fract_y
_atom_site_fract_z
Si Si1 0.780741 0.648168 0.115887
Si Si2 0.121489 0.300309 0.677879
Si Si3 0.443780 0.619474 0.556139
Si Si4 0.901267 0.366445 0.357146
Si Si5 0.345739 0.366832 0.641268
O O1 0.823242 0.704863 0.230589
O O2 0.719755 0.580952 0.240544
O O3 0.750000 0.750000 0.000000
O O4 0.837075 0.575151 0.982195
O O5 0.070148 0.172975 0.764069
O O6 0.082101 0.463088 0.713648
O O7 0.154681 0.246612 0.502730
O O8 0.500000 0.500000 0.500000
O O9 0.445251 0.772433 0.447524
O O10 0.381471 0.518569 0.558581
O O11 0.883388 0.237688 0.242065
#
# Coordination Sequence:
#
# PCOD9295646 Si02
#       5
#     8   8   8   8   8
#     4   9  21  40  65 104 150 188 229 283 349 419
#     4  11  23  42  69 101 141 188 235 291 352 418
#     4  11  26  48  69  97 138 186 236 292 354 422
#     4  10  23  43  67 101 142 183 231 290 356 421
#     4  11  22  39  67 103 141 190 240 285 340 413
#
# _framework density 25.049441999999999
#
# number of rings (size 3 to 8) (size 9 to 14) (size 15 to 20)
#    0.000    1.600    0.000    4.200    0.000   16.000 
#    0.000    6.000    0.000    0.000    0.000    0.000 
#    0.000    0.000    0.000    0.000    0.000    0.000 
#
# Total GULP energy -111495.881319 kJ/mol
# GULP energy per Si atom -5574.794066 kJ/mol
# Density = 2.499243 g / cm^3
# Si number density = 25.049442 Si / 1000 Ang^3
#
#
#
# Elastic Constant Matrix: (Units=GPa)
#
#
# Indices 1 2 3 4 5 6 
#
# 1 89.4694 20.8982 11.8805 0.0000 -10.8218 0.0000
# 2 20.8982 126.0647 11.4439 0.0000 0.7937 0.0000
# 3 11.8805 11.4439 103.1565 0.0000 15.9810 0.0000
# 4 0.0000 0.0000 0.0000 28.8904 0.0000 -10.3482
# 5 -10.8218 0.7937 15.9810 0.0000 23.6412 0.0000
# 6 0.0000 0.0000 0.0000 -10.3482 0.0000 0.6351
#
#
#
# Elastic Compliance Matrix: (Units=1/GPa)
#
#
# Indices 1 2 3 4 5 6 
#
# 1 0.012881 -0.001961 -0.002446 0.000000 0.007615 0.000000
# 2 -0.001961 0.008315 -0.000574 0.000000 -0.000789 0.000000
# 3 -0.002446 -0.000574 0.011404 0.000000 -0.008809 0.000000
# 4 0.000000 0.000000 0.000000 -0.007158 0.000000 -0.116618
# 5 0.007615 -0.000789 -0.008809 0.000000 0.051766 0.000000
# 6 0.000000 0.000000 0.000000 -0.116618 0.000000 -0.325577
#
#
# Mechanical properties :
#
#
# Convention : Reuss Voigt Hill
#
# Bulk Modulus (GPa) = 44.17514 45.23730 44.70622
# Shear Modulus (GPa) = -21.65811 28.93121 3.63655
#
# Velocity S-wave (km/s) = -2.94362 3.40216 1.20619
# Velocity P-wave (km/s) = 2.47391 5.79063 4.45262
#
# Compressibility (1/GPa) = 0.02263717
#
# Stress axis : x y z
#
# Youngs Moduli (GPa) = 77.63375 120.26943 87.68760
#
# Poissons Ratio (x) = 0.23588 0.21446
# Poissons Ratio (y) = 0.15226 0.05036
# Poissons Ratio (z) = 0.18987 0.06908
#
# Static dielectric constant tensor:
#      x y z
#    x 2.062760 0.000000 -0.095440 
#    y 0.000000 2.046300 0.000000 
#    z -0.095440 0.000000 2.067440 
# 
# From -- ./inp_files/59927.got.cif
#   From: 2010.05.17/outbox.cif.g08.bks.cpg/sg15_30_cif.got.tgz:59927.got - 2010.06.03 18:47:42.
