data_PCOD9295235
_publ_section_title
;
Structure prediction by ZEFSAII (Michael W. Deem and Ramdas Pophale) SiO2 
 PCOD9295235
Probable space group: C 2/C
;
_chemical_formula_sum "Si O2"
_cell_formula_units_Z 64
_cell_length_a 25.920994
_cell_length_b 13.363171
_cell_length_c 9.644446
_cell_angle_alpha 90.000000
_cell_angle_beta 98.713397
_cell_angle_gamma 90.000000
_cell_volume 3302.150781
_symmetry_space_group_name_H-M "C 2/C"
_symmetry_group_IT_number 15
_symmetry_cell_setting 'monoclinic'
loop_
_space_group_symop_operation_xyz
x,y,z
-x,y,1/2-z
-x,-y,-z
x,-y,1/2+z
1/2+x,1/2+y,z
1/2-x,1/2+y,1/2-z
1/2-x,1/2-y,-z
1/2+x,1/2-y,1/2+z
loop_
_atom_site_type_symbol
_atom_site_label
_atom_site_fract_x
_atom_site_fract_y
_atom_site_fract_z
Si Si1 0.348512 0.904000 0.650572
Si Si2 0.715093 0.414280 0.238120
Si Si3 0.437212 0.409977 0.881059
Si Si4 0.860418 0.259232 0.892241
Si Si5 0.438792 0.608426 0.059066
Si Si6 0.860635 0.258820 0.414409
Si Si7 0.673932 0.132561 0.858309
Si Si8 0.726074 0.396684 0.567474
O O1 0.374729 0.844488 0.787217
O O2 0.367203 0.852245 0.517730
O O3 0.286010 0.884457 0.636346
O O4 0.352299 0.023233 0.646972
O O5 0.672628 0.328399 0.195345
O O6 0.769088 0.381433 0.186195
O O7 0.724106 0.428932 0.405586
O O8 0.701307 0.518017 0.155683
O O9 0.498466 0.382790 0.915080
O O10 0.422854 0.414206 0.711911
O O11 0.404454 0.324718 0.944070
O O12 0.427564 0.514383 0.954548
O O13 0.908573 0.204283 0.986960
O O14 0.825281 0.314854 0.993098
O O15 0.858049 0.297501 0.257714
O O16 0.806114 0.204540 0.427997
#
# Coordination Sequence:
#
# PCOD9295235 Si02
#       8
#     8   8   8   8   8   8   8   8
#     4  11  24  40  58  84 126 161 204 247 287 344
#     4  11  24  38  57  89 126 160 200 247 297 357
#     4  10  23  42  67  92 124 151 189 246 306 368
#     4  12  23  39  63  88 119 159 201 249 295 359
#     4  10  23  43  64  96 122 150 191 244 308 366
#     4  12  21  40  64  85 118 164 200 246 300 353
#     4  11  24  39  59  86 120 164 206 244 293 343
#     4  11  24  38  58  88 127 160 200 247 296 357
#
# _framework density 19.381307
#
# number of rings (size 3 to 8) (size 9 to 14) (size 15 to 20)
#    0.000    1.000    3.750    3.000    8.750    2.000 
#    0.000    0.000    0.000    4.500    0.000    0.000 
#    0.000    0.000    0.000    0.000    0.000    0.000 
#
# Total GULP energy -178907.875994 kJ/mol
# GULP energy per Si atom -5590.871125 kJ/mol
# Density = 1.933719 g / cm^3
# Si number density = 19.381307 Si / 1000 Ang^3
#
#
#
# Elastic Constant Matrix: (Units=GPa)
#
#
# Indices 1 2 3 4 5 6 
#
# 1 33.9595 14.9002 4.1055 0.0000 2.6002 0.0000
# 2 14.9002 71.7562 12.8149 0.0000 9.1642 0.0000
# 3 4.1055 12.8149 82.9433 0.0000 10.6763 0.0000
# 4 0.0000 0.0000 0.0000 38.1215 0.0000 -6.9647
# 5 2.6002 9.1642 10.6763 0.0000 18.3918 0.0000
# 6 0.0000 0.0000 0.0000 -6.9647 0.0000 24.6327
#
#
#
# Elastic Compliance Matrix: (Units=1/GPa)
#
#
# Indices 1 2 3 4 5 6 
#
# 1 0.032444 -0.006518 -0.000461 0.000000 -0.001072 0.000000
# 2 -0.006518 0.016357 -0.001377 0.000000 -0.006429 0.000000
# 3 -0.000461 -0.001377 0.013180 0.000000 -0.006900 0.000000
# 4 0.000000 0.000000 0.000000 0.027661 0.000000 0.007821
# 5 -0.001072 -0.006429 -0.006900 0.000000 0.061732 0.000000
# 6 0.000000 0.000000 0.000000 0.007821 0.000000 0.042808
#
#
# Mechanical properties :
#
#
# Convention : Reuss Voigt Hill
#
# Bulk Modulus (GPa) = 22.08994 28.03335 25.06165
# Shear Modulus (GPa) = 22.12552 26.68509 24.40531
#
# Velocity S-wave (km/s) = 3.38241 3.71461 3.55240
# Velocity P-wave (km/s) = 5.16493 5.73527 5.45756
#
# Compressibility (1/GPa) = 0.04526948
#
# Stress axis : x y z
#
# Youngs Moduli (GPa) = 30.82189 61.13760 75.87200
#
# Poissons Ratio (x) = 0.39849 0.03497
# Poissons Ratio (y) = 0.20089 0.10447
# Poissons Ratio (z) = 0.01421 0.08418
#
# Static dielectric constant tensor:
#      x y z
#    x 1.669500 0.000000 0.004210 
#    y 0.000000 1.673710 0.000000 
#    z 0.004210 0.000000 1.679240 
# 
# From -- ./inp_files/66233.got.cif
#   From: 2010.05.17/outbox.cif.g08.bks.cpg/sg15_34_cif.got.tgz:66233.got - 2010.06.03 18:47:42.
