data_PCOD9295282
_publ_section_title
;
Structure prediction by ZEFSAII (Michael W. Deem and Ramdas Pophale) SiO2 
 PCOD9295282
Probable space group: C 2/C
;
_chemical_formula_sum "Si O2"
_cell_formula_units_Z 36
_cell_length_a 13.091276
_cell_length_b 4.890860
_cell_length_c 27.429653
_cell_angle_alpha 90.000000
_cell_angle_beta 129.951167
_cell_angle_gamma 90.000000
_cell_volume 1346.330898
_symmetry_space_group_name_H-M "C 2/C"
_symmetry_group_IT_number 15
_symmetry_cell_setting 'monoclinic'
loop_
_space_group_symop_operation_xyz
x,y,z
-x,y,1/2-z
-x,-y,-z
x,-y,1/2+z
1/2+x,1/2+y,z
1/2-x,1/2+y,1/2-z
1/2-x,1/2-y,-z
1/2+x,1/2-y,1/2+z
loop_
_atom_site_type_symbol
_atom_site_label
_atom_site_fract_x
_atom_site_fract_y
_atom_site_fract_z
Si Si1 0.000000 0.257636 0.250000
Si Si2 0.176007 0.685483 0.548881
Si Si3 0.059842 0.818854 0.960540
Si Si4 0.047704 0.548127 0.366845
Si Si5 0.759442 0.451988 0.784959
O O1 0.019894 0.436064 0.304406
O O2 0.135974 0.088780 0.282974
O O3 0.135632 0.380414 0.522243
O O4 0.330538 0.746088 0.600237
O O5 0.094215 0.784226 0.571228
O O6 0.115060 0.881184 0.487764
O O7 0.084378 0.693210 0.915462
O O8 0.906137 0.655043 0.344194
O O9 0.771903 0.764673 0.772096
#
# Coordination Sequence:
#
# PCOD9295282 Si02
#       5
#     4   8   8   8   8
#     4  10  26  46  68 102 140 180 226 278 336 404
#     4  10  23  43  68  99 133 174 225 279 335 396
#     4  10  23  42  68 101 134 174 223 277 338 397
#     4  11  24  44  72 100 137 181 225 277 337 404
#     4  10  25  45  66  96 134 179 228 274 329 395
#
# _framework density 26.739336999999999
#
# number of rings (size 3 to 8) (size 9 to 14) (size 15 to 20)
#    0.000    1.778    0.000    1.333    0.000   24.889 
#    0.000    0.000    0.000    0.000    0.000    0.000 
#    0.000    0.000    0.000    0.000    0.000    0.000 
#
# Total GULP energy -100993.659972 kJ/mol
# GULP energy per Si atom -5610.758887 kJ/mol
# Density = 2.667848 g / cm^3
# Si number density = 26.739337 Si / 1000 Ang^3
#
#
#
# Elastic Constant Matrix: (Units=GPa)
#
#
# Indices 1 2 3 4 5 6 
#
# 1 193.7566 32.9802 52.8187 -0.0007 38.1858 0.0007
# 2 32.9802 90.1695 2.2092 -0.0013 2.2765 0.0008
# 3 52.8187 2.2092 55.8828 -0.0005 5.5933 0.0004
# 4 -0.0007 -0.0013 -0.0005 21.0312 0.0002 5.9809
# 5 38.1858 2.2765 5.5933 0.0002 72.9936 -0.0004
# 6 0.0007 0.0008 0.0004 5.9809 -0.0004 41.4746
#
#
#
# Elastic Compliance Matrix: (Units=1/GPa)
#
#
# Indices 1 2 3 4 5 6 
#
# 1 0.008409 -0.002798 -0.007463 0.000000 -0.003740 0.000000
# 2 -0.002798 0.012039 0.002076 0.000001 0.000929 0.000000
# 3 -0.007463 0.002076 0.024671 0.000001 0.001949 0.000000
# 4 0.000000 0.000001 0.000001 0.049582 0.000000 -0.007150
# 5 -0.003740 0.000929 0.001949 0.000000 0.015478 0.000000
# 6 0.000000 0.000000 0.000000 -0.007150 0.000000 0.025142
#
#
# Mechanical properties :
#
#
# Convention : Reuss Voigt Hill
#
# Bulk Modulus (GPa) = 34.78393 57.31389 46.04891
# Shear Modulus (GPa) = 31.00293 43.88658 37.44476
#
# Velocity S-wave (km/s) = 3.40876 4.05566 3.74620
# Velocity P-wave (km/s) = 5.34132 6.58878 5.99757
#
# Compressibility (1/GPa) = 0.02874891
#
# Stress axis : x y z
#
# Youngs Moduli (GPa) = 118.92150 83.06045 40.53312
#
# Poissons Ratio (x) = 0.23243 0.30249
# Poissons Ratio (y) = 0.33278 -0.08414
# Poissons Ratio (z) = 0.88750 -0.17243
#
# Static dielectric constant tensor:
#      x y z
#    x 2.104160 0.000000 0.029710 
#    y 0.000000 2.049180 0.000000 
#    z 0.029710 0.000000 2.125490 
# 
# From -- ./inp_files/312481.got.cif
#   From: 2010.05.17/outbox.cif.g08.bks.cpg/sg15_157_cif.got.tgz:312481.got - 2010.06.03 18:47:42.
