data_PCOD9295239
_publ_section_title
;
Structure prediction by ZEFSAII (Michael W. Deem and Ramdas Pophale) SiO2 
 PCOD9295239
Probable space group: C 2/C
;
_chemical_formula_sum "Si O2"
_cell_formula_units_Z 56
_cell_length_a 24.970611
_cell_length_b 6.885887
_cell_length_c 17.004268
_cell_angle_alpha 90.000000
_cell_angle_beta 65.671092
_cell_angle_gamma 90.000000
_cell_volume 2664.149457
_symmetry_space_group_name_H-M "C 2/C"
_symmetry_group_IT_number 15
_symmetry_cell_setting 'monoclinic'
loop_
_space_group_symop_operation_xyz
x,y,z
-x,y,1/2-z
-x,-y,-z
x,-y,1/2+z
1/2+x,1/2+y,z
1/2-x,1/2+y,1/2-z
1/2-x,1/2-y,-z
1/2+x,1/2-y,1/2+z
loop_
_atom_site_type_symbol
_atom_site_label
_atom_site_fract_x
_atom_site_fract_y
_atom_site_fract_z
Si Si1 0.700439 0.612625 0.724044
Si Si2 0.633098 0.951720 0.678482
Si Si3 0.676143 0.258780 0.837644
Si Si4 0.008839 0.780148 0.013325
Si Si5 0.131817 0.824479 0.029564
Si Si6 0.063113 0.517466 0.856874
Si Si7 0.194788 0.162578 0.081008
O O1 0.666041 0.804236 0.718160
O O2 0.666002 0.466183 0.802230
O O3 0.761097 0.678035 0.726677
O O4 0.713956 0.486996 0.637585
O O5 0.633891 0.831567 0.597703
O O6 0.571074 0.995263 0.758909
O O7 0.663477 0.156220 0.642163
O O8 0.624770 0.110032 0.847343
O O9 0.676866 0.287148 0.931001
O O10 0.068450 0.785793 0.028549
O O11 0.955687 0.685327 0.093560
O O12 0.016881 0.661708 0.926860
O O13 0.000000 0.000000 0.000000
O O14 0.149623 0.035222 0.054511
O O15 0.250000 0.250000 0.000000
#
# Coordination Sequence:
#
# PCOD9295239 Si02
#       7
#     8   8   8   8   8   8   8
#     4  11  24  38  63  99 132 177 219 266 327 401
#     4  11  23  44  63  93 137 175 217 270 330 406
#     4  11  22  41  63  98 133 174 223 274 329 400
#     4  10  24  44  68  98 126 169 224 285 338 389
#     4  10  25  41  63  94 131 171 224 276 328 398
#     4  10  23  42  67  93 129 171 218 279 331 394
#     4  11  23  40  64  95 136 182 212 267 338 402
#
# _framework density 21.019842000000001
#
# number of rings (size 3 to 8) (size 9 to 14) (size 15 to 20)
#    0.000    1.429    1.429    2.571    6.000    7.429 
#    0.000    0.000    0.000    0.000    0.000    0.000 
#    0.000    0.000    0.000    0.000    0.000    0.000 
#
# Total GULP energy -156283.823942 kJ/mol
# GULP energy per Si atom -5581.565141 kJ/mol
# Density = 2.097200 g / cm^3
# Si number density = 21.019842 Si / 1000 Ang^3
#
#
#
# Elastic Constant Matrix: (Units=GPa)
#
#
# Indices 1 2 3 4 5 6 
#
# 1 43.4815 23.2055 2.0618 0.0000 -1.7165 0.0000
# 2 23.2055 149.7570 50.7348 -0.0001 0.9758 0.0011
# 3 2.0618 50.7348 128.0279 0.0000 -2.3496 0.0001
# 4 0.0000 -0.0001 0.0000 33.1069 0.0000 4.2426
# 5 -1.7165 0.9758 -2.3496 0.0000 23.3774 0.0000
# 6 0.0000 0.0011 0.0001 4.2426 0.0000 24.4033
#
#
#
# Elastic Compliance Matrix: (Units=1/GPa)
#
#
# Indices 1 2 3 4 5 6 
#
# 1 0.025375 -0.004414 0.001381 0.000000 0.002186 0.000000
# 2 -0.004414 0.008490 -0.003312 0.000000 -0.001011 0.000000
# 3 0.001381 -0.003312 0.009122 0.000000 0.001156 0.000000
# 4 0.000000 0.000000 0.000000 0.030893 0.000000 -0.005371
# 5 0.002186 -0.001011 0.001156 0.000000 0.043095 0.000000
# 6 0.000000 0.000000 0.000000 -0.005371 0.000000 0.041912
#
#
# Mechanical properties :
#
#
# Convention : Reuss Voigt Hill
#
# Bulk Modulus (GPa) = 33.00693 52.58559 42.79626
# Shear Modulus (GPa) = 27.52139 32.52848 30.02493
#
# Velocity S-wave (km/s) = 3.62236 3.93811 3.78353
# Velocity P-wave (km/s) = 5.76473 6.76385 6.28418
#
# Compressibility (1/GPa) = 0.03029667
#
# Stress axis : x y z
#
# Youngs Moduli (GPa) = 39.40922 117.78516 109.62236
#
# Poissons Ratio (x) = 0.51989 -0.15135
# Poissons Ratio (y) = 0.17395 0.36306
# Poissons Ratio (z) = -0.05441 0.39009
#
# Static dielectric constant tensor:
#      x y z
#    x 1.687950 0.000000 -0.009370 
#    y 0.000000 1.761220 0.000000 
#    z -0.009370 0.000000 1.801610 
# 
# From -- ./inp_files/223818.got.cif
#   From: 2010.05.17/outbox.cif.g08.bks.cpg/sg15_112_cif.got.tgz:223818.got - 2010.06.03 18:47:42.
