data_PCOD9295128
_publ_section_title
;
Structure prediction by ZEFSAII (Michael W. Deem and Ramdas Pophale) SiO2 
 PCOD9295128
Probable space group: C 2/C
;
_chemical_formula_sum "Si O2"
_cell_formula_units_Z 64
_cell_length_a 24.937041
_cell_length_b 9.519421
_cell_length_c 15.621195
_cell_angle_alpha 90.000000
_cell_angle_beta 50.918358
_cell_angle_gamma 90.000000
_cell_volume 2878.527931
_symmetry_space_group_name_H-M "C 2/C"
_symmetry_group_IT_number 15
_symmetry_cell_setting 'monoclinic'
loop_
_space_group_symop_operation_xyz
x,y,z
-x,y,1/2-z
-x,-y,-z
x,-y,1/2+z
1/2+x,1/2+y,z
1/2-x,1/2+y,1/2-z
1/2-x,1/2-y,-z
1/2+x,1/2-y,1/2+z
loop_
_atom_site_type_symbol
_atom_site_label
_atom_site_fract_x
_atom_site_fract_y
_atom_site_fract_z
Si Si1 0.442886 0.563176 0.876565
Si Si2 0.381012 0.900525 0.560739
Si Si3 0.193334 0.655308 0.103346
Si Si4 0.647371 0.561981 0.693540
Si Si5 0.753402 0.679716 0.088675
Si Si6 0.731589 0.057760 0.707699
Si Si7 0.559740 0.107296 0.124088
Si Si8 0.393410 0.591761 0.593582
O O1 0.500000 0.514791 0.750000
O O2 0.377336 0.551114 0.879086
O O3 0.453716 0.729006 0.884155
O O4 0.430871 0.481646 0.976166
O O5 0.332563 0.837110 0.534691
O O6 0.326285 0.989814 0.672849
O O7 0.410172 0.758390 0.573102
O O8 0.434481 0.006875 0.463454
O O9 0.160132 0.773581 0.197644
O O10 0.226178 0.534576 0.127159
O O11 0.133393 0.604612 0.099914
O O12 0.250000 0.750000 0.000000
O O13 0.714918 0.467607 0.630500
O O14 0.594730 0.526555 0.823719
O O15 0.717589 0.782155 0.194142
O O16 0.750000 0.750000 0.000000
O O17 0.810355 0.063051 0.662786
O O18 0.500000 0.062718 0.250000
#
# Coordination Sequence:
#
# PCOD9295128 Si02
#       8
#     8   8   8   8   8   8   8   8
#     4  10  24  43  64  87 120 166 214 259 317 382
#     4  11  22  38  60  91 126 159 202 252 319 380
#     4  11  21  37  66  90 123 168 208 258 325 384
#     4  11  21  38  61  91 124 160 209 259 318 379
#     4  11  22  36  58  92 126 157 201 259 319 381
#     4  11  22  36  58  95 126 155 200 258 320 377
#     4  10  23  42  65  88 123 168 215 261 318 383
#     4  11  23  38  63  93 129 162 204 267 321 379
#
# _framework density 22.233588000000001
#
# number of rings (size 3 to 8) (size 9 to 14) (size 15 to 20)
#    0.000    1.250    2.500    5.250    1.750    1.000 
#    0.000    0.625    0.000    0.000    0.000    0.000 
#    0.000    0.000    0.000    0.000    0.000    0.000 
#
# Total GULP energy -178693.787595 kJ/mol
# GULP energy per Si atom -5584.180862 kJ/mol
# Density = 2.218298 g / cm^3
# Si number density = 22.233588 Si / 1000 Ang^3
#
#
#
# Elastic Constant Matrix: (Units=GPa)
#
#
# Indices 1 2 3 4 5 6 
#
# 1 18.0254 -6.7416 -1.9110 0.0000 -3.4607 0.0000
# 2 -6.7416 72.7805 32.8191 -0.0001 7.9141 0.0000
# 3 -1.9110 32.8191 155.8087 0.0000 1.1060 0.0000
# 4 0.0000 -0.0001 0.0000 40.4942 0.0000 5.8409
# 5 -3.4607 7.9141 1.1060 0.0000 27.8789 0.0000
# 6 0.0000 0.0000 0.0000 5.8409 0.0000 18.3421
#
#
#
# Elastic Compliance Matrix: (Units=1/GPa)
#
#
# Indices 1 2 3 4 5 6 
#
# 1 0.058411 0.004938 -0.000365 0.000000 0.005864 0.000000
# 2 0.004938 0.016104 -0.003304 0.000000 -0.003827 0.000000
# 3 -0.000365 -0.003304 0.007105 0.000000 0.000611 0.000000
# 4 0.000000 0.000000 0.000000 0.025884 0.000000 -0.008243
# 5 0.005864 -0.003827 0.000611 0.000000 0.037660 0.000000
# 6 0.000000 0.000000 0.000000 -0.008243 0.000000 0.057144
#
#
# Mechanical properties :
#
#
# Convention : Reuss Voigt Hill
#
# Bulk Modulus (GPa) = 11.88267 32.77195 22.32731
# Shear Modulus (GPa) = 21.94685 32.17290 27.05988
#
# Velocity S-wave (km/s) = 3.14523 3.80813 3.49244
# Velocity P-wave (km/s) = 4.30651 5.84017 5.13097
#
# Compressibility (1/GPa) = 0.08415619
#
# Stress axis : x y z
#
# Youngs Moduli (GPa) = 17.12006 62.09821 140.73972
#
# Poissons Ratio (x) = -0.30662 0.05141
# Poissons Ratio (y) = -0.08453 0.46504
# Poissons Ratio (z) = 0.00625 0.20519
#
# Static dielectric constant tensor:
#      x y z
#    x 1.876630 0.000000 -0.001080 
#    y 0.000000 1.817910 0.000000 
#    z -0.001080 0.000000 1.892110 
# 
# From -- ./inp_files/181153.got.cif
#   From: 2010.05.17/outbox.cif.g08.bks.cpg/sg15_91_cif.got.tgz:181153.got - 2010.06.03 18:47:42.
