data_PCOD9295726
_publ_section_title
;
Structure prediction by ZEFSAII (Michael W. Deem and Ramdas Pophale) SiO2 
 PCOD9295726
Probable space group: C 2/C
;
_chemical_formula_sum "Si O2"
_cell_formula_units_Z 64
_cell_length_a 14.751097
_cell_length_b 24.480798
_cell_length_c 17.505918
_cell_angle_alpha 90.000000
_cell_angle_beta 31.234818
_cell_angle_gamma 90.000000
_cell_volume 3278.103499
_symmetry_space_group_name_H-M "C 2/C"
_symmetry_group_IT_number 15
_symmetry_cell_setting 'monoclinic'
loop_
_space_group_symop_operation_xyz
x,y,z
-x,y,1/2-z
-x,-y,-z
x,-y,1/2+z
1/2+x,1/2+y,z
1/2-x,1/2+y,1/2-z
1/2-x,1/2-y,-z
1/2+x,1/2-y,1/2+z
loop_
_atom_site_type_symbol
_atom_site_label
_atom_site_fract_x
_atom_site_fract_y
_atom_site_fract_z
Si Si1 0.076946 0.747929 0.461330
Si Si2 0.043407 0.199630 0.306520
Si Si3 0.128791 0.642041 0.924022
Si Si4 0.171506 0.479375 0.074456
Si Si5 0.871025 0.451366 0.569114
Si Si6 0.468205 0.365149 0.083553
Si Si7 0.486624 0.578094 0.107727
Si Si8 0.824934 0.904192 0.423294
O O1 0.262368 0.719880 0.312229
O O2 0.040976 0.803395 0.440985
O O3 0.077626 0.766069 0.549185
O O4 0.928513 0.703641 0.550551
O O5 0.000000 0.209418 0.250000
O O6 0.023173 0.135610 0.339804
O O7 0.277816 0.623491 0.756870
O O8 0.210580 0.632382 0.948434
O O9 0.961322 0.603876 0.032870
O O10 0.000000 0.474309 0.250000
O O11 0.147950 0.451468 0.008613
O O12 0.336875 0.452684 0.997248
O O13 0.217730 0.542319 0.023717
O O14 0.682061 0.456282 0.744749
O O15 0.000000 0.500000 0.500000
O O16 0.607490 0.373113 0.050594
O O17 0.511725 0.405298 0.982295
O O18 0.000000 0.921077 0.250000
#
# Coordination Sequence:
#
# PCOD9295726 Si02
#       8
#     8   8   8   8   8   8   8   8
#     4  11  22  41  66  93 134 167 220 274 330 391
#     4  11  22  41  63  97 127 174 212 268 330 401
#     4  11  22  43  66  95 131 174 224 276 327 396
#     4  12  26  44  65 101 135 174 225 270 327 402
#     4  12  24  41  68  97 132 177 217 274 330 392
#     4  10  24  43  65  98 129 174 223 277 330 390
#     4  11  25  43  68  95 137 174 219 272 335 396
#     4  10  23  43  68  91 130 176 226 276 330 389
#
# _framework density 19.523484
#
# number of rings (size 3 to 8) (size 9 to 14) (size 15 to 20)
#    0.000    1.000    3.750    3.000    3.500    1.000 
#    0.000    0.000    0.000    0.000    0.000    0.000 
#    0.000    0.000    0.000    0.000    0.000    0.000 
#
# Total GULP energy -178928.650789 kJ/mol
# GULP energy per Si atom -5591.520337 kJ/mol
# Density = 1.947905 g / cm^3
# Si number density = 19.523484 Si / 1000 Ang^3
#
#
#
# Elastic Constant Matrix: (Units=GPa)
#
#
# Indices 1 2 3 4 5 6 
#
# 1 141.2293 39.5275 58.9438 -0.0042 12.3720 0.0047
# 2 39.5275 60.1901 29.8755 -0.0034 -1.5515 0.0057
# 3 58.9438 29.8755 117.2574 -0.0287 -2.6960 0.0161
# 4 -0.0042 -0.0034 -0.0287 24.1171 0.0140 -5.3283
# 5 12.3720 -1.5515 -2.6960 0.0140 29.5783 -0.0036
# 6 0.0047 0.0057 0.0161 -5.3283 -0.0036 18.8416
#
#
#
# Elastic Compliance Matrix: (Units=1/GPa)
#
#
# Indices 1 2 3 4 5 6 
#
# 1 0.010706 -0.005075 -0.004207 -0.000001 -0.005128 0.000001
# 2 -0.005075 0.021434 -0.002841 -0.000004 0.002988 -0.000003
# 3 -0.004207 -0.002841 0.011428 0.000010 0.002652 -0.000005
# 4 -0.000001 -0.000004 0.000010 0.044228 -0.000018 0.012507
# 5 -0.005128 0.002988 0.002652 -0.000018 0.036352 0.000000
# 6 0.000001 -0.000003 -0.000005 0.012507 0.000000 0.056611
#
#
# Mechanical properties :
#
#
# Convention : Reuss Voigt Hill
#
# Bulk Modulus (GPa) = 51.75414 63.93004 57.84209
# Shear Modulus (GPa) = 23.64684 27.19607 25.42146
#
# Velocity S-wave (km/s) = 3.48401 3.73633 3.61237
# Velocity P-wave (km/s) = 6.53839 7.17146 6.86223
#
# Compressibility (1/GPa) = 0.01932212
#
# Stress axis : x y z
#
# Youngs Moduli (GPa) = 93.40605 46.65466 87.50615
#
# Poissons Ratio (x) = 0.23677 0.36811
# Poissons Ratio (y) = 0.47403 0.24863
# Poissons Ratio (z) = 0.39292 0.13256
#
# Static dielectric constant tensor:
#      x y z
#    x 1.655210 0.000000 0.007370 
#    y 0.000000 1.672890 0.000010 
#    z 0.007370 0.000010 1.692480 
# 
# From -- ./inp_files/207309.got.cif
#   From: 2010.05.17/outbox.cif.g08.bks.cpg/sg15_104_cif.got.tgz:207309.got - 2010.06.03 18:47:42.
