data_PCOD9295686
_publ_section_title
;
Structure prediction by ZEFSAII (Michael W. Deem and Ramdas Pophale) SiO2 
 PCOD9295686
Probable space group: C 2/C
;
_chemical_formula_sum "Si O2"
_cell_formula_units_Z 32
_cell_length_a 22.369613
_cell_length_b 10.468134
_cell_length_c 10.569215
_cell_angle_alpha 90.000000
_cell_angle_beta 35.182506
_cell_angle_gamma 90.000000
_cell_volume 1426.036890
_symmetry_space_group_name_H-M "C 2/C"
_symmetry_group_IT_number 15
_symmetry_cell_setting 'monoclinic'
loop_
_space_group_symop_operation_xyz
x,y,z
-x,y,1/2-z
-x,-y,-z
x,-y,1/2+z
1/2+x,1/2+y,z
1/2-x,1/2+y,1/2-z
1/2-x,1/2-y,-z
1/2+x,1/2-y,1/2+z
loop_
_atom_site_type_symbol
_atom_site_label
_atom_site_fract_x
_atom_site_fract_y
_atom_site_fract_z
Si Si1 0.601510 0.920864 0.855714
Si Si2 0.226891 0.299012 0.833984
Si Si3 0.810529 0.934071 0.923756
Si Si4 0.901802 0.195466 0.830298
O O1 0.634632 0.888745 0.942201
O O2 0.591248 0.786961 0.801417
O O3 0.698019 0.001622 0.636442
O O4 0.500000 0.000000 0.000000
O O5 0.304305 0.370762 0.796905
O O6 0.298759 0.267190 0.588973
O O7 0.182173 0.177300 0.984584
O O8 0.890102 0.048422 0.808132
O O9 0.000000 0.213863 0.750000
#
# Coordination Sequence:
#
# PCOD9295686 Si02
#       4
#     8   8   8   8
#     4  11  25  41  70  97 133 178 224 275 332 401
#     4  10  23  44  67  95 134 171 228 272 338 393
#     4  10  23  43  67  97 132 179 216 281 329 398
#     4  11  25  41  68  96 132 179 219 277 335 390
#
# _framework density 22.439810999999999
#
# number of rings (size 3 to 8) (size 9 to 14) (size 15 to 20)
#    0.000    1.500    0.000    4.500   17.500    1.000 
#    9.000    0.000    0.000    0.000    0.000    0.000 
#    0.000    0.000    0.000    0.000    0.000    0.000 
#
# Total GULP energy -89533.859046 kJ/mol
# GULP energy per Si atom -5595.866190 kJ/mol
# Density = 2.238874 g / cm^3
# Si number density = 22.439811 Si / 1000 Ang^3
#
#
#
# Elastic Constant Matrix: (Units=GPa)
#
#
# Indices 1 2 3 4 5 6 
#
# 1 103.8749 41.0555 19.1544 0.0000 -0.3984 0.0000
# 2 41.0555 80.3714 7.5109 0.0000 17.3744 0.0000
# 3 19.1544 7.5109 21.3832 0.0000 -10.4727 0.0000
# 4 0.0000 0.0000 0.0000 22.1502 0.0000 2.7918
# 5 -0.3984 17.3744 -10.4727 0.0000 37.9139 0.0000
# 6 0.0000 0.0000 0.0000 2.7918 0.0000 35.9721
#
#
#
# Elastic Compliance Matrix: (Units=1/GPa)
#
#
# Indices 1 2 3 4 5 6 
#
# 1 0.013975 -0.006216 -0.010256 0.000000 0.000162 0.000000
# 2 -0.006216 0.018337 -0.005806 0.000000 -0.010072 0.000000
# 3 -0.010256 -0.005806 0.068511 0.000000 0.021478 0.000000
# 4 0.000000 0.000000 0.000000 0.045592 0.000000 -0.003538
# 5 0.000162 -0.010072 0.021478 0.000000 0.036926 0.000000
# 6 0.000000 0.000000 0.000000 -0.003538 0.000000 0.028074
#
#
# Mechanical properties :
#
#
# Convention : Reuss Voigt Hill
#
# Bulk Modulus (GPa) = 17.77217 37.89678 27.83448
# Shear Modulus (GPa) = 18.19983 28.40116 23.30050
#
# Velocity S-wave (km/s) = 2.85099 3.56147 3.22585
# Velocity P-wave (km/s) = 4.33297 5.81695 5.12892
#
# Compressibility (1/GPa) = 0.05626775
#
# Stress axis : x y z
#
# Youngs Moduli (GPa) = 71.55414 54.53353 14.59616
#
# Poissons Ratio (x) = 0.33896 0.14970
# Poissons Ratio (y) = 0.44475 0.08475
# Poissons Ratio (z) = 0.73386 0.31665
#
# Static dielectric constant tensor:
#      x y z
#    x 1.811810 0.000000 0.030700 
#    y 0.000000 1.824580 0.000000 
#    z 0.030700 0.000000 1.843550 
# 
# From -- ./inp_files/103421.got.cif
#   From: 2010.05.17/outbox.cif.g08.bks.cpg/sg15_52_cif.got.tgz:103421.got - 2010.06.03 18:47:42.
