data_PCOD9295574
_publ_section_title
;
Structure prediction by ZEFSAII (Michael W. Deem and Ramdas Pophale) SiO2 
 PCOD9295574
Probable space group: C 2/C
;
_chemical_formula_sum "Si O2"
_cell_formula_units_Z 40
_cell_length_a 10.211664
_cell_length_b 10.950103
_cell_length_c 22.190969
_cell_angle_alpha 90.000000
_cell_angle_beta 55.728462
_cell_angle_gamma 90.000000
_cell_volume 2050.547345
_symmetry_space_group_name_H-M "C 2/C"
_symmetry_group_IT_number 15
_symmetry_cell_setting 'monoclinic'
loop_
_space_group_symop_operation_xyz
x,y,z
-x,y,1/2-z
-x,-y,-z
x,-y,1/2+z
1/2+x,1/2+y,z
1/2-x,1/2+y,1/2-z
1/2-x,1/2-y,-z
1/2+x,1/2-y,1/2+z
loop_
_atom_site_type_symbol
_atom_site_label
_atom_site_fract_x
_atom_site_fract_y
_atom_site_fract_z
Si Si1 0.774896 0.873866 0.956470
Si Si2 0.370326 0.463581 0.614256
Si Si3 0.383575 0.126761 0.228369
Si Si4 0.639647 0.918273 0.572488
Si Si5 0.381091 0.748033 0.612986
O O1 0.717307 0.837085 0.904923
O O2 0.956327 0.915486 0.915273
O O3 0.750000 0.750000 0.000000
O O4 0.673717 0.981720 0.013407
O O5 0.256711 0.438787 0.700595
O O6 0.370172 0.607350 0.599580
O O7 0.291161 0.401180 0.576161
O O8 0.500000 0.177927 0.250000
O O9 0.497954 0.043236 0.156315
O O10 0.327604 0.229047 0.195879
O O11 0.562768 0.795767 0.565650
#
# Coordination Sequence:
#
# PCOD9295574 Si02
#       5
#     8   8   8   8   8
#     4  12  24  40  65 101 126 166 214 261 321 374
#     4  11  22  44  66  91 132 165 212 262 315 379
#     4   8  20  43  63  90 123 170 209 259 319 365
#     4   9  21  44  62  91 131 166 208 260 317 370
#     4  10  23  43  65  92 126 173 212 256 325 368
#
# _framework density 19.506986000000001
#
# number of rings (size 3 to 8) (size 9 to 14) (size 15 to 20)
#    1.200    0.800    2.000    1.200    0.000    3.200 
#   10.800    0.000    0.000    0.000    0.000    0.000 
#    0.000    0.000    0.000    0.000    0.000    0.000 
#
# Total GULP energy -111422.476725 kJ/mol
# GULP energy per Si atom -5571.123836 kJ/mol
# Density = 1.946259 g / cm^3
# Si number density = 19.506986 Si / 1000 Ang^3
#
#
#
# Elastic Constant Matrix: (Units=GPa)
#
#
# Indices 1 2 3 4 5 6 
#
# 1 118.3554 30.1048 29.5072 0.0000 1.8954 0.0000
# 2 30.1048 34.1976 18.3436 0.0000 -8.6128 0.0000
# 3 29.5072 18.3436 87.5035 0.0000 -3.5176 0.0000
# 4 0.0000 0.0000 0.0000 26.6113 0.0000 2.1745
# 5 1.8954 -8.6128 -3.5176 0.0000 27.1216 0.0000
# 6 0.0000 0.0000 0.0000 2.1745 0.0000 28.0305
#
#
#
# Elastic Compliance Matrix: (Units=1/GPa)
#
#
# Indices 1 2 3 4 5 6 
#
# 1 0.011615 -0.010276 -0.001936 0.000000 -0.004326 0.000000
# 2 -0.010276 0.044737 -0.005341 0.000000 0.014232 0.000000
# 3 -0.001936 -0.005341 0.013207 0.000000 0.000152 0.000000
# 4 0.000000 0.000000 0.000000 0.037818 0.000000 -0.002934
# 5 -0.004326 0.014232 0.000152 0.000000 0.041713 0.000000
# 6 0.000000 0.000000 0.000000 -0.002934 0.000000 0.035903
#
#
# Mechanical properties :
#
#
# Convention : Reuss Voigt Hill
#
# Bulk Modulus (GPa) = 29.02559 43.99642 36.51100
# Shear Modulus (GPa) = 21.59053 27.15940 24.37497
#
# Velocity S-wave (km/s) = 3.33048 3.73539 3.53873
# Velocity P-wave (km/s) = 5.44990 6.41929 5.95436
#
# Compressibility (1/GPa) = 0.03445236
#
# Stress axis : x y z
#
# Youngs Moduli (GPa) = 86.09631 22.35281 75.71795
#
# Poissons Ratio (x) = 0.22969 0.14663
# Poissons Ratio (y) = 0.88469 0.40442
# Poissons Ratio (z) = 0.16672 0.11939
#
# Static dielectric constant tensor:
#      x y z
#    x 1.719170 0.000000 0.013200 
#    y 0.000000 1.647470 0.000000 
#    z 0.013200 0.000000 1.716930 
# 
# From -- ./inp_files/287497.got.cif
#   From: 2010.05.17/outbox.cif.g08.bks.cpg/sg15_144_cif.got.tgz:287497.got - 2010.06.03 18:47:42.
