data_PCOD9295112
_publ_section_title
;
Structure prediction by ZEFSAII (Michael W. Deem and Ramdas Pophale) SiO2 
 PCOD9295112
Probable space group: C 2/C
;
_chemical_formula_sum "Si O2"
_cell_formula_units_Z 52
_cell_length_a 27.293774
_cell_length_b 8.643695
_cell_length_c 11.092806
_cell_angle_alpha 90.000000
_cell_angle_beta 125.668549
_cell_angle_gamma 90.000000
_cell_volume 2126.064072
_symmetry_space_group_name_H-M "C 2/C"
_symmetry_group_IT_number 15
_symmetry_cell_setting 'monoclinic'
loop_
_space_group_symop_operation_xyz
x,y,z
-x,y,1/2-z
-x,-y,-z
x,-y,1/2+z
1/2+x,1/2+y,z
1/2-x,1/2+y,1/2-z
1/2-x,1/2-y,-z
1/2+x,1/2-y,1/2+z
loop_
_atom_site_type_symbol
_atom_site_label
_atom_site_fract_x
_atom_site_fract_y
_atom_site_fract_z
Si Si1 0.000000 0.728255 0.250000
Si Si2 0.132180 0.758506 0.092677
Si Si3 0.175012 0.463884 0.036115
Si Si4 0.071490 0.545092 0.200518
Si Si5 0.638757 0.759615 0.199953
Si Si6 0.199587 0.967774 0.387376
Si Si7 0.397822 0.555842 0.563161
O O1 0.993898 0.604730 0.351626
O O2 0.948242 0.853873 0.208990
O O3 0.172725 0.641799 0.073879
O O4 0.091571 0.648334 0.116797
O O5 0.171023 0.865564 0.238477
O O6 0.095393 0.875351 0.954652
O O7 0.177368 0.364203 0.161927
O O8 0.229560 0.442406 0.021657
O O9 0.113762 0.421930 0.878583
O O10 0.092586 0.371275 0.202257
O O11 0.681020 0.646103 0.336932
O O12 0.601037 0.644115 0.061682
O O13 0.166641 0.923551 0.463806
#
# Coordination Sequence:
#
# PCOD9295112 Si02
#       7
#     4   8   8   8   8   8   8
#     4  12  24  48  68  92 130 176 226 290 316 384
#     4  10  23  42  65 100 130 175 217 266 333 398
#     4  11  22  41  67 101 139 172 215 274 329 398
#     4  11  24  44  66  95 133 172 226 268 332 386
#     4  10  23  42  65 100 130 175 217 266 333 398
#     4  11  22  41  67 101 139 172 215 274 329 398
#     4  11  24  44  66  95 133 172 226 268 332 386
#
# _framework density 24.458341000000001
#
# number of rings (size 3 to 8) (size 9 to 14) (size 15 to 20)
#    0.000    1.231    3.077    1.846    0.000   11.077 
#    0.000    1.538    0.000    0.000    0.000    0.000 
#    0.000    0.000    0.000    0.000    0.000    0.000 
#
# Total GULP energy -145282.326145 kJ/mol
# GULP energy per Si atom -5587.781775 kJ/mol
# Density = 2.440267 g / cm^3
# Si number density = 24.458341 Si / 1000 Ang^3
#
#
#
# Elastic Constant Matrix: (Units=GPa)
#
#
# Indices 1 2 3 4 5 6 
#
# 1 111.1926 32.0850 4.2763 0.0000 -8.0197 0.0000
# 2 32.0850 149.1624 14.2297 0.0000 -0.8524 0.0000
# 3 4.2763 14.2297 28.5501 0.0000 -3.3780 0.0000
# 4 0.0000 0.0000 0.0000 39.8456 0.0000 -15.5090
# 5 -8.0197 -0.8524 -3.3780 0.0000 20.5584 0.0000
# 6 0.0000 0.0000 0.0000 -15.5090 0.0000 38.1964
#
#
#
# Elastic Compliance Matrix: (Units=1/GPa)
#
#
# Indices 1 2 3 4 5 6 
#
# 1 0.009871 -0.002103 0.000015 0.000000 0.003766 0.000000
# 2 -0.002103 0.007489 -0.003547 0.000000 -0.001093 0.000000
# 3 0.000015 -0.003547 0.037504 0.000000 0.006021 0.000000
# 4 0.000000 0.000000 0.000000 0.029808 0.000000 0.012103
# 5 0.003766 -0.001093 0.006021 0.000000 0.051055 0.000000
# 6 0.000000 0.000000 0.000000 0.012103 0.000000 0.031095
#
#
# Mechanical properties :
#
#
# Convention : Reuss Voigt Hill
#
# Bulk Modulus (GPa) = 22.93856 43.34303 33.14079
# Shear Modulus (GPa) = 25.95755 35.60768 30.78261
#
# Velocity S-wave (km/s) = 3.26129 3.81970 3.55149
# Velocity P-wave (km/s) = 4.85596 6.10025 5.51332
#
# Compressibility (1/GPa) = 0.04359471
#
# Stress axis : x y z
#
# Youngs Moduli (GPa) = 101.30331 133.53599 26.66381
#
# Poissons Ratio (x) = 0.28086 -0.00041
# Poissons Ratio (y) = 0.21307 0.09457
# Poissons Ratio (z) = -0.00155 0.47361
#
# Static dielectric constant tensor:
#      x y z
#    x 1.931340 0.000000 0.039760 
#    y 0.000000 1.966520 0.000000 
#    z 0.039760 0.000000 2.001910 
# 
# From -- ./inp_files/121800.got.cif
#   From: 2010.05.17/outbox.cif.g08.bks.cpg/sg15_61_cif.got.tgz:121800.got - 2010.06.03 18:47:42.
