data_PCOD9295557
_publ_section_title
;
Structure prediction by ZEFSAII (Michael W. Deem and Ramdas Pophale) SiO2 
 PCOD9295557
Probable space group: C 2/C
;
_chemical_formula_sum "Si O2"
_cell_formula_units_Z 48
_cell_length_a 16.727552
_cell_length_b 19.932505
_cell_length_c 11.895687
_cell_angle_alpha 90.000000
_cell_angle_beta 143.728647
_cell_angle_gamma 90.000000
_cell_volume 2346.493835
_symmetry_space_group_name_H-M "C 2/C"
_symmetry_group_IT_number 15
_symmetry_cell_setting 'monoclinic'
loop_
_space_group_symop_operation_xyz
x,y,z
-x,y,1/2-z
-x,-y,-z
x,-y,1/2+z
1/2+x,1/2+y,z
1/2-x,1/2+y,1/2-z
1/2-x,1/2-y,-z
1/2+x,1/2-y,1/2+z
loop_
_atom_site_type_symbol
_atom_site_label
_atom_site_fract_x
_atom_site_fract_y
_atom_site_fract_z
Si Si1 0.363536 0.764309 0.036196
Si Si2 0.169003 0.088903 0.123213
Si Si3 0.635468 0.454848 0.962405
Si Si4 0.159368 0.814973 0.410916
Si Si5 0.142448 0.574418 0.967795
Si Si6 0.605115 0.650805 0.603960
O O1 0.500000 0.741283 0.250000
O O2 0.364125 0.844486 0.026321
O O3 0.250000 0.750000 0.000000
O O4 0.363379 0.722470 0.919570
O O5 0.291722 0.058707 0.335799
O O6 0.210026 0.140706 0.072387
O O7 0.053445 0.127837 0.065004
O O8 0.104717 0.026041 0.984604
O O9 0.500000 0.429522 0.750000
O O10 0.749091 0.453710 0.997270
O O11 0.675059 0.402972 0.103571
O O12 0.250000 0.750000 0.500000
O O13 0.160368 0.852156 0.292531
O O14 0.000000 0.799016 0.250000
O O15 0.000000 0.553906 0.750000
#
# Coordination Sequence:
#
# PCOD9295557 Si02
#       6
#     8   8   8   8   8   8
#     4  11  21  37  61  95 128 166 213 267 327 377
#     4  11  24  42  69  95 130 170 225 273 322 391
#     4  12  23  41  70  98 126 170 225 272 325 381
#     4  10  23  43  64  96 130 172 215 265 330 395
#     4  11  25  42  62  96 136 169 213 271 334 395
#     4  11  21  39  68  98 128 163 220 277 322 375
#
# _framework density 20.456053000000001
#
# number of rings (size 3 to 8) (size 9 to 14) (size 15 to 20)
#    0.000    1.000    3.333    4.500    2.333    2.000 
#    3.000    0.833    0.000    0.000    0.000    0.000 
#    0.000    0.000    0.000    0.000    0.000    0.000 
#
# Total GULP energy -133868.250876 kJ/mol
# GULP energy per Si atom -5577.843787 kJ/mol
# Density = 2.040949 g / cm^3
# Si number density = 20.456053 Si / 1000 Ang^3
#
#
#
# Elastic Constant Matrix: (Units=GPa)
#
#
# Indices 1 2 3 4 5 6 
#
# 1 92.7165 4.6491 42.5404 0.0000 -13.1420 0.0000
# 2 4.6491 39.3954 -11.0218 0.0000 -6.4394 0.0000
# 3 42.5404 -11.0218 99.9696 0.0000 -6.4962 0.0000
# 4 0.0000 0.0000 0.0000 23.5471 0.0000 -2.5655
# 5 -13.1420 -6.4394 -6.4962 0.0000 34.4907 0.0000
# 6 0.0000 0.0000 0.0000 -2.5655 0.0000 23.3200
#
#
#
# Elastic Compliance Matrix: (Units=1/GPa)
#
#
# Indices 1 2 3 4 5 6 
#
# 1 0.014274 -0.002786 -0.006137 0.000000 0.003763 0.000000
# 2 -0.002786 0.027809 0.004576 0.000000 0.004992 0.000000
# 3 -0.006137 0.004576 0.013184 0.000000 0.000999 0.000000
# 4 0.000000 0.000000 0.000000 0.042983 0.000000 0.004729
# 5 0.003763 0.004992 0.000999 0.000000 0.031547 0.000000
# 6 0.000000 0.000000 0.000000 0.004729 0.000000 0.043402
#
#
# Mechanical properties :
#
#
# Convention : Reuss Voigt Hill
#
# Bulk Modulus (GPa) = 21.47190 33.82412 27.64801
# Shear Modulus (GPa) = 25.32693 29.33248 27.32970
#
# Velocity S-wave (km/s) = 3.52250 3.79083 3.65913
# Velocity P-wave (km/s) = 5.20225 5.97758 5.60334
#
# Compressibility (1/GPa) = 0.04657250
#
# Stress axis : x y z
#
# Youngs Moduli (GPa) = 70.05541 35.95993 75.84979
#
# Poissons Ratio (x) = 0.10020 0.46548
# Poissons Ratio (y) = 0.19520 -0.34709
# Poissons Ratio (z) = 0.42993 -0.16455
#
# Static dielectric constant tensor:
#      x y z
#    x 1.736760 0.000000 -0.003320 
#    y 0.000000 1.670560 0.000000 
#    z -0.003320 0.000000 1.781180 
# 
# From -- ./inp_files/100060.got.cif
#   From: 2010.05.17/outbox.cif.g08.bks.cpg/sg15_51_cif.got.tgz:100060.got - 2010.06.03 18:47:42.
