data_PCOD9295540
_publ_section_title
;
Structure prediction by ZEFSAII (Michael W. Deem and Ramdas Pophale) SiO2 
 PCOD9295540
Probable space group: C 2/C
;
_chemical_formula_sum "Si O2"
_cell_formula_units_Z 56
_cell_length_a 24.516065
_cell_length_b 16.436249
_cell_length_c 9.646218
_cell_angle_alpha 90.000000
_cell_angle_beta 137.462572
_cell_angle_gamma 90.000000
_cell_volume 2627.866480
_symmetry_space_group_name_H-M "C 2/C"
_symmetry_group_IT_number 15
_symmetry_cell_setting 'monoclinic'
loop_
_space_group_symop_operation_xyz
x,y,z
-x,y,1/2-z
-x,-y,-z
x,-y,1/2+z
1/2+x,1/2+y,z
1/2-x,1/2+y,1/2-z
1/2-x,1/2-y,-z
1/2+x,1/2-y,1/2+z
loop_
_atom_site_type_symbol
_atom_site_label
_atom_site_fract_x
_atom_site_fract_y
_atom_site_fract_z
Si Si1 0.695001 0.721113 0.585490
Si Si2 0.803957 0.026749 0.252240
Si Si3 0.710137 0.939130 0.293447
Si Si4 0.145929 0.805681 0.687204
Si Si5 0.953738 0.350953 0.528393
Si Si6 0.460916 0.431432 0.523423
Si Si7 0.046524 0.747723 0.982493
O O1 0.749180 0.640696 0.699783
O O2 0.759866 0.789234 0.669428
O O3 0.641911 0.704681 0.347021
O O4 0.639633 0.747333 0.608845
O O5 0.863727 0.103694 0.385868
O O6 0.736023 0.011326 0.239849
O O7 0.866486 0.952435 0.358818
O O8 0.757525 0.043106 0.023021
O O9 0.617234 0.914315 0.143879
O O10 0.091804 0.734699 0.522930
O O11 0.000000 0.380969 0.750000
O O12 0.016754 0.323258 0.528106
O O13 0.500000 0.434360 0.750000
O O14 0.500000 0.500000 0.500000
O O15 0.470998 0.338554 0.490751
O O16 0.000000 0.737787 0.750000
#
# Coordination Sequence:
#
# PCOD9295540 Si02
#       7
#     8   8   8   8   8   8   8
#     4   9  17  38  61  91 118 153 211 249 300 379
#     4  11  21  39  65  91 130 168 206 248 313 388
#     4  10  23  43  64  90 127 170 210 259 315 383
#     4   9  19  35  64  88 117 160 200 253 309 375
#     4  11  24  43  62  91 130 161 210 277 319 360
#     4  11  23  35  57  98 137 161 195 252 319 382
#     4  11  21  36  64  92 124 164 208 255 310 384
#
# _framework density 21.310063
#
# number of rings (size 3 to 8) (size 9 to 14) (size 15 to 20)
#    0.000    1.714    2.857    2.571    4.000    3.429 
#    2.571    2.143    0.000    0.000    0.000    0.000 
#    0.000    0.000    0.000    0.000    0.000    0.000 
#
# Total GULP energy -156225.384911 kJ/mol
# GULP energy per Si atom -5579.478033 kJ/mol
# Density = 2.126156 g / cm^3
# Si number density = 21.310063 Si / 1000 Ang^3
#
#
#
# Elastic Constant Matrix: (Units=GPa)
#
#
# Indices 1 2 3 4 5 6 
#
# 1 133.3758 17.2859 15.2424 0.0000 1.7049 0.0000
# 2 17.2859 27.0755 6.5860 0.0000 -4.5121 0.0000
# 3 15.2424 6.5860 58.0916 0.0000 9.2563 0.0000
# 4 0.0000 0.0000 0.0000 -17.9513 0.0000 -0.9650
# 5 1.7049 -4.5121 9.2563 0.0000 24.7257 0.0000
# 6 0.0000 0.0000 0.0000 -0.9650 0.0000 28.9190
#
#
#
# Elastic Compliance Matrix: (Units=1/GPa)
#
#
# Indices 1 2 3 4 5 6 
#
# 1 0.008341 -0.005133 -0.001452 0.000000 -0.000968 0.000000
# 2 -0.005133 0.043162 -0.005166 0.000000 0.010164 0.000000
# 3 -0.001452 -0.005166 0.019477 0.000000 -0.008134 0.000000
# 4 0.000000 0.000000 0.000000 -0.055607 0.000000 -0.001855
# 5 -0.000968 0.010164 -0.008134 0.000000 0.045410 0.000000
# 6 0.000000 0.000000 0.000000 -0.001855 0.000000 0.034517
#
#
# Mechanical properties :
#
#
# Convention : Reuss Voigt Hill
#
# Bulk Modulus (GPa) = 21.06310 32.97460 27.01885
# Shear Modulus (GPa) = 37.13878 19.10060 28.11969
#
# Velocity S-wave (km/s) = 4.17919 2.99711 3.63650
# Velocity P-wave (km/s) = 5.76135 5.24253 5.50805
#
# Compressibility (1/GPa) = 0.04747638
#
# Stress axis : x y z
#
# Youngs Moduli (GPa) = 119.88577 23.16872 51.34252
#
# Poissons Ratio (x) = 0.11893 0.07457
# Poissons Ratio (y) = 0.61543 0.26524
# Poissons Ratio (z) = 0.17412 0.11969
#
# Static dielectric constant tensor:
#      x y z
#    x 1.850290 0.000000 0.020870 
#    y 0.000000 1.809800 0.000000 
#    z 0.020870 0.000000 1.762080 
# 
# From -- ./inp_files/62780.got.cif
#   From: 2010.05.17/outbox.cif.g08.bks.cpg/sg15_32_cif.got.tgz:62780.got - 2010.06.03 18:47:42.
