data_PCOD9295359
_publ_section_title
;
Structure prediction by ZEFSAII (Michael W. Deem and Ramdas Pophale) SiO2 
 PCOD9295359
Probable space group: C 2/C
;
_chemical_formula_sum "Si O2"
_cell_formula_units_Z 48
_cell_length_a 5.005830
_cell_length_b 28.685880
_cell_length_c 17.297456
_cell_angle_alpha 90.000000
_cell_angle_beta 61.456227
_cell_angle_gamma 90.000000
_cell_volume 2181.949527
_symmetry_space_group_name_H-M "C 2/C"
_symmetry_group_IT_number 15
_symmetry_cell_setting 'monoclinic'
loop_
_space_group_symop_operation_xyz
x,y,z
-x,y,1/2-z
-x,-y,-z
x,-y,1/2+z
1/2+x,1/2+y,z
1/2-x,1/2+y,1/2-z
1/2-x,1/2-y,-z
1/2+x,1/2-y,1/2+z
loop_
_atom_site_type_symbol
_atom_site_label
_atom_site_fract_x
_atom_site_fract_y
_atom_site_fract_z
Si Si1 0.292796 0.351702 0.537133
Si Si2 0.643358 0.861621 0.313061
Si Si3 0.832639 0.414456 0.694353
Si Si4 0.133937 0.070088 0.928072
Si Si5 0.389662 0.198959 0.984528
Si Si6 0.316240 0.518054 0.422280
O O1 0.396320 0.387309 0.454434
O O2 0.602148 0.335803 0.534821
O O3 0.059242 0.378492 0.623070
O O4 0.124584 0.308503 0.521229
O O5 0.500000 0.849893 0.250000
O O6 0.462462 0.908160 0.366324
O O7 0.556512 0.820290 0.384511
O O8 0.000000 0.868769 0.250000
O O9 0.500000 0.391991 0.750000
O O10 0.756718 0.457089 0.647466
O O11 0.000000 0.429547 0.750000
O O12 0.046551 0.025340 0.889640
O O13 0.084752 0.053955 0.024103
O O14 0.250000 0.250000 0.000000
O O15 0.000000 0.500000 0.500000
#
# Coordination Sequence:
#
# PCOD9295359 Si02
#       6
#     8   8   8   8   8   8
#     4  11  22  44  71  94 130 180 224 271 339 427
#     4  11  24  43  68 102 142 174 217 291 353 400
#     4  12  25  43  64  99 141 180 231 294 341 390
#     4  10  23  42  69  97 133 194 240 275 344 427
#     4  11  24  45  75 103 129 176 229 272 342 440
#     4  11  23  42  70  93 137 189 246 284 334 410
#
# _framework density 21.998674000000001
#
# number of rings (size 3 to 8) (size 9 to 14) (size 15 to 20)
#    0.000    1.000    1.667    6.500    4.667    0.000 
#    3.000    5.000    0.000    0.000    0.000    0.000 
#    0.000    0.000    0.000    0.000    0.000    0.000 
#
# Total GULP energy -134275.318089 kJ/mol
# GULP energy per Si atom -5594.804920 kJ/mol
# Density = 2.194860 g / cm^3
# Si number density = 21.998674 Si / 1000 Ang^3
#
#
#
# Elastic Constant Matrix: (Units=GPa)
#
#
# Indices 1 2 3 4 5 6 
#
# 1 120.5048 25.3099 47.6256 0.0000 -17.3948 0.0000
# 2 25.3099 109.9029 37.7976 0.0000 -13.8956 0.0000
# 3 47.6256 37.7976 96.8035 0.0000 -14.9572 0.0000
# 4 0.0000 0.0000 0.0000 15.6943 0.0000 -4.9771
# 5 -17.3948 -13.8956 -14.9572 0.0000 59.0555 0.0000
# 6 0.0000 0.0000 0.0000 -4.9771 0.0000 41.7923
#
#
#
# Elastic Compliance Matrix: (Units=1/GPa)
#
#
# Indices 1 2 3 4 5 6 
#
# 1 0.010526 -0.000592 -0.004673 0.000000 0.001778 0.000000
# 2 -0.000592 0.010672 -0.003657 0.000000 0.001410 0.000000
# 3 -0.004673 -0.003657 0.014270 0.000000 0.001377 0.000000
# 4 0.000000 0.000000 0.000000 0.066218 0.000000 0.007886
# 5 0.001778 0.001410 0.001377 0.000000 0.018137 0.000000
# 6 0.000000 0.000000 0.000000 0.007886 0.000000 0.024867
#
#
# Mechanical properties :
#
#
# Convention : Reuss Voigt Hill
#
# Bulk Modulus (GPa) = 56.74526 60.96418 58.85472
# Shear Modulus (GPa) = 29.68951 37.74029 33.71490
#
# Velocity S-wave (km/s) = 3.67768 4.14644 3.91908
# Velocity P-wave (km/s) = 6.62455 7.12017 6.87682
#
# Compressibility (1/GPa) = 0.01762262
#
# Stress axis : x y z
#
# Youngs Moduli (GPa) = 95.00114 93.70743 70.07706
#
# Poissons Ratio (x) = 0.05550 0.32745
# Poissons Ratio (y) = 0.05627 0.25630
# Poissons Ratio (z) = 0.44392 0.34273
#
# Static dielectric constant tensor:
#      x y z
#    x 2.034740 0.000000 0.097690 
#    y 0.000000 1.822770 0.000000 
#    z 0.097690 0.000000 1.859570 
# 
# From -- ./inp_files/130584.got.cif
#   From: 2010.05.17/outbox.cif.g08.bks.cpg/sg15_66_cif.got.tgz:130584.got - 2010.06.03 18:47:42.
