data_PCOD9295197
_publ_section_title
;
Structure prediction by ZEFSAII (Michael W. Deem and Ramdas Pophale) SiO2 
 PCOD9295197
Probable space group: C 2/C
;
_chemical_formula_sum "Si O2"
_cell_formula_units_Z 52
_cell_length_a 5.306194
_cell_length_b 27.887983
_cell_length_c 18.574484
_cell_angle_alpha 90.000000
_cell_angle_beta 64.996734
_cell_angle_gamma 90.000000
_cell_volume 2491.042596
_symmetry_space_group_name_H-M "C 2/C"
_symmetry_group_IT_number 15
_symmetry_cell_setting 'monoclinic'
loop_
_space_group_symop_operation_xyz
x,y,z
-x,y,1/2-z
-x,-y,-z
x,-y,1/2+z
1/2+x,1/2+y,z
1/2-x,1/2+y,1/2-z
1/2-x,1/2-y,-z
1/2+x,1/2-y,1/2+z
loop_
_atom_site_type_symbol
_atom_site_label
_atom_site_fract_x
_atom_site_fract_y
_atom_site_fract_z
Si Si1 0.378128 0.098972 0.190099
Si Si2 0.000000 0.821315 0.750000
Si Si3 0.500000 0.756405 0.750000
Si Si4 0.804129 0.008424 0.926844
Si Si5 0.000000 0.010351 0.250000
Si Si6 0.020988 0.185105 0.986521
Si Si7 0.877401 0.281464 0.086583
Si Si8 0.914270 0.079581 0.037424
O O1 0.500000 0.120116 0.250000
O O2 0.243933 0.049276 0.232714
O O3 0.604242 0.087332 0.103540
O O4 0.168934 0.138939 0.182893
O O5 0.239230 0.787862 0.753414
O O6 0.365829 0.723869 0.827112
O O7 0.879647 0.017914 0.833918
O O8 0.947762 0.957232 0.923904
O O9 0.500000 0.000000 0.000000
O O10 0.927609 0.051210 0.960312
O O11 0.330602 0.197649 0.921132
O O12 0.764952 0.189124 0.961359
O O13 0.949450 0.227385 0.051428
O O14 0.038019 0.132216 0.016403
#
# Coordination Sequence:
#
# PCOD9295197 Si02
#       8
#     8   4   4   8   4   8   8   8
#     4  11  21  38  60 101 130 172 209 293 354 406
#     4  11  24  34  62 104 135 168 219 272 370 399
#     4  12  22  42  65  94 137 172 219 284 323 422
#     4  11  24  42  65 101 129 188 224 285 342 412
#     4  11  22  38  67  88 142 166 230 280 343 403
#     4  10  23  42  66  95 131 173 217 277 324 409
#     4  10  23  42  66  95 129 175 220 265 343 382
#     4  11  24  41  68  94 139 174 233 272 349 408
#
# _framework density 20.874793
#
# number of rings (size 3 to 8) (size 9 to 14) (size 15 to 20)
#    0.000    1.231    3.846    1.846    2.154    2.462 
#    0.000    0.769    3.385    0.000    0.000    0.000 
#    0.000    0.000    0.000    0.000    0.000    0.000 
#
# Total GULP energy -144921.744973 kJ/mol
# GULP energy per Si atom -5573.913268 kJ/mol
# Density = 2.082728 g / cm^3
# Si number density = 20.874793 Si / 1000 Ang^3
#
#
#
# Elastic Constant Matrix: (Units=GPa)
#
#
# Indices 1 2 3 4 5 6 
#
# 1 78.9899 21.6948 18.1029 0.0000 -17.8653 0.0000
# 2 21.6948 69.9306 21.5465 0.0000 -3.4105 0.0000
# 3 18.1029 21.5465 125.7972 0.0000 -13.3994 0.0000
# 4 0.0000 0.0000 0.0000 -13.2503 0.0000 -5.4364
# 5 -17.8653 -3.4105 -13.3994 0.0000 30.5891 0.0000
# 6 0.0000 0.0000 0.0000 -5.4364 0.0000 13.3342
#
#
#
# Elastic Compliance Matrix: (Units=1/GPa)
#
#
# Indices 1 2 3 4 5 6 
#
# 1 0.015926 -0.004327 -0.000641 0.000000 0.008538 0.000000
# 2 -0.004327 0.016282 -0.002352 0.000000 -0.001742 0.000000
# 3 -0.000641 -0.002352 0.008787 0.000000 0.003212 0.000000
# 4 0.000000 0.000000 0.000000 -0.064655 0.000000 -0.026360
# 5 0.008538 -0.001742 0.003212 0.000000 0.038891 0.000000
# 6 0.000000 0.000000 0.000000 -0.026360 0.000000 0.064248
#
#
# Mechanical properties :
#
#
# Convention : Reuss Voigt Hill
#
# Bulk Modulus (GPa) = 37.94334 44.15623 41.04978
# Shear Modulus (GPa) = 48.58918 20.35950 34.47434
#
# Velocity S-wave (km/s) = 4.82980 3.12639 4.06825
# Velocity P-wave (km/s) = 7.02273 5.85075 6.46336
#
# Compressibility (1/GPa) = 0.02635509
#
# Stress axis : x y z
#
# Youngs Moduli (GPa) = 62.78911 61.41815 113.81064
#
# Poissons Ratio (x) = 0.26575 0.07299
# Poissons Ratio (y) = 0.27168 0.26764
# Poissons Ratio (z) = 0.04027 0.14443
#
# Static dielectric constant tensor:
#      x y z
#    x 1.844680 0.000000 -0.013610 
#    y 0.000000 1.739940 0.000000 
#    z -0.013610 0.000000 1.729230 
# 
# From -- ./inp_files/186072.got.cif
#   From: 2010.05.17/outbox.cif.g08.bks.cpg/sg15_94_cif.got.tgz:186072.got - 2010.06.03 18:47:42.
