data_PCOD9295536
_publ_section_title
;
Structure prediction by ZEFSAII (Michael W. Deem and Ramdas Pophale) SiO2 
 PCOD9295536
Probable space group: C 2/C
;
_chemical_formula_sum "Si O2"
_cell_formula_units_Z 36
_cell_length_a 17.255664
_cell_length_b 14.738485
_cell_length_c 11.539115
_cell_angle_alpha 90.000000
_cell_angle_beta 31.925999
_cell_angle_gamma 90.000000
_cell_volume 1551.914464
_symmetry_space_group_name_H-M "C 2/C"
_symmetry_group_IT_number 15
_symmetry_cell_setting 'monoclinic'
loop_
_space_group_symop_operation_xyz
x,y,z
-x,y,1/2-z
-x,-y,-z
x,-y,1/2+z
1/2+x,1/2+y,z
1/2-x,1/2+y,1/2-z
1/2-x,1/2-y,-z
1/2+x,1/2-y,1/2+z
loop_
_atom_site_type_symbol
_atom_site_label
_atom_site_fract_x
_atom_site_fract_y
_atom_site_fract_z
Si Si1 0.876956 0.706223 0.177568
Si Si2 0.621723 0.418567 0.928920
Si Si3 0.695554 0.588874 0.703752
Si Si4 0.500000 0.128066 0.250000
Si Si5 0.405761 0.287942 0.760761
O O1 0.747317 0.633807 0.337123
O O2 0.803181 0.805048 0.267054
O O3 0.964880 0.690149 0.183923
O O4 0.994520 0.708793 0.924668
O O5 0.670279 0.520595 0.841280
O O6 0.614673 0.362986 0.814337
O O7 0.452729 0.420411 0.183390
O O8 0.854487 0.568872 0.451707
O O9 0.500000 0.322677 0.750000
O O10 0.250000 0.250000 0.000000
#
# Coordination Sequence:
#
# PCOD9295536 Si02
#       5
#     8   8   8   4   8
#     4  11  24  45  70  98 138 181 226 278 343 401
#     4  10  23  45  67  98 135 179 225 279 336 403
#     4  10  23  43  64 101 133 176 226 270 343 396
#     4  12  26  42  68 100 140 184 220 278 338 412
#     4  11  22  41  69  98 129 178 233 282 336 399
#
# _framework density 23.197153
#
# number of rings (size 3 to 8) (size 9 to 14) (size 15 to 20)
#    0.000    1.333    2.222    3.333    3.111    3.556 
#   14.000    0.000    0.000    0.000    0.000    0.000 
#    0.000    0.000    0.000    0.000    0.000    0.000 
#
# Total GULP energy -100610.715726 kJ/mol
# GULP energy per Si atom -5589.484207 kJ/mol
# Density = 2.314436 g / cm^3
# Si number density = 23.197153 Si / 1000 Ang^3
#
#
#
# Elastic Constant Matrix: (Units=GPa)
#
#
# Indices 1 2 3 4 5 6 
#
# 1 137.5549 29.8322 36.1763 0.0000 -24.8622 0.0000
# 2 29.8322 72.4924 24.1835 0.0000 -21.2956 0.0000
# 3 36.1763 24.1835 210.4422 -0.0001 -36.4518 0.0000
# 4 0.0000 0.0000 -0.0001 21.8842 0.0000 -4.9224
# 5 -24.8622 -21.2956 -36.4518 0.0000 31.4582 0.0000
# 6 0.0000 0.0000 0.0000 -4.9224 0.0000 15.6475
#
#
#
# Elastic Compliance Matrix: (Units=1/GPa)
#
#
# Indices 1 2 3 4 5 6 
#
# 1 0.008721 -0.001956 -0.000388 0.000000 0.005119 0.000000
# 2 -0.001956 0.017658 0.000137 0.000000 0.010567 0.000000
# 3 -0.000388 0.000137 0.005963 0.000000 0.006696 0.000000
# 4 0.000000 0.000000 0.000000 0.049175 0.000000 0.015470
# 5 0.005119 0.010567 0.006696 0.000000 0.050746 0.000000
# 6 0.000000 0.000000 0.000000 0.015470 0.000000 0.068775
#
#
# Mechanical properties :
#
#
# Convention : Reuss Voigt Hill
#
# Bulk Modulus (GPa) = 35.80473 66.76373 51.28423
# Shear Modulus (GPa) = 23.28195 35.81780 29.54987
#
# Velocity S-wave (km/s) = 3.17149 3.93372 3.57299
# Velocity P-wave (km/s) = 5.37397 7.03389 6.25920
#
# Compressibility (1/GPa) = 0.02792927
#
# Stress axis : x y z
#
# Youngs Moduli (GPa) = 114.66255 56.63245 167.71365
#
# Poissons Ratio (x) = 0.11076 0.06503
# Poissons Ratio (y) = 0.22425 -0.02304
# Poissons Ratio (z) = 0.04446 -0.00778
#
# Static dielectric constant tensor:
#      x y z
#    x 1.888950 0.000000 0.032080 
#    y 0.000000 1.839540 0.000000 
#    z 0.032080 0.000000 1.942450 
# 
# From -- ./inp_files/169047.got.cif
#   From: 2010.05.17/outbox.cif.g08.bks.cpg/sg15_85_cif.got.tgz:169047.got - 2010.06.03 18:47:42.
