data_PCOD9295102
_publ_section_title
;
Structure prediction by ZEFSAII (Michael W. Deem and Ramdas Pophale) SiO2 
 PCOD9295102
Probable space group: C 2/C
;
_chemical_formula_sum "Si O2"
_cell_formula_units_Z 52
_cell_length_a 8.321874
_cell_length_b 13.685490
_cell_length_c 23.713366
_cell_angle_alpha 90.000000
_cell_angle_beta 106.652195
_cell_angle_gamma 90.000000
_cell_volume 2587.427988
_symmetry_space_group_name_H-M "C 2/C"
_symmetry_group_IT_number 15
_symmetry_cell_setting 'monoclinic'
loop_
_space_group_symop_operation_xyz
x,y,z
-x,y,1/2-z
-x,-y,-z
x,-y,1/2+z
1/2+x,1/2+y,z
1/2-x,1/2+y,1/2-z
1/2-x,1/2-y,-z
1/2+x,1/2-y,1/2+z
loop_
_atom_site_type_symbol
_atom_site_label
_atom_site_fract_x
_atom_site_fract_y
_atom_site_fract_z
Si Si1 0.948330 0.392439 0.017145
Si Si2 0.554347 0.531730 0.668493
Si Si3 0.632043 0.192414 0.444209
Si Si4 0.178627 0.678151 0.753299
Si Si5 0.248359 0.336413 0.130909
Si Si6 0.830541 0.990550 0.447740
Si Si7 0.500000 0.637552 0.250000
O O1 0.088187 0.356458 0.075556
O O2 0.776622 0.405150 0.033388
O O3 0.962074 0.326390 0.962302
O O4 0.000000 0.500000 0.000000
O O5 0.667070 0.613416 0.710943
O O6 0.362864 0.567725 0.646357
O O7 0.625074 0.524134 0.612765
O O8 0.553217 0.432239 0.704162
O O9 0.750000 0.250000 0.500000
O O10 0.635223 0.256065 0.388269
O O11 0.721639 0.089443 0.441310
O O12 0.193867 0.692666 0.687875
O O13 0.150628 0.785430 0.777852
O O14 0.000000 0.626776 0.750000
O O15 0.000000 0.000000 0.500000
#
# Coordination Sequence:
#
# PCOD9295102 Si02
#       7
#     8   8   8   8   8   8   4
#     4   9  19  37  58  92 128 172 216 270 334 401
#     4  12  22  44  68  96 136 178 221 292 336 411
#     4   9  19  37  59  88 127 165 216 267 329 402
#     4  10  23  42  64  96 130 173 228 280 343 406
#     4  11  20  40  65  89 132 172 219 282 338 405
#     4  11  22  39  63  95 131 174 224 277 350 401
#     4  10  24  44  68  96 134 170 236 276 342 404
#
# _framework density 20.097176999999999
#
# number of rings (size 3 to 8) (size 9 to 14) (size 15 to 20)
#    0.462    1.231    1.538    4.615    0.000    0.000 
#    8.308    5.385    0.000    0.000    0.000    0.000 
#    0.000    0.000    0.000    0.000    0.000    0.000 
#
# Total GULP energy -144993.138419 kJ/mol
# GULP energy per Si atom -5576.659170 kJ/mol
# Density = 2.005144 g / cm^3
# Si number density = 20.097177 Si / 1000 Ang^3
#
#
#
# Elastic Constant Matrix: (Units=GPa)
#
#
# Indices 1 2 3 4 5 6 
#
# 1 96.1381 26.7110 47.0185 0.0000 -19.2349 0.0000
# 2 26.7110 74.8301 32.4403 0.0000 -9.4094 0.0000
# 3 47.0185 32.4403 127.1275 0.0000 -31.7957 0.0000
# 4 0.0000 0.0000 0.0000 21.2344 0.0000 -9.2366
# 5 -19.2349 -9.4094 -31.7957 0.0000 41.9518 0.0000
# 6 0.0000 0.0000 0.0000 -9.2366 0.0000 42.6984
#
#
#
# Elastic Compliance Matrix: (Units=1/GPa)
#
#
# Indices 1 2 3 4 5 6 
#
# 1 0.013518 -0.002933 -0.003536 0.000000 0.002860 0.000000
# 2 -0.002933 0.015673 -0.002927 0.000000 -0.000047 0.000000
# 3 -0.003536 -0.002927 0.011538 0.000000 0.006467 0.000000
# 4 0.000000 0.000000 0.000000 0.051985 0.000000 0.011245
# 5 0.002860 -0.000047 0.006467 0.000000 0.030039 0.000000
# 6 0.000000 0.000000 0.000000 0.011245 0.000000 0.025853
#
#
# Mechanical properties :
#
#
# Convention : Reuss Voigt Hill
#
# Bulk Modulus (GPa) = 45.58120 56.71504 51.14812
# Shear Modulus (GPa) = 28.61877 33.97199 31.29538
#
# Velocity S-wave (km/s) = 3.77771 4.11589 3.95042
# Velocity P-wave (km/s) = 6.46203 7.13226 6.80540
#
# Compressibility (1/GPa) = 0.02193887
#
# Stress axis : x y z
#
# Youngs Moduli (GPa) = 73.97456 63.80284 86.66822
#
# Poissons Ratio (x) = 0.18712 0.30645
# Poissons Ratio (y) = 0.21695 0.25365
# Poissons Ratio (z) = 0.26157 0.18673
#
# Static dielectric constant tensor:
#      x y z
#    x 1.739910 0.000000 -0.019140 
#    y 0.000000 1.713990 0.000000 
#    z -0.019140 0.000000 1.699490 
# 
# From -- ./inp_files/263953.got.cif
#   From: 2010.05.17/outbox.cif.g08.bks.cpg/sg15_132_cif.got.tgz:263953.got - 2010.06.03 18:47:42.
