data_PCOD9295892
_publ_section_title
;
Structure prediction by ZEFSAII (Michael W. Deem and Ramdas Pophale) SiO2 
 PCOD9295892
Probable space group: C 2/C
;
_chemical_formula_sum "Si O2"
_cell_formula_units_Z 32
_cell_length_a 8.398489
_cell_length_b 19.106824
_cell_length_c 15.912479
_cell_angle_alpha 90.000000
_cell_angle_beta 149.770360
_cell_angle_gamma 90.000000
_cell_volume 1285.578198
_symmetry_space_group_name_H-M "C 2/C"
_symmetry_group_IT_number 15
_symmetry_cell_setting 'monoclinic'
loop_
_space_group_symop_operation_xyz
x,y,z
-x,y,1/2-z
-x,-y,-z
x,-y,1/2+z
1/2+x,1/2+y,z
1/2-x,1/2+y,1/2-z
1/2-x,1/2-y,-z
1/2+x,1/2-y,1/2+z
loop_
_atom_site_type_symbol
_atom_site_label
_atom_site_fract_x
_atom_site_fract_y
_atom_site_fract_z
Si Si1 0.328718 0.899026 0.754723
Si Si2 0.855985 0.538178 0.589989
Si Si3 0.316335 0.835609 0.337352
Si Si4 0.084965 0.263190 0.606649
O O1 0.500000 0.869099 0.750000
O O2 0.275891 0.835263 0.792935
O O3 0.008614 0.938738 0.582053
O O4 0.569770 0.957749 0.899457
O O5 0.000000 0.545685 0.750000
O O6 0.032536 0.589379 0.606546
O O7 0.269054 0.803761 0.223194
O O8 0.524897 0.778794 0.482734
O O9 0.000000 0.841383 0.250000
O O10 0.750000 0.250000 0.500000
#
# Coordination Sequence:
#
# PCOD9295892 Si02
#       4
#     8   8   8   8
#     4  11  24  44  71 100 140 186 231 279 350 411
#     4  11  26  43  72 102 140 184 232 285 342 417
#     4  10  24  44  71 101 139 181 228 286 347 407
#     4  10  23  43  72 100 139 181 228 281 348 404
#
# _framework density 24.891524
#
# number of rings (size 3 to 8) (size 9 to 14) (size 15 to 20)
#    0.000    1.500    0.000    5.250   17.500    3.000 
#    0.000    0.000    0.000    0.000    0.000    0.000 
#    0.000    0.000    0.000    0.000    0.000    0.000 
#
# Total GULP energy -89584.189761 kJ/mol
# GULP energy per Si atom -5599.011860 kJ/mol
# Density = 2.483487 g / cm^3
# Si number density = 24.891524 Si / 1000 Ang^3
#
#
#
# Elastic Constant Matrix: (Units=GPa)
#
#
# Indices 1 2 3 4 5 6 
#
# 1 93.3502 14.2672 22.3993 0.0004 11.9201 0.0026
# 2 14.2672 73.0176 -1.7640 0.0000 7.2128 -0.0031
# 3 22.3993 -1.7640 59.0947 0.0107 19.5648 -0.0250
# 4 0.0004 0.0000 0.0107 35.9968 -0.0059 -5.0438
# 5 11.9201 7.2128 19.5648 -0.0059 31.0598 -0.0033
# 6 0.0026 -0.0031 -0.0250 -5.0438 -0.0033 33.6379
#
#
#
# Elastic Compliance Matrix: (Units=1/GPa)
#
#
# Indices 1 2 3 4 5 6 
#
# 1 0.012278 -0.002353 -0.004226 0.000000 -0.001504 -0.000004
# 2 -0.002353 0.014637 0.002723 -0.000001 -0.004211 0.000003
# 3 -0.004226 0.002723 0.023094 -0.000007 -0.013557 0.000015
# 4 0.000000 -0.000001 -0.000007 0.028376 0.000010 0.004255
# 5 -0.001504 -0.004211 -0.013557 0.000010 0.042291 -0.000005
# 6 -0.000004 0.000003 0.000015 0.004255 -0.000005 0.030366
#
#
# Mechanical properties :
#
#
# Convention : Reuss Voigt Hill
#
# Bulk Modulus (GPa) = 23.64267 32.80751 28.22509
# Shear Modulus (GPa) = 28.92634 32.84290 30.88462
#
# Velocity S-wave (km/s) = 3.41265 3.63635 3.52628
# Velocity P-wave (km/s) = 5.00471 5.55334 5.28615
#
# Compressibility (1/GPa) = 0.04229641
#
# Stress axis : x y z
#
# Youngs Moduli (GPa) = 81.44651 68.32094 43.30194
#
# Poissons Ratio (x) = 0.16073 0.18301
# Poissons Ratio (y) = 0.19161 -0.11791
# Poissons Ratio (z) = 0.34422 -0.18603
#
# Static dielectric constant tensor:
#      x y z
#    x 1.966020 0.000000 0.043050 
#    y 0.000000 1.895720 -0.000010 
#    z 0.043050 -0.000010 2.070390 
# 
# From -- ./inp_files/138029.got.cif
#   From: 2010.05.17/outbox.cif.g08.bks.cpg/sg15_70_cif.got.tgz:138029.got - 2010.06.03 18:47:42.
