data_PCOD9295600
_publ_section_title
;
Structure prediction by ZEFSAII (Michael W. Deem and Ramdas Pophale) SiO2 
 PCOD9295600
Probable space group: C 2/C
;
_chemical_formula_sum "Si O2"
_cell_formula_units_Z 44
_cell_length_a 11.639251
_cell_length_b 12.661456
_cell_length_c 13.460071
_cell_angle_alpha 90.000000
_cell_angle_beta 80.842822
_cell_angle_gamma 90.000000
_cell_volume 1958.328700
_symmetry_space_group_name_H-M "C 2/C"
_symmetry_group_IT_number 15
_symmetry_cell_setting 'monoclinic'
loop_
_space_group_symop_operation_xyz
x,y,z
-x,y,1/2-z
-x,-y,-z
x,-y,1/2+z
1/2+x,1/2+y,z
1/2-x,1/2+y,1/2-z
1/2-x,1/2-y,-z
1/2+x,1/2-y,1/2+z
loop_
_atom_site_type_symbol
_atom_site_label
_atom_site_fract_x
_atom_site_fract_y
_atom_site_fract_z
Si Si1 0.433451 0.684840 0.475689
Si Si2 0.107705 0.453860 0.660402
Si Si3 0.500000 0.618222 0.250000
Si Si4 0.591522 0.707697 0.646188
Si Si5 0.727637 0.520911 0.709150
Si Si6 0.187227 0.410319 0.984534
O O1 0.485402 0.678826 0.356803
O O2 0.526703 0.675413 0.552357
O O3 0.325031 0.601965 0.495082
O O4 0.373231 0.797887 0.497634
O O5 0.132198 0.329417 0.642625
O O6 0.205203 0.527948 0.698129
O O7 0.109452 0.505428 0.552804
O O8 0.000000 0.462433 0.750000
O O9 0.389655 0.542702 0.255565
O O10 0.500000 0.697243 0.750000
O O11 0.695907 0.628180 0.657512
O O12 0.805983 0.446094 0.629853
#
# Coordination Sequence:
#
# PCOD9295600 Si02
#       6
#     8   8   4   8   8   8
#     4  10  23  44  72 101 138 182 229 279 346 406
#     4  11  26  44  67 100 142 181 224 282 347 410
#     4  10  24  42  72 106 132 178 232 294 330 406
#     4  11  23  43  72  99 135 183 229 282 337 418
#     4  11  24  43  70 100 136 177 232 287 336 404
#     4  10  23  43  66 101 139 181 219 285 340 406
#
# _framework density 22.468138
#
# number of rings (size 3 to 8) (size 9 to 14) (size 15 to 20)
#    0.000    1.455    0.909    3.273    3.818    8.000 
#    0.000    0.000    0.000    0.000    0.000    0.000 
#    0.000    0.000    0.000    0.000    0.000    0.000 
#
# Total GULP energy -122912.969753 kJ/mol
# GULP energy per Si atom -5586.953171 kJ/mol
# Density = 2.241700 g / cm^3
# Si number density = 22.468138 Si / 1000 Ang^3
#
#
#
# Elastic Constant Matrix: (Units=GPa)
#
#
# Indices 1 2 3 4 5 6 
#
# 1 79.9702 19.1732 46.1716 0.0000 22.0869 0.0000
# 2 19.1732 72.1121 29.8017 0.0000 -8.7276 0.0000
# 3 46.1716 29.8017 130.8492 0.0000 -6.6901 0.0000
# 4 0.0000 0.0000 0.0000 49.4834 0.0000 -11.0213
# 5 22.0869 -8.7276 -6.6901 0.0000 45.8578 0.0000
# 6 0.0000 0.0000 0.0000 -11.0213 0.0000 44.3637
#
#
#
# Elastic Compliance Matrix: (Units=1/GPa)
#
#
# Indices 1 2 3 4 5 6 
#
# 1 0.020789 -0.004057 -0.007015 0.000000 -0.011809 0.000000
# 2 -0.004057 0.016372 -0.002053 0.000000 0.004771 0.000000
# 3 -0.007015 -0.002053 0.010819 0.000000 0.004566 0.000000
# 4 0.000000 0.000000 0.000000 0.021392 0.000000 0.005315
# 5 -0.011809 0.004771 0.004566 0.000000 0.029068 0.000000
# 6 0.000000 0.000000 0.000000 0.005315 0.000000 0.023861
#
#
# Mechanical properties :
#
#
# Convention : Reuss Voigt Hill
#
# Bulk Modulus (GPa) = 46.02313 52.58051 49.30182
# Shear Modulus (GPa) = 32.09310 40.45998 36.27654
#
# Velocity S-wave (km/s) = 3.78350 4.24815 4.02254
# Velocity P-wave (km/s) = 6.29402 6.89315 6.60038
#
# Compressibility (1/GPa) = 0.02172820
#
# Stress axis : x y z
#
# Youngs Moduli (GPa) = 48.10180 61.07996 92.43048
#
# Poissons Ratio (x) = 0.24783 0.64843
# Poissons Ratio (y) = 0.19517 0.18978
# Poissons Ratio (z) = 0.33745 0.12541
#
# Static dielectric constant tensor:
#      x y z
#    x 1.898810 0.000000 0.043560 
#    y 0.000000 1.803720 0.000000 
#    z 0.043560 0.000000 1.806260 
# 
# From -- ./inp_files/142249.got.cif
#   From: 2010.05.17/outbox.cif.g08.bks.cpg/sg15_72_cif.got.tgz:142249.got - 2010.06.03 18:47:42.
