data_PCOD9295900
_publ_section_title
;
Structure prediction by ZEFSAII (Michael W. Deem and Ramdas Pophale) SiO2 
 PCOD9295900
Probable space group: C 2/C
;
_chemical_formula_sum "Si O2"
_cell_formula_units_Z 32
_cell_length_a 12.878963
_cell_length_b 12.748978
_cell_length_c 21.289979
_cell_angle_alpha 90.000000
_cell_angle_beta 155.253811
_cell_angle_gamma 90.000000
_cell_volume 1463.288741
_symmetry_space_group_name_H-M "C 2/C"
_symmetry_group_IT_number 15
_symmetry_cell_setting 'monoclinic'
loop_
_space_group_symop_operation_xyz
x,y,z
-x,y,1/2-z
-x,-y,-z
x,-y,1/2+z
1/2+x,1/2+y,z
1/2-x,1/2+y,1/2-z
1/2-x,1/2-y,-z
1/2+x,1/2-y,1/2+z
loop_
_atom_site_type_symbol
_atom_site_label
_atom_site_fract_x
_atom_site_fract_y
_atom_site_fract_z
Si Si1 0.735841 0.625282 0.622623
Si Si2 0.427383 0.782924 0.540266
Si Si3 0.729623 0.450697 0.342306
Si Si4 0.309663 0.548361 0.306787
O O1 0.577556 0.695519 0.583872
O O2 0.567205 0.600722 0.469405
O O3 0.785744 0.514501 0.684944
O O4 0.000000 0.673825 0.750000
O O5 0.250000 0.750000 0.500000
O O6 0.264603 0.841603 0.397545
O O7 0.623534 0.864391 0.678406
O O8 0.500000 0.508081 0.250000
O O9 0.666289 0.461400 0.234728
O O10 0.000000 0.500000 0.500000
#
# Coordination Sequence:
#
# PCOD9295900 Si02
#       4
#     8   8   8   8
#     4  11  27  45  70 104 142 189 235 300 357 426
#     4  11  26  45  75 106 140 186 241 291 358 435
#     4  10  23  43  72 104 138 186 232 292 358 428
#     4  10  26  47  69 102 143 183 235 295 361 424
#
# _framework density 21.868549000000002
#
# number of rings (size 3 to 8) (size 9 to 14) (size 15 to 20)
#    0.000    1.500    0.000    1.500   21.000    5.000 
#    0.000    0.000    0.000    0.000    0.000    0.000 
#    0.000    0.000    0.000    0.000    0.000    0.000 
#
# Total GULP energy -89321.439174 kJ/mol
# GULP energy per Si atom -5582.589948 kJ/mol
# Density = 2.181878 g / cm^3
# Si number density = 21.868549 Si / 1000 Ang^3
#
#
#
# Elastic Constant Matrix: (Units=GPa)
#
#
# Indices 1 2 3 4 5 6 
#
# 1 131.1866 41.1200 94.3649 -0.0002 3.1986 0.0001
# 2 41.1200 73.7388 62.6291 0.0054 -10.0802 0.0004
# 3 94.3649 62.6291 170.8726 0.0195 -5.7071 0.0029
# 4 -0.0002 0.0054 0.0195 31.9624 -0.0003 -11.4190
# 5 3.1986 -10.0802 -5.7071 -0.0003 49.0266 -0.0002
# 6 0.0001 0.0004 0.0029 -11.4190 -0.0002 34.4952
#
#
#
# Elastic Compliance Matrix: (Units=1/GPa)
#
#
# Indices 1 2 3 4 5 6 
#
# 1 0.012972 -0.001985 -0.006503 0.000005 -0.002012 0.000002
# 2 -0.001985 0.020515 -0.006302 0.000001 0.003614 0.000001
# 3 -0.006503 -0.006302 0.011770 -0.000007 0.000499 -0.000003
# 4 0.000005 0.000001 -0.000007 0.035483 -0.000001 0.011746
# 5 -0.002012 0.003614 0.000499 -0.000001 0.021329 0.000000
# 6 0.000002 0.000001 -0.000003 0.011746 0.000000 0.032878
#
#
# Mechanical properties :
#
#
# Convention : Reuss Voigt Hill
#
# Bulk Modulus (GPa) = 63.79214 85.78067 74.78641
# Shear Modulus (GPa) = 29.45416 34.94245 32.19830
#
# Velocity S-wave (km/s) = 3.67396 4.00164 3.84129
# Velocity P-wave (km/s) = 6.87251 7.78855 7.34482
#
# Compressibility (1/GPa) = 0.01567591
#
# Stress axis : x y z
#
# Youngs Moduli (GPa) = 77.08882 48.74424 84.95839
#
# Poissons Ratio (x) = 0.09677 0.55252
# Poissons Ratio (y) = 0.15303 0.53544
# Poissons Ratio (z) = 0.50134 0.30720
#
# Static dielectric constant tensor:
#      x y z
#    x 1.774500 0.000000 -0.014640 
#    y 0.000000 1.864280 -0.000010 
#    z -0.014640 -0.000010 1.779470 
# 
# From -- ./inp_files/85323.got.cif
#   From: 2010.05.17/outbox.cif.g08.bks.cpg/sg15_43_cif.got.tgz:85323.got - 2010.06.03 18:47:42.
