data_PCOD9295084
_publ_section_title
;
Structure prediction by ZEFSAII (Michael W. Deem and Ramdas Pophale) SiO2 
 PCOD9295084
Probable space group: C 2/C
;
_chemical_formula_sum "Si O2"
_cell_formula_units_Z 56
_cell_length_a 27.127884
_cell_length_b 13.751248
_cell_length_c 9.438150
_cell_angle_alpha 90.000000
_cell_angle_beta 57.021766
_cell_angle_gamma 90.000000
_cell_volume 2953.543753
_symmetry_space_group_name_H-M "C 2/C"
_symmetry_group_IT_number 15
_symmetry_cell_setting 'monoclinic'
loop_
_space_group_symop_operation_xyz
x,y,z
-x,y,1/2-z
-x,-y,-z
x,-y,1/2+z
1/2+x,1/2+y,z
1/2-x,1/2+y,1/2-z
1/2-x,1/2-y,-z
1/2+x,1/2-y,1/2+z
loop_
_atom_site_type_symbol
_atom_site_label
_atom_site_fract_x
_atom_site_fract_y
_atom_site_fract_z
Si Si1 0.849321 0.905423 0.208719
Si Si2 0.535651 0.292344 0.560266
Si Si3 0.774242 0.276111 0.806733
Si Si4 0.390104 0.896210 0.586026
Si Si5 0.163155 0.107541 0.430477
Si Si6 0.951160 0.768063 0.433789
Si Si7 0.566220 0.943859 0.672052
O O1 0.805499 0.823866 0.211651
O O2 0.840318 0.909132 0.393242
O O3 0.836144 0.006914 0.154702
O O4 0.915737 0.867452 0.074959
O O5 0.500000 0.330957 0.750000
O O6 0.572294 0.194037 0.533747
O O7 0.486264 0.262592 0.524278
O O8 0.826572 0.354638 0.726817
O O9 0.719605 0.324345 0.812340
O O10 0.750000 0.250000 0.000000
O O11 0.420413 0.932038 0.683693
O O12 0.390043 0.982863 0.473867
O O13 0.105261 0.165181 0.474934
O O14 0.932846 0.662692 0.401301
O O15 0.000000 0.809096 0.250000
O O16 0.500000 0.981544 0.750000
#
# Coordination Sequence:
#
# PCOD9295084 Si02
#       7
#     8   8   8   8   8   8   8
#     4  10  23  42  64  90 118 157 201 246 298 357
#     4  11  23  39  61  87 124 160 199 248 300 355
#     4   9  21  43  65  82 121 163 199 242 303 357
#     4  11  22  37  60  90 122 163 203 245 301 357
#     4  11  23  41  66  89 119 158 201 248 297 356
#     4  11  21  40  60  86 124 162 197 242 306 362
#     4  11  21  35  59  90 126 161 200 246 297 360
#
# _framework density 18.960274999999999
#
# number of rings (size 3 to 8) (size 9 to 14) (size 15 to 20)
#    0.000    1.429    4.286    2.571    4.000    4.571 
#    0.000    0.714    0.000    0.000    0.000    0.000 
#    0.000    0.000    0.000    0.000    0.000    0.000 
#
# Total GULP energy -156278.948353 kJ/mol
# GULP energy per Si atom -5581.391013 kJ/mol
# Density = 1.891712 g / cm^3
# Si number density = 18.960275 Si / 1000 Ang^3
#
#
#
# Elastic Constant Matrix: (Units=GPa)
#
#
# Indices 1 2 3 4 5 6 
#
# 1 60.5103 25.2823 11.6483 0.0000 -28.9232 0.0000
# 2 25.2823 80.0656 16.8590 0.0000 -18.1954 0.0000
# 3 11.6483 16.8590 58.2628 0.0000 -18.1312 0.0000
# 4 0.0000 0.0000 0.0000 33.5520 0.0000 -1.2479
# 5 -28.9232 -18.1954 -18.1312 0.0000 28.7481 0.0000
# 6 0.0000 0.0000 0.0000 -1.2479 0.0000 11.3149
#
#
#
# Elastic Compliance Matrix: (Units=1/GPa)
#
#
# Indices 1 2 3 4 5 6 
#
# 1 0.033782 -0.003846 0.005199 0.000000 0.034832 0.000000
# 2 -0.003846 0.015159 -0.002284 0.000000 0.004284 0.000000
# 3 0.005199 -0.002284 0.022349 0.000000 0.017880 0.000000
# 4 0.000000 0.000000 0.000000 0.029927 0.000000 0.003301
# 5 0.034832 0.004284 0.017880 0.000000 0.083817 0.000000
# 6 0.000000 0.000000 0.000000 0.003301 0.000000 0.088743
#
#
# Mechanical properties :
#
#
# Convention : Reuss Voigt Hill
#
# Bulk Modulus (GPa) = 14.40374 34.04644 24.22509
# Shear Modulus (GPa) = 16.73457 24.39295 20.56376
#
# Velocity S-wave (km/s) = 2.97410 3.59071 3.29686
# Velocity P-wave (km/s) = 4.40534 5.93184 5.22464
#
# Compressibility (1/GPa) = 0.06942639
#
# Stress axis : x y z
#
# Youngs Moduli (GPa) = 29.60197 65.96809 44.74381
#
# Poissons Ratio (x) = 0.25372 -0.23260
# Poissons Ratio (y) = 0.11385 0.10220
# Poissons Ratio (z) = -0.15389 0.15068
#
# Static dielectric constant tensor:
#      x y z
#    x 1.671180 0.000000 0.009360 
#    y 0.000000 1.647280 0.000000 
#    z 0.009360 0.000000 1.682500 
# 
# From -- ./inp_files/61838.got.cif
#   From: 2010.05.17/outbox.cif.g08.bks.cpg/sg15_31_cif.got.tgz:61838.got - 2010.06.03 18:47:42.
