data_PCOD9295796
_publ_section_title
;
Structure prediction by ZEFSAII (Michael W. Deem and Ramdas Pophale) SiO2 
 PCOD9295796
Probable space group: C 2/C
;
_chemical_formula_sum "Si O2"
_cell_formula_units_Z 36
_cell_length_a 7.619266
_cell_length_b 20.501005
_cell_length_c 10.258753
_cell_angle_alpha 90.000000
_cell_angle_beta 110.255344
_cell_angle_gamma 90.000000
_cell_volume 1503.347338
_symmetry_space_group_name_H-M "C 2/C"
_symmetry_group_IT_number 15
_symmetry_cell_setting 'monoclinic'
loop_
_space_group_symop_operation_xyz
x,y,z
-x,y,1/2-z
-x,-y,-z
x,-y,1/2+z
1/2+x,1/2+y,z
1/2-x,1/2+y,1/2-z
1/2-x,1/2-y,-z
1/2+x,1/2-y,1/2+z
loop_
_atom_site_type_symbol
_atom_site_label
_atom_site_fract_x
_atom_site_fract_y
_atom_site_fract_z
Si Si1 0.713298 0.588772 0.844054
Si Si2 0.225810 0.371473 0.571641
Si Si3 0.075004 0.718597 0.629726
Si Si4 0.500000 0.000000 0.000000
Si Si5 0.844611 0.140999 0.392510
O O1 0.500000 0.580043 0.750000
O O2 0.790215 0.657045 0.808230
O O3 0.834924 0.525077 0.852856
O O4 0.731523 0.599544 0.006329
O O5 0.119692 0.434987 0.495819
O O6 0.433771 0.370432 0.567153
O O7 0.241973 0.373667 0.731713
O O8 0.098534 0.310084 0.496607
O O9 0.170555 0.781345 0.590596
O O10 0.000000 0.742773 0.750000
#
# Coordination Sequence:
#
# PCOD9295796 Si02
#       5
#     8   8   8   4   8
#     4  11  26  45  69 101 135 181 227 281 335 406
#     4  10  23  43  69  98 138 179 221 282 338 401
#     4  11  22  42  69 102 137 172 221 280 345 409
#     4  10  26  48  62 100 134 180 238 268 336 400
#     4  11  23  42  71 102 134 175 225 280 348 398
#
# _framework density 23.946563000000001
#
# number of rings (size 3 to 8) (size 9 to 14) (size 15 to 20)
#    0.000    1.333    2.222    2.667    6.222    4.444 
#   20.000    0.000    0.000    0.000    0.000    0.000 
#    0.000    0.000    0.000    0.000    0.000    0.000 
#
# Total GULP energy -100289.906245 kJ/mol
# GULP energy per Si atom -5571.661458 kJ/mol
# Density = 2.389206 g / cm^3
# Si number density = 23.946563 Si / 1000 Ang^3
#
#
#
# Elastic Constant Matrix: (Units=GPa)
#
#
# Indices 1 2 3 4 5 6 
#
# 1 38.4684 -9.6055 18.2325 0.0000 14.6064 0.0000
# 2 -9.6055 77.3935 -12.4061 0.0000 13.8010 0.0000
# 3 18.2325 -12.4061 78.3374 0.0000 12.5582 0.0000
# 4 0.0000 0.0000 0.0000 256.9753 0.0000 -1.6507
# 5 14.6064 13.8010 12.5582 0.0000 51.6016 0.0000
# 6 0.0000 0.0000 0.0000 -1.6507 0.0000 -22.8623
#
#
#
# Elastic Compliance Matrix: (Units=1/GPa)
#
#
# Indices 1 2 3 4 5 6 
#
# 1 0.033417 0.004955 -0.005478 0.000000 -0.009451 0.000000
# 2 0.004955 0.014939 0.002162 0.000000 -0.005924 0.000000
# 3 -0.005478 0.002162 0.014804 0.000000 -0.002631 0.000000
# 4 0.000000 0.000000 0.000000 0.003890 0.000000 -0.000281
# 5 -0.009451 -0.005924 -0.002631 0.000000 0.024279 0.000000
# 6 0.000000 0.000000 0.000000 -0.000281 0.000000 -0.043720
#
#
# Mechanical properties :
#
#
# Convention : Reuss Voigt Hill
#
# Bulk Modulus (GPa) = 15.05133 20.73791 17.89462
# Shear Modulus (GPa) = 75.21313 70.34148 72.77730
#
# Velocity S-wave (km/s) = 5.61043 5.42569 5.51883
# Velocity P-wave (km/s) = 6.94754 6.92313 6.93534
#
# Compressibility (1/GPa) = 0.06643930
#
# Stress axis : x y z
#
# Youngs Moduli (GPa) = 29.92448 66.93901 67.54742
#
# Poissons Ratio (x) = -0.33167 0.37002
# Poissons Ratio (y) = -0.14827 -0.14606
# Poissons Ratio (z) = 0.16392 -0.14475
#
# Static dielectric constant tensor:
#      x y z
#    x 3.853140 0.000000 0.809030 
#    y 0.000000 1.955300 0.000000 
#    z 0.809030 0.000000 2.265150 
# 
# From -- ./inp_files/78010.got.cif
#   From: 2010.05.17/outbox.cif.g08.bks.cpg/sg15_40_cif.got.tgz:78010.got - 2010.06.03 18:47:42.
