data_PCOD9295118
_publ_section_title
;
Structure prediction by ZEFSAII (Michael W. Deem and Ramdas Pophale) SiO2 
 PCOD9295118
Probable space group: C 2/C
;
_chemical_formula_sum "Si O2"
_cell_formula_units_Z 56
_cell_length_a 12.321843
_cell_length_b 20.146715
_cell_length_c 11.837642
_cell_angle_alpha 90.000000
_cell_angle_beta 68.379869
_cell_angle_gamma 90.000000
_cell_volume 2731.890125
_symmetry_space_group_name_H-M "C 2/C"
_symmetry_group_IT_number 15
_symmetry_cell_setting 'monoclinic'
loop_
_space_group_symop_operation_xyz
x,y,z
-x,y,1/2-z
-x,-y,-z
x,-y,1/2+z
1/2+x,1/2+y,z
1/2-x,1/2+y,1/2-z
1/2-x,1/2-y,-z
1/2+x,1/2-y,1/2+z
loop_
_atom_site_type_symbol
_atom_site_label
_atom_site_fract_x
_atom_site_fract_y
_atom_site_fract_z
Si Si1 0.916634 0.827518 0.880241
Si Si2 0.237613 0.571640 0.983505
Si Si3 0.423291 0.743673 0.609494
Si Si4 0.577641 0.446170 0.905922
Si Si5 0.735984 0.558921 0.150082
Si Si6 0.521483 0.109718 0.372801
Si Si7 0.670281 0.292734 0.118244
O O1 0.808922 0.867660 0.866062
O O2 0.000000 0.795862 0.750000
O O3 0.995194 0.887051 0.899210
O O4 0.884731 0.785293 0.003329
O O5 0.261109 0.494766 0.949243
O O6 0.283338 0.631962 0.888172
O O7 0.313899 0.583694 0.065958
O O8 0.099208 0.578587 0.041546
O O9 0.456516 0.819944 0.577764
O O10 0.338385 0.737655 0.751641
O O11 0.541876 0.708437 0.610095
O O12 0.641281 0.472957 0.770698
O O13 0.500000 0.500000 0.000000
O O14 0.864558 0.565337 0.152881
O O15 0.500000 0.125018 0.250000
O O16 0.750000 0.250000 0.000000
#
# Coordination Sequence:
#
# PCOD9295118 Si02
#       7
#     8   8   8   8   8   8   8
#     4  10  23  42  65 101 135 176 221 281 352 402
#     4  12  23  39  70  96 132 170 225 279 329 406
#     4  11  23  40  72  99 133 175 232 281 340 396
#     4  11  22  38  65  94 134 168 216 275 343 401
#     4  11  26  41  65  97 138 180 217 276 348 408
#     4  12  23  45  67  95 131 186 225 269 337 413
#     4  11  22  38  66 106 128 167 229 290 328 389
#
# _framework density 20.498628
#
# number of rings (size 3 to 8) (size 9 to 14) (size 15 to 20)
#    0.000    0.857    7.143    0.429    2.000    0.571 
#    0.000    0.000    3.143    0.000    0.000    0.000 
#    0.000    0.000    0.000    0.000    0.000    0.000 
#
# Total GULP energy -156177.563970 kJ/mol
# GULP energy per Si atom -5577.770142 kJ/mol
# Density = 2.045197 g / cm^3
# Si number density = 20.498628 Si / 1000 Ang^3
#
#
#
# Elastic Constant Matrix: (Units=GPa)
#
#
# Indices 1 2 3 4 5 6 
#
# 1 100.6240 5.0581 22.3700 0.0000 -9.0714 0.0000
# 2 5.0581 33.8429 15.2617 0.0000 -5.7305 0.0000
# 3 22.3700 15.2617 105.9388 0.0000 -7.5224 0.0000
# 4 0.0000 0.0000 0.0000 26.9398 0.0000 3.7117
# 5 -9.0714 -5.7305 -7.5224 0.0000 25.3002 0.0000
# 6 0.0000 0.0000 0.0000 3.7117 0.0000 19.1167
#
#
#
# Elastic Compliance Matrix: (Units=1/GPa)
#
#
# Indices 1 2 3 4 5 6 
#
# 1 0.010680 -0.000150 -0.002006 0.000000 0.003199 0.000000
# 2 -0.000150 0.032499 -0.004220 0.000000 0.006052 0.000000
# 3 -0.002006 -0.004220 0.010575 0.000000 0.001469 0.000000
# 4 0.000000 0.000000 0.000000 0.038140 0.000000 -0.007405
# 5 0.003199 0.006052 0.001469 0.000000 0.042480 0.000000
# 6 0.000000 0.000000 0.000000 -0.007405 0.000000 0.053748
#
#
# Mechanical properties :
#
#
# Convention : Reuss Voigt Hill
#
# Bulk Modulus (GPa) = 24.38975 36.19837 30.29406
# Shear Modulus (GPa) = 23.30539 27.45239 25.37889
#
# Velocity S-wave (km/s) = 3.37549 3.66352 3.52245
# Velocity P-wave (km/s) = 5.20730 5.96594 5.59948
#
# Compressibility (1/GPa) = 0.04100084
#
# Stress axis : x y z
#
# Youngs Moduli (GPa) = 93.63334 30.77039 94.55899
#
# Poissons Ratio (x) = 0.00461 0.18973
# Poissons Ratio (y) = 0.01402 0.39908
# Poissons Ratio (z) = 0.18787 0.12986
#
# Static dielectric constant tensor:
#      x y z
#    x 1.794390 0.000000 0.011110 
#    y 0.000000 1.740280 0.000000 
#    z 0.011110 0.000000 1.823500 
# 
# From -- ./inp_files/89560.got.cif
#   From: 2010.05.17/outbox.cif.g08.bks.cpg/sg15_45_cif.got.tgz:89560.got - 2010.06.03 18:47:42.
