data_PCOD9295668
_publ_section_title
;
Structure prediction by ZEFSAII (Michael W. Deem and Ramdas Pophale) SiO2 
 PCOD9295668
Probable space group: C 2/C
;
_chemical_formula_sum "Si O2"
_cell_formula_units_Z 40
_cell_length_a 18.425154
_cell_length_b 12.588677
_cell_length_c 7.594179
_cell_angle_alpha 90.000000
_cell_angle_beta 95.645896
_cell_angle_gamma 90.000000
_cell_volume 1752.912022
_symmetry_space_group_name_H-M "C 2/C"
_symmetry_group_IT_number 15
_symmetry_cell_setting 'monoclinic'
loop_
_space_group_symop_operation_xyz
x,y,z
-x,y,1/2-z
-x,-y,-z
x,-y,1/2+z
1/2+x,1/2+y,z
1/2-x,1/2+y,1/2-z
1/2-x,1/2-y,-z
1/2+x,1/2-y,1/2+z
loop_
_atom_site_type_symbol
_atom_site_label
_atom_site_fract_x
_atom_site_fract_y
_atom_site_fract_z
Si Si1 0.175795 0.354368 0.887205
Si Si2 0.328653 0.314853 0.827564
Si Si3 0.515013 0.379407 0.548761
Si Si4 0.376664 0.254886 0.455840
Si Si5 0.561015 0.954880 0.386303
O O1 0.258603 0.385174 0.860866
O O2 0.162884 0.260849 0.739180
O O3 0.114170 0.445820 0.851466
O O4 0.176980 0.302528 0.082708
O O5 0.400053 0.357255 0.943806
O O6 0.339669 0.310448 0.617799
O O7 0.500000 0.360856 0.750000
O O8 0.500000 0.500000 0.500000
O O9 0.455730 0.306570 0.438350
O O10 0.388687 0.135254 0.525191
O O11 0.500000 0.897392 0.250000
O O12 0.500000 0.000000 0.500000
#
# Coordination Sequence:
#
# PCOD9295668 Si02
#       5
#     8   8   8   8   8
#     4  11  24  42  68  95 130 177 212 274 342 395
#     4  10  24  45  61  97 134 167 222 276 330 396
#     4  10  23  43  67  94 127 173 224 272 322 396
#     4  11  23  44  69  95 134 170 223 278 334 400
#     4  12  22  39  65 101 129 166 222 273 334 406
#
# _framework density 22.819171999999998
#
# number of rings (size 3 to 8) (size 9 to 14) (size 15 to 20)
#    0.000    1.200    2.000    4.800    2.800    0.000 
#   10.800    0.000    0.000    0.000    0.000    0.000 
#    0.000    0.000    0.000    0.000    0.000    0.000 
#
# Total GULP energy -111462.887808 kJ/mol
# GULP energy per Si atom -5573.144390 kJ/mol
# Density = 2.276723 g / cm^3
# Si number density = 22.819172 Si / 1000 Ang^3
#
#
#
# Elastic Constant Matrix: (Units=GPa)
#
#
# Indices 1 2 3 4 5 6 
#
# 1 173.6545 34.2774 22.3861 0.0000 -16.2879 0.0000
# 2 34.2774 67.6716 3.3875 0.0000 -8.1096 0.0000
# 3 22.3861 3.3875 63.9557 0.0000 0.4677 0.0000
# 4 0.0000 0.0000 0.0000 22.0139 0.0000 0.7995
# 5 -16.2879 -8.1096 0.4677 0.0000 28.8654 0.0000
# 6 0.0000 0.0000 0.0000 0.7995 0.0000 18.6339
#
#
#
# Elastic Compliance Matrix: (Units=1/GPa)
#
#
# Indices 1 2 3 4 5 6 
#
# 1 0.006943 -0.003030 -0.002293 0.000000 0.003104 0.000000
# 2 -0.003030 0.016660 0.000157 0.000000 0.002968 0.000000
# 3 -0.002293 0.000157 0.016441 0.000000 -0.001516 0.000000
# 4 0.000000 0.000000 0.000000 0.045497 0.000000 -0.001952
# 5 0.003104 0.002968 -0.001516 0.000000 0.037253 0.000000
# 6 0.000000 0.000000 0.000000 -0.001952 0.000000 0.053749
#
#
# Mechanical properties :
#
#
# Convention : Reuss Voigt Hill
#
# Bulk Modulus (GPa) = 33.65655 47.26486 40.46071
# Shear Modulus (GPa) = 25.40903 30.25135 27.83019
#
# Velocity S-wave (km/s) = 3.34053 3.64496 3.49606
# Velocity P-wave (km/s) = 5.44611 6.20259 5.83662
#
# Compressibility (1/GPa) = 0.02971190
#
# Stress axis : x y z
#
# Youngs Moduli (GPa) = 144.02260 60.02394 60.82330
#
# Poissons Ratio (x) = 0.18189 0.13944
# Poissons Ratio (y) = 0.43643 -0.00952
# Poissons Ratio (z) = 0.33018 -0.00940
#
# Static dielectric constant tensor:
#      x y z
#    x 1.893520 0.000000 -0.068220 
#    y 0.000000 1.808290 0.000000 
#    z -0.068220 0.000000 1.843880 
# 
# From -- ./inp_files/46187.got.cif
#   From: 2010.05.17/outbox.cif.g08.bks.cpg/sg15_24_cif.got.tgz:46187.got - 2010.06.03 18:47:42.
