data_PCOD9295216
_publ_section_title
;
Structure prediction by ZEFSAII (Michael W. Deem and Ramdas Pophale) SiO2 
 PCOD9295216
Probable space group: C 2/C
;
_chemical_formula_sum "Si O2"
_cell_formula_units_Z 64
_cell_length_a 8.212784
_cell_length_b 32.782341
_cell_length_c 16.265398
_cell_angle_alpha 90.000000
_cell_angle_beta 42.677779
_cell_angle_gamma 90.000000
_cell_volume 2968.550342
_symmetry_space_group_name_H-M "C 2/C"
_symmetry_group_IT_number 15
_symmetry_cell_setting 'monoclinic'
loop_
_space_group_symop_operation_xyz
x,y,z
-x,y,1/2-z
-x,-y,-z
x,-y,1/2+z
1/2+x,1/2+y,z
1/2-x,1/2+y,1/2-z
1/2-x,1/2-y,-z
1/2+x,1/2-y,1/2+z
loop_
_atom_site_type_symbol
_atom_site_label
_atom_site_fract_x
_atom_site_fract_y
_atom_site_fract_z
Si Si1 0.369387 0.331869 0.631608
Si Si2 0.945654 0.456943 0.867729
Si Si3 0.797493 0.879104 0.257998
Si Si4 0.071606 0.675209 0.536244
Si Si5 0.504449 0.408836 0.485607
Si Si6 0.233402 0.752639 0.106250
Si Si7 0.031772 0.450918 0.138363
Si Si8 0.282274 0.120925 0.163288
O O1 0.649623 0.321799 0.544465
O O2 0.358828 0.374844 0.588665
O O3 0.272275 0.293558 0.620159
O O4 0.227466 0.342378 0.766964
O O5 0.982624 0.502778 0.885624
O O6 0.000000 0.456988 0.750000
O O7 0.100067 0.421064 0.851090
O O8 0.668100 0.444711 0.979816
O O9 0.594522 0.844430 0.332129
O O10 0.897429 0.885399 0.129953
O O11 0.670106 0.922258 0.324890
O O12 0.000000 0.869602 0.250000
O O13 0.072192 0.640419 0.465617
O O14 0.947592 0.716685 0.553062
O O15 0.712300 0.428261 0.464943
O O16 0.000000 0.765973 0.250000
O O17 0.250000 0.750000 0.000000
O O18 0.000000 0.451385 0.250000
O O19 0.000000 0.113387 0.250000
#
# Coordination Sequence:
#
# PCOD9295216 Si02
#       8
#     8   8   8   8   8   8   8   8
#     4  11  24  44  70  95 133 172 216 269 333 394
#     4  11  21  36  66  93 130 175 221 271 330 391
#     4  11  23  40  64  93 131 171 215 275 325 387
#     4  11  24  46  68  93 134 177 215 263 335 401
#     4  11  22  40  65  95 127 171 220 272 324 393
#     4  12  29  46  71 107 137 170 224 282 332 406
#     4   9  21  40  59  95 130 172 221 272 326 391
#     4  10  23  42  66  99 134 175 219 270 329 396
#
# _framework density 21.559343999999999
#
# number of rings (size 3 to 8) (size 9 to 14) (size 15 to 20)
#    0.000    1.250    2.500    2.625    7.000    0.500 
#    0.000    3.750    0.000    0.000    0.000    0.000 
#    0.000    0.000    0.000    0.000    0.000    0.000 
#
# Total GULP energy -178782.736057 kJ/mol
# GULP energy per Si atom -5586.960502 kJ/mol
# Density = 2.151027 g / cm^3
# Si number density = 21.559344 Si / 1000 Ang^3
#
#
#
# Elastic Constant Matrix: (Units=GPa)
#
#
# Indices 1 2 3 4 5 6 
#
# 1 48.9273 18.1010 8.3890 0.0000 -4.0676 0.0000
# 2 18.1010 82.9652 -3.3109 0.0000 -3.6868 0.0000
# 3 8.3890 -3.3109 75.3935 0.0000 5.6588 0.0000
# 4 0.0000 0.0000 0.0000 25.3748 0.0000 60.9459
# 5 -4.0676 -3.6868 5.6588 0.0000 27.3492 0.0000
# 6 0.0000 0.0000 0.0000 60.9459 0.0000 2390.1144
#
#
#
# Elastic Compliance Matrix: (Units=1/GPa)
#
#
# Indices 1 2 3 4 5 6 
#
# 1 0.023096 -0.005010 -0.003044 0.000000 0.003390 0.000000
# 2 -0.005010 0.013225 0.001077 0.000000 0.000815 0.000000
# 3 -0.003044 0.001077 0.013889 0.000000 -0.003181 0.000000
# 4 0.000000 0.000000 0.000000 0.041980 0.000000 -0.001070
# 5 0.003390 0.000815 -0.003181 0.000000 0.037836 0.000000
# 6 0.000000 0.000000 0.000000 -0.001070 0.000000 0.000446
#
#
# Mechanical properties :
#
#
# Convention : Reuss Voigt Hill
#
# Bulk Modulus (GPa) = 27.58184 28.18268 27.88226
# Shear Modulus (GPa) = 31.94662 500.84148 266.39405
#
# Velocity S-wave (km/s) = 3.85359 15.25820 11.12796
# Velocity P-wave (km/s) = 5.71152 17.98659 13.34426
#
# Compressibility (1/GPa) = 0.03625573
#
# Stress axis : x y z
#
# Youngs Moduli (GPa) = 43.29816 75.61174 72.00173
#
# Poissons Ratio (x) = 0.37880 0.21919
# Poissons Ratio (y) = 0.21691 -0.07755
# Poissons Ratio (z) = 0.13181 -0.08144
#
# Static dielectric constant tensor:
#      x y z
#    x 1.810400 0.000000 0.005250 
#    y 0.000000 1.728440 0.000000 
#    z 0.005250 0.000000 1.836040 
# 
# From -- ./inp_files/194242.got.cif
#   From: 2010.05.17/outbox.cif.g08.bks.cpg/sg15_98_cif.got.tgz:194242.got - 2010.06.03 18:47:42.
