data_PCOD9295988
_publ_section_title
;
Structure prediction by ZEFSAII (Michael W. Deem and Ramdas Pophale) SiO2 
 PCOD9295988
Probable space group: C 2/C
;
_chemical_formula_sum "Si O2"
_cell_formula_units_Z 40
_cell_length_a 6.820761
_cell_length_b 21.687170
_cell_length_c 11.496899
_cell_angle_alpha 90.000000
_cell_angle_beta 61.807307
_cell_angle_gamma 90.000000
_cell_volume 1498.896331
_symmetry_space_group_name_H-M "C 2/C"
_symmetry_group_IT_number 15
_symmetry_cell_setting 'monoclinic'
loop_
_space_group_symop_operation_xyz
x,y,z
-x,y,1/2-z
-x,-y,-z
x,-y,1/2+z
1/2+x,1/2+y,z
1/2-x,1/2+y,1/2-z
1/2-x,1/2-y,-z
1/2+x,1/2-y,1/2+z
loop_
_atom_site_type_symbol
_atom_site_label
_atom_site_fract_x
_atom_site_fract_y
_atom_site_fract_z
Si Si1 0.535784 0.769319 0.436960
Si Si2 0.260716 0.987418 0.511399
Si Si3 0.742761 0.632082 0.142670
Si Si4 0.675532 0.306925 0.336075
Si Si5 0.000000 0.547288 0.250000
Si Si6 0.000000 0.920498 0.250000
O O1 0.437559 0.821356 0.551069
O O2 0.532139 0.709697 0.522231
O O3 0.359446 0.785948 0.381123
O O4 0.760208 0.770433 0.299859
O O5 0.314846 0.005705 0.365374
O O6 0.115164 0.035704 0.623782
O O7 0.500000 0.000000 0.500000
O O8 0.195352 0.916961 0.552106
O O9 0.500000 0.657145 0.250000
O O10 0.853137 0.590538 0.209782
O O11 0.655015 0.374412 0.283943
#
# Coordination Sequence:
#
# PCOD9295988 Si02
#       6
#     8   8   8   8   4   4
#     4  10  24  44  65  96 140 181 228 290 352 402
#     4  10  23  44  64 101 141 174 230 289 348 419
#     4  11  24  41  68 101 137 186 230 288 355 420
#     4  10  24  43  68  98 135 181 233 290 343 418
#     4  10  24  41  66  96 138 179 234 288 340 430
#     4  12  24  43  74 106 134 183 238 280 358 420
#
# _framework density 26.686301
#
# number of rings (size 3 to 8) (size 9 to 14) (size 15 to 20)
#    0.000    1.600    1.000    2.400    8.400    7.200 
#    0.000    0.000    0.000    0.000    0.000    0.000 
#    0.000    0.000    0.000    0.000    0.000    0.000 
#
# Total GULP energy -111617.052332 kJ/mol
# GULP energy per Si atom -5580.852617 kJ/mol
# Density = 2.662556 g / cm^3
# Si number density = 26.686301 Si / 1000 Ang^3
#
#
#
# Elastic Constant Matrix: (Units=GPa)
#
#
# Indices 1 2 3 4 5 6 
#
# 1 102.4140 16.4866 36.1243 0.0000 -1.5997 0.0000
# 2 16.4866 118.3328 61.3440 0.0000 -4.9846 0.0000
# 3 36.1243 61.3440 203.5259 0.0000 -22.1908 0.0000
# 4 0.0000 0.0000 0.0000 62.6408 0.0000 14.5693
# 5 -1.5997 -4.9846 -22.1908 0.0000 42.7384 0.0000
# 6 0.0000 0.0000 0.0000 14.5693 0.0000 49.9516
#
#
#
# Elastic Compliance Matrix: (Units=1/GPa)
#
#
# Indices 1 2 3 4 5 6 
#
# 1 0.010464 -0.000577 -0.001747 0.000000 -0.000583 0.000000
# 2 -0.000577 0.010055 -0.002971 0.000000 -0.000391 0.000000
# 3 -0.001747 -0.002971 0.006438 0.000000 0.002931 0.000000
# 4 0.000000 0.000000 0.000000 0.017126 0.000000 -0.004995
# 5 -0.000583 -0.000391 0.002931 0.000000 0.024853 0.000000
# 6 0.000000 0.000000 0.000000 -0.004995 0.000000 0.021476
#
#
# Mechanical properties :
#
#
# Convention : Reuss Voigt Hill
#
# Bulk Modulus (GPa) = 61.09439 72.46471 66.77955
# Shear Modulus (GPa) = 46.96707 51.75401 49.36054
#
# Velocity S-wave (km/s) = 4.19975 4.40858 4.30543
# Velocity P-wave (km/s) = 6.81619 7.28885 7.05648
#
# Compressibility (1/GPa) = 0.01636811
#
# Stress axis : x y z
#
# Youngs Moduli (GPa) = 95.56332 99.45585 155.31614
#
# Poissons Ratio (x) = 0.05737 0.27134
# Poissons Ratio (y) = 0.05512 0.46142
# Poissons Ratio (z) = 0.16695 0.29547
#
# Static dielectric constant tensor:
#      x y z
#    x 2.296320 0.000000 -0.151350 
#    y 0.000000 2.147180 0.000000 
#    z -0.151350 0.000000 2.054220 
# 
# From -- ./inp_files/79006.got.cif
#   From: 2010.05.17/outbox.cif.g08.bks.cpg/sg15_40_cif.got.tgz:79006.got - 2010.06.03 18:47:42.
