data_PCOD9295611
_publ_section_title
;
Structure prediction by ZEFSAII (Michael W. Deem and Ramdas Pophale) SiO2 
 PCOD9295611
Probable space group: C 2/C
;
_chemical_formula_sum "Si O2"
_cell_formula_units_Z 64
_cell_length_a 27.997077
_cell_length_b 8.547950
_cell_length_c 18.574037
_cell_angle_alpha 90.000000
_cell_angle_beta 138.662524
_cell_angle_gamma 90.000000
_cell_volume 2935.953234
_symmetry_space_group_name_H-M "C 2/C"
_symmetry_group_IT_number 15
_symmetry_cell_setting 'monoclinic'
loop_
_space_group_symop_operation_xyz
x,y,z
-x,y,1/2-z
-x,-y,-z
x,-y,1/2+z
1/2+x,1/2+y,z
1/2-x,1/2+y,1/2-z
1/2-x,1/2-y,-z
1/2+x,1/2-y,1/2+z
loop_
_atom_site_type_symbol
_atom_site_label
_atom_site_fract_x
_atom_site_fract_y
_atom_site_fract_z
Si Si1 0.185635 0.052309 0.971940
Si Si2 0.805641 0.763112 0.271323
Si Si3 0.566291 0.905240 0.541100
Si Si4 0.502021 0.632488 0.560693
Si Si5 0.159237 0.654624 0.347735
Si Si6 0.838683 0.909259 0.889235
Si Si7 0.557316 0.580981 0.249251
Si Si8 0.476794 0.073451 0.806447
O O1 0.157997 0.222020 0.911722
O O2 0.137022 0.935817 0.871059
O O3 0.271603 0.044195 0.058669
O O4 0.169146 0.033686 0.037201
O O5 0.848131 0.611062 0.352993
O O6 0.817833 0.748326 0.198805
O O7 0.722403 0.720217 0.193421
O O8 0.827503 0.933648 0.328032
O O9 0.549992 0.753685 0.572086
O O10 0.547371 0.932974 0.436462
O O11 0.500000 0.000000 0.500000
O O12 0.500000 0.500000 0.500000
O O13 0.417621 0.671473 0.474649
O O14 0.535952 0.558735 0.671033
O O15 0.085749 0.556145 0.252814
O O16 0.500000 0.575009 0.250000
O O17 0.551381 0.751784 0.207198
O O18 0.500000 0.065217 0.750000
#
# Coordination Sequence:
#
# PCOD9295611 Si02
#       8
#     8   8   8   8   8   8   8   8
#     4  10  23  43  66  92 132 169 217 268 329 399
#     4  11  24  45  68  97 139 173 224 283 333 407
#     4  12  25  43  68  99 133 174 226 282 332 399
#     4  12  23  42  68  95 135 177 222 273 340 399
#     4  10  23  46  65  95 133 172 217 275 327 395
#     4  11  25  44  67 100 134 178 225 274 345 404
#     4  11  22  41  66  98 130 170 224 274 325 400
#     4  11  25  42  66  99 134 167 219 277 333 393
#
# _framework density 21.798714
#
# number of rings (size 3 to 8) (size 9 to 14) (size 15 to 20)
#    0.000    1.000    5.000    0.750    3.500    2.000 
#    4.500    0.000    0.000    0.000    0.000    0.000 
#    0.000    0.000    0.000    0.000    0.000    0.000 
#
# Total GULP energy -178308.181962 kJ/mol
# GULP energy per Si atom -5572.130686 kJ/mol
# Density = 2.174910 g / cm^3
# Si number density = 21.798714 Si / 1000 Ang^3
#
#
#
# Elastic Constant Matrix: (Units=GPa)
#
#
# Indices 1 2 3 4 5 6 
#
# 1 61.5924 11.0691 19.8157 0.0000 -4.7564 0.0000
# 2 11.0691 39.0699 5.9887 0.0000 -6.6018 0.0000
# 3 19.8157 5.9887 104.5057 0.0000 -4.4796 0.0000
# 4 0.0000 0.0000 0.0000 32.0288 0.0000 -4.0896
# 5 -4.7564 -6.6018 -4.4796 0.0000 39.8516 0.0000
# 6 0.0000 0.0000 0.0000 -4.0896 0.0000 24.4853
#
#
#
# Elastic Compliance Matrix: (Units=1/GPa)
#
#
# Indices 1 2 3 4 5 6 
#
# 1 0.018132 -0.004475 -0.003136 0.000000 0.001070 0.000000
# 2 -0.004475 0.027622 -0.000564 0.000000 0.003978 0.000000
# 3 -0.003136 -0.000564 0.010225 0.000000 0.000682 0.000000
# 4 0.000000 0.000000 0.000000 0.031902 0.000000 0.005328
# 5 0.001070 0.003978 0.000682 0.000000 0.025956 0.000000
# 6 0.000000 0.000000 0.000000 0.005328 0.000000 0.041731
#
#
# Mechanical properties :
#
#
# Convention : Reuss Voigt Hill
#
# Bulk Modulus (GPa) = 25.23434 30.99055 28.11244
# Shear Modulus (GPa) = 27.00848 30.49277 28.75063
#
# Velocity S-wave (km/s) = 3.52375 3.74416 3.63563
# Velocity P-wave (km/s) = 5.30632 5.73926 5.52703
#
# Compressibility (1/GPa) = 0.03962855
#
# Stress axis : x y z
#
# Youngs Moduli (GPa) = 55.15249 36.20332 97.80002
#
# Poissons Ratio (x) = 0.16203 0.30667
# Poissons Ratio (y) = 0.24683 0.05513
# Poissons Ratio (z) = 0.17294 0.02041
#
# Static dielectric constant tensor:
#      x y z
#    x 1.738450 0.000000 0.076470 
#    y 0.000000 1.829540 0.000000 
#    z 0.076470 0.000000 1.879400 
# 
# From -- ./inp_files/224658.got.cif
#   From: 2010.05.17/outbox.cif.g08.bks.cpg/sg15_113_cif.got.tgz:224658.got - 2010.06.03 18:47:42.
