data_PCOD9295783
_publ_section_title
;
Structure prediction by ZEFSAII (Michael W. Deem and Ramdas Pophale) SiO2 
 PCOD9295783
Probable space group: C 2/C
;
_chemical_formula_sum "Si O2"
_cell_formula_units_Z 36
_cell_length_a 9.326986
_cell_length_b 22.132946
_cell_length_c 16.547312
_cell_angle_alpha 90.000000
_cell_angle_beta 27.624110
_cell_angle_gamma 90.000000
_cell_volume 1583.857039
_symmetry_space_group_name_H-M "C 2/C"
_symmetry_group_IT_number 15
_symmetry_cell_setting 'monoclinic'
loop_
_space_group_symop_operation_xyz
x,y,z
-x,y,1/2-z
-x,-y,-z
x,-y,1/2+z
1/2+x,1/2+y,z
1/2-x,1/2+y,1/2-z
1/2-x,1/2-y,-z
1/2+x,1/2-y,1/2+z
loop_
_atom_site_type_symbol
_atom_site_label
_atom_site_fract_x
_atom_site_fract_y
_atom_site_fract_z
Si Si1 0.500000 0.151276 0.250000
Si Si2 0.268350 0.217677 0.217536
Si Si3 0.429272 0.824282 0.460024
Si Si4 0.588845 0.963055 0.034887
Si Si5 0.341426 0.459800 0.645743
O O1 0.497300 0.193212 0.172375
O O2 0.232315 0.103706 0.359829
O O3 0.928172 0.184758 0.390378
O O4 0.163820 0.286101 0.287720
O O5 0.414354 0.204237 0.057484
O O6 0.525944 0.894141 0.413723
O O7 0.450379 0.003180 0.176139
O O8 0.945578 0.955013 0.881013
O O9 0.500000 0.000000 0.000000
O O10 0.500000 0.500000 0.500000
#
# Coordination Sequence:
#
# PCOD9295783 Si02
#       5
#     4   8   8   8   8
#     4  12  22  42  68  98 146 180 232 300 346 414
#     4  10  23  43  69  94 136 184 236 292 352 414
#     4  10  23  45  68  98 135 187 237 289 354 424
#     4  12  25  45  73 103 142 185 235 292 358 423
#     4  12  25  44  67 105 141 187 231 292 357 425
#
# _framework density 22.729324999999999
#
# number of rings (size 3 to 8) (size 9 to 14) (size 15 to 20)
#    0.000    0.889    4.444    2.000    3.111    2.667 
#   12.000    0.000    0.000    0.000    0.000    0.000 
#    0.000    0.000    0.000    0.000    0.000    0.000 
#
# Total GULP energy -100507.428647 kJ/mol
# GULP energy per Si atom -5583.746036 kJ/mol
# Density = 2.267759 g / cm^3
# Si number density = 22.729325 Si / 1000 Ang^3
#
#
#
# Elastic Constant Matrix: (Units=GPa)
#
#
# Indices 1 2 3 4 5 6 
#
# 1 168.9537 41.6873 18.6351 -0.0322 -17.6306 -0.0091
# 2 41.6873 140.2614 2.7755 0.0432 -9.8478 0.0153
# 3 18.6351 2.7755 30.1199 0.1223 -3.6281 0.0410
# 4 -0.0322 0.0432 0.1223 -8.3605 0.0615 -9.1962
# 5 -17.6306 -9.8478 -3.6281 0.0615 26.8574 0.0087
# 6 -0.0091 0.0153 0.0410 -9.1962 0.0087 44.2948
#
#
#
# Elastic Compliance Matrix: (Units=1/GPa)
#
#
# Indices 1 2 3 4 5 6 
#
# 1 0.007154 -0.001803 -0.003836 -0.000059 0.003517 -0.000007
# 2 -0.001803 0.007776 0.000610 0.000060 0.001750 0.000008
# 3 -0.003836 0.000610 0.035822 0.000487 0.002543 0.000066
# 4 -0.000059 0.000060 0.000487 -0.097365 0.000278 -0.020215
# 5 0.003517 0.001750 0.002543 0.000278 0.040527 0.000048
# 6 -0.000007 0.000008 0.000066 -0.020215 0.000048 0.018379
#
#
# Mechanical properties :
#
#
# Convention : Reuss Voigt Hill
#
# Bulk Modulus (GPa) = 24.57438 51.72566 38.15002
# Shear Modulus (GPa) = 139.21230 30.97417 85.09323
#
# Velocity S-wave (km/s) = 7.83459 3.69554 6.12527
# Velocity P-wave (km/s) = 9.62686 6.40437 8.17595
#
# Compressibility (1/GPa) = 0.04069279
#
# Stress axis : x y z
#
# Youngs Moduli (GPa) = 139.78572 128.59609 27.91578
#
# Poissons Ratio (x) = 0.23190 0.10708
# Poissons Ratio (y) = 0.25208 -0.01702
# Poissons Ratio (z) = 0.53621 -0.07840
#
# Static dielectric constant tensor:
#      x y z
#    x 1.871310 -0.000030 -0.077280 
#    y -0.000030 1.741680 0.000020 
#    z -0.077280 0.000020 1.886600 
# 
# From -- ./inp_files/23873.got.cif
#   From: 2010.05.17/outbox.cif.g08.bks.cpg/sg15_12_cif.got.tgz:23873.got - 2010.06.03 18:47:42.
