data_PCOD9295078
_publ_section_title
;
Structure prediction by ZEFSAII (Michael W. Deem and Ramdas Pophale) SiO2 
 PCOD9295078
Probable space group: C 2/C
;
_chemical_formula_sum "Si O2"
_cell_formula_units_Z 48
_cell_length_a 18.126222
_cell_length_b 5.169514
_cell_length_c 22.021577
_cell_angle_alpha 90.000000
_cell_angle_beta 115.067349
_cell_angle_gamma 90.000000
_cell_volume 1869.143842
_symmetry_space_group_name_H-M "C 2/C"
_symmetry_group_IT_number 15
_symmetry_cell_setting 'monoclinic'
loop_
_space_group_symop_operation_xyz
x,y,z
-x,y,1/2-z
-x,-y,-z
x,-y,1/2+z
1/2+x,1/2+y,z
1/2-x,1/2+y,1/2-z
1/2-x,1/2-y,-z
1/2+x,1/2-y,1/2+z
loop_
_atom_site_type_symbol
_atom_site_label
_atom_site_fract_x
_atom_site_fract_y
_atom_site_fract_z
Si Si1 0.059021 0.066467 0.885992
Si Si2 0.204912 0.319211 0.880464
Si Si3 0.787022 0.019304 0.233707
Si Si4 0.582836 0.779500 0.279611
Si Si5 0.459881 0.754708 0.954850
Si Si6 0.675612 0.654526 0.515717
O O1 0.137521 0.249376 0.906521
O O2 0.986128 0.214535 0.893808
O O3 0.053444 0.931594 0.818976
O O4 0.098537 0.853171 0.944150
O O5 0.219104 0.093199 0.836817
O O6 0.159120 0.553185 0.829925
O O7 0.287577 0.394404 0.942196
O O8 0.730136 0.260595 0.233021
O O9 0.621483 0.640871 0.234111
O O10 0.500000 0.949613 0.250000
O O11 0.364864 0.777944 0.938337
O O12 0.500000 0.500000 0.000000
O O13 0.500000 0.000000 0.000000
O O14 0.750000 0.750000 0.500000
#
# Coordination Sequence:
#
# PCOD9295078 Si02
#       6
#     8   8   8   8   8   8
#     4  10  23  43  67  99 144 180 233 287 359 425
#     4  11  23  42  74 110 138 186 241 294 365 424
#     4  11  24  49  73 101 145 183 246 305 357 428
#     4  11  25  46  71 101 141 195 241 294 355 432
#     4  10  23  42  64 100 139 179 224 274 342 418
#     4  11  21  41  74 104 142 184 229 296 355 425
#
# _framework density 25.680208
#
# number of rings (size 3 to 8) (size 9 to 14) (size 15 to 20)
#    0.000    1.333    3.333    1.500    2.333    5.333 
#    0.000    0.000    0.000    0.000    0.000    0.000 
#    0.000    0.000    0.000    0.000    0.000    0.000 
#
# Total GULP energy -133840.763135 kJ/mol
# GULP energy per Si atom -5576.698464 kJ/mol
# Density = 2.562176 g / cm^3
# Si number density = 25.680208 Si / 1000 Ang^3
#
#
#
# Elastic Constant Matrix: (Units=GPa)
#
#
# Indices 1 2 3 4 5 6 
#
# 1 195.7803 42.3433 38.5258 -0.0001 -46.7198 0.0001
# 2 42.3433 127.5718 15.9308 0.0000 -11.5364 0.0009
# 3 38.5258 15.9308 57.5576 0.0001 -7.7106 0.0000
# 4 -0.0001 0.0000 0.0001 37.6509 -0.0001 -7.5701
# 5 -46.7198 -11.5364 -7.7106 -0.0001 38.5952 -0.0001
# 6 0.0001 0.0009 0.0000 -7.5701 -0.0001 42.5942
#
#
#
# Elastic Compliance Matrix: (Units=1/GPa)
#
#
# Indices 1 2 3 4 5 6 
#
# 1 0.008315 -0.001464 -0.003977 0.000000 0.008833 0.000000
# 2 -0.001464 0.008535 -0.001313 0.000000 0.000516 0.000000
# 3 -0.003977 -0.001313 0.020244 0.000000 -0.001162 0.000000
# 4 0.000000 0.000000 0.000000 0.027544 0.000000 0.004895
# 5 0.008833 0.000516 -0.001162 0.000000 0.036525 0.000000
# 6 0.000000 0.000000 0.000000 0.004895 0.000000 0.024347
#
#
# Mechanical properties :
#
#
# Convention : Reuss Voigt Hill
#
# Bulk Modulus (GPa) = 42.39968 63.83437 53.11703
# Shear Modulus (GPa) = 34.04127 42.70872 38.37500
#
# Velocity S-wave (km/s) = 3.64481 4.08253 3.86986
# Velocity P-wave (km/s) = 5.85315 6.86543 6.37940
#
# Compressibility (1/GPa) = 0.02358508
#
# Stress axis : x y z
#
# Youngs Moduli (GPa) = 120.26538 117.15825 49.39845
#
# Poissons Ratio (x) = 0.17157 0.19645
# Poissons Ratio (y) = 0.17612 0.06486
# Poissons Ratio (z) = 0.47828 0.15384
#
# Static dielectric constant tensor:
#      x y z
#    x 2.118540 0.000000 0.012200 
#    y 0.000000 2.107010 0.000000 
#    z 0.012200 0.000000 2.274740 
# 
# From -- ./inp_files/275893.got.cif
#   From: 2010.05.17/outbox.cif.g08.bks.cpg/sg15_138_cif.got.tgz:275893.got - 2010.06.03 18:47:42.
