data_PCOD9295190
_publ_section_title
;
Structure prediction by ZEFSAII (Michael W. Deem and Ramdas Pophale) SiO2 
 PCOD9295190
Probable space group: C 2/C
;
_chemical_formula_sum "Si O2"
_cell_formula_units_Z 40
_cell_length_a 19.820550
_cell_length_b 4.817357
_cell_length_c 21.217519
_cell_angle_alpha 90.000000
_cell_angle_beta 70.054633
_cell_angle_gamma 90.000000
_cell_volume 1904.388061
_symmetry_space_group_name_H-M "C 2/C"
_symmetry_group_IT_number 15
_symmetry_cell_setting 'monoclinic'
loop_
_space_group_symop_operation_xyz
x,y,z
-x,y,1/2-z
-x,-y,-z
x,-y,1/2+z
1/2+x,1/2+y,z
1/2-x,1/2+y,1/2-z
1/2-x,1/2-y,-z
1/2+x,1/2-y,1/2+z
loop_
_atom_site_type_symbol
_atom_site_label
_atom_site_fract_x
_atom_site_fract_y
_atom_site_fract_z
Si Si1 0.545992 0.801026 0.939144
Si Si2 0.403278 0.553963 0.962603
Si Si3 0.184329 0.575126 0.551377
Si Si4 0.173027 0.435470 0.324214
Si Si5 0.235472 0.561661 0.672540
O O1 0.483400 0.649584 0.920668
O O2 0.599872 0.972434 0.879312
O O3 0.588821 0.587333 0.970818
O O4 0.500000 0.000000 0.000000
O O5 0.377275 0.307014 0.926496
O O6 0.347541 0.811606 0.976655
O O7 0.250000 0.750000 0.500000
O O8 0.207025 0.483506 0.613412
O O9 0.179331 0.481083 0.247222
O O10 0.195689 0.122447 0.330989
O O11 0.236177 0.623637 0.334770
#
# Coordination Sequence:
#
# PCOD9295190 Si02
#       5
#     8   8   8   8   8
#     4  11  24  41  68  91 129 166 218 266 310 385
#     4  11  25  40  61 100 125 168 210 263 329 375
#     4  12  24  39  65  96 135 164 209 269 325 378
#     4  10  23  42  67  92 123 169 220 259 314 382
#     4  10  23  42  66  94 126 169 211 265 322 374
#
# _framework density 21.004121999999999
#
# number of rings (size 3 to 8) (size 9 to 14) (size 15 to 20)
#    0.000    1.200    2.000    3.000    8.400    0.000 
#    0.000    1.000    4.400    0.000    0.000    0.000 
#    0.000    0.000    0.000    0.000    0.000    0.000 
#
# Total GULP energy -111821.492976 kJ/mol
# GULP energy per Si atom -5591.074649 kJ/mol
# Density = 2.095632 g / cm^3
# Si number density = 21.004122 Si / 1000 Ang^3
#
#
#
# Elastic Constant Matrix: (Units=GPa)
#
#
# Indices 1 2 3 4 5 6 
#
# 1 86.0962 24.6731 67.6255 0.0284 9.0478 -0.0074
# 2 24.6731 97.5578 31.0870 0.0366 4.7512 -0.0323
# 3 67.6255 31.0870 141.1669 0.0303 -16.5074 -0.0106
# 4 0.0284 0.0366 0.0303 27.7819 -0.0115 2.9080
# 5 9.0478 4.7512 -16.5074 -0.0115 31.1353 0.0187
# 6 -0.0074 -0.0323 -0.0106 2.9080 0.0187 52.2585
#
#
#
# Elastic Compliance Matrix: (Units=1/GPa)
#
#
# Indices 1 2 3 4 5 6 
#
# 1 0.022945 -0.001276 -0.012225 -0.000014 -0.012954 0.000005
# 2 -0.001276 0.011396 -0.002194 -0.000013 -0.002531 0.000008
# 3 -0.012225 -0.002194 0.014795 0.000005 0.011732 -0.000005
# 4 -0.000014 -0.000013 0.000005 0.036206 0.000023 -0.002015
# 5 -0.012954 -0.002531 0.011732 0.000023 0.042489 -0.000018
# 6 0.000005 0.000008 -0.000005 -0.002015 -0.000018 0.019248
#
#
# Mechanical properties :
#
#
# Convention : Reuss Voigt Hill
#
# Bulk Modulus (GPa) = 56.35669 63.51022 59.93346
# Shear Modulus (GPa) = 27.11742 35.66417 31.39079
#
# Velocity S-wave (km/s) = 3.59702 4.12510 3.87008
# Velocity P-wave (km/s) = 6.64386 7.27951 6.96894
#
# Compressibility (1/GPa) = 0.01774412
#
# Stress axis : x y z
#
# Youngs Moduli (GPa) = 43.58325 87.75354 67.58906
#
# Poissons Ratio (x) = 0.11200 0.82630
# Poissons Ratio (y) = 0.05563 0.14829
# Poissons Ratio (z) = 0.53282 0.19254
#
# Static dielectric constant tensor:
#      x y z
#    x 1.787380 -0.000030 -0.005170 
#    y -0.000030 1.800880 -0.000040 
#    z -0.005170 -0.000040 1.741420 
# 
# From -- ./inp_files/246203.got.cif
#   From: 2010.05.17/outbox.cif.g08.bks.cpg/sg15_124_cif.got.tgz:246203.got - 2010.06.03 18:47:42.
