data_PCOD9295949
_publ_section_title
;
Structure prediction by ZEFSAII (Michael W. Deem and Ramdas Pophale) SiO2 
 PCOD9295949
Probable space group: C 2/C
;
_chemical_formula_sum "Si O2"
_cell_formula_units_Z 32
_cell_length_a 11.724406
_cell_length_b 14.271482
_cell_length_c 13.235823
_cell_angle_alpha 90.000000
_cell_angle_beta 144.966491
_cell_angle_gamma 90.000000
_cell_volume 1271.348721
_symmetry_space_group_name_H-M "C 2/C"
_symmetry_group_IT_number 15
_symmetry_cell_setting 'monoclinic'
loop_
_space_group_symop_operation_xyz
x,y,z
-x,y,1/2-z
-x,-y,-z
x,-y,1/2+z
1/2+x,1/2+y,z
1/2-x,1/2+y,1/2-z
1/2-x,1/2-y,-z
1/2+x,1/2-y,1/2+z
loop_
_atom_site_type_symbol
_atom_site_label
_atom_site_fract_x
_atom_site_fract_y
_atom_site_fract_z
Si Si1 0.364803 0.186020 0.324357
Si Si2 0.332311 0.947409 0.984189
Si Si3 0.226422 0.007342 0.127846
Si Si4 0.696400 0.642618 0.829749
O O1 0.318186 0.142144 0.400846
O O2 0.311300 0.294436 0.276052
O O3 0.597784 0.174710 0.472099
O O4 0.262232 0.119980 0.165575
O O5 0.239114 0.957175 0.027641
O O6 0.566408 0.970153 0.170784
O O7 0.777900 0.968552 0.154793
O O8 0.000000 0.000000 0.000000
O O9 0.500000 0.663042 0.750000
#
# Coordination Sequence:
#
# PCOD9295949 Si02
#       4
#     8   8   8   8
#     4  11  26  43  70 110 147 180 245 300 355 427
#     4  10  25  45  71 110 143 186 243 295 361 428
#     4  10  23  43  75 105 139 189 244 294 363 422
#     4  11  25  42  71 110 140 190 245 298 348 424
#
# _framework density 25.170119
#
# number of rings (size 3 to 8) (size 9 to 14) (size 15 to 20)
#    0.000    1.500    0.000    3.750   17.500    0.000 
#    0.000    0.000    0.000   39.000    0.000    0.000 
#    0.000    0.000    0.000    0.000    0.000    0.000 
#
# Total GULP energy -89352.507247 kJ/mol
# GULP energy per Si atom -5584.531703 kJ/mol
# Density = 2.511283 g / cm^3
# Si number density = 25.170119 Si / 1000 Ang^3
#
#
#
# Elastic Constant Matrix: (Units=GPa)
#
#
# Indices 1 2 3 4 5 6 
#
# 1 186.3839 46.2497 65.7632 0.0001 13.7673 -0.0003
# 2 46.2497 95.4681 78.1829 -0.0011 -16.3659 -0.0004
# 3 65.7632 78.1829 159.3347 -0.0023 26.3965 -0.0007
# 4 0.0001 -0.0011 -0.0023 46.0556 -0.0001 -22.4335
# 5 13.7673 -16.3659 26.3965 -0.0001 50.1950 -0.0002
# 6 -0.0003 -0.0004 -0.0007 -22.4335 -0.0002 36.3978
#
#
#
# Elastic Compliance Matrix: (Units=1/GPa)
#
#
# Indices 1 2 3 4 5 6 
#
# 1 0.006556 -0.002704 -0.001024 0.000000 -0.002141 0.000000
# 2 -0.002704 0.027194 -0.015138 0.000000 0.017569 0.000000
# 3 -0.001024 -0.015138 0.016320 0.000001 -0.013237 0.000001
# 4 0.000000 0.000000 0.000001 0.031028 0.000000 0.019124
# 5 -0.002141 0.017569 -0.013237 0.000000 0.033199 0.000000
# 6 0.000000 0.000000 0.000001 0.019124 0.000000 0.039261
#
#
# Mechanical properties :
#
#
# Convention : Reuss Voigt Hill
#
# Bulk Modulus (GPa) = 81.06082 91.28649 86.17365
# Shear Modulus (GPa) = 25.58825 43.26241 34.42533
#
# Velocity S-wave (km/s) = 3.19189 4.15034 3.70226
# Velocity P-wave (km/s) = 6.77195 7.70153 7.25165
#
# Compressibility (1/GPa) = 0.01233642
#
# Stress axis : x y z
#
# Youngs Moduli (GPa) = 152.53547 36.77316 61.27601
#
# Poissons Ratio (x) = 0.09945 0.06275
# Poissons Ratio (y) = 0.41252 0.92759
# Poissons Ratio (z) = 0.15621 0.55667
#
# Static dielectric constant tensor:
#      x y z
#    x 2.171450 0.000000 -0.108620 
#    y 0.000000 2.042390 0.000000 
#    z -0.108620 0.000000 1.978250 
# 
# From -- ./inp_files/198480.got.cif
#   From: 2010.05.17/outbox.cif.g08.bks.cpg/sg15_100_cif.got.tgz:198480.got - 2010.06.03 18:47:42.
