data_PCOD9295972
_publ_section_title
;
Structure prediction by ZEFSAII (Michael W. Deem and Ramdas Pophale) SiO2 
 PCOD9295972
Probable space group: C 2/C
;
_chemical_formula_sum "Si O2"
_cell_formula_units_Z 48
_cell_length_a 15.216199
_cell_length_b 18.230335
_cell_length_c 19.041393
_cell_angle_alpha 90.000000
_cell_angle_beta 151.351417
_cell_angle_gamma 90.000000
_cell_volume 2532.388477
_symmetry_space_group_name_H-M "C 2/C"
_symmetry_group_IT_number 15
_symmetry_cell_setting 'monoclinic'
loop_
_space_group_symop_operation_xyz
x,y,z
-x,y,1/2-z
-x,-y,-z
x,-y,1/2+z
1/2+x,1/2+y,z
1/2-x,1/2+y,1/2-z
1/2-x,1/2-y,-z
1/2+x,1/2-y,1/2+z
loop_
_atom_site_type_symbol
_atom_site_label
_atom_site_fract_x
_atom_site_fract_y
_atom_site_fract_z
Si Si1 0.505959 0.413303 0.926185
Si Si2 0.445454 0.840667 0.396306
Si Si3 0.412489 0.422526 0.351339
Si Si4 0.331388 0.170738 0.577344
Si Si5 0.806591 0.294041 0.800908
Si Si6 0.946938 0.213100 0.633578
O O1 0.466123 0.494898 0.870594
O O2 0.323127 0.364208 0.795732
O O3 0.566795 0.416654 0.050101
O O4 0.667708 0.375311 0.996416
O O5 0.297502 0.901640 0.313786
O O6 0.589581 0.864683 0.438673
O O7 0.325363 0.775266 0.277294
O O8 0.548961 0.806957 0.535689
O O9 0.536388 0.360269 0.401542
O O10 0.500000 0.176956 0.750000
O O11 0.250000 0.250000 0.500000
O O12 0.913787 0.270689 0.805552
O O13 0.750000 0.250000 0.500000
O O14 0.000000 0.194579 0.750000
#
# Coordination Sequence:
#
# PCOD9295972 Si02
#       6
#     8   8   8   8   8   8
#     4  11  23  42  63  91 130 168 208 258 320 385
#     4  11  21  39  64  95 128 162 211 257 314 378
#     4  10  23  44  62  86 129 171 205 260 318 373
#     4  12  23  38  64  99 123 160 211 259 312 375
#     4  11  22  39  67  92 122 169 206 261 323 369
#     4  11  22  41  64  90 119 159 216 264 302 367
#
# _framework density 18.954436999999999
#
# number of rings (size 3 to 8) (size 9 to 14) (size 15 to 20)
#    0.000    1.000    3.333    6.000    0.000    0.667 
#    6.000    0.833    0.000    0.000    0.000    0.000 
#    0.000    0.000    0.000    0.000    0.000    0.000 
#
# Total GULP energy -134121.175322 kJ/mol
# GULP energy per Si atom -5588.382305 kJ/mol
# Density = 1.891130 g / cm^3
# Si number density = 18.954437 Si / 1000 Ang^3
#
#
#
# Elastic Constant Matrix: (Units=GPa)
#
#
# Indices 1 2 3 4 5 6 
#
# 1 130.9732 61.6031 26.9810 -0.0008 21.3091 -0.0021
# 2 61.6031 140.2436 51.4423 0.0053 27.5656 0.0021
# 3 26.9810 51.4423 87.3869 0.0032 10.8211 0.0000
# 4 -0.0008 0.0053 0.0032 17.3271 0.0048 -4.7188
# 5 21.3091 27.5656 10.8211 0.0048 35.5912 0.0014
# 6 -0.0021 0.0021 0.0000 -4.7188 0.0014 25.7453
#
#
#
# Elastic Compliance Matrix: (Units=1/GPa)
#
#
# Indices 1 2 3 4 5 6 
#
# 1 0.009915 -0.003543 -0.000603 0.000003 -0.003009 0.000002
# 2 -0.003543 0.011592 -0.005072 -0.000002 -0.005315 -0.000001
# 3 -0.000603 -0.005072 0.014635 -0.000001 -0.000160 0.000000
# 4 0.000003 -0.000002 -0.000001 0.060745 -0.000009 0.011134
# 5 -0.003009 -0.005315 -0.000160 -0.000009 0.034064 -0.000003
# 6 0.000002 -0.000001 0.000000 0.011134 -0.000003 0.040883
#
#
# Mechanical properties :
#
#
# Convention : Reuss Voigt Hill
#
# Bulk Modulus (GPa) = 56.47590 70.96184 63.71887
# Shear Modulus (GPa) = 25.48798 30.30455 27.89627
#
# Velocity S-wave (km/s) = 3.67099 4.00285 3.84051
# Velocity P-wave (km/s) = 6.91582 7.67354 7.30451
#
# Compressibility (1/GPa) = 0.01770667
#
# Stress axis : x y z
#
# Youngs Moduli (GPa) = 100.85432 86.26994 68.32897
#
# Poissons Ratio (x) = 0.30562 0.04122
# Poissons Ratio (y) = 0.35728 0.34655
# Poissons Ratio (z) = 0.06085 0.43754
#
# Static dielectric constant tensor:
#      x y z
#    x 1.665880 0.000000 0.006780 
#    y 0.000000 1.645950 0.000000 
#    z 0.006780 0.000000 1.651400 
# 
# From -- ./inp_files/206499.got.cif
#   From: 2010.05.17/outbox.cif.g08.bks.cpg/sg15_104_cif.got.tgz:206499.got - 2010.06.03 18:47:42.
