data_PCOD9295593
_publ_section_title
;
Structure prediction by ZEFSAII (Michael W. Deem and Ramdas Pophale) SiO2 
 PCOD9295593
Probable space group: C 2/C
;
_chemical_formula_sum "Si O2"
_cell_formula_units_Z 64
_cell_length_a 18.757396
_cell_length_b 28.264574
_cell_length_c 8.602645
_cell_angle_alpha 90.000000
_cell_angle_beta 139.239549
_cell_angle_gamma 90.000000
_cell_volume 2977.777754
_symmetry_space_group_name_H-M "C 2/C"
_symmetry_group_IT_number 15
_symmetry_cell_setting 'monoclinic'
loop_
_space_group_symop_operation_xyz
x,y,z
-x,y,1/2-z
-x,-y,-z
x,-y,1/2+z
1/2+x,1/2+y,z
1/2-x,1/2+y,1/2-z
1/2-x,1/2-y,-z
1/2+x,1/2-y,1/2+z
loop_
_atom_site_type_symbol
_atom_site_label
_atom_site_fract_x
_atom_site_fract_y
_atom_site_fract_z
Si Si1 0.894237 0.228085 0.492315
Si Si2 0.498506 0.556276 0.970568
Si Si3 0.563377 0.041223 0.017725
Si Si4 0.303145 0.430357 0.944858
Si Si5 0.768751 0.671832 0.075140
Si Si6 0.708800 0.178150 0.755068
Si Si7 0.988708 0.645839 0.544414
Si Si8 0.068353 0.844500 0.718570
O O1 0.817152 0.208746 0.501385
O O2 0.820328 0.266217 0.281428
O O3 0.936935 0.186530 0.447941
O O4 0.000000 0.250111 0.750000
O O5 0.526929 0.601611 0.125214
O O6 0.500000 0.500000 0.000000
O O7 0.598338 0.562490 0.013021
O O8 0.371191 0.562717 0.715002
O O9 0.500000 0.043439 0.750000
O O10 0.544666 0.092749 0.059992
O O11 0.696039 0.037763 0.234187
O O12 0.500000 0.000000 0.000000
O O13 0.264319 0.376375 0.889430
O O14 0.892646 0.680797 0.332934
O O15 0.767256 0.667669 0.886800
O O16 0.600023 0.154844 0.640602
O O17 0.807259 0.159240 0.021123
O O18 0.000000 0.648552 0.750000
O O19 0.000000 0.823436 0.750000
#
# Coordination Sequence:
#
# PCOD9295593 Si02
#       8
#     8   8   8   8   8   8   8   8
#     4  12  24  44  71  99 142 188 236 295 361 432
#     4  11  25  44  70 100 137 188 243 299 362 424
#     4  10  24  41  67  97 135 181 226 281 360 424
#     4  10  23  44  68  99 135 186 236 293 358 428
#     4  11  22  44  69  98 141 188 236 293 361 428
#     4  12  26  42  70 104 137 182 238 293 354 431
#     4  10  23  43  65  96 134 181 230 291 355 423
#     4  12  27  45  69 104 142 185 236 301 365 426
#
# _framework density 21.492536999999999
#
# number of rings (size 3 to 8) (size 9 to 14) (size 15 to 20)
#    0.000    1.000    1.250    4.875    7.000    3.500 
#    0.000    0.000    0.000    0.000    0.000    0.000 
#    0.000    0.000    0.000    0.000    0.000    0.000 
#
# Total GULP energy -178481.264941 kJ/mol
# GULP energy per Si atom -5577.539529 kJ/mol
# Density = 2.144362 g / cm^3
# Si number density = 21.492537 Si / 1000 Ang^3
#
#
#
# Elastic Constant Matrix: (Units=GPa)
#
#
# Indices 1 2 3 4 5 6 
#
# 1 108.2264 29.0541 23.4905 0.0000 16.8489 0.0000
# 2 29.0541 71.0814 22.7329 0.0000 2.1978 0.0000
# 3 23.4905 22.7329 148.7375 0.0000 30.3847 0.0000
# 4 0.0000 0.0000 0.0000 -54.6271 0.0000 58.7376
# 5 16.8489 2.1978 30.3847 0.0000 41.2521 0.0000
# 6 0.0000 0.0000 0.0000 58.7376 0.0000 -7.2303
#
#
#
# Elastic Compliance Matrix: (Units=1/GPa)
#
#
# Indices 1 2 3 4 5 6 
#
# 1 0.011097 -0.004329 -0.000250 0.000000 -0.004118 0.000000
# 2 -0.004329 0.016517 -0.002380 0.000000 0.002641 0.000000
# 3 -0.000250 -0.002380 0.008334 0.000000 -0.005909 0.000000
# 4 0.000000 0.000000 0.000000 0.002367 0.000000 0.019226
# 5 -0.004118 0.002641 -0.005909 0.000000 0.030135 0.000000
# 6 0.000000 0.000000 0.000000 0.019226 0.000000 0.017880
#
#
# Mechanical properties :
#
#
# Convention : Reuss Voigt Hill
#
# Bulk Modulus (GPa) = 45.39169 53.17778 49.28473
# Shear Modulus (GPa) = 46.47190 12.73012 29.60101
#
# Velocity S-wave (km/s) = 4.65503 2.43637 3.71518
# Velocity P-wave (km/s) = 7.07517 5.71933 6.43307
#
# Compressibility (1/GPa) = 0.02203047
#
# Stress axis : x y z
#
# Youngs Moduli (GPa) = 90.11219 60.54239 119.99414
#
# Poissons Ratio (x) = 0.26207 0.02997
# Poissons Ratio (y) = 0.39007 0.28564
# Poissons Ratio (z) = 0.02251 0.14412
#
# Static dielectric constant tensor:
#      x y z
#    x 1.792520 0.000000 -0.023070 
#    y 0.000000 1.919250 0.000000 
#    z -0.023070 0.000000 1.875300 
# 
# From -- ./inp_files/52853.got.cif
#   From: 2010.05.17/outbox.cif.g08.bks.cpg/sg15_27_cif.got.tgz:52853.got - 2010.06.03 18:47:42.
