data_PCOD9295170
_publ_section_title
;
Structure prediction by ZEFSAII (Michael W. Deem and Ramdas Pophale) SiO2 
 PCOD9295170
Probable space group: C 2/C
;
_chemical_formula_sum "Si O2"
_cell_formula_units_Z 40
_cell_length_a 16.973434
_cell_length_b 17.807396
_cell_length_c 5.448958
_cell_angle_alpha 90.000000
_cell_angle_beta 94.541200
_cell_angle_gamma 90.000000
_cell_volume 1641.791676
_symmetry_space_group_name_H-M "C 2/C"
_symmetry_group_IT_number 15
_symmetry_cell_setting 'monoclinic'
loop_
_space_group_symop_operation_xyz
x,y,z
-x,y,1/2-z
-x,-y,-z
x,-y,1/2+z
1/2+x,1/2+y,z
1/2-x,1/2+y,1/2-z
1/2-x,1/2-y,-z
1/2+x,1/2-y,1/2+z
loop_
_atom_site_type_symbol
_atom_site_label
_atom_site_fract_x
_atom_site_fract_y
_atom_site_fract_z
Si Si1 0.909439 0.030471 0.674256
Si Si2 0.792044 0.298335 0.209340
Si Si3 0.500000 0.184678 0.250000
Si Si4 0.127438 0.200574 0.917938
Si Si5 0.670328 0.964826 0.356535
Si Si6 0.000000 0.584415 0.750000
O O1 0.909301 0.117899 0.597679
O O2 0.000000 0.005606 0.750000
O O3 0.873514 0.983834 0.436914
O O4 0.863264 0.248851 0.332419
O O5 0.719741 0.313970 0.378466
O O6 0.816509 0.377076 0.107675
O O7 0.750000 0.250000 0.000000
O O8 0.424611 0.241437 0.255738
O O9 0.507886 0.134819 0.501007
O O10 0.575839 0.967975 0.306650
O O11 0.700934 0.008587 0.600053
#
# Coordination Sequence:
#
# PCOD9295170 Si02
#       6
#     8   8   4   8   8   4
#     4  10  23  42  66 102 139 176 228 289 351 409
#     4  11  27  48  71 103 144 191 238 294 348 429
#     4  12  24  43  78 111 132 194 240 296 358 421
#     4  11  25  45  73 102 142 185 243 293 352 424
#     4  12  27  47  73 106 145 190 236 293 360 424
#     4  12  24  45  72 107 150 178 240 298 354 427
#
# _framework density 24.363624999999999
#
# number of rings (size 3 to 8) (size 9 to 14) (size 15 to 20)
#    0.000    0.800    3.000    3.000    8.400    1.600 
#    0.000    0.000    0.000    0.000    0.000    0.000 
#    0.000    0.000    0.000    0.000    0.000    0.000 
#
# Total GULP energy -111732.777718 kJ/mol
# GULP energy per Si atom -5586.638886 kJ/mol
# Density = 2.430817 g / cm^3
# Si number density = 24.363625 Si / 1000 Ang^3
#
#
#
# Elastic Constant Matrix: (Units=GPa)
#
#
# Indices 1 2 3 4 5 6 
#
# 1 47.4786 -10.5593 10.4271 0.0000 1.9645 0.0000
# 2 -10.5593 128.4958 78.3449 0.0000 17.9869 0.0000
# 3 10.4271 78.3449 166.6996 0.0000 20.9143 0.0000
# 4 0.0000 0.0000 0.0000 29.3662 0.0000 -12.3111
# 5 1.9645 17.9869 20.9143 0.0000 28.8010 0.0000
# 6 0.0000 0.0000 0.0000 -12.3111 0.0000 12.8643
#
#
#
# Elastic Compliance Matrix: (Units=1/GPa)
#
#
# Indices 1 2 3 4 5 6 
#
# 1 0.022698 0.003989 -0.003067 0.000000 -0.001812 0.000000
# 2 0.003989 0.011920 -0.005373 0.000000 -0.003815 0.000000
# 3 -0.003067 -0.005373 0.009097 0.000000 -0.003041 0.000000
# 4 0.000000 0.000000 0.000000 0.056868 0.000000 0.054422
# 5 -0.001812 -0.003815 -0.003041 0.000000 0.039436 0.000000
# 6 0.000000 0.000000 0.000000 0.054422 0.000000 0.129816
#
#
# Mechanical properties :
#
#
# Convention : Reuss Voigt Hill
#
# Bulk Modulus (GPa) = 28.72497 55.45547 42.09022
# Shear Modulus (GPa) = 17.22106 31.83706 24.52906
#
# Velocity S-wave (km/s) = 2.66152 3.61882 3.17644
# Velocity P-wave (km/s) = 4.61092 6.34603 5.54674
#
# Compressibility (1/GPa) = 0.03481292
#
# Stress axis : x y z
#
# Youngs Moduli (GPa) = 44.05707 83.89156 109.92063
#
# Poissons Ratio (x) = -0.33464 0.33714
# Poissons Ratio (y) = -0.17574 0.59061
# Poissons Ratio (z) = 0.13513 0.45076
#
# Static dielectric constant tensor:
#      x y z
#    x 0.998660 0.000000 0.176090 
#    y 0.000000 1.837370 0.000000 
#    z 0.176090 0.000000 1.928240 
# 
# From -- ./inp_files/9920.got.cif
#   From: 2010.05.17/outbox.cif.g08.bks.cpg/sg15_5_cif.got.tgz:9920.got - 2010.06.03 18:47:42.
