data_PCOD9295637
_publ_section_title
;
Structure prediction by ZEFSAII (Michael W. Deem and Ramdas Pophale) SiO2 
 PCOD9295637
Probable space group: C 2/C
;
_chemical_formula_sum "Si O2"
_cell_formula_units_Z 44
_cell_length_a 12.236674
_cell_length_b 13.499527
_cell_length_c 12.927102
_cell_angle_alpha 90.000000
_cell_angle_beta 105.404486
_cell_angle_gamma 90.000000
_cell_volume 2058.703309
_symmetry_space_group_name_H-M "C 2/C"
_symmetry_group_IT_number 15
_symmetry_cell_setting 'monoclinic'
loop_
_space_group_symop_operation_xyz
x,y,z
-x,y,1/2-z
-x,-y,-z
x,-y,1/2+z
1/2+x,1/2+y,z
1/2-x,1/2+y,1/2-z
1/2-x,1/2-y,-z
1/2+x,1/2-y,1/2+z
loop_
_atom_site_type_symbol
_atom_site_label
_atom_site_fract_x
_atom_site_fract_y
_atom_site_fract_z
Si Si1 0.128511 0.492210 0.568849
Si Si2 0.500000 0.227222 0.750000
Si Si3 0.777045 0.632364 0.744417
Si Si4 0.015677 0.164475 0.036606
Si Si5 0.584985 0.206070 0.175046
Si Si6 0.178932 0.994076 0.049251
O O1 0.170210 0.590239 0.637991
O O2 0.131829 0.398393 0.646447
O O3 0.212488 0.480599 0.494591
O O4 0.000000 0.500000 0.500000
O O5 0.385762 0.164610 0.704347
O O6 0.477399 0.288419 0.848466
O O7 0.688970 0.722099 0.731916
O O8 0.710015 0.544051 0.671029
O O9 0.979441 0.241430 0.938119
O O10 0.917445 0.080984 0.015425
O O11 0.129087 0.104294 0.037019
O O12 0.500000 0.194110 0.250000
#
# Coordination Sequence:
#
# PCOD9295637 Si02
#       6
#     8   4   8   8   8   8
#     4  12  26  42  68 100 140 179 225 286 341 408
#     4  12  24  42  68 100 136 178 230 274 350 398
#     4  11  25  42  66  99 134 181 221 283 333 411
#     4  10  23  43  70 100 131 180 223 290 327 411
#     4  11  25  45  69 100 139 181 231 277 342 407
#     4  10  23  43  66  99 134 172 233 272 345 394
#
# _framework density 21.372678000000001
#
# number of rings (size 3 to 8) (size 9 to 14) (size 15 to 20)
#    0.000    1.091    0.000    5.455    8.909    2.909 
#    3.273    3.636    0.000    0.000    0.000    0.000 
#    0.000    0.000    0.000    0.000    0.000    0.000 
#
# Total GULP energy -123097.013581 kJ/mol
# GULP energy per Si atom -5595.318799 kJ/mol
# Density = 2.132403 g / cm^3
# Si number density = 21.372678 Si / 1000 Ang^3
#
#
#
# Elastic Constant Matrix: (Units=GPa)
#
#
# Indices 1 2 3 4 5 6 
#
# 1 98.3733 1.8021 22.4929 0.0000 4.4162 0.0000
# 2 1.8021 58.6965 31.9953 0.0000 12.2406 0.0000
# 3 22.4929 31.9953 96.2804 0.0000 7.0925 0.0000
# 4 0.0000 0.0000 0.0000 -39.9500 0.0000 106.5582
# 5 4.4162 12.2406 7.0925 0.0000 39.2642 0.0000
# 6 0.0000 0.0000 0.0000 106.5582 0.0000 -115.6510
#
#
#
# Elastic Compliance Matrix: (Units=1/GPa)
#
#
# Indices 1 2 3 4 5 6 
#
# 1 0.010866 0.001521 -0.002959 0.000000 -0.001162 0.000000
# 2 0.001521 0.022171 -0.007298 0.000000 -0.005764 0.000000
# 3 -0.002959 -0.007298 0.013490 0.000000 0.000171 0.000000
# 4 0.000000 0.000000 0.000000 0.017173 0.000000 0.015823
# 5 -0.001162 -0.005764 0.000171 0.000000 0.027365 0.000000
# 6 0.000000 0.000000 0.000000 0.015823 0.000000 0.005932
#
#
# Mechanical properties :
#
#
# Convention : Reuss Voigt Hill
#
# Bulk Modulus (GPa) = 34.41639 40.65896 37.53768
# Shear Modulus (GPa) = 40.27260 -10.13003 15.07129
#
# Velocity S-wave (km/s) = 4.34557 -2.17945 2.65838
# Velocity P-wave (km/s) = 6.42779 3.56816 5.19848
#
# Compressibility (1/GPa) = 0.02905592
#
# Stress axis : x y z
#
# Youngs Moduli (GPa) = 92.02921 45.10493 74.12770
#
# Poissons Ratio (x) = -0.06862 0.21931
# Poissons Ratio (y) = -0.14001 0.54101
# Poissons Ratio (z) = 0.27227 0.32919
#
# Static dielectric constant tensor:
#      x y z
#    x 1.760970 0.000000 0.023750 
#    y 0.000000 1.816340 0.000000 
#    z 0.023750 0.000000 1.780320 
# 
# From -- ./inp_files/86162.got.cif
#   From: 2010.05.17/outbox.cif.g08.bks.cpg/sg15_44_cif.got.tgz:86162.got - 2010.06.03 18:47:42.
