data_PCOD9295713
_publ_section_title
;
Structure prediction by ZEFSAII (Michael W. Deem and Ramdas Pophale) SiO2 
 PCOD9295713
Probable space group: C 2/C
;
_chemical_formula_sum "Si O2"
_cell_formula_units_Z 52
_cell_length_a 13.380550
_cell_length_b 15.125238
_cell_length_c 12.234571
_cell_angle_alpha 90.000000
_cell_angle_beta 121.599717
_cell_angle_gamma 90.000000
_cell_volume 2108.951677
_symmetry_space_group_name_H-M "C 2/C"
_symmetry_group_IT_number 15
_symmetry_cell_setting 'monoclinic'
loop_
_space_group_symop_operation_xyz
x,y,z
-x,y,1/2-z
-x,-y,-z
x,-y,1/2+z
1/2+x,1/2+y,z
1/2-x,1/2+y,1/2-z
1/2-x,1/2-y,-z
1/2+x,1/2-y,1/2+z
loop_
_atom_site_type_symbol
_atom_site_label
_atom_site_fract_x
_atom_site_fract_y
_atom_site_fract_z
Si Si1 0.143693 0.773937 0.696670
Si Si2 0.193556 0.597991 0.098341
Si Si3 0.500000 0.607303 0.250000
Si Si4 0.500000 0.689877 0.750000
Si Si5 0.032963 0.669928 0.452643
Si Si6 0.827704 0.050548 0.722024
Si Si7 0.280449 0.108011 0.629538
Si Si8 0.000000 0.523763 0.250000
O O1 0.246644 0.847237 0.767578
O O2 0.023475 0.823444 0.662942
O O3 0.135014 0.716254 0.581939
O O4 0.175800 0.702595 0.806394
O O5 0.201539 0.492656 0.122770
O O6 0.063490 0.636155 0.016288
O O7 0.254732 0.614341 0.016743
O O8 0.594121 0.534211 0.262527
O O9 0.508112 0.749721 0.648093
O O10 0.384813 0.628000 0.684483
O O11 0.036951 0.588861 0.369998
O O12 0.820997 0.077451 0.844794
O O13 0.387174 0.038543 0.701503
#
# Coordination Sequence:
#
# PCOD9295713 Si02
#       8
#     8   8   4   4   8   8   8   4
#     4  11  24  42  71 101 138 191 238 296 358 431
#     4  11  24  44  70 106 142 189 240 300 365 434
#     4   9  21  43  65  98 140 182 239 291 359 407
#     4  10  24  46  70 100 140 196 236 304 360 418
#     4  11  24  47  72 100 154 183 248 296 365 433
#     4  10  23  43  68 102 139 183 243 292 363 425
#     4  12  24  42  71 104 145 180 246 295 364 436
#     4  11  25  43  71 108 140 200 229 311 363 429
#
# _framework density 24.656801000000002
#
# number of rings (size 3 to 8) (size 9 to 14) (size 15 to 20)
#    0.000    1.231    1.538    3.692    2.154    7.385 
#    0.000   10.000    0.000    0.000    0.000    0.000 
#    0.000    0.000    0.000    0.000    0.000    0.000 
#
# Total GULP energy -144983.822867 kJ/mol
# GULP energy per Si atom -5576.300879 kJ/mol
# Density = 2.460068 g / cm^3
# Si number density = 24.656801 Si / 1000 Ang^3
#
#
#
# Elastic Constant Matrix: (Units=GPa)
#
#
# Indices 1 2 3 4 5 6 
#
# 1 91.0163 40.7980 20.6793 0.0000 -11.6057 0.0000
# 2 40.7980 112.7044 2.4298 0.0000 -3.9597 0.0000
# 3 20.6793 2.4298 50.2628 0.0000 -21.8617 0.0000
# 4 0.0000 0.0000 0.0000 207.6123 0.0000 403.3429
# 5 -11.6057 -3.9597 -21.8617 0.0000 20.7057 0.0000
# 6 0.0000 0.0000 0.0000 403.3429 0.0000 1015.2255
#
#
#
# Elastic Compliance Matrix: (Units=1/GPa)
#
#
# Indices 1 2 3 4 5 6 
#
# 1 0.014660 -0.005128 -0.004875 0.000000 0.002089 0.000000
# 2 -0.005128 0.010736 0.002281 0.000000 0.001587 0.000000
# 3 -0.004875 0.002281 0.038449 0.000000 0.038300 0.000000
# 4 0.000000 0.000000 0.000000 0.021112 0.000000 -0.008388
# 5 0.002089 0.001587 0.038300 0.000000 0.090208 0.000000
# 6 0.000000 0.000000 0.000000 -0.008388 0.000000 0.004317
#
#
# Mechanical properties :
#
#
# Convention : Reuss Voigt Hill
#
# Bulk Modulus (GPa) = 20.66065 42.42198 31.54131
# Shear Modulus (GPa) = 23.69007 261.38046 142.53527
#
# Velocity S-wave (km/s) = 3.10303 10.30716 7.61139
# Velocity P-wave (km/s) = 4.60824 12.60525 9.49021
#
# Compressibility (1/GPa) = 0.04840119
#
# Stress axis : x y z
#
# Youngs Moduli (GPa) = 68.21413 93.14693 26.00846
#
# Poissons Ratio (x) = 0.47768 0.12678
# Poissons Ratio (y) = 0.34982 -0.05933
# Poissons Ratio (z) = 0.33253 -0.21250
#
# Static dielectric constant tensor:
#      x y z
#    x 2.138070 0.000000 0.151080 
#    y 0.000000 1.892930 0.000000 
#    z 0.151080 0.000000 2.012120 
# 
# From -- ./inp_files/97148.got.cif
#   From: 2010.05.17/outbox.cif.g08.bks.cpg/sg15_49_cif.got.tgz:97148.got - 2010.06.03 18:47:42.
