data_PCOD9295638
_publ_section_title
;
Structure prediction by ZEFSAII (Michael W. Deem and Ramdas Pophale) SiO2 
 PCOD9295638
Probable space group: C 2/C
;
_chemical_formula_sum "Si O2"
_cell_formula_units_Z 40
_cell_length_a 13.182821
_cell_length_b 12.853930
_cell_length_c 8.598408
_cell_angle_alpha 90.000000
_cell_angle_beta 87.968403
_cell_angle_gamma 90.000000
_cell_volume 1456.093502
_symmetry_space_group_name_H-M "C 2/C"
_symmetry_group_IT_number 15
_symmetry_cell_setting 'monoclinic'
loop_
_space_group_symop_operation_xyz
x,y,z
-x,y,1/2-z
-x,-y,-z
x,-y,1/2+z
1/2+x,1/2+y,z
1/2-x,1/2+y,1/2-z
1/2-x,1/2-y,-z
1/2+x,1/2-y,1/2+z
loop_
_atom_site_type_symbol
_atom_site_label
_atom_site_fract_x
_atom_site_fract_y
_atom_site_fract_z
Si Si1 0.808150 0.054052 0.251282
Si Si2 0.393245 0.804470 0.927996
Si Si3 0.792592 0.728647 0.768907
Si Si4 0.393166 0.968478 0.317279
Si Si5 0.574249 0.587170 0.556670
O O1 0.835947 0.162349 0.331647
O O2 0.693943 0.018604 0.287914
O O3 0.879427 0.958588 0.289349
O O4 0.830235 0.081179 0.069704
O O5 0.317545 0.765537 0.792342
O O6 0.425720 0.923522 0.902149
O O7 0.466471 0.704055 0.932478
O O8 0.343269 0.802140 0.101119
O O9 0.826638 0.632341 0.875821
O O10 0.500000 0.927227 0.250000
O O11 0.500000 0.500000 0.500000
#
# Coordination Sequence:
#
# PCOD9295638 Si02
#       5
#     8   8   8   8   8
#     4  10  23  43  66  99 135 174 222 281 334 400
#     4   9  20  40  61  90 132 172 218 279 333 388
#     4   9  19  41  64  82 131 179 213 267 343 394
#     4  11  23  38  65  96 130 178 223 270 332 404
#     4  11  22  42  72  97 132 179 227 275 342 397
#
# _framework density 27.470762000000001
#
# number of rings (size 3 to 8) (size 9 to 14) (size 15 to 20)
#    0.000    2.000    2.000    1.800    0.000    5.600 
#    0.000    3.000    0.000    0.000    0.000    0.000 
#    0.000    0.000    0.000    0.000    0.000    0.000 
#
# Total GULP energy -111436.646789 kJ/mol
# GULP energy per Si atom -5571.832339 kJ/mol
# Density = 2.740824 g / cm^3
# Si number density = 27.470762 Si / 1000 Ang^3
#
#
#
# Elastic Constant Matrix: (Units=GPa)
#
#
# Indices 1 2 3 4 5 6 
#
# 1 88.7735 20.7968 16.3861 0.0000 4.1199 0.0000
# 2 20.7968 245.3800 7.4312 0.0000 3.0566 0.0000
# 3 16.3861 7.4312 62.4940 0.0000 -11.2560 0.0000
# 4 0.0000 0.0000 0.0000 36.2451 0.0000 6.7160
# 5 4.1199 3.0566 -11.2560 0.0000 20.4514 0.0000
# 6 0.0000 0.0000 0.0000 6.7160 0.0000 44.5452
#
#
#
# Elastic Compliance Matrix: (Units=1/GPa)
#
#
# Indices 1 2 3 4 5 6 
#
# 1 0.012414 -0.000875 -0.003972 0.000000 -0.004556 0.000000
# 2 -0.000875 0.004169 -0.000385 0.000000 -0.000659 0.000000
# 3 -0.003972 -0.000385 0.019141 0.000000 0.011392 0.000000
# 4 0.000000 0.000000 0.000000 0.028383 0.000000 -0.004279
# 5 -0.004556 -0.000659 0.011392 0.000000 0.056183 0.000000
# 6 0.000000 0.000000 0.000000 -0.004279 0.000000 0.023094
#
#
# Mechanical properties :
#
#
# Convention : Reuss Voigt Hill
#
# Bulk Modulus (GPa) = 39.58708 53.98621 46.78665
# Shear Modulus (GPa) = 30.81335 43.71721 37.26528
#
# Velocity S-wave (km/s) = 3.35278 3.99357 3.68712
# Velocity P-wave (km/s) = 5.42495 6.39998 5.93253
#
# Compressibility (1/GPa) = 0.02526076
#
# Stress axis : x y z
#
# Youngs Moduli (GPa) = 80.55325 239.84579 52.24523
#
# Poissons Ratio (x) = 0.20989 0.20749
# Poissons Ratio (y) = 0.07049 0.02011
# Poissons Ratio (z) = 0.31992 0.09233
#
# Static dielectric constant tensor:
#      x y z
#    x 2.228060 0.000000 -0.022450 
#    y 0.000000 2.245260 0.000000 
#    z -0.022450 0.000000 2.248760 
# 
# From -- ./inp_files/94664.got.cif
#   From: 2010.05.17/outbox.cif.g08.bks.cpg/sg15_48_cif.got.tgz:94664.got - 2010.06.03 18:47:42.
