data_PCOD9295989
_publ_section_title
;
Structure prediction by ZEFSAII (Michael W. Deem and Ramdas Pophale) SiO2 
 PCOD9295989
Probable space group: C 2/C
;
_chemical_formula_sum "Si O2"
_cell_formula_units_Z 56
_cell_length_a 18.412412
_cell_length_b 4.929383
_cell_length_c 28.773846
_cell_angle_alpha 90.000000
_cell_angle_beta 118.616112
_cell_angle_gamma 90.000000
_cell_volume 2292.559674
_symmetry_space_group_name_H-M "C 2/C"
_symmetry_group_IT_number 15
_symmetry_cell_setting 'monoclinic'
loop_
_space_group_symop_operation_xyz
x,y,z
-x,y,1/2-z
-x,-y,-z
x,-y,1/2+z
1/2+x,1/2+y,z
1/2-x,1/2+y,1/2-z
1/2-x,1/2-y,-z
1/2+x,1/2-y,1/2+z
loop_
_atom_site_type_symbol
_atom_site_label
_atom_site_fract_x
_atom_site_fract_y
_atom_site_fract_z
Si Si1 0.406982 0.951650 0.989190
Si Si2 0.802125 0.028405 0.435156
Si Si3 0.766039 0.514880 0.180521
Si Si4 0.869181 0.839780 0.290705
Si Si5 0.412491 0.660599 0.221886
Si Si6 0.942551 0.761705 0.148363
Si Si7 0.136101 0.272154 0.421172
O O1 0.353904 0.228619 0.973466
O O2 0.363556 0.722397 0.944059
O O3 0.500000 0.000000 0.000000
O O4 0.400010 0.832312 0.039058
O O5 0.765921 0.153431 0.376147
O O6 0.729660 0.886703 0.443746
O O7 0.817694 0.678840 0.235216
O O8 0.689827 0.386448 0.184424
O O9 0.827996 0.290524 0.179868
O O10 0.960121 0.747221 0.332712
O O11 0.891639 0.111032 0.269467
O O12 0.500000 0.815816 0.250000
O O13 0.430222 0.395155 0.195663
O O14 0.913258 0.460022 0.130208
O O15 0.886695 0.963491 0.099363
#
# Coordination Sequence:
#
# PCOD9295989 Si02
#       7
#     8   8   8   8   8   8   8
#     4  12  29  50  76 108 144 182 243 308 375 429
#     4  12  27  48  78 105 144 192 240 301 361 436
#     4  12  25  42  72 102 149 186 245 287 359 419
#     4  11  26  41  68 105 150 190 236 292 355 418
#     4  10  23  44  64 101 142 191 235 286 344 419
#     4  11  26  44  75 108 144 194 235 294 349 438
#     4  12  25  49  77 106 143 184 245 293 368 424
#
# _framework density 24.426846999999999
#
# number of rings (size 3 to 8) (size 9 to 14) (size 15 to 20)
#    0.000    0.571    2.857    3.857   10.000    0.571 
#    0.000    0.000    0.000    0.000    0.000    0.000 
#    0.000    0.000    0.000    0.000    0.000    0.000 
#
# Total GULP energy -156587.389996 kJ/mol
# GULP energy per Si atom -5592.406786 kJ/mol
# Density = 2.437125 g / cm^3
# Si number density = 24.426847 Si / 1000 Ang^3
#
#
#
# Elastic Constant Matrix: (Units=GPa)
#
#
# Indices 1 2 3 4 5 6 
#
# 1 178.7701 15.0352 48.2249 -0.0006 0.8059 -0.0014
# 2 15.0352 60.8376 4.7963 -0.0001 3.0289 -0.0012
# 3 48.2249 4.7963 65.9775 -0.0005 -8.4286 0.0000
# 4 -0.0006 -0.0001 -0.0005 54.1038 -0.0002 11.9012
# 5 0.8059 3.0289 -8.4286 -0.0002 38.5397 0.0005
# 6 -0.0014 -0.0012 0.0000 11.9012 0.0005 22.1030
#
#
#
# Elastic Compliance Matrix: (Units=1/GPa)
#
#
# Indices 1 2 3 4 5 6 
#
# 1 0.007129 -0.001287 -0.005271 0.000000 -0.001201 0.000000
# 2 -0.001287 0.016861 -0.000464 0.000000 -0.001400 0.000001
# 3 -0.005271 -0.000464 0.019610 0.000000 0.004435 -0.000001
# 4 0.000000 0.000000 0.000000 0.020966 0.000000 -0.011289
# 5 -0.001201 -0.001400 0.004435 0.000000 0.027052 -0.000001
# 6 0.000000 0.000001 -0.000001 -0.011289 -0.000001 0.051321
#
#
# Mechanical properties :
#
#
# Convention : Reuss Voigt Hill
#
# Bulk Modulus (GPa) = 33.83275 49.07756 41.45515
# Shear Modulus (GPa) = 29.96956 38.78454 34.37705
#
# Velocity S-wave (km/s) = 3.50653 3.98902 3.75553
# Velocity P-wave (km/s) = 5.50227 6.43053 5.98443
#
# Compressibility (1/GPa) = 0.02955716
#
# Stress axis : x y z
#
# Youngs Moduli (GPa) = 140.26708 59.30685 50.99527
#
# Poissons Ratio (x) = 0.07630 0.26879
# Poissons Ratio (y) = 0.18047 0.02367
# Poissons Ratio (z) = 0.73933 0.02753
#
# Static dielectric constant tensor:
#      x y z
#    x 1.895670 0.000000 0.037190 
#    y 0.000000 1.986050 0.000000 
#    z 0.037190 0.000000 2.034470 
# 
# From -- ./inp_files/315134.got.cif
#   From: 2010.05.17/outbox.cif.g08.bks.cpg/sg15_158_cif.got.tgz:315134.got - 2010.06.03 18:47:42.
