data_PCOD9295339
_publ_section_title
;
Structure prediction by ZEFSAII (Michael W. Deem and Ramdas Pophale) SiO2 
 PCOD9295339
Probable space group: C 2/C
;
_chemical_formula_sum "Si O2"
_cell_formula_units_Z 40
_cell_length_a 20.362143
_cell_length_b 15.048869
_cell_length_c 14.169171
_cell_angle_alpha 90.000000
_cell_angle_beta 157.945554
_cell_angle_gamma 90.000000
_cell_volume 1630.298994
_symmetry_space_group_name_H-M "C 2/C"
_symmetry_group_IT_number 15
_symmetry_cell_setting 'monoclinic'
loop_
_space_group_symop_operation_xyz
x,y,z
-x,y,1/2-z
-x,-y,-z
x,-y,1/2+z
1/2+x,1/2+y,z
1/2-x,1/2+y,1/2-z
1/2-x,1/2-y,-z
1/2+x,1/2-y,1/2+z
loop_
_atom_site_type_symbol
_atom_site_label
_atom_site_fract_x
_atom_site_fract_y
_atom_site_fract_z
Si Si1 0.387439 0.804563 0.006238
Si Si2 0.825863 0.372294 0.478709
Si Si3 0.665379 0.505895 0.415446
Si Si4 0.961141 0.897651 0.924389
Si Si5 0.653209 0.867599 0.207442
O O1 0.500000 0.825696 0.250000
O O2 0.505118 0.821200 0.072283
O O3 0.218315 0.866134 0.770610
O O4 0.304881 0.707247 0.907671
O O5 0.780217 0.446882 0.496492
O O6 0.883114 0.395093 0.448197
O O7 0.624440 0.343328 0.186410
O O8 0.000000 0.322210 0.750000
O O9 0.500000 0.461811 0.250000
O O10 0.585946 0.589061 0.249124
O O11 0.787197 0.546216 0.657236
O O12 0.000000 0.000000 0.000000
#
# Coordination Sequence:
#
# PCOD9295339 Si02
#       5
#     8   8   8   8   8
#     4  12  25  45  79 118 151 196 254 328 393 449
#     4  11  27  46  68 108 152 208 256 302 381 463
#     4  11  23  43  72 108 152 192 252 330 377 451
#     4  10  23  42  69 107 153 187 247 309 383 456
#     4  12  26  45  77 112 156 197 254 320 389 454
#
# _framework density 24.535377
#
# number of rings (size 3 to 8) (size 9 to 14) (size 15 to 20)
#    0.000    0.800    4.000    2.400    5.600    4.000 
#    0.000    4.000    0.000    0.000    0.000    0.000 
#    0.000    0.000    0.000    0.000    0.000    0.000 
#
# Total GULP energy -111534.262616 kJ/mol
# GULP energy per Si atom -5576.713131 kJ/mol
# Density = 2.447953 g / cm^3
# Si number density = 24.535377 Si / 1000 Ang^3
#
#
#
# Elastic Constant Matrix: (Units=GPa)
#
#
# Indices 1 2 3 4 5 6 
#
# 1 208.8898 32.6597 67.0017 0.0000 12.1661 0.0000
# 2 32.6597 45.7484 20.1621 0.0000 14.5857 0.0000
# 3 67.0017 20.1621 181.7412 0.0000 4.4711 0.0000
# 4 0.0000 0.0000 0.0000 -42.3161 0.0000 73.9327
# 5 12.1661 14.5857 4.4711 0.0000 58.4442 0.0000
# 6 0.0000 0.0000 0.0000 73.9327 0.0000 -21.1456
#
#
#
# Elastic Compliance Matrix: (Units=1/GPa)
#
#
# Indices 1 2 3 4 5 6 
#
# 1 0.005901 -0.003338 -0.001799 0.000000 -0.000258 0.000000
# 2 -0.003338 0.026820 -0.001600 0.000000 -0.005876 0.000000
# 3 -0.001799 -0.001600 0.006336 0.000000 0.000289 0.000000
# 4 0.000000 0.000000 0.000000 0.004626 0.000000 0.016173
# 5 -0.000258 -0.005876 0.000289 0.000000 0.018608 0.000000
# 6 0.000000 0.000000 0.000000 0.016173 0.000000 0.009257
#
#
# Mechanical properties :
#
#
# Convention : Reuss Voigt Hill
#
# Bulk Modulus (GPa) = 39.08798 75.11404 57.10101
# Shear Modulus (GPa) = 53.44727 20.10024 36.77376
#
# Velocity S-wave (km/s) = 4.67237 2.86533 3.87564
# Velocity P-wave (km/s) = 6.71371 6.45197 6.58414
#
# Compressibility (1/GPa) = 0.02558331
#
# Stress axis : x y z
#
# Youngs Moduli (GPa) = 169.46044 37.28527 157.82976
#
# Poissons Ratio (x) = 0.12445 0.28392
# Poissons Ratio (y) = 0.56562 0.25258
# Poissons Ratio (z) = 0.30484 0.05967
#
# Static dielectric constant tensor:
#      x y z
#    x 2.021380 0.000000 -0.067810 
#    y 0.000000 2.208410 0.000000 
#    z -0.067810 0.000000 2.685480 
# 
# From -- ./inp_files/169240.got.cif
#   From: 2010.05.17/outbox.cif.g08.bks.cpg/sg15_85_cif.got.tgz:169240.got - 2010.06.03 18:47:42.
