data_PCOD9295416
_publ_section_title
;
Structure prediction by ZEFSAII (Michael W. Deem and Ramdas Pophale) SiO2 
 PCOD9295416
Probable space group: C 2/C
;
_chemical_formula_sum "Si O2"
_cell_formula_units_Z 48
_cell_length_a 14.529945
_cell_length_b 13.912955
_cell_length_c 15.077710
_cell_angle_alpha 90.000000
_cell_angle_beta 38.034698
_cell_angle_gamma 90.000000
_cell_volume 1878.006704
_symmetry_space_group_name_H-M "C 2/C"
_symmetry_group_IT_number 15
_symmetry_cell_setting 'monoclinic'
loop_
_space_group_symop_operation_xyz
x,y,z
-x,y,1/2-z
-x,-y,-z
x,-y,1/2+z
1/2+x,1/2+y,z
1/2-x,1/2+y,1/2-z
1/2-x,1/2-y,-z
1/2+x,1/2-y,1/2+z
loop_
_atom_site_type_symbol
_atom_site_label
_atom_site_fract_x
_atom_site_fract_y
_atom_site_fract_z
Si Si1 0.816244 0.123387 0.761054
Si Si2 0.383697 0.157664 0.000500
Si Si3 0.000000 0.021216 0.750000
Si Si4 0.147282 0.465413 0.238376
Si Si5 0.360988 0.640651 0.448387
Si Si6 0.000000 0.370054 0.750000
Si Si7 0.957747 0.730338 0.462789
O O1 0.739076 0.041798 0.760009
O O2 0.964435 0.165985 0.602246
O O3 0.695070 0.208109 0.869098
O O4 0.863144 0.084151 0.820800
O O5 0.481373 0.071560 0.887393
O O6 0.436579 0.260974 0.920537
O O7 0.217912 0.151756 0.087823
O O8 0.420901 0.165777 0.075387
O O9 0.040463 0.953311 0.636850
O O10 0.126000 0.561460 0.198386
O O11 0.229518 0.385111 0.116301
O O12 0.941451 0.306065 0.875039
#
# Coordination Sequence:
#
# PCOD9295416 Si02
#       7
#     8   8   4   8   8   4   8
#     4  11  27  50  72 106 147 191 252 298 361 432
#     4  10  23  42  71 100 139 186 242 288 361 432
#     4  12  29  41  70 108 146 186 240 309 359 424
#     4  11  23  45  69 105 142 184 238 301 360 429
#     4  11  23  41  69 102 142 185 235 302 356 429
#     4  12  25  41  74 108 146 194 232 299 375 430
#     4  11  26  48  76 103 145 197 239 296 363 445
#
# _framework density 25.559014999999999
#
# number of rings (size 3 to 8) (size 9 to 14) (size 15 to 20)
#    0.000    1.000    3.333    1.500    7.000    6.000 
#    0.000    0.000    0.000    0.000    0.000    0.000 
#    0.000    0.000    0.000    0.000    0.000    0.000 
#
# Total GULP energy -134292.793916 kJ/mol
# GULP energy per Si atom -5595.533080 kJ/mol
# Density = 2.550084 g / cm^3
# Si number density = 25.559015 Si / 1000 Ang^3
#
#
#
# Elastic Constant Matrix: (Units=GPa)
#
#
# Indices 1 2 3 4 5 6 
#
# 1 142.4255 23.1555 20.9145 -0.0001 -2.0815 0.0001
# 2 23.1555 52.6960 2.7045 -0.0001 -19.5848 0.0001
# 3 20.9145 2.7045 48.5142 -0.0002 1.2623 0.0002
# 4 -0.0001 -0.0001 -0.0002 31.2105 0.0001 3.2309
# 5 -2.0815 -19.5848 1.2623 0.0001 25.9455 -0.0001
# 6 0.0001 0.0001 0.0002 3.2309 -0.0001 25.6511
#
#
#
# Elastic Compliance Matrix: (Units=1/GPa)
#
#
# Indices 1 2 3 4 5 6 
#
# 1 0.008162 -0.004337 -0.003213 0.000000 -0.002463 0.000000
# 2 -0.004337 0.028874 -0.000298 0.000000 0.021462 0.000000
# 3 -0.003213 -0.000298 0.022055 0.000000 -0.001556 0.000000
# 4 0.000000 0.000000 0.000000 0.032464 0.000000 -0.004089
# 5 -0.002463 0.021462 -0.001556 0.000000 0.054621 0.000000
# 6 0.000000 0.000000 0.000000 -0.004089 0.000000 0.039500
#
#
# Mechanical properties :
#
#
# Convention : Reuss Voigt Hill
#
# Bulk Modulus (GPa) = 23.04422 37.46495 30.25459
# Shear Modulus (GPa) = 23.16562 29.68549 26.42556
#
# Velocity S-wave (km/s) = 3.01384 3.41170 3.21893
# Velocity P-wave (km/s) = 4.59855 5.49633 5.06736
#
# Compressibility (1/GPa) = 0.04339482
#
# Stress axis : x y z
#
# Youngs Moduli (GPa) = 122.51732 34.63280 45.34183
#
# Poissons Ratio (x) = 0.15020 0.14568
# Poissons Ratio (y) = 0.53135 0.01353
# Poissons Ratio (z) = 0.39363 0.01033
#
# Static dielectric constant tensor:
#      x y z
#    x 2.013580 0.000000 0.024730 
#    y 0.000000 2.000890 0.000000 
#    z 0.024730 0.000000 1.982000 
# 
# From -- ./inp_files/205316.got.cif
#   From: 2010.05.17/outbox.cif.g08.bks.cpg/sg15_103_cif.got.tgz:205316.got - 2010.06.03 18:47:42.
