data_PCOD9295720
_publ_section_title
;
Structure prediction by ZEFSAII (Michael W. Deem and Ramdas Pophale) SiO2 
 PCOD9295720
Probable space group: C 2/C
;
_chemical_formula_sum "Si O2"
_cell_formula_units_Z 24
_cell_length_a 5.292611
_cell_length_b 12.982713
_cell_length_c 15.502330
_cell_angle_alpha 90.000000
_cell_angle_beta 119.026561
_cell_angle_gamma 90.000000
_cell_volume 931.408096
_symmetry_space_group_name_H-M "C 2/C"
_symmetry_group_IT_number 15
_symmetry_cell_setting 'monoclinic'
loop_
_space_group_symop_operation_xyz
x,y,z
-x,y,1/2-z
-x,-y,-z
x,-y,1/2+z
1/2+x,1/2+y,z
1/2-x,1/2+y,1/2-z
1/2-x,1/2-y,-z
1/2+x,1/2-y,1/2+z
loop_
_atom_site_type_symbol
_atom_site_label
_atom_site_fract_x
_atom_site_fract_y
_atom_site_fract_z
Si Si1 0.419487 0.541772 0.139160
Si Si2 0.656924 0.861348 0.017072
Si Si3 0.340133 0.757915 0.314673
O O1 0.500000 0.512868 0.250000
O O2 0.410804 0.443275 0.076026
O O3 0.613709 0.639684 0.147495
O O4 0.095150 0.588052 0.080269
O O5 0.537837 0.835282 0.093577
O O6 0.750000 0.750000 0.000000
O O7 0.500000 0.768563 0.250000
O O8 0.000000 0.775268 0.250000
#
# Coordination Sequence:
#
# PCOD9295720 Si02
#       3
#     8   8   8
#     4  10  23  43  68 105 143 184 237 293 353 423
#     4  11  23  44  73 104 142 188 238 293 355 423
#     4  11  24  47  75 107 148 191 236 291 357 425
#
# _framework density 25.767436
#
# number of rings (size 3 to 8) (size 9 to 14) (size 15 to 20)
#    0.000    1.333    0.000    6.000    0.000    1.333 
#    0.000   43.333    0.000    0.000    0.000    0.000 
#    0.000    0.000    0.000    0.000    0.000    0.000 
#
# Total GULP energy -67281.074525 kJ/mol
# GULP energy per Si atom -5606.756210 kJ/mol
# Density = 2.570879 g / cm^3
# Si number density = 25.767436 Si / 1000 Ang^3
#
#
#
# Elastic Constant Matrix: (Units=GPa)
#
#
# Indices 1 2 3 4 5 6 
#
# 1 112.7950 36.9942 56.5133 0.0000 -4.4365 0.0000
# 2 36.9942 168.0101 78.6549 0.0000 2.6077 0.0000
# 3 56.5133 78.6549 178.6133 0.0000 22.3720 0.0000
# 4 0.0000 0.0000 0.0000 45.2813 0.0000 -8.8003
# 5 -4.4365 2.6077 22.3720 0.0000 39.4197 0.0000
# 6 0.0000 0.0000 0.0000 -8.8003 0.0000 22.4270
#
#
#
# Elastic Compliance Matrix: (Units=1/GPa)
#
#
# Indices 1 2 3 4 5 6 
#
# 1 0.011042 -0.000823 -0.003546 0.000000 0.003310 0.000000
# 2 -0.000823 0.007640 -0.003261 0.000000 0.001253 0.000000
# 3 -0.003546 -0.003261 0.008806 0.000000 -0.005181 0.000000
# 4 0.000000 0.000000 0.000000 0.023907 0.000000 0.009381
# 5 0.003310 0.001253 -0.005181 0.000000 0.028598 0.000000
# 6 0.000000 0.000000 0.000000 0.009381 0.000000 0.048270
#
#
# Mechanical properties :
#
#
# Convention : Reuss Voigt Hill
#
# Bulk Modulus (GPa) = 81.77556 89.30478 85.54017
# Shear Modulus (GPa) = 33.87529 40.57600 37.22564
#
# Velocity S-wave (km/s) = 3.62975 3.97255 3.80502
# Velocity P-wave (km/s) = 7.02650 7.46825 7.25074
#
# Compressibility (1/GPa) = 0.01222859
#
# Stress axis : x y z
#
# Youngs Moduli (GPa) = 90.56070 130.88177 113.56254
#
# Poissons Ratio (x) = 0.10767 0.40270
# Poissons Ratio (y) = 0.07450 0.37035
# Poissons Ratio (z) = 0.32113 0.42683
#
# Static dielectric constant tensor:
#      x y z
#    x 2.011330 0.000000 -0.051120 
#    y 0.000000 2.028680 0.000000 
#    z -0.051120 0.000000 2.055430 
# 
# From -- ./inp_files/127794.got.cif
#   From: 2010.05.17/outbox.cif.g08.bks.cpg/sg15_64_cif.got.tgz:127794.got - 2010.06.03 18:47:42.
