data_PCOD9295934
_publ_section_title
;
Structure prediction by ZEFSAII (Michael W. Deem and Ramdas Pophale) SiO2 
 PCOD9295934
Probable space group: C 2/C
;
_chemical_formula_sum "Si O2"
_cell_formula_units_Z 60
_cell_length_a 9.025235
_cell_length_b 27.189096
_cell_length_c 11.393381
_cell_angle_alpha 90.000000
_cell_angle_beta 105.598058
_cell_angle_gamma 90.000000
_cell_volume 2692.834190
_symmetry_space_group_name_H-M "C 2/C"
_symmetry_group_IT_number 15
_symmetry_cell_setting 'monoclinic'
loop_
_space_group_symop_operation_xyz
x,y,z
-x,y,1/2-z
-x,-y,-z
x,-y,1/2+z
1/2+x,1/2+y,z
1/2-x,1/2+y,1/2-z
1/2-x,1/2-y,-z
1/2+x,1/2-y,1/2+z
loop_
_atom_site_type_symbol
_atom_site_label
_atom_site_fract_x
_atom_site_fract_y
_atom_site_fract_z
Si Si1 0.233447 0.385783 0.519246
Si Si2 0.892484 0.520797 0.812919
Si Si3 0.500000 0.613399 0.750000
Si Si4 0.557398 0.074403 0.439248
Si Si5 0.624703 0.467468 0.096387
Si Si6 0.010069 0.808392 0.892390
Si Si7 0.529319 0.200885 0.894206
Si Si8 0.239419 0.160224 0.979290
O O1 0.268388 0.439480 0.474720
O O2 0.393693 0.358586 0.573226
O O3 0.104283 0.396248 0.589379
O O4 0.147160 0.344187 0.426552
O O5 0.735118 0.505755 0.714926
O O6 0.000000 0.552974 0.750000
O O7 0.002964 0.475291 0.866617
O O8 0.874082 0.553779 0.923107
O O9 0.441023 0.576981 0.839486
O O10 0.626752 0.645073 0.847072
O O11 0.688031 0.113193 0.435578
O O12 0.500000 0.500000 0.000000
O O13 0.000000 0.805386 0.750000
O O14 0.080979 0.755572 0.944315
O O15 0.858758 0.812340 0.941711
O O16 0.500000 0.204372 0.750000
O O17 0.382309 0.186828 0.944523
#
# Coordination Sequence:
#
# PCOD9295934 Si02
#       8
#     8   8   4   8   8   8   8   8
#     4  11  23  43  66  98 133 179 232 280 347 421
#     4  11  23  40  64  90 137 173 234 279 333 410
#     4  12  24  42  66 100 134 180 234 288 346 420
#     4  10  24  40  65  97 128 184 229 283 340 405
#     4  12  27  39  64 101 141 183 233 292 350 411
#     4  11  25  45  69 102 142 178 227 290 369 430
#     4  10  23  43  74 102 135 178 232 292 355 427
#     4  11  23  43  72 103 139 177 237 290 354 425
#
# _framework density 22.281358999999998
#
# number of rings (size 3 to 8) (size 9 to 14) (size 15 to 20)
#    0.000    1.067    4.000    1.600    5.600    2.133 
#    0.000    2.000    0.000    0.000    0.000    0.000 
#    0.000    0.000    0.000    0.000    0.000    0.000 
#
# Total GULP energy -167083.233661 kJ/mol
# GULP energy per Si atom -5569.441122 kJ/mol
# Density = 2.223065 g / cm^3
# Si number density = 22.281359 Si / 1000 Ang^3
#
#
#
# Elastic Constant Matrix: (Units=GPa)
#
#
# Indices 1 2 3 4 5 6 
#
# 1 90.3039 23.6817 43.0127 0.0000 2.2355 0.0000
# 2 23.6817 92.9391 23.4725 0.0000 7.0957 0.0000
# 3 43.0127 23.4725 82.9964 0.0000 1.7953 0.0000
# 4 0.0000 0.0000 0.0000 24.4899 0.0000 13.8710
# 5 2.2355 7.0957 1.7953 0.0000 26.9436 0.0000
# 6 0.0000 0.0000 0.0000 13.8710 0.0000 108.3712
#
#
#
# Elastic Compliance Matrix: (Units=1/GPa)
#
#
# Indices 1 2 3 4 5 6 
#
# 1 0.015045 -0.001989 -0.007229 0.000000 -0.000243 0.000000
# 2 -0.001989 0.012071 -0.002321 0.000000 -0.002859 0.000000
# 3 -0.007229 -0.002321 0.016449 0.000000 0.000115 0.000000
# 4 0.000000 0.000000 0.000000 0.044025 0.000000 -0.005635
# 5 -0.000243 -0.002859 0.000115 0.000000 0.037880 0.000000
# 6 0.000000 0.000000 0.000000 -0.005635 0.000000 0.009949
#
#
# Mechanical properties :
#
#
# Convention : Reuss Voigt Hill
#
# Bulk Modulus (GPa) = 48.81352 49.61925 49.21638
# Shear Modulus (GPa) = 30.24329 43.69911 36.97120
#
# Velocity S-wave (km/s) = 3.68820 4.43339 4.07786
# Velocity P-wave (km/s) = 6.33186 6.96594 6.65646
#
# Compressibility (1/GPa) = 0.02048613
#
# Stress axis : x y z
#
# Youngs Moduli (GPa) = 66.46884 82.84228 60.79360
#
# Poissons Ratio (x) = 0.16479 0.43948
# Poissons Ratio (y) = 0.13222 0.14111
# Poissons Ratio (z) = 0.48050 0.19229
#
# Static dielectric constant tensor:
#      x y z
#    x 1.804710 0.000000 0.102520 
#    y 0.000000 1.838820 0.000000 
#    z 0.102520 0.000000 1.668310 
# 
# From -- ./inp_files/82641.got.cif
#   From: 2010.05.17/outbox.cif.g08.bks.cpg/sg15_42_cif.got.tgz:82641.got - 2010.06.03 18:47:42.
