data_PCOD9295722
_publ_section_title
;
Structure prediction by ZEFSAII (Michael W. Deem and Ramdas Pophale) SiO2 
 PCOD9295722
Probable space group: C 2/C
;
_chemical_formula_sum "Si O2"
_cell_formula_units_Z 52
_cell_length_a 20.443137
_cell_length_b 7.278753
_cell_length_c 18.245583
_cell_angle_alpha 90.000000
_cell_angle_beta 129.650167
_cell_angle_gamma 90.000000
_cell_volume 2090.390943
_symmetry_space_group_name_H-M "C 2/C"
_symmetry_group_IT_number 15
_symmetry_cell_setting 'monoclinic'
loop_
_space_group_symop_operation_xyz
x,y,z
-x,y,1/2-z
-x,-y,-z
x,-y,1/2+z
1/2+x,1/2+y,z
1/2-x,1/2+y,1/2-z
1/2-x,1/2-y,-z
1/2+x,1/2-y,1/2+z
loop_
_atom_site_type_symbol
_atom_site_label
_atom_site_fract_x
_atom_site_fract_y
_atom_site_fract_z
Si Si1 0.236174 0.423447 0.337130
Si Si2 0.250000 0.250000 0.500000
Si Si3 0.524341 0.418522 0.344257
Si Si4 0.063698 0.336765 0.362262
Si Si5 0.104954 0.875758 0.128558
Si Si6 0.868259 0.808571 0.956160
Si Si7 0.573435 0.042361 0.628213
O O1 0.259712 0.280036 0.417503
O O2 0.293113 0.375640 0.305459
O O3 0.271561 0.622659 0.388523
O O4 0.141004 0.431073 0.242115
O O5 0.163079 0.383367 0.433410
O O6 0.500000 0.332946 0.250000
O O7 0.569577 0.612758 0.361949
O O8 0.439277 0.456437 0.330778
O O9 0.589054 0.292006 0.434987
O O10 0.000000 0.389867 0.250000
O O11 0.014985 0.390443 0.401456
O O12 0.087429 0.005442 0.046173
O O13 0.071989 0.669635 0.104517
O O14 0.890925 0.656055 0.914395
#
# Coordination Sequence:
#
# PCOD9295722 Si02
#       7
#     8   4   8   8   8   8   8
#     4  10  23  43  68 105 147 186 241 302 352 438
#     4  12  22  42  70 104 146 192 244 294 360 434
#     4  11  23  45  69 102 142 187 236 298 367 431
#     4  11  22  40  71 101 141 198 235 295 372 426
#     4  10  24  42  73 105 140 182 245 298 354 444
#     4  10  23  44  70 102 143 189 230 300 366 427
#     4  12  23  43  74 104 142 191 243 296 369 432
#
# _framework density 24.875730999999998
#
# number of rings (size 3 to 8) (size 9 to 14) (size 15 to 20)
#    0.923    0.308    4.615    1.385    2.154    1.231 
#    0.000    0.000    0.000    3.692    0.000    0.000 
#    0.000    0.000    0.000    0.000    0.000    0.000 
#
# Total GULP energy -144788.095433 kJ/mol
# GULP energy per Si atom -5568.772901 kJ/mol
# Density = 2.481911 g / cm^3
# Si number density = 24.875731 Si / 1000 Ang^3
#
#
#
# Elastic Constant Matrix: (Units=GPa)
#
#
# Indices 1 2 3 4 5 6 
#
# 1 76.5063 -26.7403 13.3444 0.0000 11.6894 0.0000
# 2 -26.7403 83.7516 1.2509 0.0000 -10.4164 0.0000
# 3 13.3444 1.2509 139.3638 0.0000 -18.7843 0.0000
# 4 0.0000 0.0000 0.0000 2.0190 0.0000 14.1880
# 5 11.6894 -10.4164 -18.7843 0.0000 47.0429 0.0000
# 6 0.0000 0.0000 0.0000 14.1880 0.0000 -1.5618
#
#
#
# Elastic Compliance Matrix: (Units=1/GPa)
#
#
# Indices 1 2 3 4 5 6 
#
# 1 0.015575 0.004546 -0.002027 0.000000 -0.003673 0.000000
# 2 0.004546 0.013615 -0.000321 0.000000 0.001757 0.000000
# 3 -0.002027 -0.000321 0.007853 0.000000 0.003569 0.000000
# 4 0.000000 0.000000 0.000000 0.007639 0.000000 0.069395
# 5 -0.003673 0.001757 0.003569 0.000000 0.023984 0.000000
# 6 0.000000 0.000000 0.000000 0.069395 0.000000 -0.009875
#
#
# Mechanical properties :
#
#
# Convention : Reuss Voigt Hill
#
# Bulk Modulus (GPa) = 24.13164 30.59242 27.36203
# Shear Modulus (GPa) = 73.30601 30.28447 51.79524
#
# Velocity S-wave (km/s) = 5.43441 3.49295 4.56802
# Velocity P-wave (km/s) = 7.00707 5.34719 6.23264
#
# Compressibility (1/GPa) = 0.04143937
#
# Stress axis : x y z
#
# Youngs Moduli (GPa) = 64.20746 73.44919 127.33261
#
# Poissons Ratio (x) = -0.33391 0.25812
# Poissons Ratio (y) = -0.29189 0.04083
# Poissons Ratio (z) = 0.13016 0.02355
#
# Static dielectric constant tensor:
#      x y z
#    x 2.078450 0.000000 0.222260 
#    y 0.000000 2.000840 0.000000 
#    z 0.222260 0.000000 2.692890 
# 
# From -- ./inp_files/210996.got.cif
#   From: 2010.05.17/outbox.cif.g08.bks.cpg/sg15_106_cif.got.tgz:210996.got - 2010.06.03 18:47:42.
