data_PCOD9295704
_publ_section_title
;
Structure prediction by ZEFSAII (Michael W. Deem and Ramdas Pophale) SiO2 
 PCOD9295704
Probable space group: C 2/C
;
_chemical_formula_sum "Si O2"
_cell_formula_units_Z 28
_cell_length_a 8.696030
_cell_length_b 13.264351
_cell_length_c 10.957218
_cell_angle_alpha 90.000000
_cell_angle_beta 53.539533
_cell_angle_gamma 90.000000
_cell_volume 1016.500585
_symmetry_space_group_name_H-M "C 2/C"
_symmetry_group_IT_number 15
_symmetry_cell_setting 'monoclinic'
loop_
_space_group_symop_operation_xyz
x,y,z
-x,y,1/2-z
-x,-y,-z
x,-y,1/2+z
1/2+x,1/2+y,z
1/2-x,1/2+y,1/2-z
1/2-x,1/2-y,-z
1/2+x,1/2-y,1/2+z
loop_
_atom_site_type_symbol
_atom_site_label
_atom_site_fract_x
_atom_site_fract_y
_atom_site_fract_z
Si Si1 0.698149 0.934278 0.322051
Si Si2 0.677291 0.837665 0.809904
Si Si3 0.927102 0.856000 0.447969
Si Si4 0.000000 0.281059 0.250000
O O1 0.795575 0.900378 0.402386
O O2 0.546775 0.855056 0.340224
O O3 0.622131 0.047459 0.358370
O O4 0.879627 0.923565 0.142364
O O5 0.808739 0.844883 0.626829
O O6 0.820012 0.792782 0.843982
O O7 0.511911 0.754923 0.876434
#
# Coordination Sequence:
#
# PCOD9295704 Si02
#       4
#     8   8   8   4
#     4  10  23  43  68 100 136 181 228 279 341 407
#     4  11  24  47  70 100 143 179 226 290 337 407
#     4  10  24  45  71 101 138 184 228 277 351 408
#     4  10  24  40  66 104 134 178 232 276 342 406
#
# _framework density 27.545486
#
# number of rings (size 3 to 8) (size 9 to 14) (size 15 to 20)
#    0.000    1.714    0.000    2.571    0.000   21.714 
#    0.000   12.857    0.000    0.000    0.000    0.000 
#    0.000    0.000    0.000    0.000    0.000    0.000 
#
# Total GULP energy -78605.074439 kJ/mol
# GULP energy per Si atom -5614.648174 kJ/mol
# Density = 2.748279 g / cm^3
# Si number density = 27.545486 Si / 1000 Ang^3
#
#
#
# Elastic Constant Matrix: (Units=GPa)
#
#
# Indices 1 2 3 4 5 6 
#
# 1 130.6181 45.1113 30.1935 0.0000 -15.2459 0.0000
# 2 45.1113 234.3924 54.3209 0.0000 -16.7141 0.0000
# 3 30.1935 54.3209 178.2240 0.0000 10.7768 0.0000
# 4 0.0000 0.0000 0.0000 60.8881 0.0000 -13.6353
# 5 -15.2459 -16.7141 10.7768 0.0000 36.6474 0.0000
# 6 0.0000 0.0000 0.0000 -13.6353 0.0000 34.3816
#
#
#
# Elastic Compliance Matrix: (Units=1/GPa)
#
#
# Indices 1 2 3 4 5 6 
#
# 1 0.008770 -0.001121 -0.001358 0.000000 0.003536 0.000000
# 2 -0.001121 0.004981 -0.001463 0.000000 0.002236 0.000000
# 3 -0.001358 -0.001463 0.006477 0.000000 -0.003137 0.000000
# 4 0.000000 0.000000 0.000000 0.018024 0.000000 0.007148
# 5 0.003536 0.002236 -0.003137 0.000000 0.030700 0.000000
# 6 0.000000 0.000000 0.000000 0.007148 0.000000 0.031920
#
#
# Mechanical properties :
#
#
# Convention : Reuss Voigt Hill
#
# Bulk Modulus (GPa) = 81.01978 89.16508 85.09243
# Shear Modulus (GPa) = 44.29858 53.95733 49.12795
#
# Velocity S-wave (km/s) = 4.01458 4.43069 4.22776
# Velocity P-wave (km/s) = 7.13906 7.65605 7.40207
#
# Compressibility (1/GPa) = 0.01234267
#
# Stress axis : x y z
#
# Youngs Moduli (GPa) = 114.02882 200.77791 154.40093
#
# Poissons Ratio (x) = 0.22506 0.20966
# Poissons Ratio (y) = 0.12782 0.22594
# Poissons Ratio (z) = 0.15484 0.29380
#
# Static dielectric constant tensor:
#      x y z
#    x 2.116060 0.000000 0.008510 
#    y 0.000000 2.083350 0.000000 
#    z 0.008510 0.000000 2.250940 
# 
# From -- ./inp_files/27254.got.cif
#   From: 2010.05.17/outbox.cif.g08.bks.cpg/sg15_14_cif.got.tgz:27254.got - 2010.06.03 18:47:42.
