data_PCOD9295181
_publ_section_title
;
Structure prediction by ZEFSAII (Michael W. Deem and Ramdas Pophale) SiO2 
 PCOD9295181
Probable space group: C 2/C
;
_chemical_formula_sum "Si O2"
_cell_formula_units_Z 48
_cell_length_a 10.969715
_cell_length_b 9.855595
_cell_length_c 21.962082
_cell_angle_alpha 90.000000
_cell_angle_beta 125.355798
_cell_angle_gamma 90.000000
_cell_volume 1936.490249
_symmetry_space_group_name_H-M "C 2/C"
_symmetry_group_IT_number 15
_symmetry_cell_setting 'monoclinic'
loop_
_space_group_symop_operation_xyz
x,y,z
-x,y,1/2-z
-x,-y,-z
x,-y,1/2+z
1/2+x,1/2+y,z
1/2-x,1/2+y,1/2-z
1/2-x,1/2-y,-z
1/2+x,1/2-y,1/2+z
loop_
_atom_site_type_symbol
_atom_site_label
_atom_site_fract_x
_atom_site_fract_y
_atom_site_fract_z
Si Si1 0.242105 0.457517 0.169817
Si Si2 0.805991 0.201091 0.113942
Si Si3 0.114041 0.903307 0.566684
Si Si4 0.157230 0.888170 0.171666
Si Si5 0.047781 0.643611 0.949724
Si Si6 0.416864 0.199541 0.166872
O O1 0.338450 0.580786 0.170830
O O2 0.244065 0.431202 0.242113
O O3 0.317736 0.321520 0.166298
O O4 0.071226 0.474126 0.097455
O O5 0.733662 0.314820 0.136714
O O6 0.920247 0.283731 0.105371
O O7 0.699640 0.129512 0.031466
O O8 0.289942 0.895886 0.600463
O O9 0.044305 0.755658 0.539004
O O10 0.103350 0.966299 0.631197
O O11 0.000000 0.000000 0.500000
O O12 0.034107 0.778956 0.158623
O O13 0.500000 0.136277 0.250000
#
# Coordination Sequence:
#
# PCOD9295181 Si02
#       6
#     8   8   8   8   8   8
#     4  10  23  42  66  92 130 177 221 284 345 408
#     4  11  23  42  65  98 135 175 223 284 340 416
#     4  11  22  43  66  95 135 177 225 284 335 413
#     4  11  24  41  63 101 128 171 231 274 350 407
#     4  10  23  44  64  95 134 175 231 271 347 418
#     4   9  22  43  64  93 130 172 226 278 340 408
#
# _framework density 24.787113000000002
#
# number of rings (size 3 to 8) (size 9 to 14) (size 15 to 20)
#    0.000    1.667    1.667    1.500    7.000    2.667 
#    3.000    0.000    0.000    0.000    0.000    0.000 
#    0.000    0.000    0.000    0.000    0.000    0.000 
#
# Total GULP energy -133964.504917 kJ/mol
# GULP energy per Si atom -5581.854372 kJ/mol
# Density = 2.473070 g / cm^3
# Si number density = 24.787113 Si / 1000 Ang^3
#
#
#
# Elastic Constant Matrix: (Units=GPa)
#
#
# Indices 1 2 3 4 5 6 
#
# 1 56.1746 -1.1665 6.7075 0.0000 1.0293 0.0000
# 2 -1.1665 49.1079 24.0951 0.0000 4.2987 0.0000
# 3 6.7075 24.0951 48.8689 0.0000 0.6717 0.0000
# 4 0.0000 0.0000 0.0000 120.7496 0.0000 42.2470
# 5 1.0293 4.2987 0.6717 0.0000 30.3185 0.0000
# 6 0.0000 0.0000 0.0000 42.2470 0.0000 67.1348
#
#
#
# Elastic Compliance Matrix: (Units=1/GPa)
#
#
# Indices 1 2 3 4 5 6 
#
# 1 0.018298 0.002291 -0.003629 0.000000 -0.000866 0.000000
# 2 0.002291 0.027529 -0.013837 0.000000 -0.003674 0.000000
# 3 -0.003629 -0.013837 0.027763 0.000000 0.001470 0.000000
# 4 0.000000 0.000000 0.000000 0.010620 0.000000 -0.006683
# 5 -0.000866 -0.003674 0.001470 0.000000 0.033501 0.000000
# 6 0.000000 0.000000 0.000000 -0.006683 0.000000 0.019101
#
#
# Mechanical properties :
#
#
# Convention : Reuss Voigt Hill
#
# Bulk Modulus (GPa) = 23.12681 23.71374 23.42028
# Shear Modulus (GPa) = 27.53667 51.94160 39.73914
#
# Velocity S-wave (km/s) = 3.33667 4.58264 4.00836
# Velocity P-wave (km/s) = 4.91884 6.13095 5.55803
#
# Compressibility (1/GPa) = 0.04323985
#
# Stress axis : x y z
#
# Youngs Moduli (GPa) = 54.64947 36.32573 36.01865
#
# Poissons Ratio (x) = -0.08323 0.13072
# Poissons Ratio (y) = -0.12521 0.49840
# Poissons Ratio (z) = 0.19834 0.50265
#
# Static dielectric constant tensor:
#      x y z
#    x 1.949580 0.000000 -0.025300 
#    y 0.000000 2.039020 0.000000 
#    z -0.025300 0.000000 1.850320 
# 
# From -- ./inp_files/237223.got.cif
#   From: 2010.05.17/outbox.cif.g08.bks.cpg/sg15_119_cif.got.tgz:237223.got - 2010.06.03 18:47:42.
