data_PCOD9295010
_publ_section_title
;
Structure prediction by ZEFSAII (Michael W. Deem and Ramdas Pophale) SiO2 
 PCOD9295010
Probable space group: C 2/C
;
_chemical_formula_sum "Si O2"
_cell_formula_units_Z 52
_cell_length_a 15.773881
_cell_length_b 32.462209
_cell_length_c 5.146805
_cell_angle_alpha 90.000000
_cell_angle_beta 114.692642
_cell_angle_gamma 90.000000
_cell_volume 2394.466872
_symmetry_space_group_name_H-M "C 2/C"
_symmetry_group_IT_number 15
_symmetry_cell_setting 'monoclinic'
loop_
_space_group_symop_operation_xyz
x,y,z
-x,y,1/2-z
-x,-y,-z
x,-y,1/2+z
1/2+x,1/2+y,z
1/2-x,1/2+y,1/2-z
1/2-x,1/2-y,-z
1/2+x,1/2-y,1/2+z
loop_
_atom_site_type_symbol
_atom_site_label
_atom_site_fract_x
_atom_site_fract_y
_atom_site_fract_z
Si Si1 0.319982 0.854018 0.738131
Si Si2 0.736340 0.612358 0.614742
Si Si3 0.500000 0.271153 0.250000
Si Si4 0.000000 0.387929 0.750000
Si Si5 0.000000 0.553628 0.750000
Si Si6 0.710486 0.976554 0.466730
Si Si7 0.669000 0.759870 0.690694
Si Si8 0.893860 0.815300 0.721709
O O1 0.248908 0.871955 0.427730
O O2 0.412608 0.859151 0.689400
O O3 0.311036 0.807721 0.828709
O O4 0.317745 0.878692 0.005046
O O5 0.736555 0.563224 0.584589
O O6 0.654584 0.641318 0.392688
O O7 0.439509 0.242078 0.356595
O O8 0.582105 0.301038 0.457400
O O9 0.001629 0.417968 0.506369
O O10 0.902622 0.529128 0.663347
O O11 0.734286 0.987117 0.794422
O O12 0.664547 0.722840 0.475854
O O13 0.750000 0.750000 0.000000
O O14 0.000000 0.815967 0.750000
#
# Coordination Sequence:
#
# PCOD9295010 Si02
#       8
#     8   8   4   4   4   8   8   8
#     4  12  24  39  64  95 138 183 222 272 321 388
#     4  12  25  44  68  96 131 172 227 280 337 404
#     4  10  23  42  60  95 132 178 236 271 332 390
#     4  12  21  41  58  96 140 182 226 262 318 381
#     4  12  22  41  64  91 136 178 222 267 318 399
#     4  12  24  43  66  97 132 173 218 275 342 412
#     4  11  22  39  64  93 135 183 221 283 331 389
#     4  10  24  44  67  97 130 175 234 280 340 402
#
# _framework density 21.716733999999999
#
# number of rings (size 3 to 8) (size 9 to 14) (size 15 to 20)
#    0.000    0.615    4.615    3.692    4.308    1.231 
#    6.923    0.000    0.000    0.923    0.000    0.000 
#    0.000    0.000    0.000    0.000    0.000    0.000 
#
# Total GULP energy -144860.023127 kJ/mol
# GULP energy per Si atom -5571.539351 kJ/mol
# Density = 2.166731 g / cm^3
# Si number density = 21.716734 Si / 1000 Ang^3
#
#
#
# Elastic Constant Matrix: (Units=GPa)
#
#
# Indices 1 2 3 4 5 6 
#
# 1 72.0407 25.3555 21.5268 0.0000 -11.1724 0.0000
# 2 25.3555 104.4301 31.2355 0.0000 -2.7564 0.0000
# 3 21.5268 31.2355 96.7090 0.0000 -9.9791 0.0000
# 4 0.0000 0.0000 0.0000 13.9901 0.0000 -4.3971
# 5 -11.1724 -2.7564 -9.9791 0.0000 35.9863 0.0000
# 6 0.0000 0.0000 0.0000 -4.3971 0.0000 30.9197
#
#
#
# Elastic Compliance Matrix: (Units=1/GPa)
#
#
# Indices 1 2 3 4 5 6 
#
# 1 0.016308 -0.003202 -0.002161 0.000000 0.004219 0.000000
# 2 -0.003202 0.011229 -0.003014 0.000000 -0.000970 0.000000
# 3 -0.002161 -0.003014 0.012046 0.000000 0.002439 0.000000
# 4 0.000000 0.000000 0.000000 0.074824 0.000000 0.010641
# 5 0.004219 -0.000970 0.002439 0.000000 0.029700 0.000000
# 6 0.000000 0.000000 0.000000 0.010641 0.000000 0.033855
#
#
# Mechanical properties :
#
#
# Convention : Reuss Voigt Hill
#
# Bulk Modulus (GPa) = 43.80186 47.71282 45.75734
# Shear Modulus (GPa) = 24.71264 29.18333 26.94798
#
# Velocity S-wave (km/s) = 3.37702 3.66979 3.52644
# Velocity P-wave (km/s) = 5.95139 6.32255 6.13978
#
# Compressibility (1/GPa) = 0.02283008
#
# Stress axis : x y z
#
# Youngs Moduli (GPa) = 61.32022 89.05372 83.01221
#
# Poissons Ratio (x) = 0.28515 0.17935
# Poissons Ratio (y) = 0.19634 0.25022
# Poissons Ratio (z) = 0.13248 0.26843
#
# Static dielectric constant tensor:
#      x y z
#    x 1.900400 0.000000 -0.082610 
#    y 0.000000 1.836360 0.000000 
#    z -0.082610 0.000000 2.054440 
# 
# From -- ./inp_files/12094.got.cif
#   From: 2010.05.17/outbox.cif.g08.bks.cpg/sg15_7_cif.got.tgz:12094.got - 2010.06.03 18:47:42.
