data_PCOD9295119
_publ_section_title
;
Structure prediction by ZEFSAII (Michael W. Deem and Ramdas Pophale) SiO2 
 PCOD9295119
Probable space group: C 2/C
;
_chemical_formula_sum "Si O2"
_cell_formula_units_Z 52
_cell_length_a 21.207550
_cell_length_b 14.176268
_cell_length_c 17.696370
_cell_angle_alpha 90.000000
_cell_angle_beta 152.003905
_cell_angle_gamma 90.000000
_cell_volume 2497.412163
_symmetry_space_group_name_H-M "C 2/C"
_symmetry_group_IT_number 15
_symmetry_cell_setting 'monoclinic'
loop_
_space_group_symop_operation_xyz
x,y,z
-x,y,1/2-z
-x,-y,-z
x,-y,1/2+z
1/2+x,1/2+y,z
1/2-x,1/2+y,1/2-z
1/2-x,1/2-y,-z
1/2+x,1/2-y,1/2+z
loop_
_atom_site_type_symbol
_atom_site_label
_atom_site_fract_x
_atom_site_fract_y
_atom_site_fract_z
Si Si1 0.782329 0.353609 0.257361
Si Si2 0.363391 0.956204 0.890500
Si Si3 0.500000 0.517596 0.750000
Si Si4 0.380158 0.703877 0.673061
Si Si5 0.123030 0.357334 0.431940
Si Si6 0.675251 0.639877 0.488148
Si Si7 0.925865 0.273937 0.889379
O O1 0.769508 0.453474 0.286077
O O2 0.786107 0.368131 0.171282
O O3 0.646732 0.297261 0.130887
O O4 0.918718 0.299681 0.427815
O O5 0.338771 0.869443 0.808236
O O6 0.372631 0.911429 0.983694
O O7 0.500000 0.000000 0.000000
O O8 0.394225 0.591013 0.675184
O O9 0.427594 0.446732 0.615518
O O10 0.500000 0.745379 0.750000
O O11 0.250000 0.750000 0.500000
O O12 0.405457 0.732143 0.785403
O O13 0.256360 0.368130 0.521849
O O14 0.111015 0.243696 0.428690
O O15 0.000000 0.391049 0.250000
#
# Coordination Sequence:
#
# PCOD9295119 Si02
#       7
#     8   8   4   8   8   8   8
#     4  11  25  42  73 102 141 189 234 305 361 442
#     4  10  23  42  65 101 136 180 236 286 356 433
#     4  10  26  46  70 108 138 180 248 288 362 430
#     4  10  24  45  73 101 141 187 237 299 358 433
#     4  11  22  43  69 100 137 186 230 292 362 428
#     4  11  24  43  73  99 147 179 237 297 363 437
#     4  11  23  46  66 101 141 181 239 292 369 422
#
# _framework density 20.821555
#
# number of rings (size 3 to 8) (size 9 to 14) (size 15 to 20)
#    0.462    0.923    2.308    2.769    4.308    0.000 
#    0.000    1.538    0.000    0.000    0.000    0.000 
#    0.000    0.000    0.000    0.000    0.000    0.000 
#
# Total GULP energy -144973.054252 kJ/mol
# GULP energy per Si atom -5575.886702 kJ/mol
# Density = 2.077416 g / cm^3
# Si number density = 20.821555 Si / 1000 Ang^3
#
#
#
# Elastic Constant Matrix: (Units=GPa)
#
#
# Indices 1 2 3 4 5 6 
#
# 1 118.4333 42.4495 27.2163 0.0000 -17.2286 0.0000
# 2 42.4495 140.9188 34.0491 0.0001 -12.6635 0.0001
# 3 27.2163 34.0491 87.8045 0.0001 -14.4313 0.0001
# 4 0.0000 0.0001 0.0001 22.4307 0.0001 -4.0522
# 5 -17.2286 -12.6635 -14.4313 0.0001 26.8873 0.0001
# 6 0.0000 0.0001 0.0001 -4.0522 0.0001 26.8871
#
#
#
# Elastic Compliance Matrix: (Units=1/GPa)
#
#
# Indices 1 2 3 4 5 6 
#
# 1 0.010307 -0.002314 -0.001526 0.000000 0.004695 0.000000
# 2 -0.002314 0.008476 -0.002366 0.000000 0.001240 0.000000
# 3 -0.001526 -0.002366 0.013639 0.000000 0.005228 0.000000
# 4 0.000000 0.000000 0.000000 0.045830 0.000000 0.006907
# 5 0.004695 0.001240 0.005228 0.000000 0.043591 0.000000
# 6 0.000000 0.000000 0.000000 0.006907 0.000000 0.038233
#
#
# Mechanical properties :
#
#
# Convention : Reuss Voigt Hill
#
# Bulk Modulus (GPa) = 49.97423 61.62069 55.79746
# Shear Modulus (GPa) = 27.90843 31.47048 29.68945
#
# Velocity S-wave (km/s) = 3.66507 3.89194 3.78021
# Velocity P-wave (km/s) = 6.47793 7.06082 6.77565
#
# Compressibility (1/GPa) = 0.02001031
#
# Stress axis : x y z
#
# Youngs Moduli (GPa) = 97.02469 117.97393 73.32119
#
# Poissons Ratio (x) = 0.27301 0.11186
# Poissons Ratio (y) = 0.22453 0.17348
# Poissons Ratio (z) = 0.14802 0.27912
#
# Static dielectric constant tensor:
#      x y z
#    x 1.810310 0.000000 0.019380 
#    y 0.000000 1.787980 0.000000 
#    z 0.019380 0.000000 1.754820 
# 
# From -- ./inp_files/215596.got.cif
#   From: 2010.05.17/outbox.cif.g08.bks.cpg/sg15_108_cif.got.tgz:215596.got - 2010.06.03 18:47:42.
