data_PCOD9295247
_publ_section_title
;
Structure prediction by ZEFSAII (Michael W. Deem and Ramdas Pophale) SiO2 
 PCOD9295247
Probable space group: C 2/C
;
_chemical_formula_sum "Si O2"
_cell_formula_units_Z 60
_cell_length_a 8.069983
_cell_length_b 26.340300
_cell_length_c 19.713388
_cell_angle_alpha 90.000000
_cell_angle_beta 137.319570
_cell_angle_gamma 90.000000
_cell_volume 2840.702529
_symmetry_space_group_name_H-M "C 2/C"
_symmetry_group_IT_number 15
_symmetry_cell_setting 'monoclinic'
loop_
_space_group_symop_operation_xyz
x,y,z
-x,y,1/2-z
-x,-y,-z
x,-y,1/2+z
1/2+x,1/2+y,z
1/2-x,1/2+y,1/2-z
1/2-x,1/2-y,-z
1/2+x,1/2-y,1/2+z
loop_
_atom_site_type_symbol
_atom_site_label
_atom_site_fract_x
_atom_site_fract_y
_atom_site_fract_z
Si Si1 0.282314 0.850640 0.765940
Si Si2 0.764641 0.068144 0.527989
Si Si3 0.782049 0.543982 0.327058
Si Si4 0.706688 0.204112 0.934772
Si Si5 0.706251 0.956565 0.259986
Si Si6 0.770469 0.630249 0.847396
Si Si7 0.000000 0.761905 0.750000
Si Si8 0.325517 0.365621 0.914956
O O1 0.268035 0.895305 0.816527
O O2 0.142674 0.800237 0.743566
O O3 0.566921 0.837264 0.845296
O O4 0.178880 0.877022 0.666608
O O5 0.511703 0.036705 0.446514
O O6 0.720755 0.111317 0.572177
O O7 0.813621 0.090270 0.467228
O O8 0.020169 0.042913 0.627161
O O9 0.500000 0.526276 0.250000
O O10 0.862256 0.512847 0.284997
O O11 0.478277 0.170342 0.891134
O O12 0.660151 0.227009 0.846652
O O13 0.750000 0.250000 0.000000
O O14 0.942010 0.168612 0.002370
O O15 0.500000 0.937986 0.250000
O O16 0.704485 0.919170 0.194190
O O17 0.500000 0.651287 0.750000
#
# Coordination Sequence:
#
# PCOD9295247 Si02
#       8
#     8   8   8   8   8   8   4   8
#     4  10  23  45  65  97 139 176 220 291 338 406
#     4  10  24  45  70  97 135 185 225 282 352 405
#     4  11  24  41  71  98 136 180 225 278 345 414
#     4  12  27  42  69 103 132 185 238 278 352 419
#     4  11  25  45  68 103 140 174 231 285 347 416
#     4  10  25  46  69  96 140 179 226 287 345 413
#     4  12  26  44  68 100 142 182 230 290 348 410
#     4  10  23  42  67  94 132 175 229 276 342 406
#
# _framework density 21.121535999999999
#
# number of rings (size 3 to 8) (size 9 to 14) (size 15 to 20)
#    0.000    1.333    2.000    2.000   14.000    4.267 
#    0.000    0.000    0.000    0.000    0.000    0.000 
#    0.000    0.000    0.000    0.000    0.000    0.000 
#
# Total GULP energy -167390.443475 kJ/mol
# GULP energy per Si atom -5579.681449 kJ/mol
# Density = 2.107346 g / cm^3
# Si number density = 21.121536 Si / 1000 Ang^3
#
#
#
# Elastic Constant Matrix: (Units=GPa)
#
#
# Indices 1 2 3 4 5 6 
#
# 1 72.5266 21.2875 47.4304 0.0001 6.4207 0.0000
# 2 21.2875 55.0316 50.0142 0.0000 18.8964 0.0000
# 3 47.4304 50.0142 162.9295 0.0001 7.7257 0.0000
# 4 0.0001 0.0000 0.0001 28.1602 0.0001 -12.3293
# 5 6.4207 18.8964 7.7257 0.0001 32.0379 0.0000
# 6 0.0000 0.0000 0.0000 -12.3293 0.0000 -14.5253
#
#
#
# Elastic Compliance Matrix: (Units=1/GPa)
#
#
# Indices 1 2 3 4 5 6 
#
# 1 0.017391 -0.002549 -0.004235 0.000000 -0.000961 0.000000
# 2 -0.002549 0.032572 -0.008467 0.000000 -0.016659 0.000000
# 3 -0.004235 -0.008467 0.009805 0.000000 0.003478 0.000000
# 4 0.000000 0.000000 0.000000 0.025890 0.000000 -0.021976
# 5 -0.000961 -0.016659 0.003478 0.000000 0.040393 0.000000
# 6 0.000000 0.000000 0.000000 -0.021976 0.000000 -0.050192
#
#
# Mechanical properties :
#
#
# Convention : Reuss Voigt Hill
#
# Bulk Modulus (GPa) = 34.16778 58.66131 46.41454
# Shear Modulus (GPa) = 43.06139 20.58494 31.82317
#
# Velocity S-wave (km/s) = 4.52014 3.12524 3.88579
# Velocity P-wave (km/s) = 6.59197 6.39190 6.49271
#
# Compressibility (1/GPa) = 0.02926734
#
# Stress axis : x y z
#
# Youngs Moduli (GPa) = 57.50266 30.70081 101.99389
#
# Poissons Ratio (x) = 0.07824 0.43191
# Poissons Ratio (y) = 0.14655 0.86357
# Poissons Ratio (z) = 0.24350 0.25994
#
# Static dielectric constant tensor:
#      x y z
#    x 1.830970 0.000000 -0.030390 
#    y 0.000000 1.701360 0.000000 
#    z -0.030390 0.000000 1.785970 
# 
# From -- ./inp_files/234576.got.cif
#   From: 2010.05.17/outbox.cif.g08.bks.cpg/sg15_118_cif.got.tgz:234576.got - 2010.06.03 18:47:42.
