data_PCOD9295489
_publ_section_title
;
Structure prediction by ZEFSAII (Michael W. Deem and Ramdas Pophale) SiO2 
 PCOD9295489
Probable space group: C 2/C
;
_chemical_formula_sum "Si O2"
_cell_formula_units_Z 32
_cell_length_a 21.111605
_cell_length_b 12.056496
_cell_length_c 15.628946
_cell_angle_alpha 90.000000
_cell_angle_beta 162.180009
_cell_angle_gamma 90.000000
_cell_volume 1217.397744
_symmetry_space_group_name_H-M "C 2/C"
_symmetry_group_IT_number 15
_symmetry_cell_setting 'monoclinic'
loop_
_space_group_symop_operation_xyz
x,y,z
-x,y,1/2-z
-x,-y,-z
x,-y,1/2+z
1/2+x,1/2+y,z
1/2-x,1/2+y,1/2-z
1/2-x,1/2-y,-z
1/2+x,1/2-y,1/2+z
loop_
_atom_site_type_symbol
_atom_site_label
_atom_site_fract_x
_atom_site_fract_y
_atom_site_fract_z
Si Si1 0.035906 0.189887 0.203530
Si Si2 0.758814 0.135486 0.457440
Si Si3 0.185019 0.973865 0.310326
Si Si4 0.754711 0.620882 0.256862
O O1 0.250000 0.250000 0.500000
O O2 0.072367 0.089210 0.188010
O O3 0.000000 0.137917 0.250000
O O4 0.866757 0.277216 0.950378
O O5 0.750000 0.250000 0.500000
O O6 0.672654 0.127127 0.249346
O O7 0.000000 0.114841 0.750000
O O8 0.687497 0.052081 0.440231
O O9 0.295847 0.007380 0.364110
O O10 0.998669 0.883038 0.068329
#
# Coordination Sequence:
#
# PCOD9295489 Si02
#       4
#     8   8   8   8
#     4  12  24  44  71 107 150 194 255 306 380 461
#     4  10  23  44  71 109 146 191 248 315 376 454
#     4  10  23  48  71 104 153 192 258 309 380 465
#     4  10  23  42  76 103 140 204 240 314 382 435
#
# _framework density 26.285575000000001
#
# number of rings (size 3 to 8) (size 9 to 14) (size 15 to 20)
#    0.000    1.500    2.500    2.250   10.500    0.000 
#    4.500    5.000    0.000    0.000    0.000    0.000 
#    0.000    0.000    0.000    0.000    0.000    0.000 
#
# Total GULP energy -89102.423030 kJ/mol
# GULP energy per Si atom -5568.901439 kJ/mol
# Density = 2.622575 g / cm^3
# Si number density = 26.285575 Si / 1000 Ang^3
#
#
#
# Elastic Constant Matrix: (Units=GPa)
#
#
# Indices 1 2 3 4 5 6 
#
# 1 240.7764 62.3106 43.2114 0.0005 -66.0796 0.0002
# 2 62.3106 127.3631 61.5671 0.0002 -11.2941 0.0001
# 3 43.2114 61.5671 132.9413 0.0005 -31.4267 0.0005
# 4 0.0005 0.0002 0.0005 37.4235 0.0004 -4.0571
# 5 -66.0796 -11.2941 -31.4267 0.0004 59.7550 0.0004
# 6 0.0002 0.0001 0.0005 -4.0571 0.0004 57.2841
#
#
#
# Elastic Compliance Matrix: (Units=1/GPa)
#
#
# Indices 1 2 3 4 5 6 
#
# 1 0.006857 -0.003182 0.001022 0.000000 0.007519 0.000000
# 2 -0.003182 0.011614 -0.005318 0.000000 -0.004121 0.000000
# 3 0.001022 -0.005318 0.011057 0.000000 0.005941 0.000000
# 4 0.000000 0.000000 0.000000 0.026928 0.000000 0.001907
# 5 0.007519 -0.004121 0.005941 0.000000 0.027395 0.000000
# 6 0.000000 0.000000 0.000000 0.001907 0.000000 0.017592
#
#
# Mechanical properties :
#
#
# Convention : Reuss Voigt Hill
#
# Bulk Modulus (GPa) = 68.62712 92.80657 80.71685
# Shear Modulus (GPa) = 41.23522 53.15865 47.19694
#
# Velocity S-wave (km/s) = 3.96503 4.50193 4.24198
# Velocity P-wave (km/s) = 6.86490 7.89980 7.40047
#
# Compressibility (1/GPa) = 0.01457150
#
# Stress axis : x y z
#
# Youngs Moduli (GPa) = 145.84340 86.10455 90.43912
#
# Poissons Ratio (x) = 0.27398 -0.09246
# Poissons Ratio (y) = 0.46407 0.48099
# Poissons Ratio (z) = -0.14909 0.45794
#
# Static dielectric constant tensor:
#      x y z
#    x 0.626670 0.000000 -0.532960 
#    y 0.000000 2.069320 0.000000 
#    z -0.532960 0.000000 2.062830 
# 
# From -- ./inp_files/168669.got.cif
#   From: 2010.05.17/outbox.cif.g08.bks.cpg/sg15_85_cif.got.tgz:168669.got - 2010.06.03 18:47:42.
