data_PCOD9295710
_publ_section_title
;
Structure prediction by ZEFSAII (Michael W. Deem and Ramdas Pophale) SiO2 
 PCOD9295710
Probable space group: C 2/C
;
_chemical_formula_sum "Si O2"
_cell_formula_units_Z 44
_cell_length_a 5.674912
_cell_length_b 34.429569
_cell_length_c 10.649244
_cell_angle_alpha 90.000000
_cell_angle_beta 102.403944
_cell_angle_gamma 90.000000
_cell_volume 2032.131381
_symmetry_space_group_name_H-M "C 2/C"
_symmetry_group_IT_number 15
_symmetry_cell_setting 'monoclinic'
loop_
_space_group_symop_operation_xyz
x,y,z
-x,y,1/2-z
-x,-y,-z
x,-y,1/2+z
1/2+x,1/2+y,z
1/2-x,1/2+y,1/2-z
1/2-x,1/2-y,-z
1/2+x,1/2-y,1/2+z
loop_
_atom_site_type_symbol
_atom_site_label
_atom_site_fract_x
_atom_site_fract_y
_atom_site_fract_z
Si Si1 0.500000 0.834540 0.250000
Si Si2 0.306817 0.794752 0.985405
Si Si3 0.457246 0.641137 0.390455
Si Si4 0.983449 0.933502 0.472618
Si Si5 0.347912 0.997113 0.609561
Si Si6 0.000000 0.329049 0.750000
Si Si7 0.000000 0.880839 0.250000
O O1 0.522867 0.809837 0.381840
O O2 0.244122 0.858125 0.234958
O O3 0.393781 0.802345 0.851088
O O4 0.068468 0.821792 0.971420
O O5 0.250000 0.750000 0.000000
O O6 0.500000 0.647166 0.250000
O O7 0.586475 0.601519 0.443778
O O8 0.169178 0.642932 0.355251
O O9 0.093344 0.908766 0.371913
O O10 0.780461 0.961217 0.392746
O O11 0.156836 0.962903 0.565186
O O12 0.500000 0.988914 0.750000
O O13 0.500000 0.000000 0.500000
#
# Coordination Sequence:
#
# PCOD9295710 Si02
#       7
#     4   8   8   8   8   4   4
#     4  12  28  48  78 115 149 198 257 311 384 448
#     4  11  26  46  71 107 147 195 246 311 379 454
#     4  10  23  43  68 101 133 186 242 296 368 441
#     4  11  25  43  69 102 143 186 247 303 368 451
#     4  11  27  44  69 103 142 193 242 307 376 441
#     4  10  24  45  70 101 148 190 248 307 374 447
#     4  12  26  49  78 110 151 196 253 318 378 451
#
# _framework density 21.652141
#
# number of rings (size 3 to 8) (size 9 to 14) (size 15 to 20)
#    0.000    1.091    1.818    2.182   11.455    4.364 
#    0.000    0.000    0.000    0.000    0.000    0.000 
#    0.000    0.000    0.000    0.000    0.000    0.000 
#
# Total GULP energy -122583.716723 kJ/mol
# GULP energy per Si atom -5571.987124 kJ/mol
# Density = 2.160286 g / cm^3
# Si number density = 21.652141 Si / 1000 Ang^3
#
#
#
# Elastic Constant Matrix: (Units=GPa)
#
#
# Indices 1 2 3 4 5 6 
#
# 1 57.0432 30.8993 18.1852 0.0000 3.2805 0.0000
# 2 30.8993 135.7663 32.5201 0.0000 11.1327 0.0000
# 3 18.1852 32.5201 140.7916 0.0000 9.1011 0.0000
# 4 0.0000 0.0000 0.0000 24.9587 0.0000 -8.7047
# 5 3.2805 11.1327 9.1011 0.0000 32.7877 0.0000
# 6 0.0000 0.0000 0.0000 -8.7047 0.0000 9.7018
#
#
#
# Elastic Compliance Matrix: (Units=1/GPa)
#
#
# Indices 1 2 3 4 5 6 
#
# 1 0.020352 -0.004227 -0.001643 0.000000 -0.000145 0.000000
# 2 -0.004227 0.008832 -0.001352 0.000000 -0.002201 0.000000
# 3 -0.001643 -0.001352 0.007725 0.000000 -0.001521 0.000000
# 4 0.000000 0.000000 0.000000 0.058314 0.000000 0.052321
# 5 -0.000145 -0.002201 -0.001521 0.000000 0.031683 0.000000
# 6 0.000000 0.000000 0.000000 0.052321 0.000000 0.150017
#
#
# Mechanical properties :
#
#
# Convention : Reuss Voigt Hill
#
# Bulk Modulus (GPa) = 44.51064 55.20113 49.85588
# Shear Modulus (GPa) = 16.73051 30.28942 23.50996
#
# Velocity S-wave (km/s) = 2.78276 3.74426 3.29873
# Velocity P-wave (km/s) = 5.56118 6.65151 6.13063
#
# Compressibility (1/GPa) = 0.02246654
#
# Stress axis : x y z
#
# Youngs Moduli (GPa) = 49.13476 113.22774 129.44160
#
# Poissons Ratio (x) = 0.47856 0.21269
# Poissons Ratio (y) = 0.20767 0.17498
# Poissons Ratio (z) = 0.08074 0.15306
#
# Static dielectric constant tensor:
#      x y z
#    x 2.304160 0.000000 0.020300 
#    y 0.000000 1.740280 0.000000 
#    z 0.020300 0.000000 1.827810 
# 
# From -- ./inp_files/74029.got.cif
#   From: 2010.05.17/outbox.cif.g08.bks.cpg/sg15_38_cif.got.tgz:74029.got - 2010.06.03 18:47:42.
