data_PCOD9295338
_publ_section_title
;
Structure prediction by ZEFSAII (Michael W. Deem and Ramdas Pophale) SiO2 
 PCOD9295338
Probable space group: C 2/C
;
_chemical_formula_sum "Si O2"
_cell_formula_units_Z 52
_cell_length_a 11.735211
_cell_length_b 8.771386
_cell_length_c 23.291759
_cell_angle_alpha 90.000000
_cell_angle_beta 61.077095
_cell_angle_gamma 90.000000
_cell_volume 2098.476356
_symmetry_space_group_name_H-M "C 2/C"
_symmetry_group_IT_number 15
_symmetry_cell_setting 'monoclinic'
loop_
_space_group_symop_operation_xyz
x,y,z
-x,y,1/2-z
-x,-y,-z
x,-y,1/2+z
1/2+x,1/2+y,z
1/2-x,1/2+y,1/2-z
1/2-x,1/2-y,-z
1/2+x,1/2-y,1/2+z
loop_
_atom_site_type_symbol
_atom_site_label
_atom_site_fract_x
_atom_site_fract_y
_atom_site_fract_z
Si Si1 0.500000 0.273728 0.750000
Si Si2 0.062767 0.210696 0.796082
Si Si3 0.734267 0.429218 0.630997
Si Si4 0.125118 0.164240 0.958082
Si Si5 0.316606 0.045577 0.724746
Si Si6 0.098621 0.760286 0.053478
Si Si7 0.334584 0.050139 0.984348
O O1 0.595496 0.377126 0.688572
O O2 0.415826 0.165184 0.728373
O O3 0.172666 0.085068 0.782800
O O4 0.000000 0.184398 0.750000
O O5 0.948451 0.216794 0.870630
O O6 0.135640 0.374419 0.774781
O O7 0.813439 0.269301 0.607560
O O8 0.797672 0.546310 0.660259
O O9 0.985097 0.126516 0.966141
O O10 0.243008 0.059883 0.950883
O O11 0.107120 0.283260 0.015904
O O12 0.062054 0.583398 0.046502
O O13 0.250000 0.750000 0.000000
O O14 0.244886 0.020093 0.062422
#
# Coordination Sequence:
#
# PCOD9295338 Si02
#       7
#     4   8   8   8   8   8   8
#     4  12  24  40  72 106 142 192 254 304 372 440
#     4  12  29  49  74 110 152 195 256 299 379 450
#     4  10  23  42  69 105 137 187 246 304 361 445
#     4   9  20  43  70  97 132 178 241 284 357 438
#     4  12  25  47  75 105 147 202 241 314 364 450
#     4  12  26  44  70 107 148 189 236 314 369 438
#     4   9  22  42  73  97 134 188 236 301 359 433
#
# _framework density 24.779883000000002
#
# number of rings (size 3 to 8) (size 9 to 14) (size 15 to 20)
#    0.923    0.308    3.846    0.462    5.385    3.077 
#    0.000    0.000    0.000    0.000    0.000    0.000 
#    0.000    0.000    0.000    0.000    0.000    0.000 
#
# Total GULP energy -145285.465912 kJ/mol
# GULP energy per Si atom -5587.902535 kJ/mol
# Density = 2.472348 g / cm^3
# Si number density = 24.779883 Si / 1000 Ang^3
#
#
#
# Elastic Constant Matrix: (Units=GPa)
#
#
# Indices 1 2 3 4 5 6 
#
# 1 161.6363 26.3291 77.8629 0.0000 4.3385 0.0000
# 2 26.3291 67.1371 31.4190 0.0000 2.6138 0.0000
# 3 77.8629 31.4190 139.7778 0.0000 -4.8076 0.0000
# 4 0.0000 0.0000 0.0000 30.7724 0.0000 -7.3535
# 5 4.3385 2.6138 -4.8076 0.0000 41.5104 0.0000
# 6 0.0000 0.0000 0.0000 -7.3535 0.0000 36.9241
#
#
#
# Elastic Compliance Matrix: (Units=1/GPa)
#
#
# Indices 1 2 3 4 5 6 
#
# 1 0.008625 -0.001184 -0.004585 0.000000 -0.001358 0.000000
# 2 -0.001184 0.016900 -0.003184 0.000000 -0.001309 0.000000
# 3 -0.004585 -0.003184 0.010489 0.000000 0.001895 0.000000
# 4 0.000000 0.000000 0.000000 0.034120 0.000000 0.006795
# 5 -0.001358 -0.001309 0.001895 0.000000 0.024534 0.000000
# 6 0.000000 0.000000 0.000000 0.006795 0.000000 0.028436
#
#
# Mechanical properties :
#
#
# Convention : Reuss Voigt Hill
#
# Bulk Modulus (GPa) = 55.22461 71.08592 63.15526
# Shear Modulus (GPa) = 34.00271 37.37070 35.68671
#
# Velocity S-wave (km/s) = 3.70833 3.88765 3.79905
# Velocity P-wave (km/s) = 6.37731 6.99292 6.69220
#
# Compressibility (1/GPa) = 0.01810787
#
# Stress axis : x y z
#
# Youngs Moduli (GPa) = 115.94665 59.17025 95.33598
#
# Poissons Ratio (x) = 0.07004 0.43711
# Poissons Ratio (y) = 0.13725 0.30359
# Poissons Ratio (z) = 0.53161 0.18843
#
# Static dielectric constant tensor:
#      x y z
#    x 2.106910 0.000000 -0.023050 
#    y 0.000000 2.088710 0.000000 
#    z -0.023050 0.000000 1.910080 
# 
# From -- ./inp_files/291468.got.cif
#   From: 2010.05.17/outbox.cif.g08.bks.cpg/sg15_146_cif.got.tgz:291468.got - 2010.06.03 18:47:42.
