data_PCOD9295908
_publ_section_title
;
Structure prediction by ZEFSAII (Michael W. Deem and Ramdas Pophale) SiO2 
 PCOD9295908
Probable space group: C 2/C
;
_chemical_formula_sum "Si O2"
_cell_formula_units_Z 24
_cell_length_a 19.602826
_cell_length_b 4.685903
_cell_length_c 15.029802
_cell_angle_alpha 90.000000
_cell_angle_beta 37.937181
_cell_angle_gamma 90.000000
_cell_volume 848.783779
_symmetry_space_group_name_H-M "C 2/C"
_symmetry_group_IT_number 15
_symmetry_cell_setting 'monoclinic'
loop_
_space_group_symop_operation_xyz
x,y,z
-x,y,1/2-z
-x,-y,-z
x,-y,1/2+z
1/2+x,1/2+y,z
1/2-x,1/2+y,1/2-z
1/2-x,1/2-y,-z
1/2+x,1/2-y,1/2+z
loop_
_atom_site_type_symbol
_atom_site_label
_atom_site_fract_x
_atom_site_fract_y
_atom_site_fract_z
Si Si1 0.406048 0.077952 0.786588
Si Si2 0.935375 0.161056 0.988294
Si Si3 0.291898 0.125894 0.079756
O O1 0.500000 0.227846 0.750000
O O2 0.472137 0.835122 0.664851
O O3 0.335520 0.284133 0.796595
O O4 0.322597 0.989945 0.951613
O O5 0.841379 0.407028 0.100709
O O6 0.860630 0.915051 0.021965
O O7 0.000000 0.000000 0.000000
#
# Coordination Sequence:
#
# PCOD9295908 Si02
#       3
#     8   8   8
#     4   9  22  42  74 109 148 197 253 318 376 452
#     4  11  24  45  73 112 156 199 253 319 390 458
#     4  10  23  43  72 110 149 201 258 308 383 461
#
# _framework density 28.275752000000001
#
# number of rings (size 3 to 8) (size 9 to 14) (size 15 to 20)
#    0.000    2.000    0.000    1.000    0.000   29.333 
#    0.000   10.000    0.000    8.000    0.000   11.667 
#    0.000    0.000    0.000    0.000    0.000    0.000 
#
# Total GULP energy -67106.371904 kJ/mol
# GULP energy per Si atom -5592.197659 kJ/mol
# Density = 2.821140 g / cm^3
# Si number density = 28.275752 Si / 1000 Ang^3
#
#
#
# Elastic Constant Matrix: (Units=GPa)
#
#
# Indices 1 2 3 4 5 6 
#
# 1 256.2779 123.2776 100.1321 0.1587 -49.2122 -0.0918
# 2 123.2776 199.3526 70.3971 -0.0175 -42.6712 -0.2542
# 3 100.1321 70.3971 122.4667 0.2710 -14.6495 -0.3398
# 4 0.1587 -0.0175 0.2710 48.7547 -0.2001 -18.3905
# 5 -49.2122 -42.6712 -14.6495 -0.2001 36.0722 0.3701
# 6 -0.0918 -0.2542 -0.3398 -18.3905 0.3701 78.7188
#
#
#
# Elastic Compliance Matrix: (Units=1/GPa)
#
#
# Indices 1 2 3 4 5 6 
#
# 1 0.007845 -0.001797 -0.004578 0.000010 0.006719 -0.000046
# 2 -0.001797 0.008430 -0.002604 0.000048 0.006465 -0.000005
# 3 -0.004578 -0.002604 0.012918 -0.000056 -0.004081 0.000048
# 4 0.000010 0.000048 -0.000056 0.022494 0.000118 0.005254
# 5 0.006719 0.006465 -0.004081 0.000118 0.042881 -0.000163
# 6 -0.000046 -0.000005 0.000048 0.005254 -0.000163 0.013932
#
#
# Mechanical properties :
#
#
# Convention : Reuss Voigt Hill
#
# Bulk Modulus (GPa) = 89.00017 129.52343 109.26180
# Shear Modulus (GPa) = 38.40180 51.66184 45.03182
#
# Velocity S-wave (km/s) = 3.68926 4.27906 3.99506
# Velocity P-wave (km/s) = 7.04923 8.38573 7.74636
#
# Compressibility (1/GPa) = 0.01123593
#
# Stress axis : x y z
#
# Youngs Moduli (GPa) = 127.46697 118.61715 77.41372
#
# Poissons Ratio (x) = 0.21310 0.35441
# Poissons Ratio (y) = 0.22900 0.20158
# Poissons Ratio (z) = 0.58356 0.30887
#
# Static dielectric constant tensor:
#      x y z
#    x 2.211500 -0.000010 0.015670 
#    y -0.000010 2.120190 0.000040 
#    z 0.015670 0.000040 2.389600 
# 
# From -- ./inp_files/164887.got.cif
#   From: 2010.05.17/outbox.cif.g08.bks.cpg/sg15_83_cif.got.tgz:164887.got - 2010.06.03 18:47:42.
