data_PCOD9295564
_publ_section_title
;
Structure prediction by ZEFSAII (Michael W. Deem and Ramdas Pophale) SiO2 
 PCOD9295564
Probable space group: C 2/C
;
_chemical_formula_sum "Si O2"
_cell_formula_units_Z 20
_cell_length_a 7.266238
_cell_length_b 21.507706
_cell_length_c 7.134651
_cell_angle_alpha 90.000000
_cell_angle_beta 44.184677
_cell_angle_gamma 90.000000
_cell_volume 777.128106
_symmetry_space_group_name_H-M "C 2/C"
_symmetry_group_IT_number 15
_symmetry_cell_setting 'monoclinic'
loop_
_space_group_symop_operation_xyz
x,y,z
-x,y,1/2-z
-x,-y,-z
x,-y,1/2+z
1/2+x,1/2+y,z
1/2-x,1/2+y,1/2-z
1/2-x,1/2-y,-z
1/2+x,1/2-y,1/2+z
loop_
_atom_site_type_symbol
_atom_site_label
_atom_site_fract_x
_atom_site_fract_y
_atom_site_fract_z
Si Si1 0.500000 0.632748 0.250000
Si Si2 0.287138 0.679286 0.038966
Si Si3 0.300077 0.989561 0.518899
O O1 0.418860 0.676429 0.141885
O O2 0.259251 0.584678 0.454413
O O3 0.000000 0.648497 0.250000
O O4 0.500000 0.648566 0.750000
O O5 0.250000 0.750000 0.000000
O O6 0.000000 0.016595 0.750000
O O7 0.369161 0.003934 0.220040
#
# Coordination Sequence:
#
# PCOD9295564 Si02
#       3
#     4   8   8
#     4  10  26  42  72  98 144 180 232 284 354 408
#     4  10  24  43  67 101 134 180 233 285 345 416
#     4  10  23  43  64  97 136 183 229 284 345 409
#
# _framework density 25.735783999999999
#
# number of rings (size 3 to 8) (size 9 to 14) (size 15 to 20)
#    1.200    0.800    0.000    1.200    5.600    8.000 
#    0.000    0.000    0.000    0.000    0.000    0.000 
#    0.000    0.000    0.000    0.000    0.000    0.000 
#
# Total GULP energy -55684.327170 kJ/mol
# GULP energy per Si atom -5568.432717 kJ/mol
# Density = 2.567721 g / cm^3
# Si number density = 25.735784 Si / 1000 Ang^3
#
#
#
# Elastic Constant Matrix: (Units=GPa)
#
#
# Indices 1 2 3 4 5 6 
#
# 1 309.6528 48.4151 128.3100 0.0000 14.3544 0.0000
# 2 48.4151 140.4345 28.6739 0.0000 24.2323 0.0000
# 3 128.3100 28.6739 244.1045 0.0000 -36.3702 0.0000
# 4 0.0000 0.0000 0.0000 -19.9155 0.0000 48.0450
# 5 14.3544 24.2323 -36.3702 0.0000 90.6707 0.0000
# 6 0.0000 0.0000 0.0000 48.0450 0.0000 66.6410
#
#
#
# Elastic Compliance Matrix: (Units=1/GPa)
#
#
# Indices 1 2 3 4 5 6 
#
# 1 0.004440 -0.000771 -0.002465 0.000000 -0.001485 0.000000
# 2 -0.000771 0.007975 -0.000884 0.000000 -0.002364 0.000000
# 3 -0.002465 -0.000884 0.005944 0.000000 0.003011 0.000000
# 4 0.000000 0.000000 0.000000 -0.018331 0.000000 0.013215
# 5 -0.001485 -0.002364 0.003011 0.000000 0.013104 0.000000
# 6 0.000000 0.000000 0.000000 0.013215 0.000000 0.005478
#
#
# Mechanical properties :
#
#
# Convention : Reuss Voigt Hill
#
# Bulk Modulus (GPa) = 98.80741 122.77665 110.79203
# Shear Modulus (GPa) = 165.43789 60.06543 112.75166
#
# Velocity S-wave (km/s) = 8.02638 4.83631 6.62619
# Velocity P-wave (km/s) = 11.15228 8.88801 10.08390
#
# Compressibility (1/GPa) = 0.01012070
#
# Stress axis : x y z
#
# Youngs Moduli (GPa) = 225.21924 125.39350 168.22338
#
# Poissons Ratio (x) = 0.09670 0.41461
# Poissons Ratio (y) = 0.17369 0.14864
# Poissons Ratio (z) = 0.55508 0.11080
#
# Static dielectric constant tensor:
#      x y z
#    x 2.205680 0.000000 0.397170 
#    y 0.000000 1.945980 0.000000 
#    z 0.397170 0.000000 2.836760 
# 
# From -- ./inp_files/1800.got.cif
#   From: 2010.05.17/outbox.cif.g08.bks.cpg/sg15_1_cif.got.tgz:1800.got - 2010.06.03 18:47:42.
