data_PCOD9295767
_publ_section_title
;
Structure prediction by ZEFSAII (Michael W. Deem and Ramdas Pophale) SiO2 
 PCOD9295767
Probable space group: C 2/C
;
_chemical_formula_sum "Si O2"
_cell_formula_units_Z 48
_cell_length_a 12.697173
_cell_length_b 29.879247
_cell_length_c 8.417715
_cell_angle_alpha 90.000000
_cell_angle_beta 134.621202
_cell_angle_gamma 90.000000
_cell_volume 2273.046106
_symmetry_space_group_name_H-M "C 2/C"
_symmetry_group_IT_number 15
_symmetry_cell_setting 'monoclinic'
loop_
_space_group_symop_operation_xyz
x,y,z
-x,y,1/2-z
-x,-y,-z
x,-y,1/2+z
1/2+x,1/2+y,z
1/2-x,1/2+y,1/2-z
1/2-x,1/2-y,-z
1/2+x,1/2-y,1/2+z
loop_
_atom_site_type_symbol
_atom_site_label
_atom_site_fract_x
_atom_site_fract_y
_atom_site_fract_z
Si Si1 0.861203 0.275567 0.500238
Si Si2 0.696204 0.361448 0.295318
Si Si3 0.142694 0.215324 0.295992
Si Si4 0.312764 0.955817 0.893974
Si Si5 0.651578 0.947863 0.190469
Si Si6 0.152262 0.131570 0.120762
O O1 0.750000 0.250000 0.500000
O O2 0.777577 0.316439 0.328310
O O3 0.911006 0.240475 0.420514
O O4 0.000000 0.291649 0.750000
O O5 0.777048 0.404503 0.311391
O O6 0.703174 0.359841 0.494496
O O7 0.524902 0.363298 0.065868
O O8 0.250000 0.250000 0.500000
O O9 0.213849 0.168885 0.308408
O O10 0.000000 0.205477 0.250000
O O11 0.199984 0.918467 0.714671
O O12 0.282422 0.007265 0.818234
O O13 0.473467 0.946783 0.984535
O O14 0.322585 0.950690 0.093693
#
# Coordination Sequence:
#
# PCOD9295767 Si02
#       6
#     8   8   8   8   8   8
#     4  12  25  46  70  99 134 184 230 279 337 409
#     4  11  25  43  69  97 133 178 228 272 333 407
#     4  12  27  44  67  98 137 177 227 283 338 397
#     4  10  23  43  69  99 138 172 220 274 335 400
#     4  10  23  43  69 103 133 175 221 274 333 404
#     4  11  25  44  66  97 135 180 222 279 335 401
#
# _framework density 21.117037
#
# number of rings (size 3 to 8) (size 9 to 14) (size 15 to 20)
#    0.000    1.000    1.667    4.000    7.000    2.000 
#    0.000    0.000    0.000    0.000    0.000    0.000 
#    0.000    0.000    0.000    0.000    0.000    0.000 
#
# Total GULP energy -134312.543022 kJ/mol
# GULP energy per Si atom -5596.355959 kJ/mol
# Density = 2.106897 g / cm^3
# Si number density = 21.117037 Si / 1000 Ang^3
#
#
#
# Elastic Constant Matrix: (Units=GPa)
#
#
# Indices 1 2 3 4 5 6 
#
# 1 93.3114 61.3451 16.7100 0.0000 -14.3402 0.0000
# 2 61.3451 174.5595 30.3926 0.0000 1.2859 0.0000
# 3 16.7100 30.3926 59.2360 0.0000 4.9776 0.0000
# 4 0.0000 0.0000 0.0000 39.6875 0.0000 -4.2485
# 5 -14.3402 1.2859 4.9776 0.0000 21.4367 0.0000
# 6 0.0000 0.0000 0.0000 -4.2485 0.0000 48.5614
#
#
#
# Elastic Compliance Matrix: (Units=1/GPa)
#
#
# Indices 1 2 3 4 5 6 
#
# 1 0.016694 -0.005445 -0.002939 0.000000 0.012176 0.000000
# 2 -0.005445 0.008069 -0.002303 0.000000 -0.003592 0.000000
# 3 -0.002939 -0.002303 0.019425 0.000000 -0.006338 0.000000
# 4 0.000000 0.000000 0.000000 0.025435 0.000000 0.002225
# 5 0.012176 -0.003592 -0.006338 0.000000 0.056482 0.000000
# 6 0.000000 0.000000 0.000000 0.002225 0.000000 0.020787
#
#
# Mechanical properties :
#
#
# Convention : Reuss Voigt Hill
#
# Bulk Modulus (GPa) = 43.82931 60.44473 52.13702
# Shear Modulus (GPa) = 28.43021 36.51440 32.47230
#
# Velocity S-wave (km/s) = 3.67320 4.16281 3.92564
# Velocity P-wave (km/s) = 6.22819 7.19661 6.72984
#
# Compressibility (1/GPa) = 0.02281578
#
# Stress axis : x y z
#
# Youngs Moduli (GPa) = 59.90232 123.92368 51.48099
#
# Poissons Ratio (x) = 0.67473 0.15129
# Poissons Ratio (y) = 0.32615 0.11854
# Poissons Ratio (z) = 0.17604 0.28534
#
# Static dielectric constant tensor:
#      x y z
#    x 1.729570 0.000000 -0.010030 
#    y 0.000000 1.737700 0.000000 
#    z -0.010030 0.000000 1.771580 
# 
# From -- ./inp_files/43915.got.cif
#   From: 2010.05.17/outbox.cif.g08.bks.cpg/sg15_22_cif.got.tgz:43915.got - 2010.06.03 18:47:42.
