data_PCOD9295729
_publ_section_title
;
Structure prediction by ZEFSAII (Michael W. Deem and Ramdas Pophale) SiO2 
 PCOD9295729
Probable space group: C 2/C
;
_chemical_formula_sum "Si O2"
_cell_formula_units_Z 28
_cell_length_a 4.938191
_cell_length_b 13.331829
_cell_length_c 16.696244
_cell_angle_alpha 90.000000
_cell_angle_beta 103.571392
_cell_angle_gamma 90.000000
_cell_volume 1068.507669
_symmetry_space_group_name_H-M "C 2/C"
_symmetry_group_IT_number 15
_symmetry_cell_setting 'monoclinic'
loop_
_space_group_symop_operation_xyz
x,y,z
-x,y,1/2-z
-x,-y,-z
x,-y,1/2+z
1/2+x,1/2+y,z
1/2-x,1/2+y,1/2-z
1/2-x,1/2-y,-z
1/2+x,1/2-y,1/2+z
loop_
_atom_site_type_symbol
_atom_site_label
_atom_site_fract_x
_atom_site_fract_y
_atom_site_fract_z
Si Si1 0.208899 0.579862 0.621168
Si Si2 0.855619 0.698188 0.110379
Si Si3 0.809378 0.892413 0.527141
Si Si4 0.500000 0.953564 0.750000
O O1 0.349203 0.687649 0.637265
O O2 0.351336 0.502652 0.568605
O O3 0.900605 0.597420 0.561703
O O4 0.172828 0.524037 0.702613
O O5 0.591059 0.669735 0.036766
O O6 0.132443 0.666090 0.083184
O O7 0.824187 0.622084 0.182622
#
# Coordination Sequence:
#
# PCOD9295729 Si02
#       4
#     8   8   8   4
#     4  10  23  43  68  94 132 169 211 271 317 374
#     4  11  24  44  66  95 130 169 215 264 320 380
#     4  10  24  43  69  98 122 167 225 262 314 381
#     4  10  26  40  62 100 132 170 214 256 326 392
#
# _framework density 26.204775999999999
#
# number of rings (size 3 to 8) (size 9 to 14) (size 15 to 20)
#    0.000    1.714    0.000    1.714    0.000   26.286 
#    0.000    0.000    0.000    0.000    0.000    0.000 
#    0.000    0.000    0.000    0.000    0.000    0.000 
#
# Total GULP energy -78627.902267 kJ/mol
# GULP energy per Si atom -5616.278733 kJ/mol
# Density = 2.614513 g / cm^3
# Si number density = 26.204776 Si / 1000 Ang^3
#
#
#
# Elastic Constant Matrix: (Units=GPa)
#
#
# Indices 1 2 3 4 5 6 
#
# 1 104.8180 52.5343 2.6782 0.0000 -2.2543 0.0000
# 2 52.5343 257.5776 51.0424 0.0000 -17.2791 0.0000
# 3 2.6782 51.0424 102.3684 0.0000 -21.7364 0.0000
# 4 0.0000 0.0000 0.0000 52.8294 0.0000 0.5023
# 5 -2.2543 -17.2791 -21.7364 0.0000 34.1506 0.0000
# 6 0.0000 0.0000 0.0000 0.5023 0.0000 35.2850
#
#
#
# Elastic Compliance Matrix: (Units=1/GPa)
#
#
# Indices 1 2 3 4 5 6 
#
# 1 0.010701 -0.002357 0.000916 0.000000 0.000097 0.000000
# 2 -0.002357 0.004854 -0.002162 0.000000 0.000924 0.000000
# 3 0.000916 -0.002162 0.012260 0.000000 0.006770 0.000000
# 4 0.000000 0.000000 0.000000 0.018931 0.000000 -0.000269
# 5 0.000097 0.000924 0.006770 0.000000 0.034065 0.000000
# 6 0.000000 0.000000 0.000000 -0.000269 0.000000 0.028345
#
#
# Mechanical properties :
#
#
# Convention : Reuss Voigt Hill
#
# Bulk Modulus (GPa) = 48.52692 75.25263 61.88978
# Shear Modulus (GPa) = 40.57400 48.35361 44.46381
#
# Velocity S-wave (km/s) = 3.93917 4.30026 4.12367
# Velocity P-wave (km/s) = 6.26482 7.30998 6.80749
#
# Compressibility (1/GPa) = 0.02060712
#
# Stress axis : x y z
#
# Youngs Moduli (GPa) = 93.45292 206.03281 81.56421
#
# Poissons Ratio (x) = 0.48572 -0.07472
# Poissons Ratio (y) = 0.22031 0.17636
# Poissons Ratio (z) = -0.08561 0.44549
#
# Static dielectric constant tensor:
#      x y z
#    x 2.043020 0.000000 0.019570 
#    y 0.000000 2.054110 0.000000 
#    z 0.019570 0.000000 2.093850 
# 
# From -- ./inp_files/183563.got.cif
#   From: 2010.05.17/outbox.cif.g08.bks.cpg/sg15_92_cif.got.tgz:183563.got - 2010.06.03 18:47:42.
