data_PCOD9295581
_publ_section_title
;
Structure prediction by ZEFSAII (Michael W. Deem and Ramdas Pophale) SiO2 
 PCOD9295581
Probable space group: C 2/C
;
_chemical_formula_sum "Si O2"
_cell_formula_units_Z 56
_cell_length_a 24.415063
_cell_length_b 11.430539
_cell_length_c 14.264264
_cell_angle_alpha 90.000000
_cell_angle_beta 136.283762
_cell_angle_gamma 90.000000
_cell_volume 2751.102837
_symmetry_space_group_name_H-M "C 2/C"
_symmetry_group_IT_number 15
_symmetry_cell_setting 'monoclinic'
loop_
_space_group_symop_operation_xyz
x,y,z
-x,y,1/2-z
-x,-y,-z
x,-y,1/2+z
1/2+x,1/2+y,z
1/2-x,1/2+y,1/2-z
1/2-x,1/2-y,-z
1/2+x,1/2-y,1/2+z
loop_
_atom_site_type_symbol
_atom_site_label
_atom_site_fract_x
_atom_site_fract_y
_atom_site_fract_z
Si Si1 0.179948 0.887381 0.453988
Si Si2 0.897287 0.041651 0.270452
Si Si3 0.912419 0.736587 0.479636
Si Si4 0.341793 0.233487 0.594619
Si Si5 0.357435 0.169931 0.212213
Si Si6 0.540829 0.049825 0.699130
Si Si7 0.067017 0.987423 0.474750
O O1 0.269166 0.883574 0.601186
O O2 0.147281 0.761480 0.379930
O O3 0.176815 0.966140 0.356243
O O4 0.123543 0.945278 0.462220
O O5 0.890664 0.157807 0.199455
O O6 0.974470 0.961462 0.343596
O O7 0.902825 0.062577 0.388331
O O8 0.858706 0.719351 0.505364
O O9 0.868595 0.729181 0.326865
O O10 0.938451 0.871591 0.522265
O O11 0.980644 0.636091 0.568755
O O12 0.250000 0.250000 0.500000
O O13 0.377946 0.121430 0.689653
O O14 0.429363 0.077416 0.294478
O O15 0.500000 0.039344 0.750000
#
# Coordination Sequence:
#
# PCOD9295581 Si02
#       7
#     8   8   8   8   8   8   8
#     4  11  24  42  69  93 141 171 220 281 334 396
#     4  11  22  41  66  98 131 165 230 273 336 394
#     4  11  22  43  68  93 133 172 227 276 323 401
#     4  11  23  39  66  98 132 171 220 279 335 398
#     4  11  25  46  62 101 137 181 218 273 342 402
#     4  10  23  43  65  93 132 181 220 271 332 403
#     4  11  23  40  68 101 125 174 224 282 330 392
#
# _framework density 20.355473
#
# number of rings (size 3 to 8) (size 9 to 14) (size 15 to 20)
#    0.000    1.143    4.286    1.714    2.000    1.143 
#    0.000    1.429    0.000    0.000    0.000    0.000 
#    0.000    0.000    0.000    0.000    0.000    0.000 
#
# Total GULP energy -156188.483268 kJ/mol
# GULP energy per Si atom -5578.160117 kJ/mol
# Density = 2.030914 g / cm^3
# Si number density = 20.355473 Si / 1000 Ang^3
#
#
#
# Elastic Constant Matrix: (Units=GPa)
#
#
# Indices 1 2 3 4 5 6 
#
# 1 78.9747 31.3732 67.6870 0.0000 -0.4910 0.0000
# 2 31.3732 73.7027 25.1199 0.0000 -1.6953 0.0000
# 3 67.6870 25.1199 128.4154 0.0000 -0.8956 0.0000
# 4 0.0000 0.0000 0.0000 23.9761 0.0000 -4.0797
# 5 -0.4910 -1.6953 -0.8956 0.0000 26.1230 0.0000
# 6 0.0000 0.0000 0.0000 -4.0797 0.0000 32.0867
#
#
#
# Elastic Compliance Matrix: (Units=1/GPa)
#
#
# Indices 1 2 3 4 5 6 
#
# 1 0.025966 -0.006853 -0.012349 0.000000 -0.000380 0.000000
# 2 -0.006853 0.016365 0.000418 0.000000 0.000948 0.000000
# 3 -0.012349 0.000418 0.014216 0.000000 0.000282 0.000000
# 4 0.000000 0.000000 0.000000 0.042631 0.000000 0.005420
# 5 -0.000380 0.000948 0.000282 0.000000 0.038344 0.000000
# 6 0.000000 0.000000 0.000000 0.005420 0.000000 0.031855
#
#
# Mechanical properties :
#
#
# Convention : Reuss Voigt Hill
#
# Bulk Modulus (GPa) = 52.68983 58.82813 55.75898
# Shear Modulus (GPa) = 23.44436 26.89801 25.17119
#
# Velocity S-wave (km/s) = 3.39742 3.63907 3.52032
# Velocity P-wave (km/s) = 6.42892 6.82790 6.63141
#
# Compressibility (1/GPa) = 0.01897899
#
# Stress axis : x y z
#
# Youngs Moduli (GPa) = 38.51195 61.10748 70.34139
#
# Poissons Ratio (x) = 0.41877 0.86862
# Poissons Ratio (y) = 0.26392 -0.02938
# Poissons Ratio (z) = 0.47557 -0.02552
#
# Static dielectric constant tensor:
#      x y z
#    x 1.710930 0.000000 0.015890 
#    y 0.000000 1.796250 0.000000 
#    z 0.015890 0.000000 1.713840 
# 
# From -- ./inp_files/177630.got.cif
#   From: 2010.05.17/outbox.cif.g08.bks.cpg/sg15_89_cif.got.tgz:177630.got - 2010.06.03 18:47:42.
