data_PCOD9295588
_publ_section_title
;
Structure prediction by ZEFSAII (Michael W. Deem and Ramdas Pophale) SiO2 
 PCOD9295588
Probable space group: C 2/C
;
_chemical_formula_sum "Si O2"
_cell_formula_units_Z 36
_cell_length_a 17.041965
_cell_length_b 22.622522
_cell_length_c 8.931376
_cell_angle_alpha 90.000000
_cell_angle_beta 149.549977
_cell_angle_gamma 90.000000
_cell_volume 1745.035179
_symmetry_space_group_name_H-M "C 2/C"
_symmetry_group_IT_number 15
_symmetry_cell_setting 'monoclinic'
loop_
_space_group_symop_operation_xyz
x,y,z
-x,y,1/2-z
-x,-y,-z
x,-y,1/2+z
1/2+x,1/2+y,z
1/2-x,1/2+y,1/2-z
1/2-x,1/2-y,-z
1/2+x,1/2-y,1/2+z
loop_
_atom_site_type_symbol
_atom_site_label
_atom_site_fract_x
_atom_site_fract_y
_atom_site_fract_z
Si Si1 0.750949 0.656734 0.697149
Si Si2 0.836215 0.468955 0.237926
Si Si3 0.463319 0.661657 0.436079
Si Si4 0.868389 0.963241 0.871605
Si Si5 0.000000 0.256201 0.750000
O O1 0.841414 0.595611 0.820524
O O2 0.604649 0.643723 0.561788
O O3 0.677084 0.675848 0.413368
O O4 0.857721 0.703040 0.960951
O O5 0.697473 0.505551 0.089729
O O6 0.000000 0.500000 0.500000
O O7 0.781423 0.461464 0.979395
O O8 0.419210 0.604770 0.462345
O O9 0.518384 0.713948 0.635323
O O10 0.000000 0.000000 0.000000
#
# Coordination Sequence:
#
# PCOD9295588 Si02
#       5
#     8   8   8   8   4
#     4  10  23  44  64  93 135 170 213 276 327 380
#     4  11  24  40  65  98 134 168 212 276 336 382
#     4  10  23  43  65  95 128 172 223 267 319 393
#     4  11  22  40  67  94 127 171 219 267 323 394
#     4  12  24  40  70  96 128 174 222 264 328 392
#
# _framework density 20.629957999999998
#
# number of rings (size 3 to 8) (size 9 to 14) (size 15 to 20)
#    0.000    1.333    2.222    2.667    6.222    0.000 
#    4.000    0.000    0.000    0.000    0.000    0.000 
#    0.000    0.000    0.000    0.000    0.000    0.000 
#
# Total GULP energy -100434.202305 kJ/mol
# GULP energy per Si atom -5579.677906 kJ/mol
# Density = 2.058300 g / cm^3
# Si number density = 20.629958 Si / 1000 Ang^3
#
#
#
# Elastic Constant Matrix: (Units=GPa)
#
#
# Indices 1 2 3 4 5 6 
#
# 1 77.8573 34.4356 41.4425 0.0000 -7.3058 0.0000
# 2 34.4356 115.4894 70.2804 0.0000 -7.4645 0.0000
# 3 41.4425 70.2804 137.5099 0.0000 -8.8883 0.0000
# 4 0.0000 0.0000 0.0000 36.0887 0.0000 -1.6475
# 5 -7.3058 -7.4645 -8.8883 0.0000 36.1864 0.0000
# 6 0.0000 0.0000 0.0000 -1.6475 0.0000 32.4359
#
#
#
# Elastic Compliance Matrix: (Units=1/GPa)
#
#
# Indices 1 2 3 4 5 6 
#
# 1 0.015955 -0.002589 -0.003365 0.000000 0.001861 0.000000
# 2 -0.002589 0.013026 -0.005830 0.000000 0.000732 0.000000
# 3 -0.003365 -0.005830 0.011324 0.000000 0.000900 0.000000
# 4 0.000000 0.000000 0.000000 0.027774 0.000000 0.001411
# 5 0.001861 0.000732 0.000900 0.000000 0.028382 0.000000
# 6 0.000000 0.000000 0.000000 0.001411 0.000000 0.030902
#
#
# Mechanical properties :
#
#
# Convention : Reuss Voigt Hill
#
# Bulk Modulus (GPa) = 59.74819 69.24153 64.49486
# Shear Modulus (GPa) = 31.94695 33.25539 32.60117
#
# Velocity S-wave (km/s) = 3.93946 4.01932 3.97959
# Velocity P-wave (km/s) = 7.05104 7.42808 7.24201
#
# Compressibility (1/GPa) = 0.01673691
#
# Stress axis : x y z
#
# Youngs Moduli (GPa) = 62.67670 76.77032 88.30850
#
# Poissons Ratio (x) = 0.19879 0.29714
# Poissons Ratio (y) = 0.16230 0.51481
# Poissons Ratio (z) = 0.21089 0.44755
#
# Static dielectric constant tensor:
#      x y z
#    x 1.757520 0.000000 -0.044610 
#    y 0.000000 1.750720 0.000000 
#    z -0.044610 0.000000 1.753920 
# 
# From -- ./inp_files/23286.got.cif
#   From: 2010.05.17/outbox.cif.g08.bks.cpg/sg15_12_cif.got.tgz:23286.got - 2010.06.03 18:47:42.
