data_PCOD9295308
_publ_section_title
;
Structure prediction by ZEFSAII (Michael W. Deem and Ramdas Pophale) SiO2 
 PCOD9295308
Probable space group: C 2/C
;
_chemical_formula_sum "Si O2"
_cell_formula_units_Z 32
_cell_length_a 7.611019
_cell_length_b 22.231511
_cell_length_c 10.161792
_cell_angle_alpha 90.000000
_cell_angle_beta 63.327380
_cell_angle_gamma 90.000000
_cell_volume 1536.450050
_symmetry_space_group_name_H-M "C 2/C"
_symmetry_group_IT_number 15
_symmetry_cell_setting 'monoclinic'
loop_
_space_group_symop_operation_xyz
x,y,z
-x,y,1/2-z
-x,-y,-z
x,-y,1/2+z
1/2+x,1/2+y,z
1/2-x,1/2+y,1/2-z
1/2-x,1/2-y,-z
1/2+x,1/2-y,1/2+z
loop_
_atom_site_type_symbol
_atom_site_label
_atom_site_fract_x
_atom_site_fract_y
_atom_site_fract_z
Si Si1 0.231669 0.095150 0.290326
Si Si2 0.000000 0.514208 0.750000
Si Si3 0.709018 0.600531 0.996177
Si Si4 0.231969 0.276572 0.149153
Si Si5 0.000000 0.696770 0.250000
O O1 0.346184 0.032601 0.239775
O O2 0.239540 0.121119 0.138270
O O3 0.333662 0.146767 0.346550
O O4 0.016804 0.079864 0.416936
O O5 0.124277 0.553992 0.605581
O O6 0.717367 0.653473 0.886177
O O7 0.379984 0.241245 0.194718
O O8 0.000000 0.270471 0.250000
O O9 0.250000 0.250000 0.000000
#
# Coordination Sequence:
#
# PCOD9295308 Si02
#       5
#     8   4   8   8   4
#     4  10  23  42  68  94 136 181 220 278 345 403
#     4  11  22  42  66 100 130 177 232 278 332 409
#     4  11  22  43  65  98 136 177 224 281 342 393
#     4  12  25  44  69  99 141 180 226 282 334 407
#     4  11  24  44  68 104 134 183 228 270 350 401
#
# _framework density 20.827231999999999
#
# number of rings (size 3 to 8) (size 9 to 14) (size 15 to 20)
#    0.000    1.000    3.750    3.000    0.000    4.000 
#    0.000    2.500    0.000    0.000    0.000    0.000 
#    0.000    0.000    0.000    0.000    0.000    0.000 
#
# Total GULP energy -89094.021798 kJ/mol
# GULP energy per Si atom -5568.376362 kJ/mol
# Density = 2.077983 g / cm^3
# Si number density = 20.827232 Si / 1000 Ang^3
#
#
#
# Elastic Constant Matrix: (Units=GPa)
#
#
# Indices 1 2 3 4 5 6 
#
# 1 132.4278 62.7488 69.9409 0.0000 -30.9467 0.0000
# 2 62.7488 134.5504 57.4275 0.0000 -18.3610 0.0000
# 3 69.9409 57.4275 141.5653 0.0000 -39.2008 0.0000
# 4 0.0000 0.0000 0.0000 39.0973 0.0000 -0.4163
# 5 -30.9467 -18.3610 -39.2008 0.0000 30.9491 0.0000
# 6 0.0000 0.0000 0.0000 -0.4163 0.0000 34.9787
#
#
#
# Elastic Compliance Matrix: (Units=1/GPa)
#
#
# Indices 1 2 3 4 5 6 
#
# 1 0.012284 -0.003649 -0.002752 0.000000 0.006632 0.000000
# 2 -0.003649 0.010097 -0.002533 0.000000 -0.000867 0.000000
# 3 -0.002752 -0.002533 0.012742 0.000000 0.011885 0.000000
# 4 0.000000 0.000000 0.000000 0.025580 0.000000 0.000304
# 5 0.006632 -0.000867 0.011885 0.000000 0.053482 0.000000
# 6 0.000000 0.000000 0.000000 0.000304 0.000000 0.028592
#
#
# Mechanical properties :
#
#
# Convention : Reuss Voigt Hill
#
# Bulk Modulus (GPa) = 57.95729 87.64198 72.79963
# Shear Modulus (GPa) = 30.04865 35.56679 32.80772
#
# Velocity S-wave (km/s) = 3.80249 4.13692 3.97322
# Velocity P-wave (km/s) = 6.86779 8.06168 7.48857
#
# Compressibility (1/GPa) = 0.01725409
#
# Stress axis : x y z
#
# Youngs Moduli (GPa) = 81.40958 99.04191 78.47951
#
# Poissons Ratio (x) = 0.36140 0.21598
# Poissons Ratio (y) = 0.29706 0.19881
# Poissons Ratio (z) = 0.22404 0.25090
#
# Static dielectric constant tensor:
#      x y z
#    x 1.804780 0.000000 0.022580 
#    y 0.000000 1.894850 0.000000 
#    z 0.022580 0.000000 1.706080 
# 
# From -- ./inp_files/22386.got.cif
#   From: 2010.05.17/outbox.cif.g08.bks.cpg/sg15_12_cif.got.tgz:22386.got - 2010.06.03 18:47:42.
