data_PCOD9295469
_publ_section_title
;
Structure prediction by ZEFSAII (Michael W. Deem and Ramdas Pophale) SiO2 
 PCOD9295469
Probable space group: C 2/C
;
_chemical_formula_sum "Si O2"
_cell_formula_units_Z 44
_cell_length_a 22.544047
_cell_length_b 9.633552
_cell_length_c 13.758492
_cell_angle_alpha 90.000000
_cell_angle_beta 142.778388
_cell_angle_gamma 90.000000
_cell_volume 1807.475441
_symmetry_space_group_name_H-M "C 2/C"
_symmetry_group_IT_number 15
_symmetry_cell_setting 'monoclinic'
loop_
_space_group_symop_operation_xyz
x,y,z
-x,y,1/2-z
-x,-y,-z
x,-y,1/2+z
1/2+x,1/2+y,z
1/2-x,1/2+y,1/2-z
1/2-x,1/2-y,-z
1/2+x,1/2-y,1/2+z
loop_
_atom_site_type_symbol
_atom_site_label
_atom_site_fract_x
_atom_site_fract_y
_atom_site_fract_z
Si Si1 0.500000 0.992503 0.250000
Si Si2 0.492829 0.851999 0.043746
Si Si3 0.830226 0.703366 0.026064
Si Si4 0.311727 0.324722 0.666271
Si Si5 0.804187 0.204301 0.824700
Si Si6 0.610875 0.507932 0.398731
O O1 0.408200 0.088424 0.160265
O O2 0.470711 0.894062 0.124919
O O3 0.593443 0.765443 0.178090
O O4 0.400189 0.758830 0.893151
O O5 0.500000 0.000000 0.000000
O O6 0.886762 0.845806 0.076052
O O7 0.750000 0.750000 0.000000
O O8 0.775281 0.656687 0.856867
O O9 0.250000 0.250000 0.500000
O O10 0.245119 0.326179 0.674689
O O11 0.345597 0.460582 0.651853
O O12 0.833723 0.088746 0.942647
O O13 0.500000 0.560758 0.250000
#
# Coordination Sequence:
#
# PCOD9295469 Si02
#       6
#     4   8   8   8   8   8
#     4  12  26  44  64 100 142 178 224 288 348 408
#     4  12  25  44  71 102 139 176 236 286 337 413
#     4  12  29  45  67 102 143 185 226 289 356 404
#     4  10  23  42  73 101 130 182 232 281 344 407
#     4  11  26  45  73 102 133 188 235 280 348 413
#     4  11  23  50  70  98 141 181 236 287 340 422
#
# _framework density 24.343344999999999
#
# number of rings (size 3 to 8) (size 9 to 14) (size 15 to 20)
#    0.000    0.727    2.727    4.364   15.273    0.000 
#    0.000    1.818    0.000    0.000    0.000    0.000 
#    0.000    0.000    0.000    0.000    0.000    0.000 
#
# Total GULP energy -123196.361121 kJ/mol
# GULP energy per Si atom -5599.834596 kJ/mol
# Density = 2.428794 g / cm^3
# Si number density = 24.343345 Si / 1000 Ang^3
#
#
#
# Elastic Constant Matrix: (Units=GPa)
#
#
# Indices 1 2 3 4 5 6 
#
# 1 71.8861 -10.0390 27.1532 0.0000 13.0948 0.0000
# 2 -10.0390 88.6426 29.7057 0.0000 9.4216 0.0000
# 3 27.1532 29.7057 118.4959 0.0000 16.9140 0.0000
# 4 0.0000 0.0000 0.0000 32.3192 0.0000 0.1676
# 5 13.0948 9.4216 16.9140 0.0000 41.3205 0.0000
# 6 0.0000 0.0000 0.0000 0.1676 0.0000 30.7898
#
#
#
# Elastic Compliance Matrix: (Units=1/GPa)
#
#
# Indices 1 2 3 4 5 6 
#
# 1 0.016829 0.003778 -0.004162 0.000000 -0.004491 0.000000
# 2 0.003778 0.013270 -0.003812 0.000000 -0.002662 0.000000
# 3 -0.004162 -0.003812 0.010659 0.000000 -0.002175 0.000000
# 4 0.000000 0.000000 0.000000 0.030942 0.000000 -0.000168
# 5 -0.004491 -0.002662 -0.002175 0.000000 0.027122 0.000000
# 6 0.000000 0.000000 0.000000 -0.000168 0.000000 0.032479
#
#
# Mechanical properties :
#
#
# Convention : Reuss Voigt Hill
#
# Bulk Modulus (GPa) = 30.89817 41.40717 36.15267
# Shear Modulus (GPa) = 33.22659 36.36621 34.79640
#
# Velocity S-wave (km/s) = 3.69848 3.86928 3.78484
# Velocity P-wave (km/s) = 5.56404 6.08345 5.82953
#
# Compressibility (1/GPa) = 0.03236438
#
# Stress axis : x y z
#
# Youngs Moduli (GPa) = 59.42186 75.35964 93.81689
#
# Poissons Ratio (x) = -0.28472 0.39051
# Poissons Ratio (y) = -0.22450 0.35766
# Poissons Ratio (z) = 0.24734 0.28729
#
# Static dielectric constant tensor:
#      x y z
#    x 1.329600 0.000000 0.862940 
#    y 0.000000 1.953710 0.000000 
#    z 0.862940 0.000000 0.926680 
# 
# From -- ./inp_files/177685.got.cif
#   From: 2010.05.17/outbox.cif.g08.bks.cpg/sg15_89_cif.got.tgz:177685.got - 2010.06.03 18:47:42.
