data_PCOD9295635
_publ_section_title
;
Structure prediction by ZEFSAII (Michael W. Deem and Ramdas Pophale) SiO2 
 PCOD9295635
Probable space group: C 2/C
;
_chemical_formula_sum "Si O2"
_cell_formula_units_Z 44
_cell_length_a 15.171871
_cell_length_b 12.249568
_cell_length_c 10.335866
_cell_angle_alpha 90.000000
_cell_angle_beta 94.025916
_cell_angle_gamma 90.000000
_cell_volume 1916.168927
_symmetry_space_group_name_H-M "C 2/C"
_symmetry_group_IT_number 15
_symmetry_cell_setting 'monoclinic'
loop_
_space_group_symop_operation_xyz
x,y,z
-x,y,1/2-z
-x,-y,-z
x,-y,1/2+z
1/2+x,1/2+y,z
1/2-x,1/2+y,1/2-z
1/2-x,1/2-y,-z
1/2+x,1/2-y,1/2+z
loop_
_atom_site_type_symbol
_atom_site_label
_atom_site_fract_x
_atom_site_fract_y
_atom_site_fract_z
Si Si1 0.500000 0.059624 0.250000
Si Si2 0.260383 0.348829 0.601738
Si Si3 0.442463 0.390843 0.511761
Si Si4 0.924600 0.724231 0.030764
Si Si5 0.827854 0.174698 0.751550
Si Si6 0.333053 0.947946 0.351444
O O1 0.475946 0.138142 0.127586
O O2 0.416800 0.985837 0.278244
O O3 0.250000 0.250000 0.500000
O O4 0.360821 0.391002 0.603877
O O5 0.220447 0.290996 0.724704
O O6 0.197061 0.449777 0.565170
O O7 0.500000 0.500000 0.500000
O O8 0.507909 0.291596 0.549813
O O9 0.397249 0.357523 0.369783
O O10 0.876983 0.809488 0.121303
O O11 0.857218 0.655598 0.939422
O O12 0.751778 0.084446 0.740988
#
# Coordination Sequence:
#
# PCOD9295635 Si02
#       6
#     4   8   8   8   8   8
#     4  12  24  44  70 100 140 180 234 300 350 404
#     4  10  23  43  66  98 137 183 229 287 349 419
#     4  11  24  44  73 101 140 185 232 286 351 422
#     4  12  24  47  69 102 141 185 235 293 354 419
#     4  11  24  45  67  98 147 178 226 291 357 410
#     4  12  27  41  74 102 135 187 240 287 355 432
#
# _framework density 22.962484
#
# number of rings (size 3 to 8) (size 9 to 14) (size 15 to 20)
#    0.000    0.727    3.636    3.273    7.636    1.455 
#    0.000    1.818    0.000    0.000    0.000    0.000 
#    0.000    0.000    0.000    0.000    0.000    0.000 
#
# Total GULP energy -123101.071718 kJ/mol
# GULP energy per Si atom -5595.503260 kJ/mol
# Density = 2.291022 g / cm^3
# Si number density = 22.962484 Si / 1000 Ang^3
#
#
#
# Elastic Constant Matrix: (Units=GPa)
#
#
# Indices 1 2 3 4 5 6 
#
# 1 150.5843 58.1908 17.7759 0.0000 -18.2497 0.0000
# 2 58.1908 101.2814 19.2146 0.0000 5.4179 0.0000
# 3 17.7759 19.2146 20.9150 0.0000 0.0528 0.0000
# 4 0.0000 0.0000 0.0000 23.7128 0.0000 5.1084
# 5 -18.2497 5.4179 0.0528 0.0000 26.3881 0.0000
# 6 0.0000 0.0000 0.0000 5.1084 0.0000 73.4447
#
#
#
# Elastic Compliance Matrix: (Units=1/GPa)
#
#
# Indices 1 2 3 4 5 6 
#
# 1 0.010244 -0.005657 -0.003530 0.000000 0.008253 0.000000
# 2 -0.005657 0.015240 -0.009175 0.000000 -0.007023 0.000000
# 3 -0.003530 -0.009175 0.059244 0.000000 -0.000676 0.000000
# 4 0.000000 0.000000 0.000000 0.042813 0.000000 -0.002978
# 5 0.008253 -0.007023 -0.000676 0.000000 0.045047 0.000000
# 6 0.000000 0.000000 0.000000 -0.002978 0.000000 0.013823
#
#
# Mechanical properties :
#
#
# Convention : Reuss Voigt Hill
#
# Bulk Modulus (GPa) = 20.83208 51.46036 36.14622
# Shear Modulus (GPa) = 20.90859 36.54909 28.72884
#
# Velocity S-wave (km/s) = 3.02081 3.99392 3.54096
# Velocity P-wave (km/s) = 4.61075 6.61270 5.70030
#
# Compressibility (1/GPa) = 0.04800290
#
# Stress axis : x y z
#
# Youngs Moduli (GPa) = 97.61889 65.61547 16.87948
#
# Poissons Ratio (x) = 0.37122 0.05958
# Poissons Ratio (y) = 0.55227 0.15487
# Poissons Ratio (z) = 0.34457 0.60204
#
# Static dielectric constant tensor:
#      x y z
#    x 1.926590 0.000000 -0.007790 
#    y 0.000000 1.830550 0.000000 
#    z -0.007790 0.000000 2.107970 
# 
# From -- ./inp_files/95041.got.cif
#   From: 2010.05.17/outbox.cif.g08.bks.cpg/sg15_48_cif.got.tgz:95041.got - 2010.06.03 18:47:42.
