data_PCOD9295426
_publ_section_title
;
Structure prediction by ZEFSAII (Michael W. Deem and Ramdas Pophale) SiO2 
 PCOD9295426
Probable space group: C 2/C
;
_chemical_formula_sum "Si O2"
_cell_formula_units_Z 60
_cell_length_a 20.892959
_cell_length_b 8.754838
_cell_length_c 17.001523
_cell_angle_alpha 90.000000
_cell_angle_beta 63.538772
_cell_angle_gamma 90.000000
_cell_volume 2784.027234
_symmetry_space_group_name_H-M "C 2/C"
_symmetry_group_IT_number 15
_symmetry_cell_setting 'monoclinic'
loop_
_space_group_symop_operation_xyz
x,y,z
-x,y,1/2-z
-x,-y,-z
x,-y,1/2+z
1/2+x,1/2+y,z
1/2-x,1/2+y,1/2-z
1/2-x,1/2-y,-z
1/2+x,1/2-y,1/2+z
loop_
_atom_site_type_symbol
_atom_site_label
_atom_site_fract_x
_atom_site_fract_y
_atom_site_fract_z
Si Si1 0.340285 0.841626 0.990524
Si Si2 0.639337 0.670961 0.226671
Si Si3 0.996876 0.446256 0.910607
Si Si4 0.845263 0.327973 0.713066
Si Si5 0.703722 0.499498 0.823478
Si Si6 0.305435 0.354875 0.372161
Si Si7 0.000000 0.344237 0.250000
Si Si8 0.771552 0.387190 0.429300
O O1 0.320723 0.692574 0.951829
O O2 0.424959 0.844622 0.953971
O O3 0.318485 0.995414 0.954019
O O4 0.280535 0.848154 0.092465
O O5 0.650429 0.623797 0.311833
O O6 0.663147 0.516701 0.168835
O O7 0.562866 0.731963 0.243454
O O8 0.688519 0.804326 0.164792
O O9 0.076465 0.378936 0.854276
O O10 0.986317 0.554415 0.837539
O O11 0.000000 0.500000 0.000000
O O12 0.779751 0.446556 0.743475
O O13 0.822493 0.167522 0.687090
O O14 0.845161 0.278930 0.803774
O O15 0.712748 0.518067 0.911876
O O16 0.750000 0.250000 0.500000
#
# Coordination Sequence:
#
# PCOD9295426 Si02
#       8
#     8   8   8   8   8   8   4   8
#     4  11  23  44  70 104 146 195 252 315 382 455
#     4  11  24  42  73 101 144 196 244 308 373 460
#     4  12  29  45  74 110 154 200 257 314 385 469
#     4  11  24  43  69 106 146 197 244 314 371 458
#     4  11  24  41  71 107 142 193 259 300 372 454
#     4  10  23  42  71 105 138 193 251 312 377 454
#     4  12  26  50  72 108 156 210 250 312 410 460
#     4  12  22  41  72 104 143 190 246 314 375 444
#
# _framework density 21.551514000000001
#
# number of rings (size 3 to 8) (size 9 to 14) (size 15 to 20)
#    0.000    0.800    5.333    1.600    5.600    2.133 
#    0.000    0.000    0.000    5.600    0.000    0.000 
#    0.000    0.000    0.000    0.000    0.000    0.000 
#
# Total GULP energy -167085.597035 kJ/mol
# GULP energy per Si atom -5569.519901 kJ/mol
# Density = 2.150246 g / cm^3
# Si number density = 21.551514 Si / 1000 Ang^3
#
#
#
# Elastic Constant Matrix: (Units=GPa)
#
#
# Indices 1 2 3 4 5 6 
#
# 1 144.1689 52.0257 63.0966 0.0000 -17.0770 -0.0001
# 2 52.0257 91.5657 50.6247 0.0000 -2.8953 -0.0001
# 3 63.0966 50.6247 123.7219 0.0000 -4.5486 0.0000
# 4 0.0000 0.0000 0.0000 44.2293 0.0000 9.2170
# 5 -17.0770 -2.8953 -4.5486 0.0000 46.2149 0.0000
# 6 -0.0001 -0.0001 0.0000 9.2170 0.0000 41.4239
#
#
#
# Elastic Compliance Matrix: (Units=1/GPa)
#
#
# Indices 1 2 3 4 5 6 
#
# 1 0.010224 -0.003735 -0.003568 0.000000 0.003193 0.000000
# 2 -0.003735 0.015483 -0.004462 0.000000 -0.000849 0.000000
# 3 -0.003568 -0.004462 0.011712 0.000000 -0.000445 0.000000
# 4 0.000000 0.000000 0.000000 0.023709 0.000000 -0.005275
# 5 0.003193 -0.000849 -0.000445 0.000000 0.022721 0.000000
# 6 0.000000 0.000000 0.000000 -0.005275 0.000000 0.025314
#
#
# Mechanical properties :
#
#
# Convention : Reuss Voigt Hill
#
# Bulk Modulus (GPa) = 72.00266 76.77228 74.38747
# Shear Modulus (GPa) = 36.41028 39.28758 37.84893
#
# Velocity S-wave (km/s) = 4.11476 4.27425 4.19526
# Velocity P-wave (km/s) = 7.48712 7.74977 7.61958
#
# Compressibility (1/GPa) = 0.01388838
#
# Stress axis : x y z
#
# Youngs Moduli (GPa) = 97.80724 64.58515 85.38400
#
# Poissons Ratio (x) = 0.24125 0.30468
# Poissons Ratio (y) = 0.36534 0.38097
# Poissons Ratio (z) = 0.34902 0.28817
#
# Static dielectric constant tensor:
#      x y z
#    x 1.852330 0.000000 0.040430 
#    y 0.000000 1.804850 0.000000 
#    z 0.040430 0.000000 1.888220 
# 
# From -- ./inp_files/214280.got.cif
#   From: 2010.05.17/outbox.cif.g08.bks.cpg/sg15_108_cif.got.tgz:214280.got - 2010.06.03 18:47:42.
