data_PCOD9295589
_publ_section_title
;
Structure prediction by ZEFSAII (Michael W. Deem and Ramdas Pophale) SiO2 
 PCOD9295589
Probable space group: C 2/C
;
_chemical_formula_sum "Si O2"
_cell_formula_units_Z 48
_cell_length_a 11.723679
_cell_length_b 8.111602
_cell_length_c 22.618198
_cell_angle_alpha 90.000000
_cell_angle_beta 101.763919
_cell_angle_gamma 90.000000
_cell_volume 2105.762848
_symmetry_space_group_name_H-M "C 2/C"
_symmetry_group_IT_number 15
_symmetry_cell_setting 'monoclinic'
loop_
_space_group_symop_operation_xyz
x,y,z
-x,y,1/2-z
-x,-y,-z
x,-y,1/2+z
1/2+x,1/2+y,z
1/2-x,1/2+y,1/2-z
1/2-x,1/2-y,-z
1/2+x,1/2-y,1/2+z
loop_
_atom_site_type_symbol
_atom_site_label
_atom_site_fract_x
_atom_site_fract_y
_atom_site_fract_z
Si Si1 0.584069 0.146535 0.070681
Si Si2 0.710412 0.392562 0.167033
Si Si3 0.672814 0.922108 0.922958
Si Si4 0.194785 0.053776 0.878387
Si Si5 0.367926 0.629256 0.243790
Si Si6 0.116765 0.921983 0.986109
O O1 0.610863 0.289377 0.122326
O O2 0.452879 0.083740 0.059656
O O3 0.672616 0.003766 0.097831
O O4 0.619710 0.238773 0.013646
O O5 0.804162 0.450370 0.127940
O O6 0.657326 0.546634 0.195975
O O7 0.777040 0.272565 0.218971
O O8 0.684249 0.741475 0.895883
O O9 0.776910 0.966391 0.978579
O O10 0.153342 0.010204 0.808631
O O11 0.122677 0.938892 0.916650
O O12 0.500000 0.687937 0.250000
O O13 0.000000 0.000000 0.000000
#
# Coordination Sequence:
#
# PCOD9295589 Si02
#       6
#     8   8   8   8   8   8
#     4  10  23  43  65  95 129 167 213 263 318 379
#     4  10  24  42  62  95 126 161 218 261 316 380
#     4  11  23  42  65  93 130 168 209 263 321 375
#     4  11  23  42  65  96 127 173 215 260 319 377
#     4  11  24  42  66  92 126 169 211 263 319 373
#     4  11  23  42  65  95 134 167 211 265 317 382
#
# _framework density 22.794591
#
# number of rings (size 3 to 8) (size 9 to 14) (size 15 to 20)
#    0.000    1.333    1.667    3.000    2.333    4.667 
#    6.000    0.833    0.000    0.000    0.000    0.000 
#    0.000    0.000    0.000    0.000    0.000    0.000 
#
# Total GULP energy -134402.082830 kJ/mol
# GULP energy per Si atom -5600.086785 kJ/mol
# Density = 2.274271 g / cm^3
# Si number density = 22.794591 Si / 1000 Ang^3
#
#
#
# Elastic Constant Matrix: (Units=GPa)
#
#
# Indices 1 2 3 4 5 6 
#
# 1 138.7804 6.4739 20.9075 0.0000 6.0975 0.0000
# 2 6.4739 42.2914 5.3166 0.0000 7.2285 0.0000
# 3 20.9075 5.3166 63.4737 0.0000 -10.1993 0.0000
# 4 0.0000 0.0000 0.0000 36.2986 0.0000 -9.2186
# 5 6.0975 7.2285 -10.1993 0.0000 33.6610 0.0000
# 6 0.0000 0.0000 0.0000 -9.2186 0.0000 32.4963
#
#
#
# Elastic Compliance Matrix: (Units=1/GPa)
#
#
# Indices 1 2 3 4 5 6 
#
# 1 0.007754 -0.000455 -0.002866 0.000000 -0.002175 0.000000
# 2 -0.000455 0.025149 -0.002955 0.000000 -0.006213 0.000000
# 3 -0.002866 -0.002955 0.018008 0.000000 0.006610 0.000000
# 4 0.000000 0.000000 0.000000 0.029688 0.000000 0.008422
# 5 -0.002175 -0.006213 0.006610 0.000000 0.033439 0.000000
# 6 0.000000 0.000000 0.000000 0.008422 0.000000 0.033162
#
#
# Mechanical properties :
#
#
# Convention : Reuss Voigt Hill
#
# Bulk Modulus (GPa) = 26.06894 34.43793 30.25344
# Shear Modulus (GPa) = 28.97919 34.61435 31.79677
#
# Velocity S-wave (km/s) = 3.56942 3.90106 3.73892
# Velocity P-wave (km/s) = 5.33376 5.95246 5.65158
#
# Compressibility (1/GPa) = 0.03835982
#
# Stress axis : x y z
#
# Youngs Moduli (GPa) = 128.96370 39.76364 55.53061
#
# Poissons Ratio (x) = 0.01809 0.15912
# Poissons Ratio (y) = 0.05867 0.16409
# Poissons Ratio (z) = 0.36955 0.11750
#
# Static dielectric constant tensor:
#      x y z
#    x 1.827380 0.000000 -0.015240 
#    y 0.000000 1.848820 0.000000 
#    z -0.015240 0.000000 1.862020 
# 
# From -- ./inp_files/267805.got.cif
#   From: 2010.05.17/outbox.cif.g08.bks.cpg/sg15_134_cif.got.tgz:267805.got - 2010.06.03 18:47:42.
