data_PCOD9295889
_publ_section_title
;
Structure prediction by ZEFSAII (Michael W. Deem and Ramdas Pophale) SiO2 
 PCOD9295889
Probable space group: C 2/C
;
_chemical_formula_sum "Si O2"
_cell_formula_units_Z 36
_cell_length_a 15.950207
_cell_length_b 22.520850
_cell_length_c 9.036302
_cell_angle_alpha 90.000000
_cell_angle_beta 149.884587
_cell_angle_gamma 90.000000
_cell_volume 1628.634204
_symmetry_space_group_name_H-M "C 2/C"
_symmetry_group_IT_number 15
_symmetry_cell_setting 'monoclinic'
loop_
_space_group_symop_operation_xyz
x,y,z
-x,y,1/2-z
-x,-y,-z
x,-y,1/2+z
1/2+x,1/2+y,z
1/2-x,1/2+y,1/2-z
1/2-x,1/2-y,-z
1/2+x,1/2-y,1/2+z
loop_
_atom_site_type_symbol
_atom_site_label
_atom_site_fract_x
_atom_site_fract_y
_atom_site_fract_z
Si Si1 0.076064 0.764078 0.655732
Si Si2 0.743360 0.201707 0.359837
Si Si3 0.290879 0.946520 0.080915
Si Si4 0.815953 0.429616 0.769958
Si Si5 0.500000 0.366024 0.750000
O O1 0.127237 0.778306 0.567302
O O2 0.948006 0.710898 0.486094
O O3 0.990515 0.821609 0.596840
O O4 0.250000 0.750000 0.000000
O O5 0.750000 0.250000 0.500000
O O6 0.756859 0.131636 0.405814
O O7 0.481315 0.929934 0.413929
O O8 0.264792 0.014298 0.092551
O O9 0.265429 0.937844 0.865671
O O10 0.162217 0.905516 0.972492
#
# Coordination Sequence:
#
# PCOD9295889 Si02
#       5
#     8   8   8   8   4
#     4  12  24  44  71 103 136 189 233 281 350 424
#     4  12  26  45  67 104 143 178 226 295 353 408
#     4  10  23  43  71  99 131 186 236 284 344 412
#     4  10  23  46  68  95 138 184 230 285 350 419
#     4  12  22  40  74 100 132 180 246 280 336 420
#
# _framework density 22.104410999999999
#
# number of rings (size 3 to 8) (size 9 to 14) (size 15 to 20)
#    0.000    0.889    4.444    2.000    3.111    2.667 
#   16.000    0.000    0.000    0.000    0.000    0.000 
#    0.000    0.000    0.000    0.000    0.000    0.000 
#
# Total GULP energy -100696.634988 kJ/mol
# GULP energy per Si atom -5594.257499 kJ/mol
# Density = 2.205410 g / cm^3
# Si number density = 22.104411 Si / 1000 Ang^3
#
#
#
# Elastic Constant Matrix: (Units=GPa)
#
#
# Indices 1 2 3 4 5 6 
#
# 1 182.0861 81.3452 22.5767 0.0000 1.7893 0.0000
# 2 81.3452 183.4240 22.0270 0.0000 -11.3703 0.0000
# 3 22.5767 22.0270 40.0958 0.0000 -7.2989 0.0000
# 4 0.0000 0.0000 0.0000 34.6644 0.0000 -0.6143
# 5 1.7893 -11.3703 -7.2989 0.0000 33.6331 0.0000
# 6 0.0000 0.0000 0.0000 -0.6143 0.0000 43.4970
#
#
#
# Elastic Compliance Matrix: (Units=1/GPa)
#
#
# Indices 1 2 3 4 5 6 
#
# 1 0.007185 -0.002977 -0.002773 0.000000 -0.001990 0.000000
# 2 -0.002977 0.007128 -0.001845 0.000000 0.002168 0.000000
# 3 -0.002773 -0.001845 0.028556 0.000000 0.005721 0.000000
# 4 0.000000 0.000000 0.000000 0.028855 0.000000 0.000407
# 5 -0.001990 0.002168 0.005721 0.000000 0.031813 0.000000
# 6 0.000000 0.000000 0.000000 0.000407 0.000000 0.022996
#
#
# Mechanical properties :
#
#
# Convention : Reuss Voigt Hill
#
# Bulk Modulus (GPa) = 36.12657 73.05595 54.59126
# Shear Modulus (GPa) = 33.12363 41.00269 37.06316
#
# Velocity S-wave (km/s) = 3.87526 4.31159 4.09923
# Velocity P-wave (km/s) = 6.03345 7.60977 6.86699
#
# Compressibility (1/GPa) = 0.02768046
#
# Stress axis : x y z
#
# Youngs Moduli (GPa) = 139.17595 140.29196 35.01832
#
# Poissons Ratio (x) = 0.41764 0.09709
# Poissons Ratio (y) = 0.41431 0.06461
# Poissons Ratio (z) = 0.38589 0.25884
#
# Static dielectric constant tensor:
#      x y z
#    x 1.782150 0.000000 -0.024380 
#    y 0.000000 1.808760 0.000000 
#    z -0.024380 0.000000 1.911530 
# 
# From -- ./inp_files/41319.got.cif
#   From: 2010.05.17/outbox.cif.g08.bks.cpg/sg15_21_cif.got.tgz:41319.got - 2010.06.03 18:47:42.
