data_PCOD9295458
_publ_section_title
;
Structure prediction by ZEFSAII (Michael W. Deem and Ramdas Pophale) SiO2 
 PCOD9295458
Probable space group: C 2/C
;
_chemical_formula_sum "Si O2"
_cell_formula_units_Z 40
_cell_length_a 11.179773
_cell_length_b 20.270754
_cell_length_c 8.494816
_cell_angle_alpha 90.000000
_cell_angle_beta 99.002988
_cell_angle_gamma 90.000000
_cell_volume 1901.398751
_symmetry_space_group_name_H-M "C 2/C"
_symmetry_group_IT_number 15
_symmetry_cell_setting 'monoclinic'
loop_
_space_group_symop_operation_xyz
x,y,z
-x,y,1/2-z
-x,-y,-z
x,-y,1/2+z
1/2+x,1/2+y,z
1/2-x,1/2+y,1/2-z
1/2-x,1/2-y,-z
1/2+x,1/2-y,1/2+z
loop_
_atom_site_type_symbol
_atom_site_label
_atom_site_fract_x
_atom_site_fract_y
_atom_site_fract_z
Si Si1 0.252704 0.918028 0.327052
Si Si2 0.078236 0.746942 0.007560
Si Si3 0.837831 0.771474 0.158836
Si Si4 0.500000 0.642722 0.250000
Si Si5 0.627543 0.471960 0.594037
Si Si6 0.000000 0.635814 0.750000
O O1 0.182609 0.848583 0.314914
O O2 0.228168 0.949623 0.490759
O O3 0.391139 0.904803 0.307071
O O4 0.185408 0.968209 0.199503
O O5 0.179160 0.742064 0.167082
O O6 0.962819 0.755380 0.097808
O O7 0.067093 0.810372 0.890803
O O8 0.061096 0.683479 0.893905
O O9 0.750000 0.750000 0.000000
O O10 0.406650 0.593025 0.314115
O O11 0.500000 0.500000 0.500000
#
# Coordination Sequence:
#
# PCOD9295458 Si02
#       6
#     8   8   8   4   8   4
#     4  12  26  44  71 102 150 186 241 289 363 441
#     4  10  23  42  72 106 144 179 241 306 361 425
#     4  11  22  43  72 103 135 187 238 304 357 419
#     4  11  20  40  70 106 144 175 234 306 374 397
#     4  12  24  43  70 106 137 184 241 304 354 415
#     4  11  26  50  64 106 152 197 236 284 366 455
#
# _framework density 21.037144999999999
#
# number of rings (size 3 to 8) (size 9 to 14) (size 15 to 20)
#    0.000    0.800    6.000    1.200    2.800    1.600 
#    7.200    0.000    0.000    0.000    0.000    0.000 
#    0.000    0.000    0.000    0.000    0.000    0.000 
#
# Total GULP energy -111644.286535 kJ/mol
# GULP energy per Si atom -5582.214327 kJ/mol
# Density = 2.098926 g / cm^3
# Si number density = 21.037145 Si / 1000 Ang^3
#
#
#
# Elastic Constant Matrix: (Units=GPa)
#
#
# Indices 1 2 3 4 5 6 
#
# 1 100.1912 58.9291 48.4049 0.0000 -21.6538 0.0000
# 2 58.9291 107.6334 84.3807 0.0000 -6.0122 0.0000
# 3 48.4049 84.3807 187.0700 0.0000 -1.1157 0.0000
# 4 0.0000 0.0000 0.0000 9.7320 0.0000 -51.8640
# 5 -21.6538 -6.0122 -1.1157 0.0000 33.3018 0.0000
# 6 0.0000 0.0000 0.0000 -51.8640 0.0000 7.8714
#
#
#
# Elastic Compliance Matrix: (Units=1/GPa)
#
#
# Indices 1 2 3 4 5 6 
#
# 1 0.017375 -0.008493 -0.000607 0.000000 0.009744 0.000000
# 2 -0.008493 0.018716 -0.006258 0.000000 -0.002353 0.000000
# 3 -0.000607 -0.006258 0.008318 0.000000 -0.001246 0.000000
# 4 0.000000 0.000000 0.000000 -0.003012 0.000000 -0.019846
# 5 0.009744 -0.002353 -0.001246 0.000000 0.035898 0.000000
# 6 0.000000 0.000000 0.000000 -0.019846 0.000000 -0.003724
#
#
# Mechanical properties :
#
#
# Convention : Reuss Voigt Hill
#
# Bulk Modulus (GPa) = 73.03205 86.48044 79.75625
# Shear Modulus (GPa) = 45.93415 23.72635 34.83025
#
# Velocity S-wave (km/s) = 4.67784 3.36196 4.07339
# Velocity P-wave (km/s) = 7.99796 7.50121 7.75356
#
# Compressibility (1/GPa) = 0.01369262
#
# Stress axis : x y z
#
# Youngs Moduli (GPa) = 57.55276 53.43159 120.21878
#
# Poissons Ratio (x) = 0.45378 0.07297
# Poissons Ratio (y) = 0.48878 0.75238
# Poissons Ratio (z) = 0.03493 0.33440
#
# Static dielectric constant tensor:
#      x y z
#    x 1.532390 0.000000 -0.112670 
#    y 0.000000 1.706070 0.000000 
#    z -0.112670 0.000000 1.782350 
# 
# From -- ./inp_files/29138.got.cif
#   From: 2010.05.17/outbox.cif.g08.bks.cpg/sg15_15_cif.got.tgz:29138.got - 2010.06.03 18:47:42.
