data_PCOD9295919
_publ_section_title
;
Structure prediction by ZEFSAII (Michael W. Deem and Ramdas Pophale) SiO2 
 PCOD9295919
Probable space group: C 2/C
;
_chemical_formula_sum "Si O2"
_cell_formula_units_Z 36
_cell_length_a 17.272208
_cell_length_b 10.623109
_cell_length_c 7.675276
_cell_angle_alpha 90.000000
_cell_angle_beta 96.969677
_cell_angle_gamma 90.000000
_cell_volume 1397.887972
_symmetry_space_group_name_H-M "C 2/C"
_symmetry_group_IT_number 15
_symmetry_cell_setting 'monoclinic'
loop_
_space_group_symop_operation_xyz
x,y,z
-x,y,1/2-z
-x,-y,-z
x,-y,1/2+z
1/2+x,1/2+y,z
1/2-x,1/2+y,1/2-z
1/2-x,1/2-y,-z
1/2+x,1/2-y,1/2+z
loop_
_atom_site_type_symbol
_atom_site_label
_atom_site_fract_x
_atom_site_fract_y
_atom_site_fract_z
Si Si1 0.470516 0.364685 0.935882
Si Si2 0.000000 0.320737 0.750000
Si Si3 0.297673 0.847026 0.158145
Si Si4 0.643369 0.927744 0.977495
Si Si5 0.207519 0.093135 0.190893
O O1 0.500000 0.335804 0.750000
O O2 0.376677 0.384268 0.915288
O O3 0.500000 0.500000 0.000000
O O4 0.507259 0.268870 0.084223
O O5 0.928582 0.404296 0.666567
O O6 0.359831 0.870067 0.333236
O O7 0.290209 0.695822 0.149277
O O8 0.336668 0.924236 0.011626
O O9 0.226986 0.941838 0.207308
O O10 0.719277 0.867537 0.906731
#
# Coordination Sequence:
#
# PCOD9295919 Si02
#       5
#     8   4   8   8   8
#     4  12  28  44  76 110 150 197 251 312 367 444
#     4  12  26  50  70 108 154 194 246 310 378 438
#     4  10  23  43  73 102 139 195 239 307 361 456
#     4  10  25  43  75  99 147 192 246 308 373 441
#     4  10  25  46  71 105 145 192 251 295 381 437
#
# _framework density 25.753136000000001
#
# number of rings (size 3 to 8) (size 9 to 14) (size 15 to 20)
#    1.333    0.000    3.333    0.667    6.222    3.556 
#    2.000    0.000    0.000    0.000    0.000    0.000 
#    0.000    0.000    0.000    0.000    0.000    0.000 
#
# Total GULP energy -100422.459748 kJ/mol
# GULP energy per Si atom -5579.025542 kJ/mol
# Density = 2.569452 g / cm^3
# Si number density = 25.753136 Si / 1000 Ang^3
#
#
#
# Elastic Constant Matrix: (Units=GPa)
#
#
# Indices 1 2 3 4 5 6 
#
# 1 103.7163 38.1071 18.3153 0.0000 36.2624 0.0000
# 2 38.1071 175.1491 32.5884 0.0000 18.9583 0.0000
# 3 18.3153 32.5884 82.1000 0.0000 -1.5836 0.0000
# 4 0.0000 0.0000 0.0000 66.1086 0.0000 40.6126
# 5 36.2624 18.9583 -1.5836 0.0000 46.5935 0.0000
# 6 0.0000 0.0000 0.0000 40.6126 0.0000 141.2470
#
#
#
# Elastic Compliance Matrix: (Units=1/GPa)
#
#
# Indices 1 2 3 4 5 6 
#
# 1 0.014432 -0.001447 -0.002853 0.000000 -0.010740 0.000000
# 2 -0.001447 0.006640 -0.002345 0.000000 -0.001655 0.000000
# 3 -0.002853 -0.002345 0.013818 0.000000 0.003644 0.000000
# 4 0.000000 0.000000 0.000000 0.018372 0.000000 -0.005282
# 5 -0.010740 -0.001655 0.003644 0.000000 0.030619 0.000000
# 6 0.000000 0.000000 0.000000 -0.005282 0.000000 0.008599
#
#
# Mechanical properties :
#
#
# Convention : Reuss Voigt Hill
#
# Bulk Modulus (GPa) = 46.29300 59.88743 53.09021
# Shear Modulus (GPa) = 44.26083 68.92013 56.59048
#
# Velocity S-wave (km/s) = 4.15017 5.17880 4.69275
# Velocity P-wave (km/s) = 6.40155 7.68536 7.07265
#
# Compressibility (1/GPa) = 0.02160154
#
# Stress axis : x y z
#
# Youngs Moduli (GPa) = 69.28975 150.61130 72.37153
#
# Poissons Ratio (x) = 0.21789 0.20644
# Poissons Ratio (y) = 0.10024 0.16969
# Poissons Ratio (z) = 0.19765 0.35314
#
# Static dielectric constant tensor:
#      x y z
#    x 2.017520 0.000000 0.066710 
#    y 0.000000 2.144340 0.000000 
#    z 0.066710 0.000000 1.989550 
# 
# From -- ./inp_files/53910.got.cif
#   From: 2010.05.17/outbox.cif.g08.bks.cpg/sg15_27_cif.got.tgz:53910.got - 2010.06.03 18:47:42.
