data_PCOD9295311
_publ_section_title
;
Structure prediction by ZEFSAII (Michael W. Deem and Ramdas Pophale) SiO2 
 PCOD9295311
Probable space group: C 2/C
;
_chemical_formula_sum "Si O2"
_cell_formula_units_Z 36
_cell_length_a 24.800334
_cell_length_b 13.567420
_cell_length_c 7.880693
_cell_angle_alpha 90.000000
_cell_angle_beta 142.763732
_cell_angle_gamma 90.000000
_cell_volume 1604.533002
_symmetry_space_group_name_H-M "C 2/C"
_symmetry_group_IT_number 15
_symmetry_cell_setting 'monoclinic'
loop_
_space_group_symop_operation_xyz
x,y,z
-x,y,1/2-z
-x,-y,-z
x,-y,1/2+z
1/2+x,1/2+y,z
1/2-x,1/2+y,1/2-z
1/2-x,1/2-y,-z
1/2+x,1/2-y,1/2+z
loop_
_atom_site_type_symbol
_atom_site_label
_atom_site_fract_x
_atom_site_fract_y
_atom_site_fract_z
Si Si1 0.303831 0.454099 0.716563
Si Si2 0.533334 0.199794 0.136624
Si Si3 0.071374 0.087847 0.680631
Si Si4 0.500000 0.053535 0.750000
Si Si5 0.674350 0.074161 0.621886
O O1 0.352714 0.548666 0.755544
O O2 0.227235 0.495671 0.643805
O O3 0.249422 0.391995 0.442941
O O4 0.379970 0.402164 0.015683
O O5 0.500000 0.203870 0.250000
O O6 0.527758 0.307170 0.039426
O O7 0.634876 0.162655 0.413389
O O8 0.493144 0.120857 0.902345
O O9 0.000000 0.000000 0.500000
O O10 0.411790 0.984814 0.520862
#
# Coordination Sequence:
#
# PCOD9295311 Si02
#       5
#     8   8   8   4   8
#     4  10  23  42  68  94 140 176 221 297 332 396
#     4  12  25  41  73 104 133 187 232 272 347 422
#     4  11  25  46  67  96 138 185 232 283 342 404
#     4  12  24  44  74 100 146 178 216 292 350 416
#     4  11  21  44  67 101 136 173 225 280 351 401
#
# _framework density 22.436433999999998
#
# number of rings (size 3 to 8) (size 9 to 14) (size 15 to 20)
#    0.000    0.889    3.333    4.000    3.111    1.778 
#    0.000    0.000    0.000    0.000    0.000    0.000 
#    0.000    0.000    0.000    0.000    0.000    0.000 
#
# Total GULP energy -100470.373730 kJ/mol
# GULP energy per Si atom -5581.687429 kJ/mol
# Density = 2.238537 g / cm^3
# Si number density = 22.436434 Si / 1000 Ang^3
#
#
#
# Elastic Constant Matrix: (Units=GPa)
#
#
# Indices 1 2 3 4 5 6 
#
# 1 82.5297 14.1562 10.2167 0.0000 11.6788 0.0000
# 2 14.1562 116.3120 21.5177 0.0000 10.7446 0.0000
# 3 10.2167 21.5177 118.8842 0.0000 -4.7714 0.0000
# 4 0.0000 0.0000 0.0000 21.4176 0.0000 -3.6090
# 5 11.6788 10.7446 -4.7714 0.0000 36.0993 0.0000
# 6 0.0000 0.0000 0.0000 -3.6090 0.0000 20.0536
#
#
#
# Elastic Compliance Matrix: (Units=1/GPa)
#
#
# Indices 1 2 3 4 5 6 
#
# 1 0.012998 -0.001005 -0.001098 0.000000 -0.004051 0.000000
# 2 -0.001005 0.009280 -0.001700 0.000000 -0.002662 0.000000
# 3 -0.001098 -0.001700 0.008895 0.000000 0.002037 0.000000
# 4 0.000000 0.000000 0.000000 0.048151 0.000000 0.008666
# 5 -0.004051 -0.002662 0.002037 0.000000 0.030074 0.000000
# 6 0.000000 0.000000 0.000000 0.008666 0.000000 0.051426
#
#
# Mechanical properties :
#
#
# Convention : Reuss Voigt Hill
#
# Bulk Modulus (GPa) = 42.42919 45.50077 43.96498
# Shear Modulus (GPa) = 28.36298 33.63644 30.99971
#
# Velocity S-wave (km/s) = 3.55934 3.87614 3.72111
# Velocity P-wave (km/s) = 5.98697 6.35267 6.17253
#
# Compressibility (1/GPa) = 0.02356868
#
# Stress axis : x y z
#
# Youngs Moduli (GPa) = 76.93259 107.75546 112.41801
#
# Poissons Ratio (x) = 0.10826 0.12341
# Poissons Ratio (y) = 0.07729 0.19113
# Poissons Ratio (z) = 0.08446 0.18321
#
# Static dielectric constant tensor:
#      x y z
#    x 1.878960 0.000000 -0.052700 
#    y 0.000000 1.812540 0.000000 
#    z -0.052700 0.000000 1.891640 
# 
# From -- ./inp_files/37472.got.cif
#   From: 2010.05.17/outbox.cif.g08.bks.cpg/sg15_19_cif.got.tgz:37472.got - 2010.06.03 18:47:42.
