data_PCOD9295439
_publ_section_title
;
Structure prediction by ZEFSAII (Michael W. Deem and Ramdas Pophale) SiO2 
 PCOD9295439
Probable space group: C 2/C
;
_chemical_formula_sum "Si O2"
_cell_formula_units_Z 60
_cell_length_a 22.139146
_cell_length_b 8.513984
_cell_length_c 22.146626
_cell_angle_alpha 90.000000
_cell_angle_beta 37.669298
_cell_angle_gamma 90.000000
_cell_volume 2551.030571
_symmetry_space_group_name_H-M "C 2/C"
_symmetry_group_IT_number 15
_symmetry_cell_setting 'monoclinic'
loop_
_space_group_symop_operation_xyz
x,y,z
-x,y,1/2-z
-x,-y,-z
x,-y,1/2+z
1/2+x,1/2+y,z
1/2-x,1/2+y,1/2-z
1/2-x,1/2-y,-z
1/2+x,1/2-y,1/2+z
loop_
_atom_site_type_symbol
_atom_site_label
_atom_site_fract_x
_atom_site_fract_y
_atom_site_fract_z
Si Si1 0.791968 0.843064 0.909900
Si Si2 0.838344 0.714813 0.305798
Si Si3 0.500000 0.179934 0.750000
Si Si4 0.765318 0.027640 0.306583
Si Si5 0.386907 0.224214 0.630556
Si Si6 0.001942 0.488904 0.126184
Si Si7 0.406066 0.618870 0.858996
Si Si8 0.107761 0.213067 0.500136
O O1 0.738647 0.868795 0.887653
O O2 0.899521 0.768917 0.810272
O O3 0.811186 0.014355 0.922537
O O4 0.750000 0.750000 0.000000
O O5 0.904427 0.595828 0.215821
O O6 0.882944 0.726375 0.338073
O O7 0.723511 0.673578 0.402307
O O8 0.836438 0.887973 0.276300
O O9 0.468756 0.082478 0.833295
O O10 0.819639 0.148663 0.218698
O O11 0.680761 0.923254 0.340220
O O12 0.433319 0.305767 0.534390
O O13 0.470011 0.148777 0.606660
O O14 0.083796 0.606472 0.035898
O O15 0.500000 0.551895 0.750000
O O16 0.428903 0.627696 0.911032
#
# Coordination Sequence:
#
# PCOD9295439 Si02
#       8
#     8   8   4   8   8   8   8   8
#     4  11  26  44  70 102 140 183 232 297 348 413
#     4  10  23  42  71  95 136 177 232 290 347 409
#     4  12  26  42  72 104 142 180 242 290 356 406
#     4  10  23  46  69 101 141 189 231 286 355 415
#     4  11  23  43  69  99 146 182 234 284 351 428
#     4  12  24  43  69 104 140 183 232 298 345 411
#     4  11  21  42  66  94 136 174 234 290 343 400
#     4  11  24  40  66 102 129 185 231 276 352 424
#
# _framework density 23.519907
#
# number of rings (size 3 to 8) (size 9 to 14) (size 15 to 20)
#    0.000    1.067    3.333    3.200    7.467    1.067 
#    0.000    0.667    0.000    0.000    0.000    0.000 
#    0.000    0.000    0.000    0.000    0.000    0.000 
#
# Total GULP energy -167497.095187 kJ/mol
# GULP energy per Si atom -5583.236506 kJ/mol
# Density = 2.346638 g / cm^3
# Si number density = 23.519907 Si / 1000 Ang^3
#
#
#
# Elastic Constant Matrix: (Units=GPa)
#
#
# Indices 1 2 3 4 5 6 
#
# 1 86.9245 18.8141 23.5326 0.0002 28.1889 -0.0005
# 2 18.8141 40.8266 21.8381 0.0004 17.2010 -0.0013
# 3 23.5326 21.8381 101.9765 0.0001 31.2832 -0.0005
# 4 0.0002 0.0004 0.0001 36.7487 -0.0001 0.9298
# 5 28.1889 17.2010 31.2832 -0.0001 58.9897 0.0002
# 6 -0.0005 -0.0013 -0.0005 0.9298 0.0002 35.8344
#
#
#
# Elastic Compliance Matrix: (Units=1/GPa)
#
#
# Indices 1 2 3 4 5 6 
#
# 1 0.014279 -0.003922 -0.000851 0.000000 -0.005228 0.000000
# 2 -0.003922 0.030561 -0.004157 0.000000 -0.004833 0.000001
# 3 -0.000851 -0.004157 0.012416 0.000000 -0.004966 0.000000
# 4 0.000000 0.000000 0.000000 0.027230 0.000000 -0.000707
# 5 -0.005228 -0.004833 -0.004966 0.000000 0.023493 0.000000
# 6 0.000000 0.000001 0.000000 -0.000707 0.000000 0.027925
#
#
# Mechanical properties :
#
#
# Convention : Reuss Voigt Hill
#
# Bulk Modulus (GPa) = 25.38374 39.78858 32.58616
# Shear Modulus (GPa) = 29.95880 37.35073 33.65476
#
# Velocity S-wave (km/s) = 3.57285 3.98935 3.78683
# Velocity P-wave (km/s) = 5.27601 6.17848 5.74499
#
# Compressibility (1/GPa) = 0.03939529
#
# Stress axis : x y z
#
# Youngs Moduli (GPa) = 70.03233 32.72162 80.54047
#
# Poissons Ratio (x) = 0.12834 0.06857
# Poissons Ratio (y) = 0.27467 0.33480
# Poissons Ratio (z) = 0.05962 0.13602
#
# Static dielectric constant tensor:
#      x y z
#    x 1.922860 0.000000 0.006090 
#    y 0.000000 1.937500 0.000000 
#    z 0.006090 0.000000 1.915500 
# 
# From -- ./inp_files/255148.got.cif
#   From: 2010.05.17/outbox.cif.g08.bks.cpg/sg15_128_cif.got.tgz:255148.got - 2010.06.03 18:47:42.
