data_PCOD9295499
_publ_section_title
;
Structure prediction by ZEFSAII (Michael W. Deem and Ramdas Pophale) SiO2 
 PCOD9295499
Probable space group: C 2/C
;
_chemical_formula_sum "Si O2"
_cell_formula_units_Z 64
_cell_length_a 15.019647
_cell_length_b 18.021950
_cell_length_c 14.275684
_cell_angle_alpha 90.000000
_cell_angle_beta 122.172564
_cell_angle_gamma 90.000000
_cell_volume 3270.836508
_symmetry_space_group_name_H-M "C 2/C"
_symmetry_group_IT_number 15
_symmetry_cell_setting 'monoclinic'
loop_
_space_group_symop_operation_xyz
x,y,z
-x,y,1/2-z
-x,-y,-z
x,-y,1/2+z
1/2+x,1/2+y,z
1/2-x,1/2+y,1/2-z
1/2-x,1/2-y,-z
1/2+x,1/2-y,1/2+z
loop_
_atom_site_type_symbol
_atom_site_label
_atom_site_fract_x
_atom_site_fract_y
_atom_site_fract_z
Si Si1 0.228437 0.179198 0.555239
Si Si2 0.487763 0.942775 0.350971
Si Si3 0.172295 0.041542 0.186276
Si Si4 0.427596 0.218246 0.788479
Si Si5 0.981182 0.831587 0.960686
Si Si6 0.168922 0.497864 0.590626
Si Si7 0.503249 0.572257 0.643115
Si Si8 0.292210 0.494296 0.492307
O O1 0.250000 0.250000 0.500000
O O2 0.314831 0.193641 0.684902
O O3 0.240295 0.092885 0.526994
O O4 0.104919 0.179988 0.511352
O O5 0.500000 0.971921 0.250000
O O6 0.494998 0.855026 0.345695
O O7 0.576206 0.969259 0.472494
O O8 0.380990 0.960341 0.348450
O O9 0.080178 0.101191 0.124906
O O10 0.252066 0.059636 0.314567
O O11 0.231743 0.031178 0.121031
O O12 0.114525 0.963222 0.175117
O O13 0.500000 0.260039 0.750000
O O14 0.422743 0.261921 0.882650
O O15 0.975040 0.856713 0.064851
O O16 0.240912 0.535899 0.551997
O O17 0.500000 0.588311 0.750000
O O18 0.416242 0.508847 0.572814
#
# Coordination Sequence:
#
# PCOD9295499 Si02
#       8
#     8   8   8   8   8   8   8   8
#     4  12  23  36  61  88 127 168 197 257 324 385
#     4  10  23  43  59  90 125 169 219 260 316 385
#     4  11  21  38  61  95 129 161 204 268 326 386
#     4  11  23  38  59  84 124 164 206 258 320 387
#     4  11  24  39  58  95 128 163 210 259 323 390
#     4  11  22  35  67  89 122 166 208 270 316 379
#     4  11  21  39  64  91 129 167 207 267 321 385
#     4  11  21  38  61  96 126 161 207 258 323 386
#
# _framework density 19.566859999999998
#
# number of rings (size 3 to 8) (size 9 to 14) (size 15 to 20)
#    0.000    1.000    5.000    3.750    1.750    0.500 
#    0.000    0.000    0.000   11.250    0.000    0.000 
#    0.000    0.000    0.000    0.000    0.000    0.000 
#
# Total GULP energy -178147.935307 kJ/mol
# GULP energy per Si atom -5567.122978 kJ/mol
# Density = 1.952232 g / cm^3
# Si number density = 19.566860 Si / 1000 Ang^3
#
#
#
# Elastic Constant Matrix: (Units=GPa)
#
#
# Indices 1 2 3 4 5 6 
#
# 1 91.1137 17.3900 31.4274 0.0000 -11.3361 0.0000
# 2 17.3900 55.9218 24.9565 0.0000 -10.1878 0.0000
# 3 31.4274 24.9565 131.3672 0.0000 -12.3631 0.0000
# 4 0.0000 0.0000 0.0000 21.8534 0.0000 -2.3621
# 5 -11.3361 -10.1878 -12.3631 0.0000 31.9444 0.0000
# 6 0.0000 0.0000 0.0000 -2.3621 0.0000 22.0072
#
#
#
# Elastic Compliance Matrix: (Units=1/GPa)
#
#
# Indices 1 2 3 4 5 6 
#
# 1 0.012569 -0.002373 -0.002291 0.000000 0.002817 0.000000
# 2 -0.002373 0.020780 -0.002943 0.000000 0.004646 0.000000
# 3 -0.002291 -0.002943 0.008878 0.000000 0.001684 0.000000
# 4 0.000000 0.000000 0.000000 0.046297 0.000000 0.004969
# 5 0.002817 0.004646 0.001684 0.000000 0.034438 0.000000
# 6 0.000000 0.000000 0.000000 0.004969 0.000000 0.045973
#
#
# Mechanical properties :
#
#
# Convention : Reuss Voigt Hill
#
# Bulk Modulus (GPa) = 37.01890 47.32783 42.17337
# Shear Modulus (GPa) = 25.88643 28.80292 27.34468
#
# Velocity S-wave (km/s) = 3.64122 3.84086 3.74237
# Velocity P-wave (km/s) = 6.05295 6.62645 6.34618
#
# Compressibility (1/GPa) = 0.02701323
#
# Stress axis : x y z
#
# Youngs Moduli (GPa) = 79.56151 48.12387 112.63941
#
# Poissons Ratio (x) = 0.11420 0.25806
# Poissons Ratio (y) = 0.18880 0.33146
# Poissons Ratio (z) = 0.18227 0.14161
#
# Static dielectric constant tensor:
#      x y z
#    x 1.787550 0.000000 0.026260 
#    y 0.000000 1.688190 0.000000 
#    z 0.026260 0.000000 1.736980 
# 
# From -- ./inp_files/155201.got.cif
#   From: 2010.05.17/outbox.cif.g08.bks.cpg/sg15_78_cif.got.tgz:155201.got - 2010.06.03 18:47:42.
