data_PCOD9295475
_publ_section_title
;
Structure prediction by ZEFSAII (Michael W. Deem and Ramdas Pophale) SiO2 
 PCOD9295475
Probable space group: C 2/C
;
_chemical_formula_sum "Si O2"
_cell_formula_units_Z 40
_cell_length_a 22.558403
_cell_length_b 9.136754
_cell_length_c 14.467864
_cell_angle_alpha 90.000000
_cell_angle_beta 34.760234
_cell_angle_gamma 90.000000
_cell_volume 1700.156454
_symmetry_space_group_name_H-M "C 2/C"
_symmetry_group_IT_number 15
_symmetry_cell_setting 'monoclinic'
loop_
_space_group_symop_operation_xyz
x,y,z
-x,y,1/2-z
-x,-y,-z
x,-y,1/2+z
1/2+x,1/2+y,z
1/2-x,1/2+y,1/2-z
1/2-x,1/2-y,-z
1/2+x,1/2-y,1/2+z
loop_
_atom_site_type_symbol
_atom_site_label
_atom_site_fract_x
_atom_site_fract_y
_atom_site_fract_z
Si Si1 0.296639 0.871489 0.600494
Si Si2 0.000000 0.233300 0.250000
Si Si3 0.476814 0.508532 0.921621
Si Si4 0.793899 0.408608 0.967026
Si Si5 0.767539 0.449114 0.305256
Si Si6 0.000000 0.736723 0.250000
O O1 0.397595 0.819457 0.413327
O O2 0.230295 0.726113 0.707030
O O3 0.329022 0.954957 0.652013
O O4 0.236414 0.990623 0.615498
O O5 0.026824 0.126014 0.300865
O O6 0.508022 0.657521 0.828979
O O7 0.500000 0.500000 0.000000
O O8 0.353141 0.491238 0.059485
O O9 0.799155 0.500055 0.866384
O O10 0.901383 0.366676 0.877386
O O11 0.750000 0.250000 0.000000
#
# Coordination Sequence:
#
# PCOD9295475 Si02
#       6
#     8   4   8   8   8   4
#     4  11  25  47  72 109 143 193 248 306 378 442
#     4   9  23  46  68 108 146 194 242 308 366 440
#     4  10  23  42  73 106 150 193 246 301 381 445
#     4  12  25  46  71 106 150 192 250 309 376 446
#     4  11  25  44  75 106 143 196 243 309 371 452
#     4  11  25  44  72 108 148 200 246 316 372 446
#
# _framework density 23.527245000000001
#
# number of rings (size 3 to 8) (size 9 to 14) (size 15 to 20)
#    0.000    1.200    2.000    2.400    8.400    1.600 
#    0.000    2.000    0.000    0.000    0.000    0.000 
#    0.000    0.000    0.000    0.000    0.000    0.000 
#
# Total GULP energy -111940.961291 kJ/mol
# GULP energy per Si atom -5597.048065 kJ/mol
# Density = 2.347370 g / cm^3
# Si number density = 23.527245 Si / 1000 Ang^3
#
#
#
# Elastic Constant Matrix: (Units=GPa)
#
#
# Indices 1 2 3 4 5 6 
#
# 1 64.2189 38.6550 8.3807 0.0000 39.6669 0.0000
# 2 38.6550 182.5665 29.7973 0.0001 28.6740 -0.0001
# 3 8.3807 29.7973 75.8404 0.0001 20.6529 -0.0001
# 4 0.0000 0.0001 0.0001 40.8816 0.0000 5.8703
# 5 39.6669 28.6740 20.6529 0.0000 59.2861 0.0000
# 6 0.0000 -0.0001 -0.0001 5.8703 0.0000 22.6164
#
#
#
# Elastic Compliance Matrix: (Units=1/GPa)
#
#
# Indices 1 2 3 4 5 6 
#
# 1 0.028958 -0.003738 0.003373 0.000000 -0.018742 0.000000
# 2 -0.003738 0.006618 -0.002206 0.000000 0.000069 0.000000
# 3 0.003373 -0.002206 0.015471 0.000000 -0.006579 0.000000
# 4 0.000000 0.000000 0.000000 0.025408 0.000000 -0.006595
# 5 -0.018742 0.000069 -0.006579 0.000000 0.031666 0.000000
# 6 0.000000 0.000000 0.000000 -0.006595 0.000000 0.045927
#
#
# Mechanical properties :
#
#
# Convention : Reuss Voigt Hill
#
# Bulk Modulus (GPa) = 21.78418 52.92131 37.35274
# Shear Modulus (GPa) = 28.65432 40.94302 34.79867
#
# Velocity S-wave (km/s) = 3.49366 4.17614 3.85005
# Velocity P-wave (km/s) = 5.05504 6.76728 5.97283
#
# Compressibility (1/GPa) = 0.04590487
#
# Stress axis : x y z
#
# Youngs Moduli (GPa) = 34.53225 151.09873 64.63620
#
# Poissons Ratio (x) = 0.56483 -0.21799
# Poissons Ratio (y) = 0.12909 0.14258
# Poissons Ratio (z) = -0.11646 0.33330
#
# Static dielectric constant tensor:
#      x y z
#    x 1.360660 0.000000 0.315310 
#    y 0.000000 1.825060 0.000000 
#    z 0.315310 0.000000 1.707590 
# 
# From -- ./inp_files/166042.got.cif
#   From: 2010.05.17/outbox.cif.g08.bks.cpg/sg15_84_cif.got.tgz:166042.got - 2010.06.03 18:47:42.
