data_PCOD9295424
_publ_section_title
;
Structure prediction by ZEFSAII (Michael W. Deem and Ramdas Pophale) SiO2 
 PCOD9295424
Probable space group: C 2/C
;
_chemical_formula_sum "Si O2"
_cell_formula_units_Z 52
_cell_length_a 17.512874
_cell_length_b 15.236039
_cell_length_c 9.332054
_cell_angle_alpha 90.000000
_cell_angle_beta 55.171178
_cell_angle_gamma 90.000000
_cell_volume 2043.981218
_symmetry_space_group_name_H-M "C 2/C"
_symmetry_group_IT_number 15
_symmetry_cell_setting 'monoclinic'
loop_
_space_group_symop_operation_xyz
x,y,z
-x,y,1/2-z
-x,-y,-z
x,-y,1/2+z
1/2+x,1/2+y,z
1/2-x,1/2+y,1/2-z
1/2-x,1/2-y,-z
1/2+x,1/2-y,1/2+z
loop_
_atom_site_type_symbol
_atom_site_label
_atom_site_fract_x
_atom_site_fract_y
_atom_site_fract_z
Si Si1 0.118055 0.938837 0.716850
Si Si2 0.318521 0.796052 0.115030
Si Si3 0.441437 0.392498 0.047342
Si Si4 0.700912 0.929423 0.107916
Si Si5 0.000000 0.388404 0.250000
Si Si6 0.216081 0.621711 0.139203
Si Si7 0.967955 0.296120 0.578954
O O1 0.225663 0.800169 0.850564
O O2 0.092934 0.918496 0.576246
O O3 0.052428 0.885146 0.895560
O O4 0.088642 0.035803 0.803225
O O5 0.300336 0.846564 0.283884
O O6 0.274914 0.857672 0.039387
O O7 0.429598 0.792523 0.963497
O O8 0.416904 0.297293 0.130493
O O9 0.595227 0.941593 0.168572
O O10 0.736587 0.019624 0.141708
O O11 0.773212 0.916985 0.901231
O O12 0.987270 0.324939 0.396840
O O13 0.107204 0.634815 0.288073
#
# Coordination Sequence:
#
# PCOD9295424 Si02
#       7
#     8   8   8   8   4   8   8
#     4  10  23  42  71 103 145 191 240 306 366 445
#     4  10  26  47  69 114 138 193 246 297 368 429
#     4  10  23  44  69 107 145 188 249 297 381 440
#     4  11  26  45  78 104 151 189 245 301 362 435
#     4  10  26  44  72 110 138 198 246 286 368 430
#     4  11  26  45  75 103 147 190 243 301 363 433
#     4  11  24  46  71 100 150 188 240 309 354 436
#
# _framework density 25.440546999999999
#
# number of rings (size 3 to 8) (size 9 to 14) (size 15 to 20)
#    0.000    1.538    0.000    2.308   10.769    6.154 
#    2.769    3.846    0.000    0.000    0.000    0.000 
#    0.000    0.000    0.000    0.000    0.000    0.000 
#
# Total GULP energy -145474.928806 kJ/mol
# GULP energy per Si atom -5595.189569 kJ/mol
# Density = 2.538264 g / cm^3
# Si number density = 25.440547 Si / 1000 Ang^3
#
#
#
# Elastic Constant Matrix: (Units=GPa)
#
#
# Indices 1 2 3 4 5 6 
#
# 1 104.9165 30.0973 45.5929 0.0000 -24.4529 0.0000
# 2 30.0973 61.1693 -11.6372 0.0000 1.8157 0.0000
# 3 45.5929 -11.6372 88.2102 0.0000 -29.6448 0.0000
# 4 0.0000 0.0000 0.0000 28.9558 0.0000 -5.8196
# 5 -24.4529 1.8157 -29.6448 0.0000 51.9357 0.0000
# 6 0.0000 0.0000 0.0000 -5.8196 0.0000 34.4659
#
#
#
# Elastic Compliance Matrix: (Units=1/GPa)
#
#
# Indices 1 2 3 4 5 6 
#
# 1 0.017239 -0.010326 -0.009185 0.000000 0.003235 0.000000
# 2 -0.010326 0.022983 0.008000 0.000000 -0.001099 0.000000
# 3 -0.009185 0.008000 0.019293 0.000000 0.006408 0.000000
# 4 0.000000 0.000000 0.000000 0.035749 0.000000 0.006036
# 5 0.003235 -0.001099 0.006408 0.000000 0.024474 0.000000
# 6 0.000000 0.000000 0.000000 0.006036 0.000000 0.030033
#
#
# Mechanical properties :
#
#
# Convention : Reuss Voigt Hill
#
# Bulk Modulus (GPa) = 27.40279 42.48911 34.94595
# Shear Modulus (GPa) = 27.03315 35.75434 31.39374
#
# Velocity S-wave (km/s) = 3.26329 3.75294 3.51665
# Velocity P-wave (km/s) = 4.99935 5.95962 5.50048
#
# Compressibility (1/GPa) = 0.03649264
#
# Stress axis : x y z
#
# Youngs Moduli (GPa) = 58.00770 43.51004 51.83186
#
# Poissons Ratio (x) = 0.44927 0.47610
# Poissons Ratio (y) = 0.59897 -0.41464
# Poissons Ratio (z) = 0.53283 -0.34807
#
# Static dielectric constant tensor:
#      x y z
#    x 2.168870 0.000000 0.001250 
#    y 0.000000 1.945760 0.000000 
#    z 0.001250 0.000000 2.013160 
# 
# From -- ./inp_files/117963.got.cif
#   From: 2010.05.17/outbox.cif.g08.bks.cpg/sg15_59_cif.got.tgz:117963.got - 2010.06.03 18:47:42.
