data_PCOD9295017
_publ_section_title
;
Structure prediction by ZEFSAII (Michael W. Deem and Ramdas Pophale) SiO2 
 PCOD9295017
Probable space group: C 2/C
;
_chemical_formula_sum "Si O2"
_cell_formula_units_Z 32
_cell_length_a 22.283176
_cell_length_b 7.926257
_cell_length_c 15.729081
_cell_angle_alpha 90.000000
_cell_angle_beta 150.227467
_cell_angle_gamma 90.000000
_cell_volume 1379.489789
_symmetry_space_group_name_H-M "C 2/C"
_symmetry_group_IT_number 15
_symmetry_cell_setting 'monoclinic'
loop_
_space_group_symop_operation_xyz
x,y,z
-x,y,1/2-z
-x,-y,-z
x,-y,1/2+z
1/2+x,1/2+y,z
1/2-x,1/2+y,1/2-z
1/2-x,1/2-y,-z
1/2+x,1/2-y,1/2+z
loop_
_atom_site_type_symbol
_atom_site_label
_atom_site_fract_x
_atom_site_fract_y
_atom_site_fract_z
Si Si1 0.680715 0.977152 0.207519
Si Si2 0.475884 0.134065 0.348902
Si Si3 0.534214 0.502211 0.942239
Si Si4 0.873197 0.702670 0.696251
O O1 0.658576 0.819717 0.243026
O O2 0.602718 0.121932 0.159407
O O3 0.610469 0.933095 0.035584
O O4 0.821115 0.009751 0.380584
O O5 0.482154 0.328294 0.334251
O O6 0.413111 0.986398 0.218038
O O7 0.478397 0.340900 0.825342
O O8 0.500000 0.500000 0.000000
O O9 0.750000 0.750000 0.500000
#
# Coordination Sequence:
#
# PCOD9295017 Si02
#       4
#     8   8   8   8
#     4   9  21  40  58  96 126 146 226 261 287 397
#     4   9  21  40  59  93 123 162 212 264 299 382
#     4  12  22  36  69  90 122 176 201 260 329 358
#     4  10  23  42  61  91 130 163 206 262 321 372
#
# _framework density 23.196984
#
# number of rings (size 3 to 8) (size 9 to 14) (size 15 to 20)
#    1.500    0.500    2.500    0.000    7.000    2.000 
#    0.000    0.000    0.000    0.000    0.000    0.000 
#    0.000    0.000    0.000    0.000    0.000    0.000 
#
# Total GULP energy -89253.023340 kJ/mol
# GULP energy per Si atom -5578.313959 kJ/mol
# Density = 2.314419 g / cm^3
# Si number density = 23.196984 Si / 1000 Ang^3
#
#
#
# Elastic Constant Matrix: (Units=GPa)
#
#
# Indices 1 2 3 4 5 6 
#
# 1 49.0732 15.4899 22.8429 0.0000 11.2577 0.0000
# 2 15.4899 158.2859 51.4787 0.0000 15.8821 0.0000
# 3 22.8429 51.4787 150.7657 0.0000 22.8654 0.0000
# 4 0.0000 0.0000 0.0000 31.6463 0.0000 3.8809
# 5 11.2577 15.8821 22.8654 0.0000 36.4764 0.0000
# 6 0.0000 0.0000 0.0000 3.8809 0.0000 -4.0914
#
#
#
# Elastic Compliance Matrix: (Units=1/GPa)
#
#
# Indices 1 2 3 4 5 6 
#
# 1 0.022972 -0.000958 -0.002367 0.000000 -0.005189 0.000000
# 2 -0.000958 0.007248 -0.002095 0.000000 -0.001547 0.000000
# 3 -0.002367 -0.002095 0.008241 0.000000 -0.003523 0.000000
# 4 0.000000 0.000000 0.000000 0.028307 0.000000 0.026850
# 5 -0.005189 -0.001547 -0.003523 0.000000 0.031899 0.000000
# 6 0.000000 0.000000 0.000000 0.026850 0.000000 -0.218945
#
#
# Mechanical properties :
#
#
# Convention : Reuss Voigt Hill
#
# Bulk Modulus (GPa) = 36.20235 59.74977 47.97606
# Shear Modulus (GPa) = -49.88408 30.69379 -9.59514
#
# Velocity S-wave (km/s) = -4.64233 3.64150 -2.03601
# Velocity P-wave (km/s) = 3.61865 6.59501 3.89869
#
# Compressibility (1/GPa) = 0.02762251
#
# Stress axis : x y z
#
# Youngs Moduli (GPa) = 43.53109 137.96898 121.34310
#
# Poissons Ratio (x) = 0.13213 0.28716
# Poissons Ratio (y) = 0.04169 0.25423
# Poissons Ratio (z) = 0.10302 0.28906
#
# Static dielectric constant tensor:
#      x y z
#    x 1.993340 0.000000 -0.022760 
#    y 0.000000 1.918370 0.000000 
#    z -0.022760 0.000000 1.842970 
# 
# From -- ./inp_files/93258.got.cif
#   From: 2010.05.17/outbox.cif.g08.bks.cpg/sg15_47_cif.got.tgz:93258.got - 2010.06.03 18:47:42.
