data_PCOD9295823
_publ_section_title
;
Structure prediction by ZEFSAII (Michael W. Deem and Ramdas Pophale) SiO2 
 PCOD9295823
Probable space group: C 2/C
;
_chemical_formula_sum "Si O2"
_cell_formula_units_Z 56
_cell_length_a 10.993330
_cell_length_b 25.568601
_cell_length_c 8.846365
_cell_angle_alpha 90.000000
_cell_angle_beta 72.824038
_cell_angle_gamma 90.000000
_cell_volume 2375.676961
_symmetry_space_group_name_H-M "C 2/C"
_symmetry_group_IT_number 15
_symmetry_cell_setting 'monoclinic'
loop_
_space_group_symop_operation_xyz
x,y,z
-x,y,1/2-z
-x,-y,-z
x,-y,1/2+z
1/2+x,1/2+y,z
1/2-x,1/2+y,1/2-z
1/2-x,1/2-y,-z
1/2+x,1/2-y,1/2+z
loop_
_atom_site_type_symbol
_atom_site_label
_atom_site_fract_x
_atom_site_fract_y
_atom_site_fract_z
Si Si1 0.266837 0.781933 0.152910
Si Si2 0.092293 0.842171 0.436099
Si Si3 0.500000 0.033578 0.750000
Si Si4 0.446632 0.449094 0.434667
Si Si5 0.172989 0.608283 0.491788
Si Si6 0.000000 0.772128 0.750000
Si Si7 0.181952 0.556922 0.176771
Si Si8 0.957615 0.348854 0.921164
O O1 0.140751 0.803195 0.284566
O O2 0.372394 0.756573 0.228504
O O3 0.250000 0.750000 0.000000
O O4 0.339382 0.831528 0.059992
O O5 0.218214 0.874583 0.436877
O O6 0.990095 0.888973 0.452378
O O7 0.047885 0.807111 0.592449
O O8 0.572370 0.068737 0.602325
O O9 0.388274 0.994767 0.738818
O O10 0.500000 0.457170 0.250000
O O11 0.500000 0.500000 0.500000
O O12 0.297750 0.453151 0.523191
O O13 0.225664 0.586950 0.312715
O O14 0.082198 0.655841 0.477553
O O15 0.085820 0.593704 0.118155
O O16 0.000000 0.320838 0.750000
#
# Coordination Sequence:
#
# PCOD9295823 Si02
#       8
#     8   8   4   8   8   4   8   8
#     4  12  29  48  82 112 155 203 268 330 408 486
#     4  12  28  52  77 114 161 209 259 337 401 488
#     4  12  22  39  70 112 144 206 263 316 378 462
#     4  12  30  49  78 110 161 211 268 316 405 485
#     4  11  23  43  74 102 157 199 255 317 393 454
#     4  12  30  49  84 118 156 206 279 334 416 480
#     4  11  24  42  71 109 152 199 261 317 387 462
#     4  10  23  43  70 104 143 195 245 319 387 465
#
# _framework density 23.572227999999999
#
# number of rings (size 3 to 8) (size 9 to 14) (size 15 to 20)
#    0.000    0.571    2.143    5.143   15.000    0.000 
#    0.000    0.000    0.000    0.000    0.000    0.000 
#    0.000    0.000    0.000    0.000    0.000    0.000 
#
# Total GULP energy -156276.452854 kJ/mol
# GULP energy per Si atom -5581.301888 kJ/mol
# Density = 2.351858 g / cm^3
# Si number density = 23.572228 Si / 1000 Ang^3
#
#
#
# Elastic Constant Matrix: (Units=GPa)
#
#
# Indices 1 2 3 4 5 6 
#
# 1 75.7615 19.5095 28.0481 0.0000 -16.3202 0.0000
# 2 19.5095 78.8730 33.0027 0.0000 -2.5521 0.0000
# 3 28.0481 33.0027 107.8236 0.0000 -27.9395 0.0000
# 4 0.0000 0.0000 0.0000 79.5813 0.0000 1.6050
# 5 -16.3202 -2.5521 -27.9395 0.0000 48.9142 0.0000
# 6 0.0000 0.0000 0.0000 1.6050 0.0000 22.2725
#
#
#
# Elastic Compliance Matrix: (Units=1/GPa)
#
#
# Indices 1 2 3 4 5 6 
#
# 1 0.015553 -0.002801 -0.002209 0.000000 0.003781 0.000000
# 2 -0.002801 0.015230 -0.004659 0.000000 -0.002801 0.000000
# 3 -0.002209 -0.004659 0.012936 0.000000 0.006409 0.000000
# 4 0.000000 0.000000 0.000000 0.012584 0.000000 -0.000907
# 5 0.003781 -0.002801 0.006409 0.000000 0.025220 0.000000
# 6 0.000000 0.000000 0.000000 -0.000907 0.000000 0.044964
#
#
# Mechanical properties :
#
#
# Convention : Reuss Voigt Hill
#
# Bulk Modulus (GPa) = 41.01344 47.06430 44.03887
# Shear Modulus (GPa) = 32.47807 42.28011 37.37909
#
# Velocity S-wave (km/s) = 3.71591 4.23973 3.98644
# Velocity P-wave (km/s) = 5.98728 6.63148 6.31759
#
# Compressibility (1/GPa) = 0.02438225
#
# Stress axis : x y z
#
# Youngs Moduli (GPa) = 64.29726 65.65936 77.30606
#
# Poissons Ratio (x) = 0.18388 0.17074
# Poissons Ratio (y) = 0.18006 0.36016
# Poissons Ratio (z) = 0.14201 0.30590
#
# Static dielectric constant tensor:
#      x y z
#    x 2.031000 0.000000 0.005870 
#    y 0.000000 2.049870 0.000000 
#    z 0.005870 0.000000 1.891910 
# 
# From -- ./inp_files/34237.got.cif
#   From: 2010.05.17/outbox.cif.g08.bks.cpg/sg15_18_cif.got.tgz:34237.got - 2010.06.03 18:47:42.
