data_PCOD9295034
_publ_section_title
;
Structure prediction by ZEFSAII (Michael W. Deem and Ramdas Pophale) SiO2 
 PCOD9295034
Probable space group: C 2/C
;
_chemical_formula_sum "Si O2"
_cell_formula_units_Z 44
_cell_length_a 29.233422
_cell_length_b 8.303210
_cell_length_c 9.140738
_cell_angle_alpha 90.000000
_cell_angle_beta 125.793139
_cell_angle_gamma 90.000000
_cell_volume 1799.697320
_symmetry_space_group_name_H-M "C 2/C"
_symmetry_group_IT_number 15
_symmetry_cell_setting 'monoclinic'
loop_
_space_group_symop_operation_xyz
x,y,z
-x,y,1/2-z
-x,-y,-z
x,-y,1/2+z
1/2+x,1/2+y,z
1/2-x,1/2+y,1/2-z
1/2-x,1/2-y,-z
1/2+x,1/2-y,1/2+z
loop_
_atom_site_type_symbol
_atom_site_label
_atom_site_fract_x
_atom_site_fract_y
_atom_site_fract_z
Si Si1 0.027127 0.359421 0.958671
Si Si2 0.291246 0.974776 0.842427
Si Si3 0.000000 0.000000 0.000000
Si Si4 0.120013 0.015352 0.372999
Si Si5 0.317820 0.366004 0.242911
Si Si6 0.349251 0.152192 0.721017
O O1 0.000000 0.361254 0.750000
O O2 0.093863 0.388798 0.087256
O O3 0.000000 0.500000 0.000000
O O4 0.015618 0.188724 0.011822
O O5 0.298617 0.810310 0.761497
O O6 0.233024 0.013289 0.814690
O O7 0.300365 0.119044 0.745183
O O8 0.337150 0.956629 0.056764
O O9 0.055420 0.978607 0.218368
O O10 0.130266 0.067003 0.559532
O O11 0.143330 0.169537 0.327306
O O12 0.159868 0.874899 0.381401
#
# Coordination Sequence:
#
# PCOD9295034 Si02
#       6
#     8   8   4   8   8   8
#     4  11  25  45  71 105 140 186 231 289 348 418
#     4  11  23  41  64  93 132 167 218 271 333 400
#     4  10  26  44  70 100 138 180 232 288 344 414
#     4  10  24  42  64  93 129 167 225 270 335 398
#     4  11  24  40  64  95 125 175 214 275 331 400
#     4  10  23  42  62  94 130 169 212 275 329 397
#
# _framework density 24.448556
#
# number of rings (size 3 to 8) (size 9 to 14) (size 15 to 20)
#    0.000    1.455    0.000    3.273    7.636    8.000 
#    0.000    0.000    0.000    0.000    0.000    0.000 
#    0.000    0.000    0.000    0.000    0.000    0.000 
#
# Total GULP energy -122680.726054 kJ/mol
# GULP energy per Si atom -5576.396639 kJ/mol
# Density = 2.439291 g / cm^3
# Si number density = 24.448556 Si / 1000 Ang^3
#
#
#
# Elastic Constant Matrix: (Units=GPa)
#
#
# Indices 1 2 3 4 5 6 
#
# 1 27.7058 22.0258 -4.1223 0.0000 -3.5498 0.0000
# 2 22.0258 84.9589 29.0414 0.0000 -8.8561 0.0000
# 3 -4.1223 29.0414 73.7724 0.0000 6.0936 0.0000
# 4 0.0000 0.0000 0.0000 32.5443 0.0000 -5.2832
# 5 -3.5498 -8.8561 6.0936 0.0000 38.5944 0.0000
# 6 0.0000 0.0000 0.0000 -5.2832 0.0000 21.1338
#
#
#
# Elastic Compliance Matrix: (Units=1/GPa)
#
#
# Indices 1 2 3 4 5 6 
#
# 1 0.050341 -0.016278 0.009268 0.000000 -0.000569 0.000000
# 2 -0.016278 0.019509 -0.008952 0.000000 0.004393 0.000000
# 3 0.009268 -0.008952 0.017930 0.000000 -0.004033 0.000000
# 4 0.000000 0.000000 0.000000 0.032027 0.000000 0.008006
# 5 -0.000569 0.004393 -0.004033 0.000000 0.027503 0.000000
# 6 0.000000 0.000000 0.000000 0.008006 0.000000 0.049319
#
#
# Mechanical properties :
#
#
# Convention : Reuss Voigt Hill
#
# Bulk Modulus (GPa) = 17.90359 31.14745 24.52552
# Shear Modulus (GPa) = 20.22883 27.75399 23.99141
#
# Velocity S-wave (km/s) = 2.87958 3.37293 3.13597
# Velocity P-wave (km/s) = 4.28892 5.28550 4.81307
#
# Compressibility (1/GPa) = 0.05585471
#
# Stress axis : x y z
#
# Youngs Moduli (GPa) = 19.86464 51.25934 55.77127
#
# Poissons Ratio (x) = 0.83442 -0.51689
# Poissons Ratio (y) = 0.32336 0.49928
# Poissons Ratio (z) = -0.18411 0.45889
#
# Static dielectric constant tensor:
#      x y z
#    x 2.004260 0.000000 0.003430 
#    y 0.000000 1.995780 0.000000 
#    z 0.003430 0.000000 1.954170 
# 
# From -- ./inp_files/68666.got.cif
#   From: 2010.05.17/outbox.cif.g08.bks.cpg/sg15_35_cif.got.tgz:68666.got - 2010.06.03 18:47:42.
