data_PCOD9295672
_publ_section_title
;
Structure prediction by ZEFSAII (Michael W. Deem and Ramdas Pophale) SiO2 
 PCOD9295672
Probable space group: C 2/C
;
_chemical_formula_sum "Si O2"
_cell_formula_units_Z 48
_cell_length_a 10.215855
_cell_length_b 25.647045
_cell_length_c 12.822272
_cell_angle_alpha 90.000000
_cell_angle_beta 141.811863
_cell_angle_gamma 90.000000
_cell_volume 2077.007783
_symmetry_space_group_name_H-M "C 2/C"
_symmetry_group_IT_number 15
_symmetry_cell_setting 'monoclinic'
loop_
_space_group_symop_operation_xyz
x,y,z
-x,y,1/2-z
-x,-y,-z
x,-y,1/2+z
1/2+x,1/2+y,z
1/2-x,1/2+y,1/2-z
1/2-x,1/2-y,-z
1/2+x,1/2-y,1/2+z
loop_
_atom_site_type_symbol
_atom_site_label
_atom_site_fract_x
_atom_site_fract_y
_atom_site_fract_z
Si Si1 0.910616 0.406487 0.440234
Si Si2 0.458338 0.702267 0.411050
Si Si3 0.833464 0.384215 0.720969
Si Si4 0.670131 0.299574 0.268792
Si Si5 0.929835 0.056974 0.923009
Si Si6 0.200532 0.634748 0.941912
O O1 0.780996 0.352622 0.376204
O O2 0.737027 0.442843 0.276223
O O3 0.030428 0.422445 0.620305
O O4 0.097650 0.392935 0.476159
O O5 0.272392 0.660631 0.276906
O O6 0.550153 0.691319 0.584640
O O7 0.352975 0.758349 0.353987
O O8 0.643357 0.684036 0.448841
O O9 0.650610 0.413067 0.542807
O O10 0.000000 0.357478 0.750000
O O11 0.500000 0.282214 0.250000
O O12 0.819696 0.090652 0.946998
O O13 0.000000 0.000000 0.000000
O O14 0.000000 0.653895 0.750000
#
# Coordination Sequence:
#
# PCOD9295672 Si02
#       6
#     8   8   8   8   8   8
#     4  11  23  42  68  92 131 180 213 278 338 382
#     4  11  22  39  58  94 130 176 228 271 317 390
#     4  11  23  41  64  95 132 171 222 272 327 398
#     4  12  22  37  62  92 133 180 220 272 328 383
#     4  10  23  43  67  95 128 166 216 274 334 394
#     4   9  19  43  64  87 134 169 219 272 328 392
#
# _framework density 23.110168000000002
#
# number of rings (size 3 to 8) (size 9 to 14) (size 15 to 20)
#    0.000    1.333    5.000    3.000    0.000    6.000 
#    0.000    1.667    0.000    0.000    0.000    0.000 
#    0.000    0.000    0.000    0.000    0.000    0.000 
#
# Total GULP energy -134060.803016 kJ/mol
# GULP energy per Si atom -5585.866792 kJ/mol
# Density = 2.305757 g / cm^3
# Si number density = 23.110168 Si / 1000 Ang^3
#
#
#
# Elastic Constant Matrix: (Units=GPa)
#
#
# Indices 1 2 3 4 5 6 
#
# 1 72.9565 1.9392 35.2613 0.0000 30.4929 0.0000
# 2 1.9392 92.2009 19.7311 0.0000 27.2758 0.0000
# 3 35.2613 19.7311 128.8486 0.0000 7.0535 0.0000
# 4 0.0000 0.0000 0.0000 31.5180 0.0000 1.0874
# 5 30.4929 27.2758 7.0535 0.0000 39.1352 0.0000
# 6 0.0000 0.0000 0.0000 1.0874 0.0000 2.1235
#
#
#
# Elastic Compliance Matrix: (Units=1/GPa)
#
#
# Indices 1 2 3 4 5 6 
#
# 1 0.028573 0.009103 -0.007724 0.000000 -0.027215 0.000000
# 2 0.009103 0.016892 -0.004085 0.000000 -0.018130 0.000000
# 3 -0.007724 -0.004085 0.010115 0.000000 0.007042 0.000000
# 4 0.000000 0.000000 0.000000 0.032298 0.000000 -0.016539
# 5 -0.027215 -0.018130 0.007042 0.000000 0.058124 0.000000
# 6 0.000000 0.000000 0.000000 -0.016539 0.000000 0.479386
#
#
# Mechanical properties :
#
#
# Convention : Reuss Voigt Hill
#
# Bulk Modulus (GPa) = 19.93316 45.31880 32.62598
# Shear Modulus (GPa) = 7.72174 30.36031 19.04103
#
# Velocity S-wave (km/s) = 1.82990 3.62846 2.87352
# Velocity P-wave (km/s) = 3.62059 6.09974 5.01575
#
# Compressibility (1/GPa) = 0.05016765
#
# Stress axis : x y z
#
# Youngs Moduli (GPa) = 34.99838 59.19969 98.86494
#
# Poissons Ratio (x) = -0.53890 0.76358
# Poissons Ratio (y) = -0.31859 0.40391
# Poissons Ratio (z) = 0.27031 0.24186
#
# Static dielectric constant tensor:
#      x y z
#    x 1.890050 0.000000 0.004230 
#    y 0.000000 1.881800 0.000000 
#    z 0.004230 0.000000 1.906720 
# 
# From -- ./inp_files/148842.got.cif
#   From: 2010.05.17/outbox.cif.g08.bks.cpg/sg15_75_cif.got.tgz:148842.got - 2010.06.03 18:47:42.
