data_PCOD9295452
_publ_section_title
;
Structure prediction by ZEFSAII (Michael W. Deem and Ramdas Pophale) SiO2 
 PCOD9295452
Probable space group: C 2/C
;
_chemical_formula_sum "Si O2"
_cell_formula_units_Z 40
_cell_length_a 15.097280
_cell_length_b 11.504404
_cell_length_c 11.157932
_cell_angle_alpha 90.000000
_cell_angle_beta 78.351346
_cell_angle_gamma 90.000000
_cell_volume 1898.053645
_symmetry_space_group_name_H-M "C 2/C"
_symmetry_group_IT_number 15
_symmetry_cell_setting 'monoclinic'
loop_
_space_group_symop_operation_xyz
x,y,z
-x,y,1/2-z
-x,-y,-z
x,-y,1/2+z
1/2+x,1/2+y,z
1/2-x,1/2+y,1/2-z
1/2-x,1/2-y,-z
1/2+x,1/2-y,1/2+z
loop_
_atom_site_type_symbol
_atom_site_label
_atom_site_fract_x
_atom_site_fract_y
_atom_site_fract_z
Si Si1 0.848600 0.024166 0.856069
Si Si2 0.516314 0.125083 0.437544
Si Si3 0.869745 0.285857 0.811719
Si Si4 0.309823 0.404927 0.624032
Si Si5 0.511266 0.679569 0.118676
O O1 0.889561 0.148723 0.806842
O O2 0.799140 0.980646 0.748581
O O3 0.924419 0.929668 0.871780
O O4 0.794870 0.039782 0.996266
O O5 0.585520 0.140860 0.308290
O O6 0.418557 0.163745 0.414789
O O7 0.548677 0.224456 0.519861
O O8 0.500000 0.000000 0.500000
O O9 0.762670 0.302672 0.844156
O O10 0.414403 0.365763 0.599423
O O11 0.500000 0.739968 0.250000
#
# Coordination Sequence:
#
# PCOD9295452 Si02
#       5
#     8   8   8   8   8
#     4  11  23  44  73 103 138 174 233 290 349 411
#     4  11  26  44  65  94 144 185 232 271 359 418
#     4  11  26  43  70  98 133 188 228 289 345 412
#     4  11  24  41  70 103 136 172 230 293 344 404
#     4  10  23  42  72 102 132 178 226 288 344 412
#
# _framework density 21.074217999999998
#
# number of rings (size 3 to 8) (size 9 to 14) (size 15 to 20)
#    0.000    1.200    2.000    2.400   14.000    0.000 
#    3.600    5.000    0.000    0.000    0.000    0.000 
#    0.000    0.000    0.000    0.000    0.000    0.000 
#
# Total GULP energy -111565.355547 kJ/mol
# GULP energy per Si atom -5578.267777 kJ/mol
# Density = 2.102625 g / cm^3
# Si number density = 21.074218 Si / 1000 Ang^3
#
#
#
# Elastic Constant Matrix: (Units=GPa)
#
#
# Indices 1 2 3 4 5 6 
#
# 1 37.0216 28.8754 14.9741 0.0000 -7.4207 0.0000
# 2 28.8754 137.0587 46.2686 0.0000 9.4852 0.0000
# 3 14.9741 46.2686 133.1996 0.0000 22.6510 0.0000
# 4 0.0000 0.0000 0.0000 29.9098 0.0000 9.4220
# 5 -7.4207 9.4852 22.6510 0.0000 20.3057 0.0000
# 6 0.0000 0.0000 0.0000 9.4220 0.0000 25.6120
#
#
#
# Elastic Compliance Matrix: (Units=1/GPa)
#
#
# Indices 1 2 3 4 5 6 
#
# 1 0.041203 -0.008407 -0.006096 0.000000 0.025785 0.000000
# 2 -0.008407 0.009992 -0.001493 0.000000 -0.006075 0.000000
# 3 -0.006096 -0.001493 0.011072 0.000000 -0.013881 0.000000
# 4 0.000000 0.000000 0.000000 0.037816 0.000000 -0.013912
# 5 0.025785 -0.006075 -0.013881 0.000000 0.076993 0.000000
# 6 0.000000 0.000000 0.000000 -0.013912 0.000000 0.044162
#
#
# Mechanical properties :
#
#
# Convention : Reuss Voigt Hill
#
# Bulk Modulus (GPa) = 33.03157 54.16845 43.60001
# Shear Modulus (GPa) = 18.98827 29.64294 24.31561
#
# Velocity S-wave (km/s) = 3.00495 3.75453 3.40046
# Velocity P-wave (km/s) = 5.26760 6.67494 6.01259
#
# Compressibility (1/GPa) = 0.03027407
#
# Stress axis : x y z
#
# Youngs Moduli (GPa) = 24.27031 100.08431 90.31826
#
# Poissons Ratio (x) = 0.84140 0.55062
# Poissons Ratio (y) = 0.20404 0.13481
# Poissons Ratio (z) = 0.14796 0.14939
#
# Static dielectric constant tensor:
#      x y z
#    x 1.764110 0.000000 0.029290 
#    y 0.000000 1.751970 0.000000 
#    z 0.029290 0.000000 1.848000 
# 
# From -- ./inp_files/94513.got.cif
#   From: 2010.05.17/outbox.cif.g08.bks.cpg/sg15_48_cif.got.tgz:94513.got - 2010.06.03 18:47:42.
