data_PCOD9295444
_publ_section_title
;
Structure prediction by ZEFSAII (Michael W. Deem and Ramdas Pophale) SiO2 
 PCOD9295444
Probable space group: C 2/C
;
_chemical_formula_sum "Si O2"
_cell_formula_units_Z 48
_cell_length_a 6.240809
_cell_length_b 29.174322
_cell_length_c 14.827484
_cell_angle_alpha 90.000000
_cell_angle_beta 53.437240
_cell_angle_gamma 90.000000
_cell_volume 2168.380224
_symmetry_space_group_name_H-M "C 2/C"
_symmetry_group_IT_number 15
_symmetry_cell_setting 'monoclinic'
loop_
_space_group_symop_operation_xyz
x,y,z
-x,y,1/2-z
-x,-y,-z
x,-y,1/2+z
1/2+x,1/2+y,z
1/2-x,1/2+y,1/2-z
1/2-x,1/2-y,-z
1/2+x,1/2-y,1/2+z
loop_
_atom_site_type_symbol
_atom_site_label
_atom_site_fract_x
_atom_site_fract_y
_atom_site_fract_z
Si Si1 0.456378 0.709609 0.930940
Si Si2 0.925972 0.580328 0.670813
Si Si3 0.496303 0.431182 0.557809
Si Si4 0.788340 0.977159 0.431338
Si Si5 0.000000 0.846478 0.250000
Si Si6 0.313358 0.335719 0.651520
Si Si7 0.500000 0.737476 0.250000
O O1 0.379126 0.683676 0.859431
O O2 0.748304 0.731077 0.840345
O O3 0.415683 0.675994 0.025413
O O4 0.250000 0.750000 0.000000
O O5 0.736368 0.551725 0.652607
O O6 0.747149 0.625326 0.730430
O O7 0.000000 0.560076 0.750000
O O8 0.207296 0.584185 0.548621
O O9 0.338378 0.444316 0.505159
O O10 0.515270 0.479487 0.606592
O O11 0.380785 0.389545 0.644897
O O12 0.500000 0.000000 0.500000
O O13 0.445412 0.297580 0.681819
O O14 0.000000 0.330285 0.750000
#
# Coordination Sequence:
#
# PCOD9295444 Si02
#       7
#     8   8   8   8   4   8   4
#     4  12  26  49  75 106 145 184 246 298 366 443
#     4  11  22  40  67 104 139 180 237 298 358 423
#     4  10  23  42  71  97 141 193 236 293 358 432
#     4   9  20  43  67  99 141 188 237 297 354 423
#     4  12  28  44  73 108 138 184 239 306 362 420
#     4  12  26  47  70 106 146 189 239 294 363 441
#     4  12  28  48  75 104 142 198 231 302 374 420
#
# _framework density 22.136340000000001
#
# number of rings (size 3 to 8) (size 9 to 14) (size 15 to 20)
#    0.000    1.000    1.667    4.500    5.833    2.667 
#    0.000   20.000    0.000    0.000    0.000    0.000 
#    0.000    0.000    0.000    0.000    0.000    0.000 
#
# Total GULP energy -134061.951687 kJ/mol
# GULP energy per Si atom -5585.914654 kJ/mol
# Density = 2.208596 g / cm^3
# Si number density = 22.136340 Si / 1000 Ang^3
#
#
#
# Elastic Constant Matrix: (Units=GPa)
#
#
# Indices 1 2 3 4 5 6 
#
# 1 105.3996 25.0590 35.1788 0.0000 5.4320 0.0000
# 2 25.0590 82.7021 21.0448 0.0000 6.4201 0.0000
# 3 35.1788 21.0448 92.5402 0.0000 3.6437 0.0000
# 4 0.0000 0.0000 0.0000 16.0514 0.0000 -6.6558
# 5 5.4320 6.4201 3.6437 0.0000 49.8043 0.0000
# 6 0.0000 0.0000 0.0000 -6.6558 0.0000 30.8515
#
#
#
# Elastic Compliance Matrix: (Units=1/GPa)
#
#
# Indices 1 2 3 4 5 6 
#
# 1 0.011347 -0.002438 -0.003734 0.000000 -0.000650 0.000000
# 2 -0.002438 0.013463 -0.002083 0.000000 -0.001317 0.000000
# 3 -0.003734 -0.002083 0.012709 0.000000 -0.000254 0.000000
# 4 0.000000 0.000000 0.000000 0.068421 0.000000 0.014761
# 5 -0.000650 -0.001317 -0.000254 0.000000 0.020338 0.000000
# 6 0.000000 0.000000 0.000000 0.014761 0.000000 0.035598
#
#
# Mechanical properties :
#
#
# Convention : Reuss Voigt Hill
#
# Bulk Modulus (GPa) = 47.59601 49.24522 48.42062
# Shear Modulus (GPa) = 26.97070 32.63206 29.80138
#
# Velocity S-wave (km/s) = 3.49433 3.84362 3.67313
# Velocity P-wave (km/s) = 6.15048 6.48016 6.31747
#
# Compressibility (1/GPa) = 0.02101016
#
# Stress axis : x y z
#
# Youngs Moduli (GPa) = 88.12987 74.28040 78.68371
#
# Poissons Ratio (x) = 0.18107 0.29377
# Poissons Ratio (y) = 0.21483 0.16390
# Poissons Ratio (z) = 0.32904 0.15473
#
# Static dielectric constant tensor:
#      x y z
#    x 1.807350 0.000000 0.011540 
#    y 0.000000 1.949050 0.000000 
#    z 0.011540 0.000000 1.851200 
# 
# From -- ./inp_files/130643.got.cif
#   From: 2010.05.17/outbox.cif.g08.bks.cpg/sg15_66_cif.got.tgz:130643.got - 2010.06.03 18:47:42.
