data_PCOD9295091
_publ_section_title
;
Structure prediction by ZEFSAII (Michael W. Deem and Ramdas Pophale) SiO2 
 PCOD9295091
Probable space group: C 2/C
;
_chemical_formula_sum "Si O2"
_cell_formula_units_Z 44
_cell_length_a 12.049787
_cell_length_b 14.881035
_cell_length_c 10.889137
_cell_angle_alpha 90.000000
_cell_angle_beta 108.084053
_cell_angle_gamma 90.000000
_cell_volume 1856.114524
_symmetry_space_group_name_H-M "C 2/C"
_symmetry_group_IT_number 15
_symmetry_cell_setting 'monoclinic'
loop_
_space_group_symop_operation_xyz
x,y,z
-x,y,1/2-z
-x,-y,-z
x,-y,1/2+z
1/2+x,1/2+y,z
1/2-x,1/2+y,1/2-z
1/2-x,1/2-y,-z
1/2+x,1/2-y,1/2+z
loop_
_atom_site_type_symbol
_atom_site_label
_atom_site_fract_x
_atom_site_fract_y
_atom_site_fract_z
Si Si1 0.728526 0.978897 0.445744
Si Si2 0.335898 0.852020 0.887053
Si Si3 0.522116 0.229262 0.619515
Si Si4 0.157462 0.167366 0.969881
Si Si5 0.764851 0.835449 0.258386
Si Si6 0.500000 0.051697 0.250000
O O1 0.736359 0.935333 0.583935
O O2 0.782370 0.908501 0.368879
O O3 0.787488 0.075919 0.461248
O O4 0.594227 0.995760 0.359648
O O5 0.270616 0.766756 0.809261
O O6 0.427198 0.887418 0.818947
O O7 0.405970 0.816368 0.029312
O O8 0.500000 0.262639 0.750000
O O9 0.556633 0.301011 0.526738
O O10 0.630927 0.158998 0.662772
O O11 0.142575 0.153799 0.819340
O O12 0.250000 0.250000 0.000000
#
# Coordination Sequence:
#
# PCOD9295091 Si02
#       6
#     8   8   8   8   8   4
#     4  12  23  40  67 102 131 169 221 273 331 391
#     4  12  24  42  71  98 131 175 221 268 334 391
#     4  11  22  42  68  96 133 173 220 269 327 386
#     4  10  23  42  64  93 136 175 211 265 330 388
#     4  11  23  44  67  99 136 173 218 273 330 390
#     4  12  22  38  66 102 134 166 216 278 330 390
#
# _framework density 23.705432999999999
#
# number of rings (size 3 to 8) (size 9 to 14) (size 15 to 20)
#    0.000    0.727    1.818    8.727    0.000    0.000 
#    0.000    0.909    2.000    0.000    0.000    0.000 
#    0.000    0.000    0.000    0.000    0.000    0.000 
#
# Total GULP energy -123165.333960 kJ/mol
# GULP energy per Si atom -5598.424271 kJ/mol
# Density = 2.365148 g / cm^3
# Si number density = 23.705433 Si / 1000 Ang^3
#
#
#
# Elastic Constant Matrix: (Units=GPa)
#
#
# Indices 1 2 3 4 5 6 
#
# 1 59.0570 24.8019 25.9269 0.0000 -30.9111 0.0000
# 2 24.8019 127.2172 23.2573 0.0000 -25.2556 0.0000
# 3 25.9269 23.2573 85.7658 0.0000 -41.6805 0.0000
# 4 0.0000 0.0000 0.0000 30.8895 0.0000 -11.8188
# 5 -30.9111 -25.2556 -41.6805 0.0000 53.7883 0.0000
# 6 0.0000 0.0000 0.0000 -11.8188 0.0000 37.1729
#
#
#
# Elastic Compliance Matrix: (Units=1/GPa)
#
#
# Indices 1 2 3 4 5 6 
#
# 1 0.024799 -0.002187 -0.000765 0.000000 0.012632 0.000000
# 2 -0.002187 0.008881 -0.000532 0.000000 0.002501 0.000000
# 3 -0.000765 -0.000532 0.018768 0.000000 0.013854 0.000000
# 4 0.000000 0.000000 0.000000 0.036857 0.000000 0.011718
# 5 0.012632 0.002501 0.013854 0.000000 0.037760 0.000000
# 6 0.000000 0.000000 0.000000 0.011718 0.000000 0.030627
#
#
# Mechanical properties :
#
#
# Convention : Reuss Voigt Hill
#
# Bulk Modulus (GPa) = 21.98759 46.66801 34.32780
# Shear Modulus (GPa) = 27.80577 37.57374 32.68975
#
# Velocity S-wave (km/s) = 3.42858 3.98556 3.71752
# Velocity P-wave (km/s) = 4.99690 6.39601 5.73925
#
# Compressibility (1/GPa) = 0.04548019
#
# Stress axis : x y z
#
# Youngs Moduli (GPa) = 40.32477 112.60433 53.28271
#
# Poissons Ratio (x) = 0.24628 0.04074
# Poissons Ratio (y) = 0.08820 0.02833
# Poissons Ratio (z) = 0.03084 0.05986
#
# Static dielectric constant tensor:
#      x y z
#    x 2.010280 0.000000 0.045210 
#    y 0.000000 1.912850 0.000000 
#    z 0.045210 0.000000 1.982570 
# 
# From -- ./inp_files/95086.got.cif
#   From: 2010.05.17/outbox.cif.g08.bks.cpg/sg15_48_cif.got.tgz:95086.got - 2010.06.03 18:47:42.
