data_PCOD9295827
_publ_section_title
;
Structure prediction by ZEFSAII (Michael W. Deem and Ramdas Pophale) SiO2 
 PCOD9295827
Probable space group: C 2/C
;
_chemical_formula_sum "Si O2"
_cell_formula_units_Z 40
_cell_length_a 12.939780
_cell_length_b 8.785546
_cell_length_c 13.537823
_cell_angle_alpha 90.000000
_cell_angle_beta 104.622019
_cell_angle_gamma 90.000000
_cell_volume 1489.175317
_symmetry_space_group_name_H-M "C 2/C"
_symmetry_group_IT_number 15
_symmetry_cell_setting 'monoclinic'
loop_
_space_group_symop_operation_xyz
x,y,z
-x,y,1/2-z
-x,-y,-z
x,-y,1/2+z
1/2+x,1/2+y,z
1/2-x,1/2+y,1/2-z
1/2-x,1/2-y,-z
1/2+x,1/2-y,1/2+z
loop_
_atom_site_type_symbol
_atom_site_label
_atom_site_fract_x
_atom_site_fract_y
_atom_site_fract_z
Si Si1 0.693729 0.050198 0.837231
Si Si2 0.035354 0.675865 0.401520
Si Si3 0.070652 0.999376 0.146793
Si Si4 0.637116 0.377034 0.879992
Si Si5 0.655700 0.942262 0.101706
O O1 0.817260 0.010893 0.881457
O O2 0.662225 0.199682 0.889873
O O3 0.683480 0.102903 0.720037
O O4 0.612204 0.913123 0.841998
O O5 0.111027 0.683202 0.516499
O O6 0.982793 0.832539 0.355333
O O7 0.936950 0.566803 0.405865
O O8 0.105055 0.073667 0.260116
O O9 0.969388 0.093933 0.083455
O O10 0.740753 0.479800 0.921126
#
# Coordination Sequence:
#
# PCOD9295827 Si02
#       5
#     8   8   8   8   8
#     4  11  24  46  76  95 141 195 221 293 360 401
#     4  11  24  46  73 102 143 187 231 290 347 421
#     4  10  24  43  66 106 137 176 241 284 337 428
#     4  10  23  43  70 106 137 179 242 286 341 422
#     4  10  24  44  72 106 140 183 240 280 352 421
#
# _framework density 26.860502
#
# number of rings (size 3 to 8) (size 9 to 14) (size 15 to 20)
#    0.000    1.600    2.000    0.600   11.200    3.200 
#    0.000    2.000    0.000    0.000    0.000    0.000 
#    0.000    0.000    0.000    0.000    0.000    0.000 
#
# Total GULP energy -112150.816038 kJ/mol
# GULP energy per Si atom -5607.540802 kJ/mol
# Density = 2.679937 g / cm^3
# Si number density = 26.860502 Si / 1000 Ang^3
#
#
#
# Elastic Constant Matrix: (Units=GPa)
#
#
# Indices 1 2 3 4 5 6 
#
# 1 258.7360 85.0448 50.9301 0.0000 25.9067 0.0000
# 2 85.0448 139.1016 24.2561 0.0000 6.0701 0.0000
# 3 50.9301 24.2561 130.3906 0.0000 4.0095 0.0000
# 4 0.0000 0.0000 0.0000 32.7849 0.0000 6.3329
# 5 25.9067 6.0701 4.0095 0.0000 50.2537 0.0000
# 6 0.0000 0.0000 0.0000 6.3329 0.0000 46.7932
#
#
#
# Elastic Compliance Matrix: (Units=1/GPa)
#
#
# Indices 1 2 3 4 5 6 
#
# 1 0.005340 -0.002908 -0.001474 0.000000 -0.002284 0.000000
# 2 -0.002908 0.009045 -0.000561 0.000000 0.000451 0.000000
# 3 -0.001474 -0.000561 0.008345 0.000000 0.000162 0.000000
# 4 0.000000 0.000000 0.000000 0.031321 0.000000 -0.004239
# 5 -0.002284 0.000451 0.000162 0.000000 0.021009 0.000000
# 6 0.000000 0.000000 0.000000 -0.004239 0.000000 0.021944
#
#
# Mechanical properties :
#
#
# Convention : Reuss Voigt Hill
#
# Bulk Modulus (GPa) = 77.86306 94.29892 86.08099
# Shear Modulus (GPa) = 44.97618 50.49948 47.73783
#
# Velocity S-wave (km/s) = 4.09643 4.34068 4.22032
# Velocity P-wave (km/s) = 7.17113 7.76563 7.47430
#
# Compressibility (1/GPa) = 0.01284306
#
# Stress axis : x y z
#
# Youngs Moduli (GPa) = 187.27886 110.56005 119.83923
#
# Poissons Ratio (x) = 0.32149 0.17670
# Poissons Ratio (y) = 0.54457 0.06719
# Poissons Ratio (z) = 0.27614 0.06199
#
# Static dielectric constant tensor:
#      x y z
#    x 2.062040 0.000000 -0.055100 
#    y 0.000000 2.023750 0.000000 
#    z -0.055100 0.000000 2.192230 
# 
# From -- ./inp_files/202830.got.cif
#   From: 2010.05.17/outbox.cif.g08.bks.cpg/sg15_102_cif.got.tgz:202830.got - 2010.06.03 18:47:42.
