data_PCOD9295046
_publ_section_title
;
Structure prediction by ZEFSAII (Michael W. Deem and Ramdas Pophale) SiO2 
 PCOD9295046
Probable space group: C 2/C
;
_chemical_formula_sum "Si O2"
_cell_formula_units_Z 56
_cell_length_a 21.524384
_cell_length_b 16.477445
_cell_length_c 12.672765
_cell_angle_alpha 90.000000
_cell_angle_beta 30.264608
_cell_angle_gamma 90.000000
_cell_volume 2265.257224
_symmetry_space_group_name_H-M "C 2/C"
_symmetry_group_IT_number 15
_symmetry_cell_setting 'monoclinic'
loop_
_space_group_symop_operation_xyz
x,y,z
-x,y,1/2-z
-x,-y,-z
x,-y,1/2+z
1/2+x,1/2+y,z
1/2-x,1/2+y,1/2-z
1/2-x,1/2-y,-z
1/2+x,1/2-y,1/2+z
loop_
_atom_site_type_symbol
_atom_site_label
_atom_site_fract_x
_atom_site_fract_y
_atom_site_fract_z
Si Si1 0.101504 0.948136 0.763400
Si Si2 0.000000 0.548335 0.750000
Si Si3 0.387319 0.618856 0.711177
Si Si4 0.734807 0.716991 0.771834
Si Si5 0.998376 0.288152 0.625040
Si Si6 0.500000 0.668262 0.250000
Si Si7 0.724917 0.100160 0.296320
Si Si8 0.389298 0.043993 0.223847
O O1 0.186778 0.922475 0.736431
O O2 0.097696 0.886906 0.671738
O O3 0.129606 0.040902 0.690508
O O4 0.965213 0.928279 0.007179
O O5 0.906420 0.495877 0.814321
O O6 0.088113 0.600103 0.546521
O O7 0.274519 0.657825 0.814811
O O8 0.454408 0.697420 0.659610
O O9 0.867565 0.695596 0.626361
O O10 0.756947 0.810416 0.710232
O O11 0.601420 0.713582 0.026702
O O12 0.000000 0.292990 0.750000
O O13 0.913099 0.360433 0.707429
O O14 0.717442 0.039425 0.208721
O O15 0.500000 0.000000 0.000000
#
# Coordination Sequence:
#
# PCOD9295046 Si02
#       8
#     8   4   8   8   8   4   8   8
#     4  10  23  45  67 101 140 187 236 283 353 415
#     4  10  23  42  63 104 138 178 234 290 345 421
#     4  10  23  45  67  98 143 181 236 285 341 433
#     4  11  24  45  71 101 138 181 232 295 349 407
#     4  12  25  44  71 103 141 183 232 289 352 419
#     4  10  25  46  73 104 138 184 242 294 349 419
#     4  11  22  43  69  99 137 182 234 291 354 413
#     4  10  23  42  66  98 144 180 232 286 347 422
#
# _framework density 24.721254999999999
#
# number of rings (size 3 to 8) (size 9 to 14) (size 15 to 20)
#    0.000    1.429    3.571    0.429    5.000    3.429 
#    7.714    0.000    0.000    0.000    0.000    0.000 
#    0.000    0.000    0.000    0.000    0.000    0.000 
#
# Total GULP energy -156062.034480 kJ/mol
# GULP energy per Si atom -5573.644089 kJ/mol
# Density = 2.466499 g / cm^3
# Si number density = 24.721255 Si / 1000 Ang^3
#
#
#
# Elastic Constant Matrix: (Units=GPa)
#
#
# Indices 1 2 3 4 5 6 
#
# 1 126.6976 50.3219 0.1769 0.0000 -13.7034 0.0000
# 2 50.3219 136.7655 0.1694 0.0000 -3.8847 0.0000
# 3 0.1769 0.1694 66.0887 0.0000 15.6131 0.0000
# 4 0.0000 0.0000 0.0000 20.3248 0.0000 0.8905
# 5 -13.7034 -3.8847 15.6131 0.0000 30.8379 0.0000
# 6 0.0000 0.0000 0.0000 0.8905 0.0000 27.3662
#
#
#
# Elastic Compliance Matrix: (Units=1/GPa)
#
#
# Indices 1 2 3 4 5 6 
#
# 1 0.009748 -0.003459 -0.001065 0.000000 0.004435 0.000000
# 2 -0.003459 0.008570 0.000108 0.000000 -0.000513 0.000000
# 3 -0.001065 0.000108 0.017313 0.000000 -0.009225 0.000000
# 4 0.000000 0.000000 0.000000 0.049271 0.000000 -0.001603
# 5 0.004435 -0.000513 -0.009225 0.000000 0.039005 0.000000
# 6 0.000000 0.000000 0.000000 -0.001603 0.000000 0.036594
#
#
# Mechanical properties :
#
#
# Convention : Reuss Voigt Hill
#
# Bulk Modulus (GPa) = 37.31476 47.87648 42.59562
# Shear Modulus (GPa) = 28.04804 34.29802 31.17303
#
# Velocity S-wave (km/s) = 3.37199 3.72881 3.55488
# Velocity P-wave (km/s) = 5.50340 6.16013 5.84101
#
# Compressibility (1/GPa) = 0.02679905
#
# Stress axis : x y z
#
# Youngs Moduli (GPa) = 102.58510 116.68666 57.75954
#
# Poissons Ratio (x) = 0.40367 0.06151
# Poissons Ratio (y) = 0.35488 -0.00626
# Poissons Ratio (z) = 0.10925 -0.01265
#
# Static dielectric constant tensor:
#      x y z
#    x 2.029350 0.000000 0.018930 
#    y 0.000000 1.974620 0.000000 
#    z 0.018930 0.000000 2.117790 
# 
# From -- ./inp_files/173846.got.cif
#   From: 2010.05.17/outbox.cif.g08.bks.cpg/sg15_87_cif.got.tgz:173846.got - 2010.06.03 18:47:42.
