data_PCOD9295336
_publ_section_title
;
Structure prediction by ZEFSAII (Michael W. Deem and Ramdas Pophale) SiO2 
 PCOD9295336
Probable space group: C 2/C
;
_chemical_formula_sum "Si O2"
_cell_formula_units_Z 64
_cell_length_a 21.476644
_cell_length_b 17.980954
_cell_length_c 16.606477
_cell_angle_alpha 90.000000
_cell_angle_beta 156.144732
_cell_angle_gamma 90.000000
_cell_volume 2593.567382
_symmetry_space_group_name_H-M "C 2/C"
_symmetry_group_IT_number 15
_symmetry_cell_setting 'monoclinic'
loop_
_space_group_symop_operation_xyz
x,y,z
-x,y,1/2-z
-x,-y,-z
x,-y,1/2+z
1/2+x,1/2+y,z
1/2-x,1/2+y,1/2-z
1/2-x,1/2-y,-z
1/2+x,1/2-y,1/2+z
loop_
_atom_site_type_symbol
_atom_site_label
_atom_site_fract_x
_atom_site_fract_y
_atom_site_fract_z
Si Si1 0.686964 0.444814 0.550643
Si Si2 0.350562 0.546364 0.721002
Si Si3 0.410949 0.665259 0.906954
Si Si4 0.395768 0.115816 0.429260
Si Si5 0.437390 0.213700 0.007536
Si Si6 0.126922 0.560819 0.832280
Si Si7 0.189579 0.667128 0.419644
Si Si8 0.193285 0.129786 0.333021
O O1 0.511217 0.455419 0.363806
O O2 0.791441 0.440407 0.754134
O O3 0.750636 0.503110 0.560026
O O4 0.715653 0.365233 0.544111
O O5 0.381051 0.580727 0.844832
O O6 0.236321 0.606672 0.543219
O O7 0.303357 0.460660 0.671542
O O8 0.244629 0.703226 0.713006
O O9 0.504222 0.703324 0.943089
O O10 0.523508 0.662337 0.117418
O O11 0.483998 0.168954 0.472504
O O12 0.524721 0.076788 0.634195
O O13 0.293296 0.157017 0.375691
O O14 0.515390 0.179374 0.180213
O O15 0.000000 0.536204 0.750000
O O16 0.215684 0.632563 0.974929
O O17 0.250000 0.750000 0.500000
#
# Coordination Sequence:
#
# PCOD9295336 Si02
#       8
#     8   8   8   8   8   8   8   8
#     4  11  23  42  69 100 147 189 237 291 365 439
#     4  12  25  42  69 105 146 196 237 293 368 439
#     4  12  26  46  72 105 145 193 249 296 369 443
#     4  10  23  45  71 101 143 186 237 301 366 428
#     4  11  27  46  75 105 144 193 245 304 371 448
#     4  10  23  42  69 103 140 184 240 303 361 423
#     4  11  24  44  67 102 147 189 237 294 362 440
#     4  11  24  46  70 104 148 191 247 301 360 435
#
# _framework density 24.676435999999999
#
# number of rings (size 3 to 8) (size 9 to 14) (size 15 to 20)
#    0.000    1.000    3.750    1.875    3.500    5.500 
#    0.000    0.625    0.000    0.000    0.000    0.000 
#    0.000    0.000    0.000    0.000    0.000    0.000 
#
# Total GULP energy -178858.565760 kJ/mol
# GULP energy per Si atom -5589.330180 kJ/mol
# Density = 2.462027 g / cm^3
# Si number density = 24.676436 Si / 1000 Ang^3
#
#
#
# Elastic Constant Matrix: (Units=GPa)
#
#
# Indices 1 2 3 4 5 6 
#
# 1 69.9667 19.3005 49.2928 0.0000 -10.3829 0.0000
# 2 19.3005 49.0814 34.8817 0.0000 4.7056 0.0000
# 3 49.2928 34.8817 202.9286 0.0000 3.3608 0.0000
# 4 0.0000 0.0000 0.0000 39.8266 0.0000 0.2502
# 5 -10.3829 4.7056 3.3608 0.0000 48.3027 0.0000
# 6 0.0000 0.0000 0.0000 0.2502 0.0000 31.6864
#
#
#
# Elastic Compliance Matrix: (Units=1/GPa)
#
#
# Indices 1 2 3 4 5 6 
#
# 1 0.019178 -0.005289 -0.003831 0.000000 0.004904 0.000000
# 2 -0.005289 0.024860 -0.002933 0.000000 -0.003355 0.000000
# 3 -0.003831 -0.002933 0.006379 0.000000 -0.000981 0.000000
# 4 0.000000 0.000000 0.000000 0.025110 0.000000 -0.000198
# 5 0.004904 -0.003355 -0.000981 0.000000 0.022152 0.000000
# 6 0.000000 0.000000 0.000000 -0.000198 0.000000 0.031561
#
#
# Mechanical properties :
#
#
# Convention : Reuss Voigt Hill
#
# Bulk Modulus (GPa) = 38.00616 58.76965 48.38791
# Shear Modulus (GPa) = 30.84212 38.52992 34.68602
#
# Velocity S-wave (km/s) = 3.53917 3.95575 3.75324
# Velocity P-wave (km/s) = 5.66888 6.68818 6.19952
#
# Compressibility (1/GPa) = 0.02631152
#
# Stress axis : x y z
#
# Youngs Moduli (GPa) = 52.14301 40.22481 156.77186
#
# Poissons Ratio (x) = 0.21276 0.60052
# Poissons Ratio (y) = 0.27580 0.45980
# Poissons Ratio (z) = 0.19973 0.11798
#
# Static dielectric constant tensor:
#      x y z
#    x 1.976860 0.000000 -0.069380 
#    y 0.000000 2.029270 0.000000 
#    z -0.069380 0.000000 2.083080 
# 
# From -- ./inp_files/220310.got.cif
#   From: 2010.05.17/outbox.cif.g08.bks.cpg/sg15_111_cif.got.tgz:220310.got - 2010.06.03 18:47:42.
