data_PCOD9295176
_publ_section_title
;
Structure prediction by ZEFSAII (Michael W. Deem and Ramdas Pophale) SiO2 
 PCOD9295176
Probable space group: C 2/C
;
_chemical_formula_sum "Si O2"
_cell_formula_units_Z 64
_cell_length_a 28.272012
_cell_length_b 8.218743
_cell_length_c 11.669128
_cell_angle_alpha 90.000000
_cell_angle_beta 92.617597
_cell_angle_gamma 90.000000
_cell_volume 2708.614113
_symmetry_space_group_name_H-M "C 2/C"
_symmetry_group_IT_number 15
_symmetry_cell_setting 'monoclinic'
loop_
_space_group_symop_operation_xyz
x,y,z
-x,y,1/2-z
-x,-y,-z
x,-y,1/2+z
1/2+x,1/2+y,z
1/2-x,1/2+y,1/2-z
1/2-x,1/2-y,-z
1/2+x,1/2-y,1/2+z
loop_
_atom_site_type_symbol
_atom_site_label
_atom_site_fract_x
_atom_site_fract_y
_atom_site_fract_z
Si Si1 0.743385 0.401038 0.340188
Si Si2 0.603597 0.750964 0.610403
Si Si3 0.250495 0.231726 0.366770
Si Si4 0.682280 0.697928 0.024007
Si Si5 0.375833 0.892737 0.652350
Si Si6 0.859464 0.235865 0.139263
Si Si7 0.949644 0.580870 0.968872
Si Si8 0.911822 0.895683 0.847722
O O1 0.727182 0.367762 0.210129
O O2 0.774639 0.561559 0.340410
O O3 0.702935 0.422557 0.430675
O O4 0.774814 0.254227 0.391626
O O5 0.627210 0.780011 0.736892
O O6 0.633946 0.727366 0.497321
O O7 0.574063 0.581603 0.621051
O O8 0.578270 0.925507 0.586961
O O9 0.250000 0.250000 0.500000
O O10 0.194915 0.221063 0.330101
O O11 0.665139 0.849054 0.943411
O O12 0.637107 0.636912 0.087490
O O13 0.424108 0.869756 0.585413
O O14 0.372870 0.081779 0.680101
O O15 0.895337 0.121265 0.213529
O O16 0.945678 0.744813 0.890276
O O17 0.000000 0.500000 0.000000
#
# Coordination Sequence:
#
# PCOD9295176 Si02
#       8
#     8   8   8   8   8   8   8   8
#     4  11  26  42  60  92 135 178 229 299 347 393
#     4  11  25  42  72 106 134 181 226 278 348 410
#     4  12  28  40  62  93 130 181 233 285 349 406
#     4  10  23  42  66  90 134 181 234 289 343 403
#     4  10  23  43  72  97 132 183 225 280 344 414
#     4  11  24  43  65  97 137 178 234 285 340 418
#     4  10  24  48  74 104 140 177 227 279 346 420
#     4  11  23  44  71 101 138 182 234 284 342 419
#
# _framework density 23.628319000000001
#
# number of rings (size 3 to 8) (size 9 to 14) (size 15 to 20)
#    0.000    1.250    2.500    1.500   12.250    1.000 
#    0.000    0.000    5.500    0.000    0.000    0.000 
#    0.000    0.000    0.000    0.000    0.000    0.000 
#
# Total GULP energy -178739.092760 kJ/mol
# GULP energy per Si atom -5585.596649 kJ/mol
# Density = 2.357454 g / cm^3
# Si number density = 23.628319 Si / 1000 Ang^3
#
#
#
# Elastic Constant Matrix: (Units=GPa)
#
#
# Indices 1 2 3 4 5 6 
#
# 1 58.0351 -10.2976 20.7823 0.0000 1.5406 0.0000
# 2 -10.2976 113.7274 33.3168 0.0000 -5.3747 0.0000
# 3 20.7823 33.3168 153.1079 0.0000 -1.7062 0.0000
# 4 0.0000 0.0000 0.0000 27.8977 0.0000 -0.6370
# 5 1.5406 -5.3747 -1.7062 0.0000 8.4107 0.0000
# 6 0.0000 0.0000 0.0000 -0.6370 0.0000 24.2583
#
#
#
# Elastic Compliance Matrix: (Units=1/GPa)
#
#
# Indices 1 2 3 4 5 6 
#
# 1 0.018865 0.002509 -0.003134 0.000000 -0.002488 0.000000
# 2 0.002509 0.009996 -0.002455 0.000000 0.005430 0.000000
# 3 -0.003134 -0.002455 0.007497 0.000000 0.000526 0.000000
# 4 0.000000 0.000000 0.000000 0.035867 0.000000 0.000942
# 5 -0.002488 0.005430 0.000526 0.000000 0.122928 0.000000
# 6 0.000000 0.000000 0.000000 0.000942 0.000000 0.041248
#
#
# Mechanical properties :
#
#
# Convention : Reuss Voigt Hill
#
# Bulk Modulus (GPa) = 33.11699 45.83038 39.47369
# Shear Modulus (GPa) = 19.79202 30.85125 25.32163
#
# Velocity S-wave (km/s) = 2.89734 3.61735 3.27718
# Velocity P-wave (km/s) = 5.02384 6.07334 5.57335
#
# Compressibility (1/GPa) = 0.03019598
#
# Stress axis : x y z
#
# Youngs Moduli (GPa) = 53.00962 100.04012 133.38876
#
# Poissons Ratio (x) = -0.25097 0.41807
# Poissons Ratio (y) = -0.13299 0.32749
# Poissons Ratio (z) = 0.16614 0.24562
#
# Static dielectric constant tensor:
#      x y z
#    x 1.905310 0.000000 0.017060 
#    y 0.000000 1.908750 0.000000 
#    z 0.017060 0.000000 1.912140 
# 
# From -- ./inp_files/125905.got.cif
#   From: 2010.05.17/outbox.cif.g08.bks.cpg/sg15_63_cif.got.tgz:125905.got - 2010.06.03 18:47:42.
