data_PCOD9295891
_publ_section_title
;
Structure prediction by ZEFSAII (Michael W. Deem and Ramdas Pophale) SiO2 
 PCOD9295891
Probable space group: C 2/C
;
_chemical_formula_sum "Si O2"
_cell_formula_units_Z 52
_cell_length_a 10.127931
_cell_length_b 15.868402
_cell_length_c 16.533728
_cell_angle_alpha 90.000000
_cell_angle_beta 118.807020
_cell_angle_gamma 90.000000
_cell_volume 2328.367786
_symmetry_space_group_name_H-M "C 2/C"
_symmetry_group_IT_number 15
_symmetry_cell_setting 'monoclinic'
loop_
_space_group_symop_operation_xyz
x,y,z
-x,y,1/2-z
-x,-y,-z
x,-y,1/2+z
1/2+x,1/2+y,z
1/2-x,1/2+y,1/2-z
1/2-x,1/2-y,-z
1/2+x,1/2-y,1/2+z
loop_
_atom_site_type_symbol
_atom_site_label
_atom_site_fract_x
_atom_site_fract_y
_atom_site_fract_z
Si Si1 0.417255 0.270394 0.464323
Si Si2 0.000000 0.737039 0.250000
Si Si3 0.500000 0.482009 0.750000
Si Si4 0.111020 0.509734 0.954839
Si Si5 0.174397 0.128175 0.709244
Si Si6 0.000000 0.431513 0.250000
Si Si7 0.665858 0.644833 0.415698
Si Si8 0.645651 0.829309 0.952555
O O1 0.424120 0.338498 0.395407
O O2 0.454697 0.317486 0.557829
O O3 0.251825 0.228229 0.411018
O O4 0.518837 0.189045 0.481605
O O5 0.137297 0.798310 0.263131
O O6 0.061659 0.682638 0.342313
O O7 0.605367 0.542697 0.726406
O O8 0.397504 0.419089 0.667742
O O9 0.034687 0.518442 0.843946
O O10 0.205997 0.422698 0.980518
O O11 0.217382 0.589863 0.997387
O O12 0.000000 0.500000 0.000000
O O13 0.346082 0.117389 0.730219
O O14 0.750000 0.750000 0.000000
#
# Coordination Sequence:
#
# PCOD9295891 Si02
#       8
#     8   4   4   8   8   4   8   8
#     4  10  23  47  65 100 138 175 236 283 343 430
#     4   9  23  46  66  98 144 176 238 292 340 440
#     4  11  26  45  73  99 138 190 230 295 359 409
#     4  12  25  44  72 106 145 179 243 299 354 430
#     4  10  23  43  72 100 137 179 236 288 353 425
#     4  12  25  43  75 107 138 192 230 297 367 415
#     4  11  24  46  67  99 138 182 229 289 343 428
#     4  11  25  43  69 100 135 188 225 290 360 409
#
# _framework density 22.333241000000001
#
# number of rings (size 3 to 8) (size 9 to 14) (size 15 to 20)
#    0.000    1.231    3.077    1.385    8.615    2.462 
#    5.538    0.000    0.000    0.000    0.000    0.000 
#    0.000    0.000    0.000    0.000    0.000    0.000 
#
# Total GULP energy -145044.525527 kJ/mol
# GULP energy per Si atom -5578.635597 kJ/mol
# Density = 2.228241 g / cm^3
# Si number density = 22.333241 Si / 1000 Ang^3
#
#
#
# Elastic Constant Matrix: (Units=GPa)
#
#
# Indices 1 2 3 4 5 6 
#
# 1 81.4231 24.6166 6.5290 0.0000 -11.6794 0.0000
# 2 24.6166 131.9918 48.7117 0.0000 -11.6368 0.0000
# 3 6.5290 48.7117 78.3233 0.0000 -8.6263 0.0000
# 4 0.0000 0.0000 0.0000 -100.4627 0.0000 36.2527
# 5 -11.6794 -11.6368 -8.6263 0.0000 27.2290 0.0000
# 6 0.0000 0.0000 0.0000 36.2527 0.0000 5.2849
#
#
#
# Elastic Compliance Matrix: (Units=1/GPa)
#
#
# Indices 1 2 3 4 5 6 
#
# 1 0.013681 -0.002449 0.000947 0.000000 0.005121 0.000000
# 2 -0.002449 0.010419 -0.006114 0.000000 0.001465 0.000000
# 3 0.000947 -0.006114 0.016836 0.000000 0.003127 0.000000
# 4 0.000000 0.000000 0.000000 -0.002864 0.000000 0.019647
# 5 0.005121 0.001465 0.003127 0.000000 0.040539 0.000000
# 6 0.000000 0.000000 0.000000 0.019647 0.000000 0.054446
#
#
# Mechanical properties :
#
#
# Convention : Reuss Voigt Hill
#
# Bulk Modulus (GPa) = 38.90773 50.16141 44.53457
# Shear Modulus (GPa) = 31.87636 0.53562 16.20599
#
# Velocity S-wave (km/s) = 3.78207 0.49026 2.69670
# Velocity P-wave (km/s) = 6.04411 4.77804 5.44798
#
# Compressibility (1/GPa) = 0.02570183
#
# Stress axis : x y z
#
# Youngs Moduli (GPa) = 73.09550 95.98173 59.39783
#
# Poissons Ratio (x) = 0.23510 -0.05625
# Poissons Ratio (y) = 0.17904 0.36317
# Poissons Ratio (z) = -0.06922 0.58685
#
# Static dielectric constant tensor:
#      x y z
#    x 1.500490 0.000000 0.011110 
#    y 0.000000 1.785260 0.000000 
#    z 0.011110 0.000000 1.839890 
# 
# From -- ./inp_files/198056.got.cif
#   From: 2010.05.17/outbox.cif.g08.bks.cpg/sg15_100_cif.got.tgz:198056.got - 2010.06.03 18:47:42.
