data_PCOD9295763
_publ_section_title
;
Structure prediction by ZEFSAII (Michael W. Deem and Ramdas Pophale) SiO2 
 PCOD9295763
Probable space group: C 2/C
;
_chemical_formula_sum "Si O2"
_cell_formula_units_Z 44
_cell_length_a 12.125197
_cell_length_b 20.301023
_cell_length_c 8.712642
_cell_angle_alpha 90.000000
_cell_angle_beta 77.703782
_cell_angle_gamma 90.000000
_cell_volume 2095.451760
_symmetry_space_group_name_H-M "C 2/C"
_symmetry_group_IT_number 15
_symmetry_cell_setting 'monoclinic'
loop_
_space_group_symop_operation_xyz
x,y,z
-x,y,1/2-z
-x,-y,-z
x,-y,1/2+z
1/2+x,1/2+y,z
1/2-x,1/2+y,1/2-z
1/2-x,1/2-y,-z
1/2+x,1/2-y,1/2+z
loop_
_atom_site_type_symbol
_atom_site_label
_atom_site_fract_x
_atom_site_fract_y
_atom_site_fract_z
Si Si1 0.797690 0.569492 0.451458
Si Si2 0.743327 0.328084 0.498896
Si Si3 0.028878 0.210401 0.909294
Si Si4 0.106256 0.867957 0.824666
Si Si5 0.000000 0.658900 0.250000
Si Si6 0.632863 0.066708 0.714476
O O1 0.672216 0.590744 0.434524
O O2 0.896990 0.614810 0.344197
O O3 0.820092 0.572537 0.626883
O O4 0.812786 0.495324 0.387550
O O5 0.750000 0.250000 0.500000
O O6 0.633820 0.334248 0.424414
O O7 0.705032 0.352891 0.675098
O O8 0.841415 0.368059 0.390656
O O9 0.041045 0.288917 0.870554
O O10 0.000000 0.185128 0.750000
O O11 0.939643 0.196324 0.070643
O O12 0.000000 0.892311 0.750000
O O13 0.500000 0.054787 0.750000
#
# Coordination Sequence:
#
# PCOD9295763 Si02
#       6
#     8   8   8   8   4   8
#     4  12  25  46  69 101 144 185 237 287 349 418
#     4  11  24  40  65  99 139 174 233 287 344 412
#     4   9  21  40  64  99 133 180 233 278 351 397
#     4  10  23  43  69 101 142 183 234 289 349 411
#     4  10  24  38  74 100 146 182 236 290 348 418
#     4  12  28  44  71 102 140 188 234 284 355 416
#
# _framework density 20.997858000000001
#
# number of rings (size 3 to 8) (size 9 to 14) (size 15 to 20)
#    0.545    0.727    0.909    3.818    7.636    1.455 
#    0.000    9.091    0.000    0.000    0.000    0.000 
#    0.000    0.000    0.000    0.000    0.000    0.000 
#
# Total GULP energy -122604.236252 kJ/mol
# GULP energy per Si atom -5572.919830 kJ/mol
# Density = 2.095007 g / cm^3
# Si number density = 20.997858 Si / 1000 Ang^3
#
#
#
# Elastic Constant Matrix: (Units=GPa)
#
#
# Indices 1 2 3 4 5 6 
#
# 1 53.2034 5.7505 26.0080 0.0000 17.8982 0.0000
# 2 5.7505 71.2950 11.7137 0.0000 0.3760 0.0000
# 3 26.0080 11.7137 108.3346 0.0000 22.1949 0.0000
# 4 0.0000 0.0000 0.0000 47.6723 0.0000 -11.7411
# 5 17.8982 0.3760 22.1949 0.0000 32.6720 0.0000
# 6 0.0000 0.0000 0.0000 -11.7411 0.0000 27.5742
#
#
#
# Elastic Compliance Matrix: (Units=1/GPa)
#
#
# Indices 1 2 3 4 5 6 
#
# 1 0.024313 -0.001337 -0.003446 0.000000 -0.010962 0.000000
# 2 -0.001337 0.014383 -0.001569 0.000000 0.001633 0.000000
# 3 -0.003446 -0.001569 0.011428 0.000000 -0.005857 0.000000
# 4 0.000000 0.000000 0.000000 0.023434 0.000000 0.009978
# 5 -0.010962 0.001633 -0.005857 0.000000 0.040573 0.000000
# 6 0.000000 0.000000 0.000000 0.009978 0.000000 0.040515
#
#
# Mechanical properties :
#
#
# Convention : Reuss Voigt Hill
#
# Bulk Modulus (GPa) = 26.72397 35.53083 31.12740
# Shear Modulus (GPa) = 27.80526 34.20776 31.00651
#
# Velocity S-wave (km/s) = 3.64290 4.04060 3.84689
# Velocity P-wave (km/s) = 5.51805 6.22306 5.88113
#
# Compressibility (1/GPa) = 0.03741960
#
# Stress axis : x y z
#
# Youngs Moduli (GPa) = 41.13048 69.52555 87.50750
#
# Poissons Ratio (x) = 0.09296 0.30158
# Poissons Ratio (y) = 0.05499 0.13727
# Poissons Ratio (z) = 0.14175 0.10906
#
# Static dielectric constant tensor:
#      x y z
#    x 2.621030 0.000000 0.228630 
#    y 0.000000 1.749810 0.000000 
#    z 0.228630 0.000000 1.842770 
# 
# From -- ./inp_files/30855.got.cif
#   From: 2010.05.17/outbox.cif.g08.bks.cpg/sg15_16_cif.got.tgz:30855.got - 2010.06.03 18:47:42.
