data_PCOD9295255
_publ_section_title
;
Structure prediction by ZEFSAII (Michael W. Deem and Ramdas Pophale) SiO2 
 PCOD9295255
Probable space group: C 2/C
;
_chemical_formula_sum "Si O2"
_cell_formula_units_Z 40
_cell_length_a 7.855409
_cell_length_b 22.784404
_cell_length_c 12.421553
_cell_angle_alpha 90.000000
_cell_angle_beta 54.167405
_cell_angle_gamma 90.000000
_cell_volume 1802.432889
_symmetry_space_group_name_H-M "C 2/C"
_symmetry_group_IT_number 15
_symmetry_cell_setting 'monoclinic'
loop_
_space_group_symop_operation_xyz
x,y,z
-x,y,1/2-z
-x,-y,-z
x,-y,1/2+z
1/2+x,1/2+y,z
1/2-x,1/2+y,1/2-z
1/2-x,1/2-y,-z
1/2+x,1/2-y,1/2+z
loop_
_atom_site_type_symbol
_atom_site_label
_atom_site_fract_x
_atom_site_fract_y
_atom_site_fract_z
Si Si1 0.869547 0.414498 0.574934
Si Si2 0.439675 0.329345 0.395712
Si Si3 0.744896 0.535001 0.693633
Si Si4 0.897632 0.935065 0.038252
Si Si5 0.477956 0.796081 0.628868
O O1 0.815484 0.467476 0.674846
O O2 0.714236 0.422686 0.531911
O O3 0.844647 0.350683 0.635188
O O4 0.103227 0.431162 0.445135
O O5 0.500000 0.344938 0.250000
O O6 0.458041 0.381530 0.475118
O O7 0.578882 0.271707 0.373747
O O8 0.201269 0.307557 0.488944
O O9 0.500000 0.534380 0.750000
O O10 0.764243 0.563317 0.802735
O O11 0.000000 0.000000 0.000000
O O12 0.500000 0.800067 0.750000
#
# Coordination Sequence:
#
# PCOD9295255 Si02
#       5
#     8   8   8   8   8
#     4  11  25  38  66  98 125 176 217 274 324 388
#     4  10  23  44  67  90 132 180 216 264 333 396
#     4  11  23  41  60  91 136 171 215 264 331 392
#     4  12  24  39  64  96 131 174 210 271 327 390
#     4  10  23  42  67  96 126 173 225 271 322 390
#
# _framework density 22.192226999999999
#
# number of rings (size 3 to 8) (size 9 to 14) (size 15 to 20)
#    0.000    1.200    2.000    3.600    5.600    0.800 
#    0.000    0.000    0.000    7.200    0.000    0.000 
#    0.000    0.000    0.000    0.000    0.000    0.000 
#
# Total GULP energy -111715.985482 kJ/mol
# GULP energy per Si atom -5585.799274 kJ/mol
# Density = 2.214172 g / cm^3
# Si number density = 22.192227 Si / 1000 Ang^3
#
#
#
# Elastic Constant Matrix: (Units=GPa)
#
#
# Indices 1 2 3 4 5 6 
#
# 1 62.5022 31.7984 -5.4611 0.0000 5.4032 0.0000
# 2 31.7984 185.9242 -9.9380 0.0000 11.8204 0.0000
# 3 -5.4611 -9.9380 53.4318 0.0000 -2.2423 0.0000
# 4 0.0000 0.0000 0.0000 32.8706 0.0000 10.0450
# 5 5.4032 11.8204 -2.2423 0.0000 28.0227 0.0000
# 6 0.0000 0.0000 0.0000 10.0450 0.0000 29.3577
#
#
#
# Elastic Compliance Matrix: (Units=1/GPa)
#
#
# Indices 1 2 3 4 5 6 
#
# 1 0.017729 -0.002833 0.001196 0.000000 -0.002128 0.000000
# 2 -0.002833 0.006026 0.000750 0.000000 -0.001936 0.000000
# 3 0.001196 0.000750 0.019018 0.000000 0.000975 0.000000
# 4 0.000000 0.000000 0.000000 0.033975 0.000000 -0.011625
# 5 -0.002128 -0.001936 0.000975 0.000000 0.036990 0.000000
# 6 0.000000 0.000000 0.000000 -0.011625 0.000000 0.038040
#
#
# Mechanical properties :
#
#
# Convention : Reuss Voigt Hill
#
# Bulk Modulus (GPa) = 24.39071 37.18409 30.78740
# Shear Modulus (GPa) = 29.90087 37.08079 33.49083
#
# Velocity S-wave (km/s) = 3.67462 4.09209 3.88896
# Velocity P-wave (km/s) = 5.38686 6.25450 5.83682
#
# Compressibility (1/GPa) = 0.04099921
#
# Stress axis : x y z
#
# Youngs Moduli (GPa) = 56.40425 165.94152 52.58155
#
# Poissons Ratio (x) = 0.47011 -0.06288
# Poissons Ratio (y) = 0.15979 -0.03944
# Poissons Ratio (z) = -0.06745 -0.12447
#
# Static dielectric constant tensor:
#      x y z
#    x 1.848400 0.000000 -0.023680 
#    y 0.000000 1.920830 0.000000 
#    z -0.023680 0.000000 1.840810 
# 
# From -- ./inp_files/135768.got.cif
#   From: 2010.05.17/outbox.cif.g08.bks.cpg/sg15_68_cif.got.tgz:135768.got - 2010.06.03 18:47:42.
