data_PCOD9295664
_publ_section_title
;
Structure prediction by ZEFSAII (Michael W. Deem and Ramdas Pophale) SiO2 
 PCOD9295664
Probable space group: C 2/C
;
_chemical_formula_sum "Si O2"
_cell_formula_units_Z 32
_cell_length_a 7.183319
_cell_length_b 18.520076
_cell_length_c 10.429420
_cell_angle_alpha 90.000000
_cell_angle_beta 97.404537
_cell_angle_gamma 90.000000
_cell_volume 1375.914005
_symmetry_space_group_name_H-M "C 2/C"
_symmetry_group_IT_number 15
_symmetry_cell_setting 'monoclinic'
loop_
_space_group_symop_operation_xyz
x,y,z
-x,y,1/2-z
-x,-y,-z
x,-y,1/2+z
1/2+x,1/2+y,z
1/2-x,1/2+y,1/2-z
1/2-x,1/2-y,-z
1/2+x,1/2-y,1/2+z
loop_
_atom_site_type_symbol
_atom_site_label
_atom_site_fract_x
_atom_site_fract_y
_atom_site_fract_z
Si Si1 0.969756 0.106623 0.890273
Si Si2 0.755557 0.347438 0.891855
Si Si3 0.838146 0.670954 0.988632
Si Si4 0.500000 0.466970 0.750000
Si Si5 0.500000 0.222677 0.750000
O O1 0.000000 0.140566 0.750000
O O2 0.816260 0.142258 0.967777
O O3 0.165992 0.116447 0.982812
O O4 0.933930 0.023360 0.853249
O O5 0.667834 0.416102 0.811622
O O6 0.653946 0.277247 0.824455
O O7 0.979503 0.341854 0.909211
O O8 0.911917 0.673202 0.850553
O O9 0.750000 0.750000 0.000000
#
# Coordination Sequence:
#
# PCOD9295664 Si02
#       5
#     8   8   8   4   4
#     4  10  23  43  67  93 137 177 219 279 327 391
#     4  11  23  45  65  98 134 177 221 280 328 396
#     4  12  25  40  69 100 134 175 220 273 340 403
#     4   9  24  44  70  92 136 177 230 278 324 391
#     4  11  24  42  68  96 138 171 214 280 338 401
#
# _framework density 23.257269999999998
#
# number of rings (size 3 to 8) (size 9 to 14) (size 15 to 20)
#    0.750    0.500    2.500    3.000    3.500    1.000 
#    0.000    2.500    0.000    0.000    0.000    0.000 
#    0.000    0.000    0.000    0.000    0.000    0.000 
#
# Total GULP energy -89511.602255 kJ/mol
# GULP energy per Si atom -5594.475141 kJ/mol
# Density = 2.320434 g / cm^3
# Si number density = 23.257270 Si / 1000 Ang^3
#
#
#
# Elastic Constant Matrix: (Units=GPa)
#
#
# Indices 1 2 3 4 5 6 
#
# 1 167.8322 38.7034 29.5720 0.0000 39.3678 0.0000
# 2 38.7034 87.4826 18.4106 0.0000 24.0299 0.0000
# 3 29.5720 18.4106 89.3155 0.0000 8.1837 0.0000
# 4 0.0000 0.0000 0.0000 49.8121 0.0000 4.5546
# 5 39.3678 24.0299 8.1837 0.0000 33.1486 0.0000
# 6 0.0000 0.0000 0.0000 4.5546 0.0000 41.2087
#
#
#
# Elastic Compliance Matrix: (Units=1/GPa)
#
#
# Indices 1 2 3 4 5 6 
#
# 1 0.008637 -0.000927 -0.001832 0.000000 -0.009134 0.000000
# 2 -0.000927 0.014745 -0.001897 0.000000 -0.009120 0.000000
# 3 -0.001832 -0.001897 0.012143 0.000000 0.000553 0.000000
# 4 0.000000 0.000000 0.000000 0.020280 0.000000 -0.002241
# 5 -0.009134 -0.009120 0.000553 0.000000 0.047489 0.000000
# 6 0.000000 0.000000 0.000000 -0.002241 0.000000 0.024514
#
#
# Mechanical properties :
#
#
# Convention : Reuss Voigt Hill
#
# Bulk Modulus (GPa) = 38.14701 57.55582 47.85141
# Shear Modulus (GPa) = 34.27968 42.03016 38.15492
#
# Velocity S-wave (km/s) = 3.84335 4.25571 4.05478
# Velocity P-wave (km/s) = 6.01107 6.99638 6.52235
#
# Compressibility (1/GPa) = 0.02621438
#
# Stress axis : x y z
#
# Youngs Moduli (GPa) = 115.77697 67.81873 82.35106
#
# Poissons Ratio (x) = 0.06286 0.15085
# Poissons Ratio (y) = 0.10731 0.15621
# Poissons Ratio (z) = 0.21208 0.12864
#
# Static dielectric constant tensor:
#      x y z
#    x 1.049970 0.000000 0.227950 
#    y 0.000000 1.821710 0.000000 
#    z 0.227950 0.000000 1.920490 
# 
# From -- ./inp_files/23980.got.cif
#   From: 2010.05.17/outbox.cif.g08.bks.cpg/sg15_12_cif.got.tgz:23980.got - 2010.06.03 18:47:42.
