data_PCOD9295367
_publ_section_title
;
Structure prediction by ZEFSAII (Michael W. Deem and Ramdas Pophale) SiO2 
 PCOD9295367
Probable space group: C 2/C
;
_chemical_formula_sum "Si O2"
_cell_formula_units_Z 44
_cell_length_a 10.934436
_cell_length_b 20.889939
_cell_length_c 8.794724
_cell_angle_alpha 90.000000
_cell_angle_beta 85.357152
_cell_angle_gamma 90.000000
_cell_volume 2002.296309
_symmetry_space_group_name_H-M "C 2/C"
_symmetry_group_IT_number 15
_symmetry_cell_setting 'monoclinic'
loop_
_space_group_symop_operation_xyz
x,y,z
-x,y,1/2-z
-x,-y,-z
x,-y,1/2+z
1/2+x,1/2+y,z
1/2-x,1/2+y,1/2-z
1/2-x,1/2-y,-z
1/2+x,1/2-y,1/2+z
loop_
_atom_site_type_symbol
_atom_site_label
_atom_site_fract_x
_atom_site_fract_y
_atom_site_fract_z
Si Si1 0.757427 0.750145 0.314711
Si Si2 0.000000 0.813177 0.750000
Si Si3 0.100123 0.080196 0.034751
Si Si4 0.040515 0.573504 0.968858
Si Si5 0.686137 0.884985 0.192604
Si Si6 0.500000 0.834179 0.750000
Si Si7 0.000000 0.014735 0.750000
O O1 0.750000 0.750000 0.500000
O O2 0.625857 0.722840 0.273922
O O3 0.752334 0.821284 0.245419
O O4 0.878646 0.711610 0.243116
O O5 0.035522 0.856603 0.602159
O O6 0.104270 0.033947 0.180979
O O7 0.230794 0.086799 0.947731
O O8 0.025318 0.054277 0.897584
O O9 0.158806 0.574061 0.847015
O O10 0.941738 0.616010 0.884766
O O11 0.000000 0.500000 0.000000
O O12 0.049311 0.615983 0.117893
#
# Coordination Sequence:
#
# PCOD9295367 Si02
#       7
#     8   4   8   8   8   4   4
#     4  12  28  48  77 110 156 195 263 321 381 463
#     4  11  26  48  73 107 148 198 245 310 384 446
#     4  10  23  42  70 100 138 187 239 294 374 441
#     4  11  25  47  70 110 151 198 258 315 384 465
#     4  11  25  44  71 103 143 197 242 317 377 441
#     4  12  26  47  79 115 147 206 262 316 396 454
#     4   9  22  43  64  98 137 176 235 296 354 450
#
# _framework density 21.974768000000001
#
# number of rings (size 3 to 8) (size 9 to 14) (size 15 to 20)
#    0.000    1.091    1.818    3.273    7.636    1.455 
#    9.818    0.000    0.000    0.000    0.000    0.000 
#    0.000    0.000    0.000    0.000    0.000    0.000 
#
# Total GULP energy -122554.922899 kJ/mol
# GULP energy per Si atom -5570.678314 kJ/mol
# Density = 2.192475 g / cm^3
# Si number density = 21.974768 Si / 1000 Ang^3
#
#
#
# Elastic Constant Matrix: (Units=GPa)
#
#
# Indices 1 2 3 4 5 6 
#
# 1 97.9075 38.4038 23.4169 0.0000 -24.1189 0.0000
# 2 38.4038 99.0933 44.7274 0.0000 -5.9524 0.0000
# 3 23.4169 44.7274 128.4455 0.0000 -29.9217 0.0000
# 4 0.0000 0.0000 0.0000 10.9318 0.0000 0.5918
# 5 -24.1189 -5.9524 -29.9217 0.0000 47.1676 0.0000
# 6 0.0000 0.0000 0.0000 0.5918 0.0000 26.5368
#
#
#
# Elastic Compliance Matrix: (Units=1/GPa)
#
#
# Indices 1 2 3 4 5 6 
#
# 1 0.013814 -0.005379 0.000988 0.000000 0.007012 0.000000
# 2 -0.005379 0.014139 -0.004891 0.000000 -0.004069 0.000000
# 3 0.000988 -0.004891 0.010892 0.000000 0.006797 0.000000
# 4 0.000000 0.000000 0.000000 0.091587 0.000000 -0.002042
# 5 0.007012 -0.004069 0.006797 0.000000 0.028585 0.000000
# 6 0.000000 0.000000 0.000000 -0.002042 0.000000 0.037729
#
#
# Mechanical properties :
#
#
# Convention : Reuss Voigt Hill
#
# Bulk Modulus (GPa) = 49.30346 59.83805 54.57076
# Shear Modulus (GPa) = 22.51538 31.52045 27.01792
#
# Velocity S-wave (km/s) = 3.20441 3.79145 3.51022
# Velocity P-wave (km/s) = 6.01466 6.81588 6.42777
#
# Compressibility (1/GPa) = 0.02028255
#
# Stress axis : x y z
#
# Youngs Moduli (GPa) = 72.38779 70.72599 91.81191
#
# Poissons Ratio (x) = 0.38040 -0.09069
# Poissons Ratio (y) = 0.38934 0.44903
# Poissons Ratio (z) = -0.07151 0.34590
#
# Static dielectric constant tensor:
#      x y z
#    x 1.806270 0.000000 -0.019520 
#    y 0.000000 1.256460 0.000000 
#    z -0.019520 0.000000 1.840730 
# 
# From -- ./inp_files/30900.got.cif
#   From: 2010.05.17/outbox.cif.g08.bks.cpg/sg15_16_cif.got.tgz:30900.got - 2010.06.03 18:47:42.
