data_PCOD9295902
_publ_section_title
;
Structure prediction by ZEFSAII (Michael W. Deem and Ramdas Pophale) SiO2 
 PCOD9295902
Probable space group: C 2/C
;
_chemical_formula_sum "Si O2"
_cell_formula_units_Z 44
_cell_length_a 12.538920
_cell_length_b 17.819572
_cell_length_c 8.708200
_cell_angle_alpha 90.000000
_cell_angle_beta 60.774118
_cell_angle_gamma 90.000000
_cell_volume 1698.054292
_symmetry_space_group_name_H-M "C 2/C"
_symmetry_group_IT_number 15
_symmetry_cell_setting 'monoclinic'
loop_
_space_group_symop_operation_xyz
x,y,z
-x,y,1/2-z
-x,-y,-z
x,-y,1/2+z
1/2+x,1/2+y,z
1/2-x,1/2+y,1/2-z
1/2-x,1/2-y,-z
1/2+x,1/2-y,1/2+z
loop_
_atom_site_type_symbol
_atom_site_label
_atom_site_fract_x
_atom_site_fract_y
_atom_site_fract_z
Si Si1 0.437165 0.101100 0.128028
Si Si2 0.855799 0.895577 0.624425
Si Si3 0.477033 0.277431 0.084357
Si Si4 0.665972 0.511157 0.628036
Si Si5 0.000000 0.391927 0.250000
Si Si6 0.747976 0.614100 0.828017
O O1 0.500000 0.082243 0.250000
O O2 0.290518 0.098512 0.257821
O O3 0.464064 0.188914 0.075644
O O4 0.473200 0.066718 0.934086
O O5 0.904989 0.956897 0.707366
O O6 0.911111 0.813365 0.590578
O O7 0.897951 0.928159 0.432742
O O8 0.500000 0.286097 0.250000
O O9 0.358446 0.325422 0.117578
O O10 0.754723 0.564779 0.667096
O O11 0.721008 0.450409 0.472118
O O12 0.126156 0.350931 0.201814
#
# Coordination Sequence:
#
# PCOD9295902 Si02
#       6
#     8   8   8   8   4   8
#     4  11  27  47  74 107 150 201 248 312 371 451
#     4  11  23  47  69 111 141 193 245 304 384 430
#     4  11  26  44  76 107 147 198 245 314 376 448
#     4  10  23  43  72 104 144 187 242 313 365 450
#     4  12  26  48  70 104 148 192 256 300 370 452
#     4  11  24  44  67 107 139 190 245 301 375 437
#
# _framework density 25.912009999999999
#
# number of rings (size 3 to 8) (size 9 to 14) (size 15 to 20)
#    0.000    1.091    3.636    1.091    2.545    9.455 
#    6.545    0.000    0.000    0.000    0.000    0.000 
#    0.000    0.000    0.000    0.000    0.000    0.000 
#
# Total GULP energy -122879.026978 kJ/mol
# GULP energy per Si atom -5585.410317 kJ/mol
# Density = 2.585303 g / cm^3
# Si number density = 25.912010 Si / 1000 Ang^3
#
#
#
# Elastic Constant Matrix: (Units=GPa)
#
#
# Indices 1 2 3 4 5 6 
#
# 1 162.0338 19.0755 60.9284 0.0000 20.3674 0.0000
# 2 19.0755 118.5408 42.6128 0.0000 21.2188 0.0000
# 3 60.9284 42.6128 164.3953 0.0000 21.3448 0.0000
# 4 0.0000 0.0000 0.0000 27.2472 0.0000 10.1605
# 5 20.3674 21.2188 21.3448 0.0000 44.6988 0.0000
# 6 0.0000 0.0000 0.0000 10.1605 0.0000 17.8065
#
#
#
# Elastic Compliance Matrix: (Units=1/GPa)
#
#
# Indices 1 2 3 4 5 6 
#
# 1 0.007367 0.000100 -0.002467 0.000000 -0.002226 0.000000
# 2 0.000100 0.009841 -0.002106 0.000000 -0.003712 0.000000
# 3 -0.002467 -0.002106 0.007748 0.000000 -0.001576 0.000000
# 4 0.000000 0.000000 0.000000 0.046621 0.000000 -0.026602
# 5 -0.002226 -0.003712 -0.001576 0.000000 0.025901 0.000000
# 6 0.000000 0.000000 0.000000 -0.026602 0.000000 0.071339
#
#
# Mechanical properties :
#
#
# Convention : Reuss Voigt Hill
#
# Bulk Modulus (GPa) = 62.46302 76.68926 69.57614
# Shear Modulus (GPa) = 27.30736 39.44070 33.37403
#
# Velocity S-wave (km/s) = 3.24983 3.90564 3.59273
# Velocity P-wave (km/s) = 6.18385 7.07100 6.64225
#
# Compressibility (1/GPa) = 0.01600947
#
# Stress axis : x y z
#
# Youngs Moduli (GPa) = 135.73284 101.61271 129.06773
#
# Poissons Ratio (x) = -0.01015 0.31846
# Poissons Ratio (y) = -0.01356 0.27183
# Poissons Ratio (z) = 0.33490 0.21400
#
# Static dielectric constant tensor:
#      x y z
#    x 2.080560 0.000000 -0.017400 
#    y 0.000000 1.954220 0.000000 
#    z -0.017400 0.000000 2.100260 
# 
# From -- ./inp_files/30712.got.cif
#   From: 2010.05.17/outbox.cif.g08.bks.cpg/sg15_16_cif.got.tgz:30712.got - 2010.06.03 18:47:42.
