data_PCOD9295186
_publ_section_title
;
Structure prediction by ZEFSAII (Michael W. Deem and Ramdas Pophale) SiO2 
 PCOD9295186
Probable space group: C 2/C
;
_chemical_formula_sum "Si O2"
_cell_formula_units_Z 48
_cell_length_a 11.860938
_cell_length_b 7.701904
_cell_length_c 27.782117
_cell_angle_alpha 90.000000
_cell_angle_beta 94.523630
_cell_angle_gamma 90.000000
_cell_volume 2530.040577
_symmetry_space_group_name_H-M "C 2/C"
_symmetry_group_IT_number 15
_symmetry_cell_setting 'monoclinic'
loop_
_space_group_symop_operation_xyz
x,y,z
-x,y,1/2-z
-x,-y,-z
x,-y,1/2+z
1/2+x,1/2+y,z
1/2-x,1/2+y,1/2-z
1/2-x,1/2-y,-z
1/2+x,1/2-y,1/2+z
loop_
_atom_site_type_symbol
_atom_site_label
_atom_site_fract_x
_atom_site_fract_y
_atom_site_fract_z
Si Si1 0.458726 0.895315 0.568480
Si Si2 0.182877 0.580977 0.015219
Si Si3 0.847926 0.949641 0.101755
Si Si4 0.774801 0.706866 0.813100
Si Si5 0.122297 0.524871 0.775606
Si Si6 0.479726 0.220148 0.639917
O O1 0.568579 0.865124 0.539278
O O2 0.422190 0.720039 0.593476
O O3 0.357964 0.964146 0.530797
O O4 0.485170 0.049588 0.606711
O O5 0.261086 0.477594 0.055159
O O6 0.250000 0.750000 0.000000
O O7 0.781057 0.916815 0.149006
O O8 0.922556 0.121755 0.110169
O O9 0.805182 0.607844 0.764961
O O10 0.690538 0.864725 0.799832
O O11 0.894859 0.769327 0.838488
O O12 0.093331 0.664756 0.815921
O O13 0.000000 0.469883 0.750000
#
# Coordination Sequence:
#
# PCOD9295186 Si02
#       6
#     8   8   8   8   8   8
#     4  11  24  43  65  94 132 168 217 270 314 383
#     4  11  24  44  66  93 133 172 217 270 324 379
#     4  12  24  40  69  96 128 174 216 257 329 379
#     4  11  23  42  66  97 129 168 211 265 319 385
#     4  10  23  42  66  93 134 165 211 266 319 382
#     4  11  23  42  64  98 128 166 217 262 312 391
#
# _framework density 18.972028000000002
#
# number of rings (size 3 to 8) (size 9 to 14) (size 15 to 20)
#    0.000    1.000    5.000    1.500    0.000    4.667 
#    0.000    0.000    0.000    0.000    0.000    0.000 
#    0.000    0.000    0.000    0.000    0.000    0.000 
#
# Total GULP energy -134171.268384 kJ/mol
# GULP energy per Si atom -5590.469516 kJ/mol
# Density = 1.892885 g / cm^3
# Si number density = 18.972028 Si / 1000 Ang^3
#
#
#
# Elastic Constant Matrix: (Units=GPa)
#
#
# Indices 1 2 3 4 5 6 
#
# 1 66.2688 53.9285 25.4457 0.0000 2.4122 0.0000
# 2 53.9285 95.6714 36.0088 0.0000 4.5030 0.0000
# 3 25.4457 36.0088 85.0002 0.0000 3.0390 0.0000
# 4 0.0000 0.0000 0.0000 38.5413 0.0000 5.4496
# 5 2.4122 4.5030 3.0390 0.0000 44.2332 0.0000
# 6 0.0000 0.0000 0.0000 5.4496 0.0000 23.3384
#
#
#
# Elastic Compliance Matrix: (Units=1/GPa)
#
#
# Indices 1 2 3 4 5 6 
#
# 1 0.028171 -0.015121 -0.002033 0.000000 0.000143 0.000000
# 2 -0.015121 0.020588 -0.004160 0.000000 -0.000985 0.000000
# 3 -0.002033 -0.004160 0.014151 0.000000 -0.000438 0.000000
# 4 0.000000 0.000000 0.000000 0.026832 0.000000 -0.006265
# 5 0.000143 -0.000985 -0.000438 0.000000 0.022730 0.000000
# 6 0.000000 0.000000 0.000000 -0.006265 0.000000 0.044311
#
#
# Mechanical properties :
#
#
# Convention : Reuss Voigt Hill
#
# Bulk Modulus (GPa) = 49.30287 53.07849 51.19068
# Shear Modulus (GPa) = 24.25180 29.99308 27.12244
#
# Velocity S-wave (km/s) = 3.57920 3.98038 3.78511
# Velocity P-wave (km/s) = 6.56692 7.01160 6.79290
#
# Compressibility (1/GPa) = 0.02028280
#
# Stress axis : x y z
#
# Youngs Moduli (GPa) = 35.49804 48.57196 70.66619
#
# Poissons Ratio (x) = 0.73446 0.14363
# Poissons Ratio (y) = 0.53677 0.29396
# Poissons Ratio (z) = 0.07215 0.20205
#
# Static dielectric constant tensor:
#      x y z
#    x 1.638150 0.000000 -0.000370 
#    y 0.000000 1.612730 0.000000 
#    z -0.000370 0.000000 1.660420 
# 
# From -- ./inp_files/267779.got.cif
#   From: 2010.05.17/outbox.cif.g08.bks.cpg/sg15_134_cif.got.tgz:267779.got - 2010.06.03 18:47:42.
