data_PCOD9295744
_publ_section_title
;
Structure prediction by ZEFSAII (Michael W. Deem and Ramdas Pophale) SiO2 
 PCOD9295744
Probable space group: C 2/C
;
_chemical_formula_sum "Si O2"
_cell_formula_units_Z 36
_cell_length_a 20.496165
_cell_length_b 8.411261
_cell_length_c 26.095376
_cell_angle_alpha 90.000000
_cell_angle_beta 22.568719
_cell_angle_gamma 90.000000
_cell_volume 1726.602345
_symmetry_space_group_name_H-M "C 2/C"
_symmetry_group_IT_number 15
_symmetry_cell_setting 'monoclinic'
loop_
_space_group_symop_operation_xyz
x,y,z
-x,y,1/2-z
-x,-y,-z
x,-y,1/2+z
1/2+x,1/2+y,z
1/2-x,1/2+y,1/2-z
1/2-x,1/2-y,-z
1/2+x,1/2-y,1/2+z
loop_
_atom_site_type_symbol
_atom_site_label
_atom_site_fract_x
_atom_site_fract_y
_atom_site_fract_z
Si Si1 0.563602 0.693846 0.617027
Si Si2 0.818898 0.873144 0.991194
Si Si3 0.539738 0.791539 0.417558
Si Si4 0.581922 0.829077 0.880019
Si Si5 0.000000 0.408019 0.750000
O O1 0.750000 0.750000 0.500000
O O2 0.553582 0.503629 0.626151
O O3 0.524678 0.748731 0.588081
O O4 0.450481 0.792144 0.738907
O O5 0.907129 0.784129 0.974064
O O6 0.750000 0.750000 0.000000
O O7 0.659031 0.978503 0.124500
O O8 0.477919 0.768758 0.520843
O O9 0.722423 0.713950 0.273362
O O10 0.555899 0.981094 0.397428
#
# Coordination Sequence:
#
# PCOD9295744 Si02
#       5
#     8   8   8   8   4
#     4  10  23  43  68  98 133 183 228 285 345 414
#     4  11  25  45  71 103 137 185 236 289 350 420
#     4  11  26  45  72 104 142 185 232 294 350 425
#     4  11  26  46  70 105 143 183 237 286 358 418
#     4  10  24  44  72  98 140 180 238 294 350 410
#
# _framework density 20.850199
#
# number of rings (size 3 to 8) (size 9 to 14) (size 15 to 20)
#    0.000    1.333    0.000    4.000   12.444    2.667 
#    0.000    0.000    0.000    0.000    0.000    0.000 
#    0.000    0.000    0.000    0.000    0.000    0.000 
#
# Total GULP energy -100652.069634 kJ/mol
# GULP energy per Si atom -5591.781646 kJ/mol
# Density = 2.080274 g / cm^3
# Si number density = 20.850199 Si / 1000 Ang^3
#
#
#
# Elastic Constant Matrix: (Units=GPa)
#
#
# Indices 1 2 3 4 5 6 
#
# 1 215.5855 103.7834 70.0962 0.0001 20.5843 0.0000
# 2 103.7834 156.4021 67.4978 -0.0002 26.3716 -0.0003
# 3 70.0962 67.4978 120.1422 -0.0046 16.3484 0.0014
# 4 0.0001 -0.0002 -0.0046 39.8336 0.0005 -0.1664
# 5 20.5843 26.3716 16.3484 0.0005 29.2804 -0.0002
# 6 0.0000 -0.0003 0.0014 -0.1664 -0.0002 38.5088
#
#
#
# Elastic Compliance Matrix: (Units=1/GPa)
#
#
# Indices 1 2 3 4 5 6 
#
# 1 0.007165 -0.003823 -0.001965 0.000000 -0.000497 0.000000
# 2 -0.003823 0.011336 -0.003371 0.000000 -0.005641 0.000000
# 3 -0.001965 -0.003371 0.011648 0.000001 -0.002086 0.000000
# 4 0.000000 0.000000 0.000001 0.025105 -0.000001 0.000108
# 5 -0.000497 -0.005641 -0.002086 -0.000001 0.040747 0.000000
# 6 0.000000 0.000000 0.000000 0.000108 0.000000 0.025969
#
#
# Mechanical properties :
#
#
# Convention : Reuss Voigt Hill
#
# Bulk Modulus (GPa) = 84.52094 108.32053 96.42073
# Shear Modulus (GPa) = 34.66657 38.24138 36.45397
#
# Velocity S-wave (km/s) = 4.08198 4.28729 4.18589
# Velocity P-wave (km/s) = 7.92730 8.75056 8.34908
#
# Compressibility (1/GPa) = 0.01183139
#
# Stress axis : x y z
#
# Youngs Moduli (GPa) = 139.56321 88.21232 85.85311
#
# Poissons Ratio (x) = 0.33721 0.16872
# Poissons Ratio (y) = 0.53350 0.28942
# Poissons Ratio (z) = 0.27427 0.29737
#
# Static dielectric constant tensor:
#      x y z
#    x 1.703330 0.000000 0.006160 
#    y 0.000000 1.738360 0.000000 
#    z 0.006160 0.000000 1.863500 
# 
# From -- ./inp_files/102439.got.cif
#   From: 2010.05.17/outbox.cif.g08.bks.cpg/sg15_52_cif.got.tgz:102439.got - 2010.06.03 18:47:42.
