data_PCOD9295319
_publ_section_title
;
Structure prediction by ZEFSAII (Michael W. Deem and Ramdas Pophale) SiO2 
 PCOD9295319
Probable space group: C 2/C
;
_chemical_formula_sum "Si O2"
_cell_formula_units_Z 60
_cell_length_a 5.731963
_cell_length_b 17.772643
_cell_length_c 29.818005
_cell_angle_alpha 90.000000
_cell_angle_beta 112.268611
_cell_angle_gamma 90.000000
_cell_volume 2811.070054
_symmetry_space_group_name_H-M "C 2/C"
_symmetry_group_IT_number 15
_symmetry_cell_setting 'monoclinic'
loop_
_space_group_symop_operation_xyz
x,y,z
-x,y,1/2-z
-x,-y,-z
x,-y,1/2+z
1/2+x,1/2+y,z
1/2-x,1/2+y,1/2-z
1/2-x,1/2-y,-z
1/2+x,1/2-y,1/2+z
loop_
_atom_site_type_symbol
_atom_site_label
_atom_site_fract_x
_atom_site_fract_y
_atom_site_fract_z
Si Si1 0.500000 0.538496 0.750000
Si Si2 0.697033 0.689705 0.169812
Si Si3 0.228467 0.886565 0.124458
Si Si4 0.030342 0.966810 0.661048
Si Si5 0.135721 0.592082 0.058645
Si Si6 0.248653 0.453935 0.471883
Si Si7 0.151292 0.671660 0.719060
Si Si8 0.581875 0.778910 0.617547
O O1 0.416712 0.490669 0.700861
O O2 0.290707 0.599079 0.749445
O O3 0.716227 0.602669 0.185825
O O4 0.793004 0.758613 0.206929
O O5 0.388036 0.706613 0.147309
O O6 0.874354 0.694825 0.138752
O O7 0.250586 0.910407 0.074622
O O8 0.488205 0.862825 0.166715
O O9 0.059304 0.811233 0.113565
O O10 0.133406 0.957645 0.145859
O O11 0.854474 0.932745 0.609114
O O12 0.027851 0.669797 0.070115
O O13 0.956573 0.519739 0.046672
O O14 0.210336 0.598823 0.012245
O O15 0.500000 0.500000 0.500000
O O16 0.000000 0.704436 0.750000
#
# Coordination Sequence:
#
# PCOD9295319 Si02
#       8
#     4   8   8   8   8   8   8   8
#     4  12  24  40  66 100 132 176 230 276 342 402
#     4  10  24  43  68  95 133 180 220 273 340 397
#     4  11  22  43  69  96 136 174 228 282 343 404
#     4  11  22  42  69  98 134 178 229 284 334 412
#     4  10  23  42  68  96 140 177 227 283 341 408
#     4  11  22  40  69 100 131 180 226 281 345 403
#     4  11  24  43  65  94 136 177 221 280 340 405
#     4  10  23  44  68  98 133 180 219 277 340 398
#
# _framework density 21.344185
#
# number of rings (size 3 to 8) (size 9 to 14) (size 15 to 20)
#    0.000    1.333    2.667    2.400    4.667    2.667 
#    0.000    2.000    0.000    0.000    0.000    0.000 
#    0.000    0.000    0.000    0.000    0.000    0.000 
#
# Total GULP energy -167089.636895 kJ/mol
# GULP energy per Si atom -5569.654563 kJ/mol
# Density = 2.129560 g / cm^3
# Si number density = 21.344185 Si / 1000 Ang^3
#
#
#
# Elastic Constant Matrix: (Units=GPa)
#
#
# Indices 1 2 3 4 5 6 
#
# 1 61.2923 19.0137 23.9935 0.0000 -26.6941 0.0000
# 2 19.0137 143.6510 35.3884 0.0000 -19.9445 0.0000
# 3 23.9935 35.3884 119.8180 0.0000 -23.6216 0.0000
# 4 0.0000 0.0000 0.0000 -32.6246 0.0000 -28.7935
# 5 -26.6941 -19.9445 -23.6216 0.0000 37.0309 0.0000
# 6 0.0000 0.0000 0.0000 -28.7935 0.0000 26.1214
#
#
#
# Elastic Compliance Matrix: (Units=1/GPa)
#
#
# Indices 1 2 3 4 5 6 
#
# 1 0.024091 -0.000589 -0.001475 0.000000 0.016108 0.000000
# 2 -0.000589 0.007827 -0.001654 0.000000 0.002736 0.000000
# 3 -0.001475 -0.001654 0.010003 0.000000 0.004427 0.000000
# 4 0.000000 0.000000 0.000000 -0.015537 0.000000 -0.017126
# 5 0.016108 0.002736 0.004427 0.000000 0.042913 0.000000
# 6 0.000000 0.000000 0.000000 -0.017126 0.000000 0.019405
#
#
# Mechanical properties :
#
#
# Convention : Reuss Voigt Hill
#
# Bulk Modulus (GPa) = 28.99887 53.50584 41.25235
# Shear Modulus (GPa) = 46.45480 22.52990 34.49235
#
# Velocity S-wave (km/s) = 4.67032 3.25245 4.02432
# Velocity P-wave (km/s) = 6.53439 6.26316 6.40021
#
# Compressibility (1/GPa) = 0.03448411
#
# Stress axis : x y z
#
# Youngs Moduli (GPa) = 41.50994 127.76905 99.97435
#
# Poissons Ratio (x) = 0.07525 0.14742
# Poissons Ratio (y) = 0.02445 0.16540
# Poissons Ratio (z) = 0.06121 0.21138
#
# Static dielectric constant tensor:
#      x y z
#    x 1.911460 0.000000 0.064960 
#    y 0.000000 1.788090 0.000000 
#    z 0.064960 0.000000 1.762450 
# 
# From -- ./inp_files/305817.got.cif
#   From: 2010.05.17/outbox.cif.g08.bks.cpg/sg15_153_cif.got.tgz:305817.got - 2010.06.03 18:47:42.
