data_PCOD9295946
_publ_section_title
;
Structure prediction by ZEFSAII (Michael W. Deem and Ramdas Pophale) SiO2 
 PCOD9295946
Probable space group: C 2/C
;
_chemical_formula_sum "Si O2"
_cell_formula_units_Z 52
_cell_length_a 12.137085
_cell_length_b 11.598917
_cell_length_c 16.728724
_cell_angle_alpha 90.000000
_cell_angle_beta 73.168741
_cell_angle_gamma 90.000000
_cell_volume 2254.135131
_symmetry_space_group_name_H-M "C 2/C"
_symmetry_group_IT_number 15
_symmetry_cell_setting 'monoclinic'
loop_
_space_group_symop_operation_xyz
x,y,z
-x,y,1/2-z
-x,-y,-z
x,-y,1/2+z
1/2+x,1/2+y,z
1/2-x,1/2+y,1/2-z
1/2-x,1/2-y,-z
1/2+x,1/2-y,1/2+z
loop_
_atom_site_type_symbol
_atom_site_label
_atom_site_fract_x
_atom_site_fract_y
_atom_site_fract_z
Si Si1 0.610225 0.241227 0.674581
Si Si2 0.096351 0.922421 0.548879
Si Si3 0.264461 0.128270 0.543632
Si Si4 0.398717 0.011814 0.388704
Si Si5 0.711613 0.664812 0.729610
Si Si6 0.349083 0.496987 0.126599
Si Si7 0.000000 0.330079 0.750000
O O1 0.500000 0.277437 0.750000
O O2 0.646455 0.333535 0.601152
O O3 0.708550 0.216139 0.718256
O O4 0.582782 0.121851 0.633675
O O5 0.127983 0.902638 0.449308
O O6 0.150200 0.048712 0.555853
O O7 0.958993 0.922080 0.590823
O O8 0.250000 0.250000 0.500000
O O9 0.367720 0.054546 0.483079
O O10 0.280568 0.142973 0.634243
O O11 0.496525 0.087033 0.327291
O O12 0.277733 0.042479 0.367512
O O13 0.655916 0.553073 0.783752
O O14 0.609572 0.749220 0.728070
#
# Coordination Sequence:
#
# PCOD9295946 Si02
#       7
#     8   8   8   8   8   8   4
#     4  11  26  45  68 102 145 182 228 289 356 424
#     4  10  23  43  75 101 140 181 234 289 354 417
#     4  11  23  43  69 102 138 179 236 295 344 410
#     4  10  23  44  67  95 145 186 225 289 355 417
#     4  11  25  41  72 101 136 182 241 286 351 416
#     4   9  22  43  71 103 134 181 234 290 348 417
#     4  12  22  42  68  98 140 184 234 290 350 414
#
# _framework density 23.068715000000001
#
# number of rings (size 3 to 8) (size 9 to 14) (size 15 to 20)
#    0.000    1.538    2.308    0.923    4.308    8.000 
#    0.000    0.769    0.000    0.000    0.000    0.000 
#    0.000    0.000    0.000    0.000    0.000    0.000 
#
# Total GULP energy -145374.139652 kJ/mol
# GULP energy per Si atom -5591.313064 kJ/mol
# Density = 2.301621 g / cm^3
# Si number density = 23.068715 Si / 1000 Ang^3
#
#
#
# Elastic Constant Matrix: (Units=GPa)
#
#
# Indices 1 2 3 4 5 6 
#
# 1 13.0580 -2.6416 0.3365 0.0000 -2.5635 0.0000
# 2 -2.6416 73.2493 50.1724 0.0000 12.4586 0.0000
# 3 0.3365 50.1724 184.5081 0.0000 9.8721 0.0000
# 4 0.0000 0.0000 0.0000 38.8545 0.0000 2.5959
# 5 -2.5635 12.4586 9.8721 0.0000 26.8113 0.0000
# 6 0.0000 0.0000 0.0000 2.5959 0.0000 19.0919
#
#
#
# Elastic Compliance Matrix: (Units=1/GPa)
#
#
# Indices 1 2 3 4 5 6 
#
# 1 0.078446 0.002485 -0.001182 0.000000 0.006781 0.000000
# 2 0.002485 0.017945 -0.004540 0.000000 -0.006429 0.000000
# 3 -0.001182 -0.004540 0.006681 0.000000 -0.000463 0.000000
# 4 0.000000 0.000000 0.000000 0.025973 0.000000 -0.003532
# 5 0.006781 -0.006429 -0.000463 0.000000 0.041104 0.000000
# 6 0.000000 0.000000 0.000000 -0.003532 0.000000 0.052859
#
#
# Mechanical properties :
#
#
# Convention : Reuss Voigt Hill
#
# Bulk Modulus (GPa) = 10.35210 40.72776 25.53993
# Shear Modulus (GPa) = 19.10723 31.81473 25.46098
#
# Velocity S-wave (km/s) = 2.88110 3.71769 3.32580
# Velocity P-wave (km/s) = 3.94524 6.01013 5.08363
#
# Compressibility (1/GPa) = 0.09659880
#
# Stress axis : x y z
#
# Youngs Moduli (GPa) = 12.74764 55.72579 149.66993
#
# Poissons Ratio (x) = -0.13849 0.17685
# Poissons Ratio (y) = -0.03168 0.67954
# Poissons Ratio (z) = 0.01506 0.25301
#
# Static dielectric constant tensor:
#      x y z
#    x 1.860690 0.000000 0.005970 
#    y 0.000000 1.885210 0.000000 
#    z 0.005970 0.000000 1.890230 
# 
# From -- ./inp_files/152570.got.cif
#   From: 2010.05.17/outbox.cif.g08.bks.cpg/sg15_77_cif.got.tgz:152570.got - 2010.06.03 18:47:42.
