data_PCOD9295930
_publ_section_title
;
Structure prediction by ZEFSAII (Michael W. Deem and Ramdas Pophale) SiO2 
 PCOD9295930
Probable space group: C 2/C
;
_chemical_formula_sum "Si O2"
_cell_formula_units_Z 36
_cell_length_a 7.534366
_cell_length_b 12.031003
_cell_length_c 22.256020
_cell_angle_alpha 90.000000
_cell_angle_beta 126.379847
_cell_angle_gamma 90.000000
_cell_volume 1624.228822
_symmetry_space_group_name_H-M "C 2/C"
_symmetry_group_IT_number 15
_symmetry_cell_setting 'monoclinic'
loop_
_space_group_symop_operation_xyz
x,y,z
-x,y,1/2-z
-x,-y,-z
x,-y,1/2+z
1/2+x,1/2+y,z
1/2-x,1/2+y,1/2-z
1/2-x,1/2-y,-z
1/2+x,1/2-y,1/2+z
loop_
_atom_site_type_symbol
_atom_site_label
_atom_site_fract_x
_atom_site_fract_y
_atom_site_fract_z
Si Si1 0.000000 0.647248 0.250000
Si Si2 0.328970 0.512777 0.878250
Si Si3 0.034712 0.670930 0.462543
Si Si4 0.737613 0.277451 0.198014
Si Si5 0.779771 0.577667 0.515096
O O1 0.133967 0.569024 0.321996
O O2 0.163215 0.722688 0.244695
O O3 0.363727 0.599708 0.831598
O O4 0.266284 0.588871 0.923366
O O5 0.543303 0.441436 0.936582
O O6 0.250000 0.750000 0.500000
O O7 0.108028 0.544085 0.466393
O O8 0.861827 0.704854 0.376526
O O9 0.923726 0.665863 0.506627
O O10 0.000000 0.286533 0.250000
#
# Coordination Sequence:
#
# PCOD9295930 Si02
#       5
#     4   8   8   8   8
#     4  12  26  48  66  98 150 182 230 292 346 422
#     4  11  23  47  69 103 135 186 238 285 356 416
#     4  11  22  43  70 103 133 183 236 281 356 413
#     4  12  26  45  70 103 140 188 231 280 356 419
#     4  10  23  43  73  98 140 176 232 305 338 408
#
# _framework density 22.164365
#
# number of rings (size 3 to 8) (size 9 to 14) (size 15 to 20)
#    0.000    0.889    5.556    1.333    0.000    2.667 
#    6.000    0.000    0.000    0.000    0.000    0.000 
#    0.000    0.000    0.000    0.000    0.000    0.000 
#
# Total GULP energy -100715.648657 kJ/mol
# GULP energy per Si atom -5595.313814 kJ/mol
# Density = 2.211392 g / cm^3
# Si number density = 22.164365 Si / 1000 Ang^3
#
#
#
# Elastic Constant Matrix: (Units=GPa)
#
#
# Indices 1 2 3 4 5 6 
#
# 1 102.2207 40.0830 43.6967 0.0000 -7.9554 0.0000
# 2 40.0830 64.5179 23.3538 0.0000 -4.2377 0.0000
# 3 43.6967 23.3538 110.5402 0.0000 16.0815 0.0000
# 4 0.0000 0.0000 0.0000 6.3188 0.0000 -1.8250
# 5 -7.9554 -4.2377 16.0815 0.0000 29.0223 0.0000
# 6 0.0000 0.0000 0.0000 -1.8250 0.0000 32.4991
#
#
#
# Elastic Compliance Matrix: (Units=1/GPa)
#
#
# Indices 1 2 3 4 5 6 
#
# 1 0.015432 -0.007194 -0.005485 0.000000 0.006219 0.000000
# 2 -0.007194 0.020775 -0.001849 0.000000 0.002086 0.000000
# 3 -0.005485 -0.001849 0.012904 0.000000 -0.008924 0.000000
# 4 0.000000 0.000000 0.000000 0.160866 0.000000 0.009033
# 5 0.006219 0.002086 -0.008924 0.000000 0.041410 0.000000
# 6 0.000000 0.000000 0.000000 0.009033 0.000000 0.031277
#
#
# Mechanical properties :
#
#
# Convention : Reuss Voigt Hill
#
# Bulk Modulus (GPa) = 49.86260 54.61620 52.23940
# Shear Modulus (GPa) = 15.70321 24.91106 20.30713
#
# Velocity S-wave (km/s) = 2.66463 3.35613 3.03017
# Velocity P-wave (km/s) = 5.65797 6.30184 5.98856
#
# Compressibility (1/GPa) = 0.02005511
#
# Stress axis : x y z
#
# Youngs Moduli (GPa) = 64.79850 48.13462 77.49667
#
# Poissons Ratio (x) = 0.34626 0.42511
# Poissons Ratio (y) = 0.46613 0.14329
# Poissons Ratio (z) = 0.35545 0.08900
#
# Static dielectric constant tensor:
#      x y z
#    x 1.843850 0.000000 -0.036610 
#    y 0.000000 1.832530 0.000000 
#    z -0.036610 0.000000 1.776130 
# 
# From -- ./inp_files/187675.got.cif
#   From: 2010.05.17/outbox.cif.g08.bks.cpg/sg15_94_cif.got.tgz:187675.got - 2010.06.03 18:47:42.
