data_PCOD9295415
_publ_section_title
;
Structure prediction by ZEFSAII (Michael W. Deem and Ramdas Pophale) SiO2 
 PCOD9295415
Probable space group: C 2/C
;
_chemical_formula_sum "Si O2"
_cell_formula_units_Z 48
_cell_length_a 8.615074
_cell_length_b 12.158352
_cell_length_c 18.732370
_cell_angle_alpha 90.000000
_cell_angle_beta 98.776974
_cell_angle_gamma 90.000000
_cell_volume 1939.147113
_symmetry_space_group_name_H-M "C 2/C"
_symmetry_group_IT_number 15
_symmetry_cell_setting 'monoclinic'
loop_
_space_group_symop_operation_xyz
x,y,z
-x,y,1/2-z
-x,-y,-z
x,-y,1/2+z
1/2+x,1/2+y,z
1/2-x,1/2+y,1/2-z
1/2-x,1/2-y,-z
1/2+x,1/2-y,1/2+z
loop_
_atom_site_type_symbol
_atom_site_label
_atom_site_fract_x
_atom_site_fract_y
_atom_site_fract_z
Si Si1 0.777911 0.589084 0.468817
Si Si2 0.196801 0.111445 0.863863
Si Si3 0.000000 0.411893 0.750000
Si Si4 0.368808 0.973637 0.116647
Si Si5 0.000000 0.972224 0.750000
Si Si6 0.803267 0.833341 0.838030
Si Si7 0.119809 0.190017 0.587466
O O1 0.904154 0.565954 0.540242
O O2 0.835876 0.684175 0.420780
O O3 0.634633 0.636196 0.508450
O O4 0.737785 0.481265 0.423462
O O5 0.498902 0.990034 0.819364
O O6 0.138035 0.049669 0.788730
O O7 0.322339 0.208032 0.860818
O O8 0.043843 0.173432 0.885727
O O9 0.843439 0.340949 0.728468
O O10 0.255132 0.877973 0.138327
O O11 0.259601 0.083846 0.105069
O O12 0.053419 0.893935 0.689322
#
# Coordination Sequence:
#
# PCOD9295415 Si02
#       7
#     8   8   4   8   4   8   8
#     4   9  20  39  72 103 139 188 220 285 354 412
#     4  12  23  41  73  98 140 184 228 291 351 409
#     4   8  17  40  69  98 138 175 227 292 338 410
#     4   8  17  41  68 103 136 178 232 283 345 416
#     4  12  25  48  65 102 138 189 233 290 356 404
#     4  10  23  42  71 100 136 180 242 284 349 416
#     4   9  19  42  70 100 145 180 226 285 348 417
#
# _framework density 24.753150000000002
#
# number of rings (size 3 to 8) (size 9 to 14) (size 15 to 20)
#    2.000    0.333    1.667    1.000    0.000    3.333 
#    0.000    5.833    3.667    0.000    0.000    0.000 
#    0.000    0.000    0.000    0.000    0.000    0.000 
#
# Total GULP energy -134104.100061 kJ/mol
# GULP energy per Si atom -5587.670836 kJ/mol
# Density = 2.469681 g / cm^3
# Si number density = 24.753150 Si / 1000 Ang^3
#
#
#
# Elastic Constant Matrix: (Units=GPa)
#
#
# Indices 1 2 3 4 5 6 
#
# 1 38.7388 22.1999 12.9105 0.0000 -2.6858 0.0000
# 2 22.1999 164.8634 49.0858 0.0000 -3.9847 0.0000
# 3 12.9105 49.0858 65.1687 0.0000 1.2678 0.0000
# 4 0.0000 0.0000 0.0000 27.6818 0.0000 4.5522
# 5 -2.6858 -3.9847 1.2678 0.0000 36.9567 0.0000
# 6 0.0000 0.0000 0.0000 4.5522 0.0000 23.0431
#
#
#
# Elastic Compliance Matrix: (Units=1/GPa)
#
#
# Indices 1 2 3 4 5 6 
#
# 1 0.028736 -0.002729 -0.003675 0.000000 0.001920 0.000000
# 2 -0.002729 0.008119 -0.005592 0.000000 0.000869 0.000000
# 3 -0.003675 -0.005592 0.020315 0.000000 -0.001567 0.000000
# 4 0.000000 0.000000 0.000000 0.037338 0.000000 -0.007376
# 5 0.001920 0.000869 -0.001567 0.000000 0.027346 0.000000
# 6 0.000000 0.000000 0.000000 -0.007376 0.000000 0.044854
#
#
# Mechanical properties :
#
#
# Convention : Reuss Voigt Hill
#
# Bulk Modulus (GPa) = 30.13946 48.57370 39.35658
# Shear Modulus (GPa) = 24.78234 29.84132 27.31183
#
# Velocity S-wave (km/s) = 3.16757 3.47588 3.32530
# Velocity P-wave (km/s) = 5.05771 5.98121 5.53874
#
# Compressibility (1/GPa) = 0.03317909
#
# Stress axis : x y z
#
# Youngs Moduli (GPa) = 34.80010 123.16947 49.22510
#
# Poissons Ratio (x) = 0.33612 0.18088
# Poissons Ratio (y) = 0.09497 0.27524
# Poissons Ratio (z) = 0.12788 0.68871
#
# Static dielectric constant tensor:
#      x y z
#    x 2.039300 0.000000 -0.025670 
#    y 0.000000 1.940370 0.000000 
#    z -0.025670 0.000000 1.961690 
# 
# From -- ./inp_files/263731.got.cif
#   From: 2010.05.17/outbox.cif.g08.bks.cpg/sg15_132_cif.got.tgz:263731.got - 2010.06.03 18:47:42.
