data_PCOD9295940
_publ_section_title
;
Structure prediction by ZEFSAII (Michael W. Deem and Ramdas Pophale) SiO2 
 PCOD9295940
Probable space group: C 2/C
;
_chemical_formula_sum "Si O2"
_cell_formula_units_Z 40
_cell_length_a 20.158114
_cell_length_b 5.392293
_cell_length_c 19.254384
_cell_angle_alpha 90.000000
_cell_angle_beta 128.198220
_cell_angle_gamma 90.000000
_cell_volume 1644.777257
_symmetry_space_group_name_H-M "C 2/C"
_symmetry_group_IT_number 15
_symmetry_cell_setting 'monoclinic'
loop_
_space_group_symop_operation_xyz
x,y,z
-x,y,1/2-z
-x,-y,-z
x,-y,1/2+z
1/2+x,1/2+y,z
1/2-x,1/2+y,1/2-z
1/2-x,1/2-y,-z
1/2+x,1/2-y,1/2+z
loop_
_atom_site_type_symbol
_atom_site_label
_atom_site_fract_x
_atom_site_fract_y
_atom_site_fract_z
Si Si1 0.552647 0.566839 0.641715
Si Si2 0.067598 0.691381 0.015363
Si Si3 0.276504 0.687459 0.227929
Si Si4 0.388848 0.182028 0.071923
Si Si5 0.746527 0.938914 0.434319
O O1 0.485080 0.399657 0.557903
O O2 0.625135 0.395979 0.720030
O O3 0.601703 0.707617 0.610824
O O4 0.487110 0.735692 0.643403
O O5 0.113836 0.538922 0.985876
O O6 0.252129 0.802234 0.137811
O O7 0.000000 0.500000 0.000000
O O8 0.233422 0.423262 0.224775
O O9 0.339316 0.097886 0.109067
O O10 0.327591 0.386615 0.997550
O O11 0.750000 0.750000 0.500000
#
# Coordination Sequence:
#
# PCOD9295940 Si02
#       5
#     8   8   8   8   8
#     4  10  23  43  74 113 151 202 257 327 394 475
#     4   9  20  37  74 111 146 198 254 314 383 479
#     4  12  33  50  79 117 167 209 269 343 405 471
#     4  10  23  45  81 111 155 207 270 316 399 492
#     4  11  27  49  78 113 156 215 261 331 403 481
#
# _framework density 24.319403000000001
#
# number of rings (size 3 to 8) (size 9 to 14) (size 15 to 20)
#    0.000    1.600    0.000    1.200   22.400    0.000 
#    0.000    6.000    0.000    0.000    0.000    0.000 
#    0.000    0.000    0.000    0.000    0.000    0.000 
#
# Total GULP energy -111618.945723 kJ/mol
# GULP energy per Si atom -5580.947286 kJ/mol
# Density = 2.426405 g / cm^3
# Si number density = 24.319403 Si / 1000 Ang^3
#
#
#
# Elastic Constant Matrix: (Units=GPa)
#
#
# Indices 1 2 3 4 5 6 
#
# 1 182.5065 58.5877 58.1897 -0.0001 36.6210 -0.0004
# 2 58.5877 114.3061 40.0292 -0.0007 12.8979 -0.0019
# 3 58.1897 40.0292 50.1120 0.0000 10.7931 0.0001
# 4 -0.0001 -0.0007 0.0000 28.9077 0.0000 6.6229
# 5 36.6210 12.8979 10.7931 0.0000 38.7612 -0.0002
# 6 -0.0004 -0.0019 0.0001 6.6229 -0.0002 65.0115
#
#
#
# Elastic Compliance Matrix: (Units=1/GPa)
#
#
# Indices 1 2 3 4 5 6 
#
# 1 0.010208 -0.001158 -0.009505 0.000000 -0.006613 0.000000
# 2 -0.001158 0.012352 -0.008375 0.000000 -0.000684 0.000000
# 3 -0.009505 -0.008375 0.037390 0.000000 0.001355 0.000000
# 4 0.000000 0.000000 0.000000 0.035420 0.000000 -0.003608
# 5 -0.006613 -0.000684 0.001355 0.000000 0.031897 0.000000
# 6 0.000000 0.000000 0.000000 -0.003608 0.000000 0.015749
#
#
# Mechanical properties :
#
#
# Convention : Reuss Voigt Hill
#
# Bulk Modulus (GPa) = 45.71323 73.39308 59.55316
# Shear Modulus (GPa) = 26.54167 39.21062 32.87615
#
# Velocity S-wave (km/s) = 3.30719 4.01972 3.68074
# Velocity P-wave (km/s) = 5.78110 7.19643 6.52724
#
# Compressibility (1/GPa) = 0.02187551
#
# Stress axis : x y z
#
# Youngs Moduli (GPa) = 97.96022 80.95947 26.74491
#
# Poissons Ratio (x) = 0.09371 0.25421
# Poissons Ratio (y) = 0.11339 0.22399
# Poissons Ratio (z) = 0.93110 0.67804
#
# Static dielectric constant tensor:
#      x y z
#    x 1.966660 0.000000 0.023750 
#    y 0.000000 2.042700 0.000000 
#    z 0.023750 0.000000 2.013670 
# 
# From -- ./inp_files/271629.got.cif
#   From: 2010.05.17/outbox.cif.g08.bks.cpg/sg15_136_cif.got.tgz:271629.got - 2010.06.03 18:47:42.
