data_PCOD9295472
_publ_section_title
;
Structure prediction by ZEFSAII (Michael W. Deem and Ramdas Pophale) SiO2 
 PCOD9295472
Probable space group: C 2/C
;
_chemical_formula_sum "Si O2"
_cell_formula_units_Z 36
_cell_length_a 17.012972
_cell_length_b 14.053754
_cell_length_c 13.057408
_cell_angle_alpha 90.000000
_cell_angle_beta 151.805259
_cell_angle_gamma 90.000000
_cell_volume 1475.039424
_symmetry_space_group_name_H-M "C 2/C"
_symmetry_group_IT_number 15
_symmetry_cell_setting 'monoclinic'
loop_
_space_group_symop_operation_xyz
x,y,z
-x,y,1/2-z
-x,-y,-z
x,-y,1/2+z
1/2+x,1/2+y,z
1/2-x,1/2+y,1/2-z
1/2-x,1/2-y,-z
1/2+x,1/2-y,1/2+z
loop_
_atom_site_type_symbol
_atom_site_label
_atom_site_fract_x
_atom_site_fract_y
_atom_site_fract_z
Si Si1 0.500000 0.455674 0.250000
Si Si2 0.330669 0.368220 0.244203
Si Si3 0.158731 0.561630 0.062660
Si Si4 0.208749 0.590275 0.879832
Si Si5 0.341092 0.264549 0.829602
O O1 0.394068 0.390237 0.203942
O O2 0.629388 0.526651 0.454384
O O3 0.270254 0.470784 0.213092
O O4 0.485632 0.320147 0.480477
O O5 0.176476 0.298800 0.088566
O O6 0.206975 0.651449 0.185002
O O7 0.199423 0.596884 0.992969
O O8 0.964424 0.538801 0.846753
O O9 0.199271 0.690911 0.809412
#
# Coordination Sequence:
#
# PCOD9295472 Si02
#       5
#     4   8   8   8   8
#     4  10  26  48  72 100 144 192 226 288 356 416
#     4  11  27  44  70 102 145 184 235 288 350 413
#     4  10  23  45  68 104 145 184 226 291 355 409
#     4  10  23  42  73 103 142 182 236 283 351 410
#     4  12  24  42  70 109 138 185 235 291 341 422
#
# _framework density 24.406127999999999
#
# number of rings (size 3 to 8) (size 9 to 14) (size 15 to 20)
#    0.000    1.333    2.222    1.333    9.333    5.333 
#    0.000    2.222    0.000    0.000    0.000    0.000 
#    0.000    0.000    0.000    0.000    0.000    0.000 
#
# Total GULP energy -100666.910908 kJ/mol
# GULP energy per Si atom -5592.606162 kJ/mol
# Density = 2.435058 g / cm^3
# Si number density = 24.406128 Si / 1000 Ang^3
#
#
#
# Elastic Constant Matrix: (Units=GPa)
#
#
# Indices 1 2 3 4 5 6 
#
# 1 82.9344 67.1345 41.0294 0.0000 11.4547 0.0000
# 2 67.1345 180.2021 72.7539 0.0000 -0.4036 0.0000
# 3 41.0294 72.7539 97.6475 0.0000 15.9680 0.0000
# 4 0.0000 0.0000 0.0000 54.4558 0.0000 -1.0323
# 5 11.4547 -0.4036 15.9680 0.0000 27.5696 0.0000
# 6 0.0000 0.0000 0.0000 -1.0323 0.0000 44.9701
#
#
#
# Elastic Compliance Matrix: (Units=1/GPa)
#
#
# Indices 1 2 3 4 5 6 
#
# 1 0.019167 -0.006217 -0.002324 0.000000 -0.006708 0.000000
# 2 -0.006217 0.010355 -0.006130 0.000000 0.006285 0.000000
# 3 -0.002324 -0.006130 0.017278 0.000000 -0.009131 0.000000
# 4 0.000000 0.000000 0.000000 0.018372 0.000000 0.000422
# 5 -0.006708 0.006285 -0.009131 0.000000 0.044440 0.000000
# 6 0.000000 0.000000 0.000000 0.000422 0.000000 0.022247
#
#
# Mechanical properties :
#
#
# Convention : Reuss Voigt Hill
#
# Bulk Modulus (GPa) = 57.28664 80.29109 68.78886
# Shear Modulus (GPa) = 29.93637 37.39016 33.66327
#
# Velocity S-wave (km/s) = 3.50607 3.91832 3.71792
# Velocity P-wave (km/s) = 6.31769 7.31029 6.83204
#
# Compressibility (1/GPa) = 0.01745608
#
# Stress axis : x y z
#
# Youngs Moduli (GPa) = 52.17308 96.57400 57.87594
#
# Poissons Ratio (x) = 0.60043 0.13452
# Poissons Ratio (y) = 0.32438 0.35480
# Poissons Ratio (z) = 0.12126 0.59204
#
# Static dielectric constant tensor:
#      x y z
#    x 2.012920 0.000000 0.001430 
#    y 0.000000 1.877370 0.000000 
#    z 0.001430 0.000000 1.958970 
# 
# From -- ./inp_files/37643.got.cif
#   From: 2010.05.17/outbox.cif.g08.bks.cpg/sg15_19_cif.got.tgz:37643.got - 2010.06.03 18:47:42.
