data_PCOD9295178
_publ_section_title
;
Structure prediction by ZEFSAII (Michael W. Deem and Ramdas Pophale) SiO2 
 PCOD9295178
Probable space group: C 2/C
;
_chemical_formula_sum "Si O2"
_cell_formula_units_Z 48
_cell_length_a 25.925908
_cell_length_b 18.046908
_cell_length_c 8.879134
_cell_angle_alpha 90.000000
_cell_angle_beta 31.012139
_cell_angle_gamma 90.000000
_cell_volume 2140.424056
_symmetry_space_group_name_H-M "C 2/C"
_symmetry_group_IT_number 15
_symmetry_cell_setting 'monoclinic'
loop_
_space_group_symop_operation_xyz
x,y,z
-x,y,1/2-z
-x,-y,-z
x,-y,1/2+z
1/2+x,1/2+y,z
1/2-x,1/2+y,1/2-z
1/2-x,1/2-y,-z
1/2+x,1/2-y,1/2+z
loop_
_atom_site_type_symbol
_atom_site_label
_atom_site_fract_x
_atom_site_fract_y
_atom_site_fract_z
Si Si1 0.281377 0.433527 0.467265
Si Si2 0.353117 0.349706 0.006787
Si Si3 0.389698 0.888417 0.404988
Si Si4 0.981739 0.080791 0.617457
Si Si5 0.500000 0.977231 0.750000
Si Si6 0.000000 0.736821 0.750000
Si Si7 0.295372 0.900644 0.337909
O O1 0.366926 0.404615 0.364462
O O2 0.266547 0.522038 0.517716
O O3 0.176391 0.395662 0.776498
O O4 0.319331 0.414439 0.205381
O O5 0.443762 0.367815 0.665538
O O6 0.400786 0.287331 0.995900
O O7 0.257425 0.341274 0.137674
O O8 0.452542 0.964619 0.248002
O O9 0.468878 0.821946 0.199594
O O10 0.309084 0.879461 0.476169
O O11 0.000000 0.082612 0.750000
O O12 0.000000 0.000000 0.500000
O O13 0.592716 0.924629 0.483702
#
# Coordination Sequence:
#
# PCOD9295178 Si02
#       7
#     8   8   8   8   4   4   8
#     4  11  21  39  66  99 127 165 209 270 335 378
#     4  12  24  41  65  95 133 173 214 265 323 392
#     4  10  23  42  66  91 131 172 218 267 322 392
#     4  12  23  37  63  99 138 164 206 266 329 385
#     4   9  20  40  68 100 132 157 208 278 342 375
#     4  11  26  46  62  86 134 181 222 260 320 387
#     4  11  22  38  68 100 125 161 216 276 329 384
#
# _framework density 22.425464000000002
#
# number of rings (size 3 to 8) (size 9 to 14) (size 15 to 20)
#    0.000    1.000    3.333    4.500    0.000    4.000 
#    0.000    0.000    1.833    0.000    0.000    0.000 
#    0.000    0.000    0.000    0.000    0.000    0.000 
#
# Total GULP energy -133815.687103 kJ/mol
# GULP energy per Si atom -5575.653629 kJ/mol
# Density = 2.237442 g / cm^3
# Si number density = 22.425464 Si / 1000 Ang^3
#
#
#
# Elastic Constant Matrix: (Units=GPa)
#
#
# Indices 1 2 3 4 5 6 
#
# 1 160.6127 5.5519 52.5930 0.0000 -6.3675 0.0000
# 2 5.5519 34.8433 30.0640 0.0000 3.4097 0.0000
# 3 52.5930 30.0640 121.2088 0.0000 -15.5280 0.0000
# 4 0.0000 0.0000 0.0000 7.5967 0.0000 -10.6754
# 5 -6.3675 3.4097 -15.5280 0.0000 37.6103 0.0000
# 6 0.0000 0.0000 0.0000 -10.6754 0.0000 16.3673
#
#
#
# Elastic Compliance Matrix: (Units=1/GPa)
#
#
# Indices 1 2 3 4 5 6 
#
# 1 0.007376 0.002155 -0.003801 0.000000 -0.000516 0.000000
# 2 0.002155 0.039230 -0.011693 0.000000 -0.008019 0.000000
# 3 -0.003801 -0.011693 0.013571 0.000000 0.006020 0.000000
# 4 0.000000 0.000000 0.000000 1.577797 0.000000 1.029099
# 5 -0.000516 -0.008019 0.006020 0.000000 0.029713 0.000000
# 6 0.000000 0.000000 0.000000 1.029099 0.000000 0.732315
#
#
# Mechanical properties :
#
#
# Convention : Reuss Voigt Hill
#
# Bulk Modulus (GPa) = 29.85152 54.78696 42.31924
# Shear Modulus (GPa) = 2.05099 27.54523 14.79811
#
# Velocity S-wave (km/s) = 0.95737 3.50852 2.57160
# Velocity P-wave (km/s) = 3.81607 6.39505 5.26588
#
# Compressibility (1/GPa) = 0.03349913
#
# Stress axis : x y z
#
# Youngs Moduli (GPa) = 135.57749 25.49043 73.68713
#
# Poissons Ratio (x) = -0.05493 0.28008
# Poissons Ratio (y) = -0.29215 0.86161
# Poissons Ratio (z) = 0.51533 0.29806
#
# Static dielectric constant tensor:
#      x y z
#    x 1.904180 0.000000 0.012840 
#    y 0.000000 1.851220 0.000000 
#    z 0.012840 0.000000 1.875350 
# 
# From -- ./inp_files/67486.got.cif
#   From: 2010.05.17/outbox.cif.g08.bks.cpg/sg15_34_cif.got.tgz:67486.got - 2010.06.03 18:47:42.
