data_PCOD9295920
_publ_section_title
;
Structure prediction by ZEFSAII (Michael W. Deem and Ramdas Pophale) SiO2 
 PCOD9295920
Probable space group: C 2/C
;
_chemical_formula_sum "Si O2"
_cell_formula_units_Z 56
_cell_length_a 7.707190
_cell_length_b 31.005165
_cell_length_c 11.126195
_cell_angle_alpha 90.000000
_cell_angle_beta 104.498672
_cell_angle_gamma 90.000000
_cell_volume 2574.073680
_symmetry_space_group_name_H-M "C 2/C"
_symmetry_group_IT_number 15
_symmetry_cell_setting 'monoclinic'
loop_
_space_group_symop_operation_xyz
x,y,z
-x,y,1/2-z
-x,-y,-z
x,-y,1/2+z
1/2+x,1/2+y,z
1/2-x,1/2+y,1/2-z
1/2-x,1/2-y,-z
1/2+x,1/2-y,1/2+z
loop_
_atom_site_type_symbol
_atom_site_label
_atom_site_fract_x
_atom_site_fract_y
_atom_site_fract_z
Si Si1 0.325021 0.470730 0.465602
Si Si2 0.000000 0.174100 0.750000
Si Si3 0.000000 0.409521 0.750000
Si Si4 0.071021 0.128926 0.517801
Si Si5 0.637114 0.684490 0.181671
Si Si6 0.164310 0.725618 0.596307
Si Si7 0.216607 0.020987 0.273726
Si Si8 0.404875 0.839044 0.917576
O O1 0.500000 0.500000 0.500000
O O2 0.395882 0.421844 0.484568
O O3 0.246983 0.482909 0.318895
O O4 0.222839 0.481778 0.574348
O O5 0.939152 0.144007 0.847950
O O6 0.827336 0.203756 0.694132
O O7 0.823254 0.438950 0.733973
O O8 0.995686 0.380117 0.869234
O O9 0.241907 0.148443 0.477217
O O10 0.891608 0.152068 0.433255
O O11 0.500000 0.663257 0.250000
O O12 0.575489 0.733111 0.144710
O O13 0.820948 0.685495 0.286612
O O14 0.250000 0.750000 0.500000
O O15 0.032539 0.690419 0.519100
O O16 0.000000 0.027100 0.250000
#
# Coordination Sequence:
#
# PCOD9295920 Si02
#       8
#     8   4   4   8   8   8   8   8
#     4  10  23  43  73 102 140 188 239 300 365 447
#     4  12  28  41  72  98 150 194 236 296 369 438
#     4  12  24  45  72 108 140 188 242 302 367 430
#     4  11  25  47  67 109 142 192 239 295 369 440
#     4  10  24  41  73  98 139 188 241 295 358 433
#     4  12  24  46  64 104 143 185 245 299 360 432
#     4  10  24  44  73 105 145 187 242 302 368 447
#     4  11  26  43  74 104 141 187 246 305 352 438
#
# _framework density 21.755399000000001
#
# number of rings (size 3 to 8) (size 9 to 14) (size 15 to 20)
#    0.000    1.143    2.857    1.714    9.000    1.714 
#    0.000    0.000    0.000    0.000    0.000    0.000 
#    0.000    0.000    0.000    0.000    0.000    0.000 
#
# Total GULP energy -156042.253311 kJ/mol
# GULP energy per Si atom -5572.937618 kJ/mol
# Density = 2.170588 g / cm^3
# Si number density = 21.755399 Si / 1000 Ang^3
#
#
#
# Elastic Constant Matrix: (Units=GPa)
#
#
# Indices 1 2 3 4 5 6 
#
# 1 84.8524 32.7460 43.3590 0.0000 -5.5566 0.0000
# 2 32.7460 135.9740 72.6317 0.0000 14.3507 0.0000
# 3 43.3590 72.6317 148.2660 0.0000 -15.0886 0.0000
# 4 0.0000 0.0000 0.0000 19.7603 0.0000 -6.3837
# 5 -5.5566 14.3507 -15.0886 0.0000 50.0696 0.0000
# 6 0.0000 0.0000 0.0000 -6.3837 0.0000 37.2027
#
#
#
# Elastic Compliance Matrix: (Units=1/GPa)
#
#
# Indices 1 2 3 4 5 6 
#
# 1 0.014174 -0.001879 -0.003105 0.000000 0.001176 0.000000
# 2 -0.001879 0.011280 -0.005495 0.000000 -0.005098 0.000000
# 3 -0.003105 -0.005495 0.010801 0.000000 0.004485 0.000000
# 4 0.000000 0.000000 0.000000 0.053576 0.000000 0.009193
# 5 0.001176 -0.005098 0.004485 0.000000 0.022915 0.000000
# 6 0.000000 0.000000 0.000000 0.009193 0.000000 0.028457
#
#
# Mechanical properties :
#
#
# Convention : Reuss Voigt Hill
#
# Bulk Modulus (GPa) = 65.37234 74.06288 69.71761
# Shear Modulus (GPa) = 29.89340 36.09691 32.99516
#
# Velocity S-wave (km/s) = 3.71086 4.07777 3.89863
# Velocity P-wave (km/s) = 6.96238 7.50255 7.23751
#
# Compressibility (1/GPa) = 0.01529699
#
# Stress axis : x y z
#
# Youngs Moduli (GPa) = 70.55227 88.65153 92.58420
#
# Poissons Ratio (x) = 0.16658 0.28746
# Poissons Ratio (y) = 0.13257 0.50876
# Poissons Ratio (z) = 0.21905 0.48715
#
# Static dielectric constant tensor:
#      x y z
#    x 1.762720 0.000000 0.184020 
#    y 0.000000 1.880640 0.000000 
#    z 0.184020 0.000000 1.518020 
# 
# From -- ./inp_files/81456.got.cif
#   From: 2010.05.17/outbox.cif.g08.bks.cpg/sg15_41_cif.got.tgz:81456.got - 2010.06.03 18:47:42.
