data_PCOD9295362
_publ_section_title
;
Structure prediction by ZEFSAII (Michael W. Deem and Ramdas Pophale) SiO2 
 PCOD9295362
Probable space group: C 2/C
;
_chemical_formula_sum "Si O2"
_cell_formula_units_Z 44
_cell_length_a 27.848852
_cell_length_b 11.391034
_cell_length_c 9.248599
_cell_angle_alpha 90.000000
_cell_angle_beta 134.277401
_cell_angle_gamma 90.000000
_cell_volume 2100.584223
_symmetry_space_group_name_H-M "C 2/C"
_symmetry_group_IT_number 15
_symmetry_cell_setting 'monoclinic'
loop_
_space_group_symop_operation_xyz
x,y,z
-x,y,1/2-z
-x,-y,-z
x,-y,1/2+z
1/2+x,1/2+y,z
1/2-x,1/2+y,1/2-z
1/2-x,1/2-y,-z
1/2+x,1/2-y,1/2+z
loop_
_atom_site_type_symbol
_atom_site_label
_atom_site_fract_x
_atom_site_fract_y
_atom_site_fract_z
Si Si1 0.392727 0.125913 0.682659
Si Si2 0.239077 0.252519 0.648478
Si Si3 0.000000 0.238092 0.250000
Si Si4 0.930945 0.036376 0.933710
Si Si5 0.858184 0.612339 0.949498
Si Si6 0.636626 0.369219 0.479375
O O1 0.337909 0.215895 0.498814
O O2 0.463840 0.180934 0.792070
O O3 0.381250 0.001798 0.581087
O O4 0.379317 0.111800 0.825286
O O5 0.250000 0.250000 0.500000
O O6 0.285655 0.354728 0.813926
O O7 0.277143 0.136427 0.786365
O O8 0.051782 0.150770 0.436799
O O9 0.877017 0.065600 0.697782
O O10 0.903779 0.935125 0.980319
O O11 0.000000 0.000000 0.000000
O O12 0.887067 0.733373 0.077027
#
# Coordination Sequence:
#
# PCOD9295362 Si02
#       6
#     8   8   4   8   8   8
#     4  11  23  45  66  97 140 174 228 277 344 407
#     4   8  20  42  69  95 133 173 222 281 335 397
#     4  12  28  40  68  98 140 186 224 284 342 416
#     4  12  23  43  67 101 135 177 227 281 346 405
#     4   9  23  43  67 100 130 176 219 281 338 398
#     4  10  23  42  69  99 131 175 226 280 338 395
#
# _framework density 20.946553999999999
#
# number of rings (size 3 to 8) (size 9 to 14) (size 15 to 20)
#    1.091    0.727    1.818    1.091    2.545    5.091 
#    3.273    1.818    0.000    0.000    0.000    0.000 
#    0.000    0.000    0.000    0.000    0.000    0.000 
#
# Total GULP energy -122709.917931 kJ/mol
# GULP energy per Si atom -5577.723542 kJ/mol
# Density = 2.089888 g / cm^3
# Si number density = 20.946554 Si / 1000 Ang^3
#
#
#
# Elastic Constant Matrix: (Units=GPa)
#
#
# Indices 1 2 3 4 5 6 
#
# 1 48.2501 16.8683 -15.3402 0.0000 1.5887 0.0000
# 2 16.8683 81.6812 -7.9743 0.0000 -4.0580 0.0000
# 3 -15.3402 -7.9743 48.1988 0.0000 -6.4356 0.0000
# 4 0.0000 0.0000 0.0000 18.7358 0.0000 15.1997
# 5 1.5887 -4.0580 -6.4356 0.0000 21.2692 0.0000
# 6 0.0000 0.0000 0.0000 15.1997 0.0000 13.6055
#
#
#
# Elastic Compliance Matrix: (Units=1/GPa)
#
#
# Indices 1 2 3 4 5 6 
#
# 1 0.024509 -0.004406 0.006997 0.000000 -0.000554 0.000000
# 2 -0.004406 0.013438 0.001258 0.000000 0.003274 0.000000
# 3 0.006997 0.001258 0.024119 0.000000 0.007015 0.000000
# 4 0.000000 0.000000 0.000000 0.569761 0.000000 -0.636521
# 5 -0.000554 0.003274 0.007015 0.000000 0.049805 0.000000
# 6 0.000000 0.000000 0.000000 -0.636521 0.000000 0.784603
#
#
# Mechanical properties :
#
#
# Convention : Reuss Voigt Hill
#
# Bulk Modulus (GPa) = 14.33367 18.35971 16.34669
# Shear Modulus (GPa) = 3.37430 23.02721 13.20075
#
# Velocity S-wave (km/s) = 1.27059 3.31921 2.51312
# Velocity P-wave (km/s) = 3.00173 4.84496 4.03014
#
# Compressibility (1/GPa) = 0.06976580
#
# Stress axis : x y z
#
# Youngs Moduli (GPa) = 40.80211 74.41570 41.46045
#
# Poissons Ratio (x) = 0.32785 -0.29012
# Poissons Ratio (y) = 0.17976 -0.05216
# Poissons Ratio (z) = -0.28551 -0.09363
#
# Static dielectric constant tensor:
#      x y z
#    x 1.752730 0.000000 0.032950 
#    y 0.000000 1.743240 0.000000 
#    z 0.032950 0.000000 1.756570 
# 
# From -- ./inp_files/65644.got.cif
#   From: 2010.05.17/outbox.cif.g08.bks.cpg/sg15_33_cif.got.tgz:65644.got - 2010.06.03 18:47:42.
