data_PCOD9295164
_publ_section_title
;
Structure prediction by ZEFSAII (Michael W. Deem and Ramdas Pophale) SiO2 
 PCOD9295164
Probable space group: C 2/C
;
_chemical_formula_sum "Si O2"
_cell_formula_units_Z 60
_cell_length_a 9.513973
_cell_length_b 22.972185
_cell_length_c 21.133244
_cell_angle_alpha 90.000000
_cell_angle_beta 141.426803
_cell_angle_gamma 90.000000
_cell_volume 2879.894308
_symmetry_space_group_name_H-M "C 2/C"
_symmetry_group_IT_number 15
_symmetry_cell_setting 'monoclinic'
loop_
_space_group_symop_operation_xyz
x,y,z
-x,y,1/2-z
-x,-y,-z
x,-y,1/2+z
1/2+x,1/2+y,z
1/2-x,1/2+y,1/2-z
1/2-x,1/2-y,-z
1/2+x,1/2-y,1/2+z
loop_
_atom_site_type_symbol
_atom_site_label
_atom_site_fract_x
_atom_site_fract_y
_atom_site_fract_z
Si Si1 0.363658 0.398368 0.639016
Si Si2 0.491669 0.136659 0.096408
Si Si3 0.500000 0.264494 0.250000
Si Si4 0.151852 0.787549 0.703777
Si Si5 0.652066 0.040263 0.362960
Si Si6 0.426480 0.700165 0.581441
Si Si7 0.349851 0.822888 0.142694
Si Si8 0.147449 0.071239 0.498012
O O1 0.500000 0.416577 0.750000
O O2 0.489670 0.342244 0.653963
O O3 0.345033 0.440946 0.574148
O O4 0.122747 0.378707 0.579151
O O5 0.635420 0.190555 0.177680
O O6 0.496327 0.083984 0.147214
O O7 0.231207 0.145215 0.988527
O O8 0.725951 0.225960 0.319665
O O9 0.513440 0.297472 0.322324
O O10 0.002637 0.731318 0.671417
O O11 0.500000 0.025198 0.250000
O O12 0.884913 0.072010 0.425136
O O13 0.728811 0.981856 0.424467
O O14 0.250000 0.750000 0.500000
O O15 0.633892 0.699596 0.605949
O O16 0.500000 0.853388 0.250000
O O17 0.268912 0.868654 0.061773
#
# Coordination Sequence:
#
# PCOD9295164 Si02
#       8
#     8   8   4   8   8   8   8   8
#     4  10  23  42  65  99 138 177 231 281 348 411
#     4  11  23  42  69  95 138 184 231 282 340 413
#     4  12  26  36  64  94 142 184 226 272 350 408
#     4  11  24  41  65 102 138 182 226 280 336 418
#     4  11  24  47  73 103 132 174 247 287 337 418
#     4  12  24  40  61  96 136 183 225 277 342 411
#     4  12  23  44  63  98 148 179 222 284 346 417
#     4  11  26  43  72 103 131 186 230 292 356 394
#
# _framework density 20.834097
#
# number of rings (size 3 to 8) (size 9 to 14) (size 15 to 20)
#    0.000    0.800    4.000    4.000    6.533    1.067 
#    0.000    0.000    1.467    0.000    0.000    0.000 
#    0.000    0.000    0.000    0.000    0.000    0.000 
#
# Total GULP energy -167392.325213 kJ/mol
# GULP energy per Si atom -5579.744174 kJ/mol
# Density = 2.078668 g / cm^3
# Si number density = 20.834097 Si / 1000 Ang^3
#
#
#
# Elastic Constant Matrix: (Units=GPa)
#
#
# Indices 1 2 3 4 5 6 
#
# 1 150.5896 36.4597 42.5527 0.0000 10.1822 0.0000
# 2 36.4597 52.2852 45.0947 0.0001 -3.4401 0.0001
# 3 42.5527 45.0947 113.2486 0.0003 -4.7510 0.0004
# 4 0.0000 0.0001 0.0003 19.3652 0.0001 -4.7512
# 5 10.1822 -3.4401 -4.7510 0.0001 44.5594 0.0001
# 6 0.0000 0.0001 0.0004 -4.7512 0.0001 21.8279
#
#
#
# Elastic Compliance Matrix: (Units=1/GPa)
#
#
# Indices 1 2 3 4 5 6 
#
# 1 0.008349 -0.004855 -0.001305 0.000000 -0.002422 0.000000
# 2 -0.004855 0.032000 -0.010816 0.000000 0.002427 0.000000
# 3 -0.001305 -0.010816 0.013666 0.000000 0.000920 0.000000
# 4 0.000000 0.000000 0.000000 0.054552 0.000000 0.011874
# 5 -0.002422 0.002427 0.000920 0.000000 0.023281 0.000000
# 6 0.000000 0.000000 0.000000 0.011874 0.000000 0.048398
#
#
# Mechanical properties :
#
#
# Convention : Reuss Voigt Hill
#
# Bulk Modulus (GPa) = 49.84673 62.70417 56.27545
# Shear Modulus (GPa) = 22.63621 29.95158 26.29389
#
# Velocity S-wave (km/s) = 3.29978 3.79571 3.55640
# Velocity P-wave (km/s) = 6.20448 7.02653 6.62826
#
# Compressibility (1/GPa) = 0.02006150
#
# Stress axis : x y z
#
# Youngs Moduli (GPa) = 119.77938 31.25034 73.17460
#
# Poissons Ratio (x) = 0.15173 0.09551
# Poissons Ratio (y) = 0.58157 0.79144
# Poissons Ratio (z) = 0.15634 0.33800
#
# Static dielectric constant tensor:
#      x y z
#    x 1.749250 0.000000 0.008560 
#    y 0.000000 1.815700 0.000000 
#    z 0.008560 0.000000 1.817520 
# 
# From -- ./inp_files/234601.got.cif
#   From: 2010.05.17/outbox.cif.g08.bks.cpg/sg15_118_cif.got.tgz:234601.got - 2010.06.03 18:47:42.
