data_PCOD9295788
_publ_section_title
;
Structure prediction by ZEFSAII (Michael W. Deem and Ramdas Pophale) SiO2 
 PCOD9295788
Probable space group: C 2/C
;
_chemical_formula_sum "Si O2"
_cell_formula_units_Z 56
_cell_length_a 14.968061
_cell_length_b 12.666118
_cell_length_c 13.407415
_cell_angle_alpha 90.000000
_cell_angle_beta 100.713749
_cell_angle_gamma 90.000000
_cell_volume 2497.565216
_symmetry_space_group_name_H-M "C 2/C"
_symmetry_group_IT_number 15
_symmetry_cell_setting 'monoclinic'
loop_
_space_group_symop_operation_xyz
x,y,z
-x,y,1/2-z
-x,-y,-z
x,-y,1/2+z
1/2+x,1/2+y,z
1/2-x,1/2+y,1/2-z
1/2-x,1/2-y,-z
1/2+x,1/2-y,1/2+z
loop_
_atom_site_type_symbol
_atom_site_label
_atom_site_fract_x
_atom_site_fract_y
_atom_site_fract_z
Si Si1 0.388037 0.568188 0.106695
Si Si2 0.433450 0.697700 0.939130
Si Si3 0.500000 0.395604 0.250000
Si Si4 0.606543 0.960269 0.787931
Si Si5 0.500000 0.262808 0.750000
Si Si6 0.831773 0.653321 0.794374
Si Si7 0.216734 0.673313 0.159140
Si Si8 0.567247 0.103686 0.496988
O O1 0.427884 0.466408 0.171891
O O2 0.440718 0.665218 0.167686
O O3 0.285246 0.593381 0.118528
O O4 0.418822 0.589003 0.998963
O O5 0.450543 0.669262 0.826748
O O6 0.337180 0.756256 0.930825
O O7 0.509329 0.786021 0.983786
O O8 0.500000 0.985651 0.750000
O O9 0.639877 0.885678 0.706490
O O10 0.610110 0.910290 0.896749
O O11 0.673261 0.060015 0.787604
O O12 0.433300 0.194791 0.799862
O O13 0.767305 0.748680 0.748546
O O14 0.846950 0.609818 0.908761
O O15 0.500000 0.000000 0.500000
#
# Coordination Sequence:
#
# PCOD9295788 Si02
#       8
#     8   8   4   8   4   8   8   8
#     4  10  23  43  69  97 136 186 236 275 346 422
#     4  12  23  45  72 103 140 189 231 291 351 422
#     4  11  26  46  71 102 146 185 228 284 357 428
#     4  12  23  44  68 100 142 180 231 291 355 413
#     4   9  16  38  67  94 122 171 234 282 321 410
#     4  11  22  42  69  98 136 180 231 288 346 412
#     4  11  26  43  66 105 142 176 231 298 347 404
#     4  12  23  42  78 103 132 188 246 279 351 427
#
# _framework density 22.421837
#
# number of rings (size 3 to 8) (size 9 to 14) (size 15 to 20)
#    0.000    0.857    5.000    1.714    4.000    0.571 
#    2.571    0.000    0.000    0.000    0.000    0.000 
#    0.000    0.000    0.000    0.000    0.000    0.000 
#
# Total GULP energy -156122.263460 kJ/mol
# GULP energy per Si atom -5575.795124 kJ/mol
# Density = 2.237080 g / cm^3
# Si number density = 22.421837 Si / 1000 Ang^3
#
#
#
# Elastic Constant Matrix: (Units=GPa)
#
#
# Indices 1 2 3 4 5 6 
#
# 1 66.5477 25.5373 12.9844 0.0000 -5.0521 0.0000
# 2 25.5373 79.6115 -0.4259 0.0000 -5.2823 0.0000
# 3 12.9844 -0.4259 63.3094 0.0000 -10.4689 0.0000
# 4 0.0000 0.0000 0.0000 26.8760 0.0000 9.5432
# 5 -5.0521 -5.2823 -10.4689 0.0000 26.2402 0.0000
# 6 0.0000 0.0000 0.0000 9.5432 0.0000 27.5641
#
#
#
# Elastic Compliance Matrix: (Units=1/GPa)
#
#
# Indices 1 2 3 4 5 6 
#
# 1 0.017992 -0.005732 -0.003583 0.000000 0.000881 0.000000
# 2 -0.005732 0.014575 0.001688 0.000000 0.002504 0.000000
# 3 -0.003583 0.001688 0.017648 0.000000 0.006691 0.000000
# 4 0.000000 0.000000 0.000000 0.042423 0.000000 -0.014688
# 5 0.000881 0.002504 0.006691 0.000000 0.041452 0.000000
# 6 0.000000 0.000000 0.000000 -0.014688 0.000000 0.041364
#
#
# Mechanical properties :
#
#
# Convention : Reuss Voigt Hill
#
# Bulk Modulus (GPa) = 28.60394 31.74003 30.17199
# Shear Modulus (GPa) = 24.70794 27.56092 26.13443
#
# Velocity S-wave (km/s) = 3.32318 3.50980 3.41776
# Velocity P-wave (km/s) = 5.24496 5.53277 5.39078
#
# Compressibility (1/GPa) = 0.03496021
#
# Stress axis : x y z
#
# Youngs Moduli (GPa) = 55.57872 68.61106 56.66341
#
# Poissons Ratio (x) = 0.39330 0.20303
# Poissons Ratio (y) = 0.31859 -0.09563
# Poissons Ratio (z) = 0.19914 -0.11580
#
# Static dielectric constant tensor:
#      x y z
#    x 1.494990 0.000000 0.576110 
#    y 0.000000 1.872880 0.000000 
#    z 0.576110 0.000000 0.805620 
# 
# From -- ./inp_files/153485.got.cif
#   From: 2010.05.17/outbox.cif.g08.bks.cpg/sg15_77_cif.got.tgz:153485.got - 2010.06.03 18:47:42.
