data_PCOD9295138
_publ_section_title
;
Structure prediction by ZEFSAII (Michael W. Deem and Ramdas Pophale) SiO2 
 PCOD9295138
Probable space group: C 2/C
;
_chemical_formula_sum "Si O2"
_cell_formula_units_Z 40
_cell_length_a 22.697136
_cell_length_b 7.709648
_cell_length_c 9.870054
_cell_angle_alpha 90.000000
_cell_angle_beta 88.221335
_cell_angle_gamma 90.000000
_cell_volume 1726.298287
_symmetry_space_group_name_H-M "C 2/C"
_symmetry_group_IT_number 15
_symmetry_cell_setting 'monoclinic'
loop_
_space_group_symop_operation_xyz
x,y,z
-x,y,1/2-z
-x,-y,-z
x,-y,1/2+z
1/2+x,1/2+y,z
1/2-x,1/2+y,1/2-z
1/2-x,1/2-y,-z
1/2+x,1/2-y,1/2+z
loop_
_atom_site_type_symbol
_atom_site_label
_atom_site_fract_x
_atom_site_fract_y
_atom_site_fract_z
Si Si1 0.433843 0.781130 0.228050
Si Si2 0.187792 0.715839 0.682653
Si Si3 0.299503 0.061863 0.098317
Si Si4 0.027359 0.820734 0.049331
Si Si5 0.579452 0.177855 0.302914
O O1 0.500000 0.718426 0.250000
O O2 0.377953 0.705133 0.309704
O O3 0.430480 0.986360 0.257597
O O4 0.429270 0.752659 0.067566
O O5 0.237999 0.852889 0.645783
O O6 0.193855 0.570549 0.564066
O O7 0.195753 0.621130 0.826196
O O8 0.354271 0.178566 0.148729
O O9 0.061810 0.815707 0.189321
O O10 0.969379 0.701800 0.076916
O O11 0.000000 0.000000 0.000000
#
# Coordination Sequence:
#
# PCOD9295138 Si02
#       5
#     8   8   8   8   8
#     4  11  22  39  71  91 129 176 225 270 329 405
#     4  10  24  42  68  97 132 175 224 274 333 389
#     4  10  23  45  65  98 130 175 225 274 328 403
#     4  11  24  40  61 102 136 168 222 281 348 385
#     4  10  23  42  65  94 130 176 226 273 326 423
#
# _framework density 23.170967999999998
#
# number of rings (size 3 to 8) (size 9 to 14) (size 15 to 20)
#    0.000    1.600    2.000    1.800   14.000    2.400 
#    7.200    0.000    0.000    0.000    0.000    0.000 
#    0.000    0.000    0.000    0.000    0.000    0.000 
#
# Total GULP energy -111762.247157 kJ/mol
# GULP energy per Si atom -5588.112358 kJ/mol
# Density = 2.311823 g / cm^3
# Si number density = 23.170968 Si / 1000 Ang^3
#
#
#
# Elastic Constant Matrix: (Units=GPa)
#
#
# Indices 1 2 3 4 5 6 
#
# 1 154.7057 9.1097 24.0592 0.0000 -43.1303 0.0000
# 2 9.1097 49.3817 4.0162 0.0000 -4.0064 0.0000
# 3 24.0592 4.0162 76.4618 0.0000 -23.8840 0.0000
# 4 0.0000 0.0000 0.0000 24.9628 0.0000 -1.7726
# 5 -43.1303 -4.0064 -23.8840 0.0000 42.9991 0.0000
# 6 0.0000 0.0000 0.0000 -1.7726 0.0000 21.3309
#
#
#
# Elastic Compliance Matrix: (Units=1/GPa)
#
#
# Indices 1 2 3 4 5 6 
#
# 1 0.009016 -0.000937 0.000012 0.000000 0.008963 0.000000
# 2 -0.000937 0.020523 -0.000580 0.000000 0.000650 0.000000
# 3 0.000012 -0.000580 0.015840 0.000000 0.008757 0.000000
# 4 0.000000 0.000000 0.000000 0.040297 0.000000 0.003349
# 5 0.008963 0.000650 0.008757 0.000000 0.037171 0.000000
# 6 0.000000 0.000000 0.000000 0.003349 0.000000 0.047159
#
#
# Mechanical properties :
#
#
# Convention : Reuss Voigt Hill
#
# Bulk Modulus (GPa) = 23.60202 39.43548 31.51875
# Shear Modulus (GPa) = 26.71800 34.08283 30.40042
#
# Velocity S-wave (km/s) = 3.39939 3.83943 3.62609
# Velocity P-wave (km/s) = 5.06122 6.05898 5.58244
#
# Compressibility (1/GPa) = 0.04236925
#
# Stress axis : x y z
#
# Youngs Moduli (GPa) = 110.91484 48.72531 63.12986
#
# Poissons Ratio (x) = 0.04566 -0.00075
# Poissons Ratio (y) = 0.10393 0.03662
# Poissons Ratio (z) = -0.00133 0.02826
#
# Static dielectric constant tensor:
#      x y z
#    x 1.888960 0.000000 0.039910 
#    y 0.000000 1.847910 0.000000 
#    z 0.039910 0.000000 1.940000 
# 
# From -- ./inp_files/59926.got.cif
#   From: 2010.05.17/outbox.cif.g08.bks.cpg/sg15_30_cif.got.tgz:59926.got - 2010.06.03 18:47:42.
