data_PCOD9295548
_publ_section_title
;
Structure prediction by ZEFSAII (Michael W. Deem and Ramdas Pophale) SiO2 
 PCOD9295548
Probable space group: C 2/C
;
_chemical_formula_sum "Si O2"
_cell_formula_units_Z 52
_cell_length_a 24.336532
_cell_length_b 9.072914
_cell_length_c 20.332744
_cell_angle_alpha 90.000000
_cell_angle_beta 25.386744
_cell_angle_gamma 90.000000
_cell_volume 1924.781460
_symmetry_space_group_name_H-M "C 2/C"
_symmetry_group_IT_number 15
_symmetry_cell_setting 'monoclinic'
loop_
_space_group_symop_operation_xyz
x,y,z
-x,y,1/2-z
-x,-y,-z
x,-y,1/2+z
1/2+x,1/2+y,z
1/2-x,1/2+y,1/2-z
1/2-x,1/2-y,-z
1/2+x,1/2-y,1/2+z
loop_
_atom_site_type_symbol
_atom_site_label
_atom_site_fract_x
_atom_site_fract_y
_atom_site_fract_z
Si Si1 0.262836 0.456690 0.946943
Si Si2 0.894899 0.490918 0.557851
Si Si3 0.000000 0.062844 0.750000
Si Si4 0.605560 0.734531 0.027565
Si Si5 0.400766 0.387328 0.489523
Si Si6 0.819896 0.164189 0.760545
Si Si7 0.943630 0.518018 0.738631
O O1 0.404980 0.450314 0.818273
O O2 0.275208 0.579788 0.876443
O O3 0.194779 0.315225 0.986949
O O4 0.199214 0.509499 0.085007
O O5 0.862308 0.323541 0.574054
O O6 0.759033 0.571291 0.708903
O O7 0.000000 0.500000 0.500000
O O8 0.111558 0.935906 0.505979
O O9 0.945838 0.160889 0.867348
O O10 0.468417 0.812058 0.191537
O O11 0.260882 0.316761 0.654087
O O12 0.524190 0.350277 0.404322
O O13 0.476368 0.054482 0.406345
O O14 0.000000 0.492540 0.750000
#
# Coordination Sequence:
#
# PCOD9295548 Si02
#       7
#     8   8   4   8   8   8   8
#     4   9  18  40  64  97 135 183 226 296 351 425
#     4   9  19  40  71 101 132 182 234 285 350 426
#     4  10  24  34  62 100 146 170 236 288 360 416
#     4   8  19  38  65  94 135 177 228 287 353 416
#     4  11  24  42  60  96 138 191 225 298 352 421
#     4  10  23  43  64  93 140 179 238 285 356 422
#     4   8  15  33  68  97 134 171 229 275 352 410
#
# _framework density 27.016054
#
# number of rings (size 3 to 8) (size 9 to 14) (size 15 to 20)
#    0.923    1.846    1.538    0.000    3.231    5.538 
#    5.538    2.308    0.000    0.923    0.000    8.615 
#    0.000    0.000    0.000    0.000    0.000    0.000 
#
# Total GULP energy -144838.511184 kJ/mol
# GULP energy per Si atom -5570.711969 kJ/mol
# Density = 2.695456 g / cm^3
# Si number density = 27.016054 Si / 1000 Ang^3
#
#
#
# Elastic Constant Matrix: (Units=GPa)
#
#
# Indices 1 2 3 4 5 6 
#
# 1 135.9084 27.5116 41.1333 0.0000 -24.9712 0.0000
# 2 27.5116 145.1833 20.4094 0.0001 -23.5835 -0.0001
# 3 41.1333 20.4094 93.6170 0.0003 -22.2735 -0.0001
# 4 0.0000 0.0001 0.0003 29.5223 -0.0001 4.3368
# 5 -24.9712 -23.5835 -22.2735 -0.0001 62.8140 0.0000
# 6 0.0000 -0.0001 -0.0001 4.3368 0.0000 14.0036
#
#
#
# Elastic Compliance Matrix: (Units=1/GPa)
#
#
# Indices 1 2 3 4 5 6 
#
# 1 0.008893 -0.000898 -0.003222 0.000000 0.002055 0.000000
# 2 -0.000898 0.007518 -0.000718 0.000000 0.002211 0.000000
# 3 -0.003222 -0.000718 0.012980 0.000000 0.003052 0.000000
# 4 0.000000 0.000000 0.000000 0.035487 0.000000 -0.010990
# 5 0.002055 0.002211 0.003052 0.000000 0.018649 0.000000
# 6 0.000000 0.000000 0.000000 -0.010990 0.000000 0.074814
#
#
# Mechanical properties :
#
#
# Convention : Reuss Voigt Hill
#
# Bulk Modulus (GPa) = 50.72736 61.42414 56.07575
# Shear Modulus (GPa) = 28.63841 40.31161 34.47501
#
# Velocity S-wave (km/s) = 3.25938 3.86701 3.57612
# Velocity P-wave (km/s) = 5.74301 6.53635 6.15248
#
# Compressibility (1/GPa) = 0.01971323
#
# Stress axis : x y z
#
# Youngs Moduli (GPa) = 112.45258 133.01099 77.03909
#
# Poissons Ratio (x) = 0.11948 0.24825
# Poissons Ratio (y) = 0.10101 0.05534
# Poissons Ratio (z) = 0.36237 0.09555
#
# Static dielectric constant tensor:
#      x y z
#    x 2.206480 0.000000 -0.028790 
#    y 0.000000 2.211340 0.000000 
#    z -0.028790 0.000000 2.851370 
# 
# From -- ./inp_files/127035.got.cif
#   From: 2010.05.17/outbox.cif.g08.bks.cpg/sg15_64_cif.got.tgz:127035.got - 2010.06.03 18:47:42.
