data_PCOD9295663
_publ_section_title
;
Structure prediction by ZEFSAII (Michael W. Deem and Ramdas Pophale) SiO2 
 PCOD9295663
Probable space group: C 2/C
;
_chemical_formula_sum "Si O2"
_cell_formula_units_Z 56
_cell_length_a 28.190600
_cell_length_b 11.592218
_cell_length_c 9.189627
_cell_angle_alpha 90.000000
_cell_angle_beta 111.031682
_cell_angle_gamma 90.000000
_cell_volume 2803.033070
_symmetry_space_group_name_H-M "C 2/C"
_symmetry_group_IT_number 15
_symmetry_cell_setting 'monoclinic'
loop_
_space_group_symop_operation_xyz
x,y,z
-x,y,1/2-z
-x,-y,-z
x,-y,1/2+z
1/2+x,1/2+y,z
1/2-x,1/2+y,1/2-z
1/2-x,1/2-y,-z
1/2+x,1/2-y,1/2+z
loop_
_atom_site_type_symbol
_atom_site_label
_atom_site_fract_x
_atom_site_fract_y
_atom_site_fract_z
Si Si1 0.946825 0.731517 0.104586
Si Si2 0.504116 0.123574 0.925517
Si Si3 0.718591 0.812310 0.094162
Si Si4 0.321369 0.380969 0.317074
Si Si5 0.146497 0.887731 0.487061
Si Si6 0.632247 0.044134 0.354559
Si Si7 0.618396 0.154085 0.039961
O O1 0.911457 0.843864 0.072075
O O2 0.912884 0.626734 0.133463
O O3 0.000000 0.739927 0.250000
O O4 0.961932 0.700891 0.956321
O O5 0.500000 0.106218 0.750000
O O6 0.559562 0.179016 0.008521
O O7 0.500000 0.000000 0.000000
O O8 0.760409 0.862613 0.249261
O O9 0.750000 0.750000 0.000000
O O10 0.679976 0.712519 0.102472
O O11 0.683930 0.909950 0.983492
O O12 0.338033 0.390905 0.166127
O O13 0.340376 0.492075 0.424263
O O14 0.347750 0.266573 0.408877
O O15 0.634564 0.065272 0.185585
O O16 0.622590 0.914739 0.394437
#
# Coordination Sequence:
#
# PCOD9295663 Si02
#       7
#     8   8   8   8   8   8   8
#     4  11  20  42  66  87 128 175 210 263 328 374
#     4  12  23  36  60  90 127 164 207 266 322 382
#     4   9  19  41  66  87 127 175 207 258 327 378
#     4  11  23  43  66  90 134 169 216 269 320 379
#     4  10  23  43  67  92 127 175 215 266 320 388
#     4  11  22  36  66  92 128 165 211 260 324 380
#     4  12  23  40  60  99 127 165 211 263 324 381
#
# _framework density 19.978359999999999
#
# number of rings (size 3 to 8) (size 9 to 14) (size 15 to 20)
#    0.000    1.143    7.143    1.286    2.000    1.143 
#    2.571    4.286    0.000    0.000    0.000    0.000 
#    0.000    0.000    0.000    0.000    0.000    0.000 
#
# Total GULP energy -156443.960871 kJ/mol
# GULP energy per Si atom -5587.284317 kJ/mol
# Density = 1.993289 g / cm^3
# Si number density = 19.978360 Si / 1000 Ang^3
#
#
#
# Elastic Constant Matrix: (Units=GPa)
#
#
# Indices 1 2 3 4 5 6 
#
# 1 85.2905 21.0214 29.1183 0.0000 29.9808 0.0000
# 2 21.0214 72.7846 45.8110 0.0000 7.3572 0.0000
# 3 29.1183 45.8110 86.7557 0.0000 12.4044 0.0000
# 4 0.0000 0.0000 0.0000 33.1004 0.0000 3.6058
# 5 29.9808 7.3572 12.4044 0.0000 37.3765 0.0000
# 6 0.0000 0.0000 0.0000 3.6058 0.0000 23.0872
#
#
#
# Elastic Compliance Matrix: (Units=1/GPa)
#
#
# Indices 1 2 3 4 5 6 
#
# 1 0.017772 -0.001851 -0.003151 0.000000 -0.012845 0.000000
# 2 -0.001851 0.020779 -0.010476 0.000000 0.000871 0.000000
# 3 -0.003151 -0.010476 0.018329 0.000000 -0.001494 0.000000
# 4 0.000000 0.000000 0.000000 0.030734 0.000000 -0.004800
# 5 -0.012845 0.000871 -0.001494 0.000000 0.037383 0.000000
# 6 0.000000 0.000000 0.000000 -0.004800 0.000000 0.044064
#
#
# Mechanical properties :
#
#
# Convention : Reuss Voigt Hill
#
# Bulk Modulus (GPa) = 38.57259 48.52579 43.54919
# Shear Modulus (GPa) = 23.96272 28.63817 26.30045
#
# Velocity S-wave (km/s) = 3.46704 3.79021 3.63222
# Velocity P-wave (km/s) = 5.94780 6.59516 6.27983
#
# Compressibility (1/GPa) = 0.02592515
#
# Stress axis : x y z
#
# Youngs Moduli (GPa) = 56.26876 48.12511 54.55759
#
# Poissons Ratio (x) = 0.08910 0.17189
# Poissons Ratio (y) = 0.10417 0.57152
# Poissons Ratio (z) = 0.17728 0.50414
#
# Static dielectric constant tensor:
#      x y z
#    x 1.738640 0.000000 0.014640 
#    y 0.000000 1.681090 0.000000 
#    z 0.014640 0.000000 1.733500 
# 
# From -- ./inp_files/65542.got.cif
#   From: 2010.05.17/outbox.cif.g08.bks.cpg/sg15_33_cif.got.tgz:65542.got - 2010.06.03 18:47:42.
