data_PCOD9295292
_publ_section_title
;
Structure prediction by ZEFSAII (Michael W. Deem and Ramdas Pophale) SiO2 
 PCOD9295292
Probable space group: C 2/C
;
_chemical_formula_sum "Si O2"
_cell_formula_units_Z 40
_cell_length_a 7.939499
_cell_length_b 22.656785
_cell_length_c 13.895117
_cell_angle_alpha 90.000000
_cell_angle_beta 133.925860
_cell_angle_gamma 90.000000
_cell_volume 1800.236933
_symmetry_space_group_name_H-M "C 2/C"
_symmetry_group_IT_number 15
_symmetry_cell_setting 'monoclinic'
loop_
_space_group_symop_operation_xyz
x,y,z
-x,y,1/2-z
-x,-y,-z
x,-y,1/2+z
1/2+x,1/2+y,z
1/2-x,1/2+y,1/2-z
1/2-x,1/2-y,-z
1/2+x,1/2-y,1/2+z
loop_
_atom_site_type_symbol
_atom_site_label
_atom_site_fract_x
_atom_site_fract_y
_atom_site_fract_z
Si Si1 0.242354 0.780499 0.893319
Si Si2 0.920170 0.953657 0.856323
Si Si3 0.957071 0.208353 0.621521
Si Si4 0.642963 0.571261 0.948623
Si Si5 0.871853 0.409816 0.939401
O O1 0.324427 0.731119 0.851883
O O2 0.400043 0.839297 0.960290
O O3 0.000000 0.802090 0.750000
O O4 0.250000 0.750000 0.000000
O O5 0.189246 0.930685 0.949240
O O6 0.762832 0.923676 0.713474
O O7 0.944252 0.023458 0.845914
O O8 0.821697 0.940418 0.923064
O O9 0.750000 0.250000 0.500000
O O10 0.922678 0.139201 0.590476
O O11 0.000000 0.219755 0.750000
O O12 0.873645 0.561919 0.974899
#
# Coordination Sequence:
#
# PCOD9295292 Si02
#       5
#     8   8   8   8   8
#     4  12  25  45  71 105 144 188 240 295 362 429
#     4  10  23  42  68 103 134 182 229 292 349 429
#     4  12  27  44  71 104 143 186 239 296 355 428
#     4  11  24  44  67 102 141 176 241 284 355 420
#     4  11  22  42  74  93 139 182 232 285 360 421
#
# _framework density 22.219297999999998
#
# number of rings (size 3 to 8) (size 9 to 14) (size 15 to 20)
#    0.000    0.800    4.000    3.600    5.600    0.000 
#    0.000    2.000    0.000    0.000    0.000    0.000 
#    0.000    0.000    0.000    0.000    0.000    0.000 
#
# Total GULP energy -111803.563923 kJ/mol
# GULP energy per Si atom -5590.178196 kJ/mol
# Density = 2.216873 g / cm^3
# Si number density = 22.219298 Si / 1000 Ang^3
#
#
#
# Elastic Constant Matrix: (Units=GPa)
#
#
# Indices 1 2 3 4 5 6 
#
# 1 94.6657 28.0869 23.6090 0.0000 -19.4649 0.0000
# 2 28.0869 154.8008 40.2726 0.0000 -10.7806 0.0000
# 3 23.6090 40.2726 90.5432 0.0000 -31.0136 0.0000
# 4 0.0000 0.0000 0.0000 28.3089 0.0000 -2.3660
# 5 -19.4649 -10.7806 -31.0136 0.0000 35.1761 0.0000
# 6 0.0000 0.0000 0.0000 -2.3660 0.0000 38.5308
#
#
#
# Elastic Compliance Matrix: (Units=1/GPa)
#
#
# Indices 1 2 3 4 5 6 
#
# 1 0.012407 -0.001725 -0.000426 0.000000 0.005961 0.000000
# 2 -0.001725 0.007565 -0.003507 0.000000 -0.001728 0.000000
# 3 -0.000426 -0.003507 0.017574 0.000000 0.014184 0.000000
# 4 0.000000 0.000000 0.000000 0.035507 0.000000 0.002180
# 5 0.005961 -0.001728 0.014184 0.000000 0.043703 0.000000
# 6 0.000000 0.000000 0.000000 0.002180 0.000000 0.026087
#
#
# Mechanical properties :
#
#
# Convention : Reuss Voigt Hill
#
# Bulk Modulus (GPa) = 38.12434 58.21631 48.17032
# Shear Modulus (GPa) = 30.69332 36.93923 33.81627
#
# Velocity S-wave (km/s) = 3.72073 4.08178 3.90543
# Velocity P-wave (km/s) = 5.97109 6.96220 6.48560
#
# Compressibility (1/GPa) = 0.02622996
#
# Stress axis : x y z
#
# Youngs Moduli (GPa) = 80.59746 132.18896 56.90356
#
# Poissons Ratio (x) = 0.22805 0.02423
# Poissons Ratio (y) = 0.13905 0.19955
# Poissons Ratio (z) = 0.03432 0.46357
#
# Static dielectric constant tensor:
#      x y z
#    x 1.855150 0.000000 0.037750 
#    y 0.000000 1.833670 0.000000 
#    z 0.037750 0.000000 1.762400 
# 
# From -- ./inp_files/137026.got.cif
#   From: 2010.05.17/outbox.cif.g08.bks.cpg/sg15_69_cif.got.tgz:137026.got - 2010.06.03 18:47:42.
