data_PCOD9295113
_publ_section_title
;
Structure prediction by ZEFSAII (Michael W. Deem and Ramdas Pophale) SiO2 
 PCOD9295113
Probable space group: C 2/C
;
_chemical_formula_sum "Si O2"
_cell_formula_units_Z 32
_cell_length_a 21.564057
_cell_length_b 6.485849
_cell_length_c 14.964632
_cell_angle_alpha 90.000000
_cell_angle_beta 143.080921
_cell_angle_gamma 90.000000
_cell_volume 1257.219774
_symmetry_space_group_name_H-M "C 2/C"
_symmetry_group_IT_number 15
_symmetry_cell_setting 'monoclinic'
loop_
_space_group_symop_operation_xyz
x,y,z
-x,y,1/2-z
-x,-y,-z
x,-y,1/2+z
1/2+x,1/2+y,z
1/2-x,1/2+y,1/2-z
1/2-x,1/2-y,-z
1/2+x,1/2-y,1/2+z
loop_
_atom_site_type_symbol
_atom_site_label
_atom_site_fract_x
_atom_site_fract_y
_atom_site_fract_z
Si Si1 0.069819 0.701313 0.406880
Si Si2 0.546721 0.197292 0.705202
Si Si3 0.874357 0.086590 0.914619
Si Si4 0.745495 0.585871 0.382815
O O1 0.988352 0.537941 0.355016
O O2 0.164424 0.563652 0.476383
O O3 0.000000 0.804690 0.250000
O O4 0.118785 0.866138 0.528623
O O5 0.500000 0.235722 0.750000
O O6 0.488221 0.321907 0.559693
O O7 0.662574 0.281201 0.841966
O O8 0.804280 0.247248 0.889151
O O9 0.823880 0.059785 0.760652
#
# Coordination Sequence:
#
# PCOD9295113 Si02
#       4
#     8   8   8   8
#     4  10  23  42  65 100 132 168 218 265 328 385
#     4  10  24  43  66  98 132 170 217 271 323 385
#     4  11  22  42  68 100 128 174 217 267 328 381
#     4  11  23  43  70  94 134 171 218 269 322 387
#
# _framework density 25.452988999999999
#
# number of rings (size 3 to 8) (size 9 to 14) (size 15 to 20)
#    0.000    1.500    2.500    1.500    0.000   13.000 
#    0.000    7.500    0.000    0.000    0.000    0.000 
#    0.000    0.000    0.000    0.000    0.000    0.000 
#
# Total GULP energy -89476.233571 kJ/mol
# GULP energy per Si atom -5592.264598 kJ/mol
# Density = 2.539506 g / cm^3
# Si number density = 25.452989 Si / 1000 Ang^3
#
#
#
# Elastic Constant Matrix: (Units=GPa)
#
#
# Indices 1 2 3 4 5 6 
#
# 1 38.3647 -29.6487 -0.1296 0.0000 17.5599 0.0000
# 2 -29.6487 72.4362 3.3188 0.0000 -6.2858 0.0000
# 3 -0.1296 3.3188 163.6471 0.0000 13.5189 0.0000
# 4 0.0000 0.0000 0.0000 39.8852 0.0000 4.9851
# 5 17.5599 -6.2858 13.5189 0.0000 36.8545 0.0000
# 6 0.0000 0.0000 0.0000 4.9851 0.0000 12.9149
#
#
#
# Elastic Compliance Matrix: (Units=1/GPa)
#
#
# Indices 1 2 3 4 5 6 
#
# 1 0.050209 0.018641 0.001418 0.000000 -0.021264 0.000000
# 2 0.018641 0.020972 0.000029 0.000000 -0.005315 0.000000
# 3 0.001418 0.000029 0.006359 0.000000 -0.003004 0.000000
# 4 0.000000 0.000000 0.000000 0.026343 0.000000 -0.010168
# 5 -0.021264 -0.005315 -0.003004 0.000000 0.037460 0.000000
# 6 0.000000 0.000000 0.000000 -0.010168 0.000000 0.081355
#
#
# Mechanical properties :
#
#
# Convention : Reuss Voigt Hill
#
# Bulk Modulus (GPa) = 8.49506 24.61434 16.55470
# Shear Modulus (GPa) = 22.54665 37.99141 30.26903
#
# Velocity S-wave (km/s) = 2.97949 3.86762 3.45224
# Velocity P-wave (km/s) = 3.89632 5.44391 4.73379
#
# Compressibility (1/GPa) = 0.11771541
#
# Stress axis : x y z
#
# Youngs Moduli (GPa) = 19.91687 47.68163 157.24785
#
# Poissons Ratio (x) = -0.88881 -0.22303
# Poissons Ratio (y) = -0.37126 -0.00448
# Poissons Ratio (z) = -0.02825 -0.00136
#
# Static dielectric constant tensor:
#      x y z
#    x 2.071510 0.000000 -0.006310 
#    y 0.000000 2.019230 0.000000 
#    z -0.006310 0.000000 2.023930 
# 
# From -- ./inp_files/221566.got.cif
#   From: 2010.05.17/outbox.cif.g08.bks.cpg/sg15_111_cif.got.tgz:221566.got - 2010.06.03 18:47:42.
