data_PCOD9295832
_publ_section_title
;
Structure prediction by ZEFSAII (Michael W. Deem and Ramdas Pophale) SiO2 
 PCOD9295832
Probable space group: C 2/C
;
_chemical_formula_sum "Si O2"
_cell_formula_units_Z 32
_cell_length_a 14.752362
_cell_length_b 14.482909
_cell_length_c 8.161925
_cell_angle_alpha 90.000000
_cell_angle_beta 130.768991
_cell_angle_gamma 90.000000
_cell_volume 1320.704869
_symmetry_space_group_name_H-M "C 2/C"
_symmetry_group_IT_number 15
_symmetry_cell_setting 'monoclinic'
loop_
_space_group_symop_operation_xyz
x,y,z
-x,y,1/2-z
-x,-y,-z
x,-y,1/2+z
1/2+x,1/2+y,z
1/2-x,1/2+y,1/2-z
1/2-x,1/2-y,-z
1/2+x,1/2-y,1/2+z
loop_
_atom_site_type_symbol
_atom_site_label
_atom_site_fract_x
_atom_site_fract_y
_atom_site_fract_z
Si Si1 0.000000 0.031897 0.750000
Si Si2 0.843930 0.901308 0.776433
Si Si3 0.500000 0.858200 0.750000
Si Si4 0.909762 0.299121 0.297965
Si Si5 0.364177 0.004188 0.269727
O O1 0.946540 0.090249 0.538595
O O2 0.104601 0.965640 0.806404
O O3 0.834554 0.794533 0.718886
O O4 0.727909 0.946412 0.720210
O O5 0.478628 0.804856 0.555272
O O6 0.615254 0.924110 0.855020
O O7 0.840413 0.397006 0.202653
O O8 0.000000 0.294469 0.250000
O O9 0.500000 0.000000 0.500000
#
# Coordination Sequence:
#
# PCOD9295832 Si02
#       5
#     4   8   4   8   8
#     4  10  25  45  70 104 150 186 233 315 366 420
#     4  11  24  47  72 105 146 190 246 299 365 440
#     4  10  23  43  70 110 152 186 241 301 370 424
#     4  11  23  45  75 106 144 195 247 295 363 444
#     4  10  24  45  73 108 147 189 238 307 366 428
#
# _framework density 24.229486999999999
#
# number of rings (size 3 to 8) (size 9 to 14) (size 15 to 20)
#    0.000    1.500    2.500    0.750    7.000    1.000 
#   18.000    6.250    0.000    0.000    0.000    0.000 
#    0.000    0.000    0.000    0.000    0.000    0.000 
#
# Total GULP energy -89534.328540 kJ/mol
# GULP energy per Si atom -5595.895534 kJ/mol
# Density = 2.417434 g / cm^3
# Si number density = 24.229487 Si / 1000 Ang^3
#
#
#
# Elastic Constant Matrix: (Units=GPa)
#
#
# Indices 1 2 3 4 5 6 
#
# 1 217.5227 108.4083 18.1062 0.0000 -20.1662 0.0000
# 2 108.4083 245.3541 43.8276 0.0000 -5.2986 0.0000
# 3 18.1062 43.8276 110.1518 0.0000 -21.2357 0.0000
# 4 0.0000 0.0000 0.0000 31.7982 0.0000 14.7267
# 5 -20.1662 -5.2986 -21.2357 0.0000 44.9462 0.0000
# 6 0.0000 0.0000 0.0000 14.7267 0.0000 36.4828
#
#
#
# Elastic Compliance Matrix: (Units=1/GPa)
#
#
# Indices 1 2 3 4 5 6 
#
# 1 0.006188 -0.002786 0.000620 0.000000 0.002741 0.000000
# 2 -0.002786 0.005646 -0.002092 0.000000 -0.001573 0.000000
# 3 0.000620 -0.002092 0.010798 0.000000 0.005133 0.000000
# 4 0.000000 0.000000 0.000000 0.038679 0.000000 -0.015613
# 5 0.002741 -0.001573 0.005133 0.000000 0.025719 0.000000
# 6 0.000000 0.000000 0.000000 -0.015613 0.000000 0.033713
#
#
# Mechanical properties :
#
#
# Convention : Reuss Voigt Hill
#
# Bulk Modulus (GPa) = 70.83659 101.52366 86.18013
# Shear Modulus (GPa) = 37.32327 49.49122 43.40724
#
# Velocity S-wave (km/s) = 3.92906 4.52442 4.23721
# Velocity P-wave (km/s) = 7.06276 8.32380 7.71907
#
# Compressibility (1/GPa) = 0.01411700
#
# Stress axis : x y z
#
# Youngs Moduli (GPa) = 161.60222 177.10837 92.60566
#
# Poissons Ratio (x) = 0.49336 -0.05738
# Poissons Ratio (y) = 0.45016 0.19371
# Poissons Ratio (z) = -0.10012 0.37048
#
# Static dielectric constant tensor:
#      x y z
#    x 1.912380 0.000000 -0.008640 
#    y 0.000000 1.925220 0.000000 
#    z -0.008640 0.000000 2.215260 
# 
# From -- ./inp_files/28058.got.cif
#   From: 2010.05.17/outbox.cif.g08.bks.cpg/sg15_15_cif.got.tgz:28058.got - 2010.06.03 18:47:42.
