data_PCOD9295614
_publ_section_title
;
Structure prediction by ZEFSAII (Michael W. Deem and Ramdas Pophale) SiO2 
 PCOD9295614
Probable space group: C 2/C
;
_chemical_formula_sum "Si O2"
_cell_formula_units_Z 56
_cell_length_a 20.062422
_cell_length_b 17.331736
_cell_length_c 7.841822
_cell_angle_alpha 90.000000
_cell_angle_beta 113.226427
_cell_angle_gamma 90.000000
_cell_volume 2505.739746
_symmetry_space_group_name_H-M "C 2/C"
_symmetry_group_IT_number 15
_symmetry_cell_setting 'monoclinic'
loop_
_space_group_symop_operation_xyz
x,y,z
-x,y,1/2-z
-x,-y,-z
x,-y,1/2+z
1/2+x,1/2+y,z
1/2-x,1/2+y,1/2-z
1/2-x,1/2-y,-z
1/2+x,1/2-y,1/2+z
loop_
_atom_site_type_symbol
_atom_site_label
_atom_site_fract_x
_atom_site_fract_y
_atom_site_fract_z
Si Si1 0.195349 0.095782 0.914146
Si Si2 0.824031 0.919588 0.510297
Si Si3 0.056549 0.465223 0.424792
Si Si4 0.831240 0.363101 0.091510
Si Si5 0.859821 0.614815 0.017079
Si Si6 0.918169 0.216640 0.108963
Si Si7 0.417614 0.723537 0.700915
O O1 0.184511 0.092957 0.699819
O O2 0.280395 0.114306 0.022326
O O3 0.141516 0.162027 0.925340
O O4 0.176218 0.010621 0.959437
O O5 0.752631 0.881482 0.522342
O O6 0.893720 0.869963 0.633352
O O7 0.122849 0.407042 0.508571
O O8 0.094094 0.540655 0.380347
O O9 0.000000 0.419175 0.250000
O O10 0.000000 0.500000 0.500000
O O11 0.849589 0.394528 0.301141
O O12 0.858856 0.275886 0.122938
O O13 0.900914 0.693480 0.101824
O O14 0.000000 0.231892 0.250000
O O15 0.912232 0.228008 0.899779
O O16 0.500000 0.699124 0.750000
#
# Coordination Sequence:
#
# PCOD9295614 Si02
#       7
#     8   8   8   8   8   8   8
#     4  10  23  43  66  94 126 166 215 259 314 379
#     4  10  23  43  66  94 124 168 214 261 315 376
#     4  12  24  36  59  96 132 168 205 252 309 377
#     4  11  23  41  63  93 131 167 210 254 314 380
#     4  11  23  41  64  94 130 167 210 255 314 382
#     4  11  25  42  65  93 127 165 214 267 319 371
#     4  11  25  42  64  94 126 168 214 263 317 374
#
# _framework density 22.348690000000001
#
# number of rings (size 3 to 8) (size 9 to 14) (size 15 to 20)
#    0.000    1.143    2.857    2.571    4.000    4.000 
#    0.000    2.857    0.000    0.000    0.000    0.000 
#    0.000    0.000    0.000    0.000    0.000    0.000 
#
# Total GULP energy -156437.962442 kJ/mol
# GULP energy per Si atom -5587.070087 kJ/mol
# Density = 2.229782 g / cm^3
# Si number density = 22.348690 Si / 1000 Ang^3
#
#
#
# Elastic Constant Matrix: (Units=GPa)
#
#
# Indices 1 2 3 4 5 6 
#
# 1 100.5213 45.3627 12.3037 0.0000 20.3236 0.0000
# 2 45.3627 75.2826 6.4414 0.0000 23.1995 0.0000
# 3 12.3037 6.4414 40.1097 0.0000 8.2534 0.0000
# 4 0.0000 0.0000 0.0000 22.2569 0.0000 13.5239
# 5 20.3236 23.1995 8.2534 0.0000 27.5524 0.0000
# 6 0.0000 0.0000 0.0000 13.5239 0.0000 51.9743
#
#
#
# Elastic Compliance Matrix: (Units=1/GPa)
#
#
# Indices 1 2 3 4 5 6 
#
# 1 0.014265 -0.007251 -0.002454 0.000000 -0.003682 0.000000
# 2 -0.007251 0.021626 0.001489 0.000000 -0.013307 0.000000
# 3 -0.002454 0.001489 0.026995 0.000000 -0.007530 0.000000
# 4 0.000000 0.000000 0.000000 0.053367 0.000000 -0.013886
# 5 -0.003682 -0.013307 -0.007530 0.000000 0.052471 0.000000
# 6 0.000000 0.000000 0.000000 -0.013886 0.000000 0.022854
#
#
# Mechanical properties :
#
#
# Convention : Reuss Voigt Hill
#
# Bulk Modulus (GPa) = 21.52632 38.23657 29.88145
# Shear Modulus (GPa) = 22.37210 30.47714 26.42462
#
# Velocity S-wave (km/s) = 3.16737 3.69685 3.44230
# Velocity P-wave (km/s) = 4.79888 5.94714 5.40360
#
# Compressibility (1/GPa) = 0.04645475
#
# Stress axis : x y z
#
# Youngs Moduli (GPa) = 70.10111 46.24121 37.04436
#
# Poissons Ratio (x) = 0.33530 0.09090
# Poissons Ratio (y) = 0.50831 -0.05517
# Poissons Ratio (z) = 0.17201 -0.06887
#
# Static dielectric constant tensor:
#      x y z
#    x 1.810430 0.000000 -0.023830 
#    y 0.000000 1.810960 0.000000 
#    z -0.023830 0.000000 1.720550 
# 
# From -- ./inp_files/49144.got.cif
#   From: 2010.05.17/outbox.cif.g08.bks.cpg/sg15_25_cif.got.tgz:49144.got - 2010.06.03 18:47:42.
