data_PCOD9295844
_publ_section_title
;
Structure prediction by ZEFSAII (Michael W. Deem and Ramdas Pophale) SiO2 
 PCOD9295844
Probable space group: C 2/C
;
_chemical_formula_sum "Si O2"
_cell_formula_units_Z 44
_cell_length_a 13.507667
_cell_length_b 21.949075
_cell_length_c 8.075807
_cell_angle_alpha 90.000000
_cell_angle_beta 59.817111
_cell_angle_gamma 90.000000
_cell_volume 2069.711494
_symmetry_space_group_name_H-M "C 2/C"
_symmetry_group_IT_number 15
_symmetry_cell_setting 'monoclinic'
loop_
_space_group_symop_operation_xyz
x,y,z
-x,y,1/2-z
-x,-y,-z
x,-y,1/2+z
1/2+x,1/2+y,z
1/2-x,1/2+y,1/2-z
1/2-x,1/2-y,-z
1/2+x,1/2-y,1/2+z
loop_
_atom_site_type_symbol
_atom_site_label
_atom_site_fract_x
_atom_site_fract_y
_atom_site_fract_z
Si Si1 0.934525 0.942591 0.977125
Si Si2 0.817637 0.467418 0.209241
Si Si3 0.633435 0.089113 0.179614
Si Si4 0.000000 0.386706 0.250000
Si Si5 0.892607 0.187402 0.456059
Si Si6 0.817349 0.684166 0.116843
O O1 0.928442 0.871199 0.035863
O O2 0.000000 0.935990 0.750000
O O3 0.802571 0.961495 0.096508
O O4 0.000000 0.000000 0.000000
O O5 0.854970 0.537695 0.187443
O O6 0.912235 0.428752 0.225049
O O7 0.810864 0.440085 0.030996
O O8 0.500000 0.099251 0.250000
O O9 0.691609 0.149757 0.201062
O O10 0.927658 0.345260 0.435367
O O11 0.842472 0.243939 0.601156
O O12 0.791104 0.171274 0.410784
O O13 0.000000 0.205799 0.250000
#
# Coordination Sequence:
#
# PCOD9295844 Si02
#       6
#     8   8   8   4   8   8
#     4  11  25  45  68  96 132 179 228 281 337 412
#     4  12  24  41  67 104 139 176 228 285 344 413
#     4  12  24  39  64 103 142 175 217 282 348 406
#     4  12  20  40  70  98 138 176 224 288 352 398
#     4  10  23  43  70  97 128 182 238 273 340 415
#     4  11  23  42  69  97 133 180 232 285 337 420
#
# _framework density 21.259001000000001
#
# number of rings (size 3 to 8) (size 9 to 14) (size 15 to 20)
#    0.000    0.727    5.455    2.727    5.091    0.000 
#    0.000    1.818    0.000    0.000    0.000    0.000 
#    0.000    0.000    0.000    0.000    0.000    0.000 
#
# Total GULP energy -122873.807532 kJ/mol
# GULP energy per Si atom -5585.173070 kJ/mol
# Density = 2.121061 g / cm^3
# Si number density = 21.259001 Si / 1000 Ang^3
#
#
#
# Elastic Constant Matrix: (Units=GPa)
#
#
# Indices 1 2 3 4 5 6 
#
# 1 99.7535 58.4972 51.8151 0.0000 -18.5538 0.0000
# 2 58.4972 158.1326 26.3902 0.0000 21.2380 0.0000
# 3 51.8151 26.3902 66.6492 0.0000 -0.4214 0.0000
# 4 0.0000 0.0000 0.0000 -111.4372 0.0000 48.2626
# 5 -18.5538 21.2380 -0.4214 0.0000 35.7777 0.0000
# 6 0.0000 0.0000 0.0000 48.2626 0.0000 22.8480
#
#
#
# Elastic Compliance Matrix: (Units=1/GPa)
#
#
# Indices 1 2 3 4 5 6 
#
# 1 0.030801 -0.011164 -0.019384 0.000000 0.022371 0.000000
# 2 -0.011164 0.011460 0.004062 0.000000 -0.012545 0.000000
# 3 -0.019384 0.004062 0.028388 0.000000 -0.012129 0.000000
# 4 0.000000 0.000000 0.000000 -0.004686 0.000000 0.009899
# 5 0.022371 -0.012545 -0.012129 0.000000 0.046856 0.000000
# 6 0.000000 0.000000 0.000000 0.009899 0.000000 0.022857
#
#
# Mechanical properties :
#
#
# Convention : Reuss Voigt Hill
#
# Bulk Modulus (GPa) = 56.56570 66.43781 61.50176
# Shear Modulus (GPa) = 25.70171 1.95989 13.83080
#
# Velocity S-wave (km/s) = 3.48081 0.96120 2.55343
# Velocity P-wave (km/s) = 6.54373 5.70538 6.13888
#
# Compressibility (1/GPa) = 0.01767856
#
# Stress axis : x y z
#
# Youngs Moduli (GPa) = 32.46674 87.25653 35.22574
#
# Poissons Ratio (x) = 0.97410 0.68280
# Poissons Ratio (y) = 0.36245 -0.14308
# Poissons Ratio (z) = 0.62932 -0.35442
#
# Static dielectric constant tensor:
#      x y z
#    x 1.749420 0.000000 0.031070 
#    y 0.000000 1.848900 0.000000 
#    z 0.031070 0.000000 1.776530 
# 
# From -- ./inp_files/40625.got.cif
#   From: 2010.05.17/outbox.cif.g08.bks.cpg/sg15_21_cif.got.tgz:40625.got - 2010.06.03 18:47:42.
