data_PCOD9295509
_publ_section_title
;
Structure prediction by ZEFSAII (Michael W. Deem and Ramdas Pophale) SiO2 
 PCOD9295509
Probable space group: C 2/C
;
_chemical_formula_sum "Si O2"
_cell_formula_units_Z 56
_cell_length_a 23.849871
_cell_length_b 10.495306
_cell_length_c 27.715014
_cell_angle_alpha 90.000000
_cell_angle_beta 161.964927
_cell_angle_gamma 90.000000
_cell_volume 2147.810461
_symmetry_space_group_name_H-M "C 2/C"
_symmetry_group_IT_number 15
_symmetry_cell_setting 'monoclinic'
loop_
_space_group_symop_operation_xyz
x,y,z
-x,y,1/2-z
-x,-y,-z
x,-y,1/2+z
1/2+x,1/2+y,z
1/2-x,1/2+y,1/2-z
1/2-x,1/2-y,-z
1/2+x,1/2-y,1/2+z
loop_
_atom_site_type_symbol
_atom_site_label
_atom_site_fract_x
_atom_site_fract_y
_atom_site_fract_z
Si Si1 0.528289 0.426160 0.162840
Si Si2 0.780534 0.136349 0.132218
Si Si3 0.154342 0.596775 0.181241
Si Si4 0.777437 0.528426 0.011185
Si Si5 0.435502 0.817990 0.407051
Si Si6 0.000000 0.282148 0.750000
Si Si7 0.174194 0.722147 0.546031
Si Si8 0.000000 0.673633 0.750000
O O1 0.626159 0.561222 0.246699
O O2 0.815926 0.444653 0.296893
O O3 0.402414 0.424161 0.107829
O O4 0.403659 0.366155 0.019216
O O5 0.914978 0.241200 0.222264
O O6 0.806496 0.827624 0.195648
O O7 0.754059 0.036759 0.066326
O O8 0.588443 0.191064 0.991011
O O9 0.326651 0.688157 0.325479
O O10 0.048223 0.643288 0.046593
O O11 0.000284 0.630570 0.094971
O O12 0.939657 0.627575 0.156090
O O13 0.842184 0.410309 0.097963
O O14 0.813371 0.216383 0.614410
#
# Coordination Sequence:
#
# PCOD9295509 Si02
#       8
#     8   8   8   8   8   4   8   4
#     4  11  24  41  70 104 140 187 234 292 376 438
#     4  12  24  42  72 103 142 193 240 305 365 442
#     4  11  26  52  73 109 144 198 247 319 366 444
#     4  10  23  43  62 108 149 187 233 296 363 448
#     4  11  28  48  78 105 146 194 260 303 378 436
#     4   9  24  39  70 112 140 187 241 284 382 458
#     4  11  24  43  72 100 146 185 234 303 367 438
#     4  11  24  43  70 100 154 187 239 294 372 442
#
# _framework density 26.073066000000001
#
# number of rings (size 3 to 8) (size 9 to 14) (size 15 to 20)
#    0.000    1.143    2.857    1.286    8.000    2.857 
#    5.143    0.000    0.000    0.000    0.000    0.000 
#    0.000    0.000    0.000    0.000    0.000    0.000 
#
# Total GULP energy -156653.327266 kJ/mol
# GULP energy per Si atom -5594.761688 kJ/mol
# Density = 2.601372 g / cm^3
# Si number density = 26.073066 Si / 1000 Ang^3
#
#
#
# Elastic Constant Matrix: (Units=GPa)
#
#
# Indices 1 2 3 4 5 6 
#
# 1 66.6612 12.9193 22.3049 -0.0040 18.7064 0.0024
# 2 12.9193 67.8617 34.4088 -0.0152 10.3610 0.0066
# 3 22.3049 34.4088 113.7697 0.0022 23.0191 0.0001
# 4 -0.0040 -0.0152 0.0022 45.9527 -0.0006 2.4722
# 5 18.7064 10.3610 23.0191 -0.0006 40.8193 0.0003
# 6 0.0024 0.0066 0.0001 2.4722 0.0003 28.7441
#
#
#
# Elastic Compliance Matrix: (Units=1/GPa)
#
#
# Indices 1 2 3 4 5 6 
#
# 1 0.017760 -0.001504 -0.001645 0.000001 -0.006829 -0.000001
# 2 -0.001504 0.017630 -0.004821 0.000006 -0.001067 -0.000004
# 3 -0.001645 -0.004821 0.011480 -0.000002 -0.004496 0.000001
# 4 0.000001 0.000006 -0.000002 0.021863 0.000000 -0.001880
# 5 -0.006829 -0.001067 -0.004496 0.000000 0.030434 0.000001
# 6 -0.000001 -0.000004 0.000001 -0.001880 0.000001 0.034951
#
#
# Mechanical properties :
#
#
# Convention : Reuss Voigt Hill
#
# Bulk Modulus (GPa) = 32.33290 43.06207 37.69749
# Shear Modulus (GPa) = 31.17825 35.01388 33.09606
#
# Velocity S-wave (km/s) = 3.46179 3.66855 3.56667
# Velocity P-wave (km/s) = 5.32977 5.87334 5.60815
#
# Compressibility (1/GPa) = 0.03092825
#
# Stress axis : x y z
#
# Youngs Moduli (GPa) = 56.30749 56.72263 87.10725
#
# Poissons Ratio (x) = 0.08532 0.14330
# Poissons Ratio (y) = 0.08470 0.41996
# Poissons Ratio (z) = 0.09263 0.27347
#
# Static dielectric constant tensor:
#      x y z
#    x 2.144150 0.000010 -0.007160 
#    y 0.000010 2.118630 -0.000020 
#    z -0.007160 -0.000020 2.026630 
# 
# From -- ./inp_files/318835.got.cif
#   From: 2010.05.17/outbox.cif.g08.bks.cpg/sg15_160_cif.got.tgz:318835.got - 2010.06.03 18:47:42.
