data_PCOD9295089
_publ_section_title
;
Structure prediction by ZEFSAII (Michael W. Deem and Ramdas Pophale) SiO2 
 PCOD9295089
Probable space group: C 2/C
;
_chemical_formula_sum "Si O2"
_cell_formula_units_Z 48
_cell_length_a 17.408459
_cell_length_b 6.503966
_cell_length_c 21.255412
_cell_angle_alpha 90.000000
_cell_angle_beta 65.696583
_cell_angle_gamma 90.000000
_cell_volume 2193.345303
_symmetry_space_group_name_H-M "C 2/C"
_symmetry_group_IT_number 15
_symmetry_cell_setting 'monoclinic'
loop_
_space_group_symop_operation_xyz
x,y,z
-x,y,1/2-z
-x,-y,-z
x,-y,1/2+z
1/2+x,1/2+y,z
1/2-x,1/2+y,1/2-z
1/2-x,1/2-y,-z
1/2+x,1/2-y,1/2+z
loop_
_atom_site_type_symbol
_atom_site_label
_atom_site_fract_x
_atom_site_fract_y
_atom_site_fract_z
Si Si1 0.195104 0.041289 0.176129
Si Si2 0.160713 0.272149 0.793799
Si Si3 0.880475 0.801865 0.508414
Si Si4 0.968369 0.946145 0.604486
Si Si5 0.239732 0.484360 0.984507
Si Si6 0.061651 0.656587 0.777568
O O1 0.269494 0.185484 0.177353
O O2 0.211488 0.990642 0.098376
O O3 0.111758 0.170615 0.220907
O O4 0.195824 0.838777 0.219568
O O5 0.122059 0.489570 0.787666
O O6 0.092508 0.117992 0.845592
O O7 0.916552 0.831476 0.566167
O O8 0.855586 0.569686 0.495438
O O9 0.789500 0.901379 0.523953
O O10 0.949392 0.931352 0.446132
O O11 0.986037 0.776533 0.651090
O O12 0.250000 0.250000 0.000000
O O13 0.000000 0.545715 0.750000
#
# Coordination Sequence:
#
# PCOD9295089 Si02
#       6
#     8   8   8   8   8   8
#     4  11  23  41  65  94 129 169 223 270 337 405
#     4  11  23  40  67  93 126 172 215 275 338 407
#     4  10  23  42  64  93 132 173 222 282 327 411
#     4  10  23  43  65  93 131 175 223 274 346 401
#     4  11  24  40  65  96 131 177 226 279 342 402
#     4  11  24  40  64  97 130 167 220 279 337 406
#
# _framework density 21.884378999999999
#
# number of rings (size 3 to 8) (size 9 to 14) (size 15 to 20)
#    0.000    1.333    1.667    3.000    2.333    9.333 
#    0.000    4.167    0.000    0.000    0.000    0.000 
#    0.000    0.000    0.000    0.000    0.000    0.000 
#
# Total GULP energy -134041.647671 kJ/mol
# GULP energy per Si atom -5585.068653 kJ/mol
# Density = 2.183457 g / cm^3
# Si number density = 21.884379 Si / 1000 Ang^3
#
#
#
# Elastic Constant Matrix: (Units=GPa)
#
#
# Indices 1 2 3 4 5 6 
#
# 1 101.2397 16.9671 32.9656 0.0000 22.8996 -0.0006
# 2 16.9671 86.2868 21.4362 -0.0005 4.5484 -0.0007
# 3 32.9656 21.4362 66.3285 -0.0005 12.9595 -0.0002
# 4 0.0000 -0.0005 -0.0005 22.3756 0.0000 10.2023
# 5 22.8996 4.5484 12.9595 0.0000 24.6539 -0.0003
# 6 -0.0006 -0.0007 -0.0002 10.2023 -0.0003 25.5919
#
#
#
# Elastic Compliance Matrix: (Units=1/GPa)
#
#
# Indices 1 2 3 4 5 6 
#
# 1 0.013860 -0.001056 -0.004536 0.000000 -0.010295 0.000000
# 2 -0.001056 0.012682 -0.003687 0.000000 0.000579 0.000000
# 3 -0.004536 -0.003687 0.019577 0.000001 -0.005397 0.000000
# 4 0.000000 0.000000 0.000001 0.054620 0.000000 -0.021774
# 5 -0.010295 0.000579 -0.005397 0.000000 0.052854 0.000000
# 6 0.000000 0.000000 0.000000 -0.021774 0.000000 0.047755
#
#
# Mechanical properties :
#
#
# Convention : Reuss Voigt Hill
#
# Bulk Modulus (GPa) = 36.28214 44.06587 40.17400
# Shear Modulus (GPa) = 21.82515 26.69002 24.25759
#
# Velocity S-wave (km/s) = 3.16142 3.49606 3.33294
# Velocity P-wave (km/s) = 5.47185 6.03954 5.76269
#
# Compressibility (1/GPa) = 0.02756177
#
# Stress axis : x y z
#
# Youngs Moduli (GPa) = 72.14982 78.84987 51.08038
#
# Poissons Ratio (x) = 0.08326 0.23169
# Poissons Ratio (y) = 0.07618 0.18834
# Poissons Ratio (z) = 0.32726 0.29072
#
# Static dielectric constant tensor:
#      x y z
#    x 1.777160 0.000000 -0.024090 
#    y 0.000000 1.860660 0.000000 
#    z -0.024090 0.000000 1.784410 
# 
# From -- ./inp_files/275840.got.cif
#   From: 2010.05.17/outbox.cif.g08.bks.cpg/sg15_138_cif.got.tgz:275840.got - 2010.06.03 18:47:42.
