data_PCOD9295791
_publ_section_title
;
Structure prediction by ZEFSAII (Michael W. Deem and Ramdas Pophale) SiO2 
 PCOD9295791
Probable space group: C 2/C
;
_chemical_formula_sum "Si O2"
_cell_formula_units_Z 28
_cell_length_a 20.068488
_cell_length_b 13.052029
_cell_length_c 5.080662
_cell_angle_alpha 90.000000
_cell_angle_beta 67.505854
_cell_angle_gamma 90.000000
_cell_volume 1229.551460
_symmetry_space_group_name_H-M "C 2/C"
_symmetry_group_IT_number 15
_symmetry_cell_setting 'monoclinic'
loop_
_space_group_symop_operation_xyz
x,y,z
-x,y,1/2-z
-x,-y,-z
x,-y,1/2+z
1/2+x,1/2+y,z
1/2-x,1/2+y,1/2-z
1/2-x,1/2-y,-z
1/2+x,1/2-y,1/2+z
loop_
_atom_site_type_symbol
_atom_site_label
_atom_site_fract_x
_atom_site_fract_y
_atom_site_fract_z
Si Si1 0.425159 0.723626 0.201449
Si Si2 0.312472 0.428795 0.098168
Si Si3 0.356518 0.067327 0.634317
Si Si4 0.500000 0.424879 0.250000
O O1 0.500000 0.723269 0.250000
O O2 0.363252 0.667470 0.463741
O O3 0.403675 0.836261 0.144752
O O4 0.437223 0.653771 0.924895
O O5 0.325683 0.512452 0.849785
O O6 0.227798 0.401469 0.216161
O O7 0.369140 0.024274 0.323574
O O8 0.500000 0.500000 0.500000
#
# Coordination Sequence:
#
# PCOD9295791 Si02
#       4
#     8   8   8   4
#     4  12  27  42  70 103 137 178 220 274 341 398
#     4  10  23  43  69  98 132 175 221 280 332 393
#     4  10  25  47  69  95 134 180 232 274 321 390
#     4  12  26  44  62  98 140 170 210 266 338 406
#
# _framework density 22.772531000000001
#
# number of rings (size 3 to 8) (size 9 to 14) (size 15 to 20)
#    0.000    1.143    1.429    2.571    8.000    1.143 
#    0.000    8.571    0.000    0.000    0.000    0.000 
#    0.000    0.000    0.000    0.000    0.000    0.000 
#
# Total GULP energy -78394.214760 kJ/mol
# GULP energy per Si atom -5599.586769 kJ/mol
# Density = 2.272070 g / cm^3
# Si number density = 22.772531 Si / 1000 Ang^3
#
#
#
# Elastic Constant Matrix: (Units=GPa)
#
#
# Indices 1 2 3 4 5 6 
#
# 1 105.4062 56.3985 14.1759 0.0000 15.6869 0.0000
# 2 56.3985 93.0277 1.8319 0.0000 -14.5095 0.0000
# 3 14.1759 1.8319 82.2935 0.0000 23.3465 0.0000
# 4 0.0000 0.0000 0.0000 19.6152 0.0000 -8.8111
# 5 15.6869 -14.5095 23.3465 0.0000 25.9044 0.0000
# 6 0.0000 0.0000 0.0000 -8.8111 0.0000 47.4578
#
#
#
# Elastic Compliance Matrix: (Units=1/GPa)
#
#
# Indices 1 2 3 4 5 6 
#
# 1 0.022915 -0.018377 0.004459 0.000000 -0.028188 0.000000
# 2 -0.018377 0.027041 -0.006570 0.000000 0.032196 0.000000
# 3 0.004459 -0.006570 0.017922 0.000000 -0.022533 0.000000
# 4 0.000000 0.000000 0.000000 0.055620 0.000000 0.010326
# 5 -0.028188 0.032196 -0.022533 0.000000 0.094014 0.000000
# 6 0.000000 0.000000 0.000000 0.010326 0.000000 0.022989
#
#
# Mechanical properties :
#
#
# Convention : Reuss Voigt Hill
#
# Bulk Modulus (GPa) = 37.17206 47.28223 42.22714
# Shear Modulus (GPa) = 17.21493 32.48356 24.84924
#
# Velocity S-wave (km/s) = 2.75244 3.78092 3.30691
# Velocity P-wave (km/s) = 5.14392 6.31414 5.75883
#
# Compressibility (1/GPa) = 0.02690193
#
# Stress axis : x y z
#
# Youngs Moduli (GPa) = 43.63940 36.98028 55.79636
#
# Poissons Ratio (x) = 0.67957 -0.24877
# Poissons Ratio (y) = 0.80195 0.36660
# Poissons Ratio (z) = -0.19457 0.24297
#
# Static dielectric constant tensor:
#      x y z
#    x 1.965960 0.000000 -0.008700 
#    y 0.000000 1.782580 0.000000 
#    z -0.008700 0.000000 1.844060 
# 
# From -- ./inp_files/12343.got.cif
#   From: 2010.05.17/outbox.cif.g08.bks.cpg/sg15_7_cif.got.tgz:12343.got - 2010.06.03 18:47:42.
