data_PCOD9295065
_publ_section_title
;
Structure prediction by ZEFSAII (Michael W. Deem and Ramdas Pophale) SiO2 
 PCOD9295065
Probable space group: C 2/C
;
_chemical_formula_sum "Si O2"
_cell_formula_units_Z 40
_cell_length_a 18.285856
_cell_length_b 17.081524
_cell_length_c 12.398126
_cell_angle_alpha 90.000000
_cell_angle_beta 21.890941
_cell_angle_gamma 90.000000
_cell_volume 1443.848786
_symmetry_space_group_name_H-M "C 2/C"
_symmetry_group_IT_number 15
_symmetry_cell_setting 'monoclinic'
loop_
_space_group_symop_operation_xyz
x,y,z
-x,y,1/2-z
-x,-y,-z
x,-y,1/2+z
1/2+x,1/2+y,z
1/2-x,1/2+y,1/2-z
1/2-x,1/2-y,-z
1/2+x,1/2-y,1/2+z
loop_
_atom_site_type_symbol
_atom_site_label
_atom_site_fract_x
_atom_site_fract_y
_atom_site_fract_z
Si Si1 0.220173 0.851685 0.483699
Si Si2 0.553839 0.641349 0.553410
Si Si3 0.790202 0.007042 0.895439
Si Si4 0.054724 0.414118 0.526525
Si Si5 0.057805 0.725901 0.425813
O O1 0.213269 0.913184 0.591775
O O2 0.319885 0.906523 0.253477
O O3 0.372741 0.780473 0.259778
O O4 0.000000 0.833897 0.750000
O O5 0.500000 0.661351 0.750000
O O6 0.499917 0.550056 0.613772
O O7 0.421135 0.686966 0.646332
O O8 0.770704 0.678292 0.249387
O O9 0.657148 0.044986 0.173557
O O10 0.679349 0.040464 0.943464
O O11 0.994828 0.322283 0.612013
#
# Coordination Sequence:
#
# PCOD9295065 Si02
#       5
#     8   8   8   8   8
#     4  10  23  42  63  93 142 179 222 282 340 405
#     4  12  21  38  69  98 131 175 231 283 346 389
#     4  11  21  38  70 100 132 177 222 289 343 402
#     4   9  22  39  62  99 135 171 228 276 340 398
#     4  10  24  38  64  96 138 173 226 282 336 409
#
# _framework density 27.703731999999999
#
# number of rings (size 3 to 8) (size 9 to 14) (size 15 to 20)
#    1.200    0.400    2.000    3.000    2.800    0.800 
#    0.000    3.000    0.000    0.000    0.000    0.000 
#    0.000    0.000    0.000    0.000    0.000    0.000 
#
# Total GULP energy -111641.927234 kJ/mol
# GULP energy per Si atom -5582.096362 kJ/mol
# Density = 2.764068 g / cm^3
# Si number density = 27.703732 Si / 1000 Ang^3
#
#
#
# Elastic Constant Matrix: (Units=GPa)
#
#
# Indices 1 2 3 4 5 6 
#
# 1 69.7448 18.7202 3.9055 0.0064 -12.7832 -0.0066
# 2 18.7202 87.3696 -3.1663 -0.0003 -7.0857 -0.0020
# 3 3.9055 -3.1663 140.6790 -0.0164 -2.5059 0.0039
# 4 0.0064 -0.0003 -0.0164 43.2294 0.0084 -11.3611
# 5 -12.7832 -7.0857 -2.5059 0.0084 32.4953 0.0005
# 6 -0.0066 -0.0020 0.0039 -11.3611 0.0005 45.9705
#
#
#
# Elastic Compliance Matrix: (Units=1/GPa)
#
#
# Indices 1 2 3 4 5 6 
#
# 1 0.016217 -0.003029 -0.000417 -0.000003 0.005687 0.000001
# 2 -0.003029 0.012231 0.000386 0.000000 0.001505 0.000000
# 3 -0.000417 0.000386 0.007137 0.000003 0.000471 0.000000
# 4 -0.000003 0.000000 0.000003 0.024739 -0.000008 0.006114
# 5 0.005687 0.001505 0.000471 -0.000008 0.033375 -0.000001
# 6 0.000001 0.000000 0.000000 0.006114 -0.000001 0.023264
#
#
# Mechanical properties :
#
#
# Convention : Reuss Voigt Hill
#
# Bulk Modulus (GPa) = 33.93819 37.41245 35.67532
# Shear Modulus (GPa) = 37.62130 42.89465 40.25797
#
# Velocity S-wave (km/s) = 3.68908 3.93916 3.81617
# Velocity P-wave (km/s) = 5.51569 5.85005 5.68533
#
# Compressibility (1/GPa) = 0.02946533
#
# Stress axis : x y z
#
# Youngs Moduli (GPa) = 61.66544 81.76210 140.11425
#
# Poissons Ratio (x) = 0.24762 0.05844
# Poissons Ratio (y) = 0.18676 -0.05411
# Poissons Ratio (z) = 0.02572 -0.03157
#
# Static dielectric constant tensor:
#      x y z
#    x 2.205570 0.000000 0.004370 
#    y 0.000000 2.195850 0.000010 
#    z 0.004370 0.000010 2.238380 
# 
# From -- ./inp_files/169062.got.cif
#   From: 2010.05.17/outbox.cif.g08.bks.cpg/sg15_85_cif.got.tgz:169062.got - 2010.06.03 18:47:42.
