data_PCOD9295560
_publ_section_title
;
Structure prediction by ZEFSAII (Michael W. Deem and Ramdas Pophale) SiO2 
 PCOD9295560
Probable space group: C 2/C
;
_chemical_formula_sum "Si O2"
_cell_formula_units_Z 32
_cell_length_a 12.514125
_cell_length_b 17.888337
_cell_length_c 15.599034
_cell_angle_alpha 90.000000
_cell_angle_beta 153.546316
_cell_angle_gamma 90.000000
_cell_volume 1555.574264
_symmetry_space_group_name_H-M "C 2/C"
_symmetry_group_IT_number 15
_symmetry_cell_setting 'monoclinic'
loop_
_space_group_symop_operation_xyz
x,y,z
-x,y,1/2-z
-x,-y,-z
x,-y,1/2+z
1/2+x,1/2+y,z
1/2-x,1/2+y,1/2-z
1/2-x,1/2-y,-z
1/2+x,1/2-y,1/2+z
loop_
_atom_site_type_symbol
_atom_site_label
_atom_site_fract_x
_atom_site_fract_y
_atom_site_fract_z
Si Si1 0.128908 0.195867 0.983369
Si Si2 0.609197 0.833321 0.085010
Si Si3 0.810087 0.584960 0.689343
Si Si4 0.753762 0.082857 0.294897
O O1 0.894331 0.159205 0.773290
O O2 0.250000 0.250000 0.000000
O O3 0.052315 0.251749 0.005882
O O4 0.270014 0.130894 0.134092
O O5 0.597171 0.853429 0.176187
O O6 0.438496 0.887522 0.910112
O O7 0.529656 0.596911 0.463464
O O8 0.794074 0.504025 0.723364
O O9 0.000000 0.581459 0.750000
#
# Coordination Sequence:
#
# PCOD9295560 Si02
#       4
#     8   8   8   8
#     4  11  23  38  65 101 131 162 207 273 334 378
#     4  11  22  39  63  94 129 164 212 262 320 391
#     4  10  24  44  64  90 131 174 213 267 320 386
#     4  10  23  43  64  97 129 163 221 266 317 399
#
# _framework density 20.571182
#
# number of rings (size 3 to 8) (size 9 to 14) (size 15 to 20)
#    0.000    1.500    2.500    1.500    3.500    1.000 
#    4.500    5.000    0.000    0.000    0.000    0.000 
#    0.000    0.000    0.000    0.000    0.000    0.000 
#
# Total GULP energy -89250.234276 kJ/mol
# GULP energy per Si atom -5578.139642 kJ/mol
# Density = 2.052436 g / cm^3
# Si number density = 20.571182 Si / 1000 Ang^3
#
#
#
# Elastic Constant Matrix: (Units=GPa)
#
#
# Indices 1 2 3 4 5 6 
#
# 1 91.6208 17.4509 56.1638 0.0319 26.6456 0.0152
# 2 17.4509 57.6593 12.6999 -0.0623 1.6701 -0.0360
# 3 56.1638 12.6999 158.3063 -0.0148 2.6222 -0.0051
# 4 0.0319 -0.0623 -0.0148 38.3906 0.0108 -2.7502
# 5 26.6456 1.6701 2.6222 0.0108 25.0306 0.0160
# 6 0.0152 -0.0360 -0.0051 -2.7502 0.0160 25.1797
#
#
#
# Elastic Compliance Matrix: (Units=1/GPa)
#
#
# Indices 1 2 3 4 5 6 
#
# 1 0.023302 -0.004715 -0.007496 -0.000024 -0.023706 -0.000010
# 2 -0.004715 0.018636 0.000115 0.000035 0.003763 0.000031
# 3 -0.007496 0.000115 0.008850 0.000008 0.007045 0.000003
# 4 -0.000024 0.000035 0.000008 0.026254 0.000009 0.002868
# 5 -0.023706 0.003763 0.007045 0.000009 0.064197 -0.000019
# 6 -0.000010 0.000031 0.000003 0.002868 -0.000019 0.040028
#
#
# Mechanical properties :
#
#
# Convention : Reuss Voigt Hill
#
# Bulk Modulus (GPa) = 37.59821 53.35728 45.47775
# Shear Modulus (GPa) = 23.32920 32.47161 27.90041
#
# Velocity S-wave (km/s) = 3.37125 3.97734 3.68677
# Velocity P-wave (km/s) = 5.78538 6.86196 6.34654
#
# Compressibility (1/GPa) = 0.02659701
#
# Stress axis : x y z
#
# Youngs Moduli (GPa) = 42.91493 53.65999 112.98917
#
# Poissons Ratio (x) = 0.25299 0.84698
# Poissons Ratio (y) = 0.20233 -0.01303
# Poissons Ratio (z) = 0.32170 -0.00619
#
# Static dielectric constant tensor:
#      x y z
#    x 1.753380 0.000010 0.010880 
#    y 0.000010 1.754650 -0.000010 
#    z 0.010880 -0.000010 1.771170 
# 
# From -- ./inp_files/28446.got.cif
#   From: 2010.05.17/outbox.cif.g08.bks.cpg/sg15_15_cif.got.tgz:28446.got - 2010.06.03 18:47:42.
