data_PCOD9295730
_publ_section_title
;
Structure prediction by ZEFSAII (Michael W. Deem and Ramdas Pophale) SiO2 
 PCOD9295730
Probable space group: C 2/C
;
_chemical_formula_sum "Si O2"
_cell_formula_units_Z 48
_cell_length_a 26.516946
_cell_length_b 10.706705
_cell_length_c 11.512073
_cell_angle_alpha 90.000000
_cell_angle_beta 44.352328
_cell_angle_gamma 90.000000
_cell_volume 2284.823684
_symmetry_space_group_name_H-M "C 2/C"
_symmetry_group_IT_number 15
_symmetry_cell_setting 'monoclinic'
loop_
_space_group_symop_operation_xyz
x,y,z
-x,y,1/2-z
-x,-y,-z
x,-y,1/2+z
1/2+x,1/2+y,z
1/2-x,1/2+y,1/2-z
1/2-x,1/2-y,-z
1/2+x,1/2-y,1/2+z
loop_
_atom_site_type_symbol
_atom_site_label
_atom_site_fract_x
_atom_site_fract_y
_atom_site_fract_z
Si Si1 0.314066 0.337787 0.349779
Si Si2 0.834241 0.677898 0.097065
Si Si3 0.524748 0.934220 0.078824
Si Si4 0.821457 0.090953 0.221748
Si Si5 0.580788 0.292551 0.757048
Si Si6 0.576692 0.435650 0.158696
O O1 0.250000 0.250000 0.500000
O O2 0.336672 0.282944 0.190132
O O3 0.297631 0.483466 0.352262
O O4 0.379462 0.341959 0.331930
O O5 0.752003 0.640187 0.212663
O O6 0.888658 0.571992 0.054366
O O7 0.868250 0.729212 0.922883
O O8 0.500000 0.979288 0.250000
O O9 0.489393 0.795227 0.123908
O O10 0.500000 0.000000 0.000000
O O11 0.870778 0.191835 0.207649
O O12 0.873022 0.040293 0.035211
O O13 0.562196 0.433519 0.748640
O O14 0.500000 0.381912 0.250000
#
# Coordination Sequence:
#
# PCOD9295730 Si02
#       6
#     8   8   8   8   8   8
#     4  11  24  41  63  96 129 164 216 273 330 387
#     4  11  22  43  65  91 135 170 214 273 328 398
#     4  10  24  46  69  98 131 182 221 274 337 403
#     4  11  24  40  68  98 127 177 220 269 338 395
#     4  10  23  43  68  94 132 172 221 273 338 393
#     4  11  23  41  65  99 129 169 219 273 332 393
#
# _framework density 21.008185999999998
#
# number of rings (size 3 to 8) (size 9 to 14) (size 15 to 20)
#    0.000    1.333    3.333    2.000    2.333    5.333 
#    3.000    0.000    0.000    0.000    0.000    0.000 
#    0.000    0.000    0.000    0.000    0.000    0.000 
#
# Total GULP energy -133984.765678 kJ/mol
# GULP energy per Si atom -5582.698570 kJ/mol
# Density = 2.096037 g / cm^3
# Si number density = 21.008186 Si / 1000 Ang^3
#
#
#
# Elastic Constant Matrix: (Units=GPa)
#
#
# Indices 1 2 3 4 5 6 
#
# 1 190.6299 40.1138 53.6986 0.0000 -12.2182 0.0000
# 2 40.1138 34.8356 15.2788 0.0000 -0.2314 0.0000
# 3 53.6986 15.2788 57.1528 0.0000 -10.1593 0.0000
# 4 0.0000 0.0000 0.0000 14.1867 0.0000 19.3578
# 5 -12.2182 -0.2314 -10.1593 0.0000 35.9774 0.0000
# 6 0.0000 0.0000 0.0000 19.3578 0.0000 17.2744
#
#
#
# Elastic Compliance Matrix: (Units=1/GPa)
#
#
# Indices 1 2 3 4 5 6 
#
# 1 0.008479 -0.007198 -0.005831 0.000000 0.001187 0.000000
# 2 -0.007198 0.038823 -0.004217 0.000000 -0.003386 0.000000
# 3 -0.005831 -0.004217 0.025001 0.000000 0.005052 0.000000
# 4 0.000000 0.000000 0.000000 -0.133229 0.000000 0.149298
# 5 0.001187 -0.003386 0.005052 0.000000 0.029603 0.000000
# 6 0.000000 0.000000 0.000000 0.149298 0.000000 -0.109415
#
#
# Mechanical properties :
#
#
# Convention : Reuss Voigt Hill
#
# Bulk Modulus (GPa) = 26.44845 55.64451 41.04648
# Shear Modulus (GPa) = -53.39542 25.05616 -14.16963
#
# Velocity S-wave (km/s) = -5.04695 3.45727 -2.59990
# Velocity P-wave (km/s) = 4.62010 6.51779 3.25087
#
# Compressibility (1/GPa) = 0.03780940
#
# Stress axis : x y z
#
# Youngs Moduli (GPa) = 117.93506 25.75825 39.99776
#
# Poissons Ratio (x) = 0.18542 0.23325
# Poissons Ratio (y) = 0.84895 0.16867
# Poissons Ratio (z) = 0.68773 0.10862
#
# Static dielectric constant tensor:
#      x y z
#    x 1.764780 0.000000 0.018060 
#    y 0.000000 1.741200 0.000000 
#    z 0.018060 0.000000 1.752530 
# 
# From -- ./inp_files/117426.got.cif
#   From: 2010.05.17/outbox.cif.g08.bks.cpg/sg15_59_cif.got.tgz:117426.got - 2010.06.03 18:47:42.
