data_PCOD9295986
_publ_section_title
;
Structure prediction by ZEFSAII (Michael W. Deem and Ramdas Pophale) SiO2 
 PCOD9295986
Probable space group: C 2/C
;
_chemical_formula_sum "Si O2"
_cell_formula_units_Z 40
_cell_length_a 17.028065
_cell_length_b 9.549165
_cell_length_c 10.528076
_cell_angle_alpha 90.000000
_cell_angle_beta 86.523491
_cell_angle_gamma 90.000000
_cell_volume 1708.754845
_symmetry_space_group_name_H-M "C 2/C"
_symmetry_group_IT_number 15
_symmetry_cell_setting 'monoclinic'
loop_
_space_group_symop_operation_xyz
x,y,z
-x,y,1/2-z
-x,-y,-z
x,-y,1/2+z
1/2+x,1/2+y,z
1/2-x,1/2+y,1/2-z
1/2-x,1/2-y,-z
1/2+x,1/2-y,1/2+z
loop_
_atom_site_type_symbol
_atom_site_label
_atom_site_fract_x
_atom_site_fract_y
_atom_site_fract_z
Si Si1 0.091077 0.693577 0.086145
Si Si2 0.270341 0.021319 0.933827
Si Si3 0.577381 0.727855 0.866323
Si Si4 0.393288 0.586208 0.140515
Si Si5 0.667417 0.299983 0.614622
O O1 0.153007 0.572128 0.049679
O O2 0.114863 0.747849 0.224531
O O3 0.997580 0.670541 0.112397
O O4 0.090062 0.808434 0.975073
O O5 0.200214 0.942709 0.868734
O O6 0.291664 0.157109 0.847161
O O7 0.228242 0.079478 0.066282
O O8 0.560415 0.560221 0.871417
O O9 0.629945 0.746163 0.984251
O O10 0.397483 0.650424 0.280215
#
# Coordination Sequence:
#
# PCOD9295986 Si02
#       5
#     8   8   8   8   8
#     4  11  24  41  68  93 138 178 224 270 343 403
#     4  10  24  40  64  99 133 173 224 278 341 393
#     4  10  23  44  63  98 133 180 222 278 329 411
#     4  11  23  40  70  96 131 175 230 276 337 399
#     4  10  24  42  67  96 137 170 226 285 329 399
#
# _framework density 23.408857999999999
#
# number of rings (size 3 to 8) (size 9 to 14) (size 15 to 20)
#    0.000    1.600    0.000    3.600   11.200    3.200 
#    0.000    2.000    0.000    0.000    0.000    0.000 
#    0.000    0.000    0.000    0.000    0.000    0.000 
#
# Total GULP energy -111649.750203 kJ/mol
# GULP energy per Si atom -5582.487510 kJ/mol
# Density = 2.335558 g / cm^3
# Si number density = 23.408858 Si / 1000 Ang^3
#
#
#
# Elastic Constant Matrix: (Units=GPa)
#
#
# Indices 1 2 3 4 5 6 
#
# 1 81.3885 21.6911 31.0719 0.0000 -11.3266 0.0000
# 2 21.6911 54.9580 22.2463 0.0000 -10.6702 0.0000
# 3 31.0719 22.2463 120.0716 0.0000 -4.7688 0.0000
# 4 0.0000 0.0000 0.0000 22.5401 0.0000 -3.9528
# 5 -11.3266 -10.6702 -4.7688 0.0000 21.0480 0.0000
# 6 0.0000 0.0000 0.0000 -3.9528 0.0000 37.5805
#
#
#
# Elastic Compliance Matrix: (Units=1/GPa)
#
#
# Indices 1 2 3 4 5 6 
#
# 1 0.015209 -0.003683 -0.003030 0.000000 0.005631 0.000000
# 2 -0.003683 0.022516 -0.002870 0.000000 0.008782 0.000000
# 3 -0.003030 -0.002870 0.009608 0.000000 -0.000908 0.000000
# 4 0.000000 0.000000 0.000000 0.045199 0.000000 0.004754
# 5 0.005631 0.008782 -0.000908 0.000000 0.054787 0.000000
# 6 0.000000 0.000000 0.000000 0.004754 0.000000 0.027110
#
#
# Mechanical properties :
#
#
# Convention : Reuss Voigt Hill
#
# Bulk Modulus (GPa) = 35.50164 45.15964 40.33064
# Shear Modulus (GPa) = 24.63272 28.32765 26.48019
#
# Velocity S-wave (km/s) = 3.24741 3.48246 3.36699
# Velocity P-wave (km/s) = 5.40922 5.95849 5.69049
#
# Compressibility (1/GPa) = 0.02816771
#
# Stress axis : x y z
#
# Youngs Moduli (GPa) = 65.75244 44.41272 104.07997
#
# Poissons Ratio (x) = 0.16357 0.31532
# Poissons Ratio (y) = 0.24217 0.29869
# Poissons Ratio (z) = 0.19921 0.12746
#
# Static dielectric constant tensor:
#      x y z
#    x 1.956710 0.000000 -0.005930 
#    y 0.000000 1.901500 0.000000 
#    z -0.005930 0.000000 1.949220 
# 
# From -- ./inp_files/102694.got.cif
#   From: 2010.05.17/outbox.cif.g08.bks.cpg/sg15_52_cif.got.tgz:102694.got - 2010.06.03 18:47:42.
