data_PCOD9295714
_publ_section_title
;
Structure prediction by ZEFSAII (Michael W. Deem and Ramdas Pophale) SiO2 
 PCOD9295714
Probable space group: C 2/C
;
_chemical_formula_sum "Si O2"
_cell_formula_units_Z 40
_cell_length_a 21.361932
_cell_length_b 9.619823
_cell_length_c 11.592771
_cell_angle_alpha 90.000000
_cell_angle_beta 37.489198
_cell_angle_gamma 90.000000
_cell_volume 1449.890714
_symmetry_space_group_name_H-M "C 2/C"
_symmetry_group_IT_number 15
_symmetry_cell_setting 'monoclinic'
loop_
_space_group_symop_operation_xyz
x,y,z
-x,y,1/2-z
-x,-y,-z
x,-y,1/2+z
1/2+x,1/2+y,z
1/2-x,1/2+y,1/2-z
1/2-x,1/2-y,-z
1/2+x,1/2-y,1/2+z
loop_
_atom_site_type_symbol
_atom_site_label
_atom_site_fract_x
_atom_site_fract_y
_atom_site_fract_z
Si Si1 0.801777 0.710837 0.194332
Si Si2 0.827138 0.865604 0.939380
Si Si3 0.976975 0.665648 0.617129
Si Si4 0.323338 0.911889 0.899289
Si Si5 0.583272 0.727250 0.541298
O O1 0.809811 0.846285 0.101893
O O2 0.815547 0.705429 0.311616
O O3 0.686889 0.651277 0.344793
O O4 0.908202 0.633374 0.005838
O O5 0.786165 0.008820 0.948330
O O6 0.750000 0.750000 0.000000
O O7 0.935253 0.805305 0.740145
O O8 0.902649 0.534934 0.746129
O O9 0.969322 0.708106 0.493869
O O10 0.365861 0.847580 0.954032
O O11 0.500000 0.658071 0.750000
#
# Coordination Sequence:
#
# PCOD9295714 Si02
#       5
#     8   8   8   8   8
#     4  12  24  46  72 100 143 182 232 289 347 411
#     4  10  23  43  68 102 141 179 224 287 346 406
#     4  11  25  44  71 103 137 184 228 288 345 407
#     4  11  25  43  74 106 134 188 232 287 339 419
#     4  12  26  44  70 104 144 178 234 290 345 407
#
# _framework density 27.588287000000001
#
# number of rings (size 3 to 8) (size 9 to 14) (size 15 to 20)
#    0.000    0.800    6.000    1.800    5.600    0.000 
#    0.000    3.000    0.000    0.000    0.000    0.000 
#    0.000    0.000    0.000    0.000    0.000    0.000 
#
# Total GULP energy -111753.592401 kJ/mol
# GULP energy per Si atom -5587.679620 kJ/mol
# Density = 2.752550 g / cm^3
# Si number density = 27.588287 Si / 1000 Ang^3
#
#
#
# Elastic Constant Matrix: (Units=GPa)
#
#
# Indices 1 2 3 4 5 6 
#
# 1 144.6866 41.8839 54.0309 0.0000 -0.5944 0.0000
# 2 41.8839 112.1705 30.8488 0.0000 7.0892 0.0000
# 3 54.0309 30.8488 162.3853 0.0000 -21.0087 0.0000
# 4 0.0000 0.0000 0.0000 13.7559 0.0000 -9.6502
# 5 -0.5944 7.0892 -21.0087 0.0000 81.1863 0.0000
# 6 0.0000 0.0000 0.0000 -9.6502 0.0000 42.1398
#
#
#
# Elastic Compliance Matrix: (Units=1/GPa)
#
#
# Indices 1 2 3 4 5 6 
#
# 1 0.008534 -0.002503 -0.002408 0.000000 -0.000342 0.000000
# 2 -0.002503 0.010281 -0.001282 0.000000 -0.001248 0.000000
# 3 -0.002408 -0.001282 0.007465 0.000000 0.002026 0.000000
# 4 0.000000 0.000000 0.000000 0.086611 0.000000 0.019834
# 5 -0.000342 -0.001248 0.002026 0.000000 0.012948 0.000000
# 6 0.000000 0.000000 0.000000 0.019834 0.000000 0.028273
#
#
# Mechanical properties :
#
#
# Convention : Reuss Voigt Hill
#
# Bulk Modulus (GPa) = 71.97138 74.75219 73.36179
# Shear Modulus (GPa) = 29.21789 46.91500 38.06644
#
# Velocity S-wave (km/s) = 3.25786 4.12823 3.71860
# Velocity P-wave (km/s) = 6.34790 7.06240 6.71466
#
# Compressibility (1/GPa) = 0.01389441
#
# Stress axis : x y z
#
# Youngs Moduli (GPa) = 117.17997 97.26857 133.95540
#
# Poissons Ratio (x) = 0.24342 0.32261
# Poissons Ratio (y) = 0.29325 0.17171
# Poissons Ratio (z) = 0.28221 0.12468
#
# Static dielectric constant tensor:
#      x y z
#    x 2.102650 0.000000 -0.004560 
#    y 0.000000 2.116490 0.000000 
#    z -0.004560 0.000000 2.439830 
# 
# From -- ./inp_files/111375.got.cif
#   From: 2010.05.17/outbox.cif.g08.bks.cpg/sg15_56_cif.got.tgz:111375.got - 2010.06.03 18:47:42.
