data_PCOD9295357
_publ_section_title
;
Structure prediction by ZEFSAII (Michael W. Deem and Ramdas Pophale) SiO2 
 PCOD9295357
Probable space group: C 2/C
;
_chemical_formula_sum "Si O2"
_cell_formula_units_Z 48
_cell_length_a 26.496346
_cell_length_b 11.308592
_cell_length_c 18.911925
_cell_angle_alpha 90.000000
_cell_angle_beta 159.023966
_cell_angle_gamma 90.000000
_cell_volume 2028.550792
_symmetry_space_group_name_H-M "C 2/C"
_symmetry_group_IT_number 15
_symmetry_cell_setting 'monoclinic'
loop_
_space_group_symop_operation_xyz
x,y,z
-x,y,1/2-z
-x,-y,-z
x,-y,1/2+z
1/2+x,1/2+y,z
1/2-x,1/2+y,1/2-z
1/2-x,1/2-y,-z
1/2+x,1/2-y,1/2+z
loop_
_atom_site_type_symbol
_atom_site_label
_atom_site_fract_x
_atom_site_fract_y
_atom_site_fract_z
Si Si1 0.500000 0.410027 0.750000
Si Si2 0.526443 0.213815 0.663919
Si Si3 0.331273 0.195284 0.275358
Si Si4 0.868507 0.030377 0.413537
Si Si5 0.189958 0.055266 0.818747
Si Si6 0.000000 0.528757 0.750000
Si Si7 0.284993 0.044185 0.666421
O O1 0.527337 0.321662 0.719397
O O2 0.362515 0.489453 0.562227
O O3 0.434883 0.230868 0.474104
O O4 0.666809 0.160298 0.811336
O O5 0.478530 0.106837 0.651616
O O6 0.190470 0.151978 0.131039
O O7 0.312325 0.305466 0.200592
O O8 0.379393 0.073776 0.297631
O O9 0.034653 0.025812 0.646709
O O10 0.829055 0.015268 0.280526
O O11 0.769221 0.935010 0.324604
O O12 0.343320 0.029095 0.053369
#
# Coordination Sequence:
#
# PCOD9295357 Si02
#       7
#     4   8   8   8   8   4   8
#     4  11  24  39  66 102 134 175 216 283 346 388
#     4  11  23  41  66  99 136 174 222 279 334 391
#     4  10  23  42  69  97 128 184 226 271 326 406
#     4   9  23  43  69  95 135 180 226 273 333 412
#     4  11  22  44  69  98 134 179 228 279 334 401
#     4  11  24  41  66 102 140 169 220 285 336 390
#     4  10  23  43  63  97 134 172 225 274 332 398
#
# _framework density 23.662213000000001
#
# number of rings (size 3 to 8) (size 9 to 14) (size 15 to 20)
#    1.000    0.667    1.667    2.000    2.333    4.667 
#    3.000    1.667    0.000    0.000    0.000    0.000 
#    0.000    0.000    0.000    0.000    0.000    0.000 
#
# Total GULP energy -133626.962762 kJ/mol
# GULP energy per Si atom -5567.790115 kJ/mol
# Density = 2.360836 g / cm^3
# Si number density = 23.662213 Si / 1000 Ang^3
#
#
#
# Elastic Constant Matrix: (Units=GPa)
#
#
# Indices 1 2 3 4 5 6 
#
# 1 52.2982 16.0098 -9.8985 0.0000 16.5120 0.0000
# 2 16.0098 88.9396 19.5617 0.0000 -3.2010 0.0000
# 3 -9.8985 19.5617 86.2501 0.0000 6.1842 0.0000
# 4 0.0000 0.0000 0.0000 55.5165 0.0000 2.0817
# 5 16.5120 -3.2010 6.1842 0.0000 36.1185 0.0000
# 6 0.0000 0.0000 0.0000 2.0817 0.0000 9.6802
#
#
#
# Elastic Compliance Matrix: (Units=1/GPa)
#
#
# Indices 1 2 3 4 5 6 
#
# 1 0.026419 -0.006447 0.005468 0.000000 -0.013586 0.000000
# 2 -0.006447 0.013491 -0.004148 0.000000 0.004853 0.000000
# 3 0.005468 -0.004148 0.013534 0.000000 -0.005185 0.000000
# 4 0.000000 0.000000 0.000000 0.018159 0.000000 -0.003905
# 5 -0.013586 0.004853 -0.005185 0.000000 0.035215 0.000000
# 6 0.000000 0.000000 0.000000 -0.003905 0.000000 0.104144
#
#
# Mechanical properties :
#
#
# Convention : Reuss Voigt Hill
#
# Bulk Modulus (GPa) = 23.15292 30.98155 27.06724
# Shear Modulus (GPa) = 21.22125 33.71735 27.46930
#
# Velocity S-wave (km/s) = 2.99798 3.77894 3.41088
# Velocity P-wave (km/s) = 4.66796 5.67117 5.19384
#
# Compressibility (1/GPa) = 0.04319109
#
# Stress axis : x y z
#
# Youngs Moduli (GPa) = 37.85133 74.12295 73.88663
#
# Poissons Ratio (x) = 0.47790 -0.40404
# Poissons Ratio (y) = 0.24404 0.30646
# Poissons Ratio (z) = -0.20699 0.30744
#
# Static dielectric constant tensor:
#      x y z
#    x 2.030090 0.000000 0.020760 
#    y 0.000000 1.913830 0.000000 
#    z 0.020760 0.000000 1.941000 
# 
# From -- ./inp_files/259273.got.cif
#   From: 2010.05.17/outbox.cif.g08.bks.cpg/sg15_130_cif.got.tgz:259273.got - 2010.06.03 18:47:42.
