data_PCOD9295205
_publ_section_title
;
Structure prediction by ZEFSAII (Michael W. Deem and Ramdas Pophale) SiO2 
 PCOD9295205
Probable space group: C 2/C
;
_chemical_formula_sum "Si O2"
_cell_formula_units_Z 56
_cell_length_a 15.133166
_cell_length_b 19.122883
_cell_length_c 8.322848
_cell_angle_alpha 90.000000
_cell_angle_beta 109.421486
_cell_angle_gamma 90.000000
_cell_volume 2271.495941
_symmetry_space_group_name_H-M "C 2/C"
_symmetry_group_IT_number 15
_symmetry_cell_setting 'monoclinic'
loop_
_space_group_symop_operation_xyz
x,y,z
-x,y,1/2-z
-x,-y,-z
x,-y,1/2+z
1/2+x,1/2+y,z
1/2-x,1/2+y,1/2-z
1/2-x,1/2-y,-z
1/2+x,1/2-y,1/2+z
loop_
_atom_site_type_symbol
_atom_site_label
_atom_site_fract_x
_atom_site_fract_y
_atom_site_fract_z
Si Si1 0.310557 0.523712 0.657699
Si Si2 0.762669 0.786946 0.837192
Si Si3 0.980683 0.644543 0.927232
Si Si4 0.065406 0.935005 0.566913
Si Si5 0.479919 0.703647 0.546257
Si Si6 0.164830 0.409127 0.604033
Si Si7 0.225983 0.644659 0.795773
O O1 0.376234 0.457462 0.742113
O O2 0.357507 0.559610 0.531408
O O3 0.209556 0.485393 0.606300
O O4 0.297801 0.586576 0.776558
O O5 0.706731 0.857677 0.766115
O O6 0.738568 0.723978 0.700739
O O7 0.750000 0.750000 0.000000
O O8 0.873118 0.800818 0.912269
O O9 0.868614 0.638877 0.872413
O O10 0.000000 0.640189 0.750000
O O11 0.012753 0.721150 0.007597
O O12 0.052400 0.590848 0.052220
O O13 0.994163 0.869962 0.515287
O O14 0.000000 0.000000 0.500000
O O15 0.500000 0.699936 0.750000
O O16 0.195182 0.370875 0.457395
#
# Coordination Sequence:
#
# PCOD9295205 Si02
#       7
#     8   8   8   8   8   8   8
#     4  12  24  44  68  96 133 182 227 279 347 412
#     4  11  22  38  67  95 129 176 224 280 339 403
#     4   9  22  42  67  97 130 177 223 277 339 401
#     4  12  26  44  65  96 133 178 226 279 347 410
#     4  11  22  41  60  93 133 168 219 276 335 395
#     4  11  22  43  66  96 137 174 230 279 343 407
#     4  10  23  42  66  96 135 175 228 279 338 411
#
# _framework density 24.653357
#
# number of rings (size 3 to 8) (size 9 to 14) (size 15 to 20)
#    0.000    1.143    2.857    3.429    0.000    2.857 
#    2.571    0.000    0.000    0.000    0.000    0.000 
#    0.000    0.000    0.000    0.000    0.000    0.000 
#
# Total GULP energy -156245.698106 kJ/mol
# GULP energy per Si atom -5580.203504 kJ/mol
# Density = 2.459724 g / cm^3
# Si number density = 24.653357 Si / 1000 Ang^3
#
#
#
# Elastic Constant Matrix: (Units=GPa)
#
#
# Indices 1 2 3 4 5 6 
#
# 1 61.3144 24.0055 8.5886 0.0000 14.0211 0.0000
# 2 24.0055 71.2105 6.1158 0.0000 20.3532 0.0000
# 3 8.5886 6.1158 64.8570 0.0000 7.3543 0.0000
# 4 0.0000 0.0000 0.0000 24.8653 0.0000 -0.5429
# 5 14.0211 20.3532 7.3543 0.0000 32.7843 0.0000
# 6 0.0000 0.0000 0.0000 -0.5429 0.0000 43.4005
#
#
#
# Elastic Compliance Matrix: (Units=1/GPa)
#
#
# Indices 1 2 3 4 5 6 
#
# 1 0.019639 -0.005089 -0.001566 0.000000 -0.004889 0.000000
# 2 -0.005089 0.018402 -0.000013 0.000000 -0.009245 0.000000
# 3 -0.001566 -0.000013 0.015956 0.000000 -0.002901 0.000000
# 4 0.000000 0.000000 0.000000 0.040228 0.000000 0.000503
# 5 -0.004889 -0.009245 -0.002901 0.000000 0.038983 0.000000
# 6 0.000000 0.000000 0.000000 0.000503 0.000000 0.023047
#
#
# Mechanical properties :
#
#
# Convention : Reuss Voigt Hill
#
# Bulk Modulus (GPa) = 24.59383 30.53351 27.56367
# Shear Modulus (GPa) = 27.30070 30.78816 29.04443
#
# Velocity S-wave (km/s) = 3.33135 3.53773 3.43609
# Velocity P-wave (km/s) = 4.97942 5.39439 5.19105
#
# Compressibility (1/GPa) = 0.04066060
#
# Stress axis : x y z
#
# Youngs Moduli (GPa) = 50.91909 54.34257 62.67160
#
# Poissons Ratio (x) = 0.27653 0.09817
# Poissons Ratio (y) = 0.25911 0.00082
# Poissons Ratio (z) = 0.07976 0.00071
#
# Static dielectric constant tensor:
#      x y z
#    x 1.826620 0.000000 -0.091270 
#    y 0.000000 1.905900 0.000000 
#    z -0.091270 0.000000 1.886480 
# 
# From -- ./inp_files/49115.got.cif
#   From: 2010.05.17/outbox.cif.g08.bks.cpg/sg15_25_cif.got.tgz:49115.got - 2010.06.03 18:47:42.
