data_PCOD9295648
_publ_section_title
;
Structure prediction by ZEFSAII (Michael W. Deem and Ramdas Pophale) SiO2 
 PCOD9295648
Probable space group: C 2/C
;
_chemical_formula_sum "Si O2"
_cell_formula_units_Z 36
_cell_length_a 23.465489
_cell_length_b 5.164439
_cell_length_c 12.693098
_cell_angle_alpha 90.000000
_cell_angle_beta 110.649508
_cell_angle_gamma 90.000000
_cell_volume 1439.403745
_symmetry_space_group_name_H-M "C 2/C"
_symmetry_group_IT_number 15
_symmetry_cell_setting 'monoclinic'
loop_
_space_group_symop_operation_xyz
x,y,z
-x,y,1/2-z
-x,-y,-z
x,-y,1/2+z
1/2+x,1/2+y,z
1/2-x,1/2+y,1/2-z
1/2-x,1/2-y,-z
1/2+x,1/2-y,1/2+z
loop_
_atom_site_type_symbol
_atom_site_label
_atom_site_fract_x
_atom_site_fract_y
_atom_site_fract_z
Si Si1 0.831157 0.599160 0.335951
Si Si2 0.194886 0.905033 0.822193
Si Si3 0.886441 0.958972 0.534487
Si Si4 0.038702 0.255948 0.056889
Si Si5 0.000000 0.145205 0.250000
O O1 0.827456 0.358849 0.250384
O O2 0.767722 0.584755 0.358588
O O3 0.880317 0.708518 0.454397
O O4 0.829116 0.849245 0.258222
O O5 0.170597 0.943387 0.924772
O O6 0.944664 0.986009 0.650808
O O7 0.897983 0.196576 0.461604
O O8 0.037727 0.283641 0.182264
O O9 0.000000 0.500000 0.000000
O O10 0.000000 0.000000 0.000000
#
# Coordination Sequence:
#
# PCOD9295648 Si02
#       5
#     8   8   8   8   4
#     4  10  23  43  67 102 140 180 233 293 355 416
#     4  10  23  43  69 101 139 181 234 295 353 417
#     4  11  23  43  70  99 136 187 234 286 350 420
#     4  10  24  43  63  92 129 173 224 276 333 400
#     4  10  24  42  64  94 134 174 224 282 338 410
#
# _framework density 25.010355000000001
#
# number of rings (size 3 to 8) (size 9 to 14) (size 15 to 20)
#    0.000    1.778    0.000    2.000    0.000   16.000 
#    0.000    6.667    0.000    0.000    0.000    0.000 
#    0.000    0.000    0.000    0.000    0.000    0.000 
#
# Total GULP energy -100279.938436 kJ/mol
# GULP energy per Si atom -5571.107691 kJ/mol
# Density = 2.495343 g / cm^3
# Si number density = 25.010355 Si / 1000 Ang^3
#
#
#
# Elastic Constant Matrix: (Units=GPa)
#
#
# Indices 1 2 3 4 5 6 
#
# 1 148.6343 49.1147 51.1304 0.0000 -48.6980 0.0000
# 2 49.1147 138.3444 -5.3090 0.0000 -34.2432 0.0000
# 3 51.1304 -5.3090 95.0491 0.0000 -45.0935 0.0000
# 4 0.0000 0.0000 0.0000 -3.2245 0.0000 10.6938
# 5 -48.6980 -34.2432 -45.0935 0.0000 63.7021 0.0000
# 6 0.0000 0.0000 0.0000 10.6938 0.0000 25.1357
#
#
#
# Elastic Compliance Matrix: (Units=1/GPa)
#
#
# Indices 1 2 3 4 5 6 
#
# 1 0.010193 -0.002952 -0.004072 0.000000 0.003323 0.000000
# 2 -0.002952 0.010280 0.005591 0.000000 0.007227 0.000000
# 3 -0.004072 0.005591 0.019532 0.000000 0.013719 0.000000
# 4 0.000000 0.000000 0.000000 -0.128632 0.000000 0.054726
# 5 0.003323 0.007227 0.013719 0.000000 0.031834 0.000000
# 6 0.000000 0.000000 0.000000 0.054726 0.000000 0.016501
#
#
# Mechanical properties :
#
#
# Convention : Reuss Voigt Hill
#
# Bulk Modulus (GPa) = 26.92638 63.54447 45.23543
# Shear Modulus (GPa) = -199.63265 36.26211 -81.68527
#
# Velocity S-wave (km/s) = -8.94390 3.81186 -5.72114
# Velocity P-wave (km/s) = 9.79123 6.69598 5.05134
#
# Compressibility (1/GPa) = 0.03713830
#
# Stress axis : x y z
#
# Youngs Moduli (GPa) = 98.10832 97.27840 51.19771
#
# Poissons Ratio (x) = 0.28721 0.20846
# Poissons Ratio (y) = 0.28966 -0.28624
# Poissons Ratio (z) = 0.39946 -0.54387
#
# Static dielectric constant tensor:
#      x y z
#    x 2.084150 0.000000 -0.061760 
#    y 0.000000 1.931590 0.000000 
#    z -0.061760 0.000000 1.888380 
# 
# From -- ./inp_files/120934.got.cif
#   From: 2010.05.17/outbox.cif.g08.bks.cpg/sg15_61_cif.got.tgz:120934.got - 2010.06.03 18:47:42.
