data_PCOD9295736
_publ_section_title
;
Structure prediction by ZEFSAII (Michael W. Deem and Ramdas Pophale) SiO2 
 PCOD9295736
Probable space group: C 2/C
;
_chemical_formula_sum "Si O2"
_cell_formula_units_Z 52
_cell_length_a 12.906622
_cell_length_b 11.758741
_cell_length_c 17.841493
_cell_angle_alpha 90.000000
_cell_angle_beta 57.251067
_cell_angle_gamma 90.000000
_cell_volume 2277.329927
_symmetry_space_group_name_H-M "C 2/C"
_symmetry_group_IT_number 15
_symmetry_cell_setting 'monoclinic'
loop_
_space_group_symop_operation_xyz
x,y,z
-x,y,1/2-z
-x,-y,-z
x,-y,1/2+z
1/2+x,1/2+y,z
1/2-x,1/2+y,1/2-z
1/2-x,1/2-y,-z
1/2+x,1/2-y,1/2+z
loop_
_atom_site_type_symbol
_atom_site_label
_atom_site_fract_x
_atom_site_fract_y
_atom_site_fract_z
Si Si1 0.493534 0.583818 0.074029
Si Si2 0.281081 0.472094 0.765708
Si Si3 0.960564 0.288007 0.516937
Si Si4 0.756617 0.935210 0.950756
Si Si5 0.307681 0.292775 0.208943
Si Si6 0.000000 0.732064 0.250000
Si Si7 0.157547 0.648305 0.056903
O O1 0.409145 0.532319 0.171156
O O2 0.621190 0.620054 0.064121
O O3 0.500000 0.500000 0.000000
O O4 0.446814 0.705306 0.062433
O O5 0.280962 0.477394 0.856074
O O6 0.225438 0.593641 0.756520
O O7 0.232020 0.341730 0.769338
O O8 0.868828 0.364094 0.504979
O O9 0.869683 0.208568 0.602599
O O10 0.044967 0.357281 0.541504
O O11 0.735699 0.036810 0.016199
O O12 0.416480 0.303986 0.226961
O O13 0.906419 0.662318 0.338345
O O14 0.250000 0.750000 0.000000
#
# Coordination Sequence:
#
# PCOD9295736 Si02
#       7
#     8   8   8   8   8   4   8
#     4  12  24  41  70  99 134 181 241 285 346 422
#     4  11  25  43  70 102 139 185 234 289 352 423
#     4  10  23  44  63  97 135 182 224 292 352 419
#     4  11  25  43  69  96 143 184 227 293 361 416
#     4  10  23  43  68  96 140 174 233 288 349 416
#     4  10  24  40  68 104 138 178 240 292 350 424
#     4  11  23  41  71 101 137 183 235 295 356 416
#
# _framework density 22.833758
#
# number of rings (size 3 to 8) (size 9 to 14) (size 15 to 20)
#    0.000    1.231    1.538    3.231   10.769    0.000 
#    0.000    0.000    0.000    0.000    0.000    0.000 
#    0.000    0.000    0.000    0.000    0.000    0.000 
#
# Total GULP energy -144967.192406 kJ/mol
# GULP energy per Si atom -5575.661246 kJ/mol
# Density = 2.278179 g / cm^3
# Si number density = 22.833758 Si / 1000 Ang^3
#
#
#
# Elastic Constant Matrix: (Units=GPa)
#
#
# Indices 1 2 3 4 5 6 
#
# 1 57.6127 5.7007 -0.4074 0.0000 3.5998 0.0000
# 2 5.7007 125.5188 34.3166 0.0000 0.3954 0.0000
# 3 -0.4074 34.3166 114.5041 0.0000 -5.3469 0.0000
# 4 0.0000 0.0000 0.0000 31.5954 0.0000 -10.2762
# 5 3.5998 0.3954 -5.3469 0.0000 18.4398 0.0000
# 6 0.0000 0.0000 0.0000 -10.2762 0.0000 24.6721
#
#
#
# Elastic Compliance Matrix: (Units=1/GPa)
#
#
# Indices 1 2 3 4 5 6 
#
# 1 0.017652 -0.000833 0.000155 0.000000 -0.003383 0.000000
# 2 -0.000833 0.008734 -0.002658 0.000000 -0.000795 0.000000
# 3 0.000155 -0.002658 0.009662 0.000000 0.002829 0.000000
# 4 0.000000 0.000000 0.000000 0.036610 0.000000 0.015248
# 5 -0.003383 -0.000795 0.002829 0.000000 0.055728 0.000000
# 6 0.000000 0.000000 0.000000 0.015248 0.000000 0.046883
#
#
# Mechanical properties :
#
#
# Convention : Reuss Voigt Hill
#
# Bulk Modulus (GPa) = 34.04163 41.87281 37.95722
# Shear Modulus (GPa) = 26.07783 32.14317 29.11050
#
# Velocity S-wave (km/s) = 3.38312 3.75601 3.57443
# Velocity P-wave (km/s) = 5.49559 6.09820 5.80472
#
# Compressibility (1/GPa) = 0.02937580
#
# Stress axis : x y z
#
# Youngs Moduli (GPa) = 56.65006 114.49673 103.49361
#
# Poissons Ratio (x) = 0.09541 -0.01600
# Poissons Ratio (y) = 0.04721 0.27505
# Poissons Ratio (z) = -0.00876 0.30429
#
# Static dielectric constant tensor:
#      x y z
#    x 1.779460 0.000000 -0.055800 
#    y 0.000000 1.956380 0.000000 
#    z -0.055800 0.000000 1.812930 
# 
# From -- ./inp_files/203886.got.cif
#   From: 2010.05.17/outbox.cif.g08.bks.cpg/sg15_102_cif.got.tgz:203886.got - 2010.06.03 18:47:42.
