data_PCOD9295674
_publ_section_title
;
Structure prediction by ZEFSAII (Michael W. Deem and Ramdas Pophale) SiO2 
 PCOD9295674
Probable space group: C 2/C
;
_chemical_formula_sum "Si O2"
_cell_formula_units_Z 44
_cell_length_a 4.843968
_cell_length_b 14.836318
_cell_length_c 26.961849
_cell_angle_alpha 90.000000
_cell_angle_beta 94.654770
_cell_angle_gamma 90.000000
_cell_volume 1931.266894
_symmetry_space_group_name_H-M "C 2/C"
_symmetry_group_IT_number 15
_symmetry_cell_setting 'monoclinic'
loop_
_space_group_symop_operation_xyz
x,y,z
-x,y,1/2-z
-x,-y,-z
x,-y,1/2+z
1/2+x,1/2+y,z
1/2-x,1/2+y,1/2-z
1/2-x,1/2-y,-z
1/2+x,1/2-y,1/2+z
loop_
_atom_site_type_symbol
_atom_site_label
_atom_site_fract_x
_atom_site_fract_y
_atom_site_fract_z
Si Si1 0.344300 0.250058 0.703247
Si Si2 0.041184 0.379851 0.863456
Si Si3 0.653197 0.267749 0.443284
Si Si4 0.000000 0.902896 0.250000
Si Si5 0.621162 0.150743 0.894019
Si Si6 0.523456 0.500137 0.350078
O O1 0.500000 0.299726 0.750000
O O2 0.479272 0.205655 0.656373
O O3 0.109994 0.311693 0.675809
O O4 0.220645 0.164220 0.729857
O O5 0.166549 0.324259 0.911372
O O6 0.301405 0.421355 0.839278
O O7 0.804909 0.453829 0.875151
O O8 0.750000 0.250000 0.500000
O O9 0.333555 0.293918 0.431510
O O10 0.841521 0.348006 0.422206
O O11 0.107132 0.959168 0.298294
O O12 0.822865 0.070109 0.877499
#
# Coordination Sequence:
#
# PCOD9295674 Si02
#       6
#     8   8   8   4   8   8
#     4  10  24  39  66  92 132 177 227 254 320 396
#     4  11  25  43  64  97 135 167 222 288 321 390
#     4  11  23  46  72  96 123 175 230 275 333 402
#     4  10  26  38  64  90 134 188 218 252 326 416
#     4  10  23  43  67  95 133 173 213 274 329 402
#     4  11  25  44  62  98 143 170 218 273 344 385
#
# _framework density 22.782975
#
# number of rings (size 3 to 8) (size 9 to 14) (size 15 to 20)
#    0.000    1.455    0.000    3.818   16.545    0.000 
#    0.000    5.455    0.000    0.000    0.000    0.000 
#    0.000    0.000    0.000    0.000    0.000    0.000 
#
# Total GULP energy -122724.442029 kJ/mol
# GULP energy per Si atom -5578.383729 kJ/mol
# Density = 2.273112 g / cm^3
# Si number density = 22.782975 Si / 1000 Ang^3
#
#
#
# Elastic Constant Matrix: (Units=GPa)
#
#
# Indices 1 2 3 4 5 6 
#
# 1 103.7631 23.2532 44.9003 0.0000 -2.3306 0.0000
# 2 23.2532 80.4559 53.2604 0.0000 -0.6248 0.0000
# 3 44.9003 53.2604 166.1192 0.0000 25.1889 0.0000
# 4 0.0000 0.0000 0.0000 -4.1411 0.0000 11.4044
# 5 -2.3306 -0.6248 25.1889 0.0000 22.3540 0.0000
# 6 0.0000 0.0000 0.0000 11.4044 0.0000 46.5459
#
#
#
# Elastic Compliance Matrix: (Units=1/GPa)
#
#
# Indices 1 2 3 4 5 6 
#
# 1 0.011525 -0.000888 -0.003629 0.000000 0.005266 0.000000
# 2 -0.000888 0.016933 -0.006328 0.000000 0.007511 0.000000
# 3 -0.003629 -0.006328 0.010992 0.000000 -0.012941 0.000000
# 4 0.000000 0.000000 0.000000 -0.144189 0.000000 0.035328
# 5 0.005266 0.007511 -0.012941 0.000000 0.060076 0.000000
# 6 0.000000 0.000000 0.000000 0.035328 0.000000 0.012828
#
#
# Mechanical properties :
#
#
# Convention : Reuss Voigt Hill
#
# Bulk Modulus (GPa) = 56.30504 65.90735 61.10619
# Shear Modulus (GPa) = -1183.18795 28.21338 -577.48728
#
# Velocity S-wave (km/s) = -22.81353 3.52284 -15.93811
# Velocity P-wave (km/s) = 25.86843 6.74821 17.65839
#
# Compressibility (1/GPa) = 0.01776040
#
# Stress axis : x y z
#
# Youngs Moduli (GPa) = 86.76904 59.05582 90.97726
#
# Poissons Ratio (x) = 0.05243 0.33015
# Poissons Ratio (y) = 0.07703 0.57571
# Poissons Ratio (z) = 0.31488 0.37371
#
# Static dielectric constant tensor:
#      x y z
#    x 2.385870 0.000000 -0.540910 
#    y 0.000000 1.967870 0.000000 
#    z -0.540910 0.000000 2.392650 
# 
# From -- ./inp_files/260440.got.cif
#   From: 2010.05.17/outbox.cif.g08.bks.cpg/sg15_131_cif.got.tgz:260440.got - 2010.06.03 18:47:42.
