data_PCOD9295137
_publ_section_title
;
Structure prediction by ZEFSAII (Michael W. Deem and Ramdas Pophale) SiO2 
 PCOD9295137
Probable space group: C 2/C
;
_chemical_formula_sum "Si O2"
_cell_formula_units_Z 48
_cell_length_a 14.212134
_cell_length_b 27.275310
_cell_length_c 8.094889
_cell_angle_alpha 90.000000
_cell_angle_beta 39.081623
_cell_angle_gamma 90.000000
_cell_volume 1978.220052
_symmetry_space_group_name_H-M "C 2/C"
_symmetry_group_IT_number 15
_symmetry_cell_setting 'monoclinic'
loop_
_space_group_symop_operation_xyz
x,y,z
-x,y,1/2-z
-x,-y,-z
x,-y,1/2+z
1/2+x,1/2+y,z
1/2-x,1/2+y,1/2-z
1/2-x,1/2-y,-z
1/2+x,1/2-y,1/2+z
loop_
_atom_site_type_symbol
_atom_site_label
_atom_site_fract_x
_atom_site_fract_y
_atom_site_fract_z
Si Si1 0.077438 0.696484 0.471726
Si Si2 0.340249 0.638554 0.278346
Si Si3 0.184049 0.362047 0.340848
Si Si4 0.911529 0.202378 0.697841
Si Si5 0.338987 0.034552 0.477137
Si Si6 0.142081 0.040815 0.441396
O O1 0.201596 0.658171 0.359541
O O2 0.138132 0.744619 0.298616
O O3 0.954074 0.671311 0.525115
O O4 0.000000 0.712044 0.750000
O O5 0.286847 0.632562 0.537921
O O6 0.393891 0.587982 0.122096
O O7 0.463963 0.680225 0.094315
O O8 0.275731 0.335588 0.362068
O O9 0.136682 0.416262 0.453130
O O10 0.000000 0.203963 0.750000
O O11 0.500000 0.008115 0.250000
O O12 0.277442 0.050235 0.383534
O O13 0.209655 0.002112 0.736746
O O14 0.000000 0.028989 0.750000
#
# Coordination Sequence:
#
# PCOD9295137 Si02
#       6
#     8   8   8   8   8   8
#     4  10  23  42  65  94 130 175 226 278 335 400
#     4  11  23  43  68  96 132 175 225 279 338 401
#     4  11  24  43  68  96 132 177 224 278 339 400
#     4  12  25  40  63  97 135 177 226 278 334 399
#     4  12  26  45  70 100 137 178 226 280 341 407
#     4  12  26  45  70 101 138 177 226 281 341 408
#
# _framework density 24.264237999999999
#
# number of rings (size 3 to 8) (size 9 to 14) (size 15 to 20)
#    0.000    0.667    0.000    8.000    0.000   10.667 
#    0.000    0.000    0.000    0.000    0.000    0.000 
#    0.000    0.000    0.000    0.000    0.000    0.000 
#
# Total GULP energy -134565.713605 kJ/mol
# GULP energy per Si atom -5606.904734 kJ/mol
# Density = 2.420901 g / cm^3
# Si number density = 24.264238 Si / 1000 Ang^3
#
#
#
# Elastic Constant Matrix: (Units=GPa)
#
#
# Indices 1 2 3 4 5 6 
#
# 1 125.6692 17.0158 15.6225 0.0000 4.0941 0.0000
# 2 17.0158 110.4416 39.8967 0.0000 19.2419 0.0000
# 3 15.6225 39.8967 99.2901 0.0000 9.7241 0.0000
# 4 0.0000 0.0000 0.0000 42.8186 0.0000 10.7553
# 5 4.0941 19.2419 9.7241 0.0000 34.7236 0.0000
# 6 0.0000 0.0000 0.0000 10.7553 0.0000 28.3799
#
#
#
# Elastic Compliance Matrix: (Units=1/GPa)
#
#
# Indices 1 2 3 4 5 6 
#
# 1 0.008199 -0.000898 -0.000908 0.000000 -0.000215 0.000000
# 2 -0.000898 0.011534 -0.003987 0.000000 -0.005169 0.000000
# 3 -0.000908 -0.003987 0.011916 0.000000 -0.001021 0.000000
# 4 0.000000 0.000000 0.000000 0.025811 0.000000 -0.009782
# 5 -0.000215 -0.005169 -0.001021 0.000000 0.031974 0.000000
# 6 0.000000 0.000000 0.000000 -0.009782 0.000000 0.038943
#
#
# Mechanical properties :
#
#
# Convention : Reuss Voigt Hill
#
# Bulk Modulus (GPa) = 49.84266 53.38564 51.61415
# Shear Modulus (GPa) = 34.09442 38.70884 36.40163
#
# Velocity S-wave (km/s) = 3.75257 3.99846 3.87747
# Velocity P-wave (km/s) = 6.27391 6.58532 6.43150
#
# Compressibility (1/GPa) = 0.02006313
#
# Stress axis : x y z
#
# Youngs Moduli (GPa) = 121.96824 86.70222 83.91782
#
# Poissons Ratio (x) = 0.07783 0.07622
# Poissons Ratio (y) = 0.10948 0.33458
# Poissons Ratio (z) = 0.11078 0.34568
#
# Static dielectric constant tensor:
#      x y z
#    x 1.904020 0.000000 -0.011640 
#    y 0.000000 1.840320 0.000000 
#    z -0.011640 0.000000 1.984930 
# 
# From -- ./inp_files/43831.got.cif
#   From: 2010.05.17/outbox.cif.g08.bks.cpg/sg15_22_cif.got.tgz:43831.got - 2010.06.03 18:47:42.
