data_PCOD9295106
_publ_section_title
;
Structure prediction by ZEFSAII (Michael W. Deem and Ramdas Pophale) SiO2 
 PCOD9295106
Probable space group: C 2/C
;
_chemical_formula_sum "Si O2"
_cell_formula_units_Z 40
_cell_length_a 22.874355
_cell_length_b 5.134232
_cell_length_c 14.072562
_cell_angle_alpha 90.000000
_cell_angle_beta 117.038231
_cell_angle_gamma 90.000000
_cell_volume 1472.077334
_symmetry_space_group_name_H-M "C 2/C"
_symmetry_group_IT_number 15
_symmetry_cell_setting 'monoclinic'
loop_
_space_group_symop_operation_xyz
x,y,z
-x,y,1/2-z
-x,-y,-z
x,-y,1/2+z
1/2+x,1/2+y,z
1/2-x,1/2+y,1/2-z
1/2-x,1/2-y,-z
1/2+x,1/2-y,1/2+z
loop_
_atom_site_type_symbol
_atom_site_label
_atom_site_fract_x
_atom_site_fract_y
_atom_site_fract_z
Si Si1 0.496865 0.620917 0.652640
Si Si2 0.194237 0.773043 0.805604
Si Si3 0.784551 0.774249 0.889877
Si Si4 0.122679 0.490383 0.916870
Si Si5 0.441238 0.782993 0.963013
O O1 0.500000 0.455180 0.750000
O O2 0.447553 0.851663 0.646122
O O3 0.564467 0.705435 0.651568
O O4 0.463412 0.455427 0.545751
O O5 0.174371 0.760260 0.679572
O O6 0.249561 0.552035 0.861590
O O7 0.141728 0.682389 0.846084
O O8 0.229213 0.049693 0.844289
O O9 0.825144 0.731295 0.016415
O O10 0.118634 0.622770 0.018342
O O11 0.500000 0.000000 0.000000
#
# Coordination Sequence:
#
# PCOD9295106 Si02
#       5
#     8   8   8   8   8
#     4  10  23  43  65  94 131 169 223 278 331 395
#     4  10  23  42  64  99 132 177 217 281 334 404
#     4  10  23  42  64  97 139 167 227 278 331 403
#     4  11  23  38  69  92 128 178 218 272 342 396
#     4   9  22  43  60  94 128 168 216 277 329 396
#
# _framework density 27.172488000000001
#
# number of rings (size 3 to 8) (size 9 to 14) (size 15 to 20)
#    0.000    2.000    0.000    1.200    8.400    3.200 
#    7.200    0.000    0.000    0.000    0.000    0.000 
#    0.000    0.000    0.000    0.000    0.000    0.000 
#
# Total GULP energy -111813.597079 kJ/mol
# GULP energy per Si atom -5590.679854 kJ/mol
# Density = 2.711064 g / cm^3
# Si number density = 27.172488 Si / 1000 Ang^3
#
#
#
# Elastic Constant Matrix: (Units=GPa)
#
#
# Indices 1 2 3 4 5 6 
#
# 1 144.9823 44.2994 63.7580 0.0000 -55.1351 0.0000
# 2 44.2994 100.2836 11.0231 -0.0001 -10.9068 0.0001
# 3 63.7580 11.0231 116.8340 0.0000 -44.6803 0.0000
# 4 0.0000 -0.0001 0.0000 20.6284 0.0000 -8.8907
# 5 -55.1351 -10.9068 -44.6803 0.0000 62.8557 0.0000
# 6 0.0000 0.0001 0.0000 -8.8907 0.0000 56.9419
#
#
#
# Elastic Compliance Matrix: (Units=1/GPa)
#
#
# Indices 1 2 3 4 5 6 
#
# 1 0.012836 -0.004413 -0.003537 0.000000 0.007979 0.000000
# 2 -0.004413 0.011694 0.000825 0.000000 -0.001256 0.000000
# 3 -0.003537 0.000825 0.012744 0.000000 0.006100 0.000000
# 4 0.000000 0.000000 0.000000 0.051974 0.000000 0.008115
# 5 0.007979 -0.001256 0.006100 0.000000 0.027027 0.000000
# 6 0.000000 0.000000 0.000000 0.008115 0.000000 0.018829
#
#
# Mechanical properties :
#
#
# Convention : Reuss Voigt Hill
#
# Bulk Modulus (GPa) = 43.43442 66.69564 55.06503
# Shear Modulus (GPa) = 31.84134 44.28649 38.06391
#
# Velocity S-wave (km/s) = 3.42690 4.04149 3.74682
# Velocity P-wave (km/s) = 5.62829 6.81005 6.24718
#
# Compressibility (1/GPa) = 0.02302321
#
# Stress axis : x y z
#
# Youngs Moduli (GPa) = 77.90815 85.51340 78.46765
#
# Poissons Ratio (x) = 0.37741 0.27752
# Poissons Ratio (y) = 0.34384 -0.06473
# Poissons Ratio (z) = 0.27554 -0.07054
#
# Static dielectric constant tensor:
#      x y z
#    x 2.393140 0.000000 0.027800 
#    y 0.000000 2.257820 0.000000 
#    z 0.027800 0.000000 2.222250 
# 
# From -- ./inp_files/170496.got.cif
#   From: 2010.05.17/outbox.cif.g08.bks.cpg/sg15_86_cif.got.tgz:170496.got - 2010.06.03 18:47:42.
