data_PCOD9295479
_publ_section_title
;
Structure prediction by ZEFSAII (Michael W. Deem and Ramdas Pophale) SiO2 
 PCOD9295479
Probable space group: C 2/C
;
_chemical_formula_sum "Si O2"
_cell_formula_units_Z 60
_cell_length_a 7.567794
_cell_length_b 20.270053
_cell_length_c 19.164202
_cell_angle_alpha 90.000000
_cell_angle_beta 121.155952
_cell_angle_gamma 90.000000
_cell_volume 2515.753319
_symmetry_space_group_name_H-M "C 2/C"
_symmetry_group_IT_number 15
_symmetry_cell_setting 'monoclinic'
loop_
_space_group_symop_operation_xyz
x,y,z
-x,y,1/2-z
-x,-y,-z
x,-y,1/2+z
1/2+x,1/2+y,z
1/2-x,1/2+y,1/2-z
1/2-x,1/2-y,-z
1/2+x,1/2-y,1/2+z
loop_
_atom_site_type_symbol
_atom_site_label
_atom_site_fract_x
_atom_site_fract_y
_atom_site_fract_z
Si Si1 0.145963 0.636998 0.347406
Si Si2 0.733663 0.025311 0.042511
Si Si3 0.111158 0.486879 0.374512
Si Si4 0.187514 0.080380 0.842444
Si Si5 0.122637 0.840555 0.927906
Si Si6 0.557856 0.283214 0.344112
Si Si7 0.000000 0.394461 0.250000
Si Si8 0.296641 0.799444 0.115359
O O1 0.096516 0.565609 0.369715
O O2 0.387940 0.635533 0.380244
O O3 0.121828 0.708912 0.379407
O O4 0.000000 0.639376 0.250000
O O5 0.750213 0.098146 0.076145
O O6 0.866332 0.970595 0.107313
O O7 0.500000 0.000000 0.000000
O O8 0.770346 0.030927 0.967740
O O9 0.162814 0.448317 0.313779
O O10 0.887530 0.454331 0.348213
O O11 0.215503 0.154567 0.878831
O O12 0.000000 0.084118 0.750000
O O13 0.140008 0.775512 0.885256
O O14 0.204408 0.823745 0.022649
O O15 0.500000 0.278165 0.250000
O O16 0.371108 0.303157 0.356925
O O17 0.011974 0.341930 0.316273
#
# Coordination Sequence:
#
# PCOD9295479 Si02
#       8
#     8   8   8   8   8   8   4   8
#     4  11  27  45  70 109 157 196 253 320 379 470
#     4  10  24  45  72 104 150 190 251 314 381 453
#     4  11  24  44  70 106 148 196 252 314 382 461
#     4  10  23  42  74 101 141 197 258 316 383 460
#     4  11  27  49  71 114 154 197 262 311 401 457
#     4  10  24  47  71 108 146 193 261 309 388 451
#     4  12  22  44  74 100 146 196 252 304 386 458
#     4  11  27  45  79 108 147 205 251 330 381 469
#
# _framework density 23.849715
#
# number of rings (size 3 to 8) (size 9 to 14) (size 15 to 20)
#    0.000    1.333    2.000    1.600   13.067    3.200 
#    1.200    0.000    0.000    0.000    0.000    0.000 
#    0.000    0.000    0.000    0.000    0.000    0.000 
#
# Total GULP energy -167334.016893 kJ/mol
# GULP energy per Si atom -5577.800563 kJ/mol
# Density = 2.379543 g / cm^3
# Si number density = 23.849715 Si / 1000 Ang^3
#
#
#
# Elastic Constant Matrix: (Units=GPa)
#
#
# Indices 1 2 3 4 5 6 
#
# 1 104.4417 53.3899 9.3276 0.0000 4.5795 0.0000
# 2 53.3899 269.9370 41.6093 0.0000 2.2368 0.0000
# 3 9.3276 41.6093 94.1379 0.0000 -3.3446 0.0000
# 4 0.0000 0.0000 0.0000 46.2941 0.0000 -7.9112
# 5 4.5795 2.2368 -3.3446 0.0000 34.0892 0.0000
# 6 0.0000 0.0000 0.0000 -7.9112 0.0000 38.3288
#
#
#
# Elastic Compliance Matrix: (Units=1/GPa)
#
#
# Indices 1 2 3 4 5 6 
#
# 1 0.010712 -0.002079 -0.000190 0.000000 -0.001321 0.000000
# 2 -0.002079 0.004385 -0.001739 0.000000 -0.000179 0.000000
# 3 -0.000190 -0.001739 0.011455 0.000000 0.001263 0.000000
# 4 0.000000 0.000000 0.000000 0.022391 0.000000 0.004622
# 5 -0.001321 -0.000179 0.001263 0.000000 0.029648 0.000000
# 6 0.000000 0.000000 0.000000 0.004622 0.000000 0.027044
#
#
# Mechanical properties :
#
#
# Convention : Reuss Voigt Hill
#
# Bulk Modulus (GPa) = 53.94177 75.24112 64.59144
# Shear Modulus (GPa) = 41.72645 48.02175 44.87410
#
# Velocity S-wave (km/s) = 4.18731 4.49209 4.34237
# Velocity P-wave (km/s) = 6.78561 7.64994 7.23070
#
# Compressibility (1/GPa) = 0.01853851
#
# Stress axis : x y z
#
# Youngs Moduli (GPa) = 93.35214 228.04162 87.29901
#
# Poissons Ratio (x) = 0.47399 0.01655
# Poissons Ratio (y) = 0.19404 0.15178
# Poissons Ratio (z) = 0.01770 0.39649
#
# Static dielectric constant tensor:
#      x y z
#    x 2.104140 0.000000 -0.142850 
#    y 0.000000 1.985690 0.000000 
#    z -0.142850 0.000000 1.989580 
# 
# From -- ./inp_files/233080.got.cif
#   From: 2010.05.17/outbox.cif.g08.bks.cpg/sg15_117_cif.got.tgz:233080.got - 2010.06.03 18:47:42.
