data_PCOD9295349
_publ_section_title
;
Structure prediction by ZEFSAII (Michael W. Deem and Ramdas Pophale) SiO2 
 PCOD9295349
Probable space group: C 2/C
;
_chemical_formula_sum "Si O2"
_cell_formula_units_Z 36
_cell_length_a 11.121910
_cell_length_b 9.603551
_cell_length_c 16.900695
_cell_angle_alpha 90.000000
_cell_angle_beta 76.179716
_cell_angle_gamma 90.000000
_cell_volume 1752.900556
_symmetry_space_group_name_H-M "C 2/C"
_symmetry_group_IT_number 15
_symmetry_cell_setting 'monoclinic'
loop_
_space_group_symop_operation_xyz
x,y,z
-x,y,1/2-z
-x,-y,-z
x,-y,1/2+z
1/2+x,1/2+y,z
1/2-x,1/2+y,1/2-z
1/2-x,1/2-y,-z
1/2+x,1/2-y,1/2+z
loop_
_atom_site_type_symbol
_atom_site_label
_atom_site_fract_x
_atom_site_fract_y
_atom_site_fract_z
Si Si1 0.000000 0.504269 0.750000
Si Si2 0.277034 0.822133 0.727546
Si Si3 0.381101 0.552814 0.470529
Si Si4 0.172683 0.335152 0.101927
Si Si5 0.634408 0.576670 0.698677
O O1 0.099093 0.409154 0.779312
O O2 0.073066 0.596128 0.674935
O O3 0.268597 0.744705 0.644975
O O4 0.272944 0.701651 0.793837
O O5 0.170017 0.937770 0.742267
O O6 0.500000 0.500000 0.500000
O O7 0.253977 0.553682 0.541021
O O8 0.388444 0.715648 0.442658
O O9 0.367256 0.464164 0.392506
O O10 0.500000 0.620551 0.750000
#
# Coordination Sequence:
#
# PCOD9295349 Si02
#       5
#     4   8   8   8   8
#     4  12  24  40  72  96 134 174 216 278 330 396
#     4  11  23  40  68  98 128 174 229 271 323 395
#     4  10  23  42  69  95 136 174 220 275 330 396
#     4  10  24  44  63 100 134 172 221 276 329 393
#     4  11  23  41  69  95 129 174 222 274 328 391
#
# _framework density 20.537389000000001
#
# number of rings (size 3 to 8) (size 9 to 14) (size 15 to 20)
#    0.000    1.333    3.333    1.333    6.222    0.000 
#    0.000   13.333    0.000    0.000    0.000    0.000 
#    0.000    0.000    0.000    0.000    0.000    0.000 
#
# Total GULP energy -100539.812678 kJ/mol
# GULP energy per Si atom -5585.545149 kJ/mol
# Density = 2.049064 g / cm^3
# Si number density = 20.537389 Si / 1000 Ang^3
#
#
#
# Elastic Constant Matrix: (Units=GPa)
#
#
# Indices 1 2 3 4 5 6 
#
# 1 84.8622 52.2396 52.6518 0.0000 18.3296 0.0000
# 2 52.2396 95.6346 60.7547 0.0000 9.1230 0.0000
# 3 52.6518 60.7547 118.3662 0.0000 -9.7018 0.0000
# 4 0.0000 0.0000 0.0000 0.0158 0.0000 6.8115
# 5 18.3296 9.1230 -9.7018 0.0000 37.0437 0.0000
# 6 0.0000 0.0000 0.0000 6.8115 0.0000 42.7567
#
#
#
# Elastic Compliance Matrix: (Units=1/GPa)
#
#
# Indices 1 2 3 4 5 6 
#
# 1 0.023402 -0.006511 -0.008059 0.000000 -0.012087 0.000000
# 2 -0.006511 0.018771 -0.007004 0.000000 -0.003236 0.000000
# 3 -0.008059 -0.007004 0.016449 0.000000 0.010020 0.000000
# 4 0.000000 0.000000 0.000000 -0.935212 0.000000 0.148986
# 5 -0.012087 -0.003236 0.010020 0.000000 0.036397 0.000000
# 6 0.000000 0.000000 0.000000 0.148986 0.000000 -0.000347
#
#
# Mechanical properties :
#
#
# Convention : Reuss Voigt Hill
#
# Bulk Modulus (GPa) = 64.61618 70.01724 67.31671
# Shear Modulus (GPa) = -6.31127 24.84436 9.26654
#
# Velocity S-wave (km/s) = -1.75492 3.48187 2.12646
# Velocity P-wave (km/s) = 5.23686 7.09444 6.23521
#
# Compressibility (1/GPa) = 0.01547600
#
# Stress axis : x y z
#
# Youngs Moduli (GPa) = 42.73076 53.27382 60.79304
#
# Poissons Ratio (x) = 0.34685 0.48991
# Poissons Ratio (y) = 0.27821 0.42578
# Poissons Ratio (z) = 0.34435 0.37312
#
# Static dielectric constant tensor:
#      x y z
#    x 1.745660 0.000000 -0.015740 
#    y 0.000000 1.749410 0.000000 
#    z -0.015740 0.000000 1.759760 
# 
# From -- ./inp_files/194945.got.cif
#   From: 2010.05.17/outbox.cif.g08.bks.cpg/sg15_98_cif.got.tgz:194945.got - 2010.06.03 18:47:42.
