data_PCOD9295464
_publ_section_title
;
Structure prediction by ZEFSAII (Michael W. Deem and Ramdas Pophale) SiO2 
 PCOD9295464
Probable space group: C 2/C
;
_chemical_formula_sum "Si O2"
_cell_formula_units_Z 40
_cell_length_a 7.948272
_cell_length_b 26.024861
_cell_length_c 12.628931
_cell_angle_alpha 90.000000
_cell_angle_beta 48.863310
_cell_angle_gamma 90.000000
_cell_volume 1967.454777
_symmetry_space_group_name_H-M "C 2/C"
_symmetry_group_IT_number 15
_symmetry_cell_setting 'monoclinic'
loop_
_space_group_symop_operation_xyz
x,y,z
-x,y,1/2-z
-x,-y,-z
x,-y,1/2+z
1/2+x,1/2+y,z
1/2-x,1/2+y,1/2-z
1/2-x,1/2-y,-z
1/2+x,1/2-y,1/2+z
loop_
_atom_site_type_symbol
_atom_site_label
_atom_site_fract_x
_atom_site_fract_y
_atom_site_fract_z
Si Si1 0.182161 0.842738 0.443225
Si Si2 0.655620 0.095155 0.423406
Si Si3 0.000000 0.994438 0.750000
Si Si4 0.803979 0.908165 0.265992
Si Si5 0.726016 0.176906 0.212347
Si Si6 0.500000 0.753303 0.250000
O O1 0.226819 0.870119 0.535940
O O2 0.253973 0.877975 0.315233
O O3 0.326078 0.791015 0.380444
O O4 0.916210 0.835459 0.547476
O O5 0.795168 0.042727 0.360458
O O6 0.407028 0.086165 0.569626
O O7 0.668422 0.127194 0.308988
O O8 0.088521 0.035566 0.800232
O O9 0.000000 0.879795 0.250000
O O10 0.500000 0.195076 0.250000
O O11 0.849537 0.218431 0.235586
#
# Coordination Sequence:
#
# PCOD9295464 Si02
#       6
#     8   8   4   8   8   4
#     4  12  23  45  71  97 141 183 226 290 344 405
#     4  12  21  48  68  98 144 181 228 289 346 405
#     4  10  23  42  72  98 142 178 243 274 342 420
#     4  10  24  40  66 104 133 181 233 281 337 412
#     4  12  27  45  73 103 138 185 230 288 347 415
#     4  12  25  46  72 102 138 182 237 278 356 406
#
# _framework density 20.330835
#
# number of rings (size 3 to 8) (size 9 to 14) (size 15 to 20)
#    0.600    0.000    6.000    2.400    0.000    2.400 
#    0.000    0.000    0.000    0.000    0.000    0.000 
#    0.000    0.000    0.000    0.000    0.000    0.000 
#
# Total GULP energy -111641.214257 kJ/mol
# GULP energy per Si atom -5582.060713 kJ/mol
# Density = 2.028456 g / cm^3
# Si number density = 20.330835 Si / 1000 Ang^3
#
#
#
# Elastic Constant Matrix: (Units=GPa)
#
#
# Indices 1 2 3 4 5 6 
#
# 1 116.4298 46.0251 49.3791 0.0000 -26.9300 0.0000
# 2 46.0251 112.6806 32.8200 0.0000 2.1663 0.0000
# 3 49.3791 32.8200 93.6667 0.0000 -19.6435 0.0000
# 4 0.0000 0.0000 0.0000 53.8202 0.0000 -16.1556
# 5 -26.9300 2.1663 -19.6435 0.0000 39.3794 0.0000
# 6 0.0000 0.0000 0.0000 -16.1556 0.0000 29.5307
#
#
#
# Elastic Compliance Matrix: (Units=1/GPa)
#
#
# Indices 1 2 3 4 5 6 
#
# 1 0.013965 -0.004658 -0.004102 0.000000 0.007760 0.000000
# 2 -0.004658 0.011669 -0.002720 0.000000 -0.005185 0.000000
# 3 -0.004102 -0.002720 0.014781 0.000000 0.004718 0.000000
# 4 0.000000 0.000000 0.000000 0.022231 0.000000 0.012162
# 5 0.007760 -0.005185 0.004718 0.000000 0.033339 0.000000
# 6 0.000000 0.000000 0.000000 0.012162 0.000000 0.040517
#
#
# Mechanical properties :
#
#
# Convention : Reuss Voigt Hill
#
# Bulk Modulus (GPa) = 57.29499 64.35841 60.82670
# Shear Modulus (GPa) = 30.25109 37.51627 33.88368
#
# Velocity S-wave (km/s) = 3.86157 4.30034 4.08685
# Velocity P-wave (km/s) = 6.93720 7.50877 7.22864
#
# Compressibility (1/GPa) = 0.01745353
#
# Stress axis : x y z
#
# Youngs Moduli (GPa) = 71.60687 85.69394 67.65262
#
# Poissons Ratio (x) = 0.39920 0.27754
# Poissons Ratio (y) = 0.33358 0.18404
# Poissons Ratio (z) = 0.29376 0.23312
#
# Static dielectric constant tensor:
#      x y z
#    x 1.733890 0.000000 -0.024120 
#    y 0.000000 1.722040 0.000000 
#    z -0.024120 0.000000 1.761280 
# 
# From -- ./inp_files/137117.got.cif
#   From: 2010.05.17/outbox.cif.g08.bks.cpg/sg15_69_cif.got.tgz:137117.got - 2010.06.03 18:47:42.
