data_PCOD9295561
_publ_section_title
;
Structure prediction by ZEFSAII (Michael W. Deem and Ramdas Pophale) SiO2 
 PCOD9295561
Probable space group: C 2/C
;
_chemical_formula_sum "Si O2"
_cell_formula_units_Z 52
_cell_length_a 17.658880
_cell_length_b 11.076687
_cell_length_c 13.152643
_cell_angle_alpha 90.000000
_cell_angle_beta 72.817509
_cell_angle_gamma 90.000000
_cell_volume 2457.859607
_symmetry_space_group_name_H-M "C 2/C"
_symmetry_group_IT_number 15
_symmetry_cell_setting 'monoclinic'
loop_
_space_group_symop_operation_xyz
x,y,z
-x,y,1/2-z
-x,-y,-z
x,-y,1/2+z
1/2+x,1/2+y,z
1/2-x,1/2+y,1/2-z
1/2-x,1/2-y,-z
1/2+x,1/2-y,1/2+z
loop_
_atom_site_type_symbol
_atom_site_label
_atom_site_fract_x
_atom_site_fract_y
_atom_site_fract_z
Si Si1 0.074153 0.824213 0.995314
Si Si2 0.106256 0.441877 0.532627
Si Si3 0.000000 0.554897 0.250000
Si Si4 0.184940 0.831029 0.469810
Si Si5 0.038533 0.946860 0.626986
Si Si6 0.252901 0.582196 0.120754
Si Si7 0.634504 0.131372 0.342112
O O1 0.166656 0.845790 0.932294
O O2 0.020857 0.882219 0.928225
O O3 0.063712 0.682447 0.017201
O O4 0.051664 0.911347 0.098021
O O5 0.051418 0.508396 0.640040
O O6 0.187077 0.404422 0.558241
O O7 0.122465 0.523944 0.428560
O O8 0.934531 0.628714 0.214012
O O9 0.250000 0.750000 0.500000
O O10 0.123672 0.885589 0.575151
O O11 0.138581 0.751192 0.406545
O O12 0.224603 0.941475 0.394780
O O13 0.000000 0.929765 0.750000
O O14 0.213863 0.614590 0.243921
#
# Coordination Sequence:
#
# PCOD9295561 Si02
#       7
#     8   8   4   8   8   8   8
#     4  10  23  43  64  97 132 167 229 274 333 404
#     4  11  22  42  65  98 132 172 221 277 340 404
#     4  10  24  42  60  98 128 174 218 266 340 396
#     4  11  23  45  68  97 139 174 228 279 333 408
#     4  10  24  43  68  96 130 180 221 277 338 395
#     4  10  24  41  66  99 128 177 223 275 342 400
#     4  11  24  42  68  95 135 176 221 282 338 408
#
# _framework density 21.156618999999999
#
# number of rings (size 3 to 8) (size 9 to 14) (size 15 to 20)
#    0.000    1.538    1.538    1.846    5.385    0.000 
#    8.308    0.000    0.000    0.000    0.000    0.000 
#    0.000    0.000    0.000    0.000    0.000    0.000 
#
# Total GULP energy -145290.644070 kJ/mol
# GULP energy per Si atom -5588.101695 kJ/mol
# Density = 2.110847 g / cm^3
# Si number density = 21.156619 Si / 1000 Ang^3
#
#
#
# Elastic Constant Matrix: (Units=GPa)
#
#
# Indices 1 2 3 4 5 6 
#
# 1 57.7288 -16.5582 19.3033 0.0000 -7.1184 0.0000
# 2 -16.5582 79.3188 33.9802 0.0000 0.7488 0.0000
# 3 19.3033 33.9802 123.3952 0.0000 -8.4796 0.0000
# 4 0.0000 0.0000 0.0000 9.8110 0.0000 0.1783
# 5 -7.1184 0.7488 -8.4796 0.0000 31.2459 0.0000
# 6 0.0000 0.0000 0.0000 0.1783 0.0000 22.8251
#
#
#
# Elastic Compliance Matrix: (Units=1/GPa)
#
#
# Indices 1 2 3 4 5 6 
#
# 1 0.021228 0.006489 -0.004877 0.000000 0.003357 0.000000
# 2 0.006489 0.016341 -0.005544 0.000000 -0.000418 0.000000
# 3 -0.004877 -0.005544 0.010523 0.000000 0.001877 0.000000
# 4 0.000000 0.000000 0.000000 0.101941 0.000000 -0.000796
# 5 0.003357 -0.000418 0.001877 0.000000 0.033289 0.000000
# 6 0.000000 0.000000 0.000000 -0.000796 0.000000 0.043818
#
#
# Mechanical properties :
#
#
# Convention : Reuss Voigt Hill
#
# Bulk Modulus (GPa) = 24.85794 37.09926 30.97860
# Shear Modulus (GPa) = 20.12786 27.69090 23.90938
#
# Velocity S-wave (km/s) = 3.08778 3.62173 3.36536
# Velocity P-wave (km/s) = 4.94849 5.92139 5.45666
#
# Compressibility (1/GPa) = 0.04022860
#
# Stress axis : x y z
#
# Youngs Moduli (GPa) = 47.10663 61.19623 95.03327
#
# Poissons Ratio (x) = -0.39711 0.46349
# Poissons Ratio (y) = -0.30568 0.52684
# Poissons Ratio (z) = 0.22975 0.33926
#
# Static dielectric constant tensor:
#      x y z
#    x 1.820350 0.000000 -0.028600 
#    y 0.000000 1.735900 0.000000 
#    z -0.028600 0.000000 1.751330 
# 
# From -- ./inp_files/111512.got.cif
#   From: 2010.05.17/outbox.cif.g08.bks.cpg/sg15_56_cif.got.tgz:111512.got - 2010.06.03 18:47:42.
