data_PCOD9295905
_publ_section_title
;
Structure prediction by ZEFSAII (Michael W. Deem and Ramdas Pophale) SiO2 
 PCOD9295905
Probable space group: C 2/C
;
_chemical_formula_sum "Si O2"
_cell_formula_units_Z 36
_cell_length_a 15.529891
_cell_length_b 5.018395
_cell_length_c 18.298965
_cell_angle_alpha 90.000000
_cell_angle_beta 115.375039
_cell_angle_gamma 90.000000
_cell_volume 1288.541893
_symmetry_space_group_name_H-M "C 2/C"
_symmetry_group_IT_number 15
_symmetry_cell_setting 'monoclinic'
loop_
_space_group_symop_operation_xyz
x,y,z
-x,y,1/2-z
-x,-y,-z
x,-y,1/2+z
1/2+x,1/2+y,z
1/2-x,1/2+y,1/2-z
1/2-x,1/2-y,-z
1/2+x,1/2-y,1/2+z
loop_
_atom_site_type_symbol
_atom_site_label
_atom_site_fract_x
_atom_site_fract_y
_atom_site_fract_z
Si Si1 0.500000 0.233536 0.750000
Si Si2 0.635569 0.032152 0.412303
Si Si3 0.795539 0.466463 0.801891
Si Si4 0.833578 0.134213 0.948248
Si Si5 0.467393 0.622188 0.869530
O O1 0.418043 0.063386 0.680583
O O2 0.459788 0.431446 0.797819
O O3 0.747310 0.057346 0.438088
O O4 0.625385 0.804735 0.470191
O O5 0.575718 0.284489 0.418018
O O6 0.759848 0.757865 0.770528
O O7 0.780026 0.360807 0.878241
O O8 0.906791 0.393539 0.832323
O O9 0.913087 0.019552 0.922016
#
# Coordination Sequence:
#
# PCOD9295905 Si02
#       5
#     4   8   8   8   8
#     4  12  26  40  68 106 134 196 246 314 368 466
#     4  11  23  47  66 101 146 185 258 302 384 456
#     4  10  23  43  72 106 145 197 247 303 385 449
#     4   9  24  45  70  99 143 200 236 319 377 452
#     4  10  25  40  70 101 140 194 247 310 378 451
#
# _framework density 27.938559999999999
#
# number of rings (size 3 to 8) (size 9 to 14) (size 15 to 20)
#    1.333    0.444    0.000    2.667    9.333    0.889 
#    4.000    2.222    0.000    0.000    0.000    0.000 
#    0.000    0.000    0.000    0.000    0.000    0.000 
#
# Total GULP energy -100972.168462 kJ/mol
# GULP energy per Si atom -5609.564915 kJ/mol
# Density = 2.787497 g / cm^3
# Si number density = 27.938560 Si / 1000 Ang^3
#
#
#
# Elastic Constant Matrix: (Units=GPa)
#
#
# Indices 1 2 3 4 5 6 
#
# 1 187.7399 55.7676 53.4494 0.0000 -13.5068 -0.0001
# 2 55.7676 105.5084 26.5991 0.0000 -9.9277 -0.0006
# 3 53.4494 26.5991 157.8175 0.0000 -6.8593 0.0000
# 4 0.0000 0.0000 0.0000 48.6437 0.0000 -1.6073
# 5 -13.5068 -9.9277 -6.8593 0.0000 58.9871 0.0000
# 6 -0.0001 -0.0006 0.0000 -1.6073 0.0000 44.2711
#
#
#
# Elastic Compliance Matrix: (Units=1/GPa)
#
#
# Indices 1 2 3 4 5 6 
#
# 1 0.006797 -0.003073 -0.001748 0.000000 0.000836 0.000000
# 2 -0.003073 0.011418 -0.000835 0.000000 0.001121 0.000000
# 3 -0.001748 -0.000835 0.007081 0.000000 0.000283 0.000000
# 4 0.000000 0.000000 0.000000 0.020582 0.000000 0.000747
# 5 0.000836 0.001121 0.000283 0.000000 0.017366 0.000000
# 6 0.000000 0.000000 0.000000 0.000747 0.000000 0.022615
#
#
# Mechanical properties :
#
#
# Convention : Reuss Voigt Hill
#
# Bulk Modulus (GPa) = 71.50605 80.29976 75.90291
# Shear Modulus (GPa) = 49.09953 51.39703 50.24828
#
# Velocity S-wave (km/s) = 4.19670 4.29376 4.24551
# Velocity P-wave (km/s) = 7.00947 7.30656 7.15955
#
# Compressibility (1/GPa) = 0.01398483
#
# Stress axis : x y z
#
# Youngs Moduli (GPa) = 147.11952 87.57820 141.21605
#
# Poissons Ratio (x) = 0.26917 0.24681
# Poissons Ratio (y) = 0.45217 0.11789
# Poissons Ratio (z) = 0.25712 0.07311
#
# Static dielectric constant tensor:
#      x y z
#    x 2.199160 0.000000 -0.003860 
#    y 0.000000 2.137970 0.000000 
#    z -0.003860 0.000000 2.183820 
# 
# From -- ./inp_files/250655.got.cif
#   From: 2010.05.17/outbox.cif.g08.bks.cpg/sg15_126_cif.got.tgz:250655.got - 2010.06.03 18:47:42.
