data_PCOD9295737
_publ_section_title
;
Structure prediction by ZEFSAII (Michael W. Deem and Ramdas Pophale) SiO2 
 PCOD9295737
Probable space group: C 2/C
;
_chemical_formula_sum "Si O2"
_cell_formula_units_Z 56
_cell_length_a 9.551505
_cell_length_b 26.052135
_cell_length_c 10.723136
_cell_angle_alpha 90.000000
_cell_angle_beta 111.725558
_cell_angle_gamma 90.000000
_cell_volume 2478.777145
_symmetry_space_group_name_H-M "C 2/C"
_symmetry_group_IT_number 15
_symmetry_cell_setting 'monoclinic'
loop_
_space_group_symop_operation_xyz
x,y,z
-x,y,1/2-z
-x,-y,-z
x,-y,1/2+z
1/2+x,1/2+y,z
1/2-x,1/2+y,1/2-z
1/2-x,1/2-y,-z
1/2+x,1/2-y,1/2+z
loop_
_atom_site_type_symbol
_atom_site_label
_atom_site_fract_x
_atom_site_fract_y
_atom_site_fract_z
Si Si1 0.654431 0.353176 0.735466
Si Si2 0.280964 0.888871 0.008180
Si Si3 0.820202 0.500427 0.419413
Si Si4 0.681043 0.949498 0.829514
Si Si5 0.406239 0.269328 0.993026
Si Si6 0.887324 0.147572 0.807096
Si Si7 0.447581 0.173370 0.866136
O O1 0.500000 0.370612 0.750000
O O2 0.731252 0.398619 0.682805
O O3 0.629946 0.304605 0.639557
O O4 0.751279 0.346506 0.892155
O O5 0.172179 0.880452 0.088760
O O6 0.456789 0.878913 0.094374
O O7 0.260536 0.944630 0.945852
O O8 0.772828 0.461077 0.512466
O O9 0.787954 0.503453 0.259715
O O10 0.000000 0.500000 0.500000
O O11 0.500000 0.940438 0.750000
O O12 0.483962 0.216923 0.976789
O O13 0.250000 0.250000 0.000000
O O14 0.514187 0.303667 0.114821
O O15 0.730211 0.162769 0.690388
O O16 0.000000 0.118808 0.750000
O O17 0.500000 0.195144 0.750000
#
# Coordination Sequence:
#
# PCOD9295737 Si02
#       7
#     8   8   8   8   8   8   8
#     4  11  23  44  67  92 133 176 220 275 335 398
#     4  10  23  43  68  97 128 175 224 269 340 396
#     4   9  19  39  66  98 131 169 220 279 332 406
#     4   9  20  40  65  99 130 171 225 274 333 408
#     4  12  25  40  63  91 128 177 220 274 331 394
#     4  11  23  43  58  94 134 165 221 272 331 387
#     4  10  24  39  64  92 124 170 224 270 323 389
#
# _framework density 22.591785999999999
#
# number of rings (size 3 to 8) (size 9 to 14) (size 15 to 20)
#    0.000    1.714    2.857    0.429    2.000    9.714 
#    2.571    3.571    0.000    0.000    0.000    0.000 
#    0.000    0.000    0.000    0.000    0.000    0.000 
#
# Total GULP energy -156144.939266 kJ/mol
# GULP energy per Si atom -5576.604974 kJ/mol
# Density = 2.254037 g / cm^3
# Si number density = 22.591786 Si / 1000 Ang^3
#
#
#
# Elastic Constant Matrix: (Units=GPa)
#
#
# Indices 1 2 3 4 5 6 
#
# 1 147.0242 43.8019 31.3734 0.0000 -10.7979 0.0000
# 2 43.8019 38.5856 -0.5549 0.0000 -8.7425 0.0000
# 3 31.3734 -0.5549 45.8020 0.0000 -6.1361 0.0000
# 4 0.0000 0.0000 0.0000 -31.8229 0.0000 -24.7354
# 5 -10.7979 -8.7425 -6.1361 0.0000 36.2880 0.0000
# 6 0.0000 0.0000 0.0000 -24.7354 0.0000 7.1848
#
#
#
# Elastic Compliance Matrix: (Units=1/GPa)
#
#
# Indices 1 2 3 4 5 6 
#
# 1 0.013411 -0.015679 -0.009564 0.000000 -0.001404 0.000000
# 2 -0.015679 0.045814 0.012430 0.000000 0.008474 0.000000
# 3 -0.009564 0.012430 0.029217 0.000000 0.005089 0.000000
# 4 0.000000 0.000000 0.000000 -0.008548 0.000000 -0.029430
# 5 -0.001404 0.008474 0.005089 0.000000 0.030042 0.000000
# 6 0.000000 0.000000 0.000000 -0.029430 0.000000 0.037863
#
#
# Mechanical properties :
#
#
# Convention : Reuss Voigt Hill
#
# Bulk Modulus (GPa) = 15.91972 42.29473 29.10722
# Shear Modulus (GPa) = 25.72529 12.78273 19.25401
#
# Velocity S-wave (km/s) = 3.37813 2.38126 2.92251
# Velocity P-wave (km/s) = 4.71992 5.13054 4.92951
#
# Compressibility (1/GPa) = 0.06281517
#
# Stress axis : x y z
#
# Youngs Moduli (GPa) = 74.56839 21.82743 34.22706
#
# Poissons Ratio (x) = 0.34224 0.32735
# Poissons Ratio (y) = 1.16917 -0.42545
# Poissons Ratio (z) = 0.71317 -0.27132
#
# Static dielectric constant tensor:
#      x y z
#    x 1.646820 0.000000 -0.201650 
#    y 0.000000 1.818030 0.000000 
#    z -0.201650 0.000000 1.681640 
# 
# From -- ./inp_files/82264.got.cif
#   From: 2010.05.17/outbox.cif.g08.bks.cpg/sg15_42_cif.got.tgz:82264.got - 2010.06.03 18:47:42.
