data_PCOD9295290
_publ_section_title
;
Structure prediction by ZEFSAII (Michael W. Deem and Ramdas Pophale) SiO2 
 PCOD9295290
Probable space group: C 2/C
;
_chemical_formula_sum "Si O2"
_cell_formula_units_Z 56
_cell_length_a 20.963124
_cell_length_b 18.841385
_cell_length_c 15.269343
_cell_angle_alpha 90.000000
_cell_angle_beta 25.002750
_cell_angle_gamma 90.000000
_cell_volume 2549.072197
_symmetry_space_group_name_H-M "C 2/C"
_symmetry_group_IT_number 15
_symmetry_cell_setting 'monoclinic'
loop_
_space_group_symop_operation_xyz
x,y,z
-x,y,1/2-z
-x,-y,-z
x,-y,1/2+z
1/2+x,1/2+y,z
1/2-x,1/2+y,1/2-z
1/2-x,1/2-y,-z
1/2+x,1/2-y,1/2+z
loop_
_atom_site_type_symbol
_atom_site_label
_atom_site_fract_x
_atom_site_fract_y
_atom_site_fract_z
Si Si1 0.595333 0.938269 0.925817
Si Si2 0.671033 0.823804 0.701121
Si Si3 0.373043 0.679869 0.278173
Si Si4 0.898680 0.224186 0.052136
Si Si5 0.609524 0.386662 0.197609
Si Si6 0.638990 0.475361 0.768323
Si Si7 0.931109 0.326345 0.246122
O O1 0.678808 0.898042 0.743342
O O2 0.715518 0.961574 0.850492
O O3 0.484336 0.879441 0.105928
O O4 0.500000 0.000000 0.000000
O O5 0.770292 0.772976 0.639095
O O6 0.503784 0.792758 0.910262
O O7 0.752506 0.837997 0.508139
O O8 0.411158 0.598014 0.215589
O O9 0.245689 0.676938 0.511931
O O10 0.482656 0.744680 0.167668
O O11 0.330068 0.708034 0.233312
O O12 0.009268 0.158218 0.890857
O O13 0.500000 0.397670 0.250000
O O14 0.665436 0.460686 0.167477
O O15 0.500000 0.500000 0.000000
O O16 0.000000 0.354669 0.250000
#
# Coordination Sequence:
#
# PCOD9295290 Si02
#       7
#     8   8   8   8   8   8   8
#     4  12  27  45  68 102 142 183 228 286 352 419
#     4  11  23  43  69 100 135 179 227 285 347 412
#     4  11  23  41  70  98 131 182 230 284 346 407
#     4  11  21  44  69  97 136 174 226 285 341 410
#     4  10  23  42  68 102 139 180 225 283 346 415
#     4  12  23  47  71 101 143 185 228 289 350 416
#     4  11  23  46  69  98 138 180 231 292 349 408
#
# _framework density 21.968778
#
# number of rings (size 3 to 8) (size 9 to 14) (size 15 to 20)
#    0.000    0.857    5.714    1.286    2.000    1.714 
#    5.143    1.429    0.000    0.000    0.000    0.000 
#    0.000    0.000    0.000    0.000    0.000    0.000 
#
# Total GULP energy -156352.957363 kJ/mol
# GULP energy per Si atom -5584.034192 kJ/mol
# Density = 2.191878 g / cm^3
# Si number density = 21.968778 Si / 1000 Ang^3
#
#
#
# Elastic Constant Matrix: (Units=GPa)
#
#
# Indices 1 2 3 4 5 6 
#
# 1 55.1411 35.0438 26.9580 0.0006 2.2084 -0.0002
# 2 35.0438 110.2538 37.4211 0.0006 -3.4646 -0.0003
# 3 26.9580 37.4211 99.3910 0.0020 6.7930 -0.0014
# 4 0.0006 0.0006 0.0020 31.0826 -0.0009 5.1218
# 5 2.2084 -3.4646 6.7930 -0.0009 25.8295 0.0006
# 6 -0.0002 -0.0003 -0.0014 5.1218 0.0006 41.3887
#
#
#
# Elastic Compliance Matrix: (Units=1/GPa)
#
#
# Indices 1 2 3 4 5 6 
#
# 1 0.024250 -0.006395 -0.004042 0.000000 -0.001868 0.000000
# 2 -0.006395 0.012242 -0.003080 0.000000 0.002999 0.000000
# 3 -0.004042 -0.003080 0.012547 -0.000001 -0.003367 0.000001
# 4 0.000000 0.000000 -0.000001 0.032842 0.000002 -0.004064
# 5 -0.001868 0.002999 -0.003367 0.000002 0.040163 -0.000001
# 6 0.000000 0.000000 0.000001 -0.004064 -0.000001 0.024664
#
#
# Mechanical properties :
#
#
# Convention : Reuss Voigt Hill
#
# Bulk Modulus (GPa) = 45.44094 51.51466 48.47780
# Shear Modulus (GPa) = 27.61256 30.68437 29.14846
#
# Velocity S-wave (km/s) = 3.54912 3.74133 3.64650
# Velocity P-wave (km/s) = 6.12571 6.49333 6.31220
#
# Compressibility (1/GPa) = 0.02200659
#
# Stress axis : x y z
#
# Youngs Moduli (GPa) = 41.23671 81.68606 79.69845
#
# Poissons Ratio (x) = 0.52235 0.32216
# Poissons Ratio (y) = 0.26369 0.24545
# Poissons Ratio (z) = 0.16669 0.25157
#
# Static dielectric constant tensor:
#      x y z
#    x 1.639330 0.000000 -0.156810 
#    y 0.000000 1.832990 0.000000 
#    z -0.156810 0.000000 1.724570 
# 
# From -- ./inp_files/169108.got.cif
#   From: 2010.05.17/outbox.cif.g08.bks.cpg/sg15_85_cif.got.tgz:169108.got - 2010.06.03 18:47:42.
