data_PCOD9295687
_publ_section_title
;
Structure prediction by ZEFSAII (Michael W. Deem and Ramdas Pophale) SiO2 
 PCOD9295687
Probable space group: C 2/C
;
_chemical_formula_sum "Si O2"
_cell_formula_units_Z 48
_cell_length_a 23.993092
_cell_length_b 9.025633
_cell_length_c 13.030961
_cell_angle_alpha 90.000000
_cell_angle_beta 135.742072
_cell_angle_gamma 90.000000
_cell_volume 1969.368744
_symmetry_space_group_name_H-M "C 2/C"
_symmetry_group_IT_number 15
_symmetry_cell_setting 'monoclinic'
loop_
_space_group_symop_operation_xyz
x,y,z
-x,y,1/2-z
-x,-y,-z
x,-y,1/2+z
1/2+x,1/2+y,z
1/2-x,1/2+y,1/2-z
1/2-x,1/2-y,-z
1/2+x,1/2-y,1/2+z
loop_
_atom_site_type_symbol
_atom_site_label
_atom_site_fract_x
_atom_site_fract_y
_atom_site_fract_z
Si Si1 0.000000 0.369094 0.750000
Si Si2 0.716185 0.266152 0.760760
Si Si3 0.739402 0.556080 0.097715
Si Si4 0.109431 0.382427 0.482238
Si Si5 0.383446 0.474845 0.744179
Si Si6 0.000000 0.863997 0.750000
Si Si7 0.599125 0.210946 0.191562
O O1 0.927690 0.473589 0.617013
O O2 0.966057 0.288108 0.805228
O O3 0.702651 0.321655 0.626867
O O4 0.734894 0.094855 0.808148
O O5 0.644646 0.327915 0.735249
O O6 0.796014 0.358815 0.896468
O O7 0.820108 0.631898 0.162952
O O8 0.678266 0.512658 0.928692
O O9 0.079624 0.373151 0.560712
O O10 0.072184 0.242605 0.375170
O O11 0.469463 0.454417 0.806477
O O12 0.381953 0.619503 0.813275
#
# Coordination Sequence:
#
# PCOD9295687 Si02
#       7
#     4   8   8   8   8   4   8
#     4  11  23  42  68  98 140 184 220 274 342 404
#     4  11  23  44  70 100 132 178 229 279 337 400
#     4  11  24  43  69  98 133 173 229 282 335 399
#     4  10  23  43  67  97 135 175 229 274 335 407
#     4  12  25  43  68  99 135 178 225 282 341 400
#     4  11  25  42  68  96 136 176 220 274 342 404
#     4  11  25  43  66 102 135 176 229 280 335 399
#
# _framework density 24.373293
#
# number of rings (size 3 to 8) (size 9 to 14) (size 15 to 20)
#    0.000    1.000    1.667    5.000    4.667    3.333 
#    3.000    0.000    0.000    0.000    0.000    0.000 
#    0.000    0.000    0.000    0.000    0.000    0.000 
#
# Total GULP energy -134398.090058 kJ/mol
# GULP energy per Si atom -5599.920419 kJ/mol
# Density = 2.431782 g / cm^3
# Si number density = 24.373293 Si / 1000 Ang^3
#
#
#
# Elastic Constant Matrix: (Units=GPa)
#
#
# Indices 1 2 3 4 5 6 
#
# 1 122.9252 14.8863 -10.3501 0.0000 2.2271 0.0000
# 2 14.8863 95.4509 1.4112 0.0000 4.5142 0.0000
# 3 -10.3501 1.4112 30.0491 0.0000 -12.4429 0.0000
# 4 0.0000 0.0000 0.0000 -4.9643 0.0000 -16.6236
# 5 2.2271 4.5142 -12.4429 0.0000 25.5314 0.0000
# 6 0.0000 0.0000 0.0000 -16.6236 0.0000 28.8160
#
#
#
# Elastic Compliance Matrix: (Units=1/GPa)
#
#
# Indices 1 2 3 4 5 6 
#
# 1 0.008586 -0.001449 0.003535 0.000000 0.001230 0.000000
# 2 -0.001449 0.010871 -0.002197 0.000000 -0.002866 0.000000
# 3 0.003535 -0.002197 0.043389 0.000000 0.021226 0.000000
# 4 0.000000 0.000000 0.000000 -0.068708 0.000000 -0.039637
# 5 0.001230 -0.002866 0.021226 0.000000 0.049912 0.000000
# 6 0.000000 0.000000 0.000000 -0.039637 0.000000 0.011837
#
#
# Mechanical properties :
#
#
# Convention : Reuss Voigt Hill
#
# Bulk Modulus (GPa) = 15.96863 28.92444 22.44653
# Shear Modulus (GPa) = 64.94977 26.04179 45.49578
#
# Velocity S-wave (km/s) = 5.16776 3.27227 4.32513
# Velocity P-wave (km/s) = 6.49412 5.11567 5.84567
#
# Compressibility (1/GPa) = 0.06262279
#
# Stress axis : x y z
#
# Youngs Moduli (GPa) = 116.47006 91.99061 23.04737
#
# Poissons Ratio (x) = 0.13334 -0.08147
# Poissons Ratio (y) = 0.16882 0.05063
# Poissons Ratio (z) = -0.41169 0.20207
#
# Static dielectric constant tensor:
#      x y z
#    x 1.933050 0.000000 0.001180 
#    y 0.000000 1.882930 0.000000 
#    z 0.001180 0.000000 1.936520 
# 
# From -- ./inp_files/177036.got.cif
#   From: 2010.05.17/outbox.cif.g08.bks.cpg/sg15_89_cif.got.tgz:177036.got - 2010.06.03 18:47:42.
