data_PCOD9295572
_publ_section_title
;
Structure prediction by ZEFSAII (Michael W. Deem and Ramdas Pophale) SiO2 
 PCOD9295572
Probable space group: C 2/C
;
_chemical_formula_sum "Si O2"
_cell_formula_units_Z 40
_cell_length_a 9.776518
_cell_length_b 21.109649
_cell_length_c 8.530597
_cell_angle_alpha 90.000000
_cell_angle_beta 84.821238
_cell_angle_gamma 90.000000
_cell_volume 1753.348278
_symmetry_space_group_name_H-M "C 2/C"
_symmetry_group_IT_number 15
_symmetry_cell_setting 'monoclinic'
loop_
_space_group_symop_operation_xyz
x,y,z
-x,y,1/2-z
-x,-y,-z
x,-y,1/2+z
1/2+x,1/2+y,z
1/2-x,1/2+y,1/2-z
1/2-x,1/2-y,-z
1/2+x,1/2-y,1/2+z
loop_
_atom_site_type_symbol
_atom_site_label
_atom_site_fract_x
_atom_site_fract_y
_atom_site_fract_z
Si Si1 0.000000 0.078610 0.750000
Si Si2 0.591706 0.960995 0.112914
Si Si3 0.500000 0.200216 0.250000
Si Si4 0.712494 0.530643 0.175275
Si Si5 0.301249 0.339450 0.720173
Si Si6 0.456112 0.309534 0.013412
O O1 0.945810 0.127516 0.623239
O O2 0.113487 0.030032 0.666115
O O3 0.500000 0.921283 0.250000
O O4 0.668633 0.007518 0.222037
O O5 0.500000 0.000000 0.000000
O O6 0.714372 0.938951 0.985538
O O7 0.361086 0.161496 0.298453
O O8 0.450079 0.247238 0.118778
O O9 0.645744 0.588588 0.272800
O O10 0.390742 0.308486 0.575374
O O11 0.349724 0.309620 0.880510
#
# Coordination Sequence:
#
# PCOD9295572 Si02
#       6
#     4   8   4   8   8   8
#     4  11  22  40  64  96 128 169 210 256 304 381
#     4   9  20  35  53  78 128 164 198 239 300 381
#     4  11  24  42  66  90 126 163 220 268 320 371
#     4  11  21  36  61  93 125 161 205 255 311 374
#     4  11  23  39  67  94 123 166 212 269 320 378
#     4  10  23  43  65  91 127 168 216 263 314 375
#
# _framework density 22.813495
#
# number of rings (size 3 to 8) (size 9 to 14) (size 15 to 20)
#    0.000    1.600    0.000    4.800    4.200    2.400 
#    0.000    0.000    8.800    0.000    0.000    0.000 
#    0.000    0.000    0.000    0.000    0.000    0.000 
#
# Total GULP energy -111439.480016 kJ/mol
# GULP energy per Si atom -5571.974001 kJ/mol
# Density = 2.276157 g / cm^3
# Si number density = 22.813495 Si / 1000 Ang^3
#
#
#
# Elastic Constant Matrix: (Units=GPa)
#
#
# Indices 1 2 3 4 5 6 
#
# 1 127.2585 11.2415 0.7788 0.0000 -0.3037 0.0000
# 2 11.2415 60.6861 -7.5980 0.0000 -3.7930 0.0000
# 3 0.7788 -7.5980 60.0357 0.0000 -5.8534 0.0000
# 4 0.0000 0.0000 0.0000 8.4398 0.0000 -14.3733
# 5 -0.3037 -3.7930 -5.8534 0.0000 34.9078 0.0000
# 6 0.0000 0.0000 0.0000 -14.3733 0.0000 62.2544
#
#
#
# Elastic Compliance Matrix: (Units=1/GPa)
#
#
# Indices 1 2 3 4 5 6 
#
# 1 0.007995 -0.001529 -0.000312 0.000000 -0.000149 0.000000
# 2 -0.001529 0.017206 0.002418 0.000000 0.002262 0.000000
# 3 -0.000312 0.002418 0.017275 0.000000 0.003157 0.000000
# 4 0.000000 0.000000 0.000000 0.195264 0.000000 0.045083
# 5 -0.000149 0.002262 0.003157 0.000000 0.029421 0.000000
# 6 0.000000 0.000000 0.000000 0.045083 0.000000 0.026472
#
#
# Mechanical properties :
#
#
# Convention : Reuss Voigt Hill
#
# Bulk Modulus (GPa) = 22.92081 28.53611 25.72846
# Shear Modulus (GPa) = 16.28555 37.35759 26.82157
#
# Velocity S-wave (km/s) = 2.67471 4.05102 3.43255
# Velocity P-wave (km/s) = 4.42805 5.86657 5.19732
#
# Compressibility (1/GPa) = 0.04362847
#
# Stress axis : x y z
#
# Youngs Moduli (GPa) = 125.08342 58.12056 57.88856
#
# Poissons Ratio (x) = 0.08888 0.01805
# Poissons Ratio (y) = 0.19129 -0.13997
# Poissons Ratio (z) = 0.03900 -0.14053
#
# Static dielectric constant tensor:
#      x y z
#    x 1.981600 0.000000 -0.164910 
#    y 0.000000 1.761790 0.000000 
#    z -0.164910 0.000000 2.022640 
# 
# From -- ./inp_files/30317.got.cif
#   From: 2010.05.17/outbox.cif.g08.bks.cpg/sg15_16_cif.got.tgz:30317.got - 2010.06.03 18:47:42.
