data_PCOD9295761
_publ_section_title
;
Structure prediction by ZEFSAII (Michael W. Deem and Ramdas Pophale) SiO2 
 PCOD9295761
Probable space group: C 2/C
;
_chemical_formula_sum "Si O2"
_cell_formula_units_Z 36
_cell_length_a 18.486120
_cell_length_b 11.971139
_cell_length_c 9.956586
_cell_angle_alpha 90.000000
_cell_angle_beta 53.112369
_cell_angle_gamma 90.000000
_cell_volume 1762.304024
_symmetry_space_group_name_H-M "C 2/C"
_symmetry_group_IT_number 15
_symmetry_cell_setting 'monoclinic'
loop_
_space_group_symop_operation_xyz
x,y,z
-x,y,1/2-z
-x,-y,-z
x,-y,1/2+z
1/2+x,1/2+y,z
1/2-x,1/2+y,1/2-z
1/2-x,1/2-y,-z
1/2+x,1/2-y,1/2+z
loop_
_atom_site_type_symbol
_atom_site_label
_atom_site_fract_x
_atom_site_fract_y
_atom_site_fract_z
Si Si1 0.244025 0.581860 0.193068
Si Si2 0.854864 0.986044 0.312671
Si Si3 0.099958 0.762484 0.378772
Si Si4 0.500000 0.665694 0.250000
Si Si5 0.553793 0.044238 0.316400
O O1 0.278776 0.533507 0.295189
O O2 0.200424 0.705012 0.268490
O O3 0.158316 0.515577 0.224794
O O4 0.317849 0.567661 0.993234
O O5 0.899268 0.886129 0.179044
O O6 0.924440 0.084665 0.268917
O O7 0.050734 0.764476 0.577412
O O8 0.050772 0.678536 0.331819
O O9 0.500000 0.002667 0.250000
O O10 0.500000 0.000000 0.500000
#
# Coordination Sequence:
#
# PCOD9295761 Si02
#       5
#     8   8   8   4   8
#     4  10  25  42  72  97 139 176 230 282 342 416
#     4  12  23  48  66 105 136 181 231 287 347 410
#     4  10  26  42  68 104 131 187 225 288 348 400
#     4  12  26  44  74  98 144 180 236 288 342 424
#     4  10  23  43  69 101 137 179 225 282 345 411
#
# _framework density 20.427803000000001
#
# number of rings (size 3 to 8) (size 9 to 14) (size 15 to 20)
#    1.333    0.000    2.222    2.667    3.111    0.889 
#    4.000    0.000    0.000    0.000    0.000    0.000 
#    0.000    0.000    0.000    0.000    0.000    0.000 
#
# Total GULP energy -100258.625392 kJ/mol
# GULP energy per Si atom -5569.923633 kJ/mol
# Density = 2.038131 g / cm^3
# Si number density = 20.427803 Si / 1000 Ang^3
#
#
#
# Elastic Constant Matrix: (Units=GPa)
#
#
# Indices 1 2 3 4 5 6 
#
# 1 107.0468 13.9308 26.4879 0.0000 21.0519 0.0000
# 2 13.9308 34.2253 11.7831 0.0000 3.3967 0.0000
# 3 26.4879 11.7831 124.0969 0.0000 10.2249 0.0000
# 4 0.0000 0.0000 0.0000 59.6008 0.0000 -20.1645
# 5 21.0519 3.3967 10.2249 0.0000 28.1250 0.0000
# 6 0.0000 0.0000 0.0000 -20.1645 0.0000 30.0630
#
#
#
# Elastic Compliance Matrix: (Units=1/GPa)
#
#
# Indices 1 2 3 4 5 6 
#
# 1 0.011701 -0.003464 -0.001527 0.000000 -0.007785 0.000000
# 2 -0.003464 0.031429 -0.002212 0.000000 -0.000398 0.000000
# 3 -0.001527 -0.002212 0.008740 0.000000 -0.001767 0.000000
# 4 0.000000 0.000000 0.000000 0.021703 0.000000 0.014557
# 5 -0.007785 -0.000398 -0.001767 0.000000 0.042073 0.000000
# 6 0.000000 0.000000 0.000000 0.014557 0.000000 0.043028
#
#
# Mechanical properties :
#
#
# Convention : Reuss Voigt Hill
#
# Bulk Modulus (GPa) = 26.69270 41.08585 33.88927
# Shear Modulus (GPa) = 26.94396 37.76889 32.35643
#
# Velocity S-wave (km/s) = 3.63572 4.30454 3.98419
# Velocity P-wave (km/s) = 5.54255 6.69790 6.14743
#
# Compressibility (1/GPa) = 0.03746343
#
# Stress axis : x y z
#
# Youngs Moduli (GPa) = 85.45923 31.81732 114.41874
#
# Poissons Ratio (x) = 0.11023 0.17474
# Poissons Ratio (y) = 0.29607 0.25309
# Poissons Ratio (z) = 0.13052 0.07038
#
# Static dielectric constant tensor:
#      x y z
#    x 1.735870 0.000000 -0.028590 
#    y 0.000000 1.733980 0.000000 
#    z -0.028590 0.000000 1.718800 
# 
# From -- ./inp_files/46022.got.cif
#   From: 2010.05.17/outbox.cif.g08.bks.cpg/sg15_24_cif.got.tgz:46022.got - 2010.06.03 18:47:42.
