data_PCOD9295044
_publ_section_title
;
Structure prediction by ZEFSAII (Michael W. Deem and Ramdas Pophale) SiO2 
 PCOD9295044
Probable space group: C 2/C
;
_chemical_formula_sum "Si O2"
_cell_formula_units_Z 40
_cell_length_a 21.156122
_cell_length_b 9.981526
_cell_length_c 9.355752
_cell_angle_alpha 90.000000
_cell_angle_beta 121.868600
_cell_angle_gamma 90.000000
_cell_volume 1677.849373
_symmetry_space_group_name_H-M "C 2/C"
_symmetry_group_IT_number 15
_symmetry_cell_setting 'monoclinic'
loop_
_space_group_symop_operation_xyz
x,y,z
-x,y,1/2-z
-x,-y,-z
x,-y,1/2+z
1/2+x,1/2+y,z
1/2-x,1/2+y,1/2-z
1/2-x,1/2-y,-z
1/2+x,1/2-y,1/2+z
loop_
_atom_site_type_symbol
_atom_site_label
_atom_site_fract_x
_atom_site_fract_y
_atom_site_fract_z
Si Si1 0.415049 0.933173 0.129491
Si Si2 0.914836 0.247156 0.632097
Si Si3 0.701154 0.556887 0.893051
Si Si4 0.291565 0.098250 0.285093
Si Si5 0.662396 0.276908 0.765116
O O1 0.500000 0.888527 0.250000
O O2 0.413269 0.092633 0.146490
O O3 0.365207 0.851842 0.183141
O O4 0.377406 0.903367 0.930938
O O5 0.884543 0.211890 0.437409
O O6 0.000000 0.203042 0.750000
O O7 0.860033 0.172865 0.677429
O O8 0.754160 0.529239 0.822025
O O9 0.657257 0.414721 0.850587
O O10 0.757358 0.590177 0.088339
O O11 0.248494 0.216917 0.318421
#
# Coordination Sequence:
#
# PCOD9295044 Si02
#       5
#     8   8   8   8   8
#     4  11  24  40  63  95 131 172 206 268 335 381
#     4  10  23  42  62  98 135 164 217 273 316 389
#     4   9  21  43  70  91 125 177 213 276 311 375
#     4   9  21  42  68  95 125 168 226 264 311 390
#     4   9  22  45  63  93 132 171 214 270 317 387
#
# _framework density 23.840043999999999
#
# number of rings (size 3 to 8) (size 9 to 14) (size 15 to 20)
#    1.200    1.200    0.000    0.600    2.800    7.200 
#    7.200    0.000    0.000    0.000    0.000    0.000 
#    0.000    0.000    0.000    0.000    0.000    0.000 
#
# Total GULP energy -111774.416070 kJ/mol
# GULP energy per Si atom -5588.720803 kJ/mol
# Density = 2.378578 g / cm^3
# Si number density = 23.840044 Si / 1000 Ang^3
#
#
#
# Elastic Constant Matrix: (Units=GPa)
#
#
# Indices 1 2 3 4 5 6 
#
# 1 54.2438 27.3548 46.9011 0.0000 24.7018 0.0000
# 2 27.3548 125.2264 40.7523 0.0000 11.7005 0.0000
# 3 46.9011 40.7523 139.3614 0.0000 43.5825 0.0000
# 4 0.0000 0.0000 0.0000 32.0110 0.0000 -2.1972
# 5 24.7018 11.7005 43.5825 0.0000 45.0979 0.0000
# 6 0.0000 0.0000 0.0000 -2.1972 0.0000 48.6851
#
#
#
# Elastic Compliance Matrix: (Units=1/GPa)
#
#
# Indices 1 2 3 4 5 6 
#
# 1 0.029818 -0.003678 -0.005948 0.000000 -0.009630 0.000000
# 2 -0.003678 0.009282 -0.001939 0.000000 0.001481 0.000000
# 3 -0.005948 -0.001939 0.012279 0.000000 -0.008106 0.000000
# 4 0.000000 0.000000 0.000000 0.031336 0.000000 0.001414
# 5 -0.009630 0.001481 -0.008106 0.000000 0.034898 0.000000
# 6 0.000000 0.000000 0.000000 0.001414 0.000000 0.020604
#
#
# Mechanical properties :
#
#
# Convention : Reuss Voigt Hill
#
# Bulk Modulus (GPa) = 35.40010 60.98311 48.19160
# Shear Modulus (GPa) = 29.28000 38.74702 34.01351
#
# Velocity S-wave (km/s) = 3.50835 4.03586 3.78132
# Velocity P-wave (km/s) = 5.59398 6.88137 6.27080
#
# Compressibility (1/GPa) = 0.02824851
#
# Stress axis : x y z
#
# Youngs Moduli (GPa) = 33.53632 107.73768 81.43774
#
# Poissons Ratio (x) = 0.39628 0.48438
# Poissons Ratio (y) = 0.12335 0.15794
# Poissons Ratio (z) = 0.19947 0.20895
#
# Static dielectric constant tensor:
#      x y z
#    x 1.988050 0.000000 -0.052700 
#    y 0.000000 1.962340 0.000000 
#    z -0.052700 0.000000 1.889020 
# 
# From -- ./inp_files/110755.got.cif
#   From: 2010.05.17/outbox.cif.g08.bks.cpg/sg15_56_cif.got.tgz:110755.got - 2010.06.03 18:47:42.
