data_PCOD9295544
_publ_section_title
;
Structure prediction by ZEFSAII (Michael W. Deem and Ramdas Pophale) SiO2 
 PCOD9295544
Probable space group: C 2/C
;
_chemical_formula_sum "Si O2"
_cell_formula_units_Z 48
_cell_length_a 8.397092
_cell_length_b 23.739893
_cell_length_c 13.417460
_cell_angle_alpha 90.000000
_cell_angle_beta 46.627707
_cell_angle_gamma 90.000000
_cell_volume 1944.270726
_symmetry_space_group_name_H-M "C 2/C"
_symmetry_group_IT_number 15
_symmetry_cell_setting 'monoclinic'
loop_
_space_group_symop_operation_xyz
x,y,z
-x,y,1/2-z
-x,-y,-z
x,-y,1/2+z
1/2+x,1/2+y,z
1/2-x,1/2+y,1/2-z
1/2-x,1/2-y,-z
1/2+x,1/2-y,1/2+z
loop_
_atom_site_type_symbol
_atom_site_label
_atom_site_fract_x
_atom_site_fract_y
_atom_site_fract_z
Si Si1 0.209019 0.093835 0.227417
Si Si2 0.000000 0.395074 0.250000
Si Si3 0.592119 0.243688 0.359883
Si Si4 0.500000 0.613933 0.750000
Si Si5 0.605722 0.474216 0.356993
Si Si6 0.696645 0.310724 0.896825
Si Si7 0.988706 0.652169 0.546889
O O1 0.180957 0.028286 0.262208
O O2 0.215205 0.130933 0.327671
O O3 0.000000 0.111672 0.250000
O O4 0.421333 0.104407 0.067848
O O5 0.192212 0.436026 0.199503
O O6 0.938815 0.359185 0.372383
O O7 0.507625 0.302467 0.440628
O O8 0.791368 0.234932 0.199306
O O9 0.395801 0.210422 0.383451
O O10 0.612163 0.205435 0.447996
O O11 0.537749 0.570070 0.643243
O O12 0.723001 0.650004 0.660154
O O13 0.500000 0.500000 0.500000
#
# Coordination Sequence:
#
# PCOD9295544 Si02
#       7
#     8   4   8   4   8   8   8
#     4  11  23  42  65  91 129 172 209 261 314 382
#     4  10  24  40  60  90 126 168 206 260 310 374
#     4   9  19  40  64  94 124 164 209 267 316 379
#     4  10  24  40  62  94 122 168 210 262 316 362
#     4  11  24  39  62  92 124 167 211 257 313 373
#     4   9  20  38  64  93 124 163 213 258 322 378
#     4  10  23  43  64  92 129 165 212 262 318 378
#
# _framework density 24.687920999999999
#
# number of rings (size 3 to 8) (size 9 to 14) (size 15 to 20)
#    0.000    2.000    0.833    1.000    4.667    5.333 
#    7.500    1.667    0.000    0.000    0.000    0.000 
#    0.000    0.000    0.000    0.000    0.000    0.000 
#
# Total GULP energy -134098.238832 kJ/mol
# GULP energy per Si atom -5587.426618 kJ/mol
# Density = 2.463173 g / cm^3
# Si number density = 24.687921 Si / 1000 Ang^3
#
#
#
# Elastic Constant Matrix: (Units=GPa)
#
#
# Indices 1 2 3 4 5 6 
#
# 1 68.0203 24.3033 16.5288 0.0000 7.5116 0.0000
# 2 24.3033 93.9412 24.9999 0.0000 24.7356 0.0000
# 3 16.5288 24.9999 136.5671 0.0000 12.0039 0.0000
# 4 0.0000 0.0000 0.0000 42.6498 0.0000 5.6409
# 5 7.5116 24.7356 12.0039 0.0000 38.8810 0.0000
# 6 0.0000 0.0000 0.0000 5.6409 0.0000 15.0774
#
#
#
# Elastic Compliance Matrix: (Units=1/GPa)
#
#
# Indices 1 2 3 4 5 6 
#
# 1 0.016410 -0.003818 -0.001256 0.000000 -0.000354 0.000000
# 2 -0.003818 0.014057 -0.001429 0.000000 -0.007764 0.000000
# 3 -0.001256 -0.001429 0.007848 0.000000 -0.001271 0.000000
# 4 0.000000 0.000000 0.000000 0.024667 0.000000 -0.009229
# 5 -0.000354 -0.007764 -0.001271 0.000000 0.031120 0.000000
# 6 0.000000 0.000000 0.000000 -0.009229 0.000000 0.069777
#
#
# Mechanical properties :
#
#
# Convention : Reuss Voigt Hill
#
# Bulk Modulus (GPa) = 39.51124 47.79918 43.65521
# Shear Modulus (GPa) = 26.98008 34.83472 30.90740
#
# Velocity S-wave (km/s) = 3.30941 3.76041 3.54209
# Velocity P-wave (km/s) = 5.53551 6.18527 5.86939
#
# Compressibility (1/GPa) = 0.02530926
#
# Stress axis : x y z
#
# Youngs Moduli (GPa) = 60.93877 71.13699 127.42551
#
# Poissons Ratio (x) = 0.27160 0.16006
# Poissons Ratio (y) = 0.23266 0.18206
# Poissons Ratio (z) = 0.07655 0.10164
#
# Static dielectric constant tensor:
#      x y z
#    x 2.019260 0.000000 -0.002550 
#    y 0.000000 2.679440 0.000000 
#    z -0.002550 0.000000 2.022230 
# 
# From -- ./inp_files/80575.got.cif
#   From: 2010.05.17/outbox.cif.g08.bks.cpg/sg15_41_cif.got.tgz:80575.got - 2010.06.03 18:47:42.
