data_PCOD9295562
_publ_section_title
;
Structure prediction by ZEFSAII (Michael W. Deem and Ramdas Pophale) SiO2 
 PCOD9295562
Probable space group: C 2/C
;
_chemical_formula_sum "Si O2"
_cell_formula_units_Z 64
_cell_length_a 32.587968
_cell_length_b 13.858104
_cell_length_c 9.546474
_cell_angle_alpha 90.000000
_cell_angle_beta 134.468387
_cell_angle_gamma 90.000000
_cell_volume 3076.674072
_symmetry_space_group_name_H-M "C 2/C"
_symmetry_group_IT_number 15
_symmetry_cell_setting 'monoclinic'
loop_
_space_group_symop_operation_xyz
x,y,z
-x,y,1/2-z
-x,-y,-z
x,-y,1/2+z
1/2+x,1/2+y,z
1/2-x,1/2+y,1/2-z
1/2-x,1/2-y,-z
1/2+x,1/2-y,1/2+z
loop_
_atom_site_type_symbol
_atom_site_label
_atom_site_fract_x
_atom_site_fract_y
_atom_site_fract_z
Si Si1 0.542064 0.296158 0.984929
Si Si2 0.748437 0.150247 0.577203
Si Si3 0.631398 0.623886 0.055682
Si Si4 0.886680 0.393455 0.749684
Si Si5 0.961776 0.248549 0.545896
Si Si6 0.781740 0.701480 0.703484
Si Si7 0.860028 0.952820 0.227038
Si Si8 0.612977 0.915931 0.082677
O O1 0.500000 0.288952 0.750000
O O2 0.582062 0.202396 0.115997
O O3 0.496970 0.297278 0.005430
O O4 0.586324 0.386974 0.088257
O O5 0.750000 0.250000 0.500000
O O6 0.682774 0.114005 0.408322
O O7 0.758369 0.170468 0.765134
O O8 0.799180 0.087869 0.634439
O O9 0.673943 0.715026 0.137513
O O10 0.640043 0.560600 0.214355
O O11 0.569367 0.669697 0.932564
O O12 0.636024 0.557945 0.930517
O O13 0.899821 0.409628 0.615377
O O14 0.903458 0.484104 0.885752
O O15 0.915301 0.328898 0.395071
O O16 0.000000 0.304681 0.750000
O O17 0.750000 0.750000 0.500000
O O18 0.819210 0.609327 0.747915
#
# Coordination Sequence:
#
# PCOD9295562 Si02
#       8
#     8   8   8   8   8   8   8   8
#     4  12  27  44  69  99 132 173 229 274 332 394
#     4  11  22  44  72  88 139 180 208 277 324 394
#     4  11  26  43  68  97 135 173 223 274 325 397
#     4  11  24  44  65 103 132 174 222 268 336 396
#     4  11  22  48  68  85 134 182 213 275 329 384
#     4  10  23  43  64  97 133 177 219 264 331 393
#     4  12  26  45  67 104 132 176 228 267 338 394
#     4  10  24  41  67  97 133 171 221 269 329 397
#
# _framework density 20.801684000000002
#
# number of rings (size 3 to 8) (size 9 to 14) (size 15 to 20)
#    0.000    1.000    5.000    0.750    7.000    5.000 
#    0.000    0.000    0.000    0.000    0.000    0.000 
#    0.000    0.000    0.000    0.000    0.000    0.000 
#
# Total GULP energy -178568.531396 kJ/mol
# GULP energy per Si atom -5580.266606 kJ/mol
# Density = 2.075434 g / cm^3
# Si number density = 20.801684 Si / 1000 Ang^3
#
#
#
# Elastic Constant Matrix: (Units=GPa)
#
#
# Indices 1 2 3 4 5 6 
#
# 1 129.6771 8.0606 14.6026 0.0000 0.5605 0.0000
# 2 8.0606 38.2319 -28.1099 0.0000 -5.2675 0.0000
# 3 14.6026 -28.1099 58.7246 0.0000 -8.7626 0.0000
# 4 0.0000 0.0000 0.0000 20.6253 0.0000 -14.4316
# 5 0.5605 -5.2675 -8.7626 0.0000 20.2758 0.0000
# 6 0.0000 0.0000 0.0000 -14.4316 0.0000 22.1843
#
#
#
# Elastic Compliance Matrix: (Units=1/GPa)
#
#
# Indices 1 2 3 4 5 6 
#
# 1 0.008912 -0.007294 -0.006443 0.000000 -0.004926 0.000000
# 2 -0.007294 0.055830 0.032851 0.000000 0.028903 0.000000
# 3 -0.006443 0.032851 0.038113 0.000000 0.025184 0.000000
# 4 0.000000 0.000000 0.000000 0.088991 0.000000 0.057891
# 5 -0.004926 0.028903 0.025184 0.000000 0.067849 0.000000
# 6 0.000000 0.000000 0.000000 0.057891 0.000000 0.082737
#
#
# Mechanical properties :
#
#
# Convention : Reuss Voigt Hill
#
# Bulk Modulus (GPa) = 7.08807 23.97113 15.52960
# Shear Modulus (GPa) = 14.23564 28.08911 21.16237
#
# Velocity S-wave (km/s) = 2.61885 3.67867 3.19304
# Velocity P-wave (km/s) = 3.54391 5.43987 4.59083
#
# Compressibility (1/GPa) = 0.14108213
#
# Stress axis : x y z
#
# Youngs Moduli (GPa) = 112.21250 17.91160 26.23752
#
# Poissons Ratio (x) = 0.13066 0.16904
# Poissons Ratio (y) = 0.81853 -0.86192
# Poissons Ratio (z) = 0.72295 -0.58841
#
# Static dielectric constant tensor:
#      x y z
#    x 1.698010 0.000000 -0.002860 
#    y 0.000000 1.692360 0.000000 
#    z -0.002860 0.000000 1.785400 
# 
# From -- ./inp_files/70176.got.cif
#   From: 2010.05.17/outbox.cif.g08.bks.cpg/sg15_36_cif.got.tgz:70176.got - 2010.06.03 18:47:42.
