data_PCOD9295845
_publ_section_title
;
Structure prediction by ZEFSAII (Michael W. Deem and Ramdas Pophale) SiO2 
 PCOD9295845
Probable space group: C 2/C
;
_chemical_formula_sum "Si O2"
_cell_formula_units_Z 48
_cell_length_a 11.834347
_cell_length_b 22.689248
_cell_length_c 11.970118
_cell_angle_alpha 90.000000
_cell_angle_beta 134.852217
_cell_angle_gamma 90.000000
_cell_volume 2278.584436
_symmetry_space_group_name_H-M "C 2/C"
_symmetry_group_IT_number 15
_symmetry_cell_setting 'monoclinic'
loop_
_space_group_symop_operation_xyz
x,y,z
-x,y,1/2-z
-x,-y,-z
x,-y,1/2+z
1/2+x,1/2+y,z
1/2-x,1/2+y,1/2-z
1/2-x,1/2-y,-z
1/2+x,1/2-y,1/2+z
loop_
_atom_site_type_symbol
_atom_site_label
_atom_site_fract_x
_atom_site_fract_y
_atom_site_fract_z
Si Si1 0.018065 0.426497 0.629547
Si Si2 0.033909 0.783858 0.567758
Si Si3 0.393016 0.203711 0.285448
Si Si4 0.500000 0.527819 0.250000
Si Si5 0.500000 0.804494 0.250000
Si Si6 0.751750 0.030154 0.720908
Si Si7 0.198366 0.113348 0.531733
O O1 0.855509 0.442765 0.452972
O O2 0.000000 0.430035 0.750000
O O3 0.062426 0.359594 0.632157
O O4 0.154913 0.472283 0.691230
O O5 0.205358 0.796160 0.633972
O O6 0.928426 0.754098 0.398977
O O7 0.045225 0.738095 0.678637
O O8 0.949169 0.842861 0.550447
O O9 0.500000 0.211956 0.250000
O O10 0.576582 0.488464 0.206188
O O11 0.642123 0.568261 0.397252
O O12 0.648432 0.846157 0.386473
O O13 0.764502 0.075547 0.831679
#
# Coordination Sequence:
#
# PCOD9295845 Si02
#       7
#     8   8   8   4   4   8   8
#     4  10  23  43  70  97 136 184 233 284 350 425
#     4  12  25  46  69 106 142 184 240 297 356 422
#     4  11  25  45  70  99 139 188 234 289 355 428
#     4  12  27  44  72 106 144 183 232 300 354 424
#     4  12  27  46  72 106 142 189 242 294 366 418
#     4  11  25  44  69 102 141 181 233 289 355 421
#     4  12  27  44  73 106 144 187 238 295 358 423
#
# _framework density 21.065711
#
# number of rings (size 3 to 8) (size 9 to 14) (size 15 to 20)
#    0.000    0.667    1.667    5.000   10.500    2.667 
#    1.500    0.000    0.000    0.000    0.000    0.000 
#    0.000    0.000    0.000    0.000    0.000    0.000 
#
# Total GULP energy -134383.923059 kJ/mol
# GULP energy per Si atom -5599.330127 kJ/mol
# Density = 2.101776 g / cm^3
# Si number density = 21.065711 Si / 1000 Ang^3
#
#
#
# Elastic Constant Matrix: (Units=GPa)
#
#
# Indices 1 2 3 4 5 6 
#
# 1 93.2662 15.6022 10.1782 0.0000 14.7125 0.0000
# 2 15.6022 59.6970 -4.2987 0.0000 -10.9725 0.0000
# 3 10.1782 -4.2987 45.3925 0.0000 -4.7390 0.0000
# 4 0.0000 0.0000 0.0000 13.6651 0.0000 -15.5518
# 5 14.7125 -10.9725 -4.7390 0.0000 35.0376 0.0000
# 6 0.0000 0.0000 0.0000 -15.5518 0.0000 0.0614
#
#
#
# Elastic Compliance Matrix: (Units=1/GPa)
#
#
# Indices 1 2 3 4 5 6 
#
# 1 0.013292 -0.005215 -0.004288 0.000000 -0.007795 0.000000
# 2 -0.005215 0.020060 0.004010 0.000000 0.009014 0.000000
# 3 -0.004288 0.004010 0.024030 0.000000 0.006307 0.000000
# 4 0.000000 0.000000 0.000000 -0.000255 0.000000 -0.064525
# 5 -0.007795 0.009014 0.006307 0.000000 0.035490 0.000000
# 6 0.000000 0.000000 0.000000 -0.064525 0.000000 -0.056697
#
#
# Mechanical properties :
#
#
# Convention : Reuss Voigt Hill
#
# Bulk Modulus (GPa) = 21.55394 26.81325 24.18359
# Shear Modulus (GPa) = 80.16539 21.54443 50.85491
#
# Velocity S-wave (km/s) = 6.17556 3.20148 4.91869
# Velocity P-wave (km/s) = 7.81691 5.14023 6.61536
#
# Compressibility (1/GPa) = 0.04639522
#
# Stress axis : x y z
#
# Youngs Moduli (GPa) = 75.23316 49.85045 41.61506
#
# Poissons Ratio (x) = 0.25999 0.17845
# Poissons Ratio (y) = 0.39237 -0.16689
# Poissons Ratio (z) = 0.32261 -0.19991
#
# Static dielectric constant tensor:
#      x y z
#    x 1.740840 0.000000 0.017210 
#    y 0.000000 1.727240 0.000000 
#    z 0.017210 0.000000 1.761890 
# 
# From -- ./inp_files/89449.got.cif
#   From: 2010.05.17/outbox.cif.g08.bks.cpg/sg15_45_cif.got.tgz:89449.got - 2010.06.03 18:47:42.
