data_PCOD9295409
_publ_section_title
;
Structure prediction by ZEFSAII (Michael W. Deem and Ramdas Pophale) SiO2 
 PCOD9295409
Probable space group: C 2/C
;
_chemical_formula_sum "Si O2"
_cell_formula_units_Z 48
_cell_length_a 17.127179
_cell_length_b 26.620353
_cell_length_c 9.693405
_cell_angle_alpha 90.000000
_cell_angle_beta 28.005080
_cell_angle_gamma 90.000000
_cell_volume 2075.189241
_symmetry_space_group_name_H-M "C 2/C"
_symmetry_group_IT_number 15
_symmetry_cell_setting 'monoclinic'
loop_
_space_group_symop_operation_xyz
x,y,z
-x,y,1/2-z
-x,-y,-z
x,-y,1/2+z
1/2+x,1/2+y,z
1/2-x,1/2+y,1/2-z
1/2-x,1/2-y,-z
1/2+x,1/2-y,1/2+z
loop_
_atom_site_type_symbol
_atom_site_label
_atom_site_fract_x
_atom_site_fract_y
_atom_site_fract_z
Si Si1 0.898115 0.723418 0.180205
Si Si2 0.480286 0.328009 0.942077
Si Si3 0.662631 0.646425 0.415368
Si Si4 0.319983 0.949327 0.347865
Si Si5 0.284747 0.039636 0.217905
Si Si6 0.872306 0.637732 0.553943
O O1 0.750000 0.750000 0.500000
O O2 0.987733 0.769138 0.964762
O O3 0.808974 0.685107 0.215488
O O4 0.032168 0.688759 0.050166
O O5 0.295708 0.348168 0.263704
O O6 0.500000 0.335937 0.750000
O O7 0.612850 0.354090 0.833411
O O8 0.709716 0.591203 0.393734
O O9 0.500000 0.665024 0.750000
O O10 0.245926 0.958289 0.615612
O O11 0.324673 0.896727 0.257950
O O12 0.237425 0.989555 0.373007
O O13 0.516579 0.958039 0.069356
O O14 0.000000 0.610500 0.250000
#
# Coordination Sequence:
#
# PCOD9295409 Si02
#       6
#     8   8   8   8   8   8
#     4  12  24  45  69 103 139 191 242 295 340 429
#     4  12  28  43  66 105 147 183 236 297 358 420
#     4  12  24  45  72 100 145 185 237 287 364 425
#     4  10  23  42  70  99 134 172 240 293 351 418
#     4  10  23  43  68 101 134 177 229 299 353 418
#     4  12  24  43  73 101 141 190 239 288 362 422
#
# _framework density 23.130421999999999
#
# number of rings (size 3 to 8) (size 9 to 14) (size 15 to 20)
#    0.000    0.667    5.000    2.000    4.667    4.000 
#    0.000    4.167    0.000    0.000    0.000    0.000 
#    0.000    0.000    0.000    0.000    0.000    0.000 
#
# Total GULP energy -134197.988293 kJ/mol
# GULP energy per Si atom -5591.582846 kJ/mol
# Density = 2.307778 g / cm^3
# Si number density = 23.130422 Si / 1000 Ang^3
#
#
#
# Elastic Constant Matrix: (Units=GPa)
#
#
# Indices 1 2 3 4 5 6 
#
# 1 127.1266 55.7479 23.3252 0.0016 10.3990 -0.0015
# 2 55.7479 119.8903 25.4798 0.0001 0.3059 -0.0001
# 3 23.3252 25.4798 31.0346 0.0024 9.2354 -0.0019
# 4 0.0016 0.0001 0.0024 -4.9668 -0.0017 21.4967
# 5 10.3990 0.3059 9.2354 -0.0017 31.8199 0.0016
# 6 -0.0015 -0.0001 -0.0019 21.4967 0.0016 20.6467
#
#
#
# Elastic Compliance Matrix: (Units=1/GPa)
#
#
# Indices 1 2 3 4 5 6 
#
# 1 0.010555 -0.004070 -0.003915 0.000001 -0.002274 0.000000
# 2 -0.004070 0.011863 -0.007708 -0.000002 0.003453 0.000001
# 3 -0.003915 -0.007708 0.044974 0.000008 -0.011700 -0.000004
# 4 0.000001 -0.000002 0.000008 -0.036565 -0.000006 0.038070
# 5 -0.002274 0.003453 -0.011700 -0.000006 0.035533 0.000003
# 6 0.000000 0.000001 -0.000004 0.038070 0.000003 0.008796
#
#
# Mechanical properties :
#
#
# Convention : Reuss Voigt Hill
#
# Bulk Modulus (GPa) = 27.77274 54.12861 40.95067
# Shear Modulus (GPa) = 42.17791 21.06652 31.62222
#
# Velocity S-wave (km/s) = 4.27486 3.02117 3.70148
# Velocity P-wave (km/s) = 6.03315 5.96844 6.00088
#
# Compressibility (1/GPa) = 0.03600653
#
# Stress axis : x y z
#
# Youngs Moduli (GPa) = 94.73786 84.29543 22.23486
#
# Poissons Ratio (x) = 0.34312 0.08704
# Poissons Ratio (y) = 0.38562 0.17139
# Poissons Ratio (z) = 0.37086 0.64976
#
# Static dielectric constant tensor:
#      x y z
#    x 1.858520 0.000000 0.042960 
#    y 0.000000 1.847100 0.000000 
#    z 0.042960 0.000000 1.899270 
# 
# From -- ./inp_files/43842.got.cif
#   From: 2010.05.17/outbox.cif.g08.bks.cpg/sg15_22_cif.got.tgz:43842.got - 2010.06.03 18:47:42.
