data_PCOD9295096
_publ_section_title
;
Structure prediction by ZEFSAII (Michael W. Deem and Ramdas Pophale) SiO2 
 PCOD9295096
Probable space group: C 2/C
;
_chemical_formula_sum "Si O2"
_cell_formula_units_Z 56
_cell_length_a 17.431568
_cell_length_b 20.447854
_cell_length_c 14.220087
_cell_angle_alpha 90.000000
_cell_angle_beta 26.714202
_cell_angle_gamma 90.000000
_cell_volume 2278.532337
_symmetry_space_group_name_H-M "C 2/C"
_symmetry_group_IT_number 15
_symmetry_cell_setting 'monoclinic'
loop_
_space_group_symop_operation_xyz
x,y,z
-x,y,1/2-z
-x,-y,-z
x,-y,1/2+z
1/2+x,1/2+y,z
1/2-x,1/2+y,1/2-z
1/2-x,1/2-y,-z
1/2+x,1/2-y,1/2+z
loop_
_atom_site_type_symbol
_atom_site_label
_atom_site_fract_x
_atom_site_fract_y
_atom_site_fract_z
Si Si1 0.500000 0.307279 0.750000
Si Si2 0.199009 0.393410 0.043126
Si Si3 0.132715 0.398994 0.327097
Si Si4 0.500000 0.630599 0.750000
Si Si5 0.689195 0.040421 0.069130
Si Si6 0.778151 0.466772 0.738838
Si Si7 0.194296 0.772569 0.354777
Si Si8 0.597091 0.659088 0.443017
O O1 0.638989 0.348826 0.659170
O O2 0.614558 0.269524 0.547424
O O3 0.227391 0.397971 0.123981
O O4 0.210087 0.468788 0.999320
O O5 0.000000 0.371826 0.250000
O O6 0.220327 0.457145 0.291751
O O7 0.144616 0.322375 0.336166
O O8 0.945050 0.428691 0.519073
O O9 0.652067 0.586475 0.626397
O O10 0.577237 0.667822 0.576721
O O11 0.500000 0.064942 0.250000
O O12 0.697047 0.033828 0.174317
O O13 0.624417 0.417340 0.889630
O O14 0.244004 0.701641 0.265851
O O15 0.060435 0.809891 0.437087
#
# Coordination Sequence:
#
# PCOD9295096 Si02
#       8
#     4   8   8   4   8   8   8   8
#     4  10  23  42  64  94 131 174 224 280 334 394
#     4   9  18  34  61  96 133 173 213 264 336 406
#     4   9  19  37  62  95 131 164 211 270 326 396
#     4  10  23  42  64  94 131 174 224 280 334 394
#     4   9  18  34  61  96 133 173 213 264 336 406
#     4   9  19  37  62  95 131 164 211 270 326 396
#     4  11  25  44  66  95 129 175 226 278 333 402
#     4  11  25  44  66  95 129 175 226 278 333 402
#
# _framework density 24.577224000000001
#
# number of rings (size 3 to 8) (size 9 to 14) (size 15 to 20)
#    0.000    2.286    0.000    1.286    4.000    2.857 
#    0.000    0.000    0.000    0.000    0.000    0.000 
#    0.000    0.000    0.000    0.000    0.000    0.000 
#
# Total GULP energy -156357.321060 kJ/mol
# GULP energy per Si atom -5584.190038 kJ/mol
# Density = 2.452128 g / cm^3
# Si number density = 24.577224 Si / 1000 Ang^3
#
#
#
# Elastic Constant Matrix: (Units=GPa)
#
#
# Indices 1 2 3 4 5 6 
#
# 1 69.2054 28.4039 32.1268 0.0049 -5.7176 -0.0072
# 2 28.4039 98.9789 44.1297 -0.0035 3.5198 0.0060
# 3 32.1268 44.1297 125.7751 0.0127 -5.7767 0.0018
# 4 0.0049 -0.0035 0.0127 17.1843 0.0001 5.3381
# 5 -5.7176 3.5198 -5.7767 0.0001 51.0721 0.0014
# 6 -0.0072 0.0060 0.0018 5.3381 0.0014 16.2490
#
#
#
# Elastic Compliance Matrix: (Units=1/GPa)
#
#
# Indices 1 2 3 4 5 6 
#
# 1 0.017572 -0.003730 -0.003094 -0.000007 0.001874 0.000012
# 2 -0.003730 0.012856 -0.003637 0.000009 -0.001715 -0.000009
# 3 -0.003094 -0.003637 0.010065 -0.000008 0.001043 0.000001
# 4 -0.000007 0.000009 -0.000008 0.064806 -0.000002 -0.021290
# 5 0.001874 -0.001715 0.001043 -0.000002 0.020026 0.000000
# 6 0.000012 -0.000009 0.000001 -0.021290 0.000000 0.068536
#
#
# Mechanical properties :
#
#
# Convention : Reuss Voigt Hill
#
# Bulk Modulus (GPa) = 51.09349 55.92003 53.50676
# Shear Modulus (GPa) = 22.59322 29.52099 26.05711
#
# Velocity S-wave (km/s) = 3.03524 3.46952 3.25962
# Velocity P-wave (km/s) = 5.75480 6.23316 5.99875
#
# Compressibility (1/GPa) = 0.01957196
#
# Stress axis : x y z
#
# Youngs Moduli (GPa) = 56.91020 77.78507 99.35657
#
# Poissons Ratio (x) = 0.29013 0.30736
# Poissons Ratio (y) = 0.21227 0.36133
# Poissons Ratio (z) = 0.17605 0.28288
#
# Static dielectric constant tensor:
#      x y z
#    x 2.014360 0.000000 -0.007140 
#    y 0.000000 2.011900 0.000010 
#    z -0.007140 0.000010 2.009610 
# 
# From -- ./inp_files/216652.got.cif
#   From: 2010.05.17/outbox.cif.g08.bks.cpg/sg15_109_cif.got.tgz:216652.got - 2010.06.03 18:47:42.
