data_PCOD9295592
_publ_section_title
;
Structure prediction by ZEFSAII (Michael W. Deem and Ramdas Pophale) SiO2 
 PCOD9295592
Probable space group: C 2/C
;
_chemical_formula_sum "Si O2"
_cell_formula_units_Z 52
_cell_length_a 11.809167
_cell_length_b 20.672923
_cell_length_c 10.735786
_cell_angle_alpha 90.000000
_cell_angle_beta 63.910563
_cell_angle_gamma 90.000000
_cell_volume 2353.877648
_symmetry_space_group_name_H-M "C 2/C"
_symmetry_group_IT_number 15
_symmetry_cell_setting 'monoclinic'
loop_
_space_group_symop_operation_xyz
x,y,z
-x,y,1/2-z
-x,-y,-z
x,-y,1/2+z
1/2+x,1/2+y,z
1/2-x,1/2+y,1/2-z
1/2-x,1/2-y,-z
1/2+x,1/2-y,1/2+z
loop_
_atom_site_type_symbol
_atom_site_label
_atom_site_fract_x
_atom_site_fract_y
_atom_site_fract_z
Si Si1 0.396865 0.181950 0.035653
Si Si2 0.689840 0.318122 0.452062
Si Si3 0.869935 0.587252 0.272313
Si Si4 0.611192 0.471497 0.858208
Si Si5 0.368287 0.396159 0.254138
Si Si6 0.329275 0.188110 0.503707
Si Si7 0.000000 0.142397 0.250000
O O1 0.326975 0.249148 0.108194
O O2 0.373773 0.118770 0.132480
O O3 0.330513 0.170062 0.934739
O O4 0.544085 0.199377 0.978011
O O5 0.643830 0.373113 0.381812
O O6 0.598701 0.318724 0.617536
O O7 0.745479 0.544890 0.355235
O O8 0.866471 0.650182 0.361452
O O9 0.000000 0.552779 0.250000
O O10 0.636738 0.526619 0.743171
O O11 0.570529 0.405405 0.811546
O O12 0.500000 0.500000 0.000000
O O13 0.500000 0.375118 0.250000
O O14 0.258117 0.360854 0.378972
O O15 0.250000 0.250000 0.500000
#
# Coordination Sequence:
#
# PCOD9295592 Si02
#       7
#     8   8   8   8   8   8   4
#     4  10  23  43  65  96 131 172 222 277 346 411
#     4  11  24  41  67  96 134 175 218 281 346 399
#     4  10  23  46  66  94 134 179 224 283 349 409
#     4  12  24  43  68  99 133 176 232 278 332 411
#     4  12  25  41  63  99 131 173 226 279 332 406
#     4  11  24  41  68  97 131 176 228 281 340 407
#     4  12  24  40  70  98 136 178 222 288 340 402
#
# _framework density 22.091208999999999
#
# number of rings (size 3 to 8) (size 9 to 14) (size 15 to 20)
#    0.000    0.923    3.846    2.769    2.154    4.308 
#    2.769    1.538    0.000    0.000    0.000    0.000 
#    0.000    0.000    0.000    0.000    0.000    0.000 
#
# Total GULP energy -145251.494445 kJ/mol
# GULP energy per Si atom -5586.595940 kJ/mol
# Density = 2.204093 g / cm^3
# Si number density = 22.091209 Si / 1000 Ang^3
#
#
#
# Elastic Constant Matrix: (Units=GPa)
#
#
# Indices 1 2 3 4 5 6 
#
# 1 221.9579 37.9525 34.8758 0.0000 -18.9784 0.0000
# 2 37.9525 60.3723 17.1176 0.0000 -11.8874 0.0000
# 3 34.8758 17.1176 66.3778 0.0000 -13.0028 0.0000
# 4 0.0000 0.0000 0.0000 34.6445 0.0000 -3.1035
# 5 -18.9784 -11.8874 -13.0028 0.0000 30.6685 0.0000
# 6 0.0000 0.0000 0.0000 -3.1035 0.0000 29.1773
#
#
#
# Elastic Compliance Matrix: (Units=1/GPa)
#
#
# Indices 1 2 3 4 5 6 
#
# 1 0.005364 -0.002540 -0.001861 0.000000 0.001546 0.000000
# 2 -0.002540 0.019941 -0.002837 0.000000 0.004954 0.000000
# 3 -0.001861 -0.002837 0.017813 0.000000 0.005301 0.000000
# 4 0.000000 0.000000 0.000000 0.029142 0.000000 0.003100
# 5 0.001546 0.004954 0.005301 0.000000 0.037732 0.000000
# 6 0.000000 0.000000 0.000000 0.003100 0.000000 0.034603
#
#
# Mechanical properties :
#
#
# Convention : Reuss Voigt Hill
#
# Bulk Modulus (GPa) = 34.91360 58.73333 46.82346
# Shear Modulus (GPa) = 29.65285 36.14886 32.90086
#
# Velocity S-wave (km/s) = 3.66770 4.04957 3.86336
# Velocity P-wave (km/s) = 5.81160 6.96490 6.41422
#
# Compressibility (1/GPa) = 0.02864213
#
# Stress axis : x y z
#
# Youngs Moduli (GPa) = 186.41939 50.14860 56.13899
#
# Poissons Ratio (x) = 0.12739 0.10445
# Poissons Ratio (y) = 0.47355 0.15927
# Poissons Ratio (z) = 0.34683 0.14228
#
# Static dielectric constant tensor:
#      x y z
#    x 1.873890 0.000000 0.005480 
#    y 0.000000 1.790560 0.000000 
#    z 0.005480 0.000000 1.862970 
# 
# From -- ./inp_files/89517.got.cif
#   From: 2010.05.17/outbox.cif.g08.bks.cpg/sg15_45_cif.got.tgz:89517.got - 2010.06.03 18:47:42.
