data_PCOD9295012
_publ_section_title
;
Structure prediction by ZEFSAII (Michael W. Deem and Ramdas Pophale) SiO2 
 PCOD9295012
Probable space group: C 2/C
;
_chemical_formula_sum "Si O2"
_cell_formula_units_Z 48
_cell_length_a 6.696246
_cell_length_b 21.653345
_cell_length_c 14.769478
_cell_angle_alpha 90.000000
_cell_angle_beta 85.583469
_cell_angle_gamma 90.000000
_cell_volume 2135.158003
_symmetry_space_group_name_H-M "C 2/C"
_symmetry_group_IT_number 15
_symmetry_cell_setting 'monoclinic'
loop_
_space_group_symop_operation_xyz
x,y,z
-x,y,1/2-z
-x,-y,-z
x,-y,1/2+z
1/2+x,1/2+y,z
1/2-x,1/2+y,1/2-z
1/2-x,1/2-y,-z
1/2+x,1/2-y,1/2+z
loop_
_atom_site_type_symbol
_atom_site_label
_atom_site_fract_x
_atom_site_fract_y
_atom_site_fract_z
Si Si1 0.849448 0.300148 0.338320
Si Si2 0.500000 0.300949 0.250000
Si Si3 0.263737 0.798108 0.079409
Si Si4 0.500000 0.933587 0.750000
Si Si5 0.677945 0.999521 0.068829
Si Si6 0.676852 0.342227 0.669517
Si Si7 0.008489 0.097320 0.993151
O O1 0.657637 0.336298 0.308225
O O2 0.769667 0.229669 0.350131
O O3 0.000000 0.304581 0.250000
O O4 0.001737 0.313723 0.413842
O O5 0.652287 0.269573 0.172337
O O6 0.250000 0.750000 0.000000
O O7 0.134903 0.857185 0.057636
O O8 0.403729 0.977269 0.831136
O O9 0.345741 0.887498 0.703879
O O10 0.850460 0.047165 0.034074
O O11 0.500000 0.000000 0.000000
O O12 0.801290 0.935399 0.060996
O O13 0.500000 0.341519 0.750000
O O14 0.595380 0.367559 0.577567
#
# Coordination Sequence:
#
# PCOD9295012 Si02
#       7
#     8   4   8   4   8   8   8
#     4   9  20  38  64  96 138 174 227 287 341 426
#     4  10  23  42  60  96 140 180 228 281 342 426
#     4  11  23  43  68  98 137 186 225 283 363 432
#     4  12  23  40  72  98 136 186 242 297 372 412
#     4  11  25  45  66  99 139 181 240 300 351 435
#     4  11  20  37  66 102 133 174 229 297 352 408
#     4  11  24  44  67  97 143 179 231 292 357 426
#
# _framework density 22.48077
#
# number of rings (size 3 to 8) (size 9 to 14) (size 15 to 20)
#    0.000    1.333    5.000    0.500    0.000    3.333 
#    3.000    0.000    0.000    0.000    0.000    0.000 
#    0.000    0.000    0.000    0.000    0.000    0.000 
#
# Total GULP energy -133817.062854 kJ/mol
# GULP energy per Si atom -5575.710952 kJ/mol
# Density = 2.242960 g / cm^3
# Si number density = 22.480770 Si / 1000 Ang^3
#
#
#
# Elastic Constant Matrix: (Units=GPa)
#
#
# Indices 1 2 3 4 5 6 
#
# 1 180.4107 42.4977 71.6344 0.0000 35.8389 0.0000
# 2 42.4977 74.0820 53.3302 0.0000 7.2613 0.0000
# 3 71.6344 53.3302 110.2313 0.0000 11.4301 0.0000
# 4 0.0000 0.0000 0.0000 27.8326 0.0000 6.6261
# 5 35.8389 7.2613 11.4301 0.0000 59.9556 0.0000
# 6 0.0000 0.0000 0.0000 6.6261 0.0000 37.1561
#
#
#
# Elastic Compliance Matrix: (Units=1/GPa)
#
#
# Indices 1 2 3 4 5 6 
#
# 1 0.008396 -0.001219 -0.004449 0.000000 -0.004023 0.000000
# 2 -0.001219 0.020911 -0.009322 0.000000 -0.000027 0.000000
# 3 -0.004449 -0.009322 0.016404 0.000000 0.000661 0.000000
# 4 0.000000 0.000000 0.000000 0.037522 0.000000 -0.006691
# 5 -0.004023 -0.000027 0.000661 0.000000 0.018961 0.000000
# 6 0.000000 0.000000 0.000000 -0.006691 0.000000 0.028107
#
#
# Mechanical properties :
#
#
# Convention : Reuss Voigt Hill
#
# Bulk Modulus (GPa) = 63.56770 77.73874 70.65322
# Shear Modulus (GPa) = 30.20690 38.13962 34.17326
#
# Velocity S-wave (km/s) = 3.66960 4.12338 3.90309
# Velocity P-wave (km/s) = 6.80386 7.57132 7.19782
#
# Compressibility (1/GPa) = 0.01573126
#
# Stress axis : x y z
#
# Youngs Moduli (GPa) = 119.10706 47.82133 60.95903
#
# Poissons Ratio (x) = 0.05830 0.27121
# Poissons Ratio (y) = 0.14522 0.56825
# Poissons Ratio (z) = 0.52992 0.44578
#
# Static dielectric constant tensor:
#      x y z
#    x 1.883710 0.000000 0.002300 
#    y 0.000000 1.893210 0.000000 
#    z 0.002300 0.000000 1.844650 
# 
# From -- ./inp_files/185310.got.cif
#   From: 2010.05.17/outbox.cif.g08.bks.cpg/sg15_93_cif.got.tgz:185310.got - 2010.06.03 18:47:42.
