data_PCOD9295814
_publ_section_title
;
Structure prediction by ZEFSAII (Michael W. Deem and Ramdas Pophale) SiO2 
 PCOD9295814
Probable space group: C 2/C
;
_chemical_formula_sum "Si O2"
_cell_formula_units_Z 52
_cell_length_a 21.658465
_cell_length_b 10.495883
_cell_length_c 12.432924
_cell_angle_alpha 90.000000
_cell_angle_beta 133.788975
_cell_angle_gamma 90.000000
_cell_volume 2040.295181
_symmetry_space_group_name_H-M "C 2/C"
_symmetry_group_IT_number 15
_symmetry_cell_setting 'monoclinic'
loop_
_space_group_symop_operation_xyz
x,y,z
-x,y,1/2-z
-x,-y,-z
x,-y,1/2+z
1/2+x,1/2+y,z
1/2-x,1/2+y,1/2-z
1/2-x,1/2-y,-z
1/2+x,1/2-y,1/2+z
loop_
_atom_site_type_symbol
_atom_site_label
_atom_site_fract_x
_atom_site_fract_y
_atom_site_fract_z
Si Si1 0.391187 0.013730 0.012109
Si Si2 0.500000 0.466277 0.750000
Si Si3 0.722585 0.386982 0.719771
Si Si4 0.617187 0.412253 0.211410
Si Si5 0.784709 0.567950 0.057859
Si Si6 0.038043 0.755004 0.935878
Si Si7 0.637658 0.834673 0.225582
O O1 0.299600 0.951820 0.875702
O O2 0.411799 0.087864 0.928010
O O3 0.446873 0.887534 0.087849
O O4 0.370438 0.101173 0.091004
O O5 0.454695 0.546202 0.789124
O O6 0.564175 0.367640 0.886810
O O7 0.642179 0.476597 0.654788
O O8 0.753364 0.379836 0.634779
O O9 0.707419 0.247775 0.747795
O O10 0.702796 0.399754 0.385762
O O11 0.584113 0.291261 0.103196
O O12 0.814818 0.424690 0.131928
O O13 0.935276 0.758557 0.820055
#
# Coordination Sequence:
#
# PCOD9295814 Si02
#       7
#     8   4   8   8   8   8   8
#     4  10  25  42  71  99 144 194 245 299 372 457
#     4  12  24  40  72 100 144 190 242 300 380 448
#     4  10  23  43  70 101 143 181 247 315 367 435
#     4  11  25  42  69 108 140 187 245 313 371 440
#     4  10  24  46  71 104 139 194 247 297 371 452
#     4  12  25  45  72 106 148 192 249 315 371 446
#     4  11  24  46  69 105 145 192 243 316 375 439
#
# _framework density 25.486509999999999
#
# number of rings (size 3 to 8) (size 9 to 14) (size 15 to 20)
#    0.000    1.231    1.538    2.769   10.769    1.846 
#    2.769    0.000    0.000    0.000    0.000    0.000 
#    0.000    0.000    0.000    0.000    0.000    0.000 
#
# Total GULP energy -145151.450248 kJ/mol
# GULP energy per Si atom -5582.748086 kJ/mol
# Density = 2.542850 g / cm^3
# Si number density = 25.486510 Si / 1000 Ang^3
#
#
#
# Elastic Constant Matrix: (Units=GPa)
#
#
# Indices 1 2 3 4 5 6 
#
# 1 129.7764 34.6919 51.6478 0.0000 -30.3312 0.0000
# 2 34.6919 57.7742 25.5222 0.0000 -10.5764 0.0000
# 3 51.6478 25.5222 109.1519 0.0000 -28.0773 0.0000
# 4 0.0000 0.0000 0.0000 30.2526 0.0000 -7.0574
# 5 -30.3312 -10.5764 -28.0773 0.0000 38.4811 0.0000
# 6 0.0000 0.0000 0.0000 -7.0574 0.0000 52.4565
#
#
#
# Elastic Compliance Matrix: (Units=1/GPa)
#
#
# Indices 1 2 3 4 5 6 
#
# 1 0.011376 -0.004531 -0.002877 0.000000 0.005622 0.000000
# 2 -0.004531 0.021301 -0.002769 0.000000 0.000263 0.000000
# 3 -0.002877 -0.002769 0.012792 0.000000 0.006305 0.000000
# 4 0.000000 0.000000 0.000000 0.034126 0.000000 0.004591
# 5 0.005622 0.000263 0.006305 0.000000 0.035090 0.000000
# 6 0.000000 0.000000 0.000000 0.004591 0.000000 0.019681
#
#
# Mechanical properties :
#
#
# Convention : Reuss Voigt Hill
#
# Bulk Modulus (GPa) = 39.81748 57.82514 48.82131
# Shear Modulus (GPa) = 30.65758 36.56075 33.60917
#
# Velocity S-wave (km/s) = 3.47204 3.79161 3.63534
# Velocity P-wave (km/s) = 5.63296 6.47350 6.06780
#
# Compressibility (1/GPa) = 0.02511460
#
# Stress axis : x y z
#
# Youngs Moduli (GPa) = 87.90686 46.94677 78.17233
#
# Poissons Ratio (x) = 0.21270 0.22492
# Poissons Ratio (y) = 0.39827 0.21648
# Poissons Ratio (z) = 0.25292 0.13001
#
# Static dielectric constant tensor:
#      x y z
#    x 2.093760 0.000000 -0.076920 
#    y 0.000000 2.077440 0.000000 
#    z -0.076920 0.000000 2.047480 
# 
# From -- ./inp_files/118060.got.cif
#   From: 2010.05.17/outbox.cif.g08.bks.cpg/sg15_60_cif.got.tgz:118060.got - 2010.06.03 18:47:42.
