data_PCOD9295670
_publ_section_title
;
Structure prediction by ZEFSAII (Michael W. Deem and Ramdas Pophale) SiO2 
 PCOD9295670
Probable space group: C 2/C
;
_chemical_formula_sum "Si O2"
_cell_formula_units_Z 52
_cell_length_a 20.515380
_cell_length_b 6.904806
_cell_length_c 18.673318
_cell_angle_alpha 90.000000
_cell_angle_beta 60.601728
_cell_angle_gamma 90.000000
_cell_volume 2304.542233
_symmetry_space_group_name_H-M "C 2/C"
_symmetry_group_IT_number 15
_symmetry_cell_setting 'monoclinic'
loop_
_space_group_symop_operation_xyz
x,y,z
-x,y,1/2-z
-x,-y,-z
x,-y,1/2+z
1/2+x,1/2+y,z
1/2-x,1/2+y,1/2-z
1/2-x,1/2-y,-z
1/2+x,1/2-y,1/2+z
loop_
_atom_site_type_symbol
_atom_site_label
_atom_site_fract_x
_atom_site_fract_y
_atom_site_fract_z
Si Si1 0.258537 0.531152 0.804116
Si Si2 0.500000 0.080188 0.750000
Si Si3 0.792425 0.692254 0.405958
Si Si4 0.728118 0.619213 0.863219
Si Si5 0.426741 0.389146 0.700690
Si Si6 0.047704 0.760286 0.126288
Si Si7 0.075985 0.122224 0.456168
O O1 0.251532 0.712348 0.859851
O O2 0.236710 0.568670 0.734003
O O3 0.219901 0.349056 0.862133
O O4 0.346781 0.487961 0.751617
O O5 0.486583 0.936377 0.823699
O O6 0.437832 0.230460 0.755921
O O7 0.750000 0.750000 0.500000
O O8 0.782923 0.465117 0.394415
O O9 0.875763 0.773002 0.369520
O O10 0.647161 0.522177 0.919709
O O11 0.491558 0.556521 0.666573
O O12 0.425414 0.289029 0.622661
O O13 0.072009 0.749949 0.029935
O O14 0.000000 0.000000 0.500000
#
# Coordination Sequence:
#
# PCOD9295670 Si02
#       7
#     8   4   8   8   8   8   8
#     4  11  23  42  69  96 131 172 223 271 324 400
#     4  12  22  38  66  98 122 168 224 262 318 406
#     4  12  24  41  64  97 136 168 215 279 328 391
#     4  11  22  43  67  97 129 174 222 270 332 395
#     4  10  23  43  67  94 130 172 218 270 328 389
#     4  11  23  43  65  93 133 171 212 275 337 378
#     4   9  21  44  64  89 133 175 212 272 333 385
#
# _framework density 22.564133999999999
#
# number of rings (size 3 to 8) (size 9 to 14) (size 15 to 20)
#    0.000    1.231    3.077    3.231    0.000    1.231 
#    8.308    0.000    0.000    0.000    0.000    0.000 
#    0.000    0.000    0.000    0.000    0.000    0.000 
#
# Total GULP energy -145197.450287 kJ/mol
# GULP energy per Si atom -5584.517319 kJ/mol
# Density = 2.251278 g / cm^3
# Si number density = 22.564134 Si / 1000 Ang^3
#
#
#
# Elastic Constant Matrix: (Units=GPa)
#
#
# Indices 1 2 3 4 5 6 
#
# 1 77.8356 9.4174 8.4837 -0.0003 -10.0654 -0.0014
# 2 9.4174 57.0530 -0.5628 -0.0009 -10.2424 -0.0038
# 3 8.4837 -0.5628 65.8166 0.0002 -6.4264 0.0021
# 4 -0.0003 -0.0009 0.0002 25.6229 -0.0002 4.4789
# 5 -10.0654 -10.2424 -6.4264 -0.0002 40.4503 0.0000
# 6 -0.0014 -0.0038 0.0021 4.4789 0.0000 4.7641
#
#
#
# Elastic Compliance Matrix: (Units=1/GPa)
#
#
# Indices 1 2 3 4 5 6 
#
# 1 0.013574 -0.001772 -0.001502 -0.000001 0.002690 0.000004
# 2 -0.001772 0.018619 0.000818 -0.000002 0.004403 0.000016
# 3 -0.001502 0.000818 0.015620 0.000001 0.002315 -0.000008
# 4 -0.000001 -0.000002 0.000001 0.046703 0.000000 -0.043907
# 5 0.002690 0.004403 0.002315 0.000000 0.026874 0.000004
# 6 0.000004 0.000016 -0.000008 -0.043907 0.000004 0.251180
#
#
# Mechanical properties :
#
#
# Convention : Reuss Voigt Hill
#
# Bulk Modulus (GPa) = 23.31063 26.15354 24.73209
# Shear Modulus (GPa) = 12.76220 26.39193 19.57707
#
# Velocity S-wave (km/s) = 2.38081 3.42371 2.94873
# Velocity P-wave (km/s) = 4.23213 5.21967 4.75163
#
# Compressibility (1/GPa) = 0.04289888
#
# Stress axis : x y z
#
# Youngs Moduli (GPa) = 73.67224 53.70949 64.01894
#
# Poissons Ratio (x) = 0.09519 0.09616
# Poissons Ratio (y) = 0.13058 -0.05234
# Poissons Ratio (z) = 0.11066 -0.04391
#
# Static dielectric constant tensor:
#      x y z
#    x 1.883690 0.000000 0.015250 
#    y 0.000000 1.848710 0.000000 
#    z 0.015250 0.000000 1.848400 
# 
# From -- ./inp_files/254293.got.cif
#   From: 2010.05.17/outbox.cif.g08.bks.cpg/sg15_128_cif.got.tgz:254293.got - 2010.06.03 18:47:42.
