data_PCOD9295273
_publ_section_title
;
Structure prediction by ZEFSAII (Michael W. Deem and Ramdas Pophale) SiO2 
 PCOD9295273
Probable space group: C 2/C
;
_chemical_formula_sum "Si O2"
_cell_formula_units_Z 36
_cell_length_a 14.509945
_cell_length_b 12.088402
_cell_length_c 14.326008
_cell_angle_alpha 90.000000
_cell_angle_beta 138.471904
_cell_angle_gamma 90.000000
_cell_volume 1665.961706
_symmetry_space_group_name_H-M "C 2/C"
_symmetry_group_IT_number 15
_symmetry_cell_setting 'monoclinic'
loop_
_space_group_symop_operation_xyz
x,y,z
-x,y,1/2-z
-x,-y,-z
x,-y,1/2+z
1/2+x,1/2+y,z
1/2-x,1/2+y,1/2-z
1/2-x,1/2-y,-z
1/2+x,1/2-y,1/2+z
loop_
_atom_site_type_symbol
_atom_site_label
_atom_site_fract_x
_atom_site_fract_y
_atom_site_fract_z
Si Si1 0.453563 0.356417 0.518430
Si Si2 0.774602 0.045096 0.356756
Si Si3 0.034059 0.375321 0.551206
Si Si4 0.772354 0.373746 0.484060
Si Si5 0.500000 0.514907 0.250000
O O1 0.312979 0.415759 0.373753
O O2 0.575082 0.396459 0.539841
O O3 0.452233 0.223968 0.512274
O O4 0.480043 0.409586 0.641534
O O5 0.680194 0.111097 0.213683
O O6 0.703111 0.057355 0.402731
O O7 0.904334 0.356576 0.519850
O O8 0.000000 0.500000 0.500000
O O9 0.750000 0.250000 0.500000
O O10 0.635786 0.435927 0.339221
#
# Coordination Sequence:
#
# PCOD9295273 Si02
#       5
#     8   8   8   8   4
#     4  10  23  45  70  95 138 184 220 280 343 413
#     4  10  23  42  67  98 134 176 225 278 347 395
#     4  12  26  42  68 106 135 175 232 284 338 406
#     4  11  23  41  71 104 132 176 231 288 333 405
#     4  10  24  46  68 102 142 188 222 270 370 406
#
# _framework density 21.609141000000001
#
# number of rings (size 3 to 8) (size 9 to 14) (size 15 to 20)
#    0.000    1.333    2.222    2.000    6.222    0.000 
#    4.000    3.333    0.000    0.000    0.000    0.000 
#    0.000    0.000    0.000    0.000    0.000    0.000 
#
# Total GULP energy -100321.063143 kJ/mol
# GULP energy per Si atom -5573.392397 kJ/mol
# Density = 2.155996 g / cm^3
# Si number density = 21.609141 Si / 1000 Ang^3
#
#
#
# Elastic Constant Matrix: (Units=GPa)
#
#
# Indices 1 2 3 4 5 6 
#
# 1 89.0018 56.1707 21.3969 0.0000 4.9305 0.0000
# 2 56.1707 180.8525 46.0875 0.0000 0.4601 0.0000
# 3 21.3969 46.0875 79.2742 0.0000 4.2576 0.0000
# 4 0.0000 0.0000 0.0000 29.4029 0.0000 -6.5776
# 5 4.9305 0.4601 4.2576 0.0000 26.9313 0.0000
# 6 0.0000 0.0000 0.0000 -6.5776 0.0000 36.8388
#
#
#
# Elastic Compliance Matrix: (Units=1/GPa)
#
#
# Indices 1 2 3 4 5 6 
#
# 1 0.014265 -0.004080 -0.001353 0.000000 -0.002328 0.000000
# 2 -0.004080 0.007664 -0.003417 0.000000 0.001156 0.000000
# 3 -0.001353 -0.003417 0.015078 0.000000 -0.002077 0.000000
# 4 0.000000 0.000000 0.000000 0.035425 0.000000 0.006325
# 5 -0.002328 0.001156 -0.002077 0.000000 0.037866 0.000000
# 6 0.000000 0.000000 0.000000 0.006325 0.000000 0.028275
#
#
# Mechanical properties :
#
#
# Convention : Reuss Voigt Hill
#
# Bulk Modulus (GPa) = 51.79415 66.27096 59.03256
# Shear Modulus (GPa) = 30.72983 33.66614 32.19799
#
# Velocity S-wave (km/s) = 3.77513 3.95138 3.86426
# Velocity P-wave (km/s) = 6.55918 7.18001 6.87660
#
# Compressibility (1/GPa) = 0.01930720
#
# Stress axis : x y z
#
# Youngs Moduli (GPa) = 70.10251 130.47645 66.32323
#
# Poissons Ratio (x) = 0.53230 0.08976
# Poissons Ratio (y) = 0.28600 0.22661
# Poissons Ratio (z) = 0.09488 0.44580
#
# Static dielectric constant tensor:
#      x y z
#    x 1.673630 0.000000 -0.115130 
#    y 0.000000 2.345690 0.000000 
#    z -0.115130 0.000000 1.721880 
# 
# From -- ./inp_files/152828.got.cif
#   From: 2010.05.17/outbox.cif.g08.bks.cpg/sg15_77_cif.got.tgz:152828.got - 2010.06.03 18:47:42.
