data_PCOD9295342
_publ_section_title
;
Structure prediction by ZEFSAII (Michael W. Deem and Ramdas Pophale) SiO2 
 PCOD9295342
Probable space group: C 2/C
;
_chemical_formula_sum "Si O2"
_cell_formula_units_Z 48
_cell_length_a 10.036547
_cell_length_b 12.292103
_cell_length_c 23.861270
_cell_angle_alpha 90.000000
_cell_angle_beta 48.193014
_cell_angle_gamma 90.000000
_cell_volume 2194.271605
_symmetry_space_group_name_H-M "C 2/C"
_symmetry_group_IT_number 15
_symmetry_cell_setting 'monoclinic'
loop_
_space_group_symop_operation_xyz
x,y,z
-x,y,1/2-z
-x,-y,-z
x,-y,1/2+z
1/2+x,1/2+y,z
1/2-x,1/2+y,1/2-z
1/2-x,1/2-y,-z
1/2+x,1/2-y,1/2+z
loop_
_atom_site_type_symbol
_atom_site_label
_atom_site_fract_x
_atom_site_fract_y
_atom_site_fract_z
Si Si1 0.213471 0.603052 0.678521
Si Si2 0.697766 0.764632 0.949052
Si Si3 0.202957 0.136787 0.717213
Si Si4 0.696734 0.862579 0.671650
Si Si5 0.311628 0.999454 0.086800
Si Si6 0.726169 0.775962 0.443974
O O1 0.250335 0.674844 0.612597
O O2 0.292428 0.633796 0.717252
O O3 0.283552 0.479948 0.648750
O O4 0.000000 0.605950 0.750000
O O5 0.762516 0.880983 0.905113
O O6 0.750000 0.750000 0.000000
O O7 0.482623 0.766957 0.011493
O O8 0.279486 0.256184 0.678652
O O9 0.309843 0.041370 0.652738
O O10 0.000000 0.131198 0.750000
O O11 0.500000 0.877627 0.750000
O O12 0.672084 0.817964 0.616711
O O13 0.210878 0.897257 0.087526
O O14 0.500000 0.000000 0.000000
O O15 0.750000 0.750000 0.500000
#
# Coordination Sequence:
#
# PCOD9295342 Si02
#       6
#     8   8   8   8   8   8
#     4  11  27  42  68  94 135 177 211 269 339 392
#     4  11  27  43  62  99 139 173 213 268 338 397
#     4  10  23  43  68  97 125 168 231 274 317 385
#     4   9  22  42  66  92 129 166 216 264 322 387
#     4   9  22  42  67  90 133 175 211 262 336 393
#     4  10  23  42  69  93 122 171 224 266 312 380
#
# _framework density 21.875140999999999
#
# number of rings (size 3 to 8) (size 9 to 14) (size 15 to 20)
#    0.000    2.000    0.000    0.000   18.667    5.333 
#    0.000    0.000    0.000    0.000    0.000    0.000 
#    0.000    0.000    0.000    0.000    0.000    0.000 
#
# Total GULP energy -133690.080347 kJ/mol
# GULP energy per Si atom -5570.420014 kJ/mol
# Density = 2.182535 g / cm^3
# Si number density = 21.875141 Si / 1000 Ang^3
#
#
#
# Elastic Constant Matrix: (Units=GPa)
#
#
# Indices 1 2 3 4 5 6 
#
# 1 106.0582 34.1745 44.7233 0.0000 28.0974 0.0000
# 2 34.1745 184.6378 90.7033 0.0000 32.6938 0.0000
# 3 44.7233 90.7033 155.1398 0.0001 40.6656 0.0000
# 4 0.0000 0.0000 0.0001 23.2247 0.0000 -4.0720
# 5 28.0974 32.6938 40.6656 0.0000 52.9609 0.0000
# 6 0.0000 0.0000 0.0000 -4.0720 0.0000 5.7128
#
#
#
# Elastic Compliance Matrix: (Units=1/GPa)
#
#
# Indices 1 2 3 4 5 6 
#
# 1 0.011539 -0.000407 -0.001940 0.000000 -0.004381 0.000000
# 2 -0.000407 0.007723 -0.004012 0.000000 -0.001471 0.000000
# 3 -0.001940 -0.004012 0.010557 0.000000 -0.004600 0.000000
# 4 0.000000 0.000000 0.000000 0.049207 0.000000 0.035074
# 5 -0.004381 -0.001471 -0.004600 0.000000 0.025646 0.000000
# 6 0.000000 0.000000 0.000000 0.035074 0.000000 0.200045
#
#
# Mechanical properties :
#
#
# Convention : Reuss Voigt Hill
#
# Bulk Modulus (GPa) = 58.48239 87.22643 72.85441
# Shear Modulus (GPa) = 15.47343 34.79534 25.13438
#
# Velocity S-wave (km/s) = 2.66249 3.99260 3.39336
# Velocity P-wave (km/s) = 6.02034 7.82405 6.98070
#
# Compressibility (1/GPa) = 0.01709916
#
# Stress axis : x y z
#
# Youngs Moduli (GPa) = 86.66576 129.48638 94.72724
#
# Poissons Ratio (x) = 0.05269 0.18379
# Poissons Ratio (y) = 0.03526 0.38008
# Poissons Ratio (z) = 0.16815 0.51955
#
# Static dielectric constant tensor:
#      x y z
#    x 1.816730 0.000000 -0.028750 
#    y 0.000000 1.870940 0.000000 
#    z -0.028750 0.000000 1.853980 
# 
# From -- ./inp_files/237436.got.cif
#   From: 2010.05.17/outbox.cif.g08.bks.cpg/sg15_119_cif.got.tgz:237436.got - 2010.06.03 18:47:42.
