data_PCOD9295701
_publ_section_title
;
Structure prediction by ZEFSAII (Michael W. Deem and Ramdas Pophale) SiO2 
 PCOD9295701
Probable space group: C 2/C
;
_chemical_formula_sum "Si O2"
_cell_formula_units_Z 48
_cell_length_a 16.635743
_cell_length_b 20.587663
_cell_length_c 10.552247
_cell_angle_alpha 90.000000
_cell_angle_beta 33.464635
_cell_angle_gamma 90.000000
_cell_volume 1992.867521
_symmetry_space_group_name_H-M "C 2/C"
_symmetry_group_IT_number 15
_symmetry_cell_setting 'monoclinic'
loop_
_space_group_symop_operation_xyz
x,y,z
-x,y,1/2-z
-x,-y,-z
x,-y,1/2+z
1/2+x,1/2+y,z
1/2-x,1/2+y,1/2-z
1/2-x,1/2-y,-z
1/2+x,1/2-y,1/2+z
loop_
_atom_site_type_symbol
_atom_site_label
_atom_site_fract_x
_atom_site_fract_y
_atom_site_fract_z
Si Si1 0.962799 0.040278 0.176791
Si Si2 0.785369 0.499218 0.381506
Si Si3 0.164192 0.138564 0.583837
Si Si4 0.879598 0.449306 0.482872
Si Si5 0.472974 0.313336 0.982191
Si Si6 0.789588 0.695824 0.168628
O O1 0.779566 0.039186 0.387819
O O2 0.002167 0.116237 0.108399
O O3 0.112772 0.022504 0.072321
O O4 0.000000 0.000000 0.000000
O O5 0.760123 0.573512 0.468296
O O6 0.936052 0.464935 0.247165
O O7 0.838195 0.511198 0.166354
O O8 0.129219 0.173182 0.760933
O O9 0.243385 0.182905 0.376015
O O10 0.000000 0.120183 0.750000
O O11 0.864305 0.371487 0.527906
O O12 0.392330 0.257095 0.013371
O O13 0.634827 0.291479 0.806572
#
# Coordination Sequence:
#
# PCOD9295701 Si02
#       6
#     8   8   8   8   8   8
#     4  12  24  40  71 110 140 179 238 312 365 422
#     4  11  21  40  68 102 138 178 235 298 369 420
#     4   9  19  37  68 102 139 183 239 302 356 425
#     4  11  24  44  67  98 144 187 235 300 369 436
#     4  11  22  43  68 103 144 193 242 293 358 439
#     4  10  23  43  67  99 143 194 240 294 360 434
#
# _framework density 24.085896000000002
#
# number of rings (size 3 to 8) (size 9 to 14) (size 15 to 20)
#    0.000    1.333    3.333    2.500    2.333    0.667 
#    3.000    5.000    0.000    0.000    0.000    0.000 
#    0.000    0.000    0.000    0.000    0.000    0.000 
#
# Total GULP energy -133985.295310 kJ/mol
# GULP energy per Si atom -5582.720638 kJ/mol
# Density = 2.403108 g / cm^3
# Si number density = 24.085896 Si / 1000 Ang^3
#
#
#
# Elastic Constant Matrix: (Units=GPa)
#
#
# Indices 1 2 3 4 5 6 
#
# 1 207.1969 89.2578 89.3542 -0.0001 3.9925 -0.0005
# 2 89.2578 162.5125 84.3087 -0.0001 -13.9432 -0.0005
# 3 89.3542 84.3087 272.9080 0.0000 -19.4571 -0.0005
# 4 -0.0001 -0.0001 0.0000 20.5582 0.0002 -21.6746
# 5 3.9925 -13.9432 -19.4571 0.0002 49.0770 0.0004
# 6 -0.0005 -0.0005 -0.0005 -21.6746 0.0004 37.2938
#
#
#
# Elastic Compliance Matrix: (Units=1/GPa)
#
#
# Indices 1 2 3 4 5 6 
#
# 1 0.006851 -0.003213 -0.001395 0.000000 -0.002023 0.000000
# 2 -0.003213 0.008906 -0.001544 0.000000 0.002179 0.000000
# 3 -0.001395 -0.001544 0.004708 0.000000 0.001541 0.000000
# 4 0.000000 0.000000 0.000000 0.125607 -0.000001 0.073001
# 5 -0.002023 0.002179 0.001541 -0.000001 0.021771 -0.000001
# 6 0.000000 0.000000 0.000000 0.073001 -0.000001 0.069241
#
#
# Mechanical properties :
#
#
# Convention : Reuss Voigt Hill
#
# Bulk Modulus (GPa) = 122.52661 129.82877 126.17769
# Shear Modulus (GPa) = 19.83281 46.69892 33.26586
#
# Velocity S-wave (km/s) = 2.87264 4.40801 3.72039
# Velocity P-wave (km/s) = 7.87298 8.94018 8.42350
#
# Compressibility (1/GPa) = 0.00816149
#
# Stress axis : x y z
#
# Youngs Moduli (GPa) = 145.96813 112.28524 212.41396
#
# Poissons Ratio (x) = 0.36074 0.29628
# Poissons Ratio (y) = 0.46895 0.32797
# Poissons Ratio (z) = 0.20360 0.17337
#
# Static dielectric constant tensor:
#      x y z
#    x 1.983450 0.000000 -0.003820 
#    y 0.000000 1.800750 0.000000 
#    z -0.003820 0.000000 1.986180 
# 
# From -- ./inp_files/107242.got.cif
#   From: 2010.05.17/outbox.cif.g08.bks.cpg/sg15_54_cif.got.tgz:107242.got - 2010.06.03 18:47:42.
