data_PCOD9295488
_publ_section_title
;
Structure prediction by ZEFSAII (Michael W. Deem and Ramdas Pophale) SiO2 
 PCOD9295488
Probable space group: C 2/C
;
_chemical_formula_sum "Si O2"
_cell_formula_units_Z 40
_cell_length_a 12.426382
_cell_length_b 13.944796
_cell_length_c 16.696974
_cell_angle_alpha 90.000000
_cell_angle_beta 41.427706
_cell_angle_gamma 90.000000
_cell_volume 1914.428021
_symmetry_space_group_name_H-M "C 2/C"
_symmetry_group_IT_number 15
_symmetry_cell_setting 'monoclinic'
loop_
_space_group_symop_operation_xyz
x,y,z
-x,y,1/2-z
-x,-y,-z
x,-y,1/2+z
1/2+x,1/2+y,z
1/2-x,1/2+y,1/2-z
1/2-x,1/2-y,-z
1/2+x,1/2-y,1/2+z
loop_
_atom_site_type_symbol
_atom_site_label
_atom_site_fract_x
_atom_site_fract_y
_atom_site_fract_z
Si Si1 0.262078 0.279306 0.293267
Si Si2 0.320560 0.158656 0.414801
Si Si3 0.501452 0.104088 0.464181
Si Si4 0.511942 0.448885 0.405870
Si Si5 0.628855 0.636804 0.246922
O O1 0.339460 0.204667 0.315047
O O2 0.146777 0.345078 0.410063
O O3 0.383064 0.350510 0.174538
O O4 0.136670 0.217535 0.310416
O O5 0.250000 0.250000 0.500000
O O6 0.460876 0.113084 0.392602
O O7 0.174464 0.082046 0.501159
O O8 0.681702 0.140638 0.383773
O O9 0.500000 0.000000 0.500000
O O10 0.500000 0.500000 0.500000
O O11 0.581851 0.532377 0.309116
O O12 0.500000 0.658379 0.250000
#
# Coordination Sequence:
#
# PCOD9295488 Si02
#       5
#     8   8   8   8   8
#     4  11  24  47  71 103 142 186 243 295 352 436
#     4  10  23  42  76 103 136 182 242 301 347 421
#     4  11  23  45  71 109 137 181 241 291 360 427
#     4  12  25  48  70 107 144 185 241 298 366 423
#     4  12  27  46  70  99 146 190 226 295 366 432
#
# _framework density 20.893968000000001
#
# number of rings (size 3 to 8) (size 9 to 14) (size 15 to 20)
#    0.000    0.800    4.000    3.600    2.800    4.800 
#    3.600    0.000    0.000    0.000    0.000    0.000 
#    0.000    0.000    0.000    0.000    0.000    0.000 
#
# Total GULP energy -111341.485721 kJ/mol
# GULP energy per Si atom -5567.074286 kJ/mol
# Density = 2.084641 g / cm^3
# Si number density = 20.893968 Si / 1000 Ang^3
#
#
#
# Elastic Constant Matrix: (Units=GPa)
#
#
# Indices 1 2 3 4 5 6 
#
# 1 201.3484 66.7780 55.7588 0.0000 -9.6071 0.0000
# 2 66.7780 107.3543 39.0406 -0.0001 12.5588 0.0000
# 3 55.7588 39.0406 110.8638 -0.0003 -2.4601 0.0002
# 4 0.0000 -0.0001 -0.0003 32.4514 0.0001 -6.4678
# 5 -9.6071 12.5588 -2.4601 0.0001 32.9617 0.0000
# 6 0.0000 0.0000 0.0002 -6.4678 0.0000 38.5254
#
#
#
# Elastic Compliance Matrix: (Units=1/GPa)
#
#
# Indices 1 2 3 4 5 6 
#
# 1 0.007034 -0.004035 -0.002040 0.000000 0.003435 0.000000
# 2 -0.004035 0.013662 -0.002928 0.000000 -0.006600 0.000000
# 3 -0.002040 -0.002928 0.011107 0.000000 0.001350 0.000000
# 4 0.000000 0.000000 0.000000 0.031882 0.000000 0.005352
# 5 0.003435 -0.006600 0.001350 0.000000 0.033955 0.000000
# 6 0.000000 0.000000 0.000000 0.005352 0.000000 0.026855
#
#
# Mechanical properties :
#
#
# Convention : Reuss Voigt Hill
#
# Bulk Modulus (GPa) = 72.48546 82.52458 77.50502
# Shear Modulus (GPa) = 33.99028 37.98697 35.98862
#
# Velocity S-wave (km/s) = 4.03773 4.26852 4.15473
# Velocity P-wave (km/s) = 7.51699 7.99227 7.75827
#
# Compressibility (1/GPa) = 0.01379587
#
# Stress axis : x y z
#
# Youngs Moduli (GPa) = 142.17247 73.19695 90.03037
#
# Poissons Ratio (x) = 0.29535 0.18370
# Poissons Ratio (y) = 0.57367 0.26361
# Poissons Ratio (z) = 0.29009 0.21432
#
# Static dielectric constant tensor:
#      x y z
#    x 1.783290 0.000000 -0.031660 
#    y 0.000000 2.822710 0.000000 
#    z -0.031660 0.000000 1.683340 
# 
# From -- ./inp_files/197590.got.cif
#   From: 2010.05.17/outbox.cif.g08.bks.cpg/sg15_99_cif.got.tgz:197590.got - 2010.06.03 18:47:42.
