data_PCOD9295471
_publ_section_title
;
Structure prediction by ZEFSAII (Michael W. Deem and Ramdas Pophale) SiO2 
 PCOD9295471
Probable space group: C 2/C
;
_chemical_formula_sum "Si O2"
_cell_formula_units_Z 44
_cell_length_a 19.099775
_cell_length_b 13.332762
_cell_length_c 7.391202
_cell_angle_alpha 90.000000
_cell_angle_beta 122.886539
_cell_angle_gamma 90.000000
_cell_volume 1580.564216
_symmetry_space_group_name_H-M "C 2/C"
_symmetry_group_IT_number 15
_symmetry_cell_setting 'monoclinic'
loop_
_space_group_symop_operation_xyz
x,y,z
-x,y,1/2-z
-x,-y,-z
x,-y,1/2+z
1/2+x,1/2+y,z
1/2-x,1/2+y,1/2-z
1/2-x,1/2-y,-z
1/2+x,1/2-y,1/2+z
loop_
_atom_site_type_symbol
_atom_site_label
_atom_site_fract_x
_atom_site_fract_y
_atom_site_fract_z
Si Si1 0.770361 0.890027 0.038031
Si Si2 0.521036 0.839136 0.470416
Si Si3 0.867288 0.077314 0.321426
Si Si4 0.500000 0.317278 0.250000
Si Si5 0.785221 0.826709 0.406779
Si Si6 0.636676 0.987196 0.199657
O O1 0.786176 0.798148 0.197840
O O2 0.839619 0.966372 0.224726
O O3 0.795592 0.886796 0.863387
O O4 0.677874 0.940211 0.917169
O O5 0.500000 0.789332 0.250000
O O6 0.537637 0.761341 0.655178
O O7 0.440650 0.908903 0.404806
O O8 0.595105 0.918860 0.534642
O O9 0.946407 0.109205 0.547691
O O10 0.865155 0.133187 0.125788
O O11 0.750000 0.750000 0.500000
O O12 0.717354 0.915763 0.306772
#
# Coordination Sequence:
#
# PCOD9295471 Si02
#       6
#     8   8   8   4   8   8
#     4  11  23  46  73 102 136 181 233 280 348 414
#     4  11  26  43  68 103 142 184 218 279 355 409
#     4  11  25  46  69 101 132 185 233 285 343 402
#     4  12  30  46  66 102 140 174 244 290 332 408
#     4  11  24  42  70 106 141 175 230 285 338 410
#     4  10  23  42  73 103 139 181 225 273 349 426
#
# _framework density 27.838160999999999
#
# number of rings (size 3 to 8) (size 9 to 14) (size 15 to 20)
#    0.000    1.091    3.636    2.182   12.727    4.364 
#    0.000    0.000    0.000    0.000    0.000    0.000 
#    0.000    0.000    0.000    0.000    0.000    0.000 
#
# Total GULP energy -122598.014214 kJ/mol
# GULP energy per Si atom -5572.637010 kJ/mol
# Density = 2.777480 g / cm^3
# Si number density = 27.838161 Si / 1000 Ang^3
#
#
#
# Elastic Constant Matrix: (Units=GPa)
#
#
# Indices 1 2 3 4 5 6 
#
# 1 63.0022 19.2084 28.4487 0.0000 5.5667 0.0000
# 2 19.2084 44.7148 26.2561 0.0000 7.5450 0.0000
# 3 28.4487 26.2561 206.5600 0.0000 -8.3311 0.0000
# 4 0.0000 0.0000 0.0000 38.1887 0.0000 17.6780
# 5 5.5667 7.5450 -8.3311 0.0000 68.1622 0.0000
# 6 0.0000 0.0000 0.0000 17.6780 0.0000 8.5886
#
#
#
# Elastic Compliance Matrix: (Units=1/GPa)
#
#
# Indices 1 2 3 4 5 6 
#
# 1 0.018859 -0.006900 -0.001760 0.000000 -0.000991 0.000000
# 2 -0.006900 0.027347 -0.002638 0.000000 -0.002786 0.000000
# 3 -0.001760 -0.002638 0.005463 0.000000 0.001104 0.000000
# 4 0.000000 0.000000 0.000000 0.554992 0.000000 -1.142350
# 5 -0.000991 -0.002786 0.001104 0.000000 0.015195 0.000000
# 6 0.000000 0.000000 0.000000 -1.142350 0.000000 2.467751
#
#
# Mechanical properties :
#
#
# Convention : Reuss Voigt Hill
#
# Bulk Modulus (GPa) = 34.39724 51.34482 42.87103
# Shear Modulus (GPa) = 1.60159 39.01217 20.30688
#
# Velocity S-wave (km/s) = 0.75932 3.74758 2.70379
# Velocity P-wave (km/s) = 3.62653 6.09999 5.01805
#
# Compressibility (1/GPa) = 0.02907210
#
# Stress axis : x y z
#
# Youngs Moduli (GPa) = 53.02597 36.56661 183.03341
#
# Poissons Ratio (x) = 0.25232 0.32218
# Poissons Ratio (y) = 0.36590 0.48287
# Poissons Ratio (z) = 0.09334 0.09647
#
# Static dielectric constant tensor:
#      x y z
#    x 2.763200 0.000000 -0.266440 
#    y 0.000000 2.251190 0.000000 
#    z -0.266440 0.000000 2.272790 
# 
# From -- ./inp_files/66342.got.cif
#   From: 2010.05.17/outbox.cif.g08.bks.cpg/sg15_34_cif.got.tgz:66342.got - 2010.06.03 18:47:42.
