data_PCOD9295708
_publ_section_title
;
Structure prediction by ZEFSAII (Michael W. Deem and Ramdas Pophale) SiO2 
 PCOD9295708
Probable space group: C 2/C
;
_chemical_formula_sum "Si O2"
_cell_formula_units_Z 28
_cell_length_a 12.020134
_cell_length_b 8.449530
_cell_length_c 13.576611
_cell_angle_alpha 90.000000
_cell_angle_beta 127.729486
_cell_angle_gamma 90.000000
_cell_volume 1090.585200
_symmetry_space_group_name_H-M "C 2/C"
_symmetry_group_IT_number 15
_symmetry_cell_setting 'monoclinic'
loop_
_space_group_symop_operation_xyz
x,y,z
-x,y,1/2-z
-x,-y,-z
x,-y,1/2+z
1/2+x,1/2+y,z
1/2-x,1/2+y,1/2-z
1/2-x,1/2-y,-z
1/2+x,1/2-y,1/2+z
loop_
_atom_site_type_symbol
_atom_site_label
_atom_site_fract_x
_atom_site_fract_y
_atom_site_fract_z
Si Si1 0.459687 0.818005 0.341794
Si Si2 0.691056 0.881458 0.754084
Si Si3 0.624892 0.445078 0.995603
Si Si4 0.000000 0.123317 0.750000
O O1 0.500000 0.832412 0.250000
O O2 0.330208 0.692862 0.281154
O O3 0.595314 0.742032 0.469477
O O4 0.399093 0.983486 0.348548
O O5 0.593859 0.736134 0.732519
O O6 0.742412 0.976374 0.880215
O O7 0.597155 0.519942 0.873987
O O8 0.500000 0.500000 0.000000
#
# Coordination Sequence:
#
# PCOD9295708 Si02
#       4
#     8   8   8   4
#     4  11  23  45  68 100 138 177 231 276 334 405
#     4  11  24  44  69 102 138 181 227 280 342 400
#     4  10  23  43  68 100 139 177 228 282 336 403
#     4  12  22  46  70 102 138 182 224 288 334 410
#
# _framework density 25.674289999999999
#
# number of rings (size 3 to 8) (size 9 to 14) (size 15 to 20)
#    0.000    1.143    2.857    4.286    0.000    1.143 
#    0.000    7.143    0.000    0.000    0.000    0.000 
#    0.000    0.000    0.000    0.000    0.000    0.000 
#
# Total GULP energy -78385.090177 kJ/mol
# GULP energy per Si atom -5598.935013 kJ/mol
# Density = 2.561585 g / cm^3
# Si number density = 25.674290 Si / 1000 Ang^3
#
#
#
# Elastic Constant Matrix: (Units=GPa)
#
#
# Indices 1 2 3 4 5 6 
#
# 1 103.4858 37.8312 6.2177 0.0000 2.7999 0.0000
# 2 37.8312 154.4210 46.8191 0.0000 5.9869 0.0000
# 3 6.2177 46.8191 95.8602 0.0000 9.9527 0.0000
# 4 0.0000 0.0000 0.0000 39.5798 0.0000 6.1828
# 5 2.7999 5.9869 9.9527 0.0000 27.5483 0.0000
# 6 0.0000 0.0000 0.0000 6.1828 0.0000 48.7103
#
#
#
# Elastic Compliance Matrix: (Units=1/GPa)
#
#
# Indices 1 2 3 4 5 6 
#
# 1 0.010667 -0.002815 0.000760 0.000000 -0.000747 0.000000
# 2 -0.002815 0.008347 -0.003881 0.000000 -0.000126 0.000000
# 3 0.000760 -0.003881 0.012674 0.000000 -0.003813 0.000000
# 4 0.000000 0.000000 0.000000 0.025776 0.000000 -0.003272
# 5 -0.000747 -0.000126 -0.003813 0.000000 0.037781 0.000000
# 6 0.000000 0.000000 0.000000 -0.003272 0.000000 0.020945
#
#
# Mechanical properties :
#
#
# Convention : Reuss Voigt Hill
#
# Bulk Modulus (GPa) = 50.46233 59.50032 54.98132
# Shear Modulus (GPa) = 37.12887 40.69429 38.91158
#
# Velocity S-wave (km/s) = 3.80695 3.98555 3.89728
# Velocity P-wave (km/s) = 6.24671 6.66370 6.45857
#
# Compressibility (1/GPa) = 0.01981676
#
# Stress axis : x y z
#
# Youngs Moduli (GPa) = 93.74979 119.80365 78.90188
#
# Poissons Ratio (x) = 0.33722 -0.06000
# Poissons Ratio (y) = 0.26389 0.30623
# Poissons Ratio (z) = -0.07130 0.46497
#
# Static dielectric constant tensor:
#      x y z
#    x 2.024230 0.000000 0.054540 
#    y 0.000000 2.049880 0.000000 
#    z 0.054540 0.000000 2.085800 
# 
# From -- ./inp_files/93189.got.cif
#   From: 2010.05.17/outbox.cif.g08.bks.cpg/sg15_47_cif.got.tgz:93189.got - 2010.06.03 18:47:42.
