data_PCOD9295456
_publ_section_title
;
Structure prediction by ZEFSAII (Michael W. Deem and Ramdas Pophale) SiO2 
 PCOD9295456
Probable space group: C 2/C
;
_chemical_formula_sum "Si O2"
_cell_formula_units_Z 40
_cell_length_a 12.600194
_cell_length_b 22.291328
_cell_length_c 6.608922
_cell_angle_alpha 90.000000
_cell_angle_beta 127.704767
_cell_angle_gamma 90.000000
_cell_volume 1468.639034
_symmetry_space_group_name_H-M "C 2/C"
_symmetry_group_IT_number 15
_symmetry_cell_setting 'monoclinic'
loop_
_space_group_symop_operation_xyz
x,y,z
-x,y,1/2-z
-x,-y,-z
x,-y,1/2+z
1/2+x,1/2+y,z
1/2-x,1/2+y,1/2-z
1/2-x,1/2-y,-z
1/2+x,1/2-y,1/2+z
loop_
_atom_site_type_symbol
_atom_site_label
_atom_site_fract_x
_atom_site_fract_y
_atom_site_fract_z
Si Si1 0.109033 0.008439 0.250763
Si Si2 0.049964 0.810329 0.140769
Si Si3 0.862072 0.580238 0.028155
Si Si4 0.768200 0.869325 0.485524
Si Si5 0.188394 0.699061 0.270381
O O1 0.162193 0.076844 0.312573
O O2 0.068237 0.003050 0.455396
O O3 0.234357 0.962209 0.405614
O O4 0.250000 0.750000 0.500000
O O5 0.123229 0.846996 0.056696
O O6 0.051972 0.741619 0.083928
O O7 0.096355 0.825980 0.431618
O O8 0.850923 0.638891 0.156374
O O9 0.000000 0.548950 0.250000
O O10 0.852531 0.603736 0.787003
O O11 0.726417 0.816311 0.583593
#
# Coordination Sequence:
#
# PCOD9295456 Si02
#       5
#     8   8   8   8   8
#     4  12  25  46  71 108 149 198 257 311 376 456
#     4  10  23  42  72 105 146 194 254 317 382 450
#     4  11  26  47  73 106 154 199 254 315 384 455
#     4  11  25  44  72 106 148 202 252 314 387 449
#     4  10  23  44  69 106 147 194 250 316 380 459
#
# _framework density 27.236097999999998
#
# number of rings (size 3 to 8) (size 9 to 14) (size 15 to 20)
#    0.000    1.200    2.000    2.400    2.800    4.800 
#    0.000    2.000    0.000    0.000    0.000    0.000 
#    0.000    0.000    0.000    0.000    0.000    0.000 
#
# Total GULP energy -111581.541673 kJ/mol
# GULP energy per Si atom -5579.077084 kJ/mol
# Density = 2.717411 g / cm^3
# Si number density = 27.236098 Si / 1000 Ang^3
#
#
#
# Elastic Constant Matrix: (Units=GPa)
#
#
# Indices 1 2 3 4 5 6 
#
# 1 125.3194 56.2163 89.9930 0.0000 -6.0346 0.0000
# 2 56.2163 144.1482 44.1740 0.0000 7.7403 0.0000
# 3 89.9930 44.1740 172.0522 0.0000 9.0205 0.0000
# 4 0.0000 0.0000 0.0000 24.7920 0.0000 -95.3723
# 5 -6.0346 7.7403 9.0205 0.0000 40.7127 0.0000
# 6 0.0000 0.0000 0.0000 -95.3723 0.0000 -44.0098
#
#
#
# Elastic Compliance Matrix: (Units=1/GPa)
#
#
# Indices 1 2 3 4 5 6 
#
# 1 0.015076 -0.003945 -0.007112 0.000000 0.004560 0.000000
# 2 -0.003945 0.008604 -0.000029 0.000000 -0.002214 0.000000
# 3 -0.007112 -0.000029 0.009707 0.000000 -0.003199 0.000000
# 4 0.000000 0.000000 0.000000 0.004320 0.000000 -0.009362
# 5 0.004560 -0.002214 -0.003199 0.000000 0.026368 0.000000
# 6 0.000000 0.000000 0.000000 -0.009362 0.000000 -0.002434
#
#
# Mechanical properties :
#
#
# Convention : Reuss Voigt Hill
#
# Bulk Modulus (GPa) = 89.16979 91.36516 90.26748
# Shear Modulus (GPa) = 57.10886 21.04141 39.07513
#
# Velocity S-wave (km/s) = 4.58406 2.78250 3.79183
# Velocity P-wave (km/s) = 7.79928 6.62884 7.23776
#
# Compressibility (1/GPa) = 0.01121456
#
# Stress axis : x y z
#
# Youngs Moduli (GPa) = 66.33118 116.22913 103.01459
#
# Poissons Ratio (x) = 0.45851 0.73262
# Poissons Ratio (y) = 0.26167 0.00304
# Poissons Ratio (z) = 0.47173 0.00343
#
# Static dielectric constant tensor:
#      x y z
#    x -0.175530 0.000000 -2.089570 
#    y 0.000000 1.386220 0.000000 
#    z -2.089570 0.000000 0.020770 
# 
# From -- ./inp_files/13601.got.cif
#   From: 2010.05.17/outbox.cif.g08.bks.cpg/sg15_7_cif.got.tgz:13601.got - 2010.06.03 18:47:42.
