data_PCOD9295712
_publ_section_title
;
Structure prediction by ZEFSAII (Michael W. Deem and Ramdas Pophale) SiO2 
 PCOD9295712
Probable space group: C 2/C
;
_chemical_formula_sum "Si O2"
_cell_formula_units_Z 44
_cell_length_a 12.495107
_cell_length_b 8.492997
_cell_length_c 23.279640
_cell_angle_alpha 90.000000
_cell_angle_beta 120.315878
_cell_angle_gamma 90.000000
_cell_volume 2132.635653
_symmetry_space_group_name_H-M "C 2/C"
_symmetry_group_IT_number 15
_symmetry_cell_setting 'monoclinic'
loop_
_space_group_symop_operation_xyz
x,y,z
-x,y,1/2-z
-x,-y,-z
x,-y,1/2+z
1/2+x,1/2+y,z
1/2-x,1/2+y,1/2-z
1/2-x,1/2-y,-z
1/2+x,1/2-y,1/2+z
loop_
_atom_site_type_symbol
_atom_site_label
_atom_site_fract_x
_atom_site_fract_y
_atom_site_fract_z
Si Si1 0.114680 0.057148 0.568698
Si Si2 0.500000 0.333229 0.250000
Si Si3 0.451596 0.903988 0.932436
Si Si4 0.607497 0.091016 0.691097
Si Si5 0.848190 0.042710 0.296014
Si Si6 0.878890 0.402050 0.626506
O O1 0.092779 0.014473 0.628970
O O2 0.121382 0.247437 0.568426
O O3 0.238821 0.961167 0.586072
O O4 0.000000 0.000000 0.500000
O O5 0.408722 0.442675 0.261837
O O6 0.581276 0.229594 0.316644
O O7 0.566262 0.854782 0.921439
O O8 0.376147 0.019743 0.869029
O O9 0.500000 0.000000 0.000000
O O10 0.702334 0.995663 0.756196
O O11 0.634070 0.272667 0.704394
O O12 0.534223 0.051161 0.833576
#
# Coordination Sequence:
#
# PCOD9295712 Si02
#       6
#     8   4   8   8   8   8
#     4  12  25  44  70  99 142 188 239 290 363 429
#     4  12  24  44  70 106 138 188 242 294 366 424
#     4  10  23  46  68 103 141 184 237 294 357 432
#     4  10  23  43  68 102 135 182 231 294 355 416
#     4  12  23  44  69 103 137 182 237 293 354 434
#     4  10  24  46  70  99 145 183 234 301 359 427
#
# _framework density 20.631748000000002
#
# number of rings (size 3 to 8) (size 9 to 14) (size 15 to 20)
#    1.091    0.000    1.818    5.455    0.000    5.091 
#    3.273    0.000    0.000    0.000    0.000    0.000 
#    0.000    0.000    0.000    0.000    0.000    0.000 
#
# Total GULP energy -122860.031138 kJ/mol
# GULP energy per Si atom -5584.546870 kJ/mol
# Density = 2.058479 g / cm^3
# Si number density = 20.631748 Si / 1000 Ang^3
#
#
#
# Elastic Constant Matrix: (Units=GPa)
#
#
# Indices 1 2 3 4 5 6 
#
# 1 91.6029 18.8634 45.5873 0.0000 20.3622 0.0000
# 2 18.8634 132.6179 49.2995 0.0000 19.3189 0.0000
# 3 45.5873 49.2995 146.2250 0.0000 9.9906 0.0000
# 4 0.0000 0.0000 0.0000 8.0449 0.0000 14.5629
# 5 20.3622 19.3189 9.9906 0.0000 39.1875 0.0000
# 6 0.0000 0.0000 0.0000 14.5629 0.0000 22.6250
#
#
#
# Elastic Compliance Matrix: (Units=1/GPa)
#
#
# Indices 1 2 3 4 5 6 
#
# 1 0.014380 0.000480 -0.004191 0.000000 -0.006640 0.000000
# 2 0.000480 0.009158 -0.002963 0.000000 -0.004009 0.000000
# 3 -0.004191 -0.002963 0.009054 0.000000 0.001330 0.000000
# 4 0.000000 0.000000 0.000000 -0.752611 0.000000 0.484429
# 5 -0.006640 -0.004009 0.001330 0.000000 0.030605 0.000000
# 6 0.000000 0.000000 0.000000 0.484429 0.000000 -0.267610
#
#
# Mechanical properties :
#
#
# Convention : Reuss Voigt Hill
#
# Bulk Modulus (GPa) = 51.96984 66.43845 59.20414
# Shear Modulus (GPa) = -5.33468 31.08453 12.87492
#
# Velocity S-wave (km/s) = -1.60975 3.88575 2.50078
# Velocity P-wave (km/s) = 4.66786 7.23906 6.09069
#
# Compressibility (1/GPa) = 0.01924193
#
# Stress axis : x y z
#
# Youngs Moduli (GPa) = 69.54303 109.19788 110.45376
#
# Poissons Ratio (x) = -0.05241 0.46293
# Poissons Ratio (y) = -0.03338 0.32730
# Poissons Ratio (z) = 0.29146 0.32358
#
# Static dielectric constant tensor:
#      x y z
#    x 1.756230 0.000000 0.015110 
#    y 0.000000 1.682550 0.000000 
#    z 0.015110 0.000000 1.566410 
# 
# From -- ./inp_files/242638.got.cif
#   From: 2010.05.17/outbox.cif.g08.bks.cpg/sg15_122_cif.got.tgz:242638.got - 2010.06.03 18:47:42.
