data_PCOD9295647
_publ_section_title
;
Structure prediction by ZEFSAII (Michael W. Deem and Ramdas Pophale) SiO2 
 PCOD9295647
Probable space group: C 2/C
;
_chemical_formula_sum "Si O2"
_cell_formula_units_Z 40
_cell_length_a 16.101166
_cell_length_b 9.238037
_cell_length_c 11.368776
_cell_angle_alpha 90.000000
_cell_angle_beta 74.688578
_cell_angle_gamma 90.000000
_cell_volume 1631.004375
_symmetry_space_group_name_H-M "C 2/C"
_symmetry_group_IT_number 15
_symmetry_cell_setting 'monoclinic'
loop_
_space_group_symop_operation_xyz
x,y,z
-x,y,1/2-z
-x,-y,-z
x,-y,1/2+z
1/2+x,1/2+y,z
1/2-x,1/2+y,1/2-z
1/2-x,1/2-y,-z
1/2+x,1/2-y,1/2+z
loop_
_atom_site_type_symbol
_atom_site_label
_atom_site_fract_x
_atom_site_fract_y
_atom_site_fract_z
Si Si1 0.631873 0.749148 0.915554
Si Si2 0.594861 0.561556 0.450799
Si Si3 0.156507 0.751809 0.146271
Si Si4 0.187222 0.540889 0.940359
Si Si5 0.466032 0.820958 0.136408
O O1 0.653956 0.579929 0.924505
O O2 0.608333 0.760447 0.786395
O O3 0.703110 0.871112 0.916882
O O4 0.550634 0.789027 0.027277
O O5 0.500000 0.500000 0.500000
O O6 0.612530 0.658652 0.558076
O O7 0.588670 0.669561 0.342270
O O8 0.242255 0.847526 0.136680
O O9 0.176411 0.597728 0.078307
O O10 0.098151 0.570149 0.904180
O O11 0.500000 0.866083 0.250000
#
# Coordination Sequence:
#
# PCOD9295647 Si02
#       5
#     8   8   8   8   8
#     4  11  24  42  74  99 130 192 221 283 353 407
#     4   9  22  41  65  99 129 181 224 282 343 401
#     4  10  24  46  67  95 146 172 237 290 339 422
#     4  10  24  45  66 101 135 183 227 292 347 402
#     4  10  23  43  67 102 140 175 232 284 340 427
#
# _framework density 24.524766
#
# number of rings (size 3 to 8) (size 9 to 14) (size 15 to 20)
#    0.000    2.000    0.000    0.600    8.400   12.000 
#    0.000    0.000    0.000    0.000    0.000    0.000 
#    0.000    0.000    0.000    0.000    0.000    0.000 
#
# Total GULP energy -111760.861518 kJ/mol
# GULP energy per Si atom -5588.043076 kJ/mol
# Density = 2.446895 g / cm^3
# Si number density = 24.524766 Si / 1000 Ang^3
#
#
#
# Elastic Constant Matrix: (Units=GPa)
#
#
# Indices 1 2 3 4 5 6 
#
# 1 73.5621 3.9079 17.2446 0.0000 15.2169 0.0000
# 2 3.9079 148.8950 5.9289 0.0000 19.5217 0.0000
# 3 17.2446 5.9289 127.3493 0.0000 1.0256 0.0000
# 4 0.0000 0.0000 0.0000 18.8668 0.0000 5.5354
# 5 15.2169 19.5217 1.0256 0.0000 22.1638 0.0000
# 6 0.0000 0.0000 0.0000 5.5354 0.0000 32.3211
#
#
#
# Elastic Compliance Matrix: (Units=1/GPa)
#
#
# Indices 1 2 3 4 5 6 
#
# 1 0.016616 0.001282 -0.002210 0.000000 -0.012435 0.000000
# 2 0.001282 0.007703 -0.000471 0.000000 -0.007644 0.000000
# 3 -0.002210 -0.000471 0.008161 0.000000 0.001554 0.000000
# 4 0.000000 0.000000 0.000000 0.055807 0.000000 -0.009558
# 5 -0.012435 -0.007644 0.001554 0.000000 0.060317 0.000000
# 6 0.000000 0.000000 0.000000 -0.009558 0.000000 0.032576
#
#
# Mechanical properties :
#
#
# Convention : Reuss Voigt Hill
#
# Bulk Modulus (GPa) = 33.68758 44.88547 39.28652
# Shear Modulus (GPa) = 25.79022 36.18535 30.98778
#
# Velocity S-wave (km/s) = 3.24635 3.84534 3.55847
# Velocity P-wave (km/s) = 5.27425 6.16906 5.73912
#
# Compressibility (1/GPa) = 0.02968453
#
# Stress axis : x y z
#
# Youngs Moduli (GPa) = 60.18238 129.81280 122.53365
#
# Poissons Ratio (x) = -0.16645 0.27075
# Poissons Ratio (y) = -0.07717 0.05768
# Poissons Ratio (z) = 0.13298 0.06111
#
# Static dielectric constant tensor:
#      x y z
#    x 1.973620 0.000000 -0.010390 
#    y 0.000000 2.079380 0.000000 
#    z -0.010390 0.000000 1.896740 
# 
# From -- ./inp_files/102655.got.cif
#   From: 2010.05.17/outbox.cif.g08.bks.cpg/sg15_52_cif.got.tgz:102655.got - 2010.06.03 18:47:42.
