data_PCOD9295601
_publ_section_title
;
Structure prediction by ZEFSAII (Michael W. Deem and Ramdas Pophale) SiO2 
 PCOD9295601
Probable space group: C 2/C
;
_chemical_formula_sum "Si O2"
_cell_formula_units_Z 48
_cell_length_a 11.490091
_cell_length_b 15.428201
_cell_length_c 11.536079
_cell_angle_alpha 90.000000
_cell_angle_beta 103.661047
_cell_angle_gamma 90.000000
_cell_volume 1987.163542
_symmetry_space_group_name_H-M "C 2/C"
_symmetry_group_IT_number 15
_symmetry_cell_setting 'monoclinic'
loop_
_space_group_symop_operation_xyz
x,y,z
-x,y,1/2-z
-x,-y,-z
x,-y,1/2+z
1/2+x,1/2+y,z
1/2-x,1/2+y,1/2-z
1/2-x,1/2-y,-z
1/2+x,1/2-y,1/2+z
loop_
_atom_site_type_symbol
_atom_site_label
_atom_site_fract_x
_atom_site_fract_y
_atom_site_fract_z
Si Si1 0.487610 0.054629 0.116030
Si Si2 0.430883 0.406476 0.500172
Si Si3 0.785047 0.345309 0.467793
Si Si4 0.413281 0.736806 0.334537
Si Si5 0.742737 0.112930 0.166845
Si Si6 0.132466 0.055288 0.757478
O O1 0.500000 0.016912 0.250000
O O2 0.600636 0.119595 0.127429
O O3 0.357832 0.099771 0.077474
O O4 0.500000 0.000000 0.000000
O O5 0.500000 0.500000 0.500000
O O6 0.523956 0.334749 0.568178
O O7 0.319326 0.401065 0.565049
O O8 0.379513 0.387987 0.360323
O O9 0.750000 0.250000 0.500000
O O10 0.880604 0.324557 0.390026
O O11 0.676360 0.393100 0.380026
O O12 0.500000 0.754547 0.250000
O O13 0.298215 0.691678 0.250521
O O14 0.776956 0.023191 0.239015
O O15 0.000000 0.017453 0.750000
#
# Coordination Sequence:
#
# PCOD9295601 Si02
#       6
#     8   8   8   8   8   8
#     4  12  29  49  75 109 153 203 254 304 376 459
#     4  11  21  38  71 103 138 182 250 308 370 444
#     4  12  28  47  70 103 150 195 240 313 374 446
#     4  10  23  43  66 101 144 180 239 317 371 435
#     4  11  23  42  71 105 140 190 248 309 366 449
#     4  12  23  40  70 104 136 190 250 300 371 445
#
# _framework density 24.155031999999999
#
# number of rings (size 3 to 8) (size 9 to 14) (size 15 to 20)
#    0.000    0.667    5.000    2.500    2.333    6.667 
#    0.000    3.333    0.000    0.000    0.000    0.000 
#    0.000    0.000    0.000    0.000    0.000    0.000 
#
# Total GULP energy -134227.879239 kJ/mol
# GULP energy per Si atom -5592.828302 kJ/mol
# Density = 2.410005 g / cm^3
# Si number density = 24.155032 Si / 1000 Ang^3
#
#
#
# Elastic Constant Matrix: (Units=GPa)
#
#
# Indices 1 2 3 4 5 6 
#
# 1 87.0738 2.7615 43.7019 0.0000 2.3387 0.0000
# 2 2.7615 44.9472 21.1579 0.0000 -0.5693 0.0000
# 3 43.7019 21.1579 154.5100 0.0000 -0.5577 0.0000
# 4 0.0000 0.0000 0.0000 30.1427 0.0000 -13.7139
# 5 2.3387 -0.5693 -0.5577 0.0000 44.3218 0.0000
# 6 0.0000 0.0000 0.0000 -13.7139 0.0000 32.8404
#
#
#
# Elastic Compliance Matrix: (Units=1/GPa)
#
#
# Indices 1 2 3 4 5 6 
#
# 1 0.013454 0.001022 -0.003948 0.000000 -0.000746 0.000000
# 2 0.001022 0.023862 -0.003556 0.000000 0.000208 0.000000
# 3 -0.003948 -0.003556 0.008077 0.000000 0.000264 0.000000
# 4 0.000000 0.000000 0.000000 0.040957 0.000000 0.017103
# 5 -0.000746 0.000208 0.000264 0.000000 0.022608 0.000000
# 6 0.000000 0.000000 0.000000 0.017103 0.000000 0.037592
#
#
# Mechanical properties :
#
#
# Convention : Reuss Voigt Hill
#
# Bulk Modulus (GPa) = 30.83645 46.86374 38.85010
# Shear Modulus (GPa) = 29.35614 36.05496 32.70555
#
# Velocity S-wave (km/s) = 3.48993 3.86767 3.68365
# Velocity P-wave (km/s) = 5.38825 6.27603 5.84901
#
# Compressibility (1/GPa) = 0.03242915
#
# Stress axis : x y z
#
# Youngs Moduli (GPa) = 74.32969 41.90756 123.81445
#
# Poissons Ratio (x) = -0.04284 0.48881
# Poissons Ratio (y) = -0.07599 0.44028
# Poissons Ratio (z) = 0.29345 0.14902
#
# Static dielectric constant tensor:
#      x y z
#    x 1.986530 0.000000 -0.064180 
#    y 0.000000 1.877860 0.000000 
#    z -0.064180 0.000000 2.027430 
# 
# From -- ./inp_files/87890.got.cif
#   From: 2010.05.17/outbox.cif.g08.bks.cpg/sg15_44_cif.got.tgz:87890.got - 2010.06.03 18:47:42.
