data_PCOD9295149
_publ_section_title
;
Structure prediction by ZEFSAII (Michael W. Deem and Ramdas Pophale) SiO2 
 PCOD9295149
Probable space group: C 2/C
;
_chemical_formula_sum "Si O2"
_cell_formula_units_Z 56
_cell_length_a 14.380250
_cell_length_b 20.009528
_cell_length_c 17.496936
_cell_angle_alpha 90.000000
_cell_angle_beta 147.239176
_cell_angle_gamma 90.000000
_cell_volume 2724.391904
_symmetry_space_group_name_H-M "C 2/C"
_symmetry_group_IT_number 15
_symmetry_cell_setting 'monoclinic'
loop_
_space_group_symop_operation_xyz
x,y,z
-x,y,1/2-z
-x,-y,-z
x,-y,1/2+z
1/2+x,1/2+y,z
1/2-x,1/2+y,1/2-z
1/2-x,1/2-y,-z
1/2+x,1/2-y,1/2+z
loop_
_atom_site_type_symbol
_atom_site_label
_atom_site_fract_x
_atom_site_fract_y
_atom_site_fract_z
Si Si1 0.995478 0.079184 0.015626
Si Si2 0.887884 0.408760 0.800028
Si Si3 0.136552 0.446478 0.285020
Si Si4 0.997814 0.626578 0.957644
Si Si5 0.185678 0.195354 0.689568
Si Si6 0.701694 0.276930 0.882757
Si Si7 0.557042 0.775007 0.870711
O O1 0.821169 0.077307 0.944992
O O2 0.928600 0.128678 0.903134
O O3 0.181975 0.105478 0.169232
O O4 0.000000 0.000000 0.000000
O O5 0.879932 0.474650 0.742302
O O6 0.004535 0.352857 0.840233
O O7 0.967753 0.412827 0.940337
O O8 0.000000 0.421626 0.250000
O O9 0.083415 0.417115 0.166246
O O10 0.846342 0.682304 0.857147
O O11 0.173230 0.661573 0.051898
O O12 0.259909 0.224365 0.660513
O O13 0.055231 0.246008 0.638005
O O14 0.500000 0.293154 0.750000
O O15 0.750000 0.250000 0.000000
O O16 0.500000 0.748101 0.750000
O O17 0.750000 0.750000 0.000000
#
# Coordination Sequence:
#
# PCOD9295149 Si02
#       7
#     8   8   8   8   8   8   8
#     4   9  22  41  68  91 126 176 224 267 338 396
#     4  11  22  43  67  95 128 180 226 275 335 404
#     4  10  23  42  65  96 132 171 224 282 334 401
#     4  11  24  40  65  93 132 175 218 271 341 396
#     4  11  24  43  63  94 139 169 216 282 338 392
#     4  12  26  40  65  98 132 172 219 273 338 405
#     4  12  25  40  65  97 129 175 228 274 334 403
#
# _framework density 20.555046000000001
#
# number of rings (size 3 to 8) (size 9 to 14) (size 15 to 20)
#    0.000    1.143    2.857    2.571    8.000    1.143 
#    0.000    0.000    0.000    0.857    0.000    0.000 
#    0.000    0.000    0.000    0.000    0.000    0.000 
#
# Total GULP energy -155911.992915 kJ/mol
# GULP energy per Si atom -5568.285461 kJ/mol
# Density = 2.050826 g / cm^3
# Si number density = 20.555046 Si / 1000 Ang^3
#
#
#
# Elastic Constant Matrix: (Units=GPa)
#
#
# Indices 1 2 3 4 5 6 
#
# 1 87.3816 -1.8823 34.4795 0.0043 11.3070 0.0005
# 2 -1.8823 64.5455 7.2761 0.0055 13.3838 0.0010
# 3 34.4795 7.2761 145.9148 0.0166 18.6115 0.0026
# 4 0.0043 0.0055 0.0166 21.3741 0.0049 6.2149
# 5 11.3070 13.3838 18.6115 0.0049 42.4935 0.0006
# 6 0.0005 0.0010 0.0026 6.2149 0.0006 24.0722
#
#
#
# Elastic Compliance Matrix: (Units=1/GPa)
#
#
# Indices 1 2 3 4 5 6 
#
# 1 0.012904 0.001229 -0.002778 0.000000 -0.002604 0.000000
# 2 0.001229 0.016697 -0.000435 -0.000003 -0.005395 0.000000
# 3 -0.002778 -0.000435 0.007859 -0.000005 -0.002566 0.000001
# 4 0.000000 -0.000003 -0.000005 0.050583 -0.000002 -0.013059
# 5 -0.002604 -0.005395 -0.002566 -0.000002 0.027049 0.000001
# 6 0.000000 0.000000 0.000001 -0.013059 0.000001 0.044913
#
#
# Mechanical properties :
#
#
# Convention : Reuss Voigt Hill
#
# Bulk Modulus (GPa) = 29.85828 41.95428 35.90628
# Shear Modulus (GPa) = 28.54931 34.78588 31.66759
#
# Velocity S-wave (km/s) = 3.73086 4.11825 3.92934
# Velocity P-wave (km/s) = 5.75471 6.56265 6.17191
#
# Compressibility (1/GPa) = 0.03349155
#
# Stress axis : x y z
#
# Youngs Moduli (GPa) = 77.49675 59.89245 127.24629
#
# Poissons Ratio (x) = -0.07363 0.35353
# Poissons Ratio (y) = -0.09528 0.05534
# Poissons Ratio (z) = 0.21531 0.02605
#
# Static dielectric constant tensor:
#      x y z
#    x 1.725380 0.000000 -0.000290 
#    y 0.000000 1.803390 -0.000020 
#    z -0.000290 -0.000020 1.765070 
# 
# From -- ./inp_files/206989.got.cif
#   From: 2010.05.17/outbox.cif.g08.bks.cpg/sg15_104_cif.got.tgz:206989.got - 2010.06.03 18:47:42.
