data_PCOD9295735
_publ_section_title
;
Structure prediction by ZEFSAII (Michael W. Deem and Ramdas Pophale) SiO2 
 PCOD9295735
Probable space group: C 2/C
;
_chemical_formula_sum "Si O2"
_cell_formula_units_Z 44
_cell_length_a 27.901895
_cell_length_b 15.538196
_cell_length_c 13.838835
_cell_angle_alpha 90.000000
_cell_angle_beta 158.983031
_cell_angle_gamma 90.000000
_cell_volume 2151.780235
_symmetry_space_group_name_H-M "C 2/C"
_symmetry_group_IT_number 15
_symmetry_cell_setting 'monoclinic'
loop_
_space_group_symop_operation_xyz
x,y,z
-x,y,1/2-z
-x,-y,-z
x,-y,1/2+z
1/2+x,1/2+y,z
1/2-x,1/2+y,1/2-z
1/2-x,1/2-y,-z
1/2+x,1/2-y,1/2+z
loop_
_atom_site_type_symbol
_atom_site_label
_atom_site_fract_x
_atom_site_fract_y
_atom_site_fract_z
Si Si1 0.690582 0.931287 0.342419
Si Si2 0.653393 0.579577 0.563437
Si Si3 0.745631 0.759204 0.145480
Si Si4 0.108469 0.370202 0.717573
Si Si5 0.596500 0.447017 0.609256
Si Si6 0.500000 0.659193 0.750000
O O1 0.754702 0.929908 0.356843
O O2 0.799590 0.898591 0.625421
O O3 0.661949 0.031900 0.312812
O O4 0.551694 0.879705 0.083006
O O5 0.666966 0.674481 0.630503
O O6 0.681678 0.510469 0.700530
O O7 0.500000 0.563587 0.250000
O O8 0.834887 0.685796 0.264356
O O9 0.666569 0.817492 0.917936
O O10 0.633126 0.714866 0.997824
O O11 0.500000 0.500000 0.500000
O O12 0.508878 0.392493 0.368171
#
# Coordination Sequence:
#
# PCOD9295735 Si02
#       6
#     8   8   8   8   8   4
#     4  11  23  43  69  99 128 179 225 270 321 409
#     4  12  24  41  67  99 132 170 226 269 329 389
#     4  11  24  43  65  99 138 174 211 285 336 389
#     4  10  23  43  68  96 138 175 218 271 342 388
#     4  12  22  42  69  97 128 178 221 274 319 401
#     4  12  26  42  70  98 130 172 228 264 340 396
#
# _framework density 20.448186
#
# number of rings (size 3 to 8) (size 9 to 14) (size 15 to 20)
#    0.000    0.727    4.545    3.273    2.545    1.455 
#    0.000    4.545    0.000    0.000    0.000    0.000 
#    0.000    0.000    0.000    0.000    0.000    0.000 
#
# Total GULP energy -122948.689876 kJ/mol
# GULP energy per Si atom -5588.576813 kJ/mol
# Density = 2.040164 g / cm^3
# Si number density = 20.448186 Si / 1000 Ang^3
#
#
#
# Elastic Constant Matrix: (Units=GPa)
#
#
# Indices 1 2 3 4 5 6 
#
# 1 87.6419 -1.0677 23.9126 0.0000 3.9448 0.0000
# 2 -1.0677 45.7145 4.5569 0.0000 0.8389 0.0000
# 3 23.9126 4.5569 81.7776 0.0000 9.1642 0.0000
# 4 0.0000 0.0000 0.0000 33.0837 0.0000 8.7661
# 5 3.9448 0.8389 9.1642 0.0000 34.6722 0.0000
# 6 0.0000 0.0000 0.0000 8.7661 0.0000 23.6198
#
#
#
# Elastic Compliance Matrix: (Units=1/GPa)
#
#
# Indices 1 2 3 4 5 6 
#
# 1 0.012426 0.000659 -0.003617 0.000000 -0.000474 0.000000
# 2 0.000659 0.022034 -0.001394 0.000000 -0.000240 0.000000
# 3 -0.003617 -0.001394 0.013720 0.000000 -0.003181 0.000000
# 4 0.000000 0.000000 0.000000 0.033523 0.000000 -0.012442
# 5 -0.000474 -0.000240 -0.003181 0.000000 0.029742 0.000000
# 6 0.000000 0.000000 0.000000 -0.012442 0.000000 0.046955
#
#
# Mechanical properties :
#
#
# Convention : Reuss Voigt Hill
#
# Bulk Modulus (GPa) = 25.33115 29.99308 27.66211
# Shear Modulus (GPa) = 27.73737 30.79060 29.26398
#
# Velocity S-wave (km/s) = 3.68703 3.88466 3.78713
# Velocity P-wave (km/s) = 5.52634 5.90088 5.71668
#
# Compressibility (1/GPa) = 0.03947709
#
# Stress axis : x y z
#
# Youngs Moduli (GPa) = 80.47400 45.38513 72.88549
#
# Poissons Ratio (x) = -0.02993 0.26365
# Poissons Ratio (y) = -0.05307 0.10159
# Poissons Ratio (z) = 0.29110 0.06326
#
# Static dielectric constant tensor:
#      x y z
#    x 1.717280 0.000000 -0.031690 
#    y 0.000000 1.733590 0.000000 
#    z -0.031690 0.000000 1.725740 
# 
# From -- ./inp_files/134967.got.cif
#   From: 2010.05.17/outbox.cif.g08.bks.cpg/sg15_68_cif.got.tgz:134967.got - 2010.06.03 18:47:42.
