data_PCOD9295280
_publ_section_title
;
Structure prediction by ZEFSAII (Michael W. Deem and Ramdas Pophale) SiO2 
 PCOD9295280
Probable space group: C 2/C
;
_chemical_formula_sum "Si O2"
_cell_formula_units_Z 36
_cell_length_a 22.865962
_cell_length_b 12.675075
_cell_length_c 7.966917
_cell_angle_alpha 90.000000
_cell_angle_beta 46.965296
_cell_angle_gamma 90.000000
_cell_volume 1687.766347
_symmetry_space_group_name_H-M "C 2/C"
_symmetry_group_IT_number 15
_symmetry_cell_setting 'monoclinic'
loop_
_space_group_symop_operation_xyz
x,y,z
-x,y,1/2-z
-x,-y,-z
x,-y,1/2+z
1/2+x,1/2+y,z
1/2-x,1/2+y,1/2-z
1/2-x,1/2-y,-z
1/2+x,1/2-y,1/2+z
loop_
_atom_site_type_symbol
_atom_site_label
_atom_site_fract_x
_atom_site_fract_y
_atom_site_fract_z
Si Si1 0.500000 0.768550 0.750000
Si Si2 0.918161 0.442914 0.090896
Si Si3 0.530799 0.614985 0.999464
Si Si4 0.800619 0.553685 0.094254
Si Si5 0.783440 0.132754 0.940376
O O1 0.568613 0.853270 0.574272
O O2 0.494911 0.698912 0.592959
O O3 0.868501 0.533906 0.099433
O O4 0.855359 0.392542 0.345591
O O5 0.000000 0.500000 0.000000
O O6 0.500000 0.635563 0.250000
O O7 0.500000 0.500000 0.000000
O O8 0.626549 0.621395 0.800491
O O9 0.727700 0.602652 0.340986
O O10 0.766598 0.447722 0.077229
O O11 0.750000 0.250000 0.000000
#
# Coordination Sequence:
#
# PCOD9295280 Si02
#       5
#     4   8   8   8   8
#     4  12  26  42  74 104 140 184 246 278 372 424
#     4  11  21  41  68 105 141 177 233 292 360 436
#     4  12  27  49  74 102 144 192 250 303 354 438
#     4  10  23  42  67  99 142 178 228 306 353 425
#     4  11  25  46  68 100 141 186 239 292 372 431
#
# _framework density 21.329968000000001
#
# number of rings (size 3 to 8) (size 9 to 14) (size 15 to 20)
#    0.000    0.889    3.333    2.667    6.222    0.000 
#    0.000    3.333    0.000    0.000    0.000    0.000 
#    0.000    0.000    0.000    0.000    0.000    0.000 
#
# Total GULP energy -100255.016098 kJ/mol
# GULP energy per Si atom -5569.723117 kJ/mol
# Density = 2.128142 g / cm^3
# Si number density = 21.329968 Si / 1000 Ang^3
#
#
#
# Elastic Constant Matrix: (Units=GPa)
#
#
# Indices 1 2 3 4 5 6 
#
# 1 45.1488 7.5540 42.2663 0.0000 -5.5301 0.0000
# 2 7.5540 92.5033 57.4226 0.0000 6.2954 0.0000
# 3 42.2663 57.4226 241.0334 0.0000 15.9381 0.0000
# 4 0.0000 0.0000 0.0000 29.7243 0.0000 15.7024
# 5 -5.5301 6.2954 15.9381 0.0000 48.9445 0.0000
# 6 0.0000 0.0000 0.0000 15.7024 0.0000 27.9071
#
#
#
# Elastic Compliance Matrix: (Units=1/GPa)
#
#
# Indices 1 2 3 4 5 6 
#
# 1 0.027598 0.000730 -0.005328 0.000000 0.004759 0.000000
# 2 0.000730 0.012727 -0.003124 0.000000 -0.000537 0.000000
# 3 -0.005328 -0.003124 0.005969 0.000000 -0.002144 0.000000
# 4 0.000000 0.000000 0.000000 0.047872 0.000000 -0.026936
# 5 0.004759 -0.000537 -0.002144 0.000000 0.021736 0.000000
# 6 0.000000 0.000000 0.000000 -0.026936 0.000000 0.050989
#
#
# Mechanical properties :
#
#
# Convention : Reuss Voigt Hill
#
# Bulk Modulus (GPa) = 32.41641 65.90793 49.16217
# Shear Modulus (GPa) = 25.95796 39.41135 32.68465
#
# Velocity S-wave (km/s) = 3.49230 4.30315 3.91875
# Velocity P-wave (km/s) = 5.61178 7.46028 6.60105
#
# Compressibility (1/GPa) = 0.03084857
#
# Stress axis : x y z
#
# Youngs Moduli (GPa) = 36.23502 78.57360 167.52665
#
# Poissons Ratio (x) = -0.05734 0.89257
# Poissons Ratio (y) = -0.02645 0.52343
# Poissons Ratio (z) = 0.19306 0.24550
#
# Static dielectric constant tensor:
#      x y z
#    x 1.815020 0.000000 0.080290 
#    y 0.000000 1.817490 0.000000 
#    z 0.080290 0.000000 1.981510 
# 
# From -- ./inp_files/64987.got.cif
#   From: 2010.05.17/outbox.cif.g08.bks.cpg/sg15_33_cif.got.tgz:64987.got - 2010.06.03 18:47:42.
