data_PCOD9295361
_publ_section_title
;
Structure prediction by ZEFSAII (Michael W. Deem and Ramdas Pophale) SiO2 
 PCOD9295361
Probable space group: C 2/C
;
_chemical_formula_sum "Si O2"
_cell_formula_units_Z 48
_cell_length_a 17.271301
_cell_length_b 8.508617
_cell_length_c 30.515823
_cell_angle_alpha 90.000000
_cell_angle_beta 150.753728
_cell_angle_gamma 90.000000
_cell_volume 2190.942584
_symmetry_space_group_name_H-M "C 2/C"
_symmetry_group_IT_number 15
_symmetry_cell_setting 'monoclinic'
loop_
_space_group_symop_operation_xyz
x,y,z
-x,y,1/2-z
-x,-y,-z
x,-y,1/2+z
1/2+x,1/2+y,z
1/2-x,1/2+y,1/2-z
1/2-x,1/2-y,-z
1/2+x,1/2-y,1/2+z
loop_
_atom_site_type_symbol
_atom_site_label
_atom_site_fract_x
_atom_site_fract_y
_atom_site_fract_z
Si Si1 0.430212 0.407809 0.563383
Si Si2 0.379371 0.336456 0.367965
Si Si3 0.767303 0.235960 0.719258
Si Si4 0.581634 0.015511 0.746871
Si Si5 0.155183 0.802214 0.886940
Si Si6 0.171872 0.470806 0.606541
O O1 0.453574 0.576462 0.552162
O O2 0.597906 0.319169 0.642130
O O3 0.303037 0.301918 0.476002
O O4 0.386816 0.415608 0.593201
O O5 0.308143 0.353513 0.284033
O O6 0.262091 0.427532 0.343046
O O7 0.368065 0.157838 0.376131
O O8 0.899148 0.370892 0.776757
O O9 0.747330 0.120179 0.668189
O O10 0.500000 0.954050 0.750000
O O11 0.485388 0.173858 0.687296
O O12 0.207807 0.896507 0.869792
O O13 0.000000 0.500000 0.500000
#
# Coordination Sequence:
#
# PCOD9295361 Si02
#       6
#     8   8   8   8   8   8
#     4  10  23  42  69  98 137 186 222 283 352 415
#     4  11  24  43  70  96 142 182 230 280 354 405
#     4  11  24  43  68 101 135 182 233 284 348 413
#     4  11  23  41  64  95 128 178 225 286 332 410
#     4  11  23  43  69  99 140 177 233 287 346 405
#     4  12  25  44  72 104 141 180 233 291 347 413
#
# _framework density 21.908379
#
# number of rings (size 3 to 8) (size 9 to 14) (size 15 to 20)
#    0.000    1.000    5.000    2.000    0.000    3.333 
#    0.000    1.667    0.000    0.000    0.000    0.000 
#    0.000    0.000    0.000    0.000    0.000    0.000 
#
# Total GULP energy -134088.803959 kJ/mol
# GULP energy per Si atom -5587.033498 kJ/mol
# Density = 2.185851 g / cm^3
# Si number density = 21.908379 Si / 1000 Ang^3
#
#
#
# Elastic Constant Matrix: (Units=GPa)
#
#
# Indices 1 2 3 4 5 6 
#
# 1 119.4482 45.8926 29.5293 0.0000 -4.1322 0.0001
# 2 45.8926 86.5455 14.3593 -0.0001 -0.8912 0.0002
# 3 29.5293 14.3593 51.6381 0.0001 1.4881 0.0000
# 4 0.0000 -0.0001 0.0001 25.9343 0.0000 5.9914
# 5 -4.1322 -0.8912 1.4881 0.0000 29.0425 0.0000
# 6 0.0001 0.0002 0.0000 5.9914 0.0000 44.8241
#
#
#
# Elastic Compliance Matrix: (Units=1/GPa)
#
#
# Indices 1 2 3 4 5 6 
#
# 1 0.011807 -0.005361 -0.005312 0.000000 0.001788 0.000000
# 2 -0.005361 0.014556 -0.000974 0.000000 -0.000266 0.000000
# 3 -0.005312 -0.000974 0.022731 0.000000 -0.001950 0.000000
# 4 0.000000 0.000000 0.000000 0.039788 0.000000 -0.005318
# 5 0.001788 -0.000266 -0.001950 0.000000 0.034778 0.000000
# 6 0.000000 0.000000 0.000000 -0.005318 0.000000 0.023020
#
#
# Mechanical properties :
#
#
# Convention : Reuss Voigt Hill
#
# Bulk Modulus (GPa) = 38.76266 48.57715 43.66990
# Shear Modulus (GPa) = 27.99947 31.15022 29.57485
#
# Velocity S-wave (km/s) = 3.57883 3.77482 3.67813
# Velocity P-wave (km/s) = 5.89990 6.42028 6.16558
#
# Compressibility (1/GPa) = 0.02579802
#
# Stress axis : x y z
#
# Youngs Moduli (GPa) = 84.69791 68.69887 43.99350
#
# Poissons Ratio (x) = 0.36829 0.23371
# Poissons Ratio (y) = 0.45406 0.04287
# Poissons Ratio (z) = 0.44995 0.06694
#
# Static dielectric constant tensor:
#      x y z
#    x 1.800000 0.000000 -0.007360 
#    y 0.000000 1.840450 0.000000 
#    z -0.007360 0.000000 1.805490 
# 
# From -- ./inp_files/315795.got.cif
#   From: 2010.05.17/outbox.cif.g08.bks.cpg/sg15_158_cif.got.tgz:315795.got - 2010.06.03 18:47:42.
