data_PCOD9295040
_publ_section_title
;
Structure prediction by ZEFSAII (Michael W. Deem and Ramdas Pophale) SiO2 
 PCOD9295040
Probable space group: C 2/C
;
_chemical_formula_sum "Si O2"
_cell_formula_units_Z 36
_cell_length_a 12.360358
_cell_length_b 16.533508
_cell_length_c 9.672519
_cell_angle_alpha 90.000000
_cell_angle_beta 59.092653
_cell_angle_gamma 90.000000
_cell_volume 1695.986757
_symmetry_space_group_name_H-M "C 2/C"
_symmetry_group_IT_number 15
_symmetry_cell_setting 'monoclinic'
loop_
_space_group_symop_operation_xyz
x,y,z
-x,y,1/2-z
-x,-y,-z
x,-y,1/2+z
1/2+x,1/2+y,z
1/2-x,1/2+y,1/2-z
1/2-x,1/2-y,-z
1/2+x,1/2-y,1/2+z
loop_
_atom_site_type_symbol
_atom_site_label
_atom_site_fract_x
_atom_site_fract_y
_atom_site_fract_z
Si Si1 0.805424 0.985534 0.512987
Si Si2 0.893040 0.311722 0.406295
Si Si3 0.364082 0.336159 0.074734
Si Si4 0.135166 0.457759 0.883017
Si Si5 0.000000 0.868839 0.250000
O O1 0.694465 0.961419 0.691975
O O2 0.914740 0.921733 0.410807
O O3 0.863752 0.070528 0.527624
O O4 0.737950 0.998076 0.411018
O O5 0.776241 0.306984 0.377302
O O6 0.942510 0.225580 0.427940
O O7 0.865179 0.366885 0.556818
O O8 0.000000 0.356611 0.250000
O O9 0.405612 0.324929 0.205526
O O10 0.000000 0.500000 0.000000
#
# Coordination Sequence:
#
# PCOD9295040 Si02
#       5
#     8   8   8   8   4
#     4  11  23  40  68  96 134 173 220 278 325 394
#     4  10  23  43  69  90 132 180 220 269 340 402
#     4  10  23  42  62  97 128 173 218 275 330 394
#     4  11  22  42  66  97 130 176 226 273 327 393
#     4  12  24  40  66 102 134 170 226 272 336 398
#
# _framework density 21.226579999999998
#
# number of rings (size 3 to 8) (size 9 to 14) (size 15 to 20)
#    0.000    1.333    2.222    4.000    1.556    3.556 
#    4.000    2.222    0.000    0.000    0.000    0.000 
#    0.000    0.000    0.000    0.000    0.000    0.000 
#
# Total GULP energy -100356.425048 kJ/mol
# GULP energy per Si atom -5575.356947 kJ/mol
# Density = 2.117827 g / cm^3
# Si number density = 21.226580 Si / 1000 Ang^3
#
#
#
# Elastic Constant Matrix: (Units=GPa)
#
#
# Indices 1 2 3 4 5 6 
#
# 1 86.4540 16.7642 9.6844 0.0000 25.5730 0.0000
# 2 16.7642 67.5626 27.0717 0.0000 2.0702 0.0000
# 3 9.6844 27.0717 97.7371 0.0000 -2.3064 0.0000
# 4 0.0000 0.0000 0.0000 14.4795 0.0000 -3.3406
# 5 25.5730 2.0702 -2.3064 0.0000 39.1941 0.0000
# 6 0.0000 0.0000 0.0000 -3.3406 0.0000 12.4539
#
#
#
# Elastic Compliance Matrix: (Units=1/GPa)
#
#
# Indices 1 2 3 4 5 6 
#
# 1 0.015161 -0.003113 -0.000871 0.000000 -0.009779 0.000000
# 2 -0.003113 0.017340 -0.004474 0.000000 0.000852 0.000000
# 3 -0.000871 -0.004474 0.011592 0.000000 0.001487 0.000000
# 4 0.000000 0.000000 0.000000 0.073619 0.000000 0.019748
# 5 -0.009779 0.000852 0.001487 0.000000 0.031937 0.000000
# 6 0.000000 0.000000 0.000000 0.019748 0.000000 0.085593
#
#
# Mechanical properties :
#
#
# Convention : Reuss Voigt Hill
#
# Bulk Modulus (GPa) = 36.79654 39.86603 38.33128
# Shear Modulus (GPa) = 19.14112 26.44106 22.79109
#
# Velocity S-wave (km/s) = 3.00618 3.53322 3.28030
# Velocity P-wave (km/s) = 5.42423 5.95540 5.69601
#
# Compressibility (1/GPa) = 0.02717647
#
# Stress axis : x y z
#
# Youngs Moduli (GPa) = 65.96060 57.66901 86.26471
#
# Poissons Ratio (x) = 0.17954 0.07510
# Poissons Ratio (y) = 0.20535 0.38598
# Poissons Ratio (z) = 0.05743 0.25804
#
# Static dielectric constant tensor:
#      x y z
#    x 1.855700 0.000000 -0.108970 
#    y 0.000000 1.805300 0.000000 
#    z -0.108970 0.000000 1.861200 
# 
# From -- ./inp_files/28956.got.cif
#   From: 2010.05.17/outbox.cif.g08.bks.cpg/sg15_15_cif.got.tgz:28956.got - 2010.06.03 18:47:42.
