data_PCOD9295196
_publ_section_title
;
Structure prediction by ZEFSAII (Michael W. Deem and Ramdas Pophale) SiO2 
 PCOD9295196
Probable space group: C 2/C
;
_chemical_formula_sum "Si O2"
_cell_formula_units_Z 56
_cell_length_a 17.652345
_cell_length_b 14.526672
_cell_length_c 10.369839
_cell_angle_alpha 90.000000
_cell_angle_beta 125.973352
_cell_angle_gamma 90.000000
_cell_volume 2152.012933
_symmetry_space_group_name_H-M "C 2/C"
_symmetry_group_IT_number 15
_symmetry_cell_setting 'monoclinic'
loop_
_space_group_symop_operation_xyz
x,y,z
-x,y,1/2-z
-x,-y,-z
x,-y,1/2+z
1/2+x,1/2+y,z
1/2-x,1/2+y,1/2-z
1/2-x,1/2-y,-z
1/2+x,1/2-y,1/2+z
loop_
_atom_site_type_symbol
_atom_site_label
_atom_site_fract_x
_atom_site_fract_y
_atom_site_fract_z
Si Si1 0.500000 0.103675 0.750000
Si Si2 0.866088 0.524879 0.397659
Si Si3 0.644748 0.321394 0.510820
Si Si4 0.158310 0.673260 0.741197
Si Si5 0.353138 0.472050 0.798242
Si Si6 0.000000 0.893227 0.750000
Si Si7 0.360687 0.672059 0.916001
Si Si8 0.642643 0.823877 0.802088
O O1 0.442039 0.049126 0.581495
O O2 0.580383 0.165203 0.768512
O O3 0.859907 0.416249 0.366421
O O4 0.757999 0.551645 0.325230
O O5 0.890784 0.578097 0.287430
O O6 0.652562 0.263312 0.649785
O O7 0.610264 0.418693 0.534637
O O8 0.602099 0.244825 0.370774
O O9 0.747829 0.340501 0.554121
O O10 0.263908 0.667442 0.897409
O O11 0.417950 0.447445 0.742767
O O12 0.359903 0.580749 0.827730
O O13 0.949701 0.834271 0.592035
O O14 0.361876 0.761182 0.829542
#
# Coordination Sequence:
#
# PCOD9295196 Si02
#       8
#     4   8   8   8   8   4   8   8
#     4  12  24  41  62  95 132 168 210 267 312 393
#     4  10  23  42  66  95 129 170 211 262 322 375
#     4   9  20  41  68  94 124 168 219 259 311 383
#     4  10  23  42  66  95 129 170 211 262 322 375
#     4  10  23  42  66  95 129 170 211 262 322 375
#     4  12  24  41  62  95 132 168 210 267 312 393
#     4  10  23  42  66  95 129 170 211 262 322 375
#     4   9  20  41  68  94 124 168 219 259 311 383
#
# _framework density 26.022148999999999
#
# number of rings (size 3 to 8) (size 9 to 14) (size 15 to 20)
#    0.000    2.000    0.000    1.714    4.000    3.429 
#    0.000    5.714    0.000    0.000    0.000    0.000 
#    0.000    0.000    0.000    0.000    0.000    0.000 
#
# Total GULP energy -156700.901083 kJ/mol
# GULP energy per Si atom -5596.460753 kJ/mol
# Density = 2.596292 g / cm^3
# Si number density = 26.022149 Si / 1000 Ang^3
#
#
#
# Elastic Constant Matrix: (Units=GPa)
#
#
# Indices 1 2 3 4 5 6 
#
# 1 96.4201 5.7738 0.9257 0.0000 20.6138 0.0000
# 2 5.7738 92.7219 6.7041 0.0000 4.0396 0.0000
# 3 0.9257 6.7041 103.6918 0.0000 17.1217 0.0000
# 4 0.0000 0.0000 0.0000 -422.2818 0.0000 -240.8261
# 5 20.6138 4.0396 17.1217 0.0000 30.4210 0.0000
# 6 0.0000 0.0000 0.0000 -240.8261 0.0000 -86.7062
#
#
#
# Elastic Compliance Matrix: (Units=1/GPa)
#
#
# Indices 1 2 3 4 5 6 
#
# 1 0.012330 -0.000474 0.001422 0.000000 -0.009092 0.000000
# 2 -0.000474 0.010891 -0.000567 0.000000 -0.000806 0.000000
# 3 0.001422 -0.000567 0.010820 0.000000 -0.006978 0.000000
# 4 0.000000 0.000000 0.000000 0.004055 0.000000 -0.011263
# 5 -0.009092 -0.000806 -0.006978 0.000000 0.043068 0.000000
# 6 0.000000 0.000000 0.000000 -0.011263 0.000000 0.019749
#
#
# Mechanical properties :
#
#
# Convention : Reuss Voigt Hill
#
# Bulk Modulus (GPa) = 28.73414 35.51567 32.12490
# Shear Modulus (GPa) = 44.74222 -77.08473 -16.17126
#
# Velocity S-wave (km/s) = 4.15105 -5.44858 -2.49558
# Velocity P-wave (km/s) = 5.83448 5.08968 2.01696
#
# Compressibility (1/GPa) = 0.03480181
#
# Stress axis : x y z
#
# Youngs Moduli (GPa) = 81.10368 91.82261 92.42009
#
# Poissons Ratio (x) = 0.04357 -0.13141
# Poissons Ratio (y) = 0.03848 0.05239
# Poissons Ratio (z) = -0.11532 0.05205
#
# Static dielectric constant tensor:
#      x y z
#    x 2.069330 0.000000 -0.027530 
#    y 0.000000 2.011080 0.000000 
#    z -0.027530 0.000000 2.038320 
# 
# From -- ./inp_files/168517.got.cif
#   From: 2010.05.17/outbox.cif.g08.bks.cpg/sg15_85_cif.got.tgz:168517.got - 2010.06.03 18:47:42.
