data_PCOD9295061
_publ_section_title
;
Structure prediction by ZEFSAII (Michael W. Deem and Ramdas Pophale) SiO2 
 PCOD9295061
Probable space group: C 2/C
;
_chemical_formula_sum "Si O2"
_cell_formula_units_Z 40
_cell_length_a 13.920604
_cell_length_b 8.379360
_cell_length_c 28.344867
_cell_angle_alpha 90.000000
_cell_angle_beta 33.159795
_cell_angle_gamma 90.000000
_cell_volume 1808.471054
_symmetry_space_group_name_H-M "C 2/C"
_symmetry_group_IT_number 15
_symmetry_cell_setting 'monoclinic'
loop_
_space_group_symop_operation_xyz
x,y,z
-x,y,1/2-z
-x,-y,-z
x,-y,1/2+z
1/2+x,1/2+y,z
1/2-x,1/2+y,1/2-z
1/2-x,1/2-y,-z
1/2+x,1/2-y,1/2+z
loop_
_atom_site_type_symbol
_atom_site_label
_atom_site_fract_x
_atom_site_fract_y
_atom_site_fract_z
Si Si1 0.575898 0.368210 0.503773
Si Si2 0.007288 0.175539 0.691722
Si Si3 0.395856 0.838623 0.153465
Si Si4 0.659696 0.905359 0.558439
Si Si5 0.596084 0.675599 0.159428
O O1 0.500000 0.500000 0.500000
O O2 0.434081 0.271273 0.592239
O O3 0.694598 0.461247 0.493152
O O4 0.711891 0.254471 0.420376
O O5 0.810540 0.145100 0.754017
O O6 0.000000 0.196800 0.750000
O O7 0.086181 0.334345 0.637341
O O8 0.111978 0.011511 0.640162
O O9 0.483636 0.762487 0.164386
O O10 0.494775 0.006079 0.102758
O O11 0.750000 0.750000 0.500000
O O12 0.500000 0.688320 0.250000
#
# Coordination Sequence:
#
# PCOD9295061 Si02
#       5
#     8   8   8   8   8
#     4  11  24  41  64  91 125 167 210 258 312 376
#     4  11  23  40  62  92 125 164 210 259 312 374
#     4  11  23  42  64  91 127 168 209 260 316 375
#     4  11  23  39  63  90 122 164 207 258 314 370
#     4  10  23  42  63  92 126 165 212 261 314 377
#
# _framework density 22.118133
#
# number of rings (size 3 to 8) (size 9 to 14) (size 15 to 20)
#    0.000    1.200    0.000    7.200    0.000   12.800 
#    0.000    7.000    0.000    0.000    0.000    0.000 
#    0.000    0.000    0.000    0.000    0.000    0.000 
#
# Total GULP energy -111857.329594 kJ/mol
# GULP energy per Si atom -5592.866480 kJ/mol
# Density = 2.206779 g / cm^3
# Si number density = 22.118133 Si / 1000 Ang^3
#
#
#
# Elastic Constant Matrix: (Units=GPa)
#
#
# Indices 1 2 3 4 5 6 
#
# 1 54.7670 2.4214 3.6412 0.0000 10.3716 -0.0003
# 2 2.4214 104.1885 26.1036 -0.0001 7.8733 -0.0003
# 3 3.6412 26.1036 48.6989 0.0001 8.4223 0.0001
# 4 0.0000 -0.0001 0.0001 46.6970 0.0000 -0.5420
# 5 10.3716 7.8733 8.4223 0.0000 29.5110 -0.0001
# 6 -0.0003 -0.0003 0.0001 -0.5420 -0.0001 36.7923
#
#
#
# Elastic Compliance Matrix: (Units=1/GPa)
#
#
# Indices 1 2 3 4 5 6 
#
# 1 0.019567 0.000152 -0.000366 0.000000 -0.006813 0.000000
# 2 0.000152 0.011138 -0.005742 0.000000 -0.001386 0.000000
# 3 -0.000366 -0.005742 0.024565 0.000000 -0.005350 0.000000
# 4 0.000000 0.000000 0.000000 0.021418 0.000000 0.000316
# 5 -0.006813 -0.001386 -0.005350 0.000000 0.038177 0.000000
# 6 0.000000 0.000000 0.000000 0.000316 0.000000 0.027184
#
#
# Mechanical properties :
#
#
# Convention : Reuss Voigt Hill
#
# Bulk Modulus (GPa) = 23.06411 30.22077 26.64244
# Shear Modulus (GPa) = 29.68890 34.29928 31.99409
#
# Velocity S-wave (km/s) = 3.66770 3.94220 3.80743
# Velocity P-wave (km/s) = 5.32788 5.86637 5.60360
#
# Compressibility (1/GPa) = 0.04335740
#
# Stress axis : x y z
#
# Youngs Moduli (GPa) = 51.10653 89.78486 40.70887
#
# Poissons Ratio (x) = -0.01363 0.01490
# Poissons Ratio (y) = -0.00776 0.23374
# Poissons Ratio (z) = 0.01871 0.51552
#
# Static dielectric constant tensor:
#      x y z
#    x 1.820730 0.000000 -0.005460 
#    y 0.000000 1.807270 0.000000 
#    z -0.005460 0.000000 1.832640 
# 
# From -- ./inp_files/150558.got.cif
#   From: 2010.05.17/outbox.cif.g08.bks.cpg/sg15_76_cif.got.tgz:150558.got - 2010.06.03 18:47:42.
