data_PCOD9295874
_publ_section_title
;
Structure prediction by ZEFSAII (Michael W. Deem and Ramdas Pophale) SiO2 
 PCOD9295874
Probable space group: C 2/C
;
_chemical_formula_sum "Si O2"
_cell_formula_units_Z 36
_cell_length_a 22.567050
_cell_length_b 5.585095
_cell_length_c 14.126255
_cell_angle_alpha 90.000000
_cell_angle_beta 54.208255
_cell_angle_gamma 90.000000
_cell_volume 1444.217313
_symmetry_space_group_name_H-M "C 2/C"
_symmetry_group_IT_number 15
_symmetry_cell_setting 'monoclinic'
loop_
_space_group_symop_operation_xyz
x,y,z
-x,y,1/2-z
-x,-y,-z
x,-y,1/2+z
1/2+x,1/2+y,z
1/2-x,1/2+y,1/2-z
1/2-x,1/2-y,-z
1/2+x,1/2-y,1/2+z
loop_
_atom_site_type_symbol
_atom_site_label
_atom_site_fract_x
_atom_site_fract_y
_atom_site_fract_z
Si Si1 0.201044 0.201225 0.950934
Si Si2 0.750750 0.800692 0.385370
Si Si3 0.955554 0.751226 0.945331
Si Si4 0.500000 0.882261 0.750000
Si Si5 0.086559 0.120128 0.813732
O O1 0.115828 0.125314 0.036187
O O2 0.250000 0.250000 0.000000
O O3 0.198061 0.473858 0.913356
O O4 0.236014 0.972147 0.864567
O O5 0.750000 0.750000 0.500000
O O6 0.827344 0.901895 0.275370
O O7 0.968831 0.529686 0.866038
O O8 0.933521 0.723907 0.075165
O O9 0.032151 0.894968 0.872944
O O10 0.564241 0.736100 0.736269
#
# Coordination Sequence:
#
# PCOD9295874 Si02
#       5
#     8   8   8   4   8
#     4  10  23  43  71 106 146 196 250 309 383 456
#     4  10  23  43  71 106 146 196 250 309 383 456
#     4  11  27  46  72 111 152 199 259 321 382 461
#     4  12  24  44  76 100 148 200 262 308 386 446
#     4  11  27  46  72 111 152 199 259 321 382 461
#
# _framework density 24.926995999999999
#
# number of rings (size 3 to 8) (size 9 to 14) (size 15 to 20)
#    0.000    1.333    0.000    4.000   18.667    1.778 
#    0.000    0.000    0.000    0.000    0.000    0.000 
#    0.000    0.000    0.000    0.000    0.000    0.000 
#
# Total GULP energy -100412.749282 kJ/mol
# GULP energy per Si atom -5578.486071 kJ/mol
# Density = 2.487026 g / cm^3
# Si number density = 24.926996 Si / 1000 Ang^3
#
#
#
# Elastic Constant Matrix: (Units=GPa)
#
#
# Indices 1 2 3 4 5 6 
#
# 1 110.4084 31.0778 44.1534 0.0545 -3.5481 -0.0763
# 2 31.0778 135.9150 45.1782 0.0722 3.1231 -0.1043
# 3 44.1534 45.1782 139.8155 0.0039 -2.4016 -0.0057
# 4 0.0545 0.0722 0.0039 -55.3280 -0.0014 148.8515
# 5 -3.5481 3.1231 -2.4016 -0.0014 57.0926 0.0021
# 6 -0.0763 -0.1043 -0.0057 148.8515 0.0021 -212.7048
#
#
#
# Elastic Compliance Matrix: (Units=1/GPa)
#
#
# Indices 1 2 3 4 5 6 
#
# 1 0.010645 -0.001495 -0.002868 0.000000 0.000623 -0.000003
# 2 -0.001495 0.008471 -0.002276 0.000000 -0.000652 -0.000003
# 3 -0.002868 -0.002276 0.008799 0.000000 0.000316 0.000002
# 4 0.000000 0.000000 0.000000 0.020476 0.000000 0.014329
# 5 0.000623 -0.000652 0.000316 0.000000 0.017603 0.000000
# 6 -0.000003 -0.000003 0.000002 0.014329 0.000000 0.005326
#
#
# Mechanical properties :
#
#
# Convention : Reuss Voigt Hill
#
# Bulk Modulus (GPa) = 68.32240 69.66198 68.99219
# Shear Modulus (GPa) = 55.88036 -24.47274 15.70381
#
# Velocity S-wave (km/s) = 4.73986 -3.13673 2.51269
# Velocity P-wave (km/s) = 7.57783 3.85854 6.01298
#
# Compressibility (1/GPa) = 0.01463649
#
# Stress axis : x y z
#
# Youngs Moduli (GPa) = 93.94071 118.04963 113.65047
#
# Poissons Ratio (x) = 0.17649 0.32593
# Poissons Ratio (y) = 0.14045 0.25870
# Poissons Ratio (z) = 0.26941 0.26871
#
# Static dielectric constant tensor:
#      x y z
#    x 1.844390 0.000000 0.168080 
#    y 0.000000 2.074700 0.000000 
#    z 0.168080 0.000000 1.826520 
# 
# From -- ./inp_files/170433.got.cif
#   From: 2010.05.17/outbox.cif.g08.bks.cpg/sg15_86_cif.got.tgz:170433.got - 2010.06.03 18:47:42.
