data_PCOD9295449
_publ_section_title
;
Structure prediction by ZEFSAII (Michael W. Deem and Ramdas Pophale) SiO2 
 PCOD9295449
Probable space group: C 2/C
;
_chemical_formula_sum "Si O2"
_cell_formula_units_Z 52
_cell_length_a 12.869110
_cell_length_b 15.281958
_cell_length_c 16.487720
_cell_angle_alpha 90.000000
_cell_angle_beta 137.807732
_cell_angle_gamma 90.000000
_cell_volume 2177.770621
_symmetry_space_group_name_H-M "C 2/C"
_symmetry_group_IT_number 15
_symmetry_cell_setting 'monoclinic'
loop_
_space_group_symop_operation_xyz
x,y,z
-x,y,1/2-z
-x,-y,-z
x,-y,1/2+z
1/2+x,1/2+y,z
1/2-x,1/2+y,1/2-z
1/2-x,1/2-y,-z
1/2+x,1/2-y,1/2+z
loop_
_atom_site_type_symbol
_atom_site_label
_atom_site_fract_x
_atom_site_fract_y
_atom_site_fract_z
Si Si1 0.000000 0.456404 0.250000
Si Si2 0.326656 0.364531 0.689495
Si Si3 0.214187 0.489737 0.015937
Si Si4 0.725956 0.664255 0.646094
Si Si5 0.651439 0.798058 0.012421
Si Si6 0.390140 0.277909 0.265729
Si Si7 0.510170 0.552148 0.422986
O O1 0.875536 0.395781 0.223078
O O2 0.094710 0.508975 0.372249
O O3 0.500000 0.363920 0.750000
O O4 0.210545 0.423470 0.568737
O O5 0.274395 0.265030 0.666323
O O6 0.356015 0.415688 0.790523
O O7 0.191198 0.399093 0.047970
O O8 0.385241 0.494320 0.076613
O O9 0.644545 0.649136 0.686195
O O10 0.612232 0.637007 0.507370
O O11 0.721343 0.752319 0.132909
O O12 0.750000 0.750000 0.000000
O O13 0.482002 0.789826 0.876439
O O14 0.500000 0.296022 0.250000
O O15 0.500000 0.500000 0.500000
#
# Coordination Sequence:
#
# PCOD9295449 Si02
#       7
#     4   8   8   8   8   8   8
#     4  10  24  44  74 100 140 174 228 300 356 416
#     4  10  23  42  72 100 135 180 232 288 351 425
#     4  10  24  44  69 100 140 181 230 291 347 422
#     4  11  24  44  71 101 139 179 233 288 366 419
#     4  10  24  43  70  96 141 189 237 287 346 419
#     4  10  25  42  69 102 135 191 229 289 344 430
#     4  10  25  40  68 100 138 181 230 291 348 428
#
# _framework density 23.877628999999999
#
# number of rings (size 3 to 8) (size 9 to 14) (size 15 to 20)
#    0.000    1.846    0.769    0.000   14.000    6.154 
#    2.769    1.538    0.000    0.000    0.000    0.000 
#    0.000    0.000    0.000    0.000    0.000    0.000 
#
# Total GULP energy -145158.048142 kJ/mol
# GULP energy per Si atom -5583.001852 kJ/mol
# Density = 2.382328 g / cm^3
# Si number density = 23.877629 Si / 1000 Ang^3
#
#
#
# Elastic Constant Matrix: (Units=GPa)
#
#
# Indices 1 2 3 4 5 6 
#
# 1 65.0939 11.0901 -5.3959 0.0000 -6.3070 0.0000
# 2 11.0901 69.5310 40.4231 0.0000 9.8681 0.0000
# 3 -5.3959 40.4231 151.5669 0.0001 -5.8233 0.0001
# 4 0.0000 0.0000 0.0001 21.2114 0.0001 -4.5611
# 5 -6.3070 9.8681 -5.8233 0.0001 24.2082 0.0000
# 6 0.0000 0.0000 0.0001 -4.5611 0.0000 24.1775
#
#
#
# Elastic Compliance Matrix: (Units=1/GPa)
#
#
# Indices 1 2 3 4 5 6 
#
# 1 0.017080 -0.005008 0.002213 0.000000 0.007024 0.000000
# 2 -0.005008 0.020226 -0.005995 0.000000 -0.010992 0.000000
# 3 0.002213 -0.005995 0.008470 0.000000 0.005058 0.000000
# 4 0.000000 0.000000 0.000000 0.049138 0.000000 0.009270
# 5 0.007024 -0.010992 0.005058 0.000000 0.048835 0.000000
# 6 0.000000 0.000000 0.000000 0.009270 0.000000 0.043110
#
#
# Mechanical properties :
#
#
# Convention : Reuss Voigt Hill
#
# Bulk Modulus (GPa) = 35.46495 42.04740 38.75617
# Shear Modulus (GPa) = 23.38248 29.92439 26.65343
#
# Velocity S-wave (km/s) = 3.13271 3.54395 3.34466
# Velocity P-wave (km/s) = 5.28869 5.86463 5.58409
#
# Compressibility (1/GPa) = 0.02819686
#
# Stress axis : x y z
#
# Youngs Moduli (GPa) = 58.54935 49.44125 118.06770
#
# Poissons Ratio (x) = 0.24759 -0.26134
# Poissons Ratio (y) = 0.29321 0.70780
# Poissons Ratio (z) = -0.12960 0.29640
#
# Static dielectric constant tensor:
#      x y z
#    x 2.003180 0.000000 0.031460 
#    y 0.000000 1.904450 0.000000 
#    z 0.031460 0.000000 1.951540 
# 
# From -- ./inp_files/205779.got.cif
#   From: 2010.05.17/outbox.cif.g08.bks.cpg/sg15_103_cif.got.tgz:205779.got - 2010.06.03 18:47:42.
