data_PCOD9295928
_publ_section_title
;
Structure prediction by ZEFSAII (Michael W. Deem and Ramdas Pophale) SiO2 
 PCOD9295928
Probable space group: C 2/C
;
_chemical_formula_sum "Si O2"
_cell_formula_units_Z 32
_cell_length_a 7.565278
_cell_length_b 12.184359
_cell_length_c 14.344367
_cell_angle_alpha 90.000000
_cell_angle_beta 106.953224
_cell_angle_gamma 90.000000
_cell_volume 1264.775727
_symmetry_space_group_name_H-M "C 2/C"
_symmetry_group_IT_number 15
_symmetry_cell_setting 'monoclinic'
loop_
_space_group_symop_operation_xyz
x,y,z
-x,y,1/2-z
-x,-y,-z
x,-y,1/2+z
1/2+x,1/2+y,z
1/2-x,1/2+y,1/2-z
1/2-x,1/2-y,-z
1/2+x,1/2-y,1/2+z
loop_
_atom_site_type_symbol
_atom_site_label
_atom_site_fract_x
_atom_site_fract_y
_atom_site_fract_z
Si Si1 0.423002 0.235667 0.416337
Si Si2 0.690426 0.002341 0.083163
Si Si3 0.317211 0.442272 0.285795
Si Si4 0.313587 0.634613 0.432661
O O1 0.286582 0.132352 0.400961
O O2 0.322610 0.333400 0.347404
O O3 0.517775 0.280879 0.526357
O O4 0.615053 0.195830 0.395779
O O5 0.666568 0.949133 0.180899
O O6 0.500000 0.000000 0.000000
O O7 0.818829 0.936221 0.030797
O O8 0.500000 0.446064 0.250000
O O9 0.318711 0.549167 0.350259
#
# Coordination Sequence:
#
# PCOD9295928 Si02
#       4
#     8   8   8   8
#     4  10  23  43  73  90 133 177 210 272 341 370
#     4  10  24  42  67 100 128 170 225 263 323 396
#     4  12  25  41  68 100 131 172 222 265 325 396
#     4  10  23  45  68  97 133 167 220 277 319 391
#
# _framework density 25.300929
#
# number of rings (size 3 to 8) (size 9 to 14) (size 15 to 20)
#    0.000    1.500    2.500    0.750    3.500    4.000 
#    0.000    0.000    0.000    0.000    0.000    0.000 
#    0.000    0.000    0.000    0.000    0.000    0.000 
#
# Total GULP energy -89513.719790 kJ/mol
# GULP energy per Si atom -5594.607487 kJ/mol
# Density = 2.524334 g / cm^3
# Si number density = 25.300929 Si / 1000 Ang^3
#
#
#
# Elastic Constant Matrix: (Units=GPa)
#
#
# Indices 1 2 3 4 5 6 
#
# 1 18.1089 6.1149 -9.2099 0.0000 3.2318 0.0000
# 2 6.1149 130.2224 33.9783 0.0000 4.9146 0.0000
# 3 -9.2099 33.9783 126.8036 0.0000 18.1475 0.0000
# 4 0.0000 0.0000 0.0000 22.0913 0.0000 4.9587
# 5 3.2318 4.9146 18.1475 0.0000 29.6979 0.0000
# 6 0.0000 0.0000 0.0000 4.9587 0.0000 42.3462
#
#
#
# Elastic Compliance Matrix: (Units=1/GPa)
#
#
# Indices 1 2 3 4 5 6 
#
# 1 0.062231 -0.004405 0.007194 0.000000 -0.010439 0.000000
# 2 -0.004405 0.008568 -0.002719 0.000000 0.000723 0.000000
# 3 0.007194 -0.002719 0.010065 0.000000 -0.006484 0.000000
# 4 0.000000 0.000000 0.000000 0.046489 0.000000 -0.005444
# 5 -0.010439 0.000723 -0.006484 0.000000 0.038651 0.000000
# 6 0.000000 0.000000 0.000000 -0.005444 0.000000 0.024252
#
#
# Mechanical properties :
#
#
# Convention : Reuss Voigt Hill
#
# Bulk Modulus (GPa) = 12.34505 37.43348 24.88927
# Shear Modulus (GPa) = 23.02887 35.11053 29.06970
#
# Velocity S-wave (km/s) = 3.02022 3.72925 3.39331
# Velocity P-wave (km/s) = 4.12943 5.77672 5.02109
#
# Compressibility (1/GPa) = 0.08100410
#
# Stress axis : x y z
#
# Youngs Moduli (GPa) = 16.06909 116.70906 99.35082
#
# Poissons Ratio (x) = 0.51415 -0.71478
# Poissons Ratio (y) = 0.07079 0.27018
# Poissons Ratio (z) = -0.11561 0.31738
#
# Static dielectric constant tensor:
#      x y z
#    x 2.144850 0.000000 0.074550 
#    y 0.000000 2.087200 0.000000 
#    z 0.074550 0.000000 2.082460 
# 
# From -- ./inp_files/131918.got.cif
#   From: 2010.05.17/outbox.cif.g08.bks.cpg/sg15_66_cif.got.tgz:131918.got - 2010.06.03 18:47:42.
