data_PCOD9295948
_publ_section_title
;
Structure prediction by ZEFSAII (Michael W. Deem and Ramdas Pophale) SiO2 
 PCOD9295948
Probable space group: C 2/C
;
_chemical_formula_sum "Si O2"
_cell_formula_units_Z 40
_cell_length_a 16.952619
_cell_length_b 9.227112
_cell_length_c 24.507739
_cell_angle_alpha 90.000000
_cell_angle_beta 152.406860
_cell_angle_gamma 90.000000
_cell_volume 1775.680995
_symmetry_space_group_name_H-M "C 2/C"
_symmetry_group_IT_number 15
_symmetry_cell_setting 'monoclinic'
loop_
_space_group_symop_operation_xyz
x,y,z
-x,y,1/2-z
-x,-y,-z
x,-y,1/2+z
1/2+x,1/2+y,z
1/2-x,1/2+y,1/2-z
1/2-x,1/2-y,-z
1/2+x,1/2-y,1/2+z
loop_
_atom_site_type_symbol
_atom_site_label
_atom_site_fract_x
_atom_site_fract_y
_atom_site_fract_z
Si Si1 0.434658 0.858440 0.431150
Si Si2 0.088713 0.224124 0.750091
Si Si3 0.430800 0.014862 0.817109
Si Si4 0.297454 0.576892 0.524081
Si Si5 0.348618 0.577856 0.940253
O O1 0.285415 0.805377 0.379627
O O2 0.359221 0.909761 0.326883
O O3 0.577726 0.739033 0.507637
O O4 0.500000 0.000000 0.500000
O O5 0.096460 0.342328 0.706529
O O6 0.000000 0.287206 0.750000
O O7 0.976895 0.083727 0.665995
O O8 0.327084 0.076664 0.701836
O O9 0.636859 0.017698 0.946055
O O10 0.250000 0.750000 0.500000
O O11 0.327454 0.512558 0.482676
O O12 0.500000 0.500000 0.000000
#
# Coordination Sequence:
#
# PCOD9295948 Si02
#       5
#     8   8   8   8   8
#     4  12  29  44  71 110 150 189 245 315 374 440
#     4  11  23  45  76 105 142 196 250 299 365 455
#     4  11  24  44  73 103 144 188 248 301 375 438
#     4  10  23  43  75 104 140 191 251 296 365 446
#     4  12  25  43  72 104 147 192 243 300 373 444
#
# _framework density 22.526568999999999
#
# number of rings (size 3 to 8) (size 9 to 14) (size 15 to 20)
#    0.000    0.800    2.000    5.400    8.400    0.800 
#    0.000    4.000    0.000    0.000    0.000    0.000 
#    0.000    0.000    0.000    0.000    0.000    0.000 
#
# Total GULP energy -111595.691692 kJ/mol
# GULP energy per Si atom -5579.784585 kJ/mol
# Density = 2.247530 g / cm^3
# Si number density = 22.526569 Si / 1000 Ang^3
#
#
#
# Elastic Constant Matrix: (Units=GPa)
#
#
# Indices 1 2 3 4 5 6 
#
# 1 100.3462 49.5629 12.7270 -0.0002 4.1508 0.0000
# 2 49.5629 108.6072 44.6988 0.0002 -1.2671 0.0001
# 3 12.7270 44.6988 98.6744 -0.0009 3.0673 0.0002
# 4 -0.0002 0.0002 -0.0009 45.5496 -0.0001 -5.0565
# 5 4.1508 -1.2671 3.0673 -0.0001 42.5258 0.0001
# 6 0.0000 0.0001 0.0002 -5.0565 0.0001 33.8235
#
#
#
# Elastic Compliance Matrix: (Units=1/GPa)
#
#
# Indices 1 2 3 4 5 6 
#
# 1 0.013091 -0.006536 0.001321 0.000000 -0.001568 0.000000
# 2 -0.006536 0.014602 -0.005818 0.000000 0.001493 0.000000
# 3 0.001321 -0.005818 0.012637 0.000000 -0.001214 0.000000
# 4 0.000000 0.000000 0.000000 0.022325 0.000000 0.003337
# 5 -0.001568 0.001493 -0.001214 0.000000 0.023800 0.000000
# 6 0.000000 0.000000 0.000000 0.003337 0.000000 0.030064
#
#
# Mechanical properties :
#
#
# Convention : Reuss Voigt Hill
#
# Bulk Modulus (GPa) = 54.75168 57.95612 56.35390
# Shear Modulus (GPa) = 34.56054 37.75574 36.15814
#
# Velocity S-wave (km/s) = 3.92115 4.09840 4.01076
# Velocity P-wave (km/s) = 6.69766 6.94116 6.82050
#
# Compressibility (1/GPa) = 0.01826428
#
# Stress axis : x y z
#
# Youngs Moduli (GPa) = 76.38772 68.48304 79.13140
#
# Poissons Ratio (x) = 0.44761 -0.10454
# Poissons Ratio (y) = 0.49928 0.46039
# Poissons Ratio (z) = -0.10091 0.39844
#
# Static dielectric constant tensor:
#      x y z
#    x 1.872630 0.000000 -0.014560 
#    y 0.000000 1.817970 0.000000 
#    z -0.014560 0.000000 2.005360 
# 
# From -- ./inp_files/276767.got.cif
#   From: 2010.05.17/outbox.cif.g08.bks.cpg/sg15_139_cif.got.tgz:276767.got - 2010.06.03 18:47:42.
