data_PCOD9295787
_publ_section_title
;
Structure prediction by ZEFSAII (Michael W. Deem and Ramdas Pophale) SiO2 
 PCOD9295787
Probable space group: C 2/C
;
_chemical_formula_sum "Si O2"
_cell_formula_units_Z 64
_cell_length_a 17.036287
_cell_length_b 26.294904
_cell_length_c 9.495652
_cell_angle_alpha 90.000000
_cell_angle_beta 141.105413
_cell_angle_gamma 90.000000
_cell_volume 2670.881187
_symmetry_space_group_name_H-M "C 2/C"
_symmetry_group_IT_number 15
_symmetry_cell_setting 'monoclinic'
loop_
_space_group_symop_operation_xyz
x,y,z
-x,y,1/2-z
-x,-y,-z
x,-y,1/2+z
1/2+x,1/2+y,z
1/2-x,1/2+y,1/2-z
1/2-x,1/2-y,-z
1/2+x,1/2-y,1/2+z
loop_
_atom_site_type_symbol
_atom_site_label
_atom_site_fract_x
_atom_site_fract_y
_atom_site_fract_z
Si Si1 0.376266 0.100341 0.487221
Si Si2 0.710498 0.014189 0.654912
Si Si3 0.130288 0.864528 0.773384
Si Si4 0.530661 0.106387 0.440374
Si Si5 0.240669 0.168758 0.708649
Si Si6 0.624652 0.517298 0.344020
Si Si7 0.422224 0.640795 0.761097
Si Si8 0.646109 0.258196 0.473694
O O1 0.337374 0.041595 0.452170
O O2 0.262809 0.135077 0.378240
O O3 0.411357 0.103889 0.372464
O O4 0.500000 0.109970 0.750000
O O5 0.828340 0.020337 0.713188
O O6 0.596386 0.053013 0.494296
O O7 0.765884 0.016923 0.888022
O O8 0.102566 0.924812 0.760285
O O9 0.024345 0.843436 0.522960
O O10 0.146512 0.837442 0.946746
O O11 0.637250 0.137756 0.667135
O O12 0.500000 0.131524 0.250000
O O13 0.192230 0.138648 0.782796
O O14 0.290005 0.225587 0.812031
O O15 0.500000 0.501993 0.250000
O O16 0.500000 0.607300 0.750000
O O17 0.370720 0.681882 0.577932
O O18 0.750000 0.250000 0.500000
O O19 0.500000 0.241133 0.250000
#
# Coordination Sequence:
#
# PCOD9295787 Si02
#       8
#     8   8   8   8   8   8   8   8
#     4  11  22  42  61  92 136 182 235 284 336 405
#     4  11  22  39  59  87 131 183 233 278 347 397
#     4  11  23  42  68  97 133 182 231 284 340 405
#     4  12  23  36  61  96 131 175 229 275 340 396
#     4  11  21  41  68 100 133 172 221 276 341 408
#     4  11  22  40  59  89 131 182 237 286 334 400
#     4  10  23  43  69  97 135 170 218 276 346 417
#     4   9  20  42  68  98 134 170 212 274 344 421
#
# _framework density 23.962129000000001
#
# number of rings (size 3 to 8) (size 9 to 14) (size 15 to 20)
#    0.000    1.250    2.500    4.125    1.750    0.000 
#    2.250    2.500    0.000    1.500    0.000    0.000 
#    0.000    0.000    0.000    0.000    0.000    0.000 
#
# Total GULP energy -178319.219994 kJ/mol
# GULP energy per Si atom -5572.475625 kJ/mol
# Density = 2.390759 g / cm^3
# Si number density = 23.962129 Si / 1000 Ang^3
#
#
#
# Elastic Constant Matrix: (Units=GPa)
#
#
# Indices 1 2 3 4 5 6 
#
# 1 174.6379 15.1806 10.2177 0.0000 -10.2178 0.0000
# 2 15.1806 59.1658 18.9682 0.0000 -6.0451 0.0000
# 3 10.2177 18.9682 99.7008 0.0000 -12.4918 0.0000
# 4 0.0000 0.0000 0.0000 -19.4788 0.0000 -0.0289
# 5 -10.2178 -6.0451 -12.4918 0.0000 43.6633 0.0000
# 6 0.0000 0.0000 0.0000 -0.0289 0.0000 10.9075
#
#
#
# Elastic Compliance Matrix: (Units=1/GPa)
#
#
# Indices 1 2 3 4 5 6 
#
# 1 0.005921 -0.001335 -0.000210 0.000000 0.001141 0.000000
# 2 -0.001335 0.018405 -0.003199 0.000000 0.001320 0.000000
# 3 -0.000210 -0.003199 0.010993 0.000000 0.002653 0.000000
# 4 0.000000 0.000000 0.000000 -0.051338 0.000000 -0.000136
# 5 0.001141 0.001320 0.002653 0.000000 0.024111 0.000000
# 6 0.000000 0.000000 0.000000 -0.000136 0.000000 0.091680
#
#
# Mechanical properties :
#
#
# Convention : Reuss Voigt Hill
#
# Bulk Modulus (GPa) = 38.71523 46.91525 42.81524
# Shear Modulus (GPa) = 42.41919 26.29426 34.35672
#
# Velocity S-wave (km/s) = 4.21201 3.31618 3.79065
# Velocity P-wave (km/s) = 6.31242 5.85527 6.08814
#
# Compressibility (1/GPa) = 0.02582963
#
# Stress axis : x y z
#
# Youngs Moduli (GPa) = 168.88366 54.33344 90.97056
#
# Poissons Ratio (x) = 0.07256 0.01909
# Poissons Ratio (y) = 0.22553 0.29104
# Poissons Ratio (z) = 0.03544 0.17383
#
# Static dielectric constant tensor:
#      x y z
#    x 2.428630 0.000000 -0.826060 
#    y 0.000000 2.006270 0.000000 
#    z -0.826060 0.000000 3.847170 
# 
# From -- ./inp_files/52863.got.cif
#   From: 2010.05.17/outbox.cif.g08.bks.cpg/sg15_27_cif.got.tgz:52863.got - 2010.06.03 18:47:42.
