data_PCOD9295056
_publ_section_title
;
Structure prediction by ZEFSAII (Michael W. Deem and Ramdas Pophale) SiO2 
 PCOD9295056
Probable space group: C 2/C
;
_chemical_formula_sum "Si O2"
_cell_formula_units_Z 32
_cell_length_a 18.241084
_cell_length_b 9.445723
_cell_length_c 8.787292
_cell_angle_alpha 90.000000
_cell_angle_beta 55.654638
_cell_angle_gamma 90.000000
_cell_volume 1250.080218
_symmetry_space_group_name_H-M "C 2/C"
_symmetry_group_IT_number 15
_symmetry_cell_setting 'monoclinic'
loop_
_space_group_symop_operation_xyz
x,y,z
-x,y,1/2-z
-x,-y,-z
x,-y,1/2+z
1/2+x,1/2+y,z
1/2-x,1/2+y,1/2-z
1/2-x,1/2-y,-z
1/2+x,1/2-y,1/2+z
loop_
_atom_site_type_symbol
_atom_site_label
_atom_site_fract_x
_atom_site_fract_y
_atom_site_fract_z
Si Si1 0.500000 0.927964 0.250000
Si Si2 0.247976 0.680268 0.262810
Si Si3 0.000000 0.095980 0.750000
Si Si4 0.315948 0.433271 0.004617
Si Si5 0.928658 0.676108 0.535670
O O1 0.559710 0.841490 0.297715
O O2 0.445418 0.030867 0.426169
O O3 0.244767 0.547539 0.154253
O O4 0.278194 0.616744 0.388638
O O5 0.176991 0.800443 0.387141
O O6 0.332300 0.768903 0.105292
O O7 0.003444 0.204592 0.604022
O O8 0.088558 0.003728 0.633982
#
# Coordination Sequence:
#
# PCOD9295056 Si02
#       5
#     4   8   4   8   8
#     4   9  18  35  60  92 132 164 202 254 306 366
#     4  10  23  42  63  91 125 164 206 253 310 366
#     4   9  20  41  64  90 120 162 210 254 302 364
#     4  10  23  42  64  91 125 160 206 253 307 368
#     4   9  19  35  61  94 126 164 206 251 307 364
#
# _framework density 25.598355999999999
#
# number of rings (size 3 to 8) (size 9 to 14) (size 15 to 20)
#    0.000    2.500    0.000    0.000    0.000   12.000 
#    0.000    7.500    0.000    6.000    0.000    0.000 
#    0.000    0.000    0.000    0.000    0.000    0.000 
#
# Total GULP energy -89611.308329 kJ/mol
# GULP energy per Si atom -5600.706771 kJ/mol
# Density = 2.554009 g / cm^3
# Si number density = 25.598356 Si / 1000 Ang^3
#
#
#
# Elastic Constant Matrix: (Units=GPa)
#
#
# Indices 1 2 3 4 5 6 
#
# 1 47.4913 26.5956 24.1525 0.0000 -1.3803 0.0000
# 2 26.5956 124.4115 46.6957 0.0000 -11.2200 0.0000
# 3 24.1525 46.6957 109.3101 0.0000 -11.8018 0.0000
# 4 0.0000 0.0000 0.0000 -0.3550 0.0000 -36.9442
# 5 -1.3803 -11.2200 -11.8018 0.0000 30.2714 0.0000
# 6 0.0000 0.0000 0.0000 -36.9442 0.0000 27.7575
#
#
#
# Elastic Compliance Matrix: (Units=1/GPa)
#
#
# Indices 1 2 3 4 5 6 
#
# 1 0.025348 -0.004065 -0.004074 0.000000 -0.001939 0.000000
# 2 -0.004065 0.010347 -0.003265 0.000000 0.002377 0.000000
# 3 -0.004074 -0.003265 0.011789 0.000000 0.003200 0.000000
# 4 0.000000 0.000000 0.000000 -0.020191 0.000000 -0.026874
# 5 -0.001939 0.002377 0.003200 0.000000 0.035075 0.000000
# 6 0.000000 0.000000 0.000000 -0.026874 0.000000 0.000258
#
#
# Mechanical properties :
#
#
# Convention : Reuss Voigt Hill
#
# Bulk Modulus (GPa) = 40.52466 52.90007 46.71236
# Shear Modulus (GPa) = 53.38592 23.78605 38.58599
#
# Velocity S-wave (km/s) = 4.57171 3.05159 3.88669
# Velocity P-wave (km/s) = 6.61307 5.75557 6.19916
#
# Compressibility (1/GPa) = 0.02467633
#
# Stress axis : x y z
#
# Youngs Moduli (GPa) = 39.45061 96.64995 84.82651
#
# Poissons Ratio (x) = 0.39284 0.34557
# Poissons Ratio (y) = 0.16035 0.27698
# Poissons Ratio (z) = 0.16071 0.31559
#
# Static dielectric constant tensor:
#      x y z
#    x 1.979140 0.000000 -0.043990 
#    y 0.000000 2.054700 0.000000 
#    z -0.043990 0.000000 2.016160 
# 
# From -- ./inp_files/53508.got.cif
#   From: 2010.05.17/outbox.cif.g08.bks.cpg/sg15_27_cif.got.tgz:53508.got - 2010.06.03 18:47:42.
