data_PCOD9295381
_publ_section_title
;
Structure prediction by ZEFSAII (Michael W. Deem and Ramdas Pophale) SiO2 
 PCOD9295381
Probable space group: C 2/C
;
_chemical_formula_sum "Si O2"
_cell_formula_units_Z 44
_cell_length_a 17.718145
_cell_length_b 5.309251
_cell_length_c 26.135934
_cell_angle_alpha 90.000000
_cell_angle_beta 137.915327
_cell_angle_gamma 90.000000
_cell_volume 1647.829120
_symmetry_space_group_name_H-M "C 2/C"
_symmetry_group_IT_number 15
_symmetry_cell_setting 'monoclinic'
loop_
_space_group_symop_operation_xyz
x,y,z
-x,y,1/2-z
-x,-y,-z
x,-y,1/2+z
1/2+x,1/2+y,z
1/2-x,1/2+y,1/2-z
1/2-x,1/2-y,-z
1/2+x,1/2-y,1/2+z
loop_
_atom_site_type_symbol
_atom_site_label
_atom_site_fract_x
_atom_site_fract_y
_atom_site_fract_z
Si Si1 0.074917 0.150602 0.418918
Si Si2 0.500000 0.777098 0.750000
Si Si3 0.895506 0.190116 0.476001
Si Si4 0.060901 0.365367 0.671454
Si Si5 0.706280 0.431349 0.888915
Si Si6 0.844089 0.174626 0.873419
O O1 0.119644 0.061054 0.496614
O O2 0.160869 0.209410 0.416254
O O3 0.103715 0.892866 0.319986
O O4 0.013993 0.888088 0.372662
O O5 0.552619 0.921172 0.727743
O O6 0.812115 0.393973 0.456958
O O7 0.027519 0.258715 0.545452
O O8 0.854996 0.115227 0.398376
O O9 0.009160 0.616550 0.621118
O O10 0.166412 0.271456 0.690063
O O11 0.746833 0.286573 0.859134
#
# Coordination Sequence:
#
# PCOD9295381 Si02
#       6
#     8   4   8   8   8   8
#     4  10  24  42  72 103 143 178 234 284 361 418
#     4  10  26  52  64  96 140 190 244 280 340 428
#     4  10  23  42  70 109 144 177 230 301 367 429
#     4  10  24  47  69 101 138 189 231 294 344 422
#     4  11  24  44  69 103 137 195 234 292 351 427
#     4  10  24  41  72 104 141 177 235 296 366 417
#
# _framework density 26.701799000000001
#
# number of rings (size 3 to 8) (size 9 to 14) (size 15 to 20)
#    0.000    1.818    0.000    1.091   17.818    3.636 
#    3.273    0.000    0.000    0.000    0.000    0.000 
#    0.000    0.000    0.000    0.000    0.000    0.000 
#
# Total GULP energy -122893.397608 kJ/mol
# GULP energy per Si atom -5586.063528 kJ/mol
# Density = 2.664102 g / cm^3
# Si number density = 26.701799 Si / 1000 Ang^3
#
#
#
# Elastic Constant Matrix: (Units=GPa)
#
#
# Indices 1 2 3 4 5 6 
#
# 1 196.7804 32.7173 29.2848 -0.0006 -49.3317 -0.0007
# 2 32.7173 93.1380 18.8277 -0.0024 -8.4993 -0.0007
# 3 29.2848 18.8277 59.5674 -0.0005 -15.7881 0.0009
# 4 -0.0006 -0.0024 -0.0005 42.0107 0.0006 1.7836
# 5 -49.3317 -8.4993 -15.7881 0.0006 58.1058 -0.0002
# 6 -0.0007 -0.0007 0.0009 1.7836 -0.0002 46.3887
#
#
#
# Elastic Compliance Matrix: (Units=1/GPa)
#
#
# Indices 1 2 3 4 5 6 
#
# 1 0.006878 -0.001642 -0.001486 0.000000 0.005196 0.000000
# 2 -0.001642 0.011892 -0.003082 0.000001 -0.000492 0.000000
# 3 -0.001486 -0.003082 0.019438 0.000000 0.003570 0.000000
# 4 0.000000 0.000001 0.000000 0.023842 0.000000 -0.000917
# 5 0.005196 -0.000492 0.003570 0.000000 0.022519 0.000000
# 6 0.000000 0.000000 0.000000 -0.000917 0.000000 0.021592
#
#
# Mechanical properties :
#
#
# Convention : Reuss Voigt Hill
#
# Bulk Modulus (GPa) = 38.77472 56.79393 47.78432
# Shear Modulus (GPa) = 39.31522 47.21142 43.26332
#
# Velocity S-wave (km/s) = 3.84132 4.20944 4.02959
# Velocity P-wave (km/s) = 5.85041 6.70386 6.29162
#
# Compressibility (1/GPa) = 0.02579000
#
# Stress axis : x y z
#
# Youngs Moduli (GPa) = 145.38137 84.09304 51.44501
#
# Poissons Ratio (x) = 0.13806 0.07642
# Poissons Ratio (y) = 0.23869 0.15854
# Poissons Ratio (z) = 0.21597 0.25916
#
# Static dielectric constant tensor:
#      x y z
#    x 2.120690 0.000000 -0.100700 
#    y 0.000000 2.082950 0.000000 
#    z -0.100700 0.000000 2.266720 
# 
# From -- ./inp_files/276111.got.cif
#   From: 2010.05.17/outbox.cif.g08.bks.cpg/sg15_139_cif.got.tgz:276111.got - 2010.06.03 18:47:42.
