data_PCOD9295769
_publ_section_title
;
Structure prediction by ZEFSAII (Michael W. Deem and Ramdas Pophale) SiO2 
 PCOD9295769
Probable space group: C 2/C
;
_chemical_formula_sum "Si O2"
_cell_formula_units_Z 36
_cell_length_a 12.639753
_cell_length_b 19.188689
_cell_length_c 8.001745
_cell_angle_alpha 90.000000
_cell_angle_beta 132.591867
_cell_angle_gamma 90.000000
_cell_volume 1428.763599
_symmetry_space_group_name_H-M "C 2/C"
_symmetry_group_IT_number 15
_symmetry_cell_setting 'monoclinic'
loop_
_space_group_symop_operation_xyz
x,y,z
-x,y,1/2-z
-x,-y,-z
x,-y,1/2+z
1/2+x,1/2+y,z
1/2-x,1/2+y,1/2-z
1/2-x,1/2-y,-z
1/2+x,1/2-y,1/2+z
loop_
_atom_site_type_symbol
_atom_site_label
_atom_site_fract_x
_atom_site_fract_y
_atom_site_fract_z
Si Si1 0.010669 0.842240 0.450257
Si Si2 0.712650 0.237434 0.155475
Si Si3 0.311209 0.982458 0.128907
Si Si4 0.943408 0.404708 0.955082
Si Si5 0.500000 0.442405 0.750000
O O1 0.863727 0.804005 0.346915
O O2 0.040993 0.895711 0.632979
O O3 0.000000 0.868943 0.250000
O O4 0.142484 0.787436 0.599476
O O5 0.597886 0.174367 0.056503
O O6 0.750000 0.250000 0.000000
O O7 0.392523 0.928342 0.341579
O O8 0.373822 0.059624 0.219706
O O9 0.359345 0.949000 0.006750
O O10 0.141423 0.982648 0.957509
#
# Coordination Sequence:
#
# PCOD9295769 Si02
#       5
#     8   8   8   8   4
#     4  12  27  45  71 114 145 194 250 311 380 439
#     4  12  24  46  75 104 148 200 247 307 375 449
#     4  10  23  43  69 103 140 191 237 301 369 443
#     4  10  23  45  69 102 143 192 247 291 374 455
#     4  12  24  46  78 106 148 190 242 314 380 442
#
# _framework density 25.196611000000001
#
# number of rings (size 3 to 8) (size 9 to 14) (size 15 to 20)
#    0.000    0.889    4.444    0.667    9.333    2.667 
#   10.000    0.000    0.000    0.000    0.000    0.000 
#    0.000    0.000    0.000    0.000    0.000    0.000 
#
# Total GULP energy -100805.903080 kJ/mol
# GULP energy per Si atom -5600.327949 kJ/mol
# Density = 2.513926 g / cm^3
# Si number density = 25.196611 Si / 1000 Ang^3
#
#
#
# Elastic Constant Matrix: (Units=GPa)
#
#
# Indices 1 2 3 4 5 6 
#
# 1 94.9610 44.7772 76.5002 0.0000 1.7166 0.0000
# 2 44.7772 98.3347 33.2947 0.0000 3.0820 0.0000
# 3 76.5002 33.2947 135.6856 0.0000 21.9330 0.0000
# 4 0.0000 0.0000 0.0000 30.9913 0.0000 10.0813
# 5 1.7166 3.0820 21.9330 0.0000 68.5888 0.0000
# 6 0.0000 0.0000 0.0000 10.0813 0.0000 31.4343
#
#
#
# Elastic Compliance Matrix: (Units=1/GPa)
#
#
# Indices 1 2 3 4 5 6 
#
# 1 0.023367 -0.006648 -0.012124 0.000000 0.003591 0.000000
# 2 -0.006648 0.012992 0.000662 0.000000 -0.000629 0.000000
# 3 -0.012124 0.000662 0.014762 0.000000 -0.004447 0.000000
# 4 0.000000 0.000000 0.000000 0.036025 0.000000 -0.011554
# 5 0.003591 -0.000629 -0.004447 0.000000 0.015940 0.000000
# 6 0.000000 0.000000 0.000000 -0.011554 0.000000 0.035518
#
#
# Mechanical properties :
#
#
# Convention : Reuss Voigt Hill
#
# Bulk Modulus (GPa) = 67.10762 70.90283 69.00523
# Shear Modulus (GPa) = 27.80998 37.83019 32.82008
#
# Velocity S-wave (km/s) = 3.32583 3.87899 3.61301
# Velocity P-wave (km/s) = 6.43736 6.94716 6.69711
#
# Compressibility (1/GPa) = 0.01490144
#
# Stress axis : x y z
#
# Youngs Moduli (GPa) = 42.79478 76.96932 67.74243
#
# Poissons Ratio (x) = 0.51170 0.82129
# Poissons Ratio (y) = 0.28450 -0.04483
# Poissons Ratio (z) = 0.51883 -0.05094
#
# Static dielectric constant tensor:
#      x y z
#    x 2.054310 0.000000 -0.072180 
#    y 0.000000 1.992280 0.000000 
#    z -0.072180 0.000000 2.067700 
# 
# From -- ./inp_files/41318.got.cif
#   From: 2010.05.17/outbox.cif.g08.bks.cpg/sg15_21_cif.got.tgz:41318.got - 2010.06.03 18:47:42.
