data_PCOD9295035
_publ_section_title
;
Structure prediction by ZEFSAII (Michael W. Deem and Ramdas Pophale) SiO2 
 PCOD9295035
Probable space group: C 2/C
;
_chemical_formula_sum "Si O2"
_cell_formula_units_Z 32
_cell_length_a 13.053843
_cell_length_b 12.736917
_cell_length_c 18.526276
_cell_angle_alpha 90.000000
_cell_angle_beta 151.678712
_cell_angle_gamma 90.000000
_cell_volume 1461.334148
_symmetry_space_group_name_H-M "C 2/C"
_symmetry_group_IT_number 15
_symmetry_cell_setting 'monoclinic'
loop_
_space_group_symop_operation_xyz
x,y,z
-x,y,1/2-z
-x,-y,-z
x,-y,1/2+z
1/2+x,1/2+y,z
1/2-x,1/2+y,1/2-z
1/2-x,1/2-y,-z
1/2+x,1/2-y,1/2+z
loop_
_atom_site_type_symbol
_atom_site_label
_atom_site_fract_x
_atom_site_fract_y
_atom_site_fract_z
Si Si1 0.101507 0.001417 0.678965
Si Si2 0.891362 0.325736 0.903560
Si Si3 0.733971 0.110207 0.864343
Si Si4 0.615019 0.713051 0.750161
O O1 0.265475 0.934949 0.829601
O O2 0.914963 0.926258 0.533327
O O3 0.221145 0.048080 0.682336
O O4 0.005033 0.103437 0.658470
O O5 0.764436 0.232826 0.865378
O O6 0.894905 0.294036 0.821301
O O7 0.136367 0.318283 0.082336
O O8 0.500000 0.088008 0.750000
O O9 0.500000 0.754836 0.750000
#
# Coordination Sequence:
#
# PCOD9295035 Si02
#       4
#     8   8   8   8
#     4  10  23  42  62  95 127 161 215 256 306 377
#     4  11  22  44  62  94 131 160 211 260 305 379
#     4  10  23  42  66  92 126 168 204 260 317 364
#     4  11  24  40  65  95 125 168 207 258 314 367
#
# _framework density 21.897797000000001
#
# number of rings (size 3 to 8) (size 9 to 14) (size 15 to 20)
#    0.000    1.500    2.500    1.500    3.500    3.000 
#    0.000    0.000    0.000    0.000    0.000    0.000 
#    0.000    0.000    0.000    0.000    0.000    0.000 
#
# Total GULP energy -89534.125368 kJ/mol
# GULP energy per Si atom -5595.882836 kJ/mol
# Density = 2.184796 g / cm^3
# Si number density = 21.897797 Si / 1000 Ang^3
#
#
#
# Elastic Constant Matrix: (Units=GPa)
#
#
# Indices 1 2 3 4 5 6 
#
# 1 52.6060 -13.8466 3.1210 -0.0003 5.9507 0.0000
# 2 -13.8466 54.9005 -8.1556 -0.0005 4.0598 0.0013
# 3 3.1210 -8.1556 61.5053 0.0017 -1.8857 0.0034
# 4 -0.0003 -0.0005 0.0017 33.1936 0.0008 -4.4825
# 5 5.9507 4.0598 -1.8857 0.0008 23.9591 0.0007
# 6 0.0000 0.0013 0.0034 -4.4825 0.0007 -2.3079
#
#
#
# Elastic Compliance Matrix: (Units=1/GPa)
#
#
# Indices 1 2 3 4 5 6 
#
# 1 0.021266 0.005754 -0.000509 0.000000 -0.006297 0.000000
# 2 0.005754 0.020349 0.002262 0.000002 -0.004699 0.000010
# 3 -0.000509 0.002262 0.016617 0.000002 0.001051 0.000022
# 4 0.000000 0.000002 0.000002 0.023867 0.000000 -0.046354
# 5 -0.006297 -0.004699 0.001051 0.000000 0.044181 0.000011
# 6 0.000000 0.000010 0.000022 -0.046354 0.000011 -0.343258
#
#
# Mechanical properties :
#
#
# Convention : Reuss Voigt Hill
#
# Bulk Modulus (GPa) = 13.65268 14.58326 14.11797
# Shear Modulus (GPa) = -24.08748 23.49516 -0.29616
#
# Velocity S-wave (km/s) = -3.32022 3.27914 -0.36816
# Velocity P-wave (km/s) = 2.90692 4.58379 2.50609
#
# Compressibility (1/GPa) = 0.07324570
#
# Stress axis : x y z
#
# Youngs Moduli (GPa) = 47.02302 49.14139 60.18003
#
# Poissons Ratio (x) = -0.28274 0.03065
# Poissons Ratio (y) = -0.27055 -0.13615
# Poissons Ratio (z) = 0.02395 -0.11117
#
# Static dielectric constant tensor:
#      x y z
#    x 1.773410 0.000000 -0.025190 
#    y 0.000000 1.783590 0.000000 
#    z -0.025190 0.000000 1.793210 
# 
# From -- ./inp_files/27847.got.cif
#   From: 2010.05.17/outbox.cif.g08.bks.cpg/sg15_14_cif.got.tgz:27847.got - 2010.06.03 18:47:42.
