data_PCOD9295925
_publ_section_title
;
Structure prediction by ZEFSAII (Michael W. Deem and Ramdas Pophale) SiO2 
 PCOD9295925
Probable space group: C 2/C
;
_chemical_formula_sum "Si O2"
_cell_formula_units_Z 48
_cell_length_a 24.529004
_cell_length_b 5.287480
_cell_length_c 16.980385
_cell_angle_alpha 90.000000
_cell_angle_beta 118.961171
_cell_angle_gamma 90.000000
_cell_volume 1926.896804
_symmetry_space_group_name_H-M "C 2/C"
_symmetry_group_IT_number 15
_symmetry_cell_setting 'monoclinic'
loop_
_space_group_symop_operation_xyz
x,y,z
-x,y,1/2-z
-x,-y,-z
x,-y,1/2+z
1/2+x,1/2+y,z
1/2-x,1/2+y,1/2-z
1/2-x,1/2-y,-z
1/2+x,1/2-y,1/2+z
loop_
_atom_site_type_symbol
_atom_site_label
_atom_site_fract_x
_atom_site_fract_y
_atom_site_fract_z
Si Si1 0.405815 0.014214 0.865345
Si Si2 0.275269 0.176177 0.805706
Si Si3 0.213151 0.073435 0.412678
Si Si4 0.084164 0.766465 0.835432
Si Si5 0.102253 0.253641 0.801081
Si Si6 0.030509 0.196941 0.460288
O O1 0.349248 0.197604 0.846449
O O2 0.385386 0.835778 0.779454
O O3 0.471015 0.143627 0.889188
O O4 0.422517 0.860581 0.954730
O O5 0.251476 0.957026 0.728176
O O6 0.256455 0.043286 0.875289
O O7 0.250000 0.250000 0.500000
O O8 0.155559 0.260441 0.352794
O O9 0.165049 0.833728 0.393292
O O10 0.065802 0.477008 0.818567
O O11 0.070758 0.874730 0.912484
O O12 0.062823 0.995214 0.766052
O O13 0.000000 0.000000 0.500000
#
# Coordination Sequence:
#
# PCOD9295925 Si02
#       6
#     8   8   8   8   8   8
#     4  11  26  47  72 110 151 199 260 315 393 459
#     4  12  25  46  75 110 149 200 251 321 388 465
#     4  10  23  43  73 109 151 195 252 312 386 460
#     4  10  24  48  70 105 149 195 251 312 385 452
#     4  10  24  46  72 105 150 192 251 309 383 457
#     4  11  28  48  75 106 151 204 258 326 383 470
#
# _framework density 24.910520000000002
#
# number of rings (size 3 to 8) (size 9 to 14) (size 15 to 20)
#    1.000    0.333    1.667    2.000    9.333    1.333 
#    3.000    0.000    0.000    0.000    0.000    0.000 
#    0.000    0.000    0.000    0.000    0.000    0.000 
#
# Total GULP energy -133625.230777 kJ/mol
# GULP energy per Si atom -5567.717949 kJ/mol
# Density = 2.485382 g / cm^3
# Si number density = 24.910520 Si / 1000 Ang^3
#
#
#
# Elastic Constant Matrix: (Units=GPa)
#
#
# Indices 1 2 3 4 5 6 
#
# 1 104.2566 -3.0799 29.5187 0.0000 -7.2809 0.0000
# 2 -3.0799 111.1695 22.1323 -0.0001 -5.4093 0.0010
# 3 29.5187 22.1323 31.1313 0.0000 11.9159 0.0002
# 4 0.0000 -0.0001 0.0000 21.0738 0.0000 -15.9517
# 5 -7.2809 -5.4093 11.9159 0.0000 43.6685 0.0000
# 6 0.0000 0.0010 0.0002 -15.9517 0.0000 18.8561
#
#
#
# Elastic Compliance Matrix: (Units=1/GPa)
#
#
# Indices 1 2 3 4 5 6 
#
# 1 0.017527 0.005938 -0.024835 0.000000 0.010434 0.000000
# 2 0.005938 0.013060 -0.017769 -0.000001 0.007456 -0.000001
# 3 -0.024835 -0.017769 0.078979 0.000000 -0.027893 0.000001
# 4 0.000000 -0.000001 0.000000 0.131942 0.000000 0.111620
# 5 0.010434 0.007456 -0.027893 0.000000 0.033174 0.000000
# 6 0.000000 -0.000001 0.000001 0.111620 0.000000 0.147461
#
#
# Mechanical properties :
#
#
# Convention : Reuss Voigt Hill
#
# Bulk Modulus (GPa) = 27.59788 38.18885 32.89336
# Shear Modulus (GPa) = 9.85117 29.91876 19.88497
#
# Velocity S-wave (km/s) = 1.99078 3.46938 2.82841
# Velocity P-wave (km/s) = 4.04810 5.60468 4.88874
#
# Compressibility (1/GPa) = 0.03623467
#
# Stress axis : x y z
#
# Youngs Moduli (GPa) = 57.05362 76.56891 12.66158
#
# Poissons Ratio (x) = -0.45463 0.31445
# Poissons Ratio (y) = -0.33876 0.22498
# Poissons Ratio (z) = 1.41690 1.36055
#
# Static dielectric constant tensor:
#      x y z
#    x 2.000910 0.000000 0.015290 
#    y 0.000000 2.082550 0.000000 
#    z 0.015290 0.000000 2.040690 
# 
# From -- ./inp_files/256636.got.cif
#   From: 2010.05.17/outbox.cif.g08.bks.cpg/sg15_129_cif.got.tgz:256636.got - 2010.06.03 18:47:42.
