data_PCOD9295793
_publ_section_title
;
Structure prediction by ZEFSAII (Michael W. Deem and Ramdas Pophale) SiO2 
 PCOD9295793
Probable space group: C 2/C
;
_chemical_formula_sum "Si O2"
_cell_formula_units_Z 32
_cell_length_a 10.441913
_cell_length_b 13.337546
_cell_length_c 9.964485
_cell_angle_alpha 90.000000
_cell_angle_beta 103.219569
_cell_angle_gamma 90.000000
_cell_volume 1350.974636
_symmetry_space_group_name_H-M "C 2/C"
_symmetry_group_IT_number 15
_symmetry_cell_setting 'monoclinic'
loop_
_space_group_symop_operation_xyz
x,y,z
-x,y,1/2-z
-x,-y,-z
x,-y,1/2+z
1/2+x,1/2+y,z
1/2-x,1/2+y,1/2-z
1/2-x,1/2-y,-z
1/2+x,1/2-y,1/2+z
loop_
_atom_site_type_symbol
_atom_site_label
_atom_site_fract_x
_atom_site_fract_y
_atom_site_fract_z
Si Si1 0.853954 0.025848 0.739881
Si Si2 0.500000 0.839248 0.750000
Si Si3 0.500000 0.329297 0.750000
Si Si4 0.811879 0.508966 0.048315
Si Si5 0.107725 0.707083 0.005360
O O1 0.877484 0.905773 0.723577
O O2 0.754173 0.056631 0.599494
O O3 0.000000 0.067111 0.750000
O O4 0.799119 0.034284 0.876127
O O5 0.572720 0.777820 0.651612
O O6 0.604461 0.911366 0.848954
O O7 0.506366 0.262283 0.882993
O O8 0.894376 0.411883 0.023972
O O9 0.250000 0.750000 0.000000
#
# Coordination Sequence:
#
# PCOD9295793 Si02
#       5
#     8   4   4   8   8
#     4  10  23  43  69  98 135 182 232 272 343 403
#     4  12  27  44  69 110 130 188 228 274 353 412
#     4  10  23  44  65  94 140 174 224 286 337 398
#     4  12  22  45  69  98 140 175 235 278 333 421
#     4  12  24  47  66 103 141 174 226 288 344 402
#
# _framework density 23.686603999999999
#
# number of rings (size 3 to 8) (size 9 to 14) (size 15 to 20)
#    0.750    0.000    5.000    2.250    3.500    0.000 
#    6.750    2.500    0.000    0.000    0.000    0.000 
#    0.000    0.000    0.000    0.000    0.000    0.000 
#
# Total GULP energy -89575.139519 kJ/mol
# GULP energy per Si atom -5598.446220 kJ/mol
# Density = 2.363269 g / cm^3
# Si number density = 23.686604 Si / 1000 Ang^3
#
#
#
# Elastic Constant Matrix: (Units=GPa)
#
#
# Indices 1 2 3 4 5 6 
#
# 1 69.0375 17.1439 30.8436 0.0000 -17.5166 0.0000
# 2 17.1439 64.7899 29.8835 0.0000 -0.4804 0.0000
# 3 30.8436 29.8835 141.0167 0.0000 -21.8727 0.0000
# 4 0.0000 0.0000 0.0000 10.5395 0.0000 -20.9587
# 5 -17.5166 -0.4804 -21.8727 0.0000 64.7027 0.0000
# 6 0.0000 0.0000 0.0000 -20.9587 0.0000 10.4208
#
#
#
# Elastic Compliance Matrix: (Units=1/GPa)
#
#
# Indices 1 2 3 4 5 6 
#
# 1 0.017426 -0.003436 -0.002486 0.000000 0.003852 0.000000
# 2 -0.003436 0.017867 -0.003333 0.000000 -0.001924 0.000000
# 3 -0.002486 -0.003333 0.008689 0.000000 0.002239 0.000000
# 4 0.000000 0.000000 0.000000 -0.031632 0.000000 -0.063620
# 5 0.003852 -0.001924 0.002239 0.000000 0.017241 0.000000
# 6 0.000000 0.000000 0.000000 -0.063620 0.000000 -0.031993
#
#
# Mechanical properties :
#
#
# Convention : Reuss Voigt Hill
#
# Bulk Modulus (GPa) = 39.25943 47.84290 43.55117
# Shear Modulus (GPa) = 203.26729 30.26415 116.76572
#
# Velocity S-wave (km/s) = 9.27370 3.57836 7.02874
# Velocity P-wave (km/s) = 11.45772 6.10860 9.18135
#
# Compressibility (1/GPa) = 0.02547159
#
# Stress axis : x y z
#
# Youngs Moduli (GPa) = 57.38546 55.96976 115.09059
#
# Poissons Ratio (x) = 0.19231 0.28611
# Poissons Ratio (y) = 0.19717 0.38362
# Poissons Ratio (z) = 0.14266 0.18656
#
# Static dielectric constant tensor:
#      x y z
#    x 1.898520 0.000000 -0.013480 
#    y 0.000000 1.898760 0.000000 
#    z -0.013480 0.000000 1.868320 
# 
# From -- ./inp_files/27997.got.cif
#   From: 2010.05.17/outbox.cif.g08.bks.cpg/sg15_14_cif.got.tgz:27997.got - 2010.06.03 18:47:42.
