data_PCOD9295967
_publ_section_title
;
Structure prediction by ZEFSAII (Michael W. Deem and Ramdas Pophale) SiO2 
 PCOD9295967
Probable space group: C 2/C
;
_chemical_formula_sum "Si O2"
_cell_formula_units_Z 56
_cell_length_a 16.776083
_cell_length_b 5.202360
_cell_length_c 24.210975
_cell_angle_alpha 90.000000
_cell_angle_beta 77.618974
_cell_angle_gamma 90.000000
_cell_volume 2063.876491
_symmetry_space_group_name_H-M "C 2/C"
_symmetry_group_IT_number 15
_symmetry_cell_setting 'monoclinic'
loop_
_space_group_symop_operation_xyz
x,y,z
-x,y,1/2-z
-x,-y,-z
x,-y,1/2+z
1/2+x,1/2+y,z
1/2-x,1/2+y,1/2-z
1/2-x,1/2-y,-z
1/2+x,1/2-y,1/2+z
loop_
_atom_site_type_symbol
_atom_site_label
_atom_site_fract_x
_atom_site_fract_y
_atom_site_fract_z
Si Si1 0.523668 0.412942 0.832997
Si Si2 0.967753 0.795515 0.052458
Si Si3 0.325662 0.846721 0.070597
Si Si4 0.923370 0.562202 0.903719
Si Si5 0.686895 0.460588 0.531119
Si Si6 0.280773 0.042198 0.340130
Si Si7 0.859083 0.028796 0.285563
O O1 0.540234 0.557545 0.887837
O O2 0.499691 0.121189 0.852997
O O3 0.596362 0.428006 0.779219
O O4 0.437587 0.493079 0.816057
O O5 0.043508 0.611092 0.053006
O O6 0.893200 0.820486 0.937308
O O7 0.000000 0.000000 0.000000
O O8 0.391092 0.083910 0.060421
O O9 0.306084 0.642433 0.122704
O O10 0.235753 0.966112 0.078615
O O11 0.326421 0.666466 0.015309
O O12 0.846389 0.467344 0.881159
O O13 0.750000 0.250000 0.500000
O O14 0.311623 0.262167 0.294418
O O15 0.298743 0.764466 0.310132
#
# Coordination Sequence:
#
# PCOD9295967 Si02
#       7
#     8   8   8   8   8   8   8
#     4  10  24  46  77 120 163 202 279 349 429 496
#     4  12  30  52  77 124 178 224 268 344 439 517
#     4  11  27  47  78 115 169 220 278 347 419 503
#     4  11  25  49  82 113 163 217 278 343 413 513
#     4  11  25  47  78 112 158 219 287 336 406 506
#     4  11  22  46  82 119 155 208 289 350 414 495
#     4  10  23  43  88 121 150 209 286 362 408 495
#
# _framework density 27.133406999999998
#
# number of rings (size 3 to 8) (size 9 to 14) (size 15 to 20)
#    0.000    1.143    2.857    1.714    4.000    4.571 
#    0.000    0.000    3.143    0.000    0.000    0.000 
#    0.000    0.000    0.000    0.000    0.000    0.000 
#
# Total GULP energy -156435.407159 kJ/mol
# GULP energy per Si atom -5586.978827 kJ/mol
# Density = 2.707165 g / cm^3
# Si number density = 27.133407 Si / 1000 Ang^3
#
#
#
# Elastic Constant Matrix: (Units=GPa)
#
#
# Indices 1 2 3 4 5 6 
#
# 1 113.5529 84.7344 84.7997 0.0001 -7.8964 0.0000
# 2 84.7344 169.8739 71.7191 0.0002 -11.9207 -0.0001
# 3 84.7997 71.7191 176.9475 0.0002 -14.6374 0.0001
# 4 0.0001 0.0002 0.0002 43.5566 0.0001 -8.3235
# 5 -7.8964 -11.9207 -14.6374 0.0001 43.4344 0.0000
# 6 0.0000 -0.0001 0.0001 -8.3235 0.0000 67.1550
#
#
#
# Elastic Compliance Matrix: (Units=1/GPa)
#
#
# Indices 1 2 3 4 5 6 
#
# 1 0.018228 -0.006543 -0.006129 0.000000 -0.000547 0.000000
# 2 -0.006543 0.009494 -0.000612 0.000000 0.001210 0.000000
# 3 -0.006129 -0.000612 0.008981 0.000000 0.001744 0.000000
# 4 0.000000 0.000000 0.000000 0.023516 0.000000 0.002915
# 5 -0.000547 0.001210 0.001744 0.000000 0.023844 0.000000
# 6 0.000000 0.000000 0.000000 0.002915 0.000000 0.015252
#
#
# Mechanical properties :
#
#
# Convention : Reuss Voigt Hill
#
# Bulk Modulus (GPa) = 98.67252 104.76451 101.71852
# Shear Modulus (GPa) = 38.68174 45.43727 42.05951
#
# Velocity S-wave (km/s) = 3.77983 4.09661 3.94140
# Velocity P-wave (km/s) = 7.44944 7.81480 7.63430
#
# Compressibility (1/GPa) = 0.01013453
#
# Stress axis : x y z
#
# Youngs Moduli (GPa) = 54.86146 105.33166 111.34728
#
# Poissons Ratio (x) = 0.68919 0.68241
# Poissons Ratio (y) = 0.35896 0.06817
# Poissons Ratio (z) = 0.33623 0.06449
#
# Static dielectric constant tensor:
#      x y z
#    x 2.228050 0.000000 0.066970 
#    y 0.000000 2.314700 0.000000 
#    z 0.066970 0.000000 2.181990 
# 
# From -- ./inp_files/258279.got.cif
#   From: 2010.05.17/outbox.cif.g08.bks.cpg/sg15_130_cif.got.tgz:258279.got - 2010.06.03 18:47:42.
