data_PCOD9295887
_publ_section_title
;
Structure prediction by ZEFSAII (Michael W. Deem and Ramdas Pophale) SiO2 
 PCOD9295887
Probable space group: C 2/C
;
_chemical_formula_sum "Si O2"
_cell_formula_units_Z 40
_cell_length_a 25.760785
_cell_length_b 9.087388
_cell_length_c 20.757312
_cell_angle_alpha 90.000000
_cell_angle_beta 159.912661
_cell_angle_gamma 90.000000
_cell_volume 1668.920082
_symmetry_space_group_name_H-M "C 2/C"
_symmetry_group_IT_number 15
_symmetry_cell_setting 'monoclinic'
loop_
_space_group_symop_operation_xyz
x,y,z
-x,y,1/2-z
-x,-y,-z
x,-y,1/2+z
1/2+x,1/2+y,z
1/2-x,1/2+y,1/2-z
1/2-x,1/2-y,-z
1/2+x,1/2-y,1/2+z
loop_
_atom_site_type_symbol
_atom_site_label
_atom_site_fract_x
_atom_site_fract_y
_atom_site_fract_z
Si Si1 0.519648 0.414547 0.840333
Si Si2 0.690457 0.467964 0.304901
Si Si3 0.315183 0.220736 0.360641
Si Si4 0.500632 0.205060 0.049404
Si Si5 0.765043 0.185450 0.445550
O O1 0.500000 0.329708 0.750000
O O2 0.361409 0.459801 0.688215
O O3 0.603317 0.325130 0.993289
O O4 0.616713 0.558400 0.932746
O O5 0.822463 0.305537 0.334448
O O6 0.746574 0.588297 0.321626
O O7 0.541902 0.378968 0.107700
O O8 0.426647 0.165538 0.434844
O O9 0.604275 0.136084 0.226565
O O10 0.304442 0.165689 0.952129
O O11 0.750000 0.250000 0.500000
#
# Coordination Sequence:
#
# PCOD9295887 Si02
#       5
#     8   8   8   8   8
#     4  12  24  46  72  97 144 185 232 294 351 408
#     4  10  24  46  69  98 143 179 231 291 343 412
#     4  12  24  45  70 106 140 186 229 289 356 410
#     4  10  24  41  73  97 141 177 234 283 349 406
#     4  10  23  43  71  98 130 187 233 282 346 411
#
# _framework density 23.967596
#
# number of rings (size 3 to 8) (size 9 to 14) (size 15 to 20)
#    1.200    0.000    4.000    1.800    2.800    1.600 
#    3.600    1.000    0.000    0.000    0.000    0.000 
#    0.000    0.000    0.000    0.000    0.000    0.000 
#
# Total GULP energy -111768.323227 kJ/mol
# GULP energy per Si atom -5588.416161 kJ/mol
# Density = 2.391304 g / cm^3
# Si number density = 23.967596 Si / 1000 Ang^3
#
#
#
# Elastic Constant Matrix: (Units=GPa)
#
#
# Indices 1 2 3 4 5 6 
#
# 1 160.1786 12.5000 25.8937 0.0000 -16.6329 0.0000
# 2 12.5000 39.9939 7.4490 0.0001 -10.0820 0.0001
# 3 25.8937 7.4490 84.3871 0.0001 -11.8141 0.0000
# 4 0.0000 0.0001 0.0001 19.4267 0.0000 -8.7523
# 5 -16.6329 -10.0820 -11.8141 0.0000 41.3447 0.0000
# 6 0.0000 0.0001 0.0000 -8.7523 0.0000 32.6035
#
#
#
# Elastic Compliance Matrix: (Units=1/GPa)
#
#
# Indices 1 2 3 4 5 6 
#
# 1 0.006823 -0.001327 -0.001706 0.000000 0.001934 0.000000
# 2 -0.001327 0.027084 -0.001181 0.000000 0.005733 0.000000
# 3 -0.001706 -0.001181 0.012856 0.000000 0.002699 0.000000
# 4 0.000000 0.000000 0.000000 0.058558 0.000000 0.015720
# 5 0.001934 0.005733 0.002699 0.000000 0.027134 0.000000
# 6 0.000000 0.000000 0.000000 0.015720 0.000000 0.034891
#
#
# Mechanical properties :
#
#
# Convention : Reuss Voigt Hill
#
# Bulk Modulus (GPa) = 26.08593 41.80501 33.94547
# Shear Modulus (GPa) = 26.51784 34.58943 30.55364
#
# Velocity S-wave (km/s) = 3.32987 3.80304 3.57429
# Velocity P-wave (km/s) = 5.06868 6.06335 5.58819
#
# Compressibility (1/GPa) = 0.03833484
#
# Stress axis : x y z
#
# Youngs Moduli (GPa) = 146.55941 36.92239 77.78663
#
# Poissons Ratio (x) = 0.04901 0.13268
# Poissons Ratio (y) = 0.19454 0.09185
# Poissons Ratio (z) = 0.24999 0.04360
#
# Static dielectric constant tensor:
#      x y z
#    x 2.049050 0.000000 -0.054490 
#    y 0.000000 1.944760 0.000000 
#    z -0.054490 0.000000 1.955940 
# 
# From -- ./inp_files/252312.got.cif
#   From: 2010.05.17/outbox.cif.g08.bks.cpg/sg15_127_cif.got.tgz:252312.got - 2010.06.03 18:47:42.
