data_PCOD9295872
_publ_section_title
;
Structure prediction by ZEFSAII (Michael W. Deem and Ramdas Pophale) SiO2 
 PCOD9295872
Probable space group: C 2/C
;
_chemical_formula_sum "Si O2"
_cell_formula_units_Z 48
_cell_length_a 5.329396
_cell_length_b 22.189179
_cell_length_c 16.997374
_cell_angle_alpha 90.000000
_cell_angle_beta 76.318746
_cell_angle_gamma 90.000000
_cell_volume 1952.991856
_symmetry_space_group_name_H-M "C 2/C"
_symmetry_group_IT_number 15
_symmetry_cell_setting 'monoclinic'
loop_
_space_group_symop_operation_xyz
x,y,z
-x,y,1/2-z
-x,-y,-z
x,-y,1/2+z
1/2+x,1/2+y,z
1/2-x,1/2+y,1/2-z
1/2-x,1/2-y,-z
1/2+x,1/2-y,1/2+z
loop_
_atom_site_type_symbol
_atom_site_label
_atom_site_fract_x
_atom_site_fract_y
_atom_site_fract_z
Si Si1 0.500000 0.066389 0.250000
Si Si2 0.572588 0.206920 0.426084
Si Si3 0.500000 0.143229 0.750000
Si Si4 0.188923 0.670065 0.578703
Si Si5 0.746162 0.465434 0.183808
Si Si6 0.862944 0.148350 0.130421
Si Si7 0.944813 0.934467 0.471495
O O1 0.739684 0.109141 0.209555
O O2 0.448659 0.019562 0.182196
O O3 0.600741 0.277150 0.445523
O O4 0.514763 0.175276 0.514589
O O5 0.354526 0.196888 0.377883
O O6 0.851008 0.176903 0.381710
O O7 0.572195 0.183731 0.671501
O O8 0.698493 0.095901 0.772941
O O9 0.307883 0.603818 0.576320
O O10 0.500000 0.490184 0.250000
O O11 0.717311 0.447015 0.095547
O O12 0.865127 0.104704 0.053371
O O13 0.000000 0.000000 0.500000
#
# Coordination Sequence:
#
# PCOD9295872 Si02
#       7
#     4   8   4   8   8   8   8
#     4  11  28  40  68 102 144 186 237 300 362 436
#     4  10  25  48  72 100 145 189 242 294 351 430
#     4  11  22  40  66 104 134 186 227 302 348 424
#     4  10  23  43  71 106 138 188 242 295 359 423
#     4  11  23  41  64  99 146 178 233 292 367 431
#     4  11  26  46  71 102 139 192 235 296 357 430
#     4  11  24  43  72 104 139 187 235 290 368 435
#
# _framework density 24.577673999999998
#
# number of rings (size 3 to 8) (size 9 to 14) (size 15 to 20)
#    0.000    1.333    1.667    2.000    9.333    9.333 
#    0.000    0.000    0.000    0.000    0.000    0.000 
#    0.000    0.000    0.000    0.000    0.000    0.000 
#
# Total GULP energy -134103.298713 kJ/mol
# GULP energy per Si atom -5587.637446 kJ/mol
# Density = 2.452173 g / cm^3
# Si number density = 24.577674 Si / 1000 Ang^3
#
#
#
# Elastic Constant Matrix: (Units=GPa)
#
#
# Indices 1 2 3 4 5 6 
#
# 1 80.9705 18.4074 25.9324 0.0000 7.6727 0.0000
# 2 18.4074 99.8498 13.7071 0.0000 5.3217 0.0000
# 3 25.9324 13.7071 92.8841 0.0000 -5.0479 0.0000
# 4 0.0000 0.0000 0.0000 34.9467 0.0000 -5.1260
# 5 7.6727 5.3217 -5.0479 0.0000 28.9369 0.0000
# 6 0.0000 0.0000 0.0000 -5.1260 0.0000 19.7564
#
#
#
# Elastic Compliance Matrix: (Units=1/GPa)
#
#
# Indices 1 2 3 4 5 6 
#
# 1 0.014452 -0.001895 -0.003982 0.000000 -0.004178 0.000000
# 2 -0.001895 0.010607 -0.001126 0.000000 -0.001645 0.000000
# 3 -0.003982 -0.001126 0.012229 0.000000 0.003396 0.000000
# 4 0.000000 0.000000 0.000000 0.029747 0.000000 0.007718
# 5 -0.004178 -0.001645 0.003396 0.000000 0.036561 0.000000
# 6 0.000000 0.000000 0.000000 0.007718 0.000000 0.052619
#
#
# Mechanical properties :
#
#
# Convention : Reuss Voigt Hill
#
# Bulk Modulus (GPa) = 42.95212 43.31092 43.13152
# Shear Modulus (GPa) = 28.09294 31.10518 29.59906
#
# Velocity S-wave (km/s) = 3.38454 3.56137 3.47408
# Velocity P-wave (km/s) = 5.72603 5.87975 5.80340
#
# Compressibility (1/GPa) = 0.02328174
#
# Stress axis : x y z
#
# Youngs Moduli (GPa) = 69.19301 94.28152 81.77534
#
# Poissons Ratio (x) = 0.17866 0.32566
# Poissons Ratio (y) = 0.13111 0.09204
# Poissons Ratio (z) = 0.27555 0.10612
#
# Static dielectric constant tensor:
#      x y z
#    x 2.115130 0.000000 -0.116740 
#    y 0.000000 1.998080 0.000000 
#    z -0.116740 0.000000 2.081290 
# 
# From -- ./inp_files/185270.got.cif
#   From: 2010.05.17/outbox.cif.g08.bks.cpg/sg15_93_cif.got.tgz:185270.got - 2010.06.03 18:47:42.
