data_PCOD9295259
_publ_section_title
;
Structure prediction by ZEFSAII (Michael W. Deem and Ramdas Pophale) SiO2 
 PCOD9295259
Probable space group: C 2/C
;
_chemical_formula_sum "Si O2"
_cell_formula_units_Z 44
_cell_length_a 24.014392
_cell_length_b 9.482225
_cell_length_c 13.071023
_cell_angle_alpha 90.000000
_cell_angle_beta 143.896384
_cell_angle_gamma 90.000000
_cell_volume 1753.836355
_symmetry_space_group_name_H-M "C 2/C"
_symmetry_group_IT_number 15
_symmetry_cell_setting 'monoclinic'
loop_
_space_group_symop_operation_xyz
x,y,z
-x,y,1/2-z
-x,-y,-z
x,-y,1/2+z
1/2+x,1/2+y,z
1/2-x,1/2+y,1/2-z
1/2-x,1/2-y,-z
1/2+x,1/2-y,1/2+z
loop_
_atom_site_type_symbol
_atom_site_label
_atom_site_fract_x
_atom_site_fract_y
_atom_site_fract_z
Si Si1 0.712348 0.189706 0.103594
Si Si2 0.847357 0.140775 0.664556
Si Si3 0.000000 0.873173 0.250000
Si Si4 0.295816 0.069536 0.194854
Si Si5 0.429959 0.609869 0.993007
Si Si6 0.606956 0.821791 0.238129
O O1 0.723978 0.079211 0.214108
O O2 0.811900 0.238999 0.205314
O O3 0.656091 0.316206 0.074999
O O4 0.644874 0.149774 0.909195
O O5 0.918448 0.208876 0.687120
O O6 0.787864 0.028815 0.509221
O O7 0.803785 0.271239 0.662360
O O8 0.899557 0.063511 0.834816
O O9 0.040795 0.978095 0.395501
O O10 0.386881 0.974452 0.307787
O O11 0.511488 0.730671 0.102526
#
# Coordination Sequence:
#
# PCOD9295259 Si02
#       6
#     8   8   4   8   8   8
#     4  10  23  42  67  96 133 179 228 268 342 405
#     4  10  25  41  64  99 135 176 219 283 346 398
#     4  12  22  42  68  94 130 176 218 284 328 410
#     4  10  24  45  64  98 141 171 225 282 342 405
#     4  11  23  45  66 101 132 178 236 276 331 413
#     4  11  23  43  71  99 130 185 228 277 340 405
#
# _framework density 25.087859000000002
#
# number of rings (size 3 to 8) (size 9 to 14) (size 15 to 20)
#    0.000    1.455    1.818    1.636    5.091    8.727 
#    3.273    0.000    0.000    0.000    0.000    0.000 
#    0.000    0.000    0.000    0.000    0.000    0.000 
#
# Total GULP energy -122935.406157 kJ/mol
# GULP energy per Si atom -5587.973007 kJ/mol
# Density = 2.503076 g / cm^3
# Si number density = 25.087859 Si / 1000 Ang^3
#
#
#
# Elastic Constant Matrix: (Units=GPa)
#
#
# Indices 1 2 3 4 5 6 
#
# 1 148.4166 25.9242 59.5401 0.0000 -24.9649 0.0000
# 2 25.9242 56.4580 32.7939 0.0000 -4.6477 0.0000
# 3 59.5401 32.7939 133.1322 0.0000 -31.5744 0.0000
# 4 0.0000 0.0000 0.0000 15.0818 0.0000 -2.7348
# 5 -24.9649 -4.6477 -31.5744 0.0000 49.7822 0.0000
# 6 0.0000 0.0000 0.0000 -2.7348 0.0000 52.5022
#
#
#
# Elastic Compliance Matrix: (Units=1/GPa)
#
#
# Indices 1 2 3 4 5 6 
#
# 1 0.008622 -0.002160 -0.002762 0.000000 0.002370 0.000000
# 2 -0.002160 0.021310 -0.004789 0.000000 -0.002131 0.000000
# 3 -0.002762 -0.004789 0.011172 0.000000 0.005254 0.000000
# 4 0.000000 0.000000 0.000000 0.066937 0.000000 0.003487
# 5 0.002370 -0.002131 0.005254 0.000000 0.024410 0.000000
# 6 0.000000 0.000000 0.000000 0.003487 0.000000 0.019228
#
#
# Mechanical properties :
#
#
# Convention : Reuss Voigt Hill
#
# Bulk Modulus (GPa) = 46.11746 63.83591 54.97669
# Shear Modulus (GPa) = 28.03842 38.12316 33.08079
#
# Velocity S-wave (km/s) = 3.34669 3.90242 3.63519
# Velocity P-wave (km/s) = 5.77547 6.76796 6.29132
#
# Compressibility (1/GPa) = 0.02168376
#
# Stress axis : x y z
#
# Youngs Moduli (GPa) = 115.98748 46.92616 89.50914
#
# Poissons Ratio (x) = 0.10134 0.24720
# Poissons Ratio (y) = 0.25048 0.42864
# Poissons Ratio (z) = 0.32032 0.22472
#
# Static dielectric constant tensor:
#      x y z
#    x 1.996970 0.000000 0.115120 
#    y 0.000000 2.091070 0.000000 
#    z 0.115120 0.000000 2.270060 
# 
# From -- ./inp_files/118101.got.cif
#   From: 2010.05.17/outbox.cif.g08.bks.cpg/sg15_60_cif.got.tgz:118101.got - 2010.06.03 18:47:42.
