data_PCOD9295980
_publ_section_title
;
Structure prediction by ZEFSAII (Michael W. Deem and Ramdas Pophale) SiO2 
 PCOD9295980
Probable space group: C 2/C
;
_chemical_formula_sum "Si O2"
_cell_formula_units_Z 48
_cell_length_a 29.314805
_cell_length_b 7.296401
_cell_length_c 11.600905
_cell_angle_alpha 90.000000
_cell_angle_beta 53.055154
_cell_angle_gamma 90.000000
_cell_volume 1983.128730
_symmetry_space_group_name_H-M "C 2/C"
_symmetry_group_IT_number 15
_symmetry_cell_setting 'monoclinic'
loop_
_space_group_symop_operation_xyz
x,y,z
-x,y,1/2-z
-x,-y,-z
x,-y,1/2+z
1/2+x,1/2+y,z
1/2-x,1/2+y,1/2-z
1/2-x,1/2-y,-z
1/2+x,1/2-y,1/2+z
loop_
_atom_site_type_symbol
_atom_site_label
_atom_site_fract_x
_atom_site_fract_y
_atom_site_fract_z
Si Si1 0.852764 0.781190 0.117042
Si Si2 0.513371 0.687648 0.098341
Si Si3 0.475057 0.736039 0.908336
Si Si4 0.759792 0.354964 0.102093
Si Si5 0.150466 0.659951 0.860451
Si Si6 0.685477 0.789759 0.063271
O O1 0.805102 0.891074 0.260059
O O2 0.844667 0.562841 0.154579
O O3 0.919103 0.813731 0.030593
O O4 0.838353 0.823583 0.005906
O O5 0.500000 0.758199 0.250000
O O6 0.499420 0.470885 0.126150
O O7 0.486682 0.789202 0.026429
O O8 0.500000 0.817116 0.750000
O O9 0.407299 0.767110 0.995348
O O10 0.792339 0.268188 0.162164
O O11 0.750000 0.250000 0.000000
O O12 0.806450 0.505904 0.996376
O O13 0.148475 0.723895 0.731955
O O14 0.750000 0.750000 0.000000
#
# Coordination Sequence:
#
# PCOD9295980 Si02
#       6
#     8   8   8   8   8   8
#     4  11  24  40  65  94 127 168 209 262 319 376
#     4  10  23  44  63  91 127 167 217 262 321 377
#     4  10  24  42  65  93 123 168 217 266 316 377
#     4  11  24  41  61  94 133 162 206 259 321 379
#     4  11  24  41  64  95 128 166 214 261 316 379
#     4  11  23  40  62  94 129 166 212 253 315 383
#
# _framework density 24.204177000000001
#
# number of rings (size 3 to 8) (size 9 to 14) (size 15 to 20)
#    0.000    1.333    3.333    1.000    4.667    2.667 
#    0.000    0.000    0.000    0.000    0.000    0.000 
#    0.000    0.000    0.000    0.000    0.000    0.000 
#
# Total GULP energy -133793.160441 kJ/mol
# GULP energy per Si atom -5574.715018 kJ/mol
# Density = 2.414909 g / cm^3
# Si number density = 24.204177 Si / 1000 Ang^3
#
#
#
# Elastic Constant Matrix: (Units=GPa)
#
#
# Indices 1 2 3 4 5 6 
#
# 1 112.5402 -15.7398 40.9930 0.0000 -1.0112 0.0000
# 2 -15.7398 65.3219 -1.3275 0.0000 12.9312 0.0000
# 3 40.9930 -1.3275 188.3148 0.0000 5.6441 0.0000
# 4 0.0000 0.0000 0.0000 8.5183 0.0000 -8.7907
# 5 -1.0112 12.9312 5.6441 0.0000 53.8232 0.0000
# 6 0.0000 0.0000 0.0000 -8.7907 0.0000 15.8711
#
#
#
# Elastic Compliance Matrix: (Units=1/GPa)
#
#
# Indices 1 2 3 4 5 6 
#
# 1 0.010005 0.002399 -0.002156 0.000000 -0.000162 0.000000
# 2 0.002399 0.016658 -0.000287 0.000000 -0.003927 0.000000
# 3 -0.002156 -0.000287 0.005795 0.000000 -0.000579 0.000000
# 4 0.000000 0.000000 0.000000 0.274024 0.000000 0.151777
# 5 -0.000162 -0.003927 -0.000579 0.000000 0.019581 0.000000
# 6 0.000000 0.000000 0.000000 0.151777 0.000000 0.147074
#
#
# Mechanical properties :
#
#
# Convention : Reuss Voigt Hill
#
# Bulk Modulus (GPa) = 30.89253 46.00313 38.44783
# Shear Modulus (GPa) = 10.33024 38.45927 24.39476
#
# Velocity S-wave (km/s) = 2.06814 3.99049 3.17815
# Velocity P-wave (km/s) = 4.30046 6.34662 5.42096
#
# Compressibility (1/GPa) = 0.03237029
#
# Stress axis : x y z
#
# Youngs Moduli (GPa) = 99.94811 60.02955 172.56381
#
# Poissons Ratio (x) = -0.14402 0.37208
# Poissons Ratio (y) = -0.23979 0.04955
# Poissons Ratio (z) = 0.21551 0.01724
#
# Static dielectric constant tensor:
#      x y z
#    x 1.978270 0.000000 0.081440 
#    y 0.000000 1.937210 0.000000 
#    z 0.081440 0.000000 1.827870 
# 
# From -- ./inp_files/121378.got.cif
#   From: 2010.05.17/outbox.cif.g08.bks.cpg/sg15_61_cif.got.tgz:121378.got - 2010.06.03 18:47:42.
