data_PCOD9295961
_publ_section_title
;
Structure prediction by ZEFSAII (Michael W. Deem and Ramdas Pophale) SiO2 
 PCOD9295961
Probable space group: C 2/C
;
_chemical_formula_sum "Si O2"
_cell_formula_units_Z 40
_cell_length_a 10.433659
_cell_length_b 9.284359
_cell_length_c 17.912685
_cell_angle_alpha 90.000000
_cell_angle_beta 67.969548
_cell_angle_gamma 90.000000
_cell_volume 1608.502660
_symmetry_space_group_name_H-M "C 2/C"
_symmetry_group_IT_number 15
_symmetry_cell_setting 'monoclinic'
loop_
_space_group_symop_operation_xyz
x,y,z
-x,y,1/2-z
-x,-y,-z
x,-y,1/2+z
1/2+x,1/2+y,z
1/2-x,1/2+y,1/2-z
1/2-x,1/2-y,-z
1/2+x,1/2-y,1/2+z
loop_
_atom_site_type_symbol
_atom_site_label
_atom_site_fract_x
_atom_site_fract_y
_atom_site_fract_z
Si Si1 0.839860 0.530777 0.444875
Si Si2 0.124943 0.436752 0.902270
Si Si3 0.920327 0.848712 0.001964
Si Si4 0.828194 0.831075 0.643372
Si Si5 0.157404 0.068119 0.740186
O O1 0.083887 0.724300 0.435512
O O2 0.738077 0.395013 0.470381
O O3 0.760147 0.648975 0.413847
O O4 0.994705 0.517297 0.379988
O O5 0.135594 0.543709 0.971429
O O6 0.270633 0.453737 0.831282
O O7 0.013271 0.795620 0.912268
O O8 0.000000 0.000000 0.000000
O O9 0.749394 0.711296 0.709272
O O10 0.831106 0.986494 0.683587
O O11 0.000000 0.095006 0.750000
#
# Coordination Sequence:
#
# PCOD9295961 Si02
#       5
#     8   8   8   8   8
#     4  10  23  43  77 106 147 189 259 317 369 448
#     4  11  24  44  76 113 148 198 258 315 383 441
#     4  10  23  44  75 110 144 195 256 314 372 447
#     4  11  27  48  75 112 151 207 249 313 390 450
#     4  12  30  50  73 110 160 205 253 315 385 458
#
# _framework density 24.867849
#
# number of rings (size 3 to 8) (size 9 to 14) (size 15 to 20)
#    0.000    1.200    0.000    4.200    8.400    8.800 
#    0.000    0.000    0.000    0.000    0.000    0.000 
#    0.000    0.000    0.000    0.000    0.000    0.000 
#
# Total GULP energy -111661.101836 kJ/mol
# GULP energy per Si atom -5583.055092 kJ/mol
# Density = 2.481125 g / cm^3
# Si number density = 24.867849 Si / 1000 Ang^3
#
#
#
# Elastic Constant Matrix: (Units=GPa)
#
#
# Indices 1 2 3 4 5 6 
#
# 1 146.1015 45.5347 34.5302 0.0000 -35.2006 0.0000
# 2 45.5347 164.7411 34.8721 0.0000 -11.9889 0.0000
# 3 34.5302 34.8721 82.3212 0.0000 -23.3333 0.0000
# 4 0.0000 0.0000 0.0000 55.7561 0.0000 -8.3797
# 5 -35.2006 -11.9889 -23.3333 0.0000 49.4552 0.0000
# 6 0.0000 0.0000 0.0000 -8.3797 0.0000 39.1661
#
#
#
# Elastic Compliance Matrix: (Units=1/GPa)
#
#
# Indices 1 2 3 4 5 6 
#
# 1 0.009036 -0.001788 -0.001538 0.000000 0.005272 0.000000
# 2 -0.001788 0.007027 -0.002429 0.000000 -0.000716 0.000000
# 3 -0.001538 -0.002429 0.015405 0.000000 0.005584 0.000000
# 4 0.000000 0.000000 0.000000 0.018531 0.000000 0.003965
# 5 0.005272 -0.000716 0.005584 0.000000 0.026434 0.000000
# 6 0.000000 0.000000 0.000000 0.003965 0.000000 0.026381
#
#
# Mechanical properties :
#
#
# Convention : Reuss Voigt Hill
#
# Bulk Modulus (GPa) = 50.11171 69.22643 59.66907
# Shear Modulus (GPa) = 41.33063 47.42395 44.37729
#
# Velocity S-wave (km/s) = 4.08120 4.37170 4.22895
# Velocity P-wave (km/s) = 6.51177 7.30620 6.92040
#
# Compressibility (1/GPa) = 0.01995541
#
# Stress axis : x y z
#
# Youngs Moduli (GPa) = 110.67305 142.31764 64.91546
#
# Poissons Ratio (x) = 0.25449 0.09986
# Poissons Ratio (y) = 0.19790 0.15770
# Poissons Ratio (z) = 0.17024 0.34573
#
# Static dielectric constant tensor:
#      x y z
#    x 2.000630 0.000000 -0.017940 
#    y 0.000000 2.044990 0.000000 
#    z -0.017940 0.000000 2.085920 
# 
# From -- ./inp_files/229774.got.cif
#   From: 2010.05.17/outbox.cif.g08.bks.cpg/sg15_115_cif.got.tgz:229774.got - 2010.06.03 18:47:42.
