data_PCOD9295595
_publ_section_title
;
Structure prediction by ZEFSAII (Michael W. Deem and Ramdas Pophale) SiO2 
 PCOD9295595
Probable space group: C 2/C
;
_chemical_formula_sum "Si O2"
_cell_formula_units_Z 36
_cell_length_a 30.325779
_cell_length_b 7.706342
_cell_length_c 15.171330
_cell_angle_alpha 90.000000
_cell_angle_beta 148.973739
_cell_angle_gamma 90.000000
_cell_volume 1827.487212
_symmetry_space_group_name_H-M "C 2/C"
_symmetry_group_IT_number 15
_symmetry_cell_setting 'monoclinic'
loop_
_space_group_symop_operation_xyz
x,y,z
-x,y,1/2-z
-x,-y,-z
x,-y,1/2+z
1/2+x,1/2+y,z
1/2-x,1/2+y,1/2-z
1/2-x,1/2-y,-z
1/2+x,1/2-y,1/2+z
loop_
_atom_site_type_symbol
_atom_site_label
_atom_site_fract_x
_atom_site_fract_y
_atom_site_fract_z
Si Si1 0.006086 0.136659 0.589485
Si Si2 0.172520 0.680657 0.309310
Si Si3 0.500000 0.591824 0.250000
Si Si4 0.833045 0.648319 0.807821
Si Si5 0.336099 0.801179 0.905707
O O1 0.916246 0.235157 0.442846
O O2 0.082996 0.268293 0.699972
O O3 0.022806 0.030524 0.707036
O O4 0.000000 0.000000 0.500000
O O5 0.250000 0.750000 0.500000
O O6 0.177945 0.475571 0.296558
O O7 0.175268 0.762496 0.215379
O O8 0.580886 0.710256 0.412967
O O9 0.747863 0.754096 0.683332
O O10 0.846085 0.507193 0.908692
#
# Coordination Sequence:
#
# PCOD9295595 Si02
#       5
#     8   8   4   8   8
#     4  12  24  44  68  98 138 179 228 280 337 409
#     4  10  23  43  67  98 137 174 228 277 341 402
#     4  12  24  44  70  98 136 182 228 288 338 398
#     4  10  23  44  67  97 137 177 225 276 341 406
#     4  10  23  43  65  99 133 173 231 269 345 396
#
# _framework density 19.699179999999998
#
# number of rings (size 3 to 8) (size 9 to 14) (size 15 to 20)
#    1.333    0.000    2.222    3.333    3.111    0.889 
#    4.000    2.222    0.000    0.000    0.000    0.000 
#    0.000    0.000    0.000    0.000    0.000    0.000 
#
# Total GULP energy -100501.863272 kJ/mol
# GULP energy per Si atom -5583.436848 kJ/mol
# Density = 1.965434 g / cm^3
# Si number density = 19.699180 Si / 1000 Ang^3
#
#
#
# Elastic Constant Matrix: (Units=GPa)
#
#
# Indices 1 2 3 4 5 6 
#
# 1 115.1613 58.0679 70.5387 0.0000 26.6495 0.0000
# 2 58.0679 108.4418 54.6295 0.0000 15.9636 0.0000
# 3 70.5387 54.6295 152.8534 0.0000 21.8360 0.0000
# 4 0.0000 0.0000 0.0000 22.2531 0.0000 7.3010
# 5 26.6495 15.9636 21.8360 0.0000 50.1472 0.0000
# 6 0.0000 0.0000 0.0000 7.3010 0.0000 51.3174
#
#
#
# Elastic Compliance Matrix: (Units=1/GPa)
#
#
# Indices 1 2 3 4 5 6 
#
# 1 0.015039 -0.005153 -0.004469 0.000000 -0.004406 0.000000
# 2 -0.005153 0.013194 -0.002270 0.000000 -0.000473 0.000000
# 3 -0.004469 -0.002270 0.009569 0.000000 -0.001069 0.000000
# 4 0.000000 0.000000 0.000000 0.047138 0.000000 -0.006706
# 5 -0.004406 -0.000473 -0.001069 0.000000 0.022899 0.000000
# 6 0.000000 0.000000 0.000000 -0.006706 0.000000 0.020441
#
#
# Mechanical properties :
#
#
# Convention : Reuss Voigt Hill
#
# Bulk Modulus (GPa) = 71.33971 82.54763 76.94367
# Shear Modulus (GPa) = 31.90108 37.62489 34.76299
#
# Velocity S-wave (km/s) = 4.02856 4.37506 4.20538
# Velocity P-wave (km/s) = 7.61132 8.21685 7.91988
#
# Compressibility (1/GPa) = 0.01401744
#
# Stress axis : x y z
#
# Youngs Moduli (GPa) = 66.49569 75.79213 104.50915
#
# Poissons Ratio (x) = 0.39055 0.46705
# Poissons Ratio (y) = 0.34265 0.23723
# Poissons Ratio (z) = 0.29717 0.17204
#
# Static dielectric constant tensor:
#      x y z
#    x 1.680180 0.000000 -0.025250 
#    y 0.000000 1.705830 0.000000 
#    z -0.025250 0.000000 1.643840 
# 
# From -- ./inp_files/150340.got.cif
#   From: 2010.05.17/outbox.cif.g08.bks.cpg/sg15_76_cif.got.tgz:150340.got - 2010.06.03 18:47:42.
