data_PCOD9295938
_publ_section_title
;
Structure prediction by ZEFSAII (Michael W. Deem and Ramdas Pophale) SiO2 
 PCOD9295938
Probable space group: C 2/C
;
_chemical_formula_sum "Si O2"
_cell_formula_units_Z 44
_cell_length_a 10.262274
_cell_length_b 18.137460
_cell_length_c 13.192213
_cell_angle_alpha 90.000000
_cell_angle_beta 130.524709
_cell_angle_gamma 90.000000
_cell_volume 1866.479449
_symmetry_space_group_name_H-M "C 2/C"
_symmetry_group_IT_number 15
_symmetry_cell_setting 'monoclinic'
loop_
_space_group_symop_operation_xyz
x,y,z
-x,y,1/2-z
-x,-y,-z
x,-y,1/2+z
1/2+x,1/2+y,z
1/2-x,1/2+y,1/2-z
1/2-x,1/2-y,-z
1/2+x,1/2-y,1/2+z
loop_
_atom_site_type_symbol
_atom_site_label
_atom_site_fract_x
_atom_site_fract_y
_atom_site_fract_z
Si Si1 0.662997 0.549561 0.100525
Si Si2 0.490859 0.348828 0.135753
Si Si3 0.500000 0.948331 0.250000
Si Si4 0.374929 0.318890 0.780717
Si Si5 0.383877 0.158898 0.858039
Si Si6 0.480957 0.180184 0.123216
O O1 0.620614 0.597356 0.177833
O O2 0.833706 0.500853 0.179995
O O3 0.500000 0.500000 0.000000
O O4 0.640659 0.612380 0.004561
O O5 0.500000 0.385792 0.250000
O O6 0.693756 0.349677 0.211448
O O7 0.427893 0.264846 0.114184
O O8 0.496765 0.893972 0.150006
O O9 0.500000 0.312491 0.750000
O O10 0.425830 0.246553 0.872854
O O11 0.170814 0.311772 0.670910
O O12 0.387839 0.141458 0.980324
O O13 0.500000 0.150119 0.250000
#
# Coordination Sequence:
#
# PCOD9295938 Si02
#       6
#     8   8   4   8   8   8
#     4  12  27  50  71 110 167 203 261 328 413 477
#     4  10  23  43  74 107 149 201 251 328 399 468
#     4  12  28  48  80 120 158 214 264 336 406 478
#     4  11  26  44  77 112 151 207 270 330 399 472
#     4  11  23  47  78 113 152 206 271 329 391 476
#     4  10  24  43  77 115 150 200 268 334 393 474
#
# _framework density 23.573792999999998
#
# number of rings (size 3 to 8) (size 9 to 14) (size 15 to 20)
#    0.000    1.091    4.545    0.000    6.364    3.636 
#    0.000    1.818    0.000    0.000    0.000    0.000 
#    0.000    0.000    0.000    0.000    0.000    0.000 
#
# Total GULP energy -122637.021725 kJ/mol
# GULP energy per Si atom -5574.410078 kJ/mol
# Density = 2.352014 g / cm^3
# Si number density = 23.573793 Si / 1000 Ang^3
#
#
#
# Elastic Constant Matrix: (Units=GPa)
#
#
# Indices 1 2 3 4 5 6 
#
# 1 137.1915 25.1532 37.3475 0.0000 -6.6349 0.0000
# 2 25.1532 117.1293 27.0901 0.0000 6.7980 0.0000
# 3 37.3475 27.0901 108.3730 0.0000 -2.8781 0.0000
# 4 0.0000 0.0000 0.0000 50.1083 0.0000 2.5404
# 5 -6.6349 6.7980 -2.8781 0.0000 33.2096 0.0000
# 6 0.0000 0.0000 0.0000 2.5404 0.0000 38.5304
#
#
#
# Elastic Compliance Matrix: (Units=1/GPa)
#
#
# Indices 1 2 3 4 5 6 
#
# 1 0.008287 -0.001304 -0.002485 0.000000 0.001707 0.000000
# 2 -0.001304 0.009409 -0.001965 0.000000 -0.002357 0.000000
# 3 -0.002485 -0.001965 0.010597 0.000000 0.000824 0.000000
# 4 0.000000 0.000000 0.000000 0.020024 0.000000 -0.001320
# 5 0.001707 -0.002357 0.000824 0.000000 0.031007 0.000000
# 6 0.000000 0.000000 0.000000 -0.001320 0.000000 0.026041
#
#
# Mechanical properties :
#
#
# Convention : Reuss Voigt Hill
#
# Bulk Modulus (GPa) = 59.57636 60.20837 59.89237
# Shear Modulus (GPa) = 40.82752 42.57655 41.70204
#
# Velocity S-wave (km/s) = 4.16613 4.25443 4.21051
# Velocity P-wave (km/s) = 6.96199 7.05191 7.00709
#
# Compressibility (1/GPa) = 0.01678518
#
# Stress axis : x y z
#
# Youngs Moduli (GPa) = 120.66920 106.28225 94.36864
#
# Poissons Ratio (x) = 0.13860 0.23447
# Poissons Ratio (y) = 0.15736 0.18545
# Poissons Ratio (z) = 0.29981 0.20886
#
# Static dielectric constant tensor:
#      x y z
#    x 2.182840 0.000000 0.034860 
#    y 0.000000 1.991400 0.000000 
#    z 0.034860 0.000000 1.963390 
# 
# From -- ./inp_files/145837.got.cif
#   From: 2010.05.17/outbox.cif.g08.bks.cpg/sg15_73_cif.got.tgz:145837.got - 2010.06.03 18:47:42.
