data_PCOD9295907
_publ_section_title
;
Structure prediction by ZEFSAII (Michael W. Deem and Ramdas Pophale) SiO2 
 PCOD9295907
Probable space group: C 2/C
;
_chemical_formula_sum "Si O2"
_cell_formula_units_Z 52
_cell_length_a 14.646896
_cell_length_b 8.742637
_cell_length_c 30.037560
_cell_angle_alpha 90.000000
_cell_angle_beta 142.688119
_cell_angle_gamma 90.000000
_cell_volume 2331.498806
_symmetry_space_group_name_H-M "C 2/C"
_symmetry_group_IT_number 15
_symmetry_cell_setting 'monoclinic'
loop_
_space_group_symop_operation_xyz
x,y,z
-x,y,1/2-z
-x,-y,-z
x,-y,1/2+z
1/2+x,1/2+y,z
1/2-x,1/2+y,1/2-z
1/2-x,1/2-y,-z
1/2+x,1/2-y,1/2+z
loop_
_atom_site_type_symbol
_atom_site_label
_atom_site_fract_x
_atom_site_fract_y
_atom_site_fract_z
Si Si1 0.432508 0.008672 0.178333
Si Si2 0.403415 0.048737 0.504191
Si Si3 0.567070 0.127329 0.146511
Si Si4 0.398801 0.418715 0.752878
Si Si5 0.000000 0.206913 0.750000
Si Si6 0.421116 0.538353 0.599894
Si Si7 0.379579 0.412452 0.484837
O O1 0.500000 0.941690 0.250000
O O2 0.558953 0.033884 0.189744
O O3 0.396769 0.181707 0.180841
O O4 0.285354 0.933979 0.100929
O O5 0.237992 0.975294 0.436906
O O6 0.399966 0.232116 0.501076
O O7 0.500000 0.000000 0.500000
O O8 0.477220 0.976298 0.576647
O O9 0.734905 0.150826 0.193290
O O10 0.487997 0.291133 0.122897
O O11 0.500000 0.366153 0.750000
O O12 0.394559 0.599761 0.738793
O O13 0.475810 0.422404 0.831185
O O14 0.391708 0.486882 0.538165
O O15 0.500000 0.500000 0.500000
#
# Coordination Sequence:
#
# PCOD9295907 Si02
#       7
#     8   8   8   8   4   8   8
#     4  10  23  46  74 104 149 190 249 303 374 438
#     4  12  28  48  76 107 150 194 248 311 376 450
#     4  12  24  43  80 109 146 205 245 308 377 448
#     4  10  23  43  72 110 149 193 255 296 370 443
#     4   8  20  44  74  98 150 192 242 308 364 432
#     4  12  25  48  75 110 150 197 254 305 373 446
#     4  12  29  46  73 112 149 193 244 319 377 440
#
# _framework density 22.303250999999999
#
# number of rings (size 3 to 8) (size 9 to 14) (size 15 to 20)
#    0.923    0.000    3.077    2.769    6.462    1.231 
#    0.000    0.769    0.000    0.000    0.000    0.000 
#    0.000    0.000    0.000    0.000    0.000    0.000 
#
# Total GULP energy -145207.882799 kJ/mol
# GULP energy per Si atom -5584.918569 kJ/mol
# Density = 2.225249 g / cm^3
# Si number density = 22.303251 Si / 1000 Ang^3
#
#
#
# Elastic Constant Matrix: (Units=GPa)
#
#
# Indices 1 2 3 4 5 6 
#
# 1 120.2577 69.1268 45.2254 0.0000 18.7626 0.0000
# 2 69.1268 138.9882 61.4644 0.0000 1.5964 0.0000
# 3 45.2254 61.4644 116.7633 0.0000 -0.1126 0.0000
# 4 0.0000 0.0000 0.0000 -108.6553 0.0000 90.7625
# 5 18.7626 1.5964 -0.1126 0.0000 44.6678 0.0000
# 6 0.0000 0.0000 0.0000 90.7625 0.0000 -35.2324
#
#
#
# Elastic Compliance Matrix: (Units=1/GPa)
#
#
# Indices 1 2 3 4 5 6 
#
# 1 0.013134 -0.005499 -0.002197 0.000000 -0.005326 0.000000
# 2 -0.005499 0.011686 -0.004020 0.000000 0.001882 0.000000
# 3 -0.002197 -0.004020 0.011532 0.000000 0.001096 0.000000
# 4 0.000000 0.000000 0.000000 0.007990 0.000000 0.020583
# 5 -0.005326 0.001882 0.001096 0.000000 0.024560 0.000000
# 6 0.000000 0.000000 0.000000 0.020583 0.000000 0.024640
#
#
# Mechanical properties :
#
#
# Convention : Reuss Voigt Hill
#
# Bulk Modulus (GPa) = 77.40188 80.84916 79.12552
# Shear Modulus (GPa) = 41.22624 -6.49781 17.36422
#
# Velocity S-wave (km/s) = 4.30401 -1.70872 2.79328
# Velocity P-wave (km/s) = 7.71226 5.69523 6.77919
#
# Compressibility (1/GPa) = 0.01291958
#
# Stress axis : x y z
#
# Youngs Moduli (GPa) = 76.13864 85.57259 86.71176
#
# Poissons Ratio (x) = 0.47059 0.19054
# Poissons Ratio (y) = 0.41871 0.34855
# Poissons Ratio (z) = 0.16731 0.34397
#
# Static dielectric constant tensor:
#      x y z
#    x 1.790280 0.000000 0.018290 
#    y 0.000000 1.877150 0.000000 
#    z 0.018290 0.000000 1.804810 
# 
# From -- ./inp_files/313207.got.cif
#   From: 2010.05.17/outbox.cif.g08.bks.cpg/sg15_157_cif.got.tgz:313207.got - 2010.06.03 18:47:42.
