data_PCOD9295432
_publ_section_title
;
Structure prediction by ZEFSAII (Michael W. Deem and Ramdas Pophale) SiO2 
 PCOD9295432
Probable space group: C 2/C
;
_chemical_formula_sum "Si O2"
_cell_formula_units_Z 40
_cell_length_a 7.489148
_cell_length_b 14.191458
_cell_length_c 17.547123
_cell_angle_alpha 90.000000
_cell_angle_beta 50.609503
_cell_angle_gamma 90.000000
_cell_volume 1441.299675
_symmetry_space_group_name_H-M "C 2/C"
_symmetry_group_IT_number 15
_symmetry_cell_setting 'monoclinic'
loop_
_space_group_symop_operation_xyz
x,y,z
-x,y,1/2-z
-x,-y,-z
x,-y,1/2+z
1/2+x,1/2+y,z
1/2-x,1/2+y,1/2-z
1/2-x,1/2-y,-z
1/2+x,1/2-y,1/2+z
loop_
_atom_site_type_symbol
_atom_site_label
_atom_site_fract_x
_atom_site_fract_y
_atom_site_fract_z
Si Si1 0.947564 0.640712 0.564105
Si Si2 0.845906 0.957783 0.860027
Si Si3 0.073331 0.284916 0.638757
Si Si4 0.235386 0.519076 0.136971
Si Si5 0.303129 0.188394 0.864581
O O1 0.786614 0.552125 0.635220
O O2 0.766805 0.707549 0.572725
O O3 0.144542 0.598262 0.457218
O O4 0.441679 0.787793 0.403642
O O5 0.000000 0.914239 0.750000
O O6 0.045076 0.972791 0.868064
O O7 0.179711 0.389658 0.600954
O O8 0.000000 0.277970 0.750000
O O9 0.872203 0.251977 0.635914
O O10 0.276651 0.416969 0.089095
O O11 0.000000 0.515185 0.250000
O O12 0.500000 0.173006 0.750000
#
# Coordination Sequence:
#
# PCOD9295432 Si02
#       5
#     8   8   8   8   8
#     4  11  24  43  77 108 145 207 251 312 405 449
#     4  11  23  47  74 107 154 200 257 325 383 472
#     4  11  22  45  72 111 155 197 262 318 382 473
#     4  10  23  42  71 107 149 201 257 308 393 463
#     4  11  21  43  74 107 153 204 249 324 388 459
#
# _framework density 27.752731000000001
#
# number of rings (size 3 to 8) (size 9 to 14) (size 15 to 20)
#    0.000    1.200    4.000    3.000    0.000    1.600 
#   14.400    1.000    0.000    0.000    0.000    0.000 
#    0.000    0.000    0.000    0.000    0.000    0.000 
#
# Total GULP energy -111947.017487 kJ/mol
# GULP energy per Si atom -5597.350874 kJ/mol
# Density = 2.768956 g / cm^3
# Si number density = 27.752731 Si / 1000 Ang^3
#
#
#
# Elastic Constant Matrix: (Units=GPa)
#
#
# Indices 1 2 3 4 5 6 
#
# 1 194.1319 48.8901 42.1759 0.0002 -21.0198 -0.0001
# 2 48.8901 113.8840 29.2685 0.0005 -12.0481 0.0003
# 3 42.1759 29.2685 160.0644 0.0002 -16.0135 0.0012
# 4 0.0002 0.0005 0.0002 27.8593 0.0003 4.9116
# 5 -21.0198 -12.0481 -16.0135 0.0003 42.9791 -0.0001
# 6 -0.0001 0.0003 0.0012 4.9116 -0.0001 41.1577
#
#
#
# Elastic Compliance Matrix: (Units=1/GPa)
#
#
# Indices 1 2 3 4 5 6 
#
# 1 0.006134 -0.002158 -0.001020 0.000000 0.002015 0.000000
# 2 -0.002158 0.010147 -0.001151 0.000000 0.001360 0.000000
# 3 -0.001020 -0.001151 0.006902 0.000000 0.001750 0.000000
# 4 0.000000 0.000000 0.000000 0.036666 0.000000 -0.004376
# 5 0.002015 0.001360 0.001750 0.000000 0.025286 0.000000
# 6 0.000000 0.000000 0.000000 -0.004376 0.000000 0.024819
#
#
# Mechanical properties :
#
#
# Convention : Reuss Voigt Hill
#
# Bulk Modulus (GPa) = 68.84563 78.74993 73.79778
# Shear Modulus (GPa) = 40.50091 45.58227 43.04159
#
# Velocity S-wave (km/s) = 3.82429 4.05710 3.94241
# Velocity P-wave (km/s) = 6.66040 7.09816 6.88276
#
# Compressibility (1/GPa) = 0.01452525
#
# Stress axis : x y z
#
# Youngs Moduli (GPa) = 163.01342 98.55145 144.89022
#
# Poissons Ratio (x) = 0.21269 0.14781
# Poissons Ratio (y) = 0.35181 0.16672
# Poissons Ratio (z) = 0.16630 0.11340
#
# Static dielectric constant tensor:
#      x y z
#    x 2.235240 0.000000 0.054000 
#    y 0.000000 2.278750 0.000000 
#    z 0.054000 0.000000 2.095810 
# 
# From -- ./inp_files/264103.got.cif
#   From: 2010.05.17/outbox.cif.g08.bks.cpg/sg15_133_cif.got.tgz:264103.got - 2010.06.03 18:47:42.
