data_PCOD9295973
_publ_section_title
;
Structure prediction by ZEFSAII (Michael W. Deem and Ramdas Pophale) SiO2 
 PCOD9295973
Probable space group: C 2/C
;
_chemical_formula_sum "Si O2"
_cell_formula_units_Z 48
_cell_length_a 28.731267
_cell_length_b 6.481483
_cell_length_c 13.466791
_cell_angle_alpha 90.000000
_cell_angle_beta 110.366585
_cell_angle_gamma 90.000000
_cell_volume 2351.027270
_symmetry_space_group_name_H-M "C 2/C"
_symmetry_group_IT_number 15
_symmetry_cell_setting 'monoclinic'
loop_
_space_group_symop_operation_xyz
x,y,z
-x,y,1/2-z
-x,-y,-z
x,-y,1/2+z
1/2+x,1/2+y,z
1/2-x,1/2+y,1/2-z
1/2-x,1/2-y,-z
1/2+x,1/2-y,1/2+z
loop_
_atom_site_type_symbol
_atom_site_label
_atom_site_fract_x
_atom_site_fract_y
_atom_site_fract_z
Si Si1 0.100161 0.934943 0.455444
Si Si2 0.430545 0.809203 0.942178
Si Si3 0.981293 0.614118 0.135980
Si Si4 0.269155 0.048970 0.954782
Si Si5 0.155485 0.624421 0.645068
Si Si6 0.671272 0.726652 0.378417
O O1 0.075960 0.085447 0.517882
O O2 0.131604 0.082068 0.405690
O O3 0.057662 0.797703 0.372696
O O4 0.133389 0.780532 0.546086
O O5 0.469721 0.806387 0.882850
O O6 0.378460 0.918856 0.877402
O O7 0.454422 0.953538 0.044588
O O8 0.000000 0.510822 0.250000
O O9 0.290129 0.085664 0.859781
O O10 0.222080 0.901192 0.911817
O O11 0.250000 0.250000 0.000000
O O12 0.313472 0.931787 0.047880
O O13 0.155327 0.715852 0.755355
#
# Coordination Sequence:
#
# PCOD9295973 Si02
#       6
#     8   8   8   8   8   8
#     4  11  23  43  64  96 128 162 217 262 314 386
#     4  10  23  44  62  91 132 159 216 263 312 378
#     4  10  24  41  65  93 124 170 208 262 317 375
#     4  11  24  45  61  95 133 163 220 265 308 389
#     4  11  25  41  67  95 128 171 210 267 321 377
#     4  11  26  41  68  95 126 174 209 264 325 376
#
# _framework density 20.416606000000002
#
# number of rings (size 3 to 8) (size 9 to 14) (size 15 to 20)
#    0.000    1.333    3.333    0.500    7.000    2.000 
#    0.000    0.000    0.000    0.000    0.000    0.000 
#    0.000    0.000    0.000    0.000    0.000    0.000 
#
# Total GULP energy -134071.724933 kJ/mol
# GULP energy per Si atom -5586.321872 kJ/mol
# Density = 2.037014 g / cm^3
# Si number density = 20.416606 Si / 1000 Ang^3
#
#
#
# Elastic Constant Matrix: (Units=GPa)
#
#
# Indices 1 2 3 4 5 6 
#
# 1 68.2051 -0.1975 7.7333 0.0000 0.1283 0.0000
# 2 -0.1975 53.3180 -0.7427 0.0000 3.7182 0.0000
# 3 7.7333 -0.7427 77.6068 0.0000 -15.4079 0.0000
# 4 0.0000 0.0000 0.0000 6.0764 0.0000 -16.2532
# 5 0.1283 3.7182 -15.4079 0.0000 16.2148 0.0000
# 6 0.0000 0.0000 0.0000 -16.2532 0.0000 29.4394
#
#
#
# Elastic Compliance Matrix: (Units=1/GPa)
#
#
# Indices 1 2 3 4 5 6 
#
# 1 0.014877 0.000163 -0.001863 0.000000 -0.001926 0.000000
# 2 0.000163 0.019107 -0.000867 0.000000 -0.005207 0.000000
# 3 -0.001863 -0.000867 0.016153 0.000000 0.015562 0.000000
# 4 0.000000 0.000000 0.000000 -0.345210 0.000000 -0.190587
# 5 -0.001926 -0.005207 0.015562 0.000000 0.077669 0.000000
# 6 0.000000 0.000000 0.000000 -0.190587 0.000000 -0.071252
#
#
# Mechanical properties :
#
#
# Convention : Reuss Voigt Hill
#
# Bulk Modulus (GPa) = 22.22086 23.63511 22.92798
# Shear Modulus (GPa) = -18.62041 23.16858 2.27408
#
# Velocity S-wave (km/s) = -3.02325 3.37232 1.05653
# Velocity P-wave (km/s) = 1.13109 5.17348 3.56970
#
# Compressibility (1/GPa) = 0.04500277
#
# Stress axis : x y z
#
# Youngs Moduli (GPa) = 67.21777 52.33679 61.90985
#
# Poissons Ratio (x) = -0.00855 0.11535
# Poissons Ratio (y) = -0.01099 0.05368
# Poissons Ratio (z) = 0.12524 0.04538
#
# Static dielectric constant tensor:
#      x y z
#    x 1.756070 0.000000 -0.000680 
#    y 0.000000 1.713130 0.000000 
#    z -0.000680 0.000000 1.705020 
# 
# From -- ./inp_files/180229.got.cif
#   From: 2010.05.17/outbox.cif.g08.bks.cpg/sg15_91_cif.got.tgz:180229.got - 2010.06.03 18:47:42.
