data_PCOD9295309
_publ_section_title
;
Structure prediction by ZEFSAII (Michael W. Deem and Ramdas Pophale) SiO2 
 PCOD9295309
Probable space group: C 2/C
;
_chemical_formula_sum "Si O2"
_cell_formula_units_Z 48
_cell_length_a 17.065446
_cell_length_b 13.936247
_cell_length_c 16.856843
_cell_angle_alpha 90.000000
_cell_angle_beta 32.799657
_cell_angle_gamma 90.000000
_cell_volume 2171.706361
_symmetry_space_group_name_H-M "C 2/C"
_symmetry_group_IT_number 15
_symmetry_cell_setting 'monoclinic'
loop_
_space_group_symop_operation_xyz
x,y,z
-x,y,1/2-z
-x,-y,-z
x,-y,1/2+z
1/2+x,1/2+y,z
1/2-x,1/2+y,1/2-z
1/2-x,1/2-y,-z
1/2+x,1/2-y,1/2+z
loop_
_atom_site_type_symbol
_atom_site_label
_atom_site_fract_x
_atom_site_fract_y
_atom_site_fract_z
Si Si1 0.500000 0.002317 0.250000
Si Si2 0.547552 0.204316 0.995060
Si Si3 0.238174 0.140754 0.272497
Si Si4 0.211608 0.645143 0.002764
Si Si5 0.000000 0.956353 0.250000
Si Si6 0.031167 0.939966 0.556728
Si Si7 0.157575 0.430092 0.260247
O O1 0.360472 0.071644 0.374823
O O2 0.533779 0.940179 0.298970
O O3 0.637194 0.303894 0.922203
O O4 0.590906 0.151688 0.038355
O O5 0.605523 0.140603 0.873252
O O6 0.374888 0.207784 0.137777
O O7 0.114025 0.123935 0.312593
O O8 0.306274 0.037320 0.236618
O O9 0.360900 0.604539 0.843517
O O10 0.250000 0.750000 0.000000
O O11 0.041465 0.008807 0.132929
O O12 0.189031 0.896173 0.406648
O O13 0.000000 0.000000 0.500000
#
# Coordination Sequence:
#
# PCOD9295309 Si02
#       7
#     4   8   8   8   4   8   8
#     4  12  23  42  65  98 138 176 230 288 340 408
#     4  12  26  42  72 100 140 183 230 283 348 418
#     4  11  24  43  68 100 135 183 232 282 346 413
#     4  12  26  40  64 101 142 177 224 284 353 418
#     4  12  25  42  69 102 132 188 232 282 354 416
#     4  10  23  42  68  94 136 181 233 277 340 412
#     4  11  23  45  68  98 139 185 228 284 343 411
#
# _framework density 22.102436999999998
#
# number of rings (size 3 to 8) (size 9 to 14) (size 15 to 20)
#    0.000    0.667    3.333    5.000    7.000    0.000 
#    0.000    0.833    0.000    4.000    0.000    0.000 
#    0.000    0.000    0.000    0.000    0.000    0.000 
#
# Total GULP energy -133934.320698 kJ/mol
# GULP energy per Si atom -5580.596696 kJ/mol
# Density = 2.205213 g / cm^3
# Si number density = 22.102437 Si / 1000 Ang^3
#
#
#
# Elastic Constant Matrix: (Units=GPa)
#
#
# Indices 1 2 3 4 5 6 
#
# 1 92.5056 27.1384 26.4639 -0.0001 2.6344 0.0000
# 2 27.1384 33.7742 12.6895 0.0000 -4.2235 0.0000
# 3 26.4639 12.6895 120.0128 -0.0002 -31.8556 0.0001
# 4 -0.0001 0.0000 -0.0002 3.2385 0.0000 -4.4163
# 5 2.6344 -4.2235 -31.8556 0.0000 45.1633 0.0000
# 6 0.0000 0.0000 0.0001 -4.4163 0.0000 20.9033
#
#
#
# Elastic Compliance Matrix: (Units=1/GPa)
#
#
# Indices 1 2 3 4 5 6 
#
# 1 0.015265 -0.011569 -0.003280 0.000001 -0.004286 0.000000
# 2 -0.011569 0.039620 -0.000585 -0.000001 0.003967 0.000000
# 3 -0.003280 -0.000585 0.011263 0.000000 0.008081 0.000000
# 4 0.000001 -0.000001 0.000000 0.433756 0.000000 0.091642
# 5 -0.004286 0.003967 0.008081 0.000000 0.028462 0.000000
# 6 0.000000 0.000000 0.000000 0.091642 0.000000 0.067201
#
#
# Mechanical properties :
#
#
# Convention : Reuss Voigt Hill
#
# Bulk Modulus (GPa) = 28.34596 42.09736 35.22166
# Shear Modulus (GPa) = 7.83458 25.86108 16.84783
#
# Velocity S-wave (km/s) = 1.88477 3.42432 2.76390
# Velocity P-wave (km/s) = 4.19394 5.89257 5.11427
#
# Compressibility (1/GPa) = 0.03527839
#
# Stress axis : x y z
#
# Youngs Moduli (GPa) = 65.51071 25.23958 88.78987
#
# Poissons Ratio (x) = 0.29200 0.29127
# Poissons Ratio (y) = 0.75789 0.05195
# Poissons Ratio (z) = 0.21490 0.01477
#
# Static dielectric constant tensor:
#      x y z
#    x 1.857650 0.000000 -0.020090 
#    y 0.000000 1.954480 0.000000 
#    z -0.020090 0.000000 1.819970 
# 
# From -- ./inp_files/47509.got.cif
#   From: 2010.05.17/outbox.cif.g08.bks.cpg/sg15_24_cif.got.tgz:47509.got - 2010.06.03 18:47:42.
