data_PCOD9295579
_publ_section_title
;
Structure prediction by ZEFSAII (Michael W. Deem and Ramdas Pophale) SiO2 
 PCOD9295579
Probable space group: C 2/C
;
_chemical_formula_sum "Si O2"
_cell_formula_units_Z 52
_cell_length_a 11.130628
_cell_length_b 27.472544
_cell_length_c 9.037055
_cell_angle_alpha 90.000000
_cell_angle_beta 62.392443
_cell_angle_gamma 90.000000
_cell_volume 2448.775776
_symmetry_space_group_name_H-M "C 2/C"
_symmetry_group_IT_number 15
_symmetry_cell_setting 'monoclinic'
loop_
_space_group_symop_operation_xyz
x,y,z
-x,y,1/2-z
-x,-y,-z
x,-y,1/2+z
1/2+x,1/2+y,z
1/2-x,1/2+y,1/2-z
1/2-x,1/2-y,-z
1/2+x,1/2-y,1/2+z
loop_
_atom_site_type_symbol
_atom_site_label
_atom_site_fract_x
_atom_site_fract_y
_atom_site_fract_z
Si Si1 0.805094 0.524780 0.103450
Si Si2 0.144938 0.072285 0.588772
Si Si3 0.010438 0.280660 0.419741
Si Si4 0.732352 0.212587 0.233792
Si Si5 0.367135 0.389624 0.734391
Si Si6 0.392688 0.145024 0.427654
Si Si7 0.500000 0.003043 0.250000
O O1 0.711132 0.477849 0.116117
O O2 0.720796 0.572692 0.124169
O O3 0.873913 0.526206 0.228038
O O4 0.928199 0.525961 0.919836
O O5 0.112010 0.081214 0.432841
O O6 0.265872 0.111662 0.540391
O O7 0.000000 0.080462 0.750000
O O8 0.141288 0.246850 0.373069
O O9 0.036004 0.334851 0.467699
O O10 0.000000 0.280451 0.250000
O O11 0.874760 0.265122 0.587452
O O12 0.791640 0.161171 0.256171
O O13 0.654339 0.193680 0.133028
O O14 0.500000 0.379299 0.750000
O O15 0.500000 0.121491 0.250000
#
# Coordination Sequence:
#
# PCOD9295579 Si02
#       7
#     8   8   8   8   8   8   4
#     4  11  23  44  65  97 131 173 224 263 330 377
#     4  11  25  41  66  98 134 175 219 271 320 388
#     4  11  22  39  65  95 126 165 215 273 321 390
#     4  10  23  43  65  93 127 174 210 266 329 386
#     4  11  25  44  66  92 134 174 216 273 330 382
#     4   9  22  42  65  92 131 173 216 263 325 388
#     4  10  24  38  68  94 126 178 214 272 312 396
#
# _framework density 21.235101
#
# number of rings (size 3 to 8) (size 9 to 14) (size 15 to 20)
#    0.000    1.538    1.538    1.846    3.231    8.615 
#    2.769    0.769    0.000    0.000    0.000    0.000 
#    0.000    0.000    0.000    0.000    0.000    0.000 
#
# Total GULP energy -144949.769688 kJ/mol
# GULP energy per Si atom -5574.991142 kJ/mol
# Density = 2.118677 g / cm^3
# Si number density = 21.235101 Si / 1000 Ang^3
#
#
#
# Elastic Constant Matrix: (Units=GPa)
#
#
# Indices 1 2 3 4 5 6 
#
# 1 105.8542 33.9852 52.1604 0.0000 -16.1078 0.0000
# 2 33.9852 72.5499 51.9868 0.0000 -22.0038 0.0000
# 3 52.1604 51.9868 104.1836 0.0000 -31.1660 0.0000
# 4 0.0000 0.0000 0.0000 1.6570 0.0000 6.3784
# 5 -16.1078 -22.0038 -31.1660 0.0000 46.0904 0.0000
# 6 0.0000 0.0000 0.0000 6.3784 0.0000 30.2835
#
#
#
# Elastic Compliance Matrix: (Units=1/GPa)
#
#
# Indices 1 2 3 4 5 6 
#
# 1 0.012760 -0.002208 -0.005350 0.000000 -0.000212 0.000000
# 2 -0.002208 0.022371 -0.008892 0.000000 0.003896 0.000000
# 3 -0.005350 -0.008892 0.018659 0.000000 0.006502 0.000000
# 4 0.000000 0.000000 0.000000 3.188733 0.000000 -0.671615
# 5 -0.000212 0.003896 0.006502 0.000000 0.027879 0.000000
# 6 0.000000 0.000000 0.000000 -0.671615 0.000000 0.174478
#
#
# Mechanical properties :
#
#
# Convention : Reuss Voigt Hill
#
# Bulk Modulus (GPa) = 47.87039 62.09472 54.98256
# Shear Modulus (GPa) = 1.43483 25.23655 13.33569
#
# Velocity S-wave (km/s) = 0.82289 3.45111 2.50872
# Velocity P-wave (km/s) = 4.84715 6.72200 5.86004
#
# Compressibility (1/GPa) = 0.02088974
#
# Stress axis : x y z
#
# Youngs Moduli (GPa) = 78.37115 44.70002 53.59235
#
# Poissons Ratio (x) = 0.09869 0.28673
# Poissons Ratio (y) = 0.17304 0.47656
# Poissons Ratio (z) = 0.41930 0.39749
#
# Static dielectric constant tensor:
#      x y z
#    x 1.935320 0.000000 0.042310 
#    y 0.000000 1.744760 0.000000 
#    z 0.042310 0.000000 1.782590 
# 
# From -- ./inp_files/34108.got.cif
#   From: 2010.05.17/outbox.cif.g08.bks.cpg/sg15_18_cif.got.tgz:34108.got - 2010.06.03 18:47:42.
