data_PCOD9295413
_publ_section_title
;
Structure prediction by ZEFSAII (Michael W. Deem and Ramdas Pophale) SiO2 
 PCOD9295413
Probable space group: C 2/C
;
_chemical_formula_sum "Si O2"
_cell_formula_units_Z 48
_cell_length_a 13.898815
_cell_length_b 13.167651
_cell_length_c 23.496480
_cell_angle_alpha 90.000000
_cell_angle_beta 30.348806
_cell_angle_gamma 90.000000
_cell_volume 2172.732698
_symmetry_space_group_name_H-M "C 2/C"
_symmetry_group_IT_number 15
_symmetry_cell_setting 'monoclinic'
loop_
_space_group_symop_operation_xyz
x,y,z
-x,y,1/2-z
-x,-y,-z
x,-y,1/2+z
1/2+x,1/2+y,z
1/2-x,1/2+y,1/2-z
1/2-x,1/2-y,-z
1/2+x,1/2-y,1/2+z
loop_
_atom_site_type_symbol
_atom_site_label
_atom_site_fract_x
_atom_site_fract_y
_atom_site_fract_z
Si Si1 0.230076 0.549127 0.629222
Si Si2 0.038192 0.122972 0.550169
Si Si3 0.081839 0.854431 0.764725
Si Si4 0.999033 0.652251 0.480799
Si Si5 0.423099 0.274894 0.952849
Si Si6 0.380429 0.432727 0.364393
O O1 0.336217 0.570910 0.635185
O O2 0.302795 0.442655 0.565402
O O3 0.337154 0.633869 0.535143
O O4 0.000000 0.555093 0.750000
O O5 0.037640 0.238952 0.530619
O O6 0.077551 0.118029 0.596849
O O7 0.294462 0.885253 0.642321
O O8 0.000000 0.796132 0.750000
O O9 0.083013 0.802485 0.825325
O O10 0.946165 0.951394 0.838598
O O11 0.836640 0.577968 0.543084
O O12 0.010138 0.683780 0.541186
O O13 0.250000 0.250000 0.000000
O O14 0.500000 0.389757 0.250000
#
# Coordination Sequence:
#
# PCOD9295413 Si02
#       6
#     8   8   8   8   8   8
#     4  10  23  42  71 100 134 184 232 300 351 407
#     4  10  23  46  64 103 140 176 244 284 347 430
#     4  11  24  46  68 100 143 179 234 289 354 421
#     4  11  26  43  73 101 137 192 237 289 354 423
#     4  11  23  42  70 102 134 179 242 288 343 422
#     4  11  26  45  66 102 147 181 227 289 364 428
#
# _framework density 22.091995000000001
#
# number of rings (size 3 to 8) (size 9 to 14) (size 15 to 20)
#    0.000    1.333    3.333    0.500    7.000    4.667 
#    0.000    0.000    0.000    0.000    0.000    0.000 
#    0.000    0.000    0.000    0.000    0.000    0.000 
#
# Total GULP energy -134125.676567 kJ/mol
# GULP energy per Si atom -5588.569857 kJ/mol
# Density = 2.204171 g / cm^3
# Si number density = 22.091995 Si / 1000 Ang^3
#
#
#
# Elastic Constant Matrix: (Units=GPa)
#
#
# Indices 1 2 3 4 5 6 
#
# 1 166.6511 19.5371 73.8902 -0.0009 2.8105 -0.0009
# 2 19.5371 77.0329 16.6517 -0.0006 -1.2510 -0.0008
# 3 73.8902 16.6517 128.7150 -0.0078 -17.9923 0.0001
# 4 -0.0009 -0.0006 -0.0078 11.6199 0.0021 -11.6741
# 5 2.8105 -1.2510 -17.9923 0.0021 44.8984 0.0001
# 6 -0.0009 -0.0008 0.0001 -11.6741 0.0001 18.0331
#
#
#
# Elastic Compliance Matrix: (Units=1/GPa)
#
#
# Indices 1 2 3 4 5 6 
#
# 1 0.008409 -0.001083 -0.005048 -0.000006 -0.002579 -0.000003
# 2 -0.001083 0.013499 -0.001125 0.000001 -0.000007 0.000001
# 3 -0.005048 -0.001125 0.011496 0.000017 0.004892 0.000011
# 4 -0.000006 0.000001 0.000017 0.246159 -0.000004 0.159357
# 5 -0.002579 -0.000007 0.004892 -0.000004 0.024394 -0.000003
# 6 -0.000003 0.000001 0.000011 0.159357 -0.000003 0.158617
#
#
# Mechanical properties :
#
#
# Convention : Reuss Voigt Hill
#
# Bulk Modulus (GPa) = 52.93394 65.83966 59.38680
# Shear Modulus (GPa) = 10.34372 32.39827 21.37100
#
# Velocity S-wave (km/s) = 2.16617 3.83367 3.11362
# Velocity P-wave (km/s) = 5.50173 7.03301 6.31396
#
# Compressibility (1/GPa) = 0.01889147
#
# Stress axis : x y z
#
# Youngs Moduli (GPa) = 118.91775 74.07727 86.98549
#
# Poissons Ratio (x) = 0.08026 0.43908
# Poissons Ratio (y) = 0.12885 0.09789
# Poissons Ratio (z) = 0.60027 0.08337
#
# Static dielectric constant tensor:
#      x y z
#    x 1.832190 0.000000 -0.016160 
#    y 0.000000 1.874860 0.000000 
#    z -0.016160 0.000000 1.630240 
# 
# From -- ./inp_files/274283.got.cif
#   From: 2010.05.17/outbox.cif.g08.bks.cpg/sg15_138_cif.got.tgz:274283.got - 2010.06.03 18:47:42.
