data_PCOD9295461
_publ_section_title
;
Structure prediction by ZEFSAII (Michael W. Deem and Ramdas Pophale) SiO2 
 PCOD9295461
Probable space group: C 2/C
;
_chemical_formula_sum "Si O2"
_cell_formula_units_Z 44
_cell_length_a 11.074765
_cell_length_b 16.027077
_cell_length_c 10.522964
_cell_angle_alpha 90.000000
_cell_angle_beta 103.805607
_cell_angle_gamma 90.000000
_cell_volume 1813.826618
_symmetry_space_group_name_H-M "C 2/C"
_symmetry_group_IT_number 15
_symmetry_cell_setting 'monoclinic'
loop_
_space_group_symop_operation_xyz
x,y,z
-x,y,1/2-z
-x,-y,-z
x,-y,1/2+z
1/2+x,1/2+y,z
1/2-x,1/2+y,1/2-z
1/2-x,1/2-y,-z
1/2+x,1/2-y,1/2+z
loop_
_atom_site_type_symbol
_atom_site_label
_atom_site_fract_x
_atom_site_fract_y
_atom_site_fract_z
Si Si1 0.868939 0.816427 0.884280
Si Si2 0.197025 0.952797 0.444820
Si Si3 0.627185 0.737792 0.710023
Si Si4 0.500000 0.553805 0.250000
Si Si5 0.770373 0.579027 0.684420
Si Si6 0.614167 0.204543 0.960019
O O1 0.896878 0.888418 0.788905
O O2 0.070807 0.001792 0.869739
O O3 0.747916 0.738389 0.185086
O O4 0.836785 0.862617 0.007136
O O5 0.250312 0.005967 0.576520
O O6 0.278542 0.947343 0.334869
O O7 0.500000 0.731031 0.750000
O O8 0.655273 0.645568 0.659028
O O9 0.605411 0.815135 0.606557
O O10 0.504234 0.736344 0.087293
O O11 0.876499 0.635009 0.644291
O O12 0.750000 0.250000 0.000000
#
# Coordination Sequence:
#
# PCOD9295461 Si02
#       6
#     8   8   8   4   8   8
#     4  12  25  46  79 115 150 210 263 321 387 470
#     4  12  26  42  76 117 157 198 265 322 387 458
#     4  11  25  47  79 109 155 202 269 322 391 463
#     4  12  22  40  74 116 156 190 256 328 386 454
#     4  11  25  46  73 115 153 201 255 328 384 461
#     4  10  23  42  72 108 156 199 256 315 390 460
#
# _framework density 24.258109000000001
#
# number of rings (size 3 to 8) (size 9 to 14) (size 15 to 20)
#    0.000    0.727    1.818    7.091    6.364    2.909 
#    0.000    3.636    4.000    6.545    0.000    0.000 
#    0.000    0.000    0.000    0.000    0.000    0.000 
#
# Total GULP energy -122917.189448 kJ/mol
# GULP energy per Si atom -5587.144975 kJ/mol
# Density = 2.420290 g / cm^3
# Si number density = 24.258109 Si / 1000 Ang^3
#
#
#
# Elastic Constant Matrix: (Units=GPa)
#
#
# Indices 1 2 3 4 5 6 
#
# 1 101.7604 58.9655 58.4944 0.0000 7.7516 0.0000
# 2 58.9655 108.0470 81.2076 0.0000 -7.2661 0.0000
# 3 58.4944 81.2076 179.1739 0.0000 -23.7705 0.0000
# 4 0.0000 0.0000 0.0000 62.2427 0.0000 -12.5375
# 5 7.7516 -7.2661 -23.7705 0.0000 35.0936 0.0000
# 6 0.0000 0.0000 0.0000 -12.5375 0.0000 30.6167
#
#
#
# Elastic Compliance Matrix: (Units=1/GPa)
#
#
# Indices 1 2 3 4 5 6 
#
# 1 0.016185 -0.007024 -0.003041 0.000000 -0.007089 0.000000
# 2 -0.007024 0.017162 -0.005282 0.000000 0.001527 0.000000
# 3 -0.003041 -0.005282 0.009792 0.000000 0.006211 0.000000
# 4 0.000000 0.000000 0.000000 0.017511 0.000000 0.007171
# 5 -0.007089 0.001527 0.006211 0.000000 0.034584 0.000000
# 6 0.000000 0.000000 0.000000 0.007171 0.000000 0.035598
#
#
# Mechanical properties :
#
#
# Convention : Reuss Voigt Hill
#
# Bulk Modulus (GPa) = 80.36123 87.36847 83.86485
# Shear Modulus (GPa) = 30.17976 38.27819 34.22898
#
# Velocity S-wave (km/s) = 3.53102 3.97666 3.76045
# Velocity P-wave (km/s) = 7.05859 7.56171 7.31447
#
# Compressibility (1/GPa) = 0.01244381
#
# Stress axis : x y z
#
# Youngs Moduli (GPa) = 61.78527 58.26995 102.12380
#
# Poissons Ratio (x) = 0.40929 0.31054
# Poissons Ratio (y) = 0.43399 0.53947
# Poissons Ratio (z) = 0.18788 0.30781
#
# Static dielectric constant tensor:
#      x y z
#    x 1.899500 0.000000 -0.041160 
#    y 0.000000 1.995280 0.000000 
#    z -0.041160 0.000000 2.169820 
# 
# From -- ./inp_files/39150.got.cif
#   From: 2010.05.17/outbox.cif.g08.bks.cpg/sg15_20_cif.got.tgz:39150.got - 2010.06.03 18:47:42.
