data_PCOD9295549
_publ_section_title
;
Structure prediction by ZEFSAII (Michael W. Deem and Ramdas Pophale) SiO2 
 PCOD9295549
Probable space group: C 2/C
;
_chemical_formula_sum "Si O2"
_cell_formula_units_Z 48
_cell_length_a 10.943928
_cell_length_b 25.107383
_cell_length_c 9.742471
_cell_angle_alpha 90.000000
_cell_angle_beta 66.441007
_cell_angle_gamma 90.000000
_cell_volume 2453.843598
_symmetry_space_group_name_H-M "C 2/C"
_symmetry_group_IT_number 15
_symmetry_cell_setting 'monoclinic'
loop_
_space_group_symop_operation_xyz
x,y,z
-x,y,1/2-z
-x,-y,-z
x,-y,1/2+z
1/2+x,1/2+y,z
1/2-x,1/2+y,1/2-z
1/2-x,1/2-y,-z
1/2+x,1/2-y,1/2+z
loop_
_atom_site_type_symbol
_atom_site_label
_atom_site_fract_x
_atom_site_fract_y
_atom_site_fract_z
Si Si1 0.000000 0.893212 0.250000
Si Si2 0.474541 0.109082 0.608813
Si Si3 0.000000 0.851079 0.750000
Si Si4 0.597024 0.190015 0.089862
Si Si5 0.264503 0.434006 0.912350
Si Si6 0.905597 0.193717 0.010909
Si Si7 0.269932 0.534031 0.721844
O O1 0.117047 0.929919 0.257646
O O2 0.951015 0.854359 0.392860
O O3 0.500000 0.131617 0.750000
O O4 0.408579 0.152014 0.538999
O O5 0.615952 0.090118 0.485711
O O6 0.372701 0.060148 0.676006
O O7 0.125085 0.888611 0.655797
O O8 0.038039 0.816229 0.864021
O O9 0.500000 0.168265 0.250000
O O10 0.745482 0.193835 0.081836
O O11 0.550848 0.249198 0.067810
O O12 0.277552 0.475656 0.782725
O O13 0.285923 0.462998 0.050137
#
# Coordination Sequence:
#
# PCOD9295549 Si02
#       7
#     4   8   4   8   8   8   8
#     4  12  21  44  66  92 130 168 205 268 320 378
#     4  10  23  43  64  94 128 168 215 265 316 378
#     4  12  25  44  62  98 130 166 211 270 314 378
#     4  11  23  43  67  96 126 172 213 256 323 382
#     4  11  25  41  63  94 126 169 216 261 321 380
#     4  11  25  42  66  97 131 165 211 265 319 383
#     4  11  24  41  65  91 128 167 213 264 319 380
#
# _framework density 19.561150000000001
#
# number of rings (size 3 to 8) (size 9 to 14) (size 15 to 20)
#    0.000    1.000    4.167    2.000    3.500    2.667 
#    0.000    1.667    0.000    0.000    0.000    0.000 
#    0.000    0.000    0.000    0.000    0.000    0.000 
#
# Total GULP energy -134236.638300 kJ/mol
# GULP energy per Si atom -5593.193263 kJ/mol
# Density = 1.951663 g / cm^3
# Si number density = 19.561150 Si / 1000 Ang^3
#
#
#
# Elastic Constant Matrix: (Units=GPa)
#
#
# Indices 1 2 3 4 5 6 
#
# 1 81.1725 3.8989 14.8870 0.0000 5.6202 0.0000
# 2 3.8989 31.6944 -3.6872 0.0000 3.9596 0.0000
# 3 14.8870 -3.6872 55.5123 0.0000 7.3549 0.0000
# 4 0.0000 0.0000 0.0000 52.8431 0.0000 13.2572
# 5 5.6202 3.9596 7.3549 0.0000 36.5157 0.0000
# 6 0.0000 0.0000 0.0000 13.2572 0.0000 16.2087
#
#
#
# Elastic Compliance Matrix: (Units=1/GPa)
#
#
# Indices 1 2 3 4 5 6 
#
# 1 0.013128 -0.001883 -0.003499 0.000000 -0.001112 0.000000
# 2 -0.001883 0.032640 0.003189 0.000000 -0.003892 0.000000
# 3 -0.003499 0.003189 0.019663 0.000000 -0.003768 0.000000
# 4 0.000000 0.000000 0.000000 0.023810 0.000000 -0.019474
# 5 -0.001112 -0.003892 -0.003768 0.000000 0.028737 0.000000
# 6 0.000000 0.000000 0.000000 -0.019474 0.000000 0.077623
#
#
# Mechanical properties :
#
#
# Convention : Reuss Voigt Hill
#
# Bulk Modulus (GPa) = 16.38114 22.06406 19.22260
# Shear Modulus (GPa) = 22.69255 31.33219 27.01237
#
# Velocity S-wave (km/s) = 3.40969 4.00654 3.72010
# Velocity P-wave (km/s) = 4.88813 5.71901 5.31982
#
# Compressibility (1/GPa) = 0.06104583
#
# Stress axis : x y z
#
# Youngs Moduli (GPa) = 76.17020 30.63715 50.85632
#
# Poissons Ratio (x) = 0.05769 0.17792
# Poissons Ratio (y) = 0.14344 -0.16216
# Poissons Ratio (z) = 0.26648 -0.09769
#
# Static dielectric constant tensor:
#      x y z
#    x 1.657570 0.000000 -0.011580 
#    y 0.000000 1.643620 0.000000 
#    z -0.011580 0.000000 1.656490 
# 
# From -- ./inp_files/32559.got.cif
#   From: 2010.05.17/outbox.cif.g08.bks.cpg/sg15_17_cif.got.tgz:32559.got - 2010.06.03 18:47:42.
