data_PCOD9295329
_publ_section_title
;
Structure prediction by ZEFSAII (Michael W. Deem and Ramdas Pophale) SiO2 
 PCOD9295329
Probable space group: C 2/C
;
_chemical_formula_sum "Si O2"
_cell_formula_units_Z 32
_cell_length_a 5.307118
_cell_length_b 28.042719
_cell_length_c 11.848435
_cell_angle_alpha 90.000000
_cell_angle_beta 52.520781
_cell_angle_gamma 90.000000
_cell_volume 1399.353154
_symmetry_space_group_name_H-M "C 2/C"
_symmetry_group_IT_number 15
_symmetry_cell_setting 'monoclinic'
loop_
_space_group_symop_operation_xyz
x,y,z
-x,y,1/2-z
-x,-y,-z
x,-y,1/2+z
1/2+x,1/2+y,z
1/2-x,1/2+y,1/2-z
1/2-x,1/2-y,-z
1/2+x,1/2-y,1/2+z
loop_
_atom_site_type_symbol
_atom_site_label
_atom_site_fract_x
_atom_site_fract_y
_atom_site_fract_z
Si Si1 0.863342 0.009526 0.164691
Si Si2 0.708557 0.130326 0.908193
Si Si3 0.035877 0.894507 0.534986
Si Si4 0.689799 0.296805 0.587806
O O1 0.500000 0.995649 0.250000
O O2 0.000000 0.992009 0.250000
O O3 0.901952 0.067160 0.157588
O O4 0.000000 0.000000 0.000000
O O5 0.000000 0.144841 0.750000
O O6 0.420078 0.102965 0.924923
O O7 0.526560 0.176031 0.009504
O O8 0.861413 0.099035 0.964513
O O9 0.988395 0.839761 0.585820
O O10 0.500000 0.283020 0.750000
O O11 0.750000 0.250000 0.500000
#
# Coordination Sequence:
#
# PCOD9295329 Si02
#       4
#     8   8   8   8
#     4  12  27  49  78 111 152 192 247 304 374 446
#     4  10  23  42  68  99 138 180 239 294 356 418
#     4  10  24  43  72  97 141 186 238 285 362 429
#     4  10  25  43  69 100 142 185 241 293 359 425
#
# _framework density 22.867706999999999
#
# number of rings (size 3 to 8) (size 9 to 14) (size 15 to 20)
#    1.500    0.000    0.000    3.750    7.000    4.000 
#    0.000    0.000    0.000    0.000    0.000    0.000 
#    0.000    0.000    0.000    0.000    0.000    0.000 
#
# Total GULP energy -89171.034679 kJ/mol
# GULP energy per Si atom -5573.189667 kJ/mol
# Density = 2.281566 g / cm^3
# Si number density = 22.867707 Si / 1000 Ang^3
#
#
#
# Elastic Constant Matrix: (Units=GPa)
#
#
# Indices 1 2 3 4 5 6 
#
# 1 181.4461 25.0064 68.9153 0.0000 8.1893 0.0000
# 2 25.0064 88.8775 23.7910 0.0000 25.1272 0.0000
# 3 68.9153 23.7910 161.3973 0.0000 6.2051 0.0000
# 4 0.0000 0.0000 0.0000 29.8048 0.0000 14.1676
# 5 8.1893 25.1272 6.2051 0.0000 33.4673 0.0000
# 6 0.0000 0.0000 0.0000 14.1676 0.0000 14.8315
#
#
#
# Elastic Compliance Matrix: (Units=1/GPa)
#
#
# Indices 1 2 3 4 5 6 
#
# 1 0.006695 -0.001069 -0.002688 0.000000 -0.000337 0.000000
# 2 -0.001069 0.014936 -0.001334 0.000000 -0.010705 0.000000
# 3 -0.002688 -0.001334 0.007530 0.000000 0.000263 0.000000
# 4 0.000000 0.000000 0.000000 0.061457 0.000000 -0.058706
# 5 -0.000337 -0.010705 0.000263 0.000000 0.037951 0.000000
# 6 0.000000 0.000000 0.000000 -0.058706 0.000000 0.123503
#
#
# Mechanical properties :
#
#
# Convention : Reuss Voigt Hill
#
# Bulk Modulus (GPa) = 52.68840 74.12737 63.40788
# Shear Modulus (GPa) = 18.61650 36.55460 27.58555
#
# Velocity S-wave (km/s) = 2.85633 4.00249 3.47697
# Velocity P-wave (km/s) = 5.82827 7.33799 6.62626
#
# Compressibility (1/GPa) = 0.01897951
#
# Stress axis : x y z
#
# Youngs Moduli (GPa) = 149.37048 66.95424 132.79894
#
# Poissons Ratio (x) = 0.07155 0.35698
# Poissons Ratio (y) = 0.15963 0.17712
# Poissons Ratio (z) = 0.40152 0.08930
#
# Static dielectric constant tensor:
#      x y z
#    x 1.885860 0.000000 0.083240 
#    y 0.000000 2.018900 0.000000 
#    z 0.083240 0.000000 2.023490 
# 
# From -- ./inp_files/20113.got.cif
#   From: 2010.05.17/outbox.cif.g08.bks.cpg/sg15_11_cif.got.tgz:20113.got - 2010.06.03 18:47:42.
