data_PCOD9295926
_publ_section_title
;
Structure prediction by ZEFSAII (Michael W. Deem and Ramdas Pophale) SiO2 
 PCOD9295926
Probable space group: C 2/C
;
_chemical_formula_sum "Si O2"
_cell_formula_units_Z 40
_cell_length_a 22.108110
_cell_length_b 8.145344
_cell_length_c 9.049245
_cell_angle_alpha 90.000000
_cell_angle_beta 115.278176
_cell_angle_gamma 90.000000
_cell_volume 1473.532222
_symmetry_space_group_name_H-M "C 2/C"
_symmetry_group_IT_number 15
_symmetry_cell_setting 'monoclinic'
loop_
_space_group_symop_operation_xyz
x,y,z
-x,y,1/2-z
-x,-y,-z
x,-y,1/2+z
1/2+x,1/2+y,z
1/2-x,1/2+y,1/2-z
1/2-x,1/2-y,-z
1/2+x,1/2-y,1/2+z
loop_
_atom_site_type_symbol
_atom_site_label
_atom_site_fract_x
_atom_site_fract_y
_atom_site_fract_z
Si Si1 0.343457 0.962388 0.259080
Si Si2 0.561805 0.993911 0.409235
Si Si3 0.149223 0.053957 0.891329
Si Si4 0.058384 0.135312 0.533289
Si Si5 0.767146 0.836912 0.751404
O O1 0.376009 0.976325 0.135896
O O2 0.281438 0.839409 0.197839
O O3 0.405058 0.902885 0.424774
O O4 0.309207 0.122696 0.292922
O O5 0.500000 0.059638 0.250000
O O6 0.540656 0.818089 0.457517
O O7 0.096720 0.144684 0.730045
O O8 0.197728 0.958946 0.828069
O O9 0.194150 0.156896 0.051551
O O10 0.105999 0.936288 0.953350
O O11 0.000000 0.000000 0.500000
#
# Coordination Sequence:
#
# PCOD9295926 Si02
#       5
#     8   8   8   8   8
#     4  12  29  50  79 112 160 204 262 319 384 457
#     4  12  28  51  76 110 158 205 252 319 388 462
#     4  10  23  43  73 109 154 188 257 318 382 450
#     4  11  23  45  76 113 147 202 256 317 378 460
#     4  11  26  47  76 113 149 206 254 319 387 454
#
# _framework density 27.145658000000001
#
# number of rings (size 3 to 8) (size 9 to 14) (size 15 to 20)
#    0.000    0.800    2.000    3.600   11.200    3.200 
#    0.000    0.000    0.000    0.000    0.000    0.000 
#    0.000    0.000    0.000    0.000    0.000    0.000 
#
# Total GULP energy -112224.891307 kJ/mol
# GULP energy per Si atom -5611.244565 kJ/mol
# Density = 2.708387 g / cm^3
# Si number density = 27.145658 Si / 1000 Ang^3
#
#
#
# Elastic Constant Matrix: (Units=GPa)
#
#
# Indices 1 2 3 4 5 6 
#
# 1 178.4425 44.1799 48.8293 0.0000 -23.4665 0.0000
# 2 44.1799 58.3920 -1.6267 0.0000 -6.9858 0.0000
# 3 48.8293 -1.6267 182.6335 0.0000 1.2151 0.0000
# 4 0.0000 0.0000 0.0000 22.2735 0.0000 -6.0397
# 5 -23.4665 -6.9858 1.2151 0.0000 57.2720 0.0000
# 6 0.0000 0.0000 0.0000 -6.0397 0.0000 56.4471
#
#
#
# Elastic Compliance Matrix: (Units=1/GPa)
#
#
# Indices 1 2 3 4 5 6 
#
# 1 0.007984 -0.005790 -0.002204 0.000000 0.002612 0.000000
# 2 -0.005790 0.021581 0.001739 0.000000 0.000223 0.000000
# 3 -0.002204 0.001739 0.006086 0.000000 -0.000820 0.000000
# 4 0.000000 0.000000 0.000000 0.046238 0.000000 0.004947
# 5 0.002612 0.000223 -0.000820 0.000000 0.018575 0.000000
# 6 0.000000 0.000000 0.000000 0.004947 0.000000 0.018245
#
#
# Mechanical properties :
#
#
# Convention : Reuss Voigt Hill
#
# Bulk Modulus (GPa) = 43.21199 66.91478 55.06338
# Shear Modulus (GPa) = 35.98881 49.07089 42.52985
#
# Velocity S-wave (km/s) = 3.64506 4.25630 3.96249
# Velocity P-wave (km/s) = 5.80245 6.98989 6.42367
#
# Compressibility (1/GPa) = 0.02314173
#
# Stress axis : x y z
#
# Youngs Moduli (GPa) = 125.25126 46.33642 164.32410
#
# Poissons Ratio (x) = 0.26827 0.36210
# Poissons Ratio (y) = 0.72516 -0.28571
# Poissons Ratio (z) = 0.27600 -0.08056
#
# Static dielectric constant tensor:
#      x y z
#    x 2.051180 0.000000 0.028490 
#    y 0.000000 2.223580 0.000000 
#    z 0.028490 0.000000 2.033240 
# 
# From -- ./inp_files/60073.got.cif
#   From: 2010.05.17/outbox.cif.g08.bks.cpg/sg15_31_cif.got.tgz:60073.got - 2010.06.03 18:47:42.
