data_PCOD9295551
_publ_section_title
;
Structure prediction by ZEFSAII (Michael W. Deem and Ramdas Pophale) SiO2 
 PCOD9295551
Probable space group: C 2/C
;
_chemical_formula_sum "Si O2"
_cell_formula_units_Z 48
_cell_length_a 28.128297
_cell_length_b 8.581308
_cell_length_c 9.890259
_cell_angle_alpha 90.000000
_cell_angle_beta 96.463464
_cell_angle_gamma 90.000000
_cell_volume 2372.112808
_symmetry_space_group_name_H-M "C 2/C"
_symmetry_group_IT_number 15
_symmetry_cell_setting 'monoclinic'
loop_
_space_group_symop_operation_xyz
x,y,z
-x,y,1/2-z
-x,-y,-z
x,-y,1/2+z
1/2+x,1/2+y,z
1/2-x,1/2+y,1/2-z
1/2-x,1/2-y,-z
1/2+x,1/2-y,1/2+z
loop_
_atom_site_type_symbol
_atom_site_label
_atom_site_fract_x
_atom_site_fract_y
_atom_site_fract_z
Si Si1 0.031315 0.078691 0.127850
Si Si2 0.219878 0.422538 0.360912
Si Si3 0.840045 0.587753 0.389942
Si Si4 0.380222 0.632487 0.754795
Si Si5 0.307676 0.612688 0.290423
Si Si6 0.892322 0.709787 0.975887
O O1 0.059967 0.227077 0.079605
O O2 0.000000 0.114007 0.250000
O O3 0.072760 0.958143 0.184342
O O4 0.000000 0.000000 0.000000
O O5 0.183690 0.520474 0.253919
O O6 0.198943 0.418607 0.503951
O O7 0.270023 0.510441 0.362195
O O8 0.219460 0.248048 0.300399
O O9 0.859862 0.758348 0.366676
O O10 0.882175 0.471042 0.448299
O O11 0.339007 0.505439 0.709744
O O12 0.392246 0.739325 0.631112
O O13 0.346665 0.700857 0.395269
#
# Coordination Sequence:
#
# PCOD9295551 Si02
#       6
#     8   8   8   8   8   8
#     4  11  23  43  72  99 126 164 208 261 323 393
#     4  11  24  39  63  94 132 173 223 264 306 377
#     4  11  24  42  64  94 131 174 214 263 321 369
#     4  11  23  42  66  93 134 164 214 266 322 376
#     4  10  25  38  64  94 128 175 220 264 316 367
#     4  10  23  43  64  94 131 168 211 265 325 380
#
# _framework density 20.235126000000001
#
# number of rings (size 3 to 8) (size 9 to 14) (size 15 to 20)
#    0.000    1.333    3.333    1.000    7.000    4.000 
#    0.000    1.667    0.000    0.000    0.000    0.000 
#    0.000    0.000    0.000    0.000    0.000    0.000 
#
# Total GULP energy -134222.177638 kJ/mol
# GULP energy per Si atom -5592.590735 kJ/mol
# Density = 2.018907 g / cm^3
# Si number density = 20.235126 Si / 1000 Ang^3
#
#
#
# Elastic Constant Matrix: (Units=GPa)
#
#
# Indices 1 2 3 4 5 6 
#
# 1 100.9207 38.1374 22.7101 0.0000 -23.0984 0.0000
# 2 38.1374 90.2192 2.1624 0.0000 -12.2553 0.0000
# 3 22.7101 2.1624 69.6065 0.0000 -21.4025 0.0000
# 4 0.0000 0.0000 0.0000 21.6079 0.0000 -3.7614
# 5 -23.0984 -12.2553 -21.4025 0.0000 32.1785 0.0000
# 6 0.0000 0.0000 0.0000 -3.7614 0.0000 7.5568
#
#
#
# Elastic Compliance Matrix: (Units=1/GPa)
#
#
# Indices 1 2 3 4 5 6 
#
# 1 0.013761 -0.004884 -0.002354 0.000000 0.006452 0.000000
# 2 -0.004884 0.013512 0.002109 0.000000 0.003043 0.000000
# 3 -0.002354 0.002109 0.018600 0.000000 0.011485 0.000000
# 4 0.000000 0.000000 0.000000 0.050670 0.000000 0.025220
# 5 0.006452 0.003043 0.011485 0.000000 0.044506 0.000000
# 6 0.000000 0.000000 0.000000 0.025220 0.000000 0.144884
#
#
# Mechanical properties :
#
#
# Convention : Reuss Voigt Hill
#
# Bulk Modulus (GPa) = 28.07795 42.97401 35.52598
# Shear Modulus (GPa) = 16.23051 25.45108 20.84080
#
# Velocity S-wave (km/s) = 2.83520 3.55035 3.21274
# Velocity P-wave (km/s) = 4.96224 6.17172 5.59973
#
# Compressibility (1/GPa) = 0.03561513
#
# Stress axis : x y z
#
# Youngs Moduli (GPa) = 72.66955 74.01087 53.76233
#
# Poissons Ratio (x) = 0.36148 0.12656
# Poissons Ratio (y) = 0.35493 -0.11341
# Poissons Ratio (z) = 0.17107 -0.15612
#
# Static dielectric constant tensor:
#      x y z
#    x 1.696480 0.000000 0.007560 
#    y 0.000000 1.714510 0.000000 
#    z 0.007560 0.000000 1.702520 
# 
# From -- ./inp_files/68573.got.cif
#   From: 2010.05.17/outbox.cif.g08.bks.cpg/sg15_35_cif.got.tgz:68573.got - 2010.06.03 18:47:42.
