data_PCOD9295789
_publ_section_title
;
Structure prediction by ZEFSAII (Michael W. Deem and Ramdas Pophale) SiO2 
 PCOD9295789
Probable space group: C 2/C
;
_chemical_formula_sum "Si O2"
_cell_formula_units_Z 44
_cell_length_a 21.700823
_cell_length_b 12.287460
_cell_length_c 8.300462
_cell_angle_alpha 90.000000
_cell_angle_beta 54.675382
_cell_angle_gamma 90.000000
_cell_volume 1805.808893
_symmetry_space_group_name_H-M "C 2/C"
_symmetry_group_IT_number 15
_symmetry_cell_setting 'monoclinic'
loop_
_space_group_symop_operation_xyz
x,y,z
-x,y,1/2-z
-x,-y,-z
x,-y,1/2+z
1/2+x,1/2+y,z
1/2-x,1/2+y,1/2-z
1/2-x,1/2-y,-z
1/2+x,1/2-y,1/2+z
loop_
_atom_site_type_symbol
_atom_site_label
_atom_site_fract_x
_atom_site_fract_y
_atom_site_fract_z
Si Si1 0.654884 0.926131 0.620042
Si Si2 0.416789 0.898342 0.072329
Si Si3 0.302237 0.730583 0.126295
Si Si4 0.318934 0.471090 0.383540
Si Si5 0.000000 0.679150 0.750000
Si Si6 0.356243 0.328832 0.033573
O O1 0.580337 0.921188 0.621892
O O2 0.681953 0.801960 0.562317
O O3 0.733188 0.982745 0.447099
O O4 0.632316 0.996491 0.804275
O O5 0.364746 0.788443 0.146751
O O6 0.478714 0.882242 0.115314
O O7 0.313264 0.608170 0.050016
O O8 0.221840 0.761774 0.324815
O O9 0.364693 0.405810 0.179126
O O10 0.348288 0.586464 0.398274
O O11 0.073062 0.750644 0.595658
#
# Coordination Sequence:
#
# PCOD9295789 Si02
#       6
#     8   8   8   8   4   8
#     4   9  18  40  69 103 122 171 226 297 327 388
#     4  10  23  43  69  97 139 175 233 279 348 403
#     4   9  22  42  74 104 129 175 234 299 337 396
#     4  11  21  44  75 108 130 177 239 296 347 387
#     4  12  30  46  58 108 146 200 220 270 356 428
#     4  11  25  43  72 100 147 178 230 290 338 426
#
# _framework density 24.365811999999998
#
# number of rings (size 3 to 8) (size 9 to 14) (size 15 to 20)
#    1.091    0.727    1.818    2.182    2.545    8.000 
#    0.000    0.000    0.000    0.000    0.000    0.000 
#    0.000    0.000    0.000    0.000    0.000    0.000 
#
# Total GULP energy -122629.111923 kJ/mol
# GULP energy per Si atom -5574.050542 kJ/mol
# Density = 2.431035 g / cm^3
# Si number density = 24.365812 Si / 1000 Ang^3
#
#
#
# Elastic Constant Matrix: (Units=GPa)
#
#
# Indices 1 2 3 4 5 6 
#
# 1 146.8290 37.1625 17.0998 0.0000 12.1990 0.0000
# 2 37.1625 106.4039 21.5157 0.0000 6.4162 0.0000
# 3 17.0998 21.5157 45.5156 0.0000 -0.2313 0.0000
# 4 0.0000 0.0000 0.0000 12.3572 0.0000 9.3019
# 5 12.1990 6.4162 -0.2313 0.0000 25.1433 0.0000
# 6 0.0000 0.0000 0.0000 9.3019 0.0000 51.9810
#
#
#
# Elastic Compliance Matrix: (Units=1/GPa)
#
#
# Indices 1 2 3 4 5 6 
#
# 1 0.007855 -0.002151 -0.001951 0.000000 -0.003280 0.000000
# 2 -0.002151 0.011167 -0.004480 0.000000 -0.001847 0.000000
# 3 -0.001951 -0.004480 0.024833 0.000000 0.002318 0.000000
# 4 0.000000 0.000000 0.000000 0.093522 0.000000 -0.016736
# 5 -0.003280 -0.001847 0.002318 0.000000 0.041856 0.000000
# 6 0.000000 0.000000 0.000000 -0.016736 0.000000 0.022233
#
#
# Mechanical properties :
#
#
# Convention : Reuss Voigt Hill
#
# Bulk Modulus (GPa) = 37.46609 50.03384 43.74997
# Shear Modulus (GPa) = 21.97554 32.76100 27.36827
#
# Velocity S-wave (km/s) = 3.00642 3.67079 3.35509
# Velocity P-wave (km/s) = 5.24036 6.20848 5.74485
#
# Compressibility (1/GPa) = 0.02669080
#
# Stress axis : x y z
#
# Youngs Moduli (GPa) = 127.31085 89.55208 40.26928
#
# Poissons Ratio (x) = 0.19264 0.07856
# Poissons Ratio (y) = 0.27386 0.18040
# Poissons Ratio (z) = 0.24836 0.40118
#
# Static dielectric constant tensor:
#      x y z
#    x 2.012070 0.000000 0.069110 
#    y 0.000000 1.951120 0.000000 
#    z 0.069110 0.000000 1.963770 
# 
# From -- ./inp_files/61404.got.cif
#   From: 2010.05.17/outbox.cif.g08.bks.cpg/sg15_31_cif.got.tgz:61404.got - 2010.06.03 18:47:42.
