data_PCOD9295929
_publ_section_title
;
Structure prediction by ZEFSAII (Michael W. Deem and Ramdas Pophale) SiO2 
 PCOD9295929
Probable space group: C 2/C
;
_chemical_formula_sum "Si O2"
_cell_formula_units_Z 40
_cell_length_a 17.045083
_cell_length_b 5.283666
_cell_length_c 17.656942
_cell_angle_alpha 90.000000
_cell_angle_beta 93.936773
_cell_angle_gamma 90.000000
_cell_volume 1586.441288
_symmetry_space_group_name_H-M "C 2/C"
_symmetry_group_IT_number 15
_symmetry_cell_setting 'monoclinic'
loop_
_space_group_symop_operation_xyz
x,y,z
-x,y,1/2-z
-x,-y,-z
x,-y,1/2+z
1/2+x,1/2+y,z
1/2-x,1/2+y,1/2-z
1/2-x,1/2-y,-z
1/2+x,1/2-y,1/2+z
loop_
_atom_site_type_symbol
_atom_site_label
_atom_site_fract_x
_atom_site_fract_y
_atom_site_fract_z
Si Si1 0.558534 0.109256 0.818515
Si Si2 0.192721 0.149963 0.573668
Si Si3 0.947463 0.129815 0.433089
Si Si4 0.845201 0.448066 0.543062
Si Si5 0.281219 0.378217 0.711595
O O1 0.500000 0.009218 0.750000
O O2 0.501856 0.246586 0.874587
O O3 0.605746 0.917843 0.876477
O O4 0.627544 0.293028 0.790803
O O5 0.162272 0.267410 0.492855
O O6 0.254431 0.924605 0.561798
O O7 0.239049 0.349820 0.627435
O O8 0.114627 0.057881 0.609765
O O9 0.891936 0.312394 0.479388
O O10 0.000000 0.000000 0.500000
O O11 0.260971 0.651723 0.743615
#
# Coordination Sequence:
#
# PCOD9295929 Si02
#       5
#     8   8   8   8   8
#     4  11  25  44  69 106 142 185 241 306 373 425
#     4  10  23  43  73  97 138 194 241 293 356 446
#     4  12  24  41  71 106 141 185 241 309 369 436
#     4  10  23  44  67 101 139 187 247 288 364 446
#     4  11  27  49  72 105 146 196 244 300 369 440
#
# _framework density 25.213667000000001
#
# number of rings (size 3 to 8) (size 9 to 14) (size 15 to 20)
#    0.000    1.200    2.000    2.400    5.600    3.200 
#    0.000    2.000    0.000    0.000    0.000    0.000 
#    0.000    0.000    0.000    0.000    0.000    0.000 
#
# Total GULP energy -111781.208462 kJ/mol
# GULP energy per Si atom -5589.060423 kJ/mol
# Density = 2.515628 g / cm^3
# Si number density = 25.213667 Si / 1000 Ang^3
#
#
#
# Elastic Constant Matrix: (Units=GPa)
#
#
# Indices 1 2 3 4 5 6 
#
# 1 168.2596 20.0069 31.3835 0.0000 -0.3498 0.0000
# 2 20.0069 47.6721 20.2239 0.0000 -4.4201 0.0000
# 3 31.3835 20.2239 114.7838 0.0000 9.1472 0.0000
# 4 0.0000 0.0000 0.0000 31.2823 0.0000 -5.0813
# 5 -0.3498 -4.4201 9.1472 0.0000 53.5342 0.0000
# 6 0.0000 0.0000 0.0000 -5.0813 0.0000 16.9272
#
#
#
# Elastic Compliance Matrix: (Units=1/GPa)
#
#
# Indices 1 2 3 4 5 6 
#
# 1 0.006455 -0.002104 -0.001403 0.000000 0.000108 0.000000
# 2 -0.002104 0.023717 -0.003810 0.000000 0.002595 0.000000
# 3 -0.001403 -0.003810 0.009928 0.000000 -0.002020 0.000000
# 4 0.000000 0.000000 0.000000 0.033606 0.000000 0.010088
# 5 0.000108 0.002595 -0.002020 0.000000 0.019240 0.000000
# 6 0.000000 0.000000 0.000000 0.010088 0.000000 0.062105
#
#
# Mechanical properties :
#
#
# Convention : Reuss Voigt Hill
#
# Bulk Modulus (GPa) = 39.26856 52.66045 45.96451
# Shear Modulus (GPa) = 28.06263 37.62215 32.84239
#
# Velocity S-wave (km/s) = 3.33977 3.86700 3.61302
# Velocity P-wave (km/s) = 5.52089 6.39291 5.97284
#
# Compressibility (1/GPa) = 0.02546567
#
# Stress axis : x y z
#
# Youngs Moduli (GPa) = 154.91254 42.16443 100.72610
#
# Poissons Ratio (x) = 0.08871 0.14131
# Poissons Ratio (y) = 0.32593 0.38379
# Poissons Ratio (z) = 0.21732 0.16066
#
# Static dielectric constant tensor:
#      x y z
#    x 1.989050 0.000000 -0.029970 
#    y 0.000000 2.103510 0.000000 
#    z -0.029970 0.000000 2.068200 
# 
# From -- ./inp_files/208039.got.cif
#   From: 2010.05.17/outbox.cif.g08.bks.cpg/sg15_105_cif.got.tgz:208039.got - 2010.06.03 18:47:42.
