data_PCOD9295818
_publ_section_title
;
Structure prediction by ZEFSAII (Michael W. Deem and Ramdas Pophale) SiO2 
 PCOD9295818
Probable space group: C 2/C
;
_chemical_formula_sum "Si O2"
_cell_formula_units_Z 28
_cell_length_a 9.860709
_cell_length_b 10.276013
_cell_length_c 15.307845
_cell_angle_alpha 90.000000
_cell_angle_beta 41.151220
_cell_angle_gamma 90.000000
_cell_volume 1020.715800
_symmetry_space_group_name_H-M "C 2/C"
_symmetry_group_IT_number 15
_symmetry_cell_setting 'monoclinic'
loop_
_space_group_symop_operation_xyz
x,y,z
-x,y,1/2-z
-x,-y,-z
x,-y,1/2+z
1/2+x,1/2+y,z
1/2-x,1/2+y,1/2-z
1/2-x,1/2-y,-z
1/2+x,1/2-y,1/2+z
loop_
_atom_site_type_symbol
_atom_site_label
_atom_site_fract_x
_atom_site_fract_y
_atom_site_fract_z
Si Si1 0.233526 0.681886 0.247829
Si Si2 0.121856 0.371523 0.469354
Si Si3 0.378575 0.458196 0.971312
Si Si4 0.000000 0.462383 0.250000
O O1 0.458317 0.625991 0.162332
O O2 0.121974 0.561008 0.253680
O O3 0.064823 0.715654 0.402055
O O4 0.270088 0.797689 0.162155
O O5 0.288931 0.420965 0.458793
O O6 0.000000 0.500000 0.500000
O O7 0.500000 0.500000 0.000000
O O8 0.168858 0.390883 0.109299
#
# Coordination Sequence:
#
# PCOD9295818 Si02
#       4
#     8   8   8   4
#     4  10  23  43  70 102 145 191 241 306 370 438
#     4  11  26  45  72 109 147 195 250 307 378 449
#     4   9  20  41  67  99 138 183 243 305 362 438
#     4   8  18  36  66 100 130 178 240 294 356 424
#
# _framework density 27.431730999999999
#
# number of rings (size 3 to 8) (size 9 to 14) (size 15 to 20)
#    0.000    2.286    0.000    0.000    0.000   24.000 
#    0.000    0.000    0.000    0.000    0.000    0.000 
#    0.000    0.000    0.000    0.000    0.000    0.000 
#
# Total GULP energy -78411.362265 kJ/mol
# GULP energy per Si atom -5600.811590 kJ/mol
# Density = 2.736929 g / cm^3
# Si number density = 27.431731 Si / 1000 Ang^3
#
#
#
# Elastic Constant Matrix: (Units=GPa)
#
#
# Indices 1 2 3 4 5 6 
#
# 1 82.2867 80.2536 73.8104 0.0000 -4.1556 0.0000
# 2 80.2536 106.8978 91.0922 0.0000 -9.9731 0.0000
# 3 73.8104 91.0922 174.4142 0.0000 -20.2032 0.0000
# 4 0.0000 0.0000 0.0000 43.7820 0.0000 -6.5261
# 5 -4.1556 -9.9731 -20.2032 0.0000 41.3586 0.0000
# 6 0.0000 0.0000 0.0000 -6.5261 0.0000 67.7255
#
#
#
# Elastic Compliance Matrix: (Units=1/GPa)
#
#
# Indices 1 2 3 4 5 6 
#
# 1 0.046894 -0.032920 -0.003207 0.000000 -0.004793 0.000000
# 2 -0.032920 0.039969 -0.006583 0.000000 0.003115 0.000000
# 3 -0.003207 -0.006583 0.010926 0.000000 0.003427 0.000000
# 4 0.000000 0.000000 0.000000 0.023173 0.000000 0.002233
# 5 -0.004793 0.003115 0.003427 0.000000 0.026123 0.000000
# 6 0.000000 0.000000 0.000000 0.002233 0.000000 0.014981
#
#
# Mechanical properties :
#
#
# Convention : Reuss Voigt Hill
#
# Bulk Modulus (GPa) = 80.84389 94.87901 87.86145
# Shear Modulus (GPa) = 19.87220 38.46938 29.17079
#
# Velocity S-wave (km/s) = 2.69443 3.74888 3.26451
# Velocity P-wave (km/s) = 6.26218 7.30762 6.80500
#
# Compressibility (1/GPa) = 0.01236952
#
# Stress axis : x y z
#
# Youngs Moduli (GPa) = 21.32488 25.01908 91.52705
#
# Poissons Ratio (x) = 0.82362 0.29352
# Poissons Ratio (y) = 0.70201 0.60252
# Poissons Ratio (z) = 0.06839 0.16470
#
# Static dielectric constant tensor:
#      x y z
#    x 2.198500 0.000000 0.089780 
#    y 0.000000 2.123130 0.000000 
#    z 0.089780 0.000000 2.251880 
# 
# From -- ./inp_files/236774.got.cif
#   From: 2010.05.17/outbox.cif.g08.bks.cpg/sg15_119_cif.got.tgz:236774.got - 2010.06.03 18:47:42.
