data_PCOD9295264
_publ_section_title
;
Structure prediction by ZEFSAII (Michael W. Deem and Ramdas Pophale) SiO2 
 PCOD9295264
Probable space group: C 2/C
;
_chemical_formula_sum "Si O2"
_cell_formula_units_Z 32
_cell_length_a 11.678199
_cell_length_b 8.716575
_cell_length_c 27.626143
_cell_angle_alpha 90.000000
_cell_angle_beta 150.362521
_cell_angle_gamma 90.000000
_cell_volume 1390.649032
_symmetry_space_group_name_H-M "C 2/C"
_symmetry_group_IT_number 15
_symmetry_cell_setting 'monoclinic'
loop_
_space_group_symop_operation_xyz
x,y,z
-x,y,1/2-z
-x,-y,-z
x,-y,1/2+z
1/2+x,1/2+y,z
1/2-x,1/2+y,1/2-z
1/2-x,1/2-y,-z
1/2+x,1/2-y,1/2+z
loop_
_atom_site_type_symbol
_atom_site_label
_atom_site_fract_x
_atom_site_fract_y
_atom_site_fract_z
Si Si1 0.294201 0.578899 0.203845
Si Si2 0.025178 0.126703 0.060285
Si Si3 0.024101 0.678907 0.655206
Si Si4 0.936149 0.219779 0.526551
O O1 0.500000 0.499343 0.250000
O O2 0.167357 0.474146 0.196629
O O3 0.398379 0.726938 0.269567
O O4 0.110216 0.639618 0.097084
O O5 0.750650 0.146462 0.946986
O O6 0.154798 0.199192 0.061596
O O7 0.073344 0.215362 0.126704
O O8 0.057725 0.945455 0.079384
O O9 0.750000 0.250000 0.500000
#
# Coordination Sequence:
#
# PCOD9295264 Si02
#       4
#     8   8   8   8
#     4  12  25  44  65 101 135 174 218 278 330 391
#     4  10  23  42  67  97 128 174 218 271 326 396
#     4  11  24  43  65  95 134 168 222 272 328 391
#     4  11  22  43  70  95 131 174 218 267 334 392
#
# _framework density 23.010838
#
# number of rings (size 3 to 8) (size 9 to 14) (size 15 to 20)
#    0.000    1.000    5.000    1.500    0.000    5.000 
#    0.000    0.000    0.000    0.000    0.000    0.000 
#    0.000    0.000    0.000    0.000    0.000    0.000 
#
# Total GULP energy -89472.256514 kJ/mol
# GULP energy per Si atom -5592.016032 kJ/mol
# Density = 2.295846 g / cm^3
# Si number density = 23.010838 Si / 1000 Ang^3
#
#
#
# Elastic Constant Matrix: (Units=GPa)
#
#
# Indices 1 2 3 4 5 6 
#
# 1 139.3461 11.4202 8.5482 0.0000 -0.4103 0.0000
# 2 11.4202 56.2371 3.9485 0.0000 -3.7651 0.0000
# 3 8.5482 3.9485 31.8351 -0.0001 -4.0718 0.0000
# 4 0.0000 0.0000 -0.0001 30.2206 0.0000 -10.5006
# 5 -0.4103 -3.7651 -4.0718 0.0000 26.2513 0.0000
# 6 0.0000 0.0000 0.0000 -10.5006 0.0000 48.6738
#
#
#
# Elastic Compliance Matrix: (Units=1/GPa)
#
#
# Indices 1 2 3 4 5 6 
#
# 1 0.007404 -0.001398 -0.001863 0.000000 -0.000374 0.000000
# 2 -0.001398 0.018336 -0.001597 0.000000 0.002360 0.000000
# 3 -0.001863 -0.001597 0.032726 0.000000 0.004818 0.000000
# 4 0.000000 0.000000 0.000000 0.035771 0.000000 0.007717
# 5 -0.000374 0.002360 0.004818 0.000000 0.039173 0.000000
# 6 0.000000 0.000000 0.000000 0.007717 0.000000 0.022210
#
#
# Mechanical properties :
#
#
# Convention : Reuss Voigt Hill
#
# Bulk Modulus (GPa) = 20.51214 30.58356 25.54785
# Shear Modulus (GPa) = 27.53518 34.59592 31.06555
#
# Velocity S-wave (km/s) = 3.46297 3.88166 3.67828
# Velocity P-wave (km/s) = 4.99230 5.78009 5.40058
#
# Compressibility (1/GPa) = 0.04875162
#
# Stress axis : x y z
#
# Youngs Moduli (GPa) = 135.06050 54.53800 30.55647
#
# Poissons Ratio (x) = 0.07623 0.05691
# Poissons Ratio (y) = 0.18879 0.04880
# Poissons Ratio (z) = 0.25155 0.08710
#
# Static dielectric constant tensor:
#      x y z
#    x 1.862490 0.000000 0.040670 
#    y 0.000000 1.843950 0.000000 
#    z 0.040670 0.000000 1.844890 
# 
# From -- ./inp_files/140546.got.cif
#   From: 2010.05.17/outbox.cif.g08.bks.cpg/sg15_71_cif.got.tgz:140546.got - 2010.06.03 18:47:42.
