data_PCOD9295351
_publ_section_title
;
Structure prediction by ZEFSAII (Michael W. Deem and Ramdas Pophale) SiO2 
 PCOD9295351
Probable space group: C 2/C
;
_chemical_formula_sum "Si O2"
_cell_formula_units_Z 40
_cell_length_a 11.327649
_cell_length_b 16.223184
_cell_length_c 11.910200
_cell_angle_alpha 90.000000
_cell_angle_beta 128.464313
_cell_angle_gamma 90.000000
_cell_volume 1713.777086
_symmetry_space_group_name_H-M "C 2/C"
_symmetry_group_IT_number 15
_symmetry_cell_setting 'monoclinic'
loop_
_space_group_symop_operation_xyz
x,y,z
-x,y,1/2-z
-x,-y,-z
x,-y,1/2+z
1/2+x,1/2+y,z
1/2-x,1/2+y,1/2-z
1/2-x,1/2-y,-z
1/2+x,1/2-y,1/2+z
loop_
_atom_site_type_symbol
_atom_site_label
_atom_site_fract_x
_atom_site_fract_y
_atom_site_fract_z
Si Si1 0.464218 0.094170 0.605663
Si Si2 0.222746 0.847036 0.216676
Si Si3 0.947689 0.936285 0.563790
Si Si4 0.500000 0.066799 0.250000
Si Si5 0.500000 0.431813 0.250000
Si Si6 0.232941 0.652143 0.218351
O O1 0.500000 0.136530 0.750000
O O2 0.632049 0.103796 0.654608
O O3 0.176754 0.121960 0.564880
O O4 0.436049 0.999358 0.621935
O O5 0.245359 0.750213 0.236095
O O6 0.085388 0.874711 0.213736
O O7 0.648611 0.869004 0.551744
O O8 0.098332 0.885087 0.681630
O O9 0.000000 0.000000 0.500000
O O10 0.894746 0.000985 0.626026
O O11 0.629480 0.117180 0.260272
#
# Coordination Sequence:
#
# PCOD9295351 Si02
#       6
#     8   8   8   4   4   8
#     4  10  26  43  67  95 139 179 228 270 346 414
#     4  11  24  45  66 104 133 175 233 284 343 396
#     4  10  24  42  67  99 136 178 224 273 345 414
#     4  10  23  42  69  96 128 180 228 276 339 410
#     4  10  23  44  73  94 136 182 228 284 331 418
#     4  12  24  44  70 100 137 176 228 294 337 397
#
# _framework density 23.340257999999999
#
# number of rings (size 3 to 8) (size 9 to 14) (size 15 to 20)
#    0.600    0.800    0.000    4.800    2.800    7.200 
#    3.600    7.000    0.000    0.000    0.000    0.000 
#    0.000    0.000    0.000    0.000    0.000    0.000 
#
# Total GULP energy -111671.016161 kJ/mol
# GULP energy per Si atom -5583.550808 kJ/mol
# Density = 2.328713 g / cm^3
# Si number density = 23.340258 Si / 1000 Ang^3
#
#
#
# Elastic Constant Matrix: (Units=GPa)
#
#
# Indices 1 2 3 4 5 6 
#
# 1 52.9834 25.7933 31.9329 0.0000 6.6854 0.0000
# 2 25.7933 132.4414 50.8505 0.0000 -4.5494 0.0000
# 3 31.9329 50.8505 137.4897 0.0000 31.0575 0.0000
# 4 0.0000 0.0000 0.0000 14.0830 0.0000 -2.5315
# 5 6.6854 -4.5494 31.0575 0.0000 44.8802 0.0000
# 6 0.0000 0.0000 0.0000 -2.5315 0.0000 40.3765
#
#
#
# Elastic Compliance Matrix: (Units=1/GPa)
#
#
# Indices 1 2 3 4 5 6 
#
# 1 0.022838 -0.002941 -0.004007 0.000000 -0.000927 0.000000
# 2 -0.002941 0.009738 -0.003841 0.000000 0.004083 0.000000
# 3 -0.004007 -0.003841 0.011352 0.000000 -0.007648 0.000000
# 4 0.000000 0.000000 0.000000 0.071817 0.000000 0.004503
# 5 -0.000927 0.004083 -0.007648 0.000000 0.028126 0.000000
# 6 0.000000 0.000000 0.000000 0.004503 0.000000 0.025049
#
#
# Mechanical properties :
#
#
# Convention : Reuss Voigt Hill
#
# Bulk Modulus (GPa) = 44.74278 60.00755 52.37517
# Shear Modulus (GPa) = 25.25911 34.15713 29.70812
#
# Velocity S-wave (km/s) = 3.29327 3.82965 3.57154
# Velocity P-wave (km/s) = 5.80278 6.73206 6.28462
#
# Compressibility (1/GPa) = 0.02234998
#
# Stress axis : x y z
#
# Youngs Moduli (GPa) = 43.78745 102.68741 88.08881
#
# Poissons Ratio (x) = 0.30201 0.35297
# Poissons Ratio (y) = 0.12878 0.33835
# Poissons Ratio (z) = 0.17546 0.39442
#
# Static dielectric constant tensor:
#      x y z
#    x 1.941520 0.000000 -0.040180 
#    y 0.000000 1.900260 0.000000 
#    z -0.040180 0.000000 1.953880 
# 
# From -- ./inp_files/133309.got.cif
#   From: 2010.05.17/outbox.cif.g08.bks.cpg/sg15_67_cif.got.tgz:133309.got - 2010.06.03 18:47:42.
