data_PCOD9295652
_publ_section_title
;
Structure prediction by ZEFSAII (Michael W. Deem and Ramdas Pophale) SiO2 
 PCOD9295652
Probable space group: C 2/C
;
_chemical_formula_sum "Si O2"
_cell_formula_units_Z 56
_cell_length_a 13.754033
_cell_length_b 11.721554
_cell_length_c 29.960395
_cell_angle_alpha 90.000000
_cell_angle_beta 30.619693
_cell_angle_gamma 90.000000
_cell_volume 2460.187520
_symmetry_space_group_name_H-M "C 2/C"
_symmetry_group_IT_number 15
_symmetry_cell_setting 'monoclinic'
loop_
_space_group_symop_operation_xyz
x,y,z
-x,y,1/2-z
-x,-y,-z
x,-y,1/2+z
1/2+x,1/2+y,z
1/2-x,1/2+y,1/2-z
1/2-x,1/2-y,-z
1/2+x,1/2-y,1/2+z
loop_
_atom_site_type_symbol
_atom_site_label
_atom_site_fract_x
_atom_site_fract_y
_atom_site_fract_z
Si Si1 0.423870 0.991254 0.579147
Si Si2 0.500000 0.012043 0.250000
Si Si3 0.495431 0.192822 0.117032
Si Si4 0.114005 0.655123 0.575242
Si Si5 0.000000 0.953012 0.750000
Si Si6 0.612308 0.562543 0.868574
Si Si7 0.225035 0.943529 0.936836
Si Si8 0.100274 0.139097 0.305919
O O1 0.534770 0.075048 0.567862
O O2 0.500000 0.000000 0.500000
O O3 0.464543 0.863486 0.580796
O O4 0.199568 0.018511 0.670336
O O5 0.659521 0.940715 0.214152
O O6 0.651340 0.077796 0.157408
O O7 0.451916 0.325216 0.132220
O O8 0.688605 0.151288 0.063090
O O9 0.327173 0.130705 0.211050
O O10 0.250000 0.750000 0.500000
O O11 0.209529 0.569405 0.572650
O O12 0.950610 0.733451 0.660477
O O13 0.991788 0.885144 0.706233
O O14 0.548035 0.453714 0.864257
O O15 0.500013 0.561953 0.960626
#
# Coordination Sequence:
#
# PCOD9295652 Si02
#       8
#     8   4   8   8   4   8   8   8
#     4  10  23  43  67 103 137 178 236 294 347 421
#     4  12  26  47  69 104 146 186 241 291 354 446
#     4  10  24  44  70 101 141 185 237 295 358 419
#     4  11  22  41  73  98 139 186 238 289 353 421
#     4  10  24  43  69 106 136 178 245 289 358 414
#     4  12  25  46  73  99 148 190 238 291 363 432
#     4  11  24  46  70 104 137 188 239 296 358 424
#     4  11  23  44  70 105 140 192 234 301 360 425
#
# _framework density 22.762492000000002
#
# number of rings (size 3 to 8) (size 9 to 14) (size 15 to 20)
#    0.000    1.143    2.857    2.571    6.000    6.286 
#    2.571    1.429    0.000    0.000    0.000    0.000 
#    0.000    0.000    0.000    0.000    0.000    0.000 
#
# Total GULP energy -156361.294451 kJ/mol
# GULP energy per Si atom -5584.331945 kJ/mol
# Density = 2.271068 g / cm^3
# Si number density = 22.762492 Si / 1000 Ang^3
#
#
#
# Elastic Constant Matrix: (Units=GPa)
#
#
# Indices 1 2 3 4 5 6 
#
# 1 64.6706 20.6642 31.3204 0.0000 0.7564 0.0000
# 2 20.6642 100.8102 5.2859 0.0000 2.6173 0.0000
# 3 31.3204 5.2859 134.3138 -0.0004 3.6888 -0.0002
# 4 0.0000 0.0000 -0.0004 33.2685 0.0002 2.2885
# 5 0.7564 2.6173 3.6888 0.0002 44.1562 -0.0001
# 6 0.0000 0.0000 -0.0002 2.2885 -0.0001 5.1445
#
#
#
# Elastic Compliance Matrix: (Units=1/GPa)
#
#
# Indices 1 2 3 4 5 6 
#
# 1 0.018655 -0.003609 -0.004215 0.000000 0.000246 0.000000
# 2 -0.003609 0.010652 0.000439 0.000000 -0.000606 0.000000
# 3 -0.004215 0.000439 0.008429 0.000000 -0.000658 0.000000
# 4 0.000000 0.000000 0.000000 0.031007 0.000000 -0.013793
# 5 0.000246 -0.000606 -0.000658 0.000000 0.022734 0.000000
# 6 0.000000 0.000000 0.000000 -0.013793 0.000000 0.200519
#
#
# Mechanical properties :
#
#
# Convention : Reuss Voigt Hill
#
# Bulk Modulus (GPa) = 43.54305 46.03728 44.79017
# Shear Modulus (GPa) = 15.90224 32.68210 24.29217
#
# Velocity S-wave (km/s) = 2.64600 3.79329 3.27035
# Velocity P-wave (km/s) = 5.33909 6.28127 5.82925
#
# Compressibility (1/GPa) = 0.02296578
#
# Stress axis : x y z
#
# Youngs Moduli (GPa) = 53.60607 93.87747 118.63980
#
# Poissons Ratio (x) = 0.33883 0.50004
# Poissons Ratio (y) = 0.19348 -0.05209
# Poissons Ratio (z) = 0.22594 -0.04122
#
# Static dielectric constant tensor:
#      x y z
#    x 1.885130 0.000000 0.030400 
#    y 0.000000 1.817940 0.000000 
#    z 0.030400 0.000000 1.963070 
# 
# From -- ./inp_files/313749.got.cif
#   From: 2010.05.17/outbox.cif.g08.bks.cpg/sg15_157_cif.got.tgz:313749.got - 2010.06.03 18:47:42.
