data_PCOD9295377
_publ_section_title
;
Structure prediction by ZEFSAII (Michael W. Deem and Ramdas Pophale) SiO2 
 PCOD9295377
Probable space group: C 2/C
;
_chemical_formula_sum "Si O2"
_cell_formula_units_Z 32
_cell_length_a 14.781139
_cell_length_b 10.824707
_cell_length_c 8.470520
_cell_angle_alpha 90.000000
_cell_angle_beta 100.699994
_cell_angle_gamma 90.000000
_cell_volume 1331.731116
_symmetry_space_group_name_H-M "C 2/C"
_symmetry_group_IT_number 15
_symmetry_cell_setting 'monoclinic'
loop_
_space_group_symop_operation_xyz
x,y,z
-x,y,1/2-z
-x,-y,-z
x,-y,1/2+z
1/2+x,1/2+y,z
1/2-x,1/2+y,1/2-z
1/2-x,1/2-y,-z
1/2+x,1/2-y,1/2+z
loop_
_atom_site_type_symbol
_atom_site_label
_atom_site_fract_x
_atom_site_fract_y
_atom_site_fract_z
Si Si1 0.214493 0.869653 0.584897
Si Si2 0.590098 0.948450 0.888615
Si Si3 0.400467 0.433754 0.647548
Si Si4 0.472196 0.797599 0.058408
O O1 0.250000 0.750000 0.500000
O O2 0.311994 0.934271 0.657511
O O3 0.157307 0.868634 0.729868
O O4 0.155694 0.954724 0.446361
O O5 0.500000 0.953513 0.750000
O O6 0.589664 0.080101 0.977058
O O7 0.562987 0.832458 0.990372
O O8 0.500000 0.473028 0.750000
O O9 0.421753 0.331601 0.517253
O O10 0.500000 0.788975 0.250000
#
# Coordination Sequence:
#
# PCOD9295377 Si02
#       4
#     8   8   8   8
#     4  12  28  44  72 107 142 186 246 288 352 434
#     4  10  23  42  70 104 139 180 238 294 352 415
#     4  11  26  48  72  99 147 189 235 294 362 416
#     4   9  20  42  72  95 140 178 231 295 360 409
#
# _framework density 24.028873000000001
#
# number of rings (size 3 to 8) (size 9 to 14) (size 15 to 20)
#    0.000    1.500    0.000    3.750   14.000    4.000 
#    0.000    0.000    0.000    0.000    0.000    0.000 
#    0.000    0.000    0.000    0.000    0.000    0.000 
#
# Total GULP energy -89329.072912 kJ/mol
# GULP energy per Si atom -5583.067057 kJ/mol
# Density = 2.397418 g / cm^3
# Si number density = 24.028873 Si / 1000 Ang^3
#
#
#
# Elastic Constant Matrix: (Units=GPa)
#
#
# Indices 1 2 3 4 5 6 
#
# 1 209.1922 61.6004 42.2428 0.0000 -13.9356 0.0000
# 2 61.6004 158.1486 38.8079 0.0000 -1.3617 0.0000
# 3 42.2428 38.8079 55.3072 0.0000 -1.0738 0.0000
# 4 0.0000 0.0000 0.0000 26.4028 0.0000 -8.8977
# 5 -13.9356 -1.3617 -1.0738 0.0000 44.5629 0.0000
# 6 0.0000 0.0000 0.0000 -8.8977 0.0000 7.4908
#
#
#
# Elastic Compliance Matrix: (Units=1/GPa)
#
#
# Indices 1 2 3 4 5 6 
#
# 1 0.006048 -0.001468 -0.003555 0.000000 0.001761 0.000000
# 2 -0.001468 0.007995 -0.004495 0.000000 -0.000323 0.000000
# 3 -0.003555 -0.004495 0.023937 0.000000 -0.000672 0.000000
# 4 0.000000 0.000000 0.000000 0.063156 0.000000 0.075017
# 5 0.001761 -0.000323 -0.000672 0.000000 0.022965 0.000000
# 6 0.000000 0.000000 0.000000 0.075017 0.000000 0.222604
#
#
# Mechanical properties :
#
#
# Convention : Reuss Voigt Hill
#
# Bulk Modulus (GPa) = 52.78726 78.66114 65.72420
# Shear Modulus (GPa) = 13.43888 34.35775 23.89832
#
# Velocity S-wave (km/s) = 2.36748 3.78544 3.15710
# Velocity P-wave (km/s) = 5.43040 7.20509 6.37975
#
# Compressibility (1/GPa) = 0.01894397
#
# Stress axis : x y z
#
# Youngs Moduli (GPa) = 165.35071 125.07365 41.77640
#
# Poissons Ratio (x) = 0.18363 0.14851
# Poissons Ratio (y) = 0.24277 0.18779
# Poissons Ratio (z) = 0.58779 0.56221
#
# Static dielectric constant tensor:
#      x y z
#    x 1.910580 0.000000 -0.007970 
#    y 0.000000 2.104740 0.000000 
#    z -0.007970 0.000000 1.976670 
# 
# From -- ./inp_files/36554.got.cif
#   From: 2010.05.17/outbox.cif.g08.bks.cpg/sg15_19_cif.got.tgz:36554.got - 2010.06.03 18:47:42.
