data_PCOD9295332
_publ_section_title
;
Structure prediction by ZEFSAII (Michael W. Deem and Ramdas Pophale) SiO2 
 PCOD9295332
Probable space group: C 2/C
;
_chemical_formula_sum "Si O2"
_cell_formula_units_Z 44
_cell_length_a 33.781969
_cell_length_b 5.269486
_cell_length_c 13.701806
_cell_angle_alpha 90.000000
_cell_angle_beta 55.097154
_cell_angle_gamma 90.000000
_cell_volume 2000.369670
_symmetry_space_group_name_H-M "C 2/C"
_symmetry_group_IT_number 15
_symmetry_cell_setting 'monoclinic'
loop_
_space_group_symop_operation_xyz
x,y,z
-x,y,1/2-z
-x,-y,-z
x,-y,1/2+z
1/2+x,1/2+y,z
1/2-x,1/2+y,1/2-z
1/2-x,1/2-y,-z
1/2+x,1/2-y,1/2+z
loop_
_atom_site_type_symbol
_atom_site_label
_atom_site_fract_x
_atom_site_fract_y
_atom_site_fract_z
Si Si1 0.895592 0.028829 0.365267
Si Si2 0.366658 0.240007 0.717770
Si Si3 0.220450 0.718257 0.809866
Si Si4 0.475226 0.754921 0.991118
Si Si5 0.848688 0.524760 0.440151
Si Si6 0.000000 0.065913 0.750000
O O1 0.885722 0.747283 0.414300
O O2 0.951950 0.091638 0.291851
O O3 0.876073 0.033246 0.281721
O O4 0.865590 0.252735 0.459523
O O5 0.418653 0.215632 0.594358
O O6 0.324960 0.263267 0.697819
O O7 0.351543 0.027554 0.819941
O O8 0.248685 0.983075 0.775848
O O9 0.200685 0.619271 0.942340
O O10 0.486656 0.733335 0.861356
O O11 0.500000 0.500000 0.000000
O O12 0.500000 0.000000 0.000000
#
# Coordination Sequence:
#
# PCOD9295332 Si02
#       6
#     8   8   8   8   8   4
#     4  10  23  42  69 100 137 192 223 287 350 408
#     4  10  26  46  71  99 147 180 237 292 349 423
#     4  12  28  45  72 105 132 182 238 295 362 423
#     4  12  26  44  71 110 144 194 243 284 356 426
#     4  10  23  47  67  98 138 182 226 292 360 411
#     4  12  24  44  74 106 154 188 248 286 342 436
#
# _framework density 21.995936
#
# number of rings (size 3 to 8) (size 9 to 14) (size 15 to 20)
#    1.091    0.000    1.818    3.273    2.545    5.818 
#    0.000    0.000    0.000    0.000    0.000    0.000 
#    0.000    0.000    0.000    0.000    0.000    0.000 
#
# Total GULP energy -122714.670194 kJ/mol
# GULP energy per Si atom -5577.939554 kJ/mol
# Density = 2.194587 g / cm^3
# Si number density = 21.995936 Si / 1000 Ang^3
#
#
#
# Elastic Constant Matrix: (Units=GPa)
#
#
# Indices 1 2 3 4 5 6 
#
# 1 130.3545 44.1788 48.7114 0.0000 -8.2303 0.0000
# 2 44.1788 75.6371 17.0558 0.0000 12.8953 0.0000
# 3 48.7114 17.0558 126.1904 0.0000 6.6961 0.0000
# 4 0.0000 0.0000 0.0000 17.1594 0.0000 -4.1501
# 5 -8.2303 12.8953 6.6961 0.0000 33.4350 0.0000
# 6 0.0000 0.0000 0.0000 -4.1501 0.0000 15.9565
#
#
#
# Elastic Compliance Matrix: (Units=1/GPa)
#
#
# Indices 1 2 3 4 5 6 
#
# 1 0.012044 -0.007248 -0.004018 0.000000 0.006565 0.000000
# 2 -0.007248 0.018857 0.000737 0.000000 -0.009205 0.000000
# 3 -0.004018 0.000737 0.009545 0.000000 -0.003185 0.000000
# 4 0.000000 0.000000 0.000000 0.062189 0.000000 0.016175
# 5 0.006565 -0.009205 -0.003185 0.000000 0.035713 0.000000
# 6 0.000000 0.000000 0.000000 0.016175 0.000000 0.066877
#
#
# Mechanical properties :
#
#
# Convention : Reuss Voigt Hill
#
# Bulk Modulus (GPa) = 51.57398 61.34154 56.45776
# Shear Modulus (GPa) = 21.48281 28.12591 24.80436
#
# Velocity S-wave (km/s) = 3.12857 3.57975 3.36174
# Velocity P-wave (km/s) = 6.04554 6.71077 6.38682
#
# Compressibility (1/GPa) = 0.01938962
#
# Stress axis : x y z
#
# Youngs Moduli (GPa) = 83.03174 53.02966 104.76927
#
# Poissons Ratio (x) = 0.38435 0.42094
# Poissons Ratio (y) = 0.60179 -0.07726
# Poissons Ratio (z) = 0.33360 -0.03911
#
# Static dielectric constant tensor:
#      x y z
#    x 1.783830 0.000000 0.013940 
#    y 0.000000 1.807470 0.000000 
#    z 0.013940 0.000000 1.862350 
# 
# From -- ./inp_files/179623.got.cif
#   From: 2010.05.17/outbox.cif.g08.bks.cpg/sg15_90_cif.got.tgz:179623.got - 2010.06.03 18:47:42.
