data_PCOD9295912
_publ_section_title
;
Structure prediction by ZEFSAII (Michael W. Deem and Ramdas Pophale) SiO2 
 PCOD9295912
Probable space group: C 2/C
;
_chemical_formula_sum "Si O2"
_cell_formula_units_Z 48
_cell_length_a 19.981463
_cell_length_b 10.817847
_cell_length_c 15.208975
_cell_angle_alpha 90.000000
_cell_angle_beta 137.612273
_cell_angle_gamma 90.000000
_cell_volume 2216.260780
_symmetry_space_group_name_H-M "C 2/C"
_symmetry_group_IT_number 15
_symmetry_cell_setting 'monoclinic'
loop_
_space_group_symop_operation_xyz
x,y,z
-x,y,1/2-z
-x,-y,-z
x,-y,1/2+z
1/2+x,1/2+y,z
1/2-x,1/2+y,1/2-z
1/2-x,1/2-y,-z
1/2+x,1/2-y,1/2+z
loop_
_atom_site_type_symbol
_atom_site_label
_atom_site_fract_x
_atom_site_fract_y
_atom_site_fract_z
Si Si1 0.409397 0.196628 0.619638
Si Si2 0.242667 0.118979 0.597471
Si Si3 0.028067 0.466893 0.927287
Si Si4 0.379587 0.370778 0.035544
Si Si5 0.088388 0.219562 0.742345
Si Si6 0.288096 0.169117 0.838032
O O1 0.500000 0.274231 0.750000
O O2 0.329175 0.147318 0.611956
O O3 0.342298 0.276461 0.489514
O O4 0.468416 0.087796 0.628254
O O5 0.288185 0.124784 0.738458
O O6 0.186140 0.992312 0.520696
O O7 0.958550 0.355076 0.824051
O O8 0.142525 0.422976 0.039991
O O9 0.000000 0.500000 0.000000
O O10 0.372016 0.291981 0.119188
O O11 0.498502 0.377936 0.142704
O O12 0.340468 0.299114 0.911602
O O13 0.177392 0.184788 0.765196
#
# Coordination Sequence:
#
# PCOD9295912 Si02
#       6
#     8   8   8   8   8   8
#     4  11  26  43  69  96 137 177 226 274 354 414
#     4  11  26  45  65  99 139 181 221 284 346 410
#     4  11  24  43  72 104 134 175 228 289 339 409
#     4  10  24  43  68  99 132 177 231 281 340 408
#     4  10  23  43  72  98 133 175 234 281 344 401
#     4  11  24  41  68 101 133 173 227 281 340 403
#
# _framework density 21.658103000000001
#
# number of rings (size 3 to 8) (size 9 to 14) (size 15 to 20)
#    0.000    1.333    0.000    3.500   14.000    2.000 
#    0.000    0.000    0.000    0.000    0.000    0.000 
#    0.000    0.000    0.000    0.000    0.000    0.000 
#
# Total GULP energy -134074.445218 kJ/mol
# GULP energy per Si atom -5586.435217 kJ/mol
# Density = 2.160881 g / cm^3
# Si number density = 21.658103 Si / 1000 Ang^3
#
#
#
# Elastic Constant Matrix: (Units=GPa)
#
#
# Indices 1 2 3 4 5 6 
#
# 1 68.7802 10.6415 33.4253 0.0000 0.6183 0.0000
# 2 10.6415 61.9591 41.9563 0.0000 -6.1164 0.0000
# 3 33.4253 41.9563 119.1558 0.0000 2.4990 0.0000
# 4 0.0000 0.0000 0.0000 13.5358 0.0000 2.9105
# 5 0.6183 -6.1164 2.4990 0.0000 43.3712 0.0000
# 6 0.0000 0.0000 0.0000 2.9105 0.0000 23.2432
#
#
#
# Elastic Compliance Matrix: (Units=1/GPa)
#
#
# Indices 1 2 3 4 5 6 
#
# 1 0.016842 0.000417 -0.004874 0.000000 0.000100 0.000000
# 2 0.000417 0.021723 -0.007840 0.000000 0.003509 0.000000
# 3 -0.004874 -0.007840 0.012557 0.000000 -0.001760 0.000000
# 4 0.000000 0.000000 0.000000 0.075923 0.000000 -0.009507
# 5 0.000100 0.003509 -0.001760 0.000000 0.023652 0.000000
# 6 0.000000 0.000000 0.000000 -0.009507 0.000000 0.044214
#
#
# Mechanical properties :
#
#
# Convention : Reuss Voigt Hill
#
# Bulk Modulus (GPa) = 37.69274 46.88237 42.28755
# Shear Modulus (GPa) = 21.89667 26.95482 24.42574
#
# Velocity S-wave (km/s) = 3.18310 3.53166 3.36190
# Velocity P-wave (km/s) = 5.56334 6.19062 5.88534
#
# Compressibility (1/GPa) = 0.02653031
#
# Stress axis : x y z
#
# Youngs Moduli (GPa) = 59.37536 46.03386 79.63794
#
# Poissons Ratio (x) = -0.01921 0.38812
# Poissons Ratio (y) = -0.02478 0.62433
# Poissons Ratio (z) = 0.28937 0.36089
#
# Static dielectric constant tensor:
#      x y z
#    x 1.784220 0.000000 0.028740 
#    y 0.000000 1.816300 0.000000 
#    z 0.028740 0.000000 1.908330 
# 
# From -- ./inp_files/167907.got.cif
#   From: 2010.05.17/outbox.cif.g08.bks.cpg/sg15_84_cif.got.tgz:167907.got - 2010.06.03 18:47:42.
