data_PCOD9295076
_publ_section_title
;
Structure prediction by ZEFSAII (Michael W. Deem and Ramdas Pophale) SiO2 
 PCOD9295076
Probable space group: C 2/C
;
_chemical_formula_sum "Si O2"
_cell_formula_units_Z 48
_cell_length_a 13.352549
_cell_length_b 19.606965
_cell_length_c 12.258535
_cell_angle_alpha 90.000000
_cell_angle_beta 134.002687
_cell_angle_gamma 90.000000
_cell_volume 2308.487600
_symmetry_space_group_name_H-M "C 2/C"
_symmetry_group_IT_number 15
_symmetry_cell_setting 'monoclinic'
loop_
_space_group_symop_operation_xyz
x,y,z
-x,y,1/2-z
-x,-y,-z
x,-y,1/2+z
1/2+x,1/2+y,z
1/2-x,1/2+y,1/2-z
1/2-x,1/2-y,-z
1/2+x,1/2-y,1/2+z
loop_
_atom_site_type_symbol
_atom_site_label
_atom_site_fract_x
_atom_site_fract_y
_atom_site_fract_z
Si Si1 0.862511 0.549053 0.220182
Si Si2 0.264158 0.095742 0.614666
Si Si3 0.935638 0.688221 0.910332
Si Si4 0.472294 0.334134 0.855011
Si Si5 0.150953 0.684827 0.415157
Si Si6 0.313674 0.892323 0.900496
O O1 0.765581 0.482998 0.149777
O O2 0.802231 0.619203 0.120941
O O3 0.892575 0.563165 0.370276
O O4 0.000000 0.536015 0.250000
O O5 0.368813 0.141689 0.765452
O O6 0.313169 0.090033 0.526391
O O7 0.114115 0.132345 0.504905
O O8 0.917508 0.768138 0.876826
O O9 0.873567 0.664429 0.978096
O O10 0.102353 0.678457 0.040021
O O11 0.500000 0.312632 0.750000
O O12 0.345739 0.386985 0.755722
O O13 0.250000 0.750000 0.500000
O O14 0.000000 0.704037 0.250000
#
# Coordination Sequence:
#
# PCOD9295076 Si02
#       6
#     8   8   8   8   8   8
#     4  11  23  44  65  95 134 174 229 274 328 402
#     4  11  26  39  67 102 128 178 222 273 344 393
#     4  12  22  40  69  97 131 173 223 276 328 404
#     4  10  23  42  63  98 137 168 216 276 338 396
#     4  11  25  45  67 100 133 182 227 278 333 397
#     4  11  22  42  65  91 133 171 215 279 322 398
#
# _framework density 20.792833999999999
#
# number of rings (size 3 to 8) (size 9 to 14) (size 15 to 20)
#    0.000    1.000    3.333    4.500    4.667    4.667 
#    0.000    2.500    0.000    0.000    0.000    0.000 
#    0.000    0.000    0.000    0.000    0.000    0.000 
#
# Total GULP energy -133901.047090 kJ/mol
# GULP energy per Si atom -5579.210295 kJ/mol
# Density = 2.074551 g / cm^3
# Si number density = 20.792834 Si / 1000 Ang^3
#
#
#
# Elastic Constant Matrix: (Units=GPa)
#
#
# Indices 1 2 3 4 5 6 
#
# 1 77.4051 18.9048 52.7603 0.0000 -20.7910 0.0000
# 2 18.9048 126.2751 59.0593 0.0000 -1.5535 0.0000
# 3 52.7603 59.0593 114.6246 0.0000 -1.5455 0.0000
# 4 0.0000 0.0000 0.0000 22.5878 0.0000 3.3326
# 5 -20.7910 -1.5535 -1.5455 0.0000 37.0141 0.0000
# 6 0.0000 0.0000 0.0000 3.3326 0.0000 9.5039
#
#
#
# Elastic Compliance Matrix: (Units=1/GPa)
#
#
# Indices 1 2 3 4 5 6 
#
# 1 0.024135 0.002189 -0.012060 0.000000 0.013145 0.000000
# 2 0.002189 0.010634 -0.006467 0.000000 0.001406 0.000000
# 3 -0.012060 -0.006467 0.017522 0.000000 -0.006314 0.000000
# 4 0.000000 0.000000 0.000000 0.046687 0.000000 -0.016371
# 5 0.013145 0.001406 -0.006314 0.000000 0.034196 0.000000
# 6 0.000000 0.000000 0.000000 -0.016371 0.000000 0.110961
#
#
# Mechanical properties :
#
#
# Convention : Reuss Voigt Hill
#
# Bulk Modulus (GPa) = 50.98270 64.41706 57.69988
# Shear Modulus (GPa) = 17.64606 26.32653 21.98630
#
# Velocity S-wave (km/s) = 2.91634 3.56214 3.25529
# Velocity P-wave (km/s) = 5.99271 6.92576 6.47606
#
# Compressibility (1/GPa) = 0.01961450
#
# Stress axis : x y z
#
# Youngs Moduli (GPa) = 41.43304 94.04111 57.07045
#
# Poissons Ratio (x) = -0.20583 0.68825
# Poissons Ratio (y) = -0.09069 0.36910
# Poissons Ratio (z) = 0.49967 0.60820
#
# Static dielectric constant tensor:
#      x y z
#    x 1.762400 0.000000 -0.014210 
#    y 0.000000 1.775990 0.000000 
#    z -0.014210 0.000000 1.741350 
# 
# From -- ./inp_files/89794.got.cif
#   From: 2010.05.17/outbox.cif.g08.bks.cpg/sg15_45_cif.got.tgz:89794.got - 2010.06.03 18:47:42.
