data_PCOD9295223
_publ_section_title
;
Structure prediction by ZEFSAII (Michael W. Deem and Ramdas Pophale) SiO2 
 PCOD9295223
Probable space group: C 2/C
;
_chemical_formula_sum "Si O2"
_cell_formula_units_Z 40
_cell_length_a 13.555096
_cell_length_b 16.013577
_cell_length_c 16.162441
_cell_angle_alpha 90.000000
_cell_angle_beta 147.719029
_cell_angle_gamma 90.000000
_cell_volume 1873.688456
_symmetry_space_group_name_H-M "C 2/C"
_symmetry_group_IT_number 15
_symmetry_cell_setting 'monoclinic'
loop_
_space_group_symop_operation_xyz
x,y,z
-x,y,1/2-z
-x,-y,-z
x,-y,1/2+z
1/2+x,1/2+y,z
1/2-x,1/2+y,1/2-z
1/2-x,1/2-y,-z
1/2+x,1/2-y,1/2+z
loop_
_atom_site_type_symbol
_atom_site_label
_atom_site_fract_x
_atom_site_fract_y
_atom_site_fract_z
Si Si1 0.685154 0.342967 0.433259
Si Si2 0.032435 0.471813 0.929089
Si Si3 0.308396 0.853790 0.989648
Si Si4 0.137738 0.076223 0.077767
Si Si5 0.032732 0.802247 0.646283
O O1 0.500000 0.338950 0.250000
O O2 0.750000 0.250000 0.500000
O O3 0.645765 0.394857 0.488917
O O4 0.840628 0.391032 0.491211
O O5 0.840043 0.453174 0.748881
O O6 0.000000 0.500000 0.000000
O O7 0.137850 0.550575 0.965645
O O8 0.166836 0.834331 0.963278
O O9 0.188719 0.830887 0.822590
O O10 0.492381 0.796717 0.118564
O O11 0.080975 0.155701 0.093924
O O12 0.000000 0.000000 0.000000
#
# Coordination Sequence:
#
# PCOD9295223 Si02
#       5
#     8   8   8   8   8
#     4  12  29  51  75 106 151 195 247 312 373 450
#     4  12  25  45  72 106 142 195 241 302 365 446
#     4  10  23  43  69 101 146 178 242 289 371 417
#     4  12  26  45  72 106 142 194 249 298 376 436
#     4  10  23  42  67 102 136 187 230 305 350 444
#
# _framework density 21.348265999999999
#
# number of rings (size 3 to 8) (size 9 to 14) (size 15 to 20)
#    0.000    0.800    2.000    4.200    8.400    1.600 
#    3.600    0.000    0.000    0.000    0.000    0.000 
#    0.000    0.000    0.000    0.000    0.000    0.000 
#
# Total GULP energy -111968.039266 kJ/mol
# GULP energy per Si atom -5598.401963 kJ/mol
# Density = 2.129968 g / cm^3
# Si number density = 21.348266 Si / 1000 Ang^3
#
#
#
# Elastic Constant Matrix: (Units=GPa)
#
#
# Indices 1 2 3 4 5 6 
#
# 1 103.1341 34.6306 47.0470 -0.0006 -16.6216 -0.0001
# 2 34.6306 147.5086 64.3152 0.0030 13.3555 0.0018
# 3 47.0470 64.3152 182.2905 0.0099 5.2605 0.0044
# 4 -0.0006 0.0030 0.0099 40.8696 0.0039 11.1519
# 5 -16.6216 13.3555 5.2605 0.0039 33.1585 0.0010
# 6 -0.0001 0.0018 0.0044 11.1519 0.0010 42.0159
#
#
#
# Elastic Compliance Matrix: (Units=1/GPa)
#
#
# Indices 1 2 3 4 5 6 
#
# 1 0.013104 -0.002635 -0.002685 0.000000 0.008056 0.000000
# 2 -0.002635 0.008807 -0.002297 0.000000 -0.004504 0.000000
# 3 -0.002685 -0.002297 0.007033 -0.000001 -0.001536 0.000000
# 4 0.000000 0.000000 -0.000001 0.026378 -0.000003 -0.007001
# 5 0.008056 -0.004504 -0.001536 -0.000003 0.036254 0.000000
# 6 0.000000 0.000000 0.000000 -0.007001 0.000000 0.025659
#
#
# Mechanical properties :
#
#
# Convention : Reuss Voigt Hill
#
# Bulk Modulus (GPa) = 72.93748 80.54656 76.74202
# Shear Modulus (GPa) = 36.48535 42.33816 39.41175
#
# Velocity S-wave (km/s) = 4.13856 4.45816 4.30133
# Velocity P-wave (km/s) = 7.55490 8.01947 7.79065
#
# Compressibility (1/GPa) = 0.01371037
#
# Stress axis : x y z
#
# Youngs Moduli (GPa) = 76.31221 113.54106 142.17673
#
# Poissons Ratio (x) = 0.29921 0.38170
# Poissons Ratio (y) = 0.20110 0.32662
# Poissons Ratio (z) = 0.20488 0.26084
#
# Static dielectric constant tensor:
#      x y z
#    x 1.838380 0.000000 -0.026510 
#    y 0.000000 1.781240 0.000000 
#    z -0.026510 0.000000 1.724860 
# 
# From -- ./inp_files/205830.got.cif
#   From: 2010.05.17/outbox.cif.g08.bks.cpg/sg15_103_cif.got.tgz:205830.got - 2010.06.03 18:47:42.
