data_PCOD9295412
_publ_section_title
;
Structure prediction by ZEFSAII (Michael W. Deem and Ramdas Pophale) SiO2 
 PCOD9295412
Probable space group: C 2/C
;
_chemical_formula_sum "Si O2"
_cell_formula_units_Z 36
_cell_length_a 12.608737
_cell_length_b 15.564733
_cell_length_c 11.236573
_cell_angle_alpha 90.000000
_cell_angle_beta 43.680859
_cell_angle_gamma 90.000000
_cell_volume 1522.998235
_symmetry_space_group_name_H-M "C 2/C"
_symmetry_group_IT_number 15
_symmetry_cell_setting 'monoclinic'
loop_
_space_group_symop_operation_xyz
x,y,z
-x,y,1/2-z
-x,-y,-z
x,-y,1/2+z
1/2+x,1/2+y,z
1/2-x,1/2+y,1/2-z
1/2-x,1/2-y,-z
1/2+x,1/2-y,1/2+z
loop_
_atom_site_type_symbol
_atom_site_label
_atom_site_fract_x
_atom_site_fract_y
_atom_site_fract_z
Si Si1 0.224006 0.702477 0.148777
Si Si2 0.000000 0.869662 0.750000
Si Si3 0.518924 0.953551 0.612045
Si Si4 0.566490 0.663392 0.949266
Si Si5 0.640912 0.537296 0.715680
O O1 0.098369 0.625887 0.272227
O O2 0.390781 0.671901 0.053434
O O3 0.165920 0.774132 0.288265
O O4 0.250000 0.750000 0.000000
O O5 0.076616 0.819847 0.580565
O O6 0.121852 0.935722 0.711280
O O7 0.500000 0.007771 0.750000
O O8 0.698323 0.929707 0.462705
O O9 0.500000 0.000000 0.500000
O O10 0.622465 0.568266 0.865690
O O11 0.500000 0.573080 0.750000
#
# Coordination Sequence:
#
# PCOD9295412 Si02
#       5
#     8   4   8   8   8
#     4  12  26  46  74 103 140 188 244 298 361 437
#     4  10  26  40  70 102 142 188 232 288 370 422
#     4  12  26  45  70 110 144 185 243 302 364 437
#     4  12  23  45  69 101 143 185 240 293 354 433
#     4  10  23  42  70  99 141 183 238 283 355 424
#
# _framework density 23.637584
#
# number of rings (size 3 to 8) (size 9 to 14) (size 15 to 20)
#    0.667    0.000    0.000    9.333    3.111    0.889 
#    2.000    0.000    0.000    0.000    0.000    0.000 
#    0.000    0.000    0.000    0.000    0.000    0.000 
#
# Total GULP energy -100521.013527 kJ/mol
# GULP energy per Si atom -5584.500751 kJ/mol
# Density = 2.358378 g / cm^3
# Si number density = 23.637584 Si / 1000 Ang^3
#
#
#
# Elastic Constant Matrix: (Units=GPa)
#
#
# Indices 1 2 3 4 5 6 
#
# 1 76.5381 20.7825 70.2724 -0.0001 19.6429 0.0001
# 2 20.7825 69.8345 61.2005 0.0000 18.0815 0.0000
# 3 70.2724 61.2005 230.3204 -0.0001 34.6257 0.0001
# 4 -0.0001 0.0000 -0.0001 46.8937 0.0001 8.4307
# 5 19.6429 18.0815 34.6257 0.0001 73.6513 -0.0001
# 6 0.0001 0.0000 0.0001 8.4307 -0.0001 3.6471
#
#
#
# Elastic Compliance Matrix: (Units=1/GPa)
#
#
# Indices 1 2 3 4 5 6 
#
# 1 0.018561 -0.000330 -0.005212 0.000000 -0.002419 -0.000001
# 2 -0.000330 0.019083 -0.004604 0.000000 -0.002432 0.000000
# 3 -0.005212 -0.004604 0.007292 0.000000 -0.000908 0.000000
# 4 0.000000 0.000000 0.000000 0.036490 0.000000 -0.084350
# 5 -0.002419 -0.002432 -0.000908 0.000000 0.015247 0.000001
# 6 -0.000001 0.000000 0.000000 -0.084350 0.000001 0.469172
#
#
# Mechanical properties :
#
#
# Convention : Reuss Voigt Hill
#
# Bulk Modulus (GPa) = 40.57897 75.68931 58.13414
# Shear Modulus (GPa) = 8.41256 39.80093 24.10674
#
# Velocity S-wave (km/s) = 1.88857 4.10786 3.19697
# Velocity P-wave (km/s) = 4.68615 7.38848 6.18667
#
# Compressibility (1/GPa) = 0.02464331
#
# Stress axis : x y z
#
# Youngs Moduli (GPa) = 53.87680 52.40400 137.13994
#
# Poissons Ratio (x) = 0.01729 0.71473
# Poissons Ratio (y) = 0.01778 0.63143
# Poissons Ratio (z) = 0.28079 0.24128
#
# Static dielectric constant tensor:
#      x y z
#    x 1.979180 0.000000 0.058680 
#    y 0.000000 2.008580 0.000000 
#    z 0.058680 0.000000 1.898870 
# 
# From -- ./inp_files/97660.got.cif
#   From: 2010.05.17/outbox.cif.g08.bks.cpg/sg15_49_cif.got.tgz:97660.got - 2010.06.03 18:47:42.
