data_PCOD9295057
_publ_section_title
;
Structure prediction by ZEFSAII (Michael W. Deem and Ramdas Pophale) SiO2 
 PCOD9295057
Probable space group: C 2/C
;
_chemical_formula_sum "Si O2"
_cell_formula_units_Z 36
_cell_length_a 5.725717
_cell_length_b 17.900311
_cell_length_c 15.785918
_cell_angle_alpha 90.000000
_cell_angle_beta 103.344221
_cell_angle_gamma 90.000000
_cell_volume 1574.249622
_symmetry_space_group_name_H-M "C 2/C"
_symmetry_group_IT_number 15
_symmetry_cell_setting 'monoclinic'
loop_
_space_group_symop_operation_xyz
x,y,z
-x,y,1/2-z
-x,-y,-z
x,-y,1/2+z
1/2+x,1/2+y,z
1/2-x,1/2+y,1/2-z
1/2-x,1/2-y,-z
1/2+x,1/2-y,1/2+z
loop_
_atom_site_type_symbol
_atom_site_label
_atom_site_fract_x
_atom_site_fract_y
_atom_site_fract_z
Si Si1 0.425483 0.318816 0.486706
Si Si2 0.922999 0.728491 0.340724
Si Si3 0.012396 0.429366 0.397019
Si Si4 0.500000 0.827495 0.250000
Si Si5 0.143893 0.408500 0.928903
O O1 0.250000 0.250000 0.500000
O O2 0.566298 0.281994 0.418217
O O3 0.254329 0.384982 0.441122
O O4 0.617006 0.358457 0.564852
O O5 0.674102 0.771820 0.313208
O O6 0.000000 0.723570 0.250000
O O7 0.932353 0.647152 0.382735
O O8 0.095535 0.512764 0.380455
O O9 0.890154 0.383489 0.310740
O O10 0.861677 0.428132 0.471399
#
# Coordination Sequence:
#
# PCOD9295057 Si02
#       5
#     8   8   8   4   8
#     4  11  22  40  65  92 122 166 213 264 314 380
#     4  11  24  37  65  90 125 163 210 262 309 380
#     4  10  23  42  63  91 127 166 207 265 315 384
#     4  10  24  42  60  92 126 160 206 262 318 370
#     4  11  23  40  67  91 124 167 214 255 324 380
#
# _framework density 22.868039
#
# number of rings (size 3 to 8) (size 9 to 14) (size 15 to 20)
#    0.000    1.333    2.222    2.667    7.778    0.000 
#    0.000    0.000    2.444    0.000    0.000    0.000 
#    0.000    0.000    0.000    0.000    0.000    0.000 
#
# Total GULP energy -100339.539144 kJ/mol
# GULP energy per Si atom -5574.418841 kJ/mol
# Density = 2.281599 g / cm^3
# Si number density = 22.868039 Si / 1000 Ang^3
#
#
#
# Elastic Constant Matrix: (Units=GPa)
#
#
# Indices 1 2 3 4 5 6 
#
# 1 37.7603 38.4650 6.4695 0.0000 3.4808 0.0000
# 2 38.4650 212.3657 30.5693 0.0000 22.5684 0.0000
# 3 6.4695 30.5693 73.3534 0.0000 2.4153 0.0000
# 4 0.0000 0.0000 0.0000 28.9834 0.0000 1.2458
# 5 3.4808 22.5684 2.4153 0.0000 35.7729 0.0000
# 6 0.0000 0.0000 0.0000 1.2458 0.0000 27.3607
#
#
#
# Elastic Compliance Matrix: (Units=1/GPa)
#
#
# Indices 1 2 3 4 5 6 
#
# 1 0.032499 -0.005886 -0.000433 0.000000 0.000580 0.000000
# 2 -0.005886 0.006425 -0.002048 0.000000 -0.003342 0.000000
# 3 -0.000433 -0.002048 0.014513 0.000000 0.000355 0.000000
# 4 0.000000 0.000000 0.000000 0.034570 0.000000 -0.001574
# 5 0.000580 -0.003342 0.000355 0.000000 0.029982 0.000000
# 6 0.000000 0.000000 0.000000 -0.001574 0.000000 0.036620
#
#
# Mechanical properties :
#
#
# Convention : Reuss Voigt Hill
#
# Bulk Modulus (GPa) = 27.24545 52.72078 39.98311
# Shear Modulus (GPa) = 27.23640 34.95512 31.09576
#
# Velocity S-wave (km/s) = 3.45487 3.91392 3.69154
# Velocity P-wave (km/s) = 5.27777 6.59768 5.97429
#
# Compressibility (1/GPa) = 0.03670338
#
# Stress axis : x y z
#
# Youngs Moduli (GPa) = 30.77001 155.64202 68.90488
#
# Poissons Ratio (x) = 0.91609 0.02980
# Poissons Ratio (y) = 0.18111 0.14114
# Poissons Ratio (z) = 0.01331 0.31882
#
# Static dielectric constant tensor:
#      x y z
#    x 1.946610 0.000000 -0.073120 
#    y 0.000000 1.819480 0.000000 
#    z -0.073120 0.000000 1.985220 
# 
# From -- ./inp_files/184106.got.cif
#   From: 2010.05.17/outbox.cif.g08.bks.cpg/sg15_93_cif.got.tgz:184106.got - 2010.06.03 18:47:42.
