data_PCOD9295875
_publ_section_title
;
Structure prediction by ZEFSAII (Michael W. Deem and Ramdas Pophale) SiO2 
 PCOD9295875
Probable space group: C 2/C
;
_chemical_formula_sum "Si O2"
_cell_formula_units_Z 52
_cell_length_a 14.792270
_cell_length_b 10.092649
_cell_length_c 16.425386
_cell_angle_alpha 90.000000
_cell_angle_beta 119.871971
_cell_angle_gamma 90.000000
_cell_volume 2126.400434
_symmetry_space_group_name_H-M "C 2/C"
_symmetry_group_IT_number 15
_symmetry_cell_setting 'monoclinic'
loop_
_space_group_symop_operation_xyz
x,y,z
-x,y,1/2-z
-x,-y,-z
x,-y,1/2+z
1/2+x,1/2+y,z
1/2-x,1/2+y,1/2-z
1/2-x,1/2-y,-z
1/2+x,1/2-y,1/2+z
loop_
_atom_site_type_symbol
_atom_site_label
_atom_site_fract_x
_atom_site_fract_y
_atom_site_fract_z
Si Si1 0.151026 0.358876 0.222916
Si Si2 0.560896 0.237435 0.417177
Si Si3 0.619803 0.456389 0.548607
Si Si4 0.500000 0.557696 0.750000
Si Si5 0.829480 0.462950 0.089419
Si Si6 0.536828 0.140529 0.980670
Si Si7 0.801754 0.070695 0.234337
O O1 0.129597 0.422467 0.302149
O O2 0.048424 0.317185 0.126035
O O3 0.217533 0.227581 0.273483
O O4 0.207576 0.466028 0.189480
O O5 0.636015 0.312988 0.513918
O O6 0.527615 0.343121 0.335577
O O7 0.463205 0.218177 0.434831
O O8 0.614900 0.105939 0.405548
O O9 0.500000 0.500000 0.500000
O O10 0.704584 0.540818 0.538269
O O11 0.658446 0.455382 0.656907
O O12 0.602040 0.469248 0.779732
O O13 0.861432 0.374213 0.027128
O O14 0.500000 0.000000 0.000000
#
# Coordination Sequence:
#
# PCOD9295875 Si02
#       7
#     8   8   8   4   8   8   8
#     4  11  25  47  76 106 155 189 252 309 369 447
#     4  11  24  44  77 103 150 194 253 297 371 443
#     4  11  22  48  70 104 147 187 249 310 367 440
#     4  12  28  42  72 114 146 196 248 312 378 438
#     4  10  25  42  76 109 142 198 242 301 373 438
#     4  10  23  43  71 107 145 192 246 306 361 433
#     4  11  27  46  74 107 146 200 242 309 377 436
#
# _framework density 24.454471000000002
#
# number of rings (size 3 to 8) (size 9 to 14) (size 15 to 20)
#    0.000    1.231    3.077    0.923   10.769    2.462 
#    0.000    0.769    0.000    0.000    0.000    0.000 
#    0.000    0.000    0.000    0.000    0.000    0.000 
#
# Total GULP energy -145182.439339 kJ/mol
# GULP energy per Si atom -5583.939975 kJ/mol
# Density = 2.439881 g / cm^3
# Si number density = 24.454471 Si / 1000 Ang^3
#
#
#
# Elastic Constant Matrix: (Units=GPa)
#
#
# Indices 1 2 3 4 5 6 
#
# 1 175.3036 44.3835 41.1415 0.0000 -23.7856 0.0000
# 2 44.3835 110.5276 8.2372 0.0000 -10.9352 0.0000
# 3 41.1415 8.2372 69.8190 0.0000 -16.6309 0.0000
# 4 0.0000 0.0000 0.0000 47.3824 0.0000 -15.3352
# 5 -23.7856 -10.9352 -16.6309 0.0000 38.7481 0.0000
# 6 0.0000 0.0000 0.0000 -15.3352 0.0000 36.7701
#
#
#
# Elastic Compliance Matrix: (Units=1/GPa)
#
#
# Indices 1 2 3 4 5 6 
#
# 1 0.007496 -0.002511 -0.003557 0.000000 0.002366 0.000000
# 2 -0.002511 0.010166 0.000664 0.000000 0.001613 0.000000
# 3 -0.003557 0.000664 0.017672 0.000000 0.005589 0.000000
# 4 0.000000 0.000000 0.000000 0.024398 0.000000 0.010175
# 5 0.002366 0.001613 0.005589 0.000000 0.030114 0.000000
# 6 0.000000 0.000000 0.000000 0.010175 0.000000 0.031440
#
#
# Mechanical properties :
#
#
# Convention : Reuss Voigt Hill
#
# Bulk Modulus (GPa) = 40.77305 60.35272 50.56288
# Shear Modulus (GPa) = 35.64599 42.03932 38.84266
#
# Velocity S-wave (km/s) = 3.82206 4.15068 3.98975
# Velocity P-wave (km/s) = 6.01554 6.90682 6.47653
#
# Compressibility (1/GPa) = 0.02452601
#
# Stress axis : x y z
#
# Youngs Moduli (GPa) = 133.40510 98.36875 56.58750
#
# Poissons Ratio (x) = 0.24699 0.20130
# Poissons Ratio (y) = 0.33497 -0.03759
# Poissons Ratio (z) = 0.47455 -0.06535
#
# Static dielectric constant tensor:
#      x y z
#    x 2.196590 0.000000 0.042200 
#    y 0.000000 2.112090 0.000000 
#    z 0.042200 0.000000 1.936200 
# 
# From -- ./inp_files/152667.got.cif
#   From: 2010.05.17/outbox.cif.g08.bks.cpg/sg15_77_cif.got.tgz:152667.got - 2010.06.03 18:47:42.
