data_PCOD9295161
_publ_section_title
;
Structure prediction by ZEFSAII (Michael W. Deem and Ramdas Pophale) SiO2 
 PCOD9295161
Probable space group: C 2/C
;
_chemical_formula_sum "Si O2"
_cell_formula_units_Z 64
_cell_length_a 17.489984
_cell_length_b 9.321783
_cell_length_c 29.624805
_cell_angle_alpha 90.000000
_cell_angle_beta 36.534794
_cell_angle_gamma 90.000000
_cell_volume 2875.329953
_symmetry_space_group_name_H-M "C 2/C"
_symmetry_group_IT_number 15
_symmetry_cell_setting 'monoclinic'
loop_
_space_group_symop_operation_xyz
x,y,z
-x,y,1/2-z
-x,-y,-z
x,-y,1/2+z
1/2+x,1/2+y,z
1/2-x,1/2+y,1/2-z
1/2-x,1/2-y,-z
1/2+x,1/2-y,1/2+z
loop_
_atom_site_type_symbol
_atom_site_label
_atom_site_fract_x
_atom_site_fract_y
_atom_site_fract_z
Si Si1 0.402184 0.811576 0.206639
Si Si2 0.152435 0.035549 0.672032
Si Si3 0.191486 0.312173 0.481395
Si Si4 0.144171 0.883661 0.495556
Si Si5 0.215060 0.295610 0.149118
Si Si6 0.138510 0.599502 0.539351
Si Si7 0.683570 0.522885 0.760118
Si Si8 0.038067 0.115956 0.911935
O O1 0.393990 0.837241 0.263706
O O2 0.543669 0.835158 0.121145
O O3 0.352023 0.647421 0.222249
O O4 0.311570 0.927909 0.225210
O O5 0.213444 0.129260 0.602588
O O6 0.000000 0.053161 0.750000
O O7 0.182450 0.866568 0.649718
O O8 0.201005 0.067254 0.699831
O O9 0.250000 0.250000 0.500000
O O10 0.103158 0.445225 0.538420
O O11 0.093094 0.192770 0.512236
O O12 0.249421 0.906595 0.406937
O O13 0.129305 0.713002 0.503780
O O14 0.218246 0.915991 0.507448
O O15 0.005752 0.954094 0.555232
O O16 0.344889 0.309207 0.118198
O O17 0.573757 0.604717 0.841765
#
# Coordination Sequence:
#
# PCOD9295161 Si02
#       8
#     8   8   8   8   8   8   8   8
#     4  10  23  42  65  99 132 176 222 274 338 404
#     4  11  25  43  68  95 132 178 227 277 338 414
#     4  12  25  45  66 101 131 176 225 281 336 399
#     4  11  22  42  64  99 129 172 222 274 336 395
#     4  10  24  40  68  98 129 177 221 278 335 397
#     4  11  24  38  70  93 131 177 221 269 337 401
#     4  10  23  44  67  96 129 179 217 276 340 399
#     4  11  23  44  68  96 140 170 224 279 339 404
#
# _framework density 22.258315
#
# number of rings (size 3 to 8) (size 9 to 14) (size 15 to 20)
#    0.000    1.250    3.750    1.125    8.750    1.500 
#    4.500    0.000    0.000    0.000    0.000    0.000 
#    0.000    0.000    0.000    0.000    0.000    0.000 
#
# Total GULP energy -178435.715871 kJ/mol
# GULP energy per Si atom -5576.116121 kJ/mol
# Density = 2.220765 g / cm^3
# Si number density = 22.258315 Si / 1000 Ang^3
#
#
#
# Elastic Constant Matrix: (Units=GPa)
#
#
# Indices 1 2 3 4 5 6 
#
# 1 57.7613 16.6450 22.9341 -0.0001 4.0986 -0.0012
# 2 16.6450 63.9172 22.4100 -0.0001 4.3346 -0.0011
# 3 22.9341 22.4100 152.1168 0.0000 14.2084 -0.0001
# 4 -0.0001 -0.0001 0.0000 36.5286 0.0001 3.3632
# 5 4.0986 4.3346 14.2084 0.0001 32.8802 0.0000
# 6 -0.0012 -0.0011 -0.0001 3.3632 0.0000 21.5761
#
#
#
# Elastic Compliance Matrix: (Units=1/GPa)
#
#
# Indices 1 2 3 4 5 6 
#
# 1 0.019481 -0.004230 -0.002229 0.000000 -0.000907 0.000001
# 2 -0.004230 0.017459 -0.001843 0.000000 -0.000978 0.000001
# 3 -0.002229 -0.001843 0.007433 0.000000 -0.002691 0.000000
# 4 0.000000 0.000000 0.000000 0.027774 0.000000 -0.004329
# 5 -0.000907 -0.000978 -0.002691 0.000000 0.031818 0.000000
# 6 0.000001 0.000001 0.000000 -0.004329 0.000000 0.047022
#
#
# Mechanical properties :
#
#
# Convention : Reuss Voigt Hill
#
# Bulk Modulus (GPa) = 36.01169 44.19706 40.10438
# Shear Modulus (GPa) = 28.27267 32.31739 30.29503
#
# Velocity S-wave (km/s) = 3.56786 3.81455 3.69326
# Velocity P-wave (km/s) = 5.76081 6.26902 6.02028
#
# Compressibility (1/GPa) = 0.02776876
#
# Stress axis : x y z
#
# Youngs Moduli (GPa) = 51.33183 57.27605 134.53777
#
# Poissons Ratio (x) = 0.24228 0.29991
# Poissons Ratio (y) = 0.21714 0.24796
# Poissons Ratio (z) = 0.11443 0.10556
#
# Static dielectric constant tensor:
#      x y z
#    x 1.881230 0.000000 0.028740 
#    y 0.000000 1.829920 0.000000 
#    z 0.028740 0.000000 1.853390 
# 
# From -- ./inp_files/315677.got.cif
#   From: 2010.05.17/outbox.cif.g08.bks.cpg/sg15_158_cif.got.tgz:315677.got - 2010.06.03 18:47:42.
