data_PCOD9295187
_publ_section_title
;
Structure prediction by ZEFSAII (Michael W. Deem and Ramdas Pophale) SiO2 
 PCOD9295187
Probable space group: C 2/C
;
_chemical_formula_sum "Si O2"
_cell_formula_units_Z 40
_cell_length_a 9.337204
_cell_length_b 27.872609
_cell_length_c 16.193784
_cell_angle_alpha 90.000000
_cell_angle_beta 30.108035
_cell_angle_gamma 90.000000
_cell_volume 2114.112509
_symmetry_space_group_name_H-M "C 2/C"
_symmetry_group_IT_number 15
_symmetry_cell_setting 'monoclinic'
loop_
_space_group_symop_operation_xyz
x,y,z
-x,y,1/2-z
-x,-y,-z
x,-y,1/2+z
1/2+x,1/2+y,z
1/2-x,1/2+y,1/2-z
1/2-x,1/2-y,-z
1/2+x,1/2-y,1/2+z
loop_
_atom_site_type_symbol
_atom_site_label
_atom_site_fract_x
_atom_site_fract_y
_atom_site_fract_z
Si Si1 0.801554 0.198177 0.932370
Si Si2 0.727120 0.636569 0.211893
Si Si3 0.310173 0.540317 0.635609
Si Si4 0.726092 0.974236 0.831139
Si Si5 0.654734 0.363840 0.930830
O O1 0.000000 0.199802 0.750000
O O2 0.750000 0.250000 0.000000
O O3 0.502148 0.170796 0.060760
O O4 0.918292 0.169516 0.954581
O O5 0.500000 0.639814 0.250000
O O6 0.833882 0.580531 0.168514
O O7 0.579736 0.650096 0.373415
O O8 0.500000 0.500000 0.500000
O O9 0.272798 0.515825 0.741826
O O10 0.493728 0.587715 0.534017
O O11 0.000000 0.546704 0.750000
O O12 0.000000 0.967332 0.750000
O O13 0.500000 0.000000 0.000000
O O14 0.000000 0.367970 0.750000
#
# Coordination Sequence:
#
# PCOD9295187 Si02
#       5
#     8   8   8   8   8
#     4  11  25  47  75 100 126 170 219 274 339 396
#     4  10  23  43  65  96 137 173 215 278 324 383
#     4  12  24  38  60  90 131 182 222 262 323 380
#     4  11  25  37  59  91 133 175 223 267 317 381
#     4  10  23  42  66  93 134 172 222 271 327 389
#
# _framework density 18.920470000000002
#
# number of rings (size 3 to 8) (size 9 to 14) (size 15 to 20)
#    0.000    1.200    2.000    3.600   14.000    0.000 
#    0.000    5.000    0.000    0.000    0.000    0.000 
#    0.000    0.000    0.000    0.000    0.000    0.000 
#
# Total GULP energy -111342.676613 kJ/mol
# GULP energy per Si atom -5567.133831 kJ/mol
# Density = 1.887741 g / cm^3
# Si number density = 18.920470 Si / 1000 Ang^3
#
#
#
# Elastic Constant Matrix: (Units=GPa)
#
#
# Indices 1 2 3 4 5 6 
#
# 1 111.0338 48.4388 44.1843 0.0000 36.2382 0.0000
# 2 48.4388 127.7800 62.3170 0.0000 9.5871 0.0000
# 3 44.1843 62.3170 142.7017 0.0000 50.3907 0.0000
# 4 0.0000 0.0000 0.0000 32.0653 0.0000 1.4343
# 5 36.2382 9.5871 50.3907 0.0000 40.6148 0.0000
# 6 0.0000 0.0000 0.0000 1.4343 0.0000 35.3378
#
#
#
# Elastic Compliance Matrix: (Units=1/GPa)
#
#
# Indices 1 2 3 4 5 6 
#
# 1 0.016309 -0.007019 0.004572 0.000000 -0.018566 0.000000
# 2 -0.007019 0.013681 -0.008671 0.000000 0.013791 0.000000
# 3 0.004572 -0.008671 0.017969 0.000000 -0.024326 0.000000
# 4 0.000000 0.000000 0.000000 0.031243 0.000000 -0.001268
# 5 -0.018566 0.013791 -0.024326 0.000000 0.068113 0.000000
# 6 0.000000 0.000000 0.000000 -0.001268 0.000000 0.028350
#
#
# Mechanical properties :
#
#
# Convention : Reuss Voigt Hill
#
# Bulk Modulus (GPa) = 38.87797 76.82174 57.84985
# Shear Modulus (GPa) = 24.21617 36.70862 30.46240
#
# Velocity S-wave (km/s) = 3.58144 4.40950 4.01686
# Velocity P-wave (km/s) = 6.13962 8.16183 7.22186
#
# Compressibility (1/GPa) = 0.02572151
#
# Stress axis : x y z
#
# Youngs Moduli (GPa) = 61.31751 73.09585 55.65267
#
# Poissons Ratio (x) = 0.51304 -0.25442
# Poissons Ratio (y) = 0.43037 0.48256
# Poissons Ratio (z) = -0.28032 0.63381
#
# Static dielectric constant tensor:
#      x y z
#    x 1.656630 0.000000 -0.024520 
#    y 0.000000 1.633320 0.000000 
#    z -0.024520 0.000000 1.590560 
# 
# From -- ./inp_files/25396.got.cif
#   From: 2010.05.17/outbox.cif.g08.bks.cpg/sg15_13_cif.got.tgz:25396.got - 2010.06.03 18:47:42.
