data_PCOD9295095
_publ_section_title
;
Structure prediction by ZEFSAII (Michael W. Deem and Ramdas Pophale) SiO2 
 PCOD9295095
Probable space group: C 2/C
;
_chemical_formula_sum "Si O2"
_cell_formula_units_Z 28
_cell_length_a 15.028528
_cell_length_b 7.513464
_cell_length_c 11.993435
_cell_angle_alpha 90.000000
_cell_angle_beta 113.579117
_cell_angle_gamma 90.000000
_cell_volume 1241.185744
_symmetry_space_group_name_H-M "C 2/C"
_symmetry_group_IT_number 15
_symmetry_cell_setting 'monoclinic'
loop_
_space_group_symop_operation_xyz
x,y,z
-x,y,1/2-z
-x,-y,-z
x,-y,1/2+z
1/2+x,1/2+y,z
1/2-x,1/2+y,1/2-z
1/2-x,1/2-y,-z
1/2+x,1/2-y,1/2+z
loop_
_atom_site_type_symbol
_atom_site_label
_atom_site_fract_x
_atom_site_fract_y
_atom_site_fract_z
Si Si1 0.000000 0.032183 0.250000
Si Si2 0.770935 0.637412 0.121524
Si Si3 0.861006 0.305173 0.077254
Si Si4 0.880526 0.852156 0.365395
O O1 0.910083 0.160360 0.180272
O O2 0.973391 0.915748 0.343225
O O3 0.855171 0.496489 0.130496
O O4 0.677748 0.521184 0.112891
O O5 0.808160 0.758885 0.241051
O O6 0.750000 0.750000 0.000000
O O7 0.750000 0.250000 0.000000
O O8 0.907433 0.282005 0.978634
#
# Coordination Sequence:
#
# PCOD9295095 Si02
#       4
#     4   8   8   8
#     4  12  24  42  68 100 132 170 216 268 324 386
#     4  11  22  42  69  96 129 174 217 266 325 386
#     4  10  23  42  64  94 130 170 214 263 320 381
#     4  11  22  41  65  97 133 171 215 269 322 384
#
# _framework density 22.559073999999999
#
# number of rings (size 3 to 8) (size 9 to 14) (size 15 to 20)
#    0.000    1.143    0.000    9.429    0.000    1.143 
#    0.000    4.286    0.000    0.000    0.000    0.000 
#    0.000    0.000    0.000    0.000    0.000    0.000 
#
# Total GULP energy -78333.204433 kJ/mol
# GULP energy per Si atom -5595.228888 kJ/mol
# Density = 2.250773 g / cm^3
# Si number density = 22.559074 Si / 1000 Ang^3
#
#
#
# Elastic Constant Matrix: (Units=GPa)
#
#
# Indices 1 2 3 4 5 6 
#
# 1 76.9515 42.0690 9.3923 0.0000 -24.6907 0.0000
# 2 42.0690 77.5834 22.2476 0.0000 -27.0471 0.0000
# 3 9.3923 22.2476 81.1667 0.0000 -25.7133 0.0000
# 4 0.0000 0.0000 0.0000 57.8460 0.0000 -13.6782
# 5 -24.6907 -27.0471 -25.7133 0.0000 49.8539 0.0000
# 6 0.0000 0.0000 0.0000 -13.6782 0.0000 33.8375
#
#
#
# Elastic Compliance Matrix: (Units=1/GPa)
#
#
# Indices 1 2 3 4 5 6 
#
# 1 0.019649 -0.009232 0.002095 0.000000 0.005803 0.000000
# 2 -0.009232 0.020494 -0.002959 0.000000 0.005020 0.000000
# 3 0.002095 -0.002959 0.015191 0.000000 0.007268 0.000000
# 4 0.000000 0.000000 0.000000 0.019114 0.000000 0.007727
# 5 0.005803 0.005020 0.007268 0.000000 0.029405 0.000000
# 6 0.000000 0.000000 0.000000 0.007727 0.000000 0.032676
#
#
# Mechanical properties :
#
#
# Convention : Reuss Voigt Hill
#
# Bulk Modulus (GPa) = 28.45519 42.56881 35.51200
# Shear Modulus (GPa) = 29.68514 39.10699 34.39606
#
# Velocity S-wave (km/s) = 3.63145 4.16809 3.90899
# Velocity P-wave (km/s) = 5.49766 6.48652 6.01245
#
# Compressibility (1/GPa) = 0.03514297
#
# Stress axis : x y z
#
# Youngs Moduli (GPa) = 50.89422 48.79497 65.82744
#
# Poissons Ratio (x) = 0.45048 -0.13793
# Poissons Ratio (y) = 0.46986 0.19476
# Poissons Ratio (z) = -0.10664 0.14437
#
# Static dielectric constant tensor:
#      x y z
#    x 1.869880 0.000000 -0.043840 
#    y 0.000000 1.850080 0.000000 
#    z -0.043840 0.000000 1.833800 
# 
# From -- ./inp_files/140389.got.cif
#   From: 2010.05.17/outbox.cif.g08.bks.cpg/sg15_71_cif.got.tgz:140389.got - 2010.06.03 18:47:42.
