data_PCOD9295715
_publ_section_title
;
Structure prediction by ZEFSAII (Michael W. Deem and Ramdas Pophale) SiO2 
 PCOD9295715
Probable space group: C 2/C
;
_chemical_formula_sum "Si O2"
_cell_formula_units_Z 64
_cell_length_a 16.766705
_cell_length_b 12.109096
_cell_length_c 13.148815
_cell_angle_alpha 90.000000
_cell_angle_beta 87.156459
_cell_angle_gamma 90.000000
_cell_volume 2666.312175
_symmetry_space_group_name_H-M "C 2/C"
_symmetry_group_IT_number 15
_symmetry_cell_setting 'monoclinic'
loop_
_space_group_symop_operation_xyz
x,y,z
-x,y,1/2-z
-x,-y,-z
x,-y,1/2+z
1/2+x,1/2+y,z
1/2-x,1/2+y,1/2-z
1/2-x,1/2-y,-z
1/2+x,1/2-y,1/2+z
loop_
_atom_site_type_symbol
_atom_site_label
_atom_site_fract_x
_atom_site_fract_y
_atom_site_fract_z
Si Si1 0.589720 0.029518 0.786096
Si Si2 0.137457 0.773343 0.806491
Si Si3 0.486148 0.881145 0.553166
Si Si4 0.378810 0.256356 0.919729
Si Si5 0.313265 0.647155 0.999599
Si Si6 0.754318 0.093259 0.502946
Si Si7 0.077386 0.205646 0.685556
Si Si8 0.306442 0.143214 0.221215
O O1 0.500000 0.046775 0.750000
O O2 0.622166 0.143439 0.826017
O O3 0.578316 0.927421 0.863504
O O4 0.659626 0.966207 0.721879
O O5 0.099939 0.791586 0.696458
O O6 0.228035 0.810245 0.782402
O O7 0.122466 0.834000 0.913510
O O8 0.452040 0.802327 0.469378
O O9 0.547467 0.810675 0.617468
O O10 0.500000 0.000000 0.500000
O O11 0.341661 0.350230 0.993661
O O12 0.307956 0.162601 0.924303
O O13 0.264038 0.535483 0.018679
O O14 0.366056 0.637378 0.893424
O O15 0.250000 0.750000 0.000000
O O16 0.726119 0.113895 0.388547
O O17 0.134004 0.254255 0.768768
O O18 0.000000 0.159051 0.750000
#
# Coordination Sequence:
#
# PCOD9295715 Si02
#       8
#     8   8   8   8   8   8   8   8
#     4  12  22  41  67 108 151 190 247 315 379 450
#     4  11  26  40  67 109 148 192 243 315 382 446
#     4  12  23  38  68 101 142 186 244 305 372 441
#     4  10  23  43  68 102 149 194 239 301 390 452
#     4  12  26  44  71 108 150 187 255 315 375 444
#     4  10  23  45  68 105 148 192 243 308 377 455
#     4  12  24  44  69 105 145 194 247 310 376 456
#     4  11  21  42  67 104 142 185 246 300 381 452
#
# _framework density 24.003191000000001
#
# number of rings (size 3 to 8) (size 9 to 14) (size 15 to 20)
#    0.000    0.750    5.000    2.250    3.500    0.000 
#    0.000    0.625    0.000    6.000    0.000    0.000 
#    0.000    0.000    0.000    0.000    0.000    0.000 
#
# Total GULP energy -178450.775185 kJ/mol
# GULP energy per Si atom -5576.586725 kJ/mol
# Density = 2.394856 g / cm^3
# Si number density = 24.003191 Si / 1000 Ang^3
#
#
#
# Elastic Constant Matrix: (Units=GPa)
#
#
# Indices 1 2 3 4 5 6 
#
# 1 65.0764 24.9484 15.6126 0.0000 4.2946 0.0000
# 2 24.9484 89.5389 16.3842 0.0000 7.8310 0.0000
# 3 15.6126 16.3842 121.7674 0.0000 5.1114 0.0000
# 4 0.0000 0.0000 0.0000 24.5362 0.0000 -9.3035
# 5 4.2946 7.8310 5.1114 0.0000 36.5397 0.0000
# 6 0.0000 0.0000 0.0000 -9.3035 0.0000 -8.3893
#
#
#
# Elastic Compliance Matrix: (Units=1/GPa)
#
#
# Indices 1 2 3 4 5 6 
#
# 1 0.017541 -0.004518 -0.001605 0.000000 -0.000869 0.000000
# 2 -0.004518 0.012801 -0.001056 0.000000 -0.002065 0.000000
# 3 -0.001605 -0.001056 0.008593 0.000000 -0.000787 0.000000
# 4 0.000000 0.000000 0.000000 0.028692 0.000000 -0.031818
# 5 -0.000869 -0.002065 -0.000787 0.000000 0.028022 0.000000
# 6 0.000000 0.000000 0.000000 -0.031818 0.000000 -0.083914
#
#
# Mechanical properties :
#
#
# Convention : Reuss Voigt Hill
#
# Bulk Modulus (GPa) = 40.68803 43.36369 42.02586
# Shear Modulus (GPa) = 145.83669 25.16650 85.50160
#
# Velocity S-wave (km/s) = 7.80315 3.24151 5.97480
# Velocity P-wave (km/s) = 9.90825 5.66700 8.07119
#
# Compressibility (1/GPa) = 0.02457725
#
# Stress axis : x y z
#
# Youngs Moduli (GPa) = 57.00973 78.11870 116.36953
#
# Poissons Ratio (x) = 0.35293 0.18673
# Poissons Ratio (y) = 0.25756 0.12294
# Poissons Ratio (z) = 0.09148 0.08253
#
# Static dielectric constant tensor:
#      x y z
#    x 40.237790 0.000000 -28.932400 
#    y 0.000000 2.147760 0.000000 
#    z -28.932400 0.000000 23.905010 
# 
# From -- ./inp_files/161363.got.cif
#   From: 2010.05.17/outbox.cif.g08.bks.cpg/sg15_81_cif.got.tgz:161363.got - 2010.06.03 18:47:42.
