data_PCOD9295956
_publ_section_title
;
Structure prediction by ZEFSAII (Michael W. Deem and Ramdas Pophale) SiO2 
 PCOD9295956
Probable space group: C 2/C
;
_chemical_formula_sum "Si O2"
_cell_formula_units_Z 32
_cell_length_a 7.147627
_cell_length_b 19.491405
_cell_length_c 10.354412
_cell_angle_alpha 90.000000
_cell_angle_beta 118.046160
_cell_angle_gamma 90.000000
_cell_volume 1273.148831
_symmetry_space_group_name_H-M "C 2/C"
_symmetry_group_IT_number 15
_symmetry_cell_setting 'monoclinic'
loop_
_space_group_symop_operation_xyz
x,y,z
-x,y,1/2-z
-x,-y,-z
x,-y,1/2+z
1/2+x,1/2+y,z
1/2-x,1/2+y,1/2-z
1/2-x,1/2-y,-z
1/2+x,1/2-y,1/2+z
loop_
_atom_site_type_symbol
_atom_site_label
_atom_site_fract_x
_atom_site_fract_y
_atom_site_fract_z
Si Si1 0.833794 0.043281 0.029371
Si Si2 0.429006 0.687249 0.936450
Si Si3 0.036989 0.438477 0.626919
Si Si4 0.855973 0.319563 0.400845
O O1 0.775169 0.040966 0.164141
O O2 0.892712 0.121178 0.013394
O O3 0.617970 0.003459 0.912881
O O4 0.000000 0.000000 0.000000
O O5 0.236191 0.684841 0.772548
O O6 0.645119 0.682257 0.922000
O O7 0.477241 0.758323 0.023791
O O8 0.000000 0.399946 0.750000
O O9 0.964441 0.388002 0.489151
#
# Coordination Sequence:
#
# PCOD9295956 Si02
#       4
#     8   8   8   8
#     4  11  25  47  71 108 148 201 246 314 380 453
#     4  10  23  43  76 104 149 194 253 310 379 447
#     4  11  27  44  73 108 150 191 253 310 380 460
#     4  10  23  44  74 109 145 197 250 313 374 457
#
# _framework density 25.134533000000001
#
# number of rings (size 3 to 8) (size 9 to 14) (size 15 to 20)
#    0.000    1.500    2.500    0.000   14.000    2.000 
#    0.000    0.000    0.000    0.000    0.000    0.000 
#    0.000    0.000    0.000    0.000    0.000    0.000 
#
# Total GULP energy -89321.814629 kJ/mol
# GULP energy per Si atom -5582.613414 kJ/mol
# Density = 2.507733 g / cm^3
# Si number density = 25.134533 Si / 1000 Ang^3
#
#
#
# Elastic Constant Matrix: (Units=GPa)
#
#
# Indices 1 2 3 4 5 6 
#
# 1 236.4827 66.6714 56.1799 0.0000 -2.0830 0.0000
# 2 66.6714 176.1903 54.5695 0.0000 2.1069 0.0000
# 3 56.1799 54.5695 74.3892 0.0000 -9.2827 0.0000
# 4 0.0000 0.0000 0.0000 26.1658 0.0000 3.9584
# 5 -2.0830 2.1069 -9.2827 0.0000 40.8184 0.0000
# 6 0.0000 0.0000 0.0000 3.9584 0.0000 49.3759
#
#
#
# Elastic Compliance Matrix: (Units=1/GPa)
#
#
# Indices 1 2 3 4 5 6 
#
# 1 0.005290 -0.000960 -0.003346 0.000000 -0.000441 0.000000
# 2 -0.000960 0.007628 -0.005070 0.000000 -0.001596 0.000000
# 3 -0.003346 -0.005070 0.020276 0.000000 0.004702 0.000000
# 4 0.000000 0.000000 0.000000 0.038687 0.000000 -0.003101
# 5 -0.000441 -0.001596 0.004702 0.000000 0.025628 0.000000
# 6 0.000000 0.000000 0.000000 -0.003101 0.000000 0.020501
#
#
# Mechanical properties :
#
#
# Convention : Reuss Voigt Hill
#
# Bulk Modulus (GPa) = 69.24225 93.54488 81.39357
# Shear Modulus (GPa) = 35.31650 43.91477 39.61563
#
# Velocity S-wave (km/s) = 3.75253 4.18447 3.97437
# Velocity P-wave (km/s) = 6.81056 7.78748 7.31535
#
# Compressibility (1/GPa) = 0.01444205
#
# Stress axis : x y z
#
# Youngs Moduli (GPa) = 189.02216 131.08977 49.32050
#
# Poissons Ratio (x) = 0.12589 0.16503
# Poissons Ratio (y) = 0.18152 0.25004
# Poissons Ratio (z) = 0.63247 0.66460
#
# Static dielectric constant tensor:
#      x y z
#    x 2.110780 0.000000 0.096770 
#    y 0.000000 1.966940 0.000000 
#    z 0.096770 0.000000 1.728470 
# 
# From -- ./inp_files/78039.got.cif
#   From: 2010.05.17/outbox.cif.g08.bks.cpg/sg15_40_cif.got.tgz:78039.got - 2010.06.03 18:47:42.
