data_PCOD9295454
_publ_section_title
;
Structure prediction by ZEFSAII (Michael W. Deem and Ramdas Pophale) SiO2 
 PCOD9295454
Probable space group: C 2/C
;
_chemical_formula_sum "Si O2"
_cell_formula_units_Z 36
_cell_length_a 11.793962
_cell_length_b 14.990579
_cell_length_c 9.683254
_cell_angle_alpha 90.000000
_cell_angle_beta 74.559109
_cell_angle_gamma 90.000000
_cell_volume 1650.190092
_symmetry_space_group_name_H-M "C 2/C"
_symmetry_group_IT_number 15
_symmetry_cell_setting 'monoclinic'
loop_
_space_group_symop_operation_xyz
x,y,z
-x,y,1/2-z
-x,-y,-z
x,-y,1/2+z
1/2+x,1/2+y,z
1/2-x,1/2+y,1/2-z
1/2-x,1/2-y,-z
1/2+x,1/2-y,1/2+z
loop_
_atom_site_type_symbol
_atom_site_label
_atom_site_fract_x
_atom_site_fract_y
_atom_site_fract_z
Si Si1 0.108031 0.459498 0.547126
Si Si2 0.254552 0.973678 0.266955
Si Si3 0.459208 0.577802 0.114255
Si Si4 0.646569 0.703973 0.935063
Si Si5 0.000000 0.305570 0.750000
O O1 0.215542 0.464696 0.403464
O O2 0.132133 0.516826 0.674866
O O3 0.074690 0.363770 0.616988
O O4 0.000000 0.500000 0.500000
O O5 0.195548 0.885488 0.347236
O O6 0.180877 0.064100 0.326416
O O7 0.500000 0.547488 0.250000
O O8 0.500000 0.500000 0.000000
O O9 0.530676 0.668128 0.057237
O O10 0.593076 0.757916 0.822456
O O11 0.750000 0.750000 0.000000
#
# Coordination Sequence:
#
# PCOD9295454 Si02
#       5
#     8   8   8   8   4
#     4  12  24  46  72 104 139 196 258 295 370 452
#     4  11  24  43  77  97 139 192 251 307 354 445
#     4  10  23  42  72 104 139 183 247 296 366 437
#     4  11  27  46  69 110 153 186 240 310 387 441
#     4  12  28  44  74 108 154 190 246 308 382 436
#
# _framework density 21.815667999999999
#
# number of rings (size 3 to 8) (size 9 to 14) (size 15 to 20)
#    0.000    0.889    2.222    4.000   12.444    2.667 
#    0.000    0.000    0.000    0.000    0.000    0.000 
#    0.000    0.000    0.000    0.000    0.000    0.000 
#
# Total GULP energy -100249.845563 kJ/mol
# GULP energy per Si atom -5569.435865 kJ/mol
# Density = 2.176601 g / cm^3
# Si number density = 21.815668 Si / 1000 Ang^3
#
#
#
# Elastic Constant Matrix: (Units=GPa)
#
#
# Indices 1 2 3 4 5 6 
#
# 1 130.7480 59.3228 57.8013 0.0000 12.7278 0.0000
# 2 59.3228 87.8263 40.1179 0.0000 7.4472 0.0000
# 3 57.8013 40.1179 142.4794 0.0000 18.8414 0.0000
# 4 0.0000 0.0000 0.0000 8.5303 0.0000 214.5498
# 5 12.7278 7.4472 18.8414 0.0000 51.3290 0.0000
# 6 0.0000 0.0000 0.0000 214.5498 0.0000-1465.6861
#
#
#
# Elastic Compliance Matrix: (Units=1/GPa)
#
#
# Indices 1 2 3 4 5 6 
#
# 1 0.012081 -0.006768 -0.002868 0.000000 -0.000961 0.000000
# 2 -0.006768 0.016875 -0.002001 0.000000 -0.000036 0.000000
# 3 -0.002868 -0.002001 0.009052 0.000000 -0.002321 0.000000
# 4 0.000000 0.000000 0.000000 0.025040 0.000000 0.003665
# 5 -0.000961 -0.000036 -0.002321 0.000000 0.020578 0.000000
# 6 0.000000 0.000000 0.000000 0.003665 0.000000 -0.000146
#
#
# Mechanical properties :
#
#
# Convention : Reuss Voigt Hill
#
# Bulk Modulus (GPa) = 67.87397 75.05974 71.46685
# Shear Modulus (GPa) = 44.77650 -267.57790 -111.40070
#
# Velocity S-wave (km/s) = 4.53536 -11.08694 -7.15370
# Velocity P-wave (km/s) = 7.65546 11.37597 5.95007
#
# Compressibility (1/GPa) = 0.01473319
#
# Stress axis : x y z
#
# Youngs Moduli (GPa) = 82.77660 59.25964 110.46703
#
# Poissons Ratio (x) = 0.40109 0.31683
# Poissons Ratio (y) = 0.56027 0.22104
# Poissons Ratio (z) = 0.23741 0.11858
#
# Static dielectric constant tensor:
#      x y z
#    x 2.319360 0.000000 -0.183150 
#    y 0.000000 1.818370 0.000000 
#    z -0.183150 0.000000 1.851140 
# 
# From -- ./inp_files/28714.got.cif
#   From: 2010.05.17/outbox.cif.g08.bks.cpg/sg15_15_cif.got.tgz:28714.got - 2010.06.03 18:47:42.
