data_PCOD9295941
_publ_section_title
;
Structure prediction by ZEFSAII (Michael W. Deem and Ramdas Pophale) SiO2 
 PCOD9295941
Probable space group: C 2/C
;
_chemical_formula_sum "Si O2"
_cell_formula_units_Z 40
_cell_length_a 31.205229
_cell_length_b 5.543977
_cell_length_c 9.364432
_cell_angle_alpha 90.000000
_cell_angle_beta 74.545755
_cell_angle_gamma 90.000000
_cell_volume 1561.481281
_symmetry_space_group_name_H-M "C 2/C"
_symmetry_group_IT_number 15
_symmetry_cell_setting 'monoclinic'
loop_
_space_group_symop_operation_xyz
x,y,z
-x,y,1/2-z
-x,-y,-z
x,-y,1/2+z
1/2+x,1/2+y,z
1/2-x,1/2+y,1/2-z
1/2-x,1/2-y,-z
1/2+x,1/2-y,1/2+z
loop_
_atom_site_type_symbol
_atom_site_label
_atom_site_fract_x
_atom_site_fract_y
_atom_site_fract_z
Si Si1 0.537542 0.124727 0.093894
Si Si2 0.741108 0.500468 0.595939
Si Si3 0.878952 0.622753 0.883998
Si Si4 0.820409 0.340869 0.713678
Si Si5 0.540331 0.624555 0.103948
O O1 0.500000 0.123294 0.250000
O O2 0.586169 0.095714 0.122828
O O3 0.540207 0.380181 0.017203
O O4 0.536054 0.868419 0.014742
O O5 0.750000 0.250000 0.500000
O O6 0.776091 0.470916 0.693291
O O7 0.693606 0.417704 0.205254
O O8 0.750000 0.750000 0.500000
O O9 0.845235 0.524137 0.797243
O O10 0.914978 0.837418 0.841847
O O11 0.851441 0.688140 0.049150
O O12 0.500000 0.620093 0.250000
#
# Coordination Sequence:
#
# PCOD9295941 Si02
#       5
#     8   8   8   8   8
#     4   8  16  37  64 100 151 200 244 302 373 444
#     4  12  28  55  77 111 152 203 252 319 402 471
#     4  10  23  43  74 117 148 197 263 315 378 454
#     4  12  26  52  80 113 153 203 255 331 387 474
#     4   8  16  37  65 101 152 199 243 301 372 445
#
# _framework density 25.616703000000001
#
# number of rings (size 3 to 8) (size 9 to 14) (size 15 to 20)
#    1.200    0.800    2.000    1.200    0.000    1.600 
#   10.800    4.000    0.000    4.800    0.000    0.000 
#    0.000    0.000    0.000    0.000    0.000    0.000 
#
# Total GULP energy -111547.773805 kJ/mol
# GULP energy per Si atom -5577.388690 kJ/mol
# Density = 2.555840 g / cm^3
# Si number density = 25.616703 Si / 1000 Ang^3
#
#
#
# Elastic Constant Matrix: (Units=GPa)
#
#
# Indices 1 2 3 4 5 6 
#
# 1 155.7102 49.8244 66.9432 0.0000 -5.3451 0.0000
# 2 49.8244 244.6442 38.2850 0.0000 30.2565 0.0000
# 3 66.9432 38.2850 135.5150 0.0000 -5.4291 0.0000
# 4 0.0000 0.0000 0.0000 1.7140 0.0000 87.3758
# 5 -5.3451 30.2565 -5.4291 0.0000 43.7290 0.0000
# 6 0.0000 0.0000 0.0000 87.3758 0.0000 -327.2704
#
#
#
# Elastic Compliance Matrix: (Units=1/GPa)
#
#
# Indices 1 2 3 4 5 6 
#
# 1 0.008521 -0.001330 -0.003774 0.000000 0.001493 0.000000
# 2 -0.001330 0.004956 -0.000892 0.000000 -0.003702 0.000000
# 3 -0.003774 -0.000892 0.009549 0.000000 0.001341 0.000000
# 4 0.000000 0.000000 0.000000 0.039933 0.000000 0.010661
# 5 0.001493 -0.003702 0.001341 0.000000 0.025779 0.000000
# 6 0.000000 0.000000 0.000000 0.010661 0.000000 -0.000209
#
#
# Mechanical properties :
#
#
# Convention : Reuss Voigt Hill
#
# Bulk Modulus (GPa) = 90.61274 93.99716 92.30495
# Shear Modulus (GPa) = 47.98551 -30.97771 8.50390
#
# Velocity S-wave (km/s) = 4.33276 -3.48124 1.82397
# Velocity P-wave (km/s) = 7.77687 4.54034 6.36767
#
# Compressibility (1/GPa) = 0.01103598
#
# Stress axis : x y z
#
# Youngs Moduli (GPa) = 117.35145 201.78655 104.72028
#
# Poissons Ratio (x) = 0.26828 0.39522
# Poissons Ratio (y) = 0.15602 0.09337
# Poissons Ratio (z) = 0.44289 0.17992
#
# Static dielectric constant tensor:
#      x y z
#    x 2.146890 0.000000 0.014540 
#    y 0.000000 2.133210 0.000000 
#    z 0.014540 0.000000 1.969860 
# 
# From -- ./inp_files/124786.got.cif
#   From: 2010.05.17/outbox.cif.g08.bks.cpg/sg15_63_cif.got.tgz:124786.got - 2010.06.03 18:47:42.
