data_PCOD9295068
_publ_section_title
;
Structure prediction by ZEFSAII (Michael W. Deem and Ramdas Pophale) SiO2 
 PCOD9295068
Probable space group: C 2/C
;
_chemical_formula_sum "Si O2"
_cell_formula_units_Z 36
_cell_length_a 13.724177
_cell_length_b 5.061319
_cell_length_c 20.061445
_cell_angle_alpha 90.000000
_cell_angle_beta 73.294202
_cell_angle_gamma 90.000000
_cell_volume 1334.701281
_symmetry_space_group_name_H-M "C 2/C"
_symmetry_group_IT_number 15
_symmetry_cell_setting 'monoclinic'
loop_
_space_group_symop_operation_xyz
x,y,z
-x,y,1/2-z
-x,-y,-z
x,-y,1/2+z
1/2+x,1/2+y,z
1/2-x,1/2+y,1/2-z
1/2-x,1/2-y,-z
1/2+x,1/2-y,1/2+z
loop_
_atom_site_type_symbol
_atom_site_label
_atom_site_fract_x
_atom_site_fract_y
_atom_site_fract_z
Si Si1 0.595725 0.810489 0.966010
Si Si2 0.000000 0.049969 0.750000
Si Si3 0.732032 0.716245 0.581355
Si Si4 0.292409 0.884269 0.776277
Si Si5 0.464437 0.461977 0.897611
O O1 0.690304 0.973660 0.919242
O O2 0.553462 0.580759 0.925811
O O3 0.609116 0.701047 0.038359
O O4 0.500000 0.000000 0.000000
O O5 0.902526 0.238390 0.752886
O O6 0.990273 0.867062 0.818543
O O7 0.750000 0.750000 0.500000
O O8 0.745720 0.912867 0.640011
O O9 0.610650 0.695566 0.607157
O O10 0.219112 0.665939 0.756127
#
# Coordination Sequence:
#
# PCOD9295068 Si02
#       5
#     8   4   8   8   8
#     4  11  22  38  65  92 127 171 217 278 334 404
#     4  10  24  46  68 102 136 188 234 290 354 426
#     4  11  23  42  68 100 131 175 230 284 341 411
#     4  11  27  48  73 104 146 190 232 295 356 424
#     4  10  23  42  63  94 130 173 223 281 342 409
#
# _framework density 26.972328999999998
#
# number of rings (size 3 to 8) (size 9 to 14) (size 15 to 20)
#    0.000    1.333    2.222    2.000    3.111    6.222 
#    0.000    0.000    0.000    0.000    0.000    0.000 
#    0.000    0.000    0.000    0.000    0.000    0.000 
#
# Total GULP energy -100446.975269 kJ/mol
# GULP energy per Si atom -5580.387515 kJ/mol
# Density = 2.691094 g / cm^3
# Si number density = 26.972329 Si / 1000 Ang^3
#
#
#
# Elastic Constant Matrix: (Units=GPa)
#
#
# Indices 1 2 3 4 5 6 
#
# 1 112.0209 -0.9049 -2.5639 -0.0002 -15.0220 -0.0011
# 2 -0.9049 58.4795 -1.5105 -0.0028 6.1909 -0.0014
# 3 -2.5639 -1.5105 163.2731 0.0021 24.3799 0.0007
# 4 -0.0002 -0.0028 0.0021 26.2976 0.0007 -17.4102
# 5 -15.0220 6.1909 24.3799 0.0007 26.2849 0.0000
# 6 -0.0011 -0.0014 0.0007 -17.4102 0.0000 39.1242
#
#
#
# Elastic Compliance Matrix: (Units=1/GPa)
#
#
# Indices 1 2 3 4 5 6 
#
# 1 0.009772 -0.000555 -0.000818 0.000000 0.006475 0.000000
# 2 -0.000555 0.017685 0.000957 0.000003 -0.005370 0.000002
# 3 -0.000818 0.000957 0.007225 -0.000001 -0.007394 0.000000
# 4 0.000000 0.000003 -0.000001 0.053908 -0.000002 0.023989
# 5 0.006475 -0.005370 -0.007394 -0.000002 0.049868 -0.000001
# 6 0.000000 0.000002 0.000000 0.023989 -0.000001 0.036235
#
#
# Mechanical properties :
#
#
# Convention : Reuss Voigt Hill
#
# Bulk Modulus (GPa) = 29.54460 35.97946 32.76203
# Shear Modulus (GPa) = 26.76534 40.92487 33.84510
#
# Velocity S-wave (km/s) = 3.15354 3.89947 3.54617
# Velocity P-wave (km/s) = 4.92313 5.80024 5.37959
#
# Compressibility (1/GPa) = 0.03384713
#
# Stress axis : x y z
#
# Youngs Moduli (GPa) = 102.33384 56.54631 138.41171
#
# Poissons Ratio (x) = 0.03140 0.11329
# Poissons Ratio (y) = 0.05683 -0.13242
# Poissons Ratio (z) = 0.08376 -0.05410
#
# Static dielectric constant tensor:
#      x y z
#    x 2.101880 -0.000010 -0.067150 
#    y -0.000010 2.648520 0.000000 
#    z -0.067150 0.000000 2.309000 
# 
# From -- ./inp_files/246083.got.cif
#   From: 2010.05.17/outbox.cif.g08.bks.cpg/sg15_124_cif.got.tgz:246083.got - 2010.06.03 18:47:42.
