data_PCOD9295483
_publ_section_title
;
Structure prediction by ZEFSAII (Michael W. Deem and Ramdas Pophale) SiO2 
 PCOD9295483
Probable space group: C 2/C
;
_chemical_formula_sum "Si O2"
_cell_formula_units_Z 44
_cell_length_a 15.577858
_cell_length_b 9.772463
_cell_length_c 11.248832
_cell_angle_alpha 90.000000
_cell_angle_beta 91.402033
_cell_angle_gamma 90.000000
_cell_volume 1711.942480
_symmetry_space_group_name_H-M "C 2/C"
_symmetry_group_IT_number 15
_symmetry_cell_setting 'monoclinic'
loop_
_space_group_symop_operation_xyz
x,y,z
-x,y,1/2-z
-x,-y,-z
x,-y,1/2+z
1/2+x,1/2+y,z
1/2-x,1/2+y,1/2-z
1/2-x,1/2-y,-z
1/2+x,1/2-y,1/2+z
loop_
_atom_site_type_symbol
_atom_site_label
_atom_site_fract_x
_atom_site_fract_y
_atom_site_fract_z
Si Si1 0.615016 0.277285 0.456052
Si Si2 0.441358 0.166092 0.537811
Si Si3 0.048528 0.960675 0.876845
Si Si4 0.677977 0.933727 0.660032
Si Si5 0.719481 0.256459 0.671669
Si Si6 0.500000 0.029081 0.250000
O O1 0.522720 0.204251 0.454478
O O2 0.614260 0.414100 0.377952
O O3 0.636908 0.309494 0.595493
O O4 0.699515 0.203173 0.410669
O O5 0.418508 0.309283 0.597701
O O6 0.358837 0.098923 0.472499
O O7 0.482495 0.068924 0.637099
O O8 0.000000 0.965445 0.750000
O O9 0.000000 0.000000 0.000000
O O10 0.752257 0.834042 0.708476
O O11 0.700936 0.093464 0.681542
O O12 0.590229 0.898677 0.729226
#
# Coordination Sequence:
#
# PCOD9295483 Si02
#       6
#     8   8   8   8   8   4
#     4  10  24  45  71 102 151 192 249 303 386 447
#     4  11  24  46  74 107 142 198 256 310 368 462
#     4  10  23  42  74 111 148 194 251 316 375 451
#     4  12  28  45  76 105 149 199 248 313 384 451
#     4  11  27  46  70 106 151 193 245 316 386 451
#     4  12  24  46  76 104 142 192 266 304 368 462
#
# _framework density 25.701796999999999
#
# number of rings (size 3 to 8) (size 9 to 14) (size 15 to 20)
#    0.000    1.091    2.727    1.636   12.727    2.909 
#    0.000    1.818    0.000    0.000    0.000    0.000 
#    0.000    0.000    0.000    0.000    0.000    0.000 
#
# Total GULP energy -122955.478692 kJ/mol
# GULP energy per Si atom -5588.885395 kJ/mol
# Density = 2.564330 g / cm^3
# Si number density = 25.701797 Si / 1000 Ang^3
#
#
#
# Elastic Constant Matrix: (Units=GPa)
#
#
# Indices 1 2 3 4 5 6 
#
# 1 120.8373 39.6690 47.7756 0.0000 3.8212 0.0000
# 2 39.6690 154.3537 73.0065 0.0000 65.2379 0.0000
# 3 47.7756 73.0065 147.4646 0.0000 50.0868 0.0000
# 4 0.0000 0.0000 0.0000 41.9258 0.0000 31.7083
# 5 3.8212 65.2379 50.0868 0.0000 46.5186 0.0000
# 6 0.0000 0.0000 0.0000 31.7083 0.0000 19.7994
#
#
#
# Elastic Compliance Matrix: (Units=1/GPa)
#
#
# Indices 1 2 3 4 5 6 
#
# 1 0.012081 -0.006354 -0.005451 0.000000 0.013787 0.000000
# 2 -0.006354 0.019270 0.002396 0.000000 -0.029082 0.000000
# 3 -0.005451 0.002396 0.013165 0.000000 -0.017087 0.000000
# 4 0.000000 0.000000 0.000000 -0.112937 0.000000 0.180866
# 5 0.013787 -0.029082 -0.017087 0.000000 0.079547 0.000000
# 6 0.000000 0.000000 0.000000 0.180866 0.000000 -0.239148
#
#
# Mechanical properties :
#
#
# Convention : Reuss Voigt Hill
#
# Bulk Modulus (GPa) = 38.91393 82.61753 60.76573
# Shear Modulus (GPa) = -24.92037 39.12906 7.10434
#
# Velocity S-wave (km/s) = -3.11721 3.90606 1.66437
# Velocity P-wave (km/s) = 1.48909 7.24966 5.23330
#
# Compressibility (1/GPa) = 0.02569774
#
# Stress axis : x y z
#
# Youngs Moduli (GPa) = 82.77679 51.89493 75.96007
#
# Poissons Ratio (x) = 0.32972 0.41408
# Poissons Ratio (y) = 0.52594 -0.18202
# Poissons Ratio (z) = 0.45124 -0.12435
#
# Static dielectric constant tensor:
#      x y z
#    x 2.085680 0.000000 -0.106360 
#    y 0.000000 2.074530 0.000000 
#    z -0.106360 0.000000 2.211650 
# 
# From -- ./inp_files/103874.got.cif
#   From: 2010.05.17/outbox.cif.g08.bks.cpg/sg15_52_cif.got.tgz:103874.got - 2010.06.03 18:47:42.
