data_PCOD9295545
_publ_section_title
;
Structure prediction by ZEFSAII (Michael W. Deem and Ramdas Pophale) SiO2 
 PCOD9295545
Probable space group: C 2/C
;
_chemical_formula_sum "Si O2"
_cell_formula_units_Z 52
_cell_length_a 11.045956
_cell_length_b 24.613061
_cell_length_c 13.993859
_cell_angle_alpha 90.000000
_cell_angle_beta 41.560543
_cell_angle_gamma 90.000000
_cell_volume 2523.998845
_symmetry_space_group_name_H-M "C 2/C"
_symmetry_group_IT_number 15
_symmetry_cell_setting 'monoclinic'
loop_
_space_group_symop_operation_xyz
x,y,z
-x,y,1/2-z
-x,-y,-z
x,-y,1/2+z
1/2+x,1/2+y,z
1/2-x,1/2+y,1/2-z
1/2-x,1/2-y,-z
1/2+x,1/2-y,1/2+z
loop_
_atom_site_type_symbol
_atom_site_label
_atom_site_fract_x
_atom_site_fract_y
_atom_site_fract_z
Si Si1 0.946657 0.509064 0.422201
Si Si2 0.830352 0.977398 0.156323
Si Si3 0.890547 0.191491 0.012149
Si Si4 0.397707 0.297687 0.911316
Si Si5 0.000000 0.250921 0.750000
Si Si6 0.819740 0.602642 0.898363
Si Si7 0.903794 0.915940 0.393303
O O1 0.871369 0.451933 0.425780
O O2 0.792997 0.554934 0.501170
O O3 0.000000 0.500000 0.500000
O O4 0.151188 0.514984 0.257209
O O5 0.774076 0.921188 0.140429
O O6 0.933472 0.961032 0.191591
O O7 0.000000 0.000000 0.000000
O O8 0.685026 0.213814 0.142820
O O9 0.989406 0.203324 0.055230
O O10 0.982839 0.220078 0.863820
O O11 0.885870 0.127412 0.989157
O O12 0.500000 0.293014 0.750000
O O13 0.250000 0.250000 0.000000
O O14 0.298535 0.356161 0.972564
O O15 0.000000 0.630896 0.750000
O O16 0.000000 0.883525 0.250000
#
# Coordination Sequence:
#
# PCOD9295545 Si02
#       7
#     8   8   8   8   4   8   8
#     4  11  24  41  62 100 136 179 232 277 344 417
#     4  11  22  40  65  91 138 182 222 284 337 416
#     4  11  24  47  71 102 136 185 235 295 354 423
#     4  12  26  46  70 103 135 177 232 290 358 417
#     4  10  24  46  72  98 140 180 240 290 350 422
#     4  10  23  43  64  92 131 180 223 278 345 409
#     4  12  23  42  71 101 138 184 236 288 355 415
#
# _framework density 20.602228
#
# number of rings (size 3 to 8) (size 9 to 14) (size 15 to 20)
#    0.000    0.923    5.385    1.385    0.000    3.077 
#    8.308    0.000    0.000    0.000    0.000    0.000 
#    0.000    0.000    0.000    0.000    0.000    0.000 
#
# Total GULP energy -144769.684734 kJ/mol
# GULP energy per Si atom -5568.064797 kJ/mol
# Density = 2.055534 g / cm^3
# Si number density = 20.602228 Si / 1000 Ang^3
#
#
#
# Elastic Constant Matrix: (Units=GPa)
#
#
# Indices 1 2 3 4 5 6 
#
# 1 168.7178 58.5818 73.2629 0.0000 -5.1596 0.0000
# 2 58.5818 57.0594 58.1010 0.0000 -13.0956 0.0000
# 3 73.2629 58.1010 180.4776 0.0000 -10.8700 0.0000
# 4 0.0000 0.0000 0.0000 31.1604 0.0000 5.0294
# 5 -5.1596 -13.0956 -10.8700 0.0000 43.5920 0.0000
# 6 0.0000 0.0000 0.0000 5.0294 0.0000 16.2280
#
#
#
# Elastic Compliance Matrix: (Units=1/GPa)
#
#
# Indices 1 2 3 4 5 6 
#
# 1 0.009482 -0.009120 -0.001026 0.000000 -0.001873 0.000000
# 2 -0.009120 0.036389 -0.007532 0.000000 0.007974 0.000000
# 3 -0.001026 -0.007532 0.008364 0.000000 -0.000298 0.000000
# 4 0.000000 0.000000 0.000000 0.033782 0.000000 -0.010470
# 5 -0.001873 0.007974 -0.000298 0.000000 0.025039 0.000000
# 6 0.000000 0.000000 0.000000 -0.010470 0.000000 0.064867
#
#
# Mechanical properties :
#
#
# Convention : Reuss Voigt Hill
#
# Bulk Modulus (GPa) = 52.97036 87.34960 70.15998
# Shear Modulus (GPa) = 22.77152 32.61667 27.69409
#
# Velocity S-wave (km/s) = 3.32820 3.98321 3.67035
# Velocity P-wave (km/s) = 6.36679 7.97777 7.21737
#
# Compressibility (1/GPa) = 0.01887848
#
# Stress axis : x y z
#
# Youngs Moduli (GPa) = 105.46341 27.48085 119.55860
#
# Poissons Ratio (x) = 0.25064 0.12265
# Poissons Ratio (y) = 0.96186 0.90053
# Poissons Ratio (z) = 0.10819 0.20699
#
# Static dielectric constant tensor:
#      x y z
#    x 1.931810 0.000000 0.167650 
#    y 0.000000 1.775370 0.000000 
#    z 0.167650 0.000000 1.991660 
# 
# From -- ./inp_files/148041.got.cif
#   From: 2010.05.17/outbox.cif.g08.bks.cpg/sg15_75_cif.got.tgz:148041.got - 2010.06.03 18:47:42.
