data_PCOD9295516
_publ_section_title
;
Structure prediction by ZEFSAII (Michael W. Deem and Ramdas Pophale) SiO2 
 PCOD9295516
Probable space group: C 2/C
;
_chemical_formula_sum "Si O2"
_cell_formula_units_Z 48
_cell_length_a 25.148918
_cell_length_b 8.997649
_cell_length_c 13.810954
_cell_angle_alpha 90.000000
_cell_angle_beta 44.050971
_cell_angle_gamma 90.000000
_cell_volume 2172.916456
_symmetry_space_group_name_H-M "C 2/C"
_symmetry_group_IT_number 15
_symmetry_cell_setting 'monoclinic'
loop_
_space_group_symop_operation_xyz
x,y,z
-x,y,1/2-z
-x,-y,-z
x,-y,1/2+z
1/2+x,1/2+y,z
1/2-x,1/2+y,1/2-z
1/2-x,1/2-y,-z
1/2+x,1/2-y,1/2+z
loop_
_atom_site_type_symbol
_atom_site_label
_atom_site_fract_x
_atom_site_fract_y
_atom_site_fract_z
Si Si1 0.425825 0.313108 0.594563
Si Si2 0.438191 0.971269 0.165256
Si Si3 0.454031 0.714763 0.717415
Si Si4 0.210913 0.269166 0.342163
Si Si5 0.758602 0.542635 0.867290
Si Si6 0.311762 0.534952 0.847433
O O1 0.443467 0.208013 0.664321
O O2 0.502924 0.345468 0.435546
O O3 0.377511 0.223754 0.574193
O O4 0.366971 0.437580 0.706995
O O5 0.453584 0.105687 0.217960
O O6 0.348912 0.989551 0.256962
O O7 0.500000 0.000000 0.000000
O O8 0.500000 0.657855 0.750000
O O9 0.367658 0.656878 0.823082
O O10 0.253390 0.316564 0.186876
O O11 0.225871 0.104363 0.359502
O O12 0.244338 0.383629 0.376904
O O13 0.723297 0.559491 0.019219
#
# Coordination Sequence:
#
# PCOD9295516 Si02
#       6
#     8   8   8   8   8   8
#     4  10  23  43  62  97 131 171 214 273 329 386
#     4   9  21  41  61  90 129 165 212 261 321 384
#     4  11  23  40  68  92 128 175 218 263 328 395
#     4  11  22  41  66  95 130 163 218 271 324 390
#     4  11  23  41  67  97 126 170 220 270 332 384
#     4  12  24  41  68  97 132 169 221 276 326 390
#
# _framework density 22.090126000000001
#
# number of rings (size 3 to 8) (size 9 to 14) (size 15 to 20)
#    0.000    1.333    3.333    2.000    2.333    2.667 
#    0.000    0.833    0.000    0.000    0.000    0.000 
#    0.000    0.000    0.000    0.000    0.000    0.000 
#
# Total GULP energy -133770.534411 kJ/mol
# GULP energy per Si atom -5573.772267 kJ/mol
# Density = 2.203985 g / cm^3
# Si number density = 22.090126 Si / 1000 Ang^3
#
#
#
# Elastic Constant Matrix: (Units=GPa)
#
#
# Indices 1 2 3 4 5 6 
#
# 1 74.6002 6.9782 34.6288 0.0000 6.5691 0.0000
# 2 6.9782 49.5674 13.7114 0.0000 4.7375 0.0000
# 3 34.6288 13.7114 99.8110 -0.0001 -8.6427 0.0000
# 4 0.0000 0.0000 -0.0001 25.7854 0.0000 -1.3536
# 5 6.5691 4.7375 -8.6427 0.0000 23.2076 0.0000
# 6 0.0000 0.0000 0.0000 -1.3536 0.0000 33.1438
#
#
#
# Elastic Compliance Matrix: (Units=1/GPa)
#
#
# Indices 1 2 3 4 5 6 
#
# 1 0.017092 0.000112 -0.006578 0.000000 -0.007311 0.000000
# 2 0.000112 0.021683 -0.003517 0.000000 -0.005768 0.000000
# 3 -0.006578 -0.003517 0.013441 0.000000 0.007586 0.000000
# 4 0.000000 0.000000 0.000000 0.038865 0.000000 0.001587
# 5 -0.007311 -0.005768 0.007586 0.000000 0.049161 0.000000
# 6 0.000000 0.000000 0.000000 0.001587 0.000000 0.030236
#
#
# Mechanical properties :
#
#
# Convention : Reuss Voigt Hill
#
# Bulk Modulus (GPa) = 31.00817 37.17951 34.09384
# Shear Modulus (GPa) = 24.85161 27.67137 26.26149
#
# Velocity S-wave (km/s) = 3.35776 3.54313 3.45169
# Velocity P-wave (km/s) = 5.39447 5.79704 5.59938
#
# Compressibility (1/GPa) = 0.03224956
#
# Stress axis : x y z
#
# Youngs Moduli (GPa) = 58.50813 46.11933 74.39801
#
# Poissons Ratio (x) = -0.00518 0.48941
# Poissons Ratio (y) = -0.00657 0.26166
# Poissons Ratio (z) = 0.38488 0.16220
#
# Static dielectric constant tensor:
#      x y z
#    x 1.812740 0.000000 0.020890 
#    y 0.000000 1.896620 0.000000 
#    z 0.020890 0.000000 1.810960 
# 
# From -- ./inp_files/176877.got.cif
#   From: 2010.05.17/outbox.cif.g08.bks.cpg/sg15_89_cif.got.tgz:176877.got - 2010.06.03 18:47:42.
