data_PCOD9295822
_publ_section_title
;
Structure prediction by ZEFSAII (Michael W. Deem and Ramdas Pophale) SiO2 
 PCOD9295822
Probable space group: C 2/C
;
_chemical_formula_sum "Si O2"
_cell_formula_units_Z 28
_cell_length_a 16.560774
_cell_length_b 7.240893
_cell_length_c 15.347291
_cell_angle_alpha 90.000000
_cell_angle_beta 36.121293
_cell_angle_gamma 90.000000
_cell_volume 1084.890203
_symmetry_space_group_name_H-M "C 2/C"
_symmetry_group_IT_number 15
_symmetry_cell_setting 'monoclinic'
loop_
_space_group_symop_operation_xyz
x,y,z
-x,y,1/2-z
-x,-y,-z
x,-y,1/2+z
1/2+x,1/2+y,z
1/2-x,1/2+y,1/2-z
1/2-x,1/2-y,-z
1/2+x,1/2-y,1/2+z
loop_
_atom_site_type_symbol
_atom_site_label
_atom_site_fract_x
_atom_site_fract_y
_atom_site_fract_z
Si Si1 0.000000 0.157099 0.750000
Si Si2 0.813652 0.673459 0.172289
Si Si3 0.104290 0.281379 0.480469
Si Si4 0.638479 0.709707 0.168728
O O1 0.076585 0.266252 0.607394
O O2 0.896929 0.008649 0.795919
O O3 0.858200 0.486569 0.084509
O O4 0.729045 0.658445 0.335893
O O5 0.701784 0.764646 0.205411
O O6 0.957853 0.772558 0.064653
O O7 0.500000 0.796513 0.250000
O O8 0.750000 0.750000 0.000000
#
# Coordination Sequence:
#
# PCOD9295822 Si02
#       4
#     4   8   8   8
#     4  10  26  48  74 104 148 194 236 302 364 432
#     4  11  25  45  75 108 144 191 246 295 361 433
#     4  11  26  47  76 107 147 192 242 300 362 432
#     4  10  23  43  70 104 142 186 236 299 355 425
#
# _framework density 25.809062999999998
#
# number of rings (size 3 to 8) (size 9 to 14) (size 15 to 20)
#    0.857    0.571    0.000    3.429    4.000    6.857 
#    7.714    0.000    0.000    0.000    0.000    0.000 
#    0.000    0.000    0.000    0.000    0.000    0.000 
#
# Total GULP energy -78292.561744 kJ/mol
# GULP energy per Si atom -5592.325839 kJ/mol
# Density = 2.575032 g / cm^3
# Si number density = 25.809063 Si / 1000 Ang^3
#
#
#
# Elastic Constant Matrix: (Units=GPa)
#
#
# Indices 1 2 3 4 5 6 
#
# 1 108.2007 -7.0585 20.0615 0.0000 -37.0247 0.0000
# 2 -7.0585 93.1148 35.8381 0.0001 4.8452 -0.0001
# 3 20.0615 35.8381 209.7286 0.0000 -9.8290 -0.0001
# 4 0.0000 0.0001 0.0000 44.5083 0.0000 0.4482
# 5 -37.0247 4.8452 -9.8290 0.0000 60.3208 0.0000
# 6 0.0000 -0.0001 -0.0001 0.4482 0.0000 18.2780
#
#
#
# Elastic Compliance Matrix: (Units=1/GPa)
#
#
# Indices 1 2 3 4 5 6 
#
# 1 0.011900 0.000904 -0.000961 0.000000 0.007075 0.000000
# 2 0.000904 0.011659 -0.002113 0.000000 -0.000726 0.000000
# 3 -0.000961 -0.002113 0.005241 0.000000 0.000434 0.000000
# 4 0.000000 0.000000 0.000000 0.022473 0.000000 -0.000551
# 5 0.007075 -0.000726 0.000434 0.000000 0.021050 0.000000
# 6 0.000000 0.000000 0.000000 -0.000551 0.000000 0.054724
#
#
# Mechanical properties :
#
#
# Convention : Reuss Voigt Hill
#
# Bulk Modulus (GPa) = 40.88240 56.52514 48.70377
# Shear Modulus (GPa) = 35.83175 48.76830 42.30003
#
# Velocity S-wave (km/s) = 3.73009 4.35165 4.05280
# Velocity P-wave (km/s) = 5.86738 6.87007 6.38843
#
# Compressibility (1/GPa) = 0.02446040
#
# Stress axis : x y z
#
# Youngs Moduli (GPa) = 84.03176 85.77161 190.79019
#
# Poissons Ratio (x) = -0.07753 0.18339
# Poissons Ratio (y) = -0.07595 0.40309
# Poissons Ratio (z) = 0.08077 0.18121
#
# Static dielectric constant tensor:
#      x y z
#    x 2.093270 0.000000 -0.006590 
#    y 0.000000 2.094300 0.000000 
#    z -0.006590 0.000000 1.958680 
# 
# From -- ./inp_files/159025.got.cif
#   From: 2010.05.17/outbox.cif.g08.bks.cpg/sg15_80_cif.got.tgz:159025.got - 2010.06.03 18:47:42.
