data_PCOD9295506
_publ_section_title
;
Structure prediction by ZEFSAII (Michael W. Deem and Ramdas Pophale) SiO2 
 PCOD9295506
Probable space group: C 2/C
;
_chemical_formula_sum "Si O2"
_cell_formula_units_Z 40
_cell_length_a 24.794787
_cell_length_b 9.045769
_cell_length_c 10.239877
_cell_angle_alpha 90.000000
_cell_angle_beta 132.441248
_cell_angle_gamma 90.000000
_cell_volume 1694.880767
_symmetry_space_group_name_H-M "C 2/C"
_symmetry_group_IT_number 15
_symmetry_cell_setting 'monoclinic'
loop_
_space_group_symop_operation_xyz
x,y,z
-x,y,1/2-z
-x,-y,-z
x,-y,1/2+z
1/2+x,1/2+y,z
1/2-x,1/2+y,1/2-z
1/2-x,1/2-y,-z
1/2+x,1/2-y,1/2+z
loop_
_atom_site_type_symbol
_atom_site_label
_atom_site_fract_x
_atom_site_fract_y
_atom_site_fract_z
Si Si1 0.341432 0.429616 0.238632
Si Si2 0.058581 0.821317 0.523935
Si Si3 0.137659 0.366682 0.349724
Si Si4 0.598152 0.801900 0.823726
Si Si5 0.724848 0.385483 0.105736
O O1 0.415852 0.509154 0.412874
O O2 0.348278 0.263630 0.198001
O O3 0.284001 0.440333 0.261944
O O4 0.318635 0.519054 0.072960
O O5 0.075452 0.736012 0.685428
O O6 0.108601 0.764993 0.484547
O O7 0.978911 0.768164 0.349346
O O8 0.104730 0.522388 0.338705
O O9 0.195114 0.384599 0.324489
O O10 0.184145 0.273765 0.530863
#
# Coordination Sequence:
#
# PCOD9295506 Si02
#       5
#     8   8   8   8   8
#     4  11  22  44  65  95 125 179 209 271 319 392
#     4  10  23  43  61  95 133 162 224 267 311 396
#     4  10  24  42  63  96 130 169 212 275 315 396
#     4  11  23  39  69  92 128 173 214 265 329 376
#     4  10  24  42  67  92 134 166 219 261 333 378
#
# _framework density 23.600480000000001
#
# number of rings (size 3 to 8) (size 9 to 14) (size 15 to 20)
#    0.000    1.600    2.000    1.200    5.600    4.000 
#    0.000    0.000    0.000    0.000    0.000    0.000 
#    0.000    0.000    0.000    0.000    0.000    0.000 
#
# Total GULP energy -111681.436645 kJ/mol
# GULP energy per Si atom -5584.071832 kJ/mol
# Density = 2.354676 g / cm^3
# Si number density = 23.600480 Si / 1000 Ang^3
#
#
#
# Elastic Constant Matrix: (Units=GPa)
#
#
# Indices 1 2 3 4 5 6 
#
# 1 45.9120 -8.1410 4.3530 0.0000 -29.7142 0.0000
# 2 -8.1410 103.7563 4.5001 0.0000 -20.1439 0.0000
# 3 4.3530 4.5001 37.7326 0.0000 -9.4977 0.0000
# 4 0.0000 0.0000 0.0000 6.7271 0.0000 7.3720
# 5 -29.7142 -20.1439 -9.4977 0.0000 36.0463 0.0000
# 6 0.0000 0.0000 0.0000 7.3720 0.0000 18.0993
#
#
#
# Elastic Compliance Matrix: (Units=1/GPa)
#
#
# Indices 1 2 3 4 5 6 
#
# 1 0.069395 0.018629 0.007274 0.000000 0.069531 0.000000
# 2 0.018629 0.015814 0.002201 0.000000 0.024773 0.000000
# 3 0.007274 0.002201 0.029153 0.000000 0.014908 0.000000
# 4 0.000000 0.000000 0.000000 0.268497 0.000000 -0.109361
# 5 0.069531 0.024773 0.014908 0.000000 0.102831 0.000000
# 6 0.000000 0.000000 0.000000 -0.109361 0.000000 0.099795
#
#
# Mechanical properties :
#
#
# Convention : Reuss Voigt Hill
#
# Bulk Modulus (GPa) = 5.86274 20.98058 13.42166
# Shear Modulus (GPa) = 8.53048 24.62046 16.57547
#
# Velocity S-wave (km/s) = 1.90326 3.23339 2.65304
# Velocity P-wave (km/s) = 2.70544 4.78006 3.88384
#
# Compressibility (1/GPa) = 0.17056885
#
# Stress axis : x y z
#
# Youngs Moduli (GPa) = 14.41029 63.23581 34.30178
#
# Poissons Ratio (x) = -1.17800 -0.24952
# Poissons Ratio (y) = -0.26844 -0.07548
# Poissons Ratio (z) = -0.10483 -0.13916
#
# Static dielectric constant tensor:
#      x y z
#    x 1.934420 0.000000 0.074310 
#    y 0.000000 1.917340 0.000000 
#    z 0.074310 0.000000 1.911670 
# 
# From -- ./inp_files/60077.got.cif
#   From: 2010.05.17/outbox.cif.g08.bks.cpg/sg15_31_cif.got.tgz:60077.got - 2010.06.03 18:47:42.
