data_PCOD9295304
_publ_section_title
;
Structure prediction by ZEFSAII (Michael W. Deem and Ramdas Pophale) SiO2 
 PCOD9295304
Probable space group: C 2/C
;
_chemical_formula_sum "Si O2"
_cell_formula_units_Z 60
_cell_length_a 22.829342
_cell_length_b 10.321854
_cell_length_c 20.134558
_cell_angle_alpha 90.000000
_cell_angle_beta 140.885518
_cell_angle_gamma 90.000000
_cell_volume 2993.190907
_symmetry_space_group_name_H-M "C 2/C"
_symmetry_group_IT_number 15
_symmetry_cell_setting 'monoclinic'
loop_
_space_group_symop_operation_xyz
x,y,z
-x,y,1/2-z
-x,-y,-z
x,-y,1/2+z
1/2+x,1/2+y,z
1/2-x,1/2+y,1/2-z
1/2-x,1/2-y,-z
1/2+x,1/2-y,1/2+z
loop_
_atom_site_type_symbol
_atom_site_label
_atom_site_fract_x
_atom_site_fract_y
_atom_site_fract_z
Si Si1 0.345561 0.463525 0.711578
Si Si2 0.483897 0.228581 0.139742
Si Si3 0.711497 0.882150 0.998572
Si Si4 0.828780 0.320777 0.251083
Si Si5 0.542984 0.295255 0.528326
Si Si6 0.500000 0.464744 0.250000
Si Si7 0.406618 0.999895 0.706369
Si Si8 0.633670 0.553575 0.619672
O O1 0.273835 0.556800 0.610691
O O2 0.312042 0.321019 0.703662
O O3 0.426465 0.452789 0.727211
O O4 0.373437 0.530471 0.806388
O O5 0.389527 0.149499 0.062413
O O6 0.467362 0.363039 0.164101
O O7 0.565595 0.146038 0.245656
O O8 0.499164 0.239286 0.075535
O O9 0.685646 0.986701 0.919356
O O10 0.750000 0.750000 0.000000
O O11 0.898858 0.298856 0.374180
O O12 0.881572 0.411040 0.245553
O O13 0.731997 0.384817 0.188339
O O14 0.615120 0.410752 0.573933
O O15 0.453189 0.361855 0.482830
O O16 0.500000 0.045427 0.750000
#
# Coordination Sequence:
#
# PCOD9295304 Si02
#       8
#     8   8   8   8   8   4   8   8
#     4  11  24  41  65  99 133 176 229 274 339 400
#     4  11  20  39  67  92 125 169 217 282 335 385
#     4  11  21  37  63  96 120 167 221 277 331 388
#     4  11  26  44  65  99 138 185 219 281 342 408
#     4  10  23  42  68  93 130 181 219 277 335 397
#     4  12  20  40  64  94 128 168 218 282 320 390
#     4  10  24  42  60  97 136 164 224 280 339 406
#     4  10  23  43  63  97 134 171 234 272 326 418
#
# _framework density 20.045497999999998
#
# number of rings (size 3 to 8) (size 9 to 14) (size 15 to 20)
#    0.000    1.333    4.667    0.800    2.800    5.333 
#    0.000    0.000    0.000    0.000    0.000    0.000 
#    0.000    0.000    0.000    0.000    0.000    0.000 
#
# Total GULP energy -167297.057932 kJ/mol
# GULP energy per Si atom -5576.568598 kJ/mol
# Density = 1.999987 g / cm^3
# Si number density = 20.045498 Si / 1000 Ang^3
#
#
#
# Elastic Constant Matrix: (Units=GPa)
#
#
# Indices 1 2 3 4 5 6 
#
# 1 83.2464 31.2483 13.3183 0.0000 9.0199 0.0000
# 2 31.2483 44.9129 12.3539 0.0000 2.1556 0.0000
# 3 13.3183 12.3539 74.1183 0.0000 4.7221 0.0000
# 4 0.0000 0.0000 0.0000 24.4219 0.0000 -4.6259
# 5 9.0199 2.1556 4.7221 0.0000 25.2525 0.0000
# 6 0.0000 0.0000 0.0000 -4.6259 0.0000 24.7298
#
#
#
# Elastic Compliance Matrix: (Units=1/GPa)
#
#
# Indices 1 2 3 4 5 6 
#
# 1 0.016925 -0.011308 -0.000843 0.000000 -0.004923 0.000000
# 2 -0.011308 0.030931 -0.003251 0.000000 0.002007 0.000000
# 3 -0.000843 -0.003251 0.014319 0.000000 -0.002099 0.000000
# 4 0.000000 0.000000 0.000000 0.042451 0.000000 0.007941
# 5 -0.004923 0.002007 -0.002099 0.000000 0.041580 0.000000
# 6 0.000000 0.000000 0.000000 0.007941 0.000000 0.041922
#
#
# Mechanical properties :
#
#
# Convention : Reuss Voigt Hill
#
# Bulk Modulus (GPa) = 31.87660 35.12427 33.50043
# Shear Modulus (GPa) = 21.79699 24.57131 23.18415
#
# Velocity S-wave (km/s) = 3.30112 3.50491 3.40454
# Velocity P-wave (km/s) = 5.51964 5.82576 5.67477
#
# Compressibility (1/GPa) = 0.03137097
#
# Stress axis : x y z
#
# Youngs Moduli (GPa) = 59.08291 32.33024 69.83692
#
# Poissons Ratio (x) = 0.36558 0.05887
# Poissons Ratio (y) = 0.66810 0.22707
# Poissons Ratio (z) = 0.04980 0.10512
#
# Static dielectric constant tensor:
#      x y z
#    x 1.748730 0.000000 -0.038400 
#    y 0.000000 1.749430 0.000000 
#    z -0.038400 0.000000 1.732400 
# 
# From -- ./inp_files/255186.got.cif
#   From: 2010.05.17/outbox.cif.g08.bks.cpg/sg15_128_cif.got.tgz:255186.got - 2010.06.03 18:47:42.
