data_PCOD9295172
_publ_section_title
;
Structure prediction by ZEFSAII (Michael W. Deem and Ramdas Pophale) SiO2 
 PCOD9295172
Probable space group: C 2/C
;
_chemical_formula_sum "Si O2"
_cell_formula_units_Z 44
_cell_length_a 12.898570
_cell_length_b 24.281387
_cell_length_c 8.134764
_cell_angle_alpha 90.000000
_cell_angle_beta 48.236630
_cell_angle_gamma 90.000000
_cell_volume 1900.385764
_symmetry_space_group_name_H-M "C 2/C"
_symmetry_group_IT_number 15
_symmetry_cell_setting 'monoclinic'
loop_
_space_group_symop_operation_xyz
x,y,z
-x,y,1/2-z
-x,-y,-z
x,-y,1/2+z
1/2+x,1/2+y,z
1/2-x,1/2+y,1/2-z
1/2-x,1/2-y,-z
1/2+x,1/2-y,1/2+z
loop_
_atom_site_type_symbol
_atom_site_label
_atom_site_fract_x
_atom_site_fract_y
_atom_site_fract_z
Si Si1 0.000000 0.880309 0.750000
Si Si2 0.909000 0.419903 0.692400
Si Si3 0.881862 0.046678 0.126316
Si Si4 0.000000 0.614271 0.750000
Si Si5 0.000000 0.131580 0.750000
Si Si6 0.761674 0.690307 0.903048
Si Si7 0.782139 0.687286 0.512024
O O1 0.112509 0.924641 0.702950
O O2 0.109758 0.837664 0.553088
O O3 0.771707 0.456437 0.790938
O O4 0.994846 0.416889 0.431061
O O5 0.000000 0.441806 0.750000
O O6 0.860664 0.358134 0.812512
O O7 0.951543 0.094175 0.947617
O O8 0.000000 0.000000 0.000000
O O9 0.135820 0.652696 0.598795
O O10 0.872046 0.164921 0.824687
O O11 0.832136 0.690056 0.647648
O O12 0.750000 0.750000 0.000000
O O13 0.750000 0.750000 0.500000
#
# Coordination Sequence:
#
# PCOD9295172 Si02
#       7
#     4   8   8   4   4   8   8
#     4  12  24  46  70 110 148 192 259 313 378 464
#     4  11  24  45  74 109 152 196 249 318 387 458
#     4  11  24  46  78 108 139 193 255 321 383 447
#     4  12  23  44  66 103 153 196 244 313 384 446
#     4  10  23  42  66 103 139 178 247 304 368 444
#     4  12  25  40  66 103 154 206 249 307 381 455
#     4  11  24  38  65 101 146 200 248 300 370 459
#
# _framework density 23.153193999999999
#
# number of rings (size 3 to 8) (size 9 to 14) (size 15 to 20)
#    0.000    0.727    5.455    2.182    3.818    1.455 
#    0.000    0.000    2.000    6.545    0.000    0.000 
#    0.000    0.000    0.000    0.000    0.000    0.000 
#
# Total GULP energy -122475.929184 kJ/mol
# GULP energy per Si atom -5567.087690 kJ/mol
# Density = 2.310050 g / cm^3
# Si number density = 23.153194 Si / 1000 Ang^3
#
#
#
# Elastic Constant Matrix: (Units=GPa)
#
#
# Indices 1 2 3 4 5 6 
#
# 1 163.0587 53.0175 36.7261 0.0000 -5.5237 0.0000
# 2 53.0175 69.5470 26.0821 0.0000 2.1435 0.0000
# 3 36.7261 26.0821 85.8095 0.0000 -2.3277 0.0000
# 4 0.0000 0.0000 0.0000 -507.9488 0.0000 425.5168
# 5 -5.5237 2.1435 -2.3277 0.0000 42.7564 0.0000
# 6 0.0000 0.0000 0.0000 425.5168 0.0000 -316.0385
#
#
#
# Elastic Compliance Matrix: (Units=1/GPa)
#
#
# Indices 1 2 3 4 5 6 
#
# 1 0.008480 -0.005819 -0.001826 0.000000 0.001288 0.000000
# 2 -0.005819 0.020273 -0.003725 0.000000 -0.001971 0.000000
# 3 -0.001826 -0.003725 0.013586 0.000000 0.000691 0.000000
# 4 0.000000 0.000000 0.000000 0.015392 0.000000 0.020723
# 5 0.001288 -0.001971 0.000691 0.000000 0.023691 0.000000
# 6 0.000000 0.000000 0.000000 0.020723 0.000000 0.024738
#
#
# Mechanical properties :
#
#
# Convention : Reuss Voigt Hill
#
# Bulk Modulus (GPa) = 51.02299 61.11850 56.07075
# Shear Modulus (GPa) = 36.91913 -142.74021 -52.91054
#
# Velocity S-wave (km/s) = 3.99752 -7.86029 -4.78560
# Velocity P-wave (km/s) = 6.58725 7.47825 2.50322
#
# Compressibility (1/GPa) = 0.01959901
#
# Stress axis : x y z
#
# Youngs Moduli (GPa) = 117.92889 49.32756 73.60563
#
# Poissons Ratio (x) = 0.28705 0.13437
# Poissons Ratio (y) = 0.68627 0.27416
# Poissons Ratio (z) = 0.21528 0.18373
#
# Static dielectric constant tensor:
#      x y z
#    x 1.993570 0.000000 0.097770 
#    y 0.000000 1.986880 0.000000 
#    z 0.097770 0.000000 1.966410 
# 
# From -- ./inp_files/32471.got.cif
#   From: 2010.05.17/outbox.cif.g08.bks.cpg/sg15_17_cif.got.tgz:32471.got - 2010.06.03 18:47:42.
