data_PCOD9295140
_publ_section_title
;
Structure prediction by ZEFSAII (Michael W. Deem and Ramdas Pophale) SiO2 
 PCOD9295140
Probable space group: C 2/C
;
_chemical_formula_sum "Si O2"
_cell_formula_units_Z 48
_cell_length_a 29.129205
_cell_length_b 15.384354
_cell_length_c 10.429247
_cell_angle_alpha 90.000000
_cell_angle_beta 27.350523
_cell_angle_gamma 90.000000
_cell_volume 2147.251876
_symmetry_space_group_name_H-M "C 2/C"
_symmetry_group_IT_number 15
_symmetry_cell_setting 'monoclinic'
loop_
_space_group_symop_operation_xyz
x,y,z
-x,y,1/2-z
-x,-y,-z
x,-y,1/2+z
1/2+x,1/2+y,z
1/2-x,1/2+y,1/2-z
1/2-x,1/2-y,-z
1/2+x,1/2-y,1/2+z
loop_
_atom_site_type_symbol
_atom_site_label
_atom_site_fract_x
_atom_site_fract_y
_atom_site_fract_z
Si Si1 0.461326 0.192739 0.209307
Si Si2 0.245387 0.694685 0.881705
Si Si3 0.443031 0.472447 0.016001
Si Si4 0.092356 0.498706 0.097167
Si Si5 0.716178 0.003671 0.534900
Si Si6 0.958901 0.215211 0.228607
O O1 0.500000 0.221856 0.250000
O O2 0.349110 0.226125 0.464967
O O3 0.455518 0.087471 0.226769
O O4 0.529077 0.229770 0.928365
O O5 0.345017 0.691597 0.547641
O O6 0.250000 0.750000 0.000000
O O7 0.217330 0.598785 0.999415
O O8 0.500000 0.503640 0.750000
O O9 0.464285 0.367612 0.967346
O O10 0.500000 0.500000 0.000000
O O11 0.333988 0.513968 0.270694
O O12 0.158090 0.458588 0.052126
O O13 0.000000 0.453862 0.250000
O O14 0.164271 0.522773 0.799458
O O15 0.000000 0.266006 0.250000
#
# Coordination Sequence:
#
# PCOD9295140 Si02
#       6
#     8   8   8   8   8   8
#     4  10  23  42  65  94 132 164 212 270 320 373
#     4  11  21  41  68  95 121 167 220 255 313 386
#     4  11  22  38  63  96 126 161 208 262 321 383
#     4  10  23  43  62  93 127 168 217 262 316 378
#     4  11  21  40  66  90 129 166 209 265 318 377
#     4  11  21  42  68  92 127 171 215 262 315 385
#
# _framework density 22.354154000000001
#
# number of rings (size 3 to 8) (size 9 to 14) (size 15 to 20)
#    0.000    1.333    5.000    1.500    2.333    1.333 
#   12.000    1.667    0.000    0.000    0.000    0.000 
#    0.000    0.000    0.000    0.000    0.000    0.000 
#
# Total GULP energy -133785.740159 kJ/mol
# GULP energy per Si atom -5574.405840 kJ/mol
# Density = 2.230327 g / cm^3
# Si number density = 22.354154 Si / 1000 Ang^3
#
#
#
# Elastic Constant Matrix: (Units=GPa)
#
#
# Indices 1 2 3 4 5 6 
#
# 1 218.0642 13.7458 46.3191 0.0000 -3.6300 0.0000
# 2 13.7458 43.4960 23.2954 0.0000 4.6241 0.0000
# 3 46.3191 23.2954 116.4223 0.0000 -3.3711 0.0000
# 4 0.0000 0.0000 0.0000 10.5399 0.0000 0.5741
# 5 -3.6300 4.6241 -3.3711 0.0000 49.7326 0.0000
# 6 0.0000 0.0000 0.0000 0.5741 0.0000 13.6833
#
#
#
# Elastic Compliance Matrix: (Units=1/GPa)
#
#
# Indices 1 2 3 4 5 6 
#
# 1 0.005026 -0.000620 -0.001867 0.000000 0.000298 0.000000
# 2 -0.000620 0.026207 -0.005079 0.000000 -0.002826 0.000000
# 3 -0.001867 -0.005079 0.010379 0.000000 0.001039 0.000000
# 4 0.000000 0.000000 0.000000 0.095095 0.000000 -0.003990
# 5 0.000298 -0.002826 0.001039 0.000000 0.020463 0.000000
# 6 0.000000 0.000000 0.000000 -0.003990 0.000000 0.073249
#
#
# Mechanical properties :
#
#
# Convention : Reuss Voigt Hill
#
# Bulk Modulus (GPa) = 37.76466 60.52257 49.14362
# Shear Modulus (GPa) = 19.65574 34.43262 27.04418
#
# Velocity S-wave (km/s) = 2.96850 3.92895 3.48200
# Velocity P-wave (km/s) = 5.35535 6.90764 6.18042
#
# Compressibility (1/GPa) = 0.02647978
#
# Stress axis : x y z
#
# Youngs Moduli (GPa) = 198.94780 38.15736 96.35199
#
# Poissons Ratio (x) = 0.02367 0.17990
# Poissons Ratio (y) = 0.12339 0.48937
# Poissons Ratio (z) = 0.37145 0.19380
#
# Static dielectric constant tensor:
#      x y z
#    x 1.907110 0.000000 -0.049980 
#    y 0.000000 1.898740 0.000000 
#    z -0.049980 0.000000 1.861170 
# 
# From -- ./inp_files/67478.got.cif
#   From: 2010.05.17/outbox.cif.g08.bks.cpg/sg15_34_cif.got.tgz:67478.got - 2010.06.03 18:47:42.
