data_PCOD9295750
_publ_section_title
;
Structure prediction by ZEFSAII (Michael W. Deem and Ramdas Pophale) SiO2 
 PCOD9295750
Probable space group: C 2/C
;
_chemical_formula_sum "Si O2"
_cell_formula_units_Z 56
_cell_length_a 11.185232
_cell_length_b 19.709069
_cell_length_c 11.858401
_cell_angle_alpha 90.000000
_cell_angle_beta 90.657632
_cell_angle_gamma 90.000000
_cell_volume 2614.018344
_symmetry_space_group_name_H-M "C 2/C"
_symmetry_group_IT_number 15
_symmetry_cell_setting 'monoclinic'
loop_
_space_group_symop_operation_xyz
x,y,z
-x,y,1/2-z
-x,-y,-z
x,-y,1/2+z
1/2+x,1/2+y,z
1/2-x,1/2+y,1/2-z
1/2-x,1/2-y,-z
1/2+x,1/2-y,1/2+z
loop_
_atom_site_type_symbol
_atom_site_label
_atom_site_fract_x
_atom_site_fract_y
_atom_site_fract_z
Si Si1 0.619088 0.842214 0.797241
Si Si2 0.218573 0.056628 0.052501
Si Si3 0.623953 0.926115 0.401316
Si Si4 0.868622 0.398874 0.357645
Si Si5 0.234356 0.321281 0.564956
Si Si6 0.389971 0.237139 0.987848
Si Si7 0.493164 0.370756 0.614653
O O1 0.500000 0.878926 0.750000
O O2 0.708184 0.891361 0.865531
O O3 0.689015 0.811218 0.692111
O O4 0.572358 0.787236 0.887252
O O5 0.079034 0.067677 0.076364
O O6 0.281678 0.985312 0.075008
O O7 0.253387 0.077868 0.925957
O O8 0.482918 0.944893 0.395130
O O9 0.648198 0.899919 0.275160
O O10 0.643959 0.867841 0.493348
O O11 0.903388 0.324106 0.400214
O O12 0.250000 0.250000 0.500000
O O13 0.355947 0.365488 0.575743
O O14 0.250000 0.250000 0.000000
O O15 0.450402 0.303727 0.941032
O O16 0.500000 0.367133 0.750000
#
# Coordination Sequence:
#
# PCOD9295750 Si02
#       7
#     8   8   8   8   8   8   8
#     4  11  23  41  67  96 134 171 227 284 342 411
#     4  11  24  43  67  96 132 188 228 273 356 417
#     4  11  26  41  68 101 135 176 231 295 336 413
#     4  10  23  43  68  99 135 176 227 291 353 399
#     4  12  26  43  67 102 136 174 233 291 347 410
#     4  11  21  42  67  95 129 175 227 277 348 415
#     4  12  24  43  70  97 140 188 226 284 350 427
#
# _framework density 21.422957
#
# number of rings (size 3 to 8) (size 9 to 14) (size 15 to 20)
#    0.000    0.857    4.286    3.857   10.000    0.571 
#    0.000    0.714    0.000    0.000    0.000    0.000 
#    0.000    0.000    0.000    0.000    0.000    0.000 
#
# Total GULP energy -156516.867406 kJ/mol
# GULP energy per Si atom -5589.888122 kJ/mol
# Density = 2.137420 g / cm^3
# Si number density = 21.422957 Si / 1000 Ang^3
#
#
#
# Elastic Constant Matrix: (Units=GPa)
#
#
# Indices 1 2 3 4 5 6 
#
# 1 92.2635 -6.0368 7.8805 0.0000 -3.1377 0.0000
# 2 -6.0368 70.1429 24.2336 0.0000 -9.2888 0.0000
# 3 7.8805 24.2336 126.1838 0.0000 -23.7787 0.0000
# 4 0.0000 0.0000 0.0000 14.2857 0.0000 -4.4906
# 5 -3.1377 -9.2888 -23.7787 0.0000 35.4847 0.0000
# 6 0.0000 0.0000 0.0000 -4.4906 0.0000 31.3408
#
#
#
# Elastic Compliance Matrix: (Units=1/GPa)
#
#
# Indices 1 2 3 4 5 6 
#
# 1 0.011020 0.001327 -0.000794 0.000000 0.000790 0.000000
# 2 0.001327 0.015599 -0.002618 0.000000 0.002447 0.000000
# 3 -0.000794 -0.002618 0.009540 0.000000 0.005637 0.000000
# 4 0.000000 0.000000 0.000000 0.073301 0.000000 0.010503
# 5 0.000790 0.002447 0.005637 0.000000 0.032669 0.000000
# 6 0.000000 0.000000 0.000000 0.010503 0.000000 0.033412
#
#
# Mechanical properties :
#
#
# Convention : Reuss Voigt Hill
#
# Bulk Modulus (GPa) = 31.26008 37.86054 34.56031
# Shear Modulus (GPa) = 26.26412 33.72311 29.99361
#
# Velocity S-wave (km/s) = 3.50520 3.97187 3.74581
# Velocity P-wave (km/s) = 5.56825 6.22459 5.90555
#
# Compressibility (1/GPa) = 0.03198968
#
# Stress axis : x y z
#
# Youngs Moduli (GPa) = 90.74345 64.10570 104.82662
#
# Poissons Ratio (x) = -0.08510 0.08327
# Poissons Ratio (y) = -0.12046 0.27440
# Poissons Ratio (z) = 0.07208 0.16781
#
# Static dielectric constant tensor:
#      x y z
#    x 1.833590 0.000000 0.003170 
#    y 0.000000 1.789370 0.000000 
#    z 0.003170 0.000000 1.751810 
# 
# From -- ./inp_files/88952.got.cif
#   From: 2010.05.17/outbox.cif.g08.bks.cpg/sg15_45_cif.got.tgz:88952.got - 2010.06.03 18:47:42.
