data_PCOD9295697
_publ_section_title
;
Structure prediction by ZEFSAII (Michael W. Deem and Ramdas Pophale) SiO2 
 PCOD9295697
Probable space group: C 2/C
;
_chemical_formula_sum "Si O2"
_cell_formula_units_Z 64
_cell_length_a 26.533691
_cell_length_b 11.538988
_cell_length_c 14.723226
_cell_angle_alpha 90.000000
_cell_angle_beta 139.421145
_cell_angle_gamma 90.000000
_cell_volume 2932.321863
_symmetry_space_group_name_H-M "C 2/C"
_symmetry_group_IT_number 15
_symmetry_cell_setting 'monoclinic'
loop_
_space_group_symop_operation_xyz
x,y,z
-x,y,1/2-z
-x,-y,-z
x,-y,1/2+z
1/2+x,1/2+y,z
1/2-x,1/2+y,1/2-z
1/2-x,1/2-y,-z
1/2+x,1/2-y,1/2+z
loop_
_atom_site_type_symbol
_atom_site_label
_atom_site_fract_x
_atom_site_fract_y
_atom_site_fract_z
Si Si1 0.416004 0.292342 0.136112
Si Si2 0.118598 0.765615 0.619209
Si Si3 0.006435 0.609909 0.573676
Si Si4 0.216265 0.955287 0.461704
Si Si5 0.191286 0.005543 0.717163
Si Si6 0.390092 0.051435 0.167039
Si Si7 0.348474 0.898341 0.948834
Si Si8 0.783689 0.831759 0.410913
O O1 0.500000 0.353658 0.250000
O O2 0.345777 0.371037 0.076429
O O3 0.427540 0.177723 0.213602
O O4 0.393085 0.250604 0.004132
O O5 0.048561 0.713957 0.580839
O O6 0.129106 0.903733 0.642254
O O7 0.195393 0.699435 0.761415
O O8 0.059457 0.553153 0.724258
O O9 0.000000 0.500000 0.500000
O O10 0.920322 0.639038 0.487246
O O11 0.307248 0.930423 0.602345
O O12 0.204564 0.948888 0.337160
O O13 0.207209 0.084205 0.490894
O O14 0.178648 0.102654 0.624383
O O15 0.269945 0.938630 0.792066
O O16 0.373586 0.007097 0.042990
O O17 0.324095 0.791767 0.979377
#
# Coordination Sequence:
#
# PCOD9295697 Si02
#       8
#     8   8   8   8   8   8   8   8
#     4  12  25  45  65 102 144 179 223 288 344 410
#     4  11  23  41  69  93 137 178 227 279 342 410
#     4  12  23  38  62  98 130 172 221 283 345 394
#     4  11  24  44  71  98 132 186 228 277 347 403
#     4  10  23  43  67  99 132 177 231 279 334 421
#     4  11  23  42  68  96 132 172 233 279 338 408
#     4  10  24  39  66  96 129 168 222 281 344 391
#     4  11  22  44  68  97 135 173 231 283 332 415
#
# _framework density 21.825707999999999
#
# number of rings (size 3 to 8) (size 9 to 14) (size 15 to 20)
#    0.000    1.000    2.500    5.250    1.750    3.500 
#    2.250    1.250    0.000    0.000    0.000    0.000 
#    0.000    0.000    0.000    0.000    0.000    0.000 
#
# Total GULP energy -178826.382203 kJ/mol
# GULP energy per Si atom -5588.324444 kJ/mol
# Density = 2.177603 g / cm^3
# Si number density = 21.825708 Si / 1000 Ang^3
#
#
#
# Elastic Constant Matrix: (Units=GPa)
#
#
# Indices 1 2 3 4 5 6 
#
# 1 120.2503 18.4156 21.2718 0.0000 31.1564 0.0000
# 2 18.4156 59.4153 4.0312 0.0000 16.9358 0.0000
# 3 21.2718 4.0312 37.2090 0.0000 5.6035 0.0000
# 4 0.0000 0.0000 0.0000 19.4898 0.0000 -4.3579
# 5 31.1564 16.9358 5.6035 0.0000 34.4552 0.0000
# 6 0.0000 0.0000 0.0000 -4.3579 0.0000 40.5046
#
#
#
# Elastic Compliance Matrix: (Units=1/GPa)
#
#
# Indices 1 2 3 4 5 6 
#
# 1 0.011804 -0.000585 -0.005249 0.000000 -0.009533 0.000000
# 2 -0.000585 0.019619 -0.000429 0.000000 -0.009044 0.000000
# 3 -0.005249 -0.000429 0.029909 0.000000 0.000093 0.000000
# 4 0.000000 0.000000 0.000000 0.052574 0.000000 0.005656
# 5 -0.009533 -0.009044 0.000093 0.000000 0.042074 0.000000
# 6 0.000000 0.000000 0.000000 0.005656 0.000000 0.025297
#
#
# Mechanical properties :
#
#
# Convention : Reuss Voigt Hill
#
# Bulk Modulus (GPa) = 20.48971 33.81244 27.15108
# Shear Modulus (GPa) = 23.80143 30.43364 27.11753
#
# Velocity S-wave (km/s) = 3.30589 3.73821 3.52868
# Velocity P-wave (km/s) = 4.89695 5.84448 5.39157
#
# Compressibility (1/GPa) = 0.04880499
#
# Stress axis : x y z
#
# Youngs Moduli (GPa) = 84.71675 50.97038 33.43529
#
# Poissons Ratio (x) = 0.02983 0.17551
# Poissons Ratio (y) = 0.04959 0.01434
# Poissons Ratio (z) = 0.44470 0.02186
#
# Static dielectric constant tensor:
#      x y z
#    x 1.829750 0.000000 -0.042240 
#    y 0.000000 1.835820 0.000000 
#    z -0.042240 0.000000 1.963810 
# 
# From -- ./inp_files/177844.got.cif
#   From: 2010.05.17/outbox.cif.g08.bks.cpg/sg15_89_cif.got.tgz:177844.got - 2010.06.03 18:47:42.
