data_PCOD9295217
_publ_section_title
;
Structure prediction by ZEFSAII (Michael W. Deem and Ramdas Pophale) SiO2 
 PCOD9295217
Probable space group: C 2/C
;
_chemical_formula_sum "Si O2"
_cell_formula_units_Z 60
_cell_length_a 16.929923
_cell_length_b 9.054766
_cell_length_c 20.442429
_cell_angle_alpha 90.000000
_cell_angle_beta 59.900732
_cell_angle_gamma 90.000000
_cell_volume 2711.190624
_symmetry_space_group_name_H-M "C 2/C"
_symmetry_group_IT_number 15
_symmetry_cell_setting 'monoclinic'
loop_
_space_group_symop_operation_xyz
x,y,z
-x,y,1/2-z
-x,-y,-z
x,-y,1/2+z
1/2+x,1/2+y,z
1/2-x,1/2+y,1/2-z
1/2-x,1/2-y,-z
1/2+x,1/2-y,1/2+z
loop_
_atom_site_type_symbol
_atom_site_label
_atom_site_fract_x
_atom_site_fract_y
_atom_site_fract_z
Si Si1 0.500000 0.354748 0.750000
Si Si2 0.833293 0.019225 0.268398
Si Si3 0.561068 0.984178 0.408920
Si Si4 0.772865 0.668481 0.595322
Si Si5 0.263695 0.939816 0.957306
Si Si6 0.184705 0.767938 0.332408
Si Si7 0.915115 0.323464 0.395333
Si Si8 0.909216 0.076207 0.507698
O O1 0.560135 0.448333 0.774657
O O2 0.568028 0.257594 0.679248
O O3 0.776239 0.170284 0.285224
O O4 0.800909 0.949986 0.350499
O O5 0.814895 0.890576 0.224122
O O6 0.639699 0.864187 0.395239
O O7 0.496740 0.936242 0.376549
O O8 0.500000 0.000000 0.500000
O O9 0.609490 0.136717 0.368564
O O10 0.728256 0.830140 0.608149
O O11 0.799231 0.632216 0.509726
O O12 0.319825 0.091062 0.931721
O O13 0.154981 0.964157 0.005418
O O14 0.158048 0.861931 0.407806
O O15 0.925272 0.210550 0.451531
O O16 0.000000 0.000000 0.500000
#
# Coordination Sequence:
#
# PCOD9295217 Si02
#       8
#     4   8   8   8   8   8   8   8
#     4  12  28  44  66 100 142 182 228 290 356 410
#     4  11  26  47  67  98 144 179 236 285 355 417
#     4  11  21  44  70 101 133 176 239 288 347 417
#     4  10  23  42  66  99 134 180 220 296 342 418
#     4  11  23  39  68  97 136 178 230 283 358 409
#     4  11  26  43  74  99 137 187 232 290 347 418
#     4  12  24  42  68  98 142 181 231 294 351 427
#     4  12  24  41  69 101 134 185 243 289 347 428
#
# _framework density 22.130497999999999
#
# number of rings (size 3 to 8) (size 9 to 14) (size 15 to 20)
#    0.000    0.800    2.667    4.400    5.600    2.133 
#    0.000    0.000    0.000    0.000    0.000    0.000 
#    0.000    0.000    0.000    0.000    0.000    0.000 
#
# Total GULP energy -167493.963780 kJ/mol
# GULP energy per Si atom -5583.132126 kJ/mol
# Density = 2.208013 g / cm^3
# Si number density = 22.130498 Si / 1000 Ang^3
#
#
#
# Elastic Constant Matrix: (Units=GPa)
#
#
# Indices 1 2 3 4 5 6 
#
# 1 137.9778 59.4887 18.1512 0.0000 -4.6077 0.0000
# 2 59.4887 107.1627 35.8580 0.0000 5.1454 0.0000
# 3 18.1512 35.8580 65.4392 0.0000 4.4204 0.0000
# 4 0.0000 0.0000 0.0000 47.2387 0.0000 4.7113
# 5 -4.6077 5.1454 4.4204 0.0000 24.5327 0.0000
# 6 0.0000 0.0000 0.0000 4.7113 0.0000 28.5752
#
#
#
# Elastic Compliance Matrix: (Units=1/GPa)
#
#
# Indices 1 2 3 4 5 6 
#
# 1 0.009742 -0.005608 0.000170 0.000000 0.002975 0.000000
# 2 -0.005608 0.014695 -0.006294 0.000000 -0.003001 0.000000
# 3 0.000170 -0.006294 0.018821 0.000000 -0.002039 0.000000
# 4 0.000000 0.000000 0.000000 0.021523 0.000000 -0.003549
# 5 0.002975 -0.003001 -0.002039 0.000000 0.042318 0.000000
# 6 0.000000 0.000000 0.000000 -0.003549 0.000000 0.035581
#
#
# Mechanical properties :
#
#
# Convention : Reuss Voigt Hill
#
# Bulk Modulus (GPa) = 50.52116 59.73060 55.12588
# Shear Modulus (GPa) = 28.94497 33.20809 31.07653
#
# Velocity S-wave (km/s) = 3.62044 3.87791 3.75138
# Velocity P-wave (km/s) = 6.35257 6.86292 6.61267
#
# Compressibility (1/GPa) = 0.01979369
#
# Stress axis : x y z
#
# Youngs Moduli (GPa) = 102.64400 68.05132 53.13244
#
# Poissons Ratio (x) = 0.38162 -0.00901
# Poissons Ratio (y) = 0.57561 0.33441
# Poissons Ratio (z) = -0.01741 0.42831
#
# Static dielectric constant tensor:
#      x y z
#    x 1.890510 0.000000 -0.018880 
#    y 0.000000 1.992750 0.000000 
#    z -0.018880 0.000000 1.832410 
# 
# From -- ./inp_files/247803.got.cif
#   From: 2010.05.17/outbox.cif.g08.bks.cpg/sg15_124_cif.got.tgz:247803.got - 2010.06.03 18:47:42.
