data_PCOD9295268
_publ_section_title
;
Structure prediction by ZEFSAII (Michael W. Deem and Ramdas Pophale) SiO2 
 PCOD9295268
Probable space group: C 2/C
;
_chemical_formula_sum "Si O2"
_cell_formula_units_Z 56
_cell_length_a 17.354968
_cell_length_b 13.526596
_cell_length_c 26.384163
_cell_angle_alpha 90.000000
_cell_angle_beta 25.157378
_cell_angle_gamma 90.000000
_cell_volume 2633.012812
_symmetry_space_group_name_H-M "C 2/C"
_symmetry_group_IT_number 15
_symmetry_cell_setting 'monoclinic'
loop_
_space_group_symop_operation_xyz
x,y,z
-x,y,1/2-z
-x,-y,-z
x,-y,1/2+z
1/2+x,1/2+y,z
1/2-x,1/2+y,1/2-z
1/2-x,1/2-y,-z
1/2+x,1/2-y,1/2+z
loop_
_atom_site_type_symbol
_atom_site_label
_atom_site_fract_x
_atom_site_fract_y
_atom_site_fract_z
Si Si1 0.951749 0.090103 0.990603
Si Si2 0.812966 0.107379 0.253539
Si Si3 0.390717 0.012376 0.363722
Si Si4 0.224359 0.859732 0.537335
Si Si5 0.073446 0.602148 0.483188
Si Si6 0.297698 0.625613 0.746914
Si Si7 0.172965 0.319874 0.728842
O O1 0.126544 0.127415 0.855525
O O2 0.807227 0.048143 0.036088
O O3 0.831695 0.169484 0.092687
O O4 0.000000 0.000000 0.000000
O O5 0.664749 0.151832 0.380177
O O6 0.761725 0.145025 0.228598
O O7 0.013346 0.128087 0.152074
O O8 0.812016 0.988249 0.253240
O O9 0.500000 0.971721 0.250000
O O10 0.513987 0.103601 0.309253
O O11 0.355193 0.931051 0.426845
O O12 0.250000 0.750000 0.500000
O O13 0.269089 0.893211 0.568188
O O14 0.000000 0.500000 0.500000
O O15 0.909384 0.648337 0.613533
O O16 0.400141 0.709302 0.718498
#
# Coordination Sequence:
#
# PCOD9295268 Si02
#       7
#     8   8   8   8   8   8   8
#     4  11  22  44  70  96 142 183 235 290 350 417
#     4  11  23  46  65 100 143 183 233 294 358 425
#     4  10  23  42  67  97 137 179 230 297 348 415
#     4  12  24  44  68 103 138 189 242 292 359 433
#     4  10  24  42  67  99 140 185 229 292 361 415
#     4  11  23  43  69 101 136 183 233 289 360 424
#     4  11  24  42  70 103 136 182 238 292 359 423
#
# _framework density 21.268412000000001
#
# number of rings (size 3 to 8) (size 9 to 14) (size 15 to 20)
#    0.000    1.143    2.857    3.000    4.000    1.714 
#    0.000    5.714    0.000    0.000    0.000    0.000 
#    0.000    0.000    0.000    0.000    0.000    0.000 
#
# Total GULP energy -156043.738221 kJ/mol
# GULP energy per Si atom -5572.990651 kJ/mol
# Density = 2.122000 g / cm^3
# Si number density = 21.268412 Si / 1000 Ang^3
#
#
#
# Elastic Constant Matrix: (Units=GPa)
#
#
# Indices 1 2 3 4 5 6 
#
# 1 106.0231 22.2773 27.8721 -0.0007 6.7290 0.0019
# 2 22.2773 95.4403 23.6265 -0.0042 14.8235 -0.0001
# 3 27.8721 23.6265 133.9556 -0.0268 25.2544 0.0046
# 4 -0.0007 -0.0042 -0.0268 20.1409 0.0013 5.0393
# 5 6.7290 14.8235 25.2544 0.0013 46.9894 -0.0011
# 6 0.0019 -0.0001 0.0046 5.0393 -0.0011 23.4488
#
#
#
# Elastic Compliance Matrix: (Units=1/GPa)
#
#
# Indices 1 2 3 4 5 6 
#
# 1 0.010318 -0.001977 -0.001822 -0.000003 0.000125 0.000000
# 2 -0.001977 0.011649 -0.001117 0.000001 -0.002791 0.000000
# 3 -0.001822 -0.001117 0.008819 0.000013 -0.004127 -0.000005
# 4 -0.000003 0.000001 0.000013 0.052472 -0.000009 -0.011276
# 5 0.000125 -0.002791 -0.004127 -0.000009 0.024362 0.000004
# 6 0.000000 0.000000 -0.000005 -0.011276 0.000004 0.045069
#
#
# Mechanical properties :
#
#
# Convention : Reuss Voigt Hill
#
# Bulk Modulus (GPa) = 47.72079 53.66343 50.69211
# Shear Modulus (GPa) = 29.49741 35.55869 32.52805
#
# Velocity S-wave (km/s) = 3.72817 4.09333 3.91501
# Velocity P-wave (km/s) = 6.40456 6.90121 6.65752
#
# Compressibility (1/GPa) = 0.02095523
#
# Stress axis : x y z
#
# Youngs Moduli (GPa) = 96.91533 85.84222 113.38848
#
# Poissons Ratio (x) = 0.16970 0.20658
# Poissons Ratio (y) = 0.19159 0.12666
# Poissons Ratio (z) = 0.17657 0.09589
#
# Static dielectric constant tensor:
#      x y z
#    x 1.805500 0.000010 0.036350 
#    y 0.000010 1.780010 0.000000 
#    z 0.036350 0.000000 1.781550 
# 
# From -- ./inp_files/274476.got.cif
#   From: 2010.05.17/outbox.cif.g08.bks.cpg/sg15_138_cif.got.tgz:274476.got - 2010.06.03 18:47:42.
