data_PCOD9295192
_publ_section_title
;
Structure prediction by ZEFSAII (Michael W. Deem and Ramdas Pophale) SiO2 
 PCOD9295192
Probable space group: C 2/C
;
_chemical_formula_sum "Si O2"
_cell_formula_units_Z 56
_cell_length_a 10.296795
_cell_length_b 21.404095
_cell_length_c 12.711597
_cell_angle_alpha 90.000000
_cell_angle_beta 103.503328
_cell_angle_gamma 90.000000
_cell_volume 2724.109188
_symmetry_space_group_name_H-M "C 2/C"
_symmetry_group_IT_number 15
_symmetry_cell_setting 'monoclinic'
loop_
_space_group_symop_operation_xyz
x,y,z
-x,y,1/2-z
-x,-y,-z
x,-y,1/2+z
1/2+x,1/2+y,z
1/2-x,1/2+y,1/2-z
1/2-x,1/2-y,-z
1/2+x,1/2-y,1/2+z
loop_
_atom_site_type_symbol
_atom_site_label
_atom_site_fract_x
_atom_site_fract_y
_atom_site_fract_z
Si Si1 0.563115 0.367152 0.983004
Si Si2 0.211308 0.917154 0.528011
Si Si3 0.158641 0.494341 0.275354
Si Si4 0.736651 0.352661 0.204231
Si Si5 0.128918 0.017512 0.351910
Si Si6 0.312876 0.804151 0.439009
Si Si7 0.430269 0.245064 0.630273
O O1 0.403901 0.375093 0.940302
O O2 0.619293 0.427598 0.934965
O O3 0.621077 0.305913 0.938274
O O4 0.602509 0.362646 0.112528
O O5 0.274454 0.969215 0.614668
O O6 0.318368 0.868412 0.504862
O O7 0.138825 0.953823 0.419685
O O8 0.193760 0.420619 0.278119
O O9 0.235744 0.522502 0.189491
O O10 0.000000 0.502347 0.250000
O O11 0.728008 0.321501 0.317656
O O12 0.828583 0.306860 0.151652
O O13 0.000000 0.018275 0.250000
O O14 0.250000 0.750000 0.500000
O O15 0.456831 0.784434 0.423000
O O16 0.500000 0.268938 0.750000
#
# Coordination Sequence:
#
# PCOD9295192 Si02
#       7
#     8   8   8   8   8   8   8
#     4  12  23  42  70 103 136 180 231 290 349 413
#     4  12  25  42  70 103 141 177 236 290 346 420
#     4  12  26  45  67 104 140 186 233 290 352 418
#     4  11  24  43  68  98 135 184 238 281 349 424
#     4  12  24  42  72 104 141 182 227 289 358 419
#     4  11  23  44  67  96 136 185 228 292 350 408
#     4  10  23  42  66  94 134 184 234 281 345 416
#
# _framework density 20.557178
#
# number of rings (size 3 to 8) (size 9 to 14) (size 15 to 20)
#    0.000    0.571    5.714    3.429    0.000    1.714 
#    0.000    1.429    0.000    0.000    0.000    0.000 
#    0.000    0.000    0.000    0.000    0.000    0.000 
#
# Total GULP energy -156426.520444 kJ/mol
# GULP energy per Si atom -5586.661444 kJ/mol
# Density = 2.051039 g / cm^3
# Si number density = 20.557178 Si / 1000 Ang^3
#
#
#
# Elastic Constant Matrix: (Units=GPa)
#
#
# Indices 1 2 3 4 5 6 
#
# 1 71.2940 18.3104 26.7597 0.0000 -12.9597 0.0000
# 2 18.3104 105.2186 48.7812 0.0000 -12.2210 0.0000
# 3 26.7597 48.7812 99.3273 0.0000 -1.3106 0.0000
# 4 0.0000 0.0000 0.0000 43.6741 0.0000 -11.4895
# 5 -12.9597 -12.2210 -1.3106 0.0000 33.0395 0.0000
# 6 0.0000 0.0000 0.0000 -11.4895 0.0000 19.6176
#
#
#
# Elastic Compliance Matrix: (Units=1/GPa)
#
#
# Indices 1 2 3 4 5 6 
#
# 1 0.016873 -0.000164 -0.004381 0.000000 0.006384 0.000000
# 2 -0.000164 0.012955 -0.006259 0.000000 0.004479 0.000000
# 3 -0.004381 -0.006259 0.014276 0.000000 -0.003467 0.000000
# 4 0.000000 0.000000 0.000000 0.027067 0.000000 0.015853
# 5 0.006384 0.004479 -0.003467 0.000000 0.034290 0.000000
# 6 0.000000 0.000000 0.000000 0.015853 0.000000 0.060259
#
#
# Mechanical properties :
#
#
# Convention : Reuss Voigt Hill
#
# Bulk Modulus (GPa) = 44.45144 51.50474 47.97809
# Shear Modulus (GPa) = 25.66372 31.39880 28.53126
#
# Velocity S-wave (km/s) = 3.53711 3.91242 3.72949
# Velocity P-wave (km/s) = 6.19288 6.74672 6.47572
#
# Compressibility (1/GPa) = 0.02249646
#
# Stress axis : x y z
#
# Youngs Moduli (GPa) = 59.26470 77.19297 70.04647
#
# Poissons Ratio (x) = 0.01263 0.30689
# Poissons Ratio (y) = 0.00970 0.43842
# Poissons Ratio (z) = 0.25966 0.48315
#
# Static dielectric constant tensor:
#      x y z
#    x 1.736880 0.000000 -0.010320 
#    y 0.000000 1.706310 0.000000 
#    z -0.010320 0.000000 1.765580 
# 
# From -- ./inp_files/88882.got.cif
#   From: 2010.05.17/outbox.cif.g08.bks.cpg/sg15_45_cif.got.tgz:88882.got - 2010.06.03 18:47:42.
