data_PCOD9295269
_publ_section_title
;
Structure prediction by ZEFSAII (Michael W. Deem and Ramdas Pophale) SiO2 
 PCOD9295269
Probable space group: C 2/C
;
_chemical_formula_sum "Si O2"
_cell_formula_units_Z 40
_cell_length_a 16.638837
_cell_length_b 11.419577
_cell_length_c 13.951652
_cell_angle_alpha 90.000000
_cell_angle_beta 36.699930
_cell_angle_gamma 90.000000
_cell_volume 1584.261146
_symmetry_space_group_name_H-M "C 2/C"
_symmetry_group_IT_number 15
_symmetry_cell_setting 'monoclinic'
loop_
_space_group_symop_operation_xyz
x,y,z
-x,y,1/2-z
-x,-y,-z
x,-y,1/2+z
1/2+x,1/2+y,z
1/2-x,1/2+y,1/2-z
1/2-x,1/2-y,-z
1/2+x,1/2-y,1/2+z
loop_
_atom_site_type_symbol
_atom_site_label
_atom_site_fract_x
_atom_site_fract_y
_atom_site_fract_z
Si Si1 0.642934 0.305920 0.874913
Si Si2 0.619663 0.233893 0.482349
Si Si3 0.488244 0.005941 0.627785
Si Si4 0.319426 0.492212 0.013732
Si Si5 0.769845 0.355859 0.053656
O O1 0.740543 0.321677 0.690612
O O2 0.618284 0.416445 0.968542
O O3 0.734833 0.206093 0.839350
O O4 0.497805 0.260507 0.982944
O O5 0.553333 0.126556 0.600865
O O6 0.640148 0.357462 0.515252
O O7 0.335587 0.999243 0.804311
O O8 0.500000 0.000000 0.500000
O O9 0.579829 0.905353 0.584351
O O10 0.325599 0.544522 0.900003
O O11 0.750000 0.250000 0.000000
#
# Coordination Sequence:
#
# PCOD9295269 Si02
#       5
#     8   8   8   8   8
#     4  11  22  42  70 100 135 179 232 276 336 414
#     4  12  23  40  72 101 134 179 232 280 337 407
#     4  12  21  41  70  96 135 183 227 276 338 408
#     4  11  23  41  65 101 138 177 223 287 342 397
#     4  10  23  42  67  98 131 176 223 278 335 402
#
# _framework density 25.248363999999999
#
# number of rings (size 3 to 8) (size 9 to 14) (size 15 to 20)
#    0.000    0.800    6.000    1.200    0.000    2.400 
#    0.000    3.000    0.000    0.000    0.000    0.000 
#    0.000    0.000    0.000    0.000    0.000    0.000 
#
# Total GULP energy -111773.393250 kJ/mol
# GULP energy per Si atom -5588.669662 kJ/mol
# Density = 2.519090 g / cm^3
# Si number density = 25.248364 Si / 1000 Ang^3
#
#
#
# Elastic Constant Matrix: (Units=GPa)
#
#
# Indices 1 2 3 4 5 6 
#
# 1 95.0439 43.2179 18.5100 0.0000 -6.0419 0.0000
# 2 43.2179 142.4498 15.8236 0.0000 -8.5462 0.0000
# 3 18.5100 15.8236 64.7625 0.0000 -13.2875 0.0000
# 4 0.0000 0.0000 0.0000 28.7481 0.0000 -30.3746
# 5 -6.0419 -8.5462 -13.2875 0.0000 32.7084 0.0000
# 6 0.0000 0.0000 0.0000 -30.3746 0.0000 51.1176
#
#
#
# Elastic Compliance Matrix: (Units=1/GPa)
#
#
# Indices 1 2 3 4 5 6 
#
# 1 0.012670 -0.003525 -0.002693 0.000000 0.000325 0.000000
# 2 -0.003525 0.008246 -0.000762 0.000000 0.001194 0.000000
# 3 -0.002693 -0.000762 0.017732 0.000000 0.006507 0.000000
# 4 0.000000 0.000000 0.000000 0.093465 0.000000 0.055538
# 5 0.000325 0.001194 0.006507 0.000000 0.033588 0.000000
# 6 0.000000 0.000000 0.000000 0.055538 0.000000 0.052564
#
#
# Mechanical properties :
#
#
# Convention : Reuss Voigt Hill
#
# Bulk Modulus (GPa) = 40.50825 50.81769 45.66297
# Shear Modulus (GPa) = 20.79391 37.49514 29.14452
#
# Velocity S-wave (km/s) = 2.87291 3.85782 3.40120
# Velocity P-wave (km/s) = 5.20419 6.32570 5.79215
#
# Compressibility (1/GPa) = 0.02468633
#
# Stress axis : x y z
#
# Youngs Moduli (GPa) = 78.92931 121.27376 56.39516
#
# Poissons Ratio (x) = 0.42751 0.15188
# Poissons Ratio (y) = 0.27824 0.04299
# Poissons Ratio (z) = 0.21256 0.09244
#
# Static dielectric constant tensor:
#      x y z
#    x 2.193750 0.000000 0.059810 
#    y 0.000000 2.057890 0.000000 
#    z 0.059810 0.000000 1.962140 
# 
# From -- ./inp_files/46261.got.cif
#   From: 2010.05.17/outbox.cif.g08.bks.cpg/sg15_24_cif.got.tgz:46261.got - 2010.06.03 18:47:42.
