data_PCOD9295340
_publ_section_title
;
Structure prediction by ZEFSAII (Michael W. Deem and Ramdas Pophale) SiO2 
 PCOD9295340
Probable space group: C 2/C
;
_chemical_formula_sum "Si O2"
_cell_formula_units_Z 40
_cell_length_a 9.636463
_cell_length_b 21.467098
_cell_length_c 11.560519
_cell_angle_alpha 90.000000
_cell_angle_beta 47.372313
_cell_angle_gamma 90.000000
_cell_volume 1759.585420
_symmetry_space_group_name_H-M "C 2/C"
_symmetry_group_IT_number 15
_symmetry_cell_setting 'monoclinic'
loop_
_space_group_symop_operation_xyz
x,y,z
-x,y,1/2-z
-x,-y,-z
x,-y,1/2+z
1/2+x,1/2+y,z
1/2-x,1/2+y,1/2-z
1/2-x,1/2-y,-z
1/2+x,1/2-y,1/2+z
loop_
_atom_site_type_symbol
_atom_site_label
_atom_site_fract_x
_atom_site_fract_y
_atom_site_fract_z
Si Si1 0.222979 0.159486 0.586092
Si Si2 0.208841 0.686663 0.589501
Si Si3 0.895808 0.217017 0.075741
Si Si4 0.805830 0.121436 0.316505
Si Si5 0.492609 0.044212 0.390275
O O1 0.351985 0.209240 0.586915
O O2 0.321998 0.092445 0.516317
O O3 0.000000 0.158320 0.750000
O O4 0.768727 0.187798 0.047681
O O5 0.250000 0.750000 0.500000
O O6 0.394443 0.688216 0.564749
O O7 0.208910 0.633029 0.493457
O O8 0.000000 0.688092 0.750000
O O9 0.846230 0.186861 0.227588
O O10 0.685650 0.082696 0.295873
O O11 0.000000 0.091831 0.250000
O O12 0.500000 0.021783 0.250000
O O13 0.500000 0.000000 0.500000
#
# Coordination Sequence:
#
# PCOD9295340 Si02
#       5
#     8   8   8   8   8
#     4  11  26  42  74 110 149 195 251 312 391 457
#     4  11  23  36  61 101 152 196 240 292 374 459
#     4  10  23  42  69 111 154 192 237 315 390 469
#     4  10  23  46  72 104 147 198 244 317 390 454
#     4  12  28  54  77 108 151 208 266 322 380 462
#
# _framework density 22.732627000000001
#
# number of rings (size 3 to 8) (size 9 to 14) (size 15 to 20)
#    0.000    1.200    2.000    3.000   14.000    1.600 
#    3.600    5.000    0.000    0.000    0.000    0.000 
#    0.000    0.000    0.000    0.000    0.000    0.000 
#
# Total GULP energy -111422.775534 kJ/mol
# GULP energy per Si atom -5571.138777 kJ/mol
# Density = 2.268089 g / cm^3
# Si number density = 22.732627 Si / 1000 Ang^3
#
#
#
# Elastic Constant Matrix: (Units=GPa)
#
#
# Indices 1 2 3 4 5 6 
#
# 1 139.0011 27.2447 54.8429 0.0000 10.4378 0.0000
# 2 27.2447 66.3010 35.5325 0.0000 11.4276 0.0000
# 3 54.8429 35.5325 148.1524 0.0000 -7.4953 0.0000
# 4 0.0000 0.0000 0.0000 26.7100 0.0000 7.3926
# 5 10.4378 11.4276 -7.4953 0.0000 38.2031 0.0000
# 6 0.0000 0.0000 0.0000 7.3926 0.0000 33.1372
#
#
#
# Elastic Compliance Matrix: (Units=1/GPa)
#
#
# Indices 1 2 3 4 5 6 
#
# 1 0.008897 -0.001585 -0.003042 0.000000 -0.002554 0.000000
# 2 -0.001585 0.019096 -0.004303 0.000000 -0.006123 0.000000
# 3 -0.003042 -0.004303 0.009106 0.000000 0.003905 0.000000
# 4 0.000000 0.000000 0.000000 0.039903 0.000000 -0.008902
# 5 -0.002554 -0.006123 0.003905 0.000000 0.029471 0.000000
# 6 0.000000 0.000000 0.000000 -0.008902 0.000000 0.032164
#
#
# Mechanical properties :
#
#
# Convention : Reuss Voigt Hill
#
# Bulk Modulus (GPa) = 51.98305 65.41053 58.69679
# Shear Modulus (GPa) = 30.69191 35.33235 33.01213
#
# Velocity S-wave (km/s) = 3.67839 3.94668 3.81490
# Velocity P-wave (km/s) = 6.39981 7.04306 6.72913
#
# Compressibility (1/GPa) = 0.01923704
#
# Stress axis : x y z
#
# Youngs Moduli (GPa) = 112.39643 52.36836 109.82286
#
# Poissons Ratio (x) = 0.08302 0.33413
# Poissons Ratio (y) = 0.17819 0.47254
# Poissons Ratio (z) = 0.34196 0.22533
#
# Static dielectric constant tensor:
#      x y z
#    x 1.395150 0.000000 0.216870 
#    y 0.000000 1.913370 0.000000 
#    z 0.216870 0.000000 1.884750 
# 
# From -- ./inp_files/89300.got.cif
#   From: 2010.05.17/outbox.cif.g08.bks.cpg/sg15_45_cif.got.tgz:89300.got - 2010.06.03 18:47:42.
