data_PCOD9295607
_publ_section_title
;
Structure prediction by ZEFSAII (Michael W. Deem and Ramdas Pophale) SiO2 
 PCOD9295607
Probable space group: C 2/C
;
_chemical_formula_sum "Si O2"
_cell_formula_units_Z 56
_cell_length_a 21.000556
_cell_length_b 12.457246
_cell_length_c 10.163093
_cell_angle_alpha 90.000000
_cell_angle_beta 91.121438
_cell_angle_gamma 90.000000
_cell_volume 2658.248273
_symmetry_space_group_name_H-M "C 2/C"
_symmetry_group_IT_number 15
_symmetry_cell_setting 'monoclinic'
loop_
_space_group_symop_operation_xyz
x,y,z
-x,y,1/2-z
-x,-y,-z
x,-y,1/2+z
1/2+x,1/2+y,z
1/2-x,1/2+y,1/2-z
1/2-x,1/2-y,-z
1/2+x,1/2-y,1/2+z
loop_
_atom_site_type_symbol
_atom_site_label
_atom_site_fract_x
_atom_site_fract_y
_atom_site_fract_z
Si Si1 0.172359 0.259607 0.839397
Si Si2 0.867059 0.442413 0.834998
Si Si3 0.500000 0.491341 0.250000
Si Si4 0.591493 0.682967 0.227314
Si Si5 0.537597 0.306146 0.428976
Si Si6 0.000000 0.495686 0.750000
Si Si7 0.302908 0.170890 0.862500
Si Si8 0.049550 0.348935 0.452598
O O1 0.175346 0.348172 0.726109
O O2 0.101552 0.210943 0.847506
O O3 0.228455 0.173378 0.825970
O O4 0.186725 0.315163 0.980666
O O5 0.931240 0.443064 0.749676
O O6 0.836475 0.559764 0.825652
O O7 0.890804 0.410390 0.981753
O O8 0.562976 0.566452 0.262655
O O9 0.502777 0.412007 0.375122
O O10 0.662984 0.724963 0.202432
O O11 0.568877 0.763427 0.341587
O O12 0.559759 0.694527 0.081661
O O13 0.486773 0.210192 0.429789
O O14 0.998616 0.570814 0.621018
#
# Coordination Sequence:
#
# PCOD9295607 Si02
#       8
#     8   8   4   8   8   4   8   8
#     4  10  23  44  61  90 125 163 212 258 298 370
#     4  12  23  36  68  97 120 164 212 251 315 375
#     4  12  23  37  66  90 124 166 209 247 314 378
#     4  11  22  40  60  91 128 161 200 258 311 361
#     4  11  21  40  62  92 125 165 201 253 313 367
#     4  12  19  37  62 100 132 158 197 263 322 362
#     4  10  23  43  66  82 127 168 205 256 313 361
#     4  12  21  38  62  99 131 152 203 267 314 365
#
# _framework density 21.066506
#
# number of rings (size 3 to 8) (size 9 to 14) (size 15 to 20)
#    0.000    0.857    4.286    4.286    0.000    1.143 
#    0.000    0.714    0.000    0.000    0.000    0.000 
#    0.000    0.000    0.000    0.000    0.000    0.000 
#
# Total GULP energy -156237.580334 kJ/mol
# GULP energy per Si atom -5579.913583 kJ/mol
# Density = 2.101856 g / cm^3
# Si number density = 21.066506 Si / 1000 Ang^3
#
#
#
# Elastic Constant Matrix: (Units=GPa)
#
#
# Indices 1 2 3 4 5 6 
#
# 1 85.0344 43.3288 34.6017 0.0000 0.3971 0.0000
# 2 43.3288 87.8077 32.1052 0.0000 8.7859 0.0000
# 3 34.6017 32.1052 64.4553 0.0000 1.4285 0.0000
# 4 0.0000 0.0000 0.0000 47.4383 0.0000 5.8673
# 5 0.3971 8.7859 1.4285 0.0000 20.4527 0.0000
# 6 0.0000 0.0000 0.0000 5.8673 0.0000 24.4168
#
#
#
# Elastic Compliance Matrix: (Units=1/GPa)
#
#
# Indices 1 2 3 4 5 6 
#
# 1 0.017725 -0.006777 -0.006206 0.000000 0.003001 0.000000
# 2 -0.006777 0.017164 -0.004758 0.000000 -0.006909 0.000000
# 3 -0.006206 -0.004758 0.021201 0.000000 0.000684 0.000000
# 4 0.000000 0.000000 0.000000 0.021726 0.000000 -0.005221
# 5 0.003001 -0.006909 0.000684 0.000000 0.051755 0.000000
# 6 0.000000 0.000000 0.000000 -0.005221 0.000000 0.042210
#
#
# Mechanical properties :
#
#
# Convention : Reuss Voigt Hill
#
# Bulk Modulus (GPa) = 48.52699 50.81878 49.67288
# Shear Modulus (GPa) = 23.35019 26.94568 25.14793
#
# Velocity S-wave (km/s) = 3.33288 3.58030 3.45880
# Velocity P-wave (km/s) = 6.15597 6.42392 6.29137
#
# Compressibility (1/GPa) = 0.02060709
#
# Stress axis : x y z
#
# Youngs Moduli (GPa) = 56.41894 58.26229 47.16798
#
# Poissons Ratio (x) = 0.39487 0.29271
# Poissons Ratio (y) = 0.38237 0.22442
# Poissons Ratio (z) = 0.35012 0.27720
#
# Static dielectric constant tensor:
#      x y z
#    x 1.767200 0.000000 -0.031540 
#    y 0.000000 1.776120 0.000000 
#    z -0.031540 0.000000 1.780070 
# 
# From -- ./inp_files/111037.got.cif
#   From: 2010.05.17/outbox.cif.g08.bks.cpg/sg15_56_cif.got.tgz:111037.got - 2010.06.03 18:47:42.
