data_PCOD9295718
_publ_section_title
;
Structure prediction by ZEFSAII (Michael W. Deem and Ramdas Pophale) SiO2 
 PCOD9295718
Probable space group: C 2/C
;
_chemical_formula_sum "Si O2"
_cell_formula_units_Z 24
_cell_length_a 5.163536
_cell_length_b 23.084644
_cell_length_c 8.415988
_cell_angle_alpha 90.000000
_cell_angle_beta 92.371432
_cell_angle_gamma 90.000000
_cell_volume 1002.313091
_symmetry_space_group_name_H-M "C 2/C"
_symmetry_group_IT_number 15
_symmetry_cell_setting 'monoclinic'
loop_
_space_group_symop_operation_xyz
x,y,z
-x,y,1/2-z
-x,-y,-z
x,-y,1/2+z
1/2+x,1/2+y,z
1/2-x,1/2+y,1/2-z
1/2-x,1/2-y,-z
1/2+x,1/2-y,1/2+z
loop_
_atom_site_type_symbol
_atom_site_label
_atom_site_fract_x
_atom_site_fract_y
_atom_site_fract_z
Si Si1 0.434090 0.594838 0.072359
Si Si2 0.738854 0.029645 0.641584
Si Si3 0.759258 0.797944 0.362266
O O1 0.500000 0.617278 0.250000
O O2 0.258124 0.536980 0.085007
O O3 0.703965 0.572398 0.002173
O O4 0.308799 0.642065 0.956139
O O5 0.500000 0.039776 0.750000
O O6 0.000000 0.036974 0.750000
O O7 0.500000 0.799177 0.250000
O O8 0.750000 0.750000 0.500000
O O9 0.000000 0.787668 0.250000
#
# Coordination Sequence:
#
# PCOD9295718 Si02
#       3
#     8   8   8
#     4  10  24  44  72 107 148 192 243 301 359 426
#     4  10  23  43  68 103 148 199 245 287 351 430
#     4  12  28  51  78 107 143 188 245 306 369 436
#
# _framework density 23.944614000000001
#
# number of rings (size 3 to 8) (size 9 to 14) (size 15 to 20)
#    0.000    1.333    0.000    3.000    0.000   25.333 
#    0.000    0.000    0.000    0.000    0.000    0.000 
#    0.000    0.000    0.000    0.000    0.000    0.000 
#
# Total GULP energy -67310.825602 kJ/mol
# GULP energy per Si atom -5609.235467 kJ/mol
# Density = 2.389011 g / cm^3
# Si number density = 23.944614 Si / 1000 Ang^3
#
#
#
# Elastic Constant Matrix: (Units=GPa)
#
#
# Indices 1 2 3 4 5 6 
#
# 1 229.5693 67.2850 127.7104 0.0000 -23.0655 0.0000
# 2 67.2850 151.6364 89.7843 0.0000 -3.4795 0.0000
# 3 127.7104 89.7843 233.5454 0.0000 -11.0574 0.0000
# 4 0.0000 0.0000 0.0000 48.8775 0.0000 -1.5891
# 5 -23.0655 -3.4795 -11.0574 0.0000 55.9921 0.0000
# 6 0.0000 0.0000 0.0000 -1.5891 0.0000 19.9843
#
#
#
# Elastic Compliance Matrix: (Units=1/GPa)
#
#
# Indices 1 2 3 4 5 6 
#
# 1 0.006596 -0.001038 -0.003111 0.000000 0.002038 0.000000
# 2 -0.001038 0.008702 -0.002799 0.000000 -0.000439 0.000000
# 3 -0.003111 -0.002799 0.007056 0.000000 -0.000062 0.000000
# 4 0.000000 0.000000 0.000000 0.020512 0.000000 0.001631
# 5 0.002038 -0.000439 -0.000062 0.000000 0.018660 0.000000
# 6 0.000000 0.000000 0.000000 0.001631 0.000000 0.050169
#
#
# Mechanical properties :
#
#
# Convention : Reuss Voigt Hill
#
# Bulk Modulus (GPa) = 118.22439 131.59006 124.90723
# Shear Modulus (GPa) = 38.93752 46.96885 42.95318
#
# Velocity S-wave (km/s) = 4.03693 4.43376 4.23999
# Velocity P-wave (km/s) = 8.43862 9.01589 8.73203
#
# Compressibility (1/GPa) = 0.00845849
#
# Stress axis : x y z
#
# Youngs Moduli (GPa) = 151.61239 114.91188 141.71787
#
# Poissons Ratio (x) = 0.11924 0.44093
# Poissons Ratio (y) = 0.15733 0.39665
# Poissons Ratio (z) = 0.47172 0.32162
#
# Static dielectric constant tensor:
#      x y z
#    x 1.932750 0.000000 0.053440 
#    y 0.000000 1.931570 0.000000 
#    z 0.053440 0.000000 1.978630 
# 
# From -- ./inp_files/19518.got.cif
#   From: 2010.05.17/outbox.cif.g08.bks.cpg/sg15_10_cif.got.tgz:19518.got - 2010.06.03 18:47:42.
