data_PCOD9295983
_publ_section_title
;
Structure prediction by ZEFSAII (Michael W. Deem and Ramdas Pophale) SiO2 
 PCOD9295983
Probable space group: C 2/C
;
_chemical_formula_sum "Si O2"
_cell_formula_units_Z 48
_cell_length_a 12.175407
_cell_length_b 7.922727
_cell_length_c 23.053558
_cell_angle_alpha 90.000000
_cell_angle_beta 75.541023
_cell_angle_gamma 90.000000
_cell_volume 2153.366889
_symmetry_space_group_name_H-M "C 2/C"
_symmetry_group_IT_number 15
_symmetry_cell_setting 'monoclinic'
loop_
_space_group_symop_operation_xyz
x,y,z
-x,y,1/2-z
-x,-y,-z
x,-y,1/2+z
1/2+x,1/2+y,z
1/2-x,1/2+y,1/2-z
1/2-x,1/2-y,-z
1/2+x,1/2-y,1/2+z
loop_
_atom_site_type_symbol
_atom_site_label
_atom_site_fract_x
_atom_site_fract_y
_atom_site_fract_z
Si Si1 0.815287 0.031736 0.828699
Si Si2 0.645986 0.115822 0.435314
Si Si3 0.287030 0.520698 0.621392
Si Si4 0.773348 0.719937 0.757136
Si Si5 0.090591 0.519414 0.573156
Si Si6 0.979549 0.176593 0.155228
O O1 0.735844 0.015224 0.895308
O O2 0.756524 0.892229 0.794368
O O3 0.939753 0.965727 0.827818
O O4 0.807765 0.191428 0.787571
O O5 0.682499 0.307260 0.417139
O O6 0.633761 0.077806 0.504678
O O7 0.523555 0.085664 0.422007
O O8 0.244446 0.582221 0.690238
O O9 0.189343 0.431521 0.596972
O O10 0.396328 0.407608 0.619276
O O11 0.898664 0.735279 0.713251
O O12 0.056632 0.683715 0.614953
#
# Coordination Sequence:
#
# PCOD9295983 Si02
#       6
#     8   8   8   8   8   8
#     4  11  23  41  67  91 129 164 208 258 314 377
#     4  10  23  44  63  94 124 170 212 259 312 368
#     4  11  25  40  64  97 124 166 211 259 318 370
#     4  11  22  39  63  95 123 163 208 250 317 373
#     4  11  23  44  67  87 130 168 213 260 310 373
#     4  12  24  40  67  93 128 168 205 263 317 371
#
# _framework density 22.290673000000002
#
# number of rings (size 3 to 8) (size 9 to 14) (size 15 to 20)
#    0.000    1.000    6.667    1.000    0.000    2.000 
#    0.000    3.333    0.000    0.000    0.000    0.000 
#    0.000    0.000    0.000    0.000    0.000    0.000 
#
# Total GULP energy -134184.083991 kJ/mol
# GULP energy per Si atom -5591.003500 kJ/mol
# Density = 2.223994 g / cm^3
# Si number density = 22.290673 Si / 1000 Ang^3
#
#
#
# Elastic Constant Matrix: (Units=GPa)
#
#
# Indices 1 2 3 4 5 6 
#
# 1 132.4450 7.3570 11.0872 0.0000 9.9866 0.0000
# 2 7.3570 31.1720 -10.6691 0.0000 -3.4596 0.0000
# 3 11.0872 -10.6691 80.7258 0.0000 -20.9609 0.0000
# 4 0.0000 0.0000 0.0000 12.7377 0.0000 9.9732
# 5 9.9866 -3.4596 -20.9609 0.0000 27.8307 0.0000
# 6 0.0000 0.0000 0.0000 9.9732 0.0000 34.6122
#
#
#
# Elastic Compliance Matrix: (Units=1/GPa)
#
#
# Indices 1 2 3 4 5 6 
#
# 1 0.008472 -0.003749 -0.003194 0.000000 -0.005911 0.000000
# 2 -0.003749 0.037337 0.008706 0.000000 0.012544 0.000000
# 3 -0.003194 0.008706 0.018094 0.000000 0.015856 0.000000
# 4 0.000000 0.000000 0.000000 0.101379 0.000000 -0.029211
# 5 -0.005911 0.012544 0.015856 0.000000 0.051554 0.000000
# 6 0.000000 0.000000 0.000000 -0.029211 0.000000 0.037309
#
#
# Mechanical properties :
#
#
# Convention : Reuss Voigt Hill
#
# Bulk Modulus (GPa) = 14.83008 28.87701 21.85355
# Shear Modulus (GPa) = 18.30880 30.80730 24.55805
#
# Velocity S-wave (km/s) = 2.86906 3.72166 3.32282
# Velocity P-wave (km/s) = 4.20033 5.60807 4.95446
#
# Compressibility (1/GPa) = 0.06743050
#
# Stress axis : x y z
#
# Youngs Moduli (GPa) = 118.04111 26.78320 55.26675
#
# Poissons Ratio (x) = 0.10040 0.17652
# Poissons Ratio (y) = 0.44249 -0.48118
# Poissons Ratio (z) = 0.37701 -0.23319
#
# Static dielectric constant tensor:
#      x y z
#    x 1.821050 0.000000 0.011290 
#    y 0.000000 1.913350 0.000000 
#    z 0.011290 0.000000 1.801880 
# 
# From -- ./inp_files/267626.got.cif
#   From: 2010.05.17/outbox.cif.g08.bks.cpg/sg15_134_cif.got.tgz:267626.got - 2010.06.03 18:47:42.
