data_PCOD9295821
_publ_section_title
;
Structure prediction by ZEFSAII (Michael W. Deem and Ramdas Pophale) SiO2 
 PCOD9295821
Probable space group: C 2/C
;
_chemical_formula_sum "Si O2"
_cell_formula_units_Z 36
_cell_length_a 12.058633
_cell_length_b 17.820951
_cell_length_c 8.966356
_cell_angle_alpha 90.000000
_cell_angle_beta 56.690012
_cell_angle_gamma 90.000000
_cell_volume 1610.279943
_symmetry_space_group_name_H-M "C 2/C"
_symmetry_group_IT_number 15
_symmetry_cell_setting 'monoclinic'
loop_
_space_group_symop_operation_xyz
x,y,z
-x,y,1/2-z
-x,-y,-z
x,-y,1/2+z
1/2+x,1/2+y,z
1/2-x,1/2+y,1/2-z
1/2-x,1/2-y,-z
1/2+x,1/2-y,1/2+z
loop_
_atom_site_type_symbol
_atom_site_label
_atom_site_fract_x
_atom_site_fract_y
_atom_site_fract_z
Si Si1 0.761225 0.578294 0.949876
Si Si2 0.872285 0.446953 0.047119
Si Si3 0.135216 0.701110 0.149075
Si Si4 0.129164 0.287737 0.995800
Si Si5 0.500000 0.666356 0.250000
O O1 0.785316 0.497744 0.001671
O O2 0.878874 0.632062 0.921810
O O3 0.624134 0.612997 0.116348
O O4 0.784596 0.573761 0.756267
O O5 0.896387 0.370925 0.933324
O O6 0.000000 0.500000 0.000000
O O7 0.166013 0.691535 0.300652
O O8 0.000000 0.747800 0.250000
O O9 0.250000 0.750000 0.000000
O O10 0.250000 0.250000 0.000000
O O11 0.008988 0.228861 0.108359
#
# Coordination Sequence:
#
# PCOD9295821 Si02
#       5
#     8   8   8   8   4
#     4  11  24  44  71 101 145 193 249 305 381 451
#     4  12  26  48  73 108 147 201 255 314 387 470
#     4  12  27  46  73 114 151 197 259 322 387 467
#     4  10  23  43  70 103 150 195 247 306 384 456
#     4  10  24  42  70 104 144 192 246 308 380 442
#
# _framework density 22.356361
#
# number of rings (size 3 to 8) (size 9 to 14) (size 15 to 20)
#    0.000    0.889    0.000    7.333   12.444    0.889 
#    2.000    0.000    0.000    0.000    0.000    0.000 
#    0.000    0.000    0.000    0.000    0.000    0.000 
#
# Total GULP energy -100278.081445 kJ/mol
# GULP energy per Si atom -5571.004525 kJ/mol
# Density = 2.230548 g / cm^3
# Si number density = 22.356361 Si / 1000 Ang^3
#
#
#
# Elastic Constant Matrix: (Units=GPa)
#
#
# Indices 1 2 3 4 5 6 
#
# 1 78.0293 35.5243 76.0396 0.0000 -7.5130 0.0000
# 2 35.5243 91.3268 65.7323 0.0000 -9.0394 0.0000
# 3 76.0396 65.7323 226.9797 0.0000 1.5910 0.0000
# 4 0.0000 0.0000 0.0000 38.0861 0.0000 10.4428
# 5 -7.5130 -9.0394 1.5910 0.0000 58.0680 0.0000
# 6 0.0000 0.0000 0.0000 10.4428 0.0000 35.0542
#
#
#
# Elastic Compliance Matrix: (Units=1/GPa)
#
#
# Indices 1 2 3 4 5 6 
#
# 1 0.020267 -0.003492 -0.005794 0.000000 0.002237 0.000000
# 2 -0.003492 0.014739 -0.003112 0.000000 0.001928 0.000000
# 3 -0.005794 -0.003112 0.007258 0.000000 -0.001433 0.000000
# 4 0.000000 0.000000 0.000000 0.028592 0.000000 -0.008518
# 5 0.002237 0.001928 -0.001433 0.000000 0.017850 0.000000
# 6 0.000000 0.000000 0.000000 -0.008518 0.000000 0.031065
#
#
# Mechanical properties :
#
#
# Convention : Reuss Voigt Hill
#
# Bulk Modulus (GPa) = 57.24743 83.43649 70.34196
# Shear Modulus (GPa) = 33.24720 40.84429 37.04575
#
# Velocity S-wave (km/s) = 3.86054 4.27894 4.07511
# Velocity P-wave (km/s) = 6.74789 7.86222 7.32628
#
# Compressibility (1/GPa) = 0.01746803
#
# Stress axis : x y z
#
# Youngs Moduli (GPa) = 49.34083 67.84920 137.77899
#
# Poissons Ratio (x) = 0.23691 0.79831
# Poissons Ratio (y) = 0.17229 0.42876
# Poissons Ratio (z) = 0.28589 0.21114
#
# Static dielectric constant tensor:
#      x y z
#    x 1.963850 0.000000 0.023750 
#    y 0.000000 1.920920 0.000000 
#    z 0.023750 0.000000 1.926900 
# 
# From -- ./inp_files/38882.got.cif
#   From: 2010.05.17/outbox.cif.g08.bks.cpg/sg15_20_cif.got.tgz:38882.got - 2010.06.03 18:47:42.
