data_PCOD9295380
_publ_section_title
;
Structure prediction by ZEFSAII (Michael W. Deem and Ramdas Pophale) SiO2 
 PCOD9295380
Probable space group: C 2/C
;
_chemical_formula_sum "Si O2"
_cell_formula_units_Z 32
_cell_length_a 11.160027
_cell_length_b 14.661738
_cell_length_c 8.815288
_cell_angle_alpha 90.000000
_cell_angle_beta 127.752244
_cell_angle_gamma 90.000000
_cell_volume 1140.459972
_symmetry_space_group_name_H-M "C 2/C"
_symmetry_group_IT_number 15
_symmetry_cell_setting 'monoclinic'
loop_
_space_group_symop_operation_xyz
x,y,z
-x,y,1/2-z
-x,-y,-z
x,-y,1/2+z
1/2+x,1/2+y,z
1/2-x,1/2+y,1/2-z
1/2-x,1/2-y,-z
1/2+x,1/2-y,1/2+z
loop_
_atom_site_type_symbol
_atom_site_label
_atom_site_fract_x
_atom_site_fract_y
_atom_site_fract_z
Si Si1 0.878659 0.927262 0.765740
Si Si2 0.411824 0.075328 0.336163
Si Si3 0.069218 0.204985 0.635038
Si Si4 0.820719 0.660425 0.631721
O O1 0.764102 0.957181 0.807832
O O2 0.970439 0.845219 0.924275
O O3 0.750108 0.909561 0.540935
O O4 0.000000 0.975819 0.750000
O O5 0.500000 0.070229 0.250000
O O6 0.418718 0.185277 0.373528
O O7 0.500000 0.000000 0.500000
O O8 0.500000 0.311264 0.250000
O O9 0.238709 0.164181 0.733356
O O10 0.750000 0.750000 0.500000
O O11 0.000000 0.658401 0.750000
#
# Coordination Sequence:
#
# PCOD9295380 Si02
#       4
#     8   8   8   8
#     4  10  23  43  73 106 137 179 235 289 348 415
#     4  11  26  44  68 101 144 185 233 279 356 415
#     4  10  23  42  70 109 143 175 234 292 349 408
#     4  11  21  36  64 104 139 176 225 277 346 406
#
# _framework density 28.058854
#
# number of rings (size 3 to 8) (size 9 to 14) (size 15 to 20)
#    0.000    1.500    2.500    2.250    0.000   10.000 
#    0.000    3.750    0.000    7.500    0.000    1.750 
#    0.000    0.000    0.000    0.000    0.000    0.000 
#
# Total GULP energy -89241.920958 kJ/mol
# GULP energy per Si atom -5577.620060 kJ/mol
# Density = 2.799499 g / cm^3
# Si number density = 28.058854 Si / 1000 Ang^3
#
#
#
# Elastic Constant Matrix: (Units=GPa)
#
#
# Indices 1 2 3 4 5 6 
#
# 1 291.2520 54.6871 92.8782 0.0000 31.8002 0.0000
# 2 54.6871 169.4746 56.1524 0.0000 -3.7270 0.0000
# 3 92.8782 56.1524 174.5061 0.0000 46.6445 0.0000
# 4 0.0000 0.0000 0.0000 43.2260 0.0000 11.9075
# 5 31.8002 -3.7270 46.6445 0.0000 69.9796 0.0000
# 6 0.0000 0.0000 0.0000 11.9075 0.0000 -34.4259
#
#
#
# Elastic Compliance Matrix: (Units=1/GPa)
#
#
# Indices 1 2 3 4 5 6 
#
# 1 0.004239 -0.000790 -0.001796 0.000000 -0.000771 0.000000
# 2 -0.000790 0.007029 -0.002479 0.000000 0.002386 0.000000
# 3 -0.001796 -0.002479 0.008884 0.000000 -0.005238 0.000000
# 4 0.000000 0.000000 0.000000 0.021122 0.000000 0.007306
# 5 -0.000771 0.002386 -0.005238 0.000000 0.018259 0.000000
# 6 0.000000 0.000000 0.000000 0.007306 0.000000 -0.026521
#
#
# Mechanical properties :
#
#
# Convention : Reuss Voigt Hill
#
# Bulk Modulus (GPa) = 99.77513 115.85199 107.81356
# Shear Modulus (GPa) = 107.57007 44.52359 76.04683
#
# Velocity S-wave (km/s) = 6.19843 3.98778 5.21167
# Velocity P-wave (km/s) = 9.32007 7.91086 8.64423
#
# Compressibility (1/GPa) = 0.01002254
#
# Stress axis : x y z
#
# Youngs Moduli (GPa) = 235.92896 142.26041 112.56295
#
# Poissons Ratio (x) = 0.11235 0.20212
# Poissons Ratio (y) = 0.18632 0.27908
# Poissons Ratio (z) = 0.42364 0.35270
#
# Static dielectric constant tensor:
#      x y z
#    x 2.515650 0.000000 0.001700 
#    y 0.000000 2.430360 0.000000 
#    z 0.001700 0.000000 2.341250 
# 
# From -- ./inp_files/80375.got.cif
#   From: 2010.05.17/outbox.cif.g08.bks.cpg/sg15_41_cif.got.tgz:80375.got - 2010.06.03 18:47:42.
