data_PCOD9295612
_publ_section_title
;
Structure prediction by ZEFSAII (Michael W. Deem and Ramdas Pophale) SiO2 
 PCOD9295612
Probable space group: C 2/C
;
_chemical_formula_sum "Si O2"
_cell_formula_units_Z 48
_cell_length_a 12.358879
_cell_length_b 16.816274
_cell_length_c 24.803603
_cell_angle_alpha 90.000000
_cell_angle_beta 153.698344
_cell_angle_gamma 90.000000
_cell_volume 2284.139036
_symmetry_space_group_name_H-M "C 2/C"
_symmetry_group_IT_number 15
_symmetry_cell_setting 'monoclinic'
loop_
_space_group_symop_operation_xyz
x,y,z
-x,y,1/2-z
-x,-y,-z
x,-y,1/2+z
1/2+x,1/2+y,z
1/2-x,1/2+y,1/2-z
1/2-x,1/2-y,-z
1/2+x,1/2-y,1/2+z
loop_
_atom_site_type_symbol
_atom_site_label
_atom_site_fract_x
_atom_site_fract_y
_atom_site_fract_z
Si Si1 0.277628 0.709323 0.070539
Si Si2 0.727567 0.182729 0.784782
Si Si3 0.028173 0.881941 0.202041
Si Si4 0.117339 0.938995 0.713072
Si Si5 0.000256 0.328476 0.553900
Si Si6 0.778661 0.990476 0.357431
O O1 0.478316 0.770442 0.184488
O O2 0.397211 0.623148 0.115611
O O3 0.072239 0.692543 0.023907
O O4 0.250000 0.750000 0.000000
O O5 0.938401 0.246749 0.888891
O O6 0.768307 0.102581 0.836310
O O7 0.751353 0.156071 0.733049
O O8 0.000000 0.853415 0.250000
O O9 0.772238 0.858767 0.061039
O O10 0.059139 0.976573 0.213633
O O11 0.326105 0.895075 0.841237
O O12 0.173628 0.959199 0.675766
O O13 0.500000 0.011195 0.250000
O O14 0.000000 0.000000 0.500000
#
# Coordination Sequence:
#
# PCOD9295612 Si02
#       6
#     8   8   8   8   8   8
#     4  11  23  41  69  98 126 179 224 276 339 414
#     4  10  23  43  66  92 138 173 223 278 347 406
#     4  11  23  41  64  99 128 171 222 278 338 404
#     4  10  25  41  65  94 133 175 220 276 345 402
#     4  11  23  43  66  94 136 173 222 281 341 410
#     4  11  26  45  71 102 136 184 231 287 350 418
#
# _framework density 21.014482000000001
#
# number of rings (size 3 to 8) (size 9 to 14) (size 15 to 20)
#    0.000    1.333    0.000    5.500    9.333    4.000 
#    0.000    0.000    0.000    0.000    0.000    0.000 
#    0.000    0.000    0.000    0.000    0.000    0.000 
#
# Total GULP energy -133942.050925 kJ/mol
# GULP energy per Si atom -5580.918789 kJ/mol
# Density = 2.096665 g / cm^3
# Si number density = 21.014482 Si / 1000 Ang^3
#
#
#
# Elastic Constant Matrix: (Units=GPa)
#
#
# Indices 1 2 3 4 5 6 
#
# 1 105.9365 26.7638 38.3368 -0.0025 -12.6613 -0.0020
# 2 26.7638 91.7077 11.0204 -0.0023 0.5092 -0.0010
# 3 38.3368 11.0204 74.4270 0.0010 -10.4335 0.0000
# 4 -0.0025 -0.0023 0.0010 3.3903 0.0004 -7.9745
# 5 -12.6613 0.5092 -10.4335 0.0004 35.6838 -0.0008
# 6 -0.0020 -0.0010 0.0000 -7.9745 -0.0008 22.8096
#
#
#
# Elastic Compliance Matrix: (Units=1/GPa)
#
#
# Indices 1 2 3 4 5 6 
#
# 1 0.012581 -0.003010 -0.005634 0.000063 0.002860 0.000023
# 2 -0.003010 0.011837 -0.000392 0.000036 -0.001352 0.000013
# 3 -0.005634 -0.000392 0.016805 -0.000062 0.002920 -0.000022
# 4 0.000063 0.000036 -0.000062 1.660336 -0.000003 0.580475
# 5 0.002860 -0.001352 0.002920 -0.000003 0.029912 0.000000
# 6 0.000023 0.000013 -0.000022 0.580475 0.000000 0.246783
#
#
# Mechanical properties :
#
#
# Convention : Reuss Voigt Hill
#
# Bulk Modulus (GPa) = 43.19282 47.14592 45.16937
# Shear Modulus (GPa) = 2.49496 25.44009 13.96752
#
# Velocity S-wave (km/s) = 1.09079 3.48314 2.58090
# Velocity P-wave (km/s) = 4.71008 6.21772 5.51566
#
# Compressibility (1/GPa) = 0.02315200
#
# Stress axis : x y z
#
# Youngs Moduli (GPa) = 79.48718 84.47860 59.50559
#
# Poissons Ratio (x) = 0.25431 0.33523
# Poissons Ratio (y) = 0.23929 0.02330
# Poissons Ratio (z) = 0.44780 0.03308
#
# Static dielectric constant tensor:
#      x y z
#    x 1.824120 0.000000 -0.044610 
#    y 0.000000 1.697270 0.000000 
#    z -0.044610 0.000000 1.808480 
# 
# From -- ./inp_files/270660.got.cif
#   From: 2010.05.17/outbox.cif.g08.bks.cpg/sg15_136_cif.got.tgz:270660.got - 2010.06.03 18:47:42.
