data_PCOD9295597
_publ_section_title
;
Structure prediction by ZEFSAII (Michael W. Deem and Ramdas Pophale) SiO2 
 PCOD9295597
Probable space group: C 2/C
;
_chemical_formula_sum "Si O2"
_cell_formula_units_Z 56
_cell_length_a 12.943709
_cell_length_b 17.241926
_cell_length_c 20.482111
_cell_angle_alpha 90.000000
_cell_angle_beta 36.592890
_cell_angle_gamma 90.000000
_cell_volume 2724.938769
_symmetry_space_group_name_H-M "C 2/C"
_symmetry_group_IT_number 15
_symmetry_cell_setting 'monoclinic'
loop_
_space_group_symop_operation_xyz
x,y,z
-x,y,1/2-z
-x,-y,-z
x,-y,1/2+z
1/2+x,1/2+y,z
1/2-x,1/2+y,1/2-z
1/2-x,1/2-y,-z
1/2+x,1/2-y,1/2+z
loop_
_atom_site_type_symbol
_atom_site_label
_atom_site_fract_x
_atom_site_fract_y
_atom_site_fract_z
Si Si1 0.153676 0.907571 0.323132
Si Si2 0.025678 0.149183 0.464327
Si Si3 0.756728 0.842937 0.993531
Si Si4 0.856596 0.458283 0.766491
Si Si5 0.593948 0.826992 0.399553
Si Si6 0.444842 0.941990 0.969072
Si Si7 0.920346 0.983118 0.859772
O O1 0.301712 0.951607 0.289235
O O2 0.429043 0.062043 0.157049
O O3 0.048465 0.979846 0.346763
O O4 0.236027 0.857400 0.223394
O O5 0.848337 0.130341 0.514009
O O6 0.186751 0.092446 0.369768
O O7 0.080256 0.234741 0.413101
O O8 0.968188 0.142437 0.568355
O O9 0.882880 0.890985 0.881242
O O10 0.750000 0.750000 0.000000
O O11 0.564321 0.859768 0.064937
O O12 0.000000 0.446566 0.750000
O O13 0.576757 0.862228 0.480587
O O14 0.500000 0.000000 0.000000
O O15 0.262077 0.974579 0.037409
O O16 0.000000 0.002865 0.750000
#
# Coordination Sequence:
#
# PCOD9295597 Si02
#       7
#     8   8   8   8   8   8   8
#     4  12  25  44  72 100 137 180 232 287 340 417
#     4  11  27  45  68 100 143 183 225 283 355 413
#     4  10  23  43  66 100 139 174 221 282 349 404
#     4  12  26  45  72 101 138 181 233 287 346 405
#     4  11  25  46  67 103 138 181 227 286 348 408
#     4  12  23  43  71 101 135 182 230 283 337 411
#     4  12  22  42  72 103 133 176 235 279 335 408
#
# _framework density 20.550920999999999
#
# number of rings (size 3 to 8) (size 9 to 14) (size 15 to 20)
#    0.000    0.571    5.714    1.286    6.000    0.000 
#   10.286    1.429    0.000    0.000    0.000    0.000 
#    0.000    0.000    0.000    0.000    0.000    0.000 
#
# Total GULP energy -156166.334713 kJ/mol
# GULP energy per Si atom -5577.369097 kJ/mol
# Density = 2.050415 g / cm^3
# Si number density = 20.550921 Si / 1000 Ang^3
#
#
#
# Elastic Constant Matrix: (Units=GPa)
#
#
# Indices 1 2 3 4 5 6 
#
# 1 97.1052 25.2371 44.8768 0.0004 -1.0177 0.0000
# 2 25.2371 81.1894 43.8707 0.0014 6.8501 -0.0001
# 3 44.8768 43.8707 134.5287 0.0045 22.9277 -0.0004
# 4 0.0004 0.0014 0.0045 11.5875 -0.0009 -1.7139
# 5 -1.0177 6.8501 22.9277 -0.0009 25.4922 -0.0002
# 6 0.0000 -0.0001 -0.0004 -1.7139 -0.0002 28.5894
#
#
#
# Elastic Compliance Matrix: (Units=1/GPa)
#
#
# Indices 1 2 3 4 5 6 
#
# 1 0.012978 -0.002009 -0.004552 0.000002 0.005152 0.000000
# 2 -0.002009 0.015267 -0.004246 0.000000 -0.000363 0.000000
# 3 -0.004552 -0.004246 0.012015 -0.000005 -0.009847 0.000000
# 4 0.000002 0.000000 -0.000005 0.087072 0.000007 0.005220
# 5 0.005152 -0.000363 -0.009847 0.000007 0.048387 0.000001
# 6 0.000000 0.000000 0.000000 0.005220 0.000001 0.035291
#
#
# Mechanical properties :
#
#
# Convention : Reuss Voigt Hill
#
# Bulk Modulus (GPa) = 53.63610 60.08806 56.86208
# Shear Modulus (GPa) = 20.93449 26.38971 23.66210
#
# Velocity S-wave (km/s) = 3.19511 3.58734 3.39689
# Velocity P-wave (km/s) = 6.30614 6.81621 6.56613
#
# Compressibility (1/GPa) = 0.01864416
#
# Stress axis : x y z
#
# Youngs Moduli (GPa) = 77.05317 65.50254 83.22989
#
# Poissons Ratio (x) = 0.13160 0.37888
# Poissons Ratio (y) = 0.15480 0.35343
# Poissons Ratio (z) = 0.35076 0.27815
#
# Static dielectric constant tensor:
#      x y z
#    x 1.790210 0.000000 -0.023670 
#    y 0.000000 1.737910 0.000000 
#    z -0.023670 0.000000 1.733720 
# 
# From -- ./inp_files/296541.got.cif
#   From: 2010.05.17/outbox.cif.g08.bks.cpg/sg15_149_cif.got.tgz:296541.got - 2010.06.03 18:47:42.
