data_PCOD9295830
_publ_section_title
;
Structure prediction by ZEFSAII (Michael W. Deem and Ramdas Pophale) SiO2 
 PCOD9295830
Probable space group: C 2/C
;
_chemical_formula_sum "Si O2"
_cell_formula_units_Z 44
_cell_length_a 27.452867
_cell_length_b 9.276884
_cell_length_c 9.155599
_cell_angle_alpha 90.000000
_cell_angle_beta 52.066127
_cell_angle_gamma 90.000000
_cell_volume 1839.076863
_symmetry_space_group_name_H-M "C 2/C"
_symmetry_group_IT_number 15
_symmetry_cell_setting 'monoclinic'
loop_
_space_group_symop_operation_xyz
x,y,z
-x,y,1/2-z
-x,-y,-z
x,-y,1/2+z
1/2+x,1/2+y,z
1/2-x,1/2+y,1/2-z
1/2-x,1/2-y,-z
1/2+x,1/2-y,1/2+z
loop_
_atom_site_type_symbol
_atom_site_label
_atom_site_fract_x
_atom_site_fract_y
_atom_site_fract_z
Si Si1 0.928528 0.794965 0.004553
Si Si2 0.209228 0.859974 0.166536
Si Si3 0.500000 0.553911 0.750000
Si Si4 0.725559 0.943290 0.164985
Si Si5 0.643206 0.094456 0.554556
Si Si6 0.947135 0.662733 0.244969
O O1 0.862872 0.832405 0.198141
O O2 0.962278 0.680678 0.046937
O O3 0.907235 0.713246 0.897069
O O4 0.967148 0.940028 0.916696
O O5 0.236805 0.862974 0.278795
O O6 0.250000 0.750000 0.000000
O O7 0.225160 0.002714 0.045356
O O8 0.552142 0.668773 0.705152
O O9 0.675787 0.870297 0.148528
O O10 0.688525 0.063093 0.331812
O O11 0.612104 0.936868 0.631417
O O12 0.000000 0.597880 0.250000
#
# Coordination Sequence:
#
# PCOD9295830 Si02
#       6
#     8   8   4   8   8   8
#     4  12  24  46  73 104 146 192 251 303 366 448
#     4  11  23  46  72 106 155 184 239 306 369 442
#     4  10  28  46  66 104 140 194 242 300 380 432
#     4  10  23  43  70 108 143 188 237 293 380 436
#     4  11  21  45  74 106 142 190 246 307 356 443
#     4  10  25  46  69  99 146 189 243 305 364 425
#
# _framework density 23.925045000000001
#
# number of rings (size 3 to 8) (size 9 to 14) (size 15 to 20)
#    0.545    0.727    3.636    1.636    3.818    2.909 
#    0.000    0.000    0.000    0.000    0.000    0.000 
#    0.000    0.000    0.000    0.000    0.000    0.000 
#
# Total GULP energy -122715.273910 kJ/mol
# GULP energy per Si atom -5577.966996 kJ/mol
# Density = 2.387059 g / cm^3
# Si number density = 23.925045 Si / 1000 Ang^3
#
#
#
# Elastic Constant Matrix: (Units=GPa)
#
#
# Indices 1 2 3 4 5 6 
#
# 1 137.9509 36.7302 50.1757 0.0000 43.0364 0.0000
# 2 36.7302 96.5598 33.7487 0.0000 1.1870 0.0000
# 3 50.1757 33.7487 101.2401 0.0000 12.4541 0.0000
# 4 0.0000 0.0000 0.0000 35.4249 0.0000 2.9497
# 5 43.0364 1.1870 12.4541 0.0000 54.6190 0.0000
# 6 0.0000 0.0000 0.0000 2.9497 0.0000 19.0584
#
#
#
# Elastic Compliance Matrix: (Units=1/GPa)
#
#
# Indices 1 2 3 4 5 6 
#
# 1 0.012230 -0.003169 -0.003938 0.000000 -0.008669 0.000000
# 2 -0.003169 0.012566 -0.002975 0.000000 0.002902 0.000000
# 3 -0.003938 -0.002975 0.012790 0.000000 0.000251 0.000000
# 4 0.000000 0.000000 0.000000 0.028597 0.000000 -0.004426
# 5 -0.008669 0.002902 0.000251 0.000000 0.025019 0.000000
# 6 0.000000 0.000000 0.000000 -0.004426 0.000000 0.053155
#
#
# Mechanical properties :
#
#
# Convention : Reuss Voigt Hill
#
# Bulk Modulus (GPa) = 57.40306 64.11779 60.76043
# Shear Modulus (GPa) = 29.35476 36.16021 32.75749
#
# Velocity S-wave (km/s) = 3.50658 3.89188 3.70425
# Velocity P-wave (km/s) = 6.35923 6.85954 6.61412
#
# Compressibility (1/GPa) = 0.01742067
#
# Stress axis : x y z
#
# Youngs Moduli (GPa) = 81.76768 79.58006 78.18419
#
# Poissons Ratio (x) = 0.25219 0.30792
# Poissons Ratio (y) = 0.25912 0.23262
# Poissons Ratio (z) = 0.32203 0.23678
#
# Static dielectric constant tensor:
#      x y z
#    x 1.941970 0.000000 0.029580 
#    y 0.000000 1.991650 0.000000 
#    z 0.029580 0.000000 1.946270 
# 
# From -- ./inp_files/68510.got.cif
#   From: 2010.05.17/outbox.cif.g08.bks.cpg/sg15_35_cif.got.tgz:68510.got - 2010.06.03 18:47:42.
