data_PCOD9295922
_publ_section_title
;
Structure prediction by ZEFSAII (Michael W. Deem and Ramdas Pophale) SiO2 
 PCOD9295922
Probable space group: C 2/C
;
_chemical_formula_sum "Si O2"
_cell_formula_units_Z 36
_cell_length_a 17.552242
_cell_length_b 8.179290
_cell_length_c 10.048655
_cell_angle_alpha 90.000000
_cell_angle_beta 67.478793
_cell_angle_gamma 90.000000
_cell_volume 1332.615524
_symmetry_space_group_name_H-M "C 2/C"
_symmetry_group_IT_number 15
_symmetry_cell_setting 'monoclinic'
loop_
_space_group_symop_operation_xyz
x,y,z
-x,y,1/2-z
-x,-y,-z
x,-y,1/2+z
1/2+x,1/2+y,z
1/2-x,1/2+y,1/2-z
1/2-x,1/2-y,-z
1/2+x,1/2-y,1/2+z
loop_
_atom_site_type_symbol
_atom_site_label
_atom_site_fract_x
_atom_site_fract_y
_atom_site_fract_z
Si Si1 0.859283 0.686739 0.280751
Si Si2 0.059788 0.475224 0.081526
Si Si3 0.277049 0.861832 0.272499
Si Si4 0.857254 0.859785 0.918560
Si Si5 0.000000 0.100155 0.750000
O O1 0.879896 0.623928 0.416394
O O2 0.783567 0.808239 0.304850
O O3 0.835843 0.518375 0.219914
O O4 0.943348 0.786341 0.193874
O O5 0.110078 0.308775 0.041718
O O6 0.000000 0.455575 0.250000
O O7 0.000000 0.500000 0.000000
O O8 0.217367 0.911325 0.436631
O O9 0.325801 0.701917 0.294517
O O10 0.931480 0.986672 0.863743
#
# Coordination Sequence:
#
# PCOD9295922 Si02
#       5
#     8   8   8   8   4
#     4  11  24  44  72 106 147 201 254 318 377 465
#     4  11  22  44  74 114 153 195 249 323 380 452
#     4  10  23  46  70 101 149 197 249 314 393 455
#     4  10  23  43  73 103 148 198 251 319 380 460
#     4  12  24  42  70 112 142 194 264 312 378 454
#
# _framework density 27.014544999999998
#
# number of rings (size 3 to 8) (size 9 to 14) (size 15 to 20)
#    0.000    1.333    2.222    2.667    0.000    1.778 
#    0.000    2.222    0.000    0.000    0.000    0.000 
#    0.000    0.000    0.000    0.000    0.000    0.000 
#
# Total GULP energy -100871.832837 kJ/mol
# GULP energy per Si atom -5603.990713 kJ/mol
# Density = 2.695306 g / cm^3
# Si number density = 27.014545 Si / 1000 Ang^3
#
#
#
# Elastic Constant Matrix: (Units=GPa)
#
#
# Indices 1 2 3 4 5 6 
#
# 1 258.7740 102.3727 59.3734 0.0000 27.9086 0.0000
# 2 102.3727 162.4917 41.3360 0.0000 -4.7603 0.0000
# 3 59.3734 41.3360 77.7593 0.0000 12.9847 0.0000
# 4 0.0000 0.0000 0.0000 35.0982 0.0000 -2.3773
# 5 27.9086 -4.7603 12.9847 0.0000 64.5167 0.0000
# 6 0.0000 0.0000 0.0000 -2.3773 0.0000 91.4366
#
#
#
# Elastic Compliance Matrix: (Units=1/GPa)
#
#
# Indices 1 2 3 4 5 6 
#
# 1 0.005936 -0.003183 -0.002455 0.000000 -0.002308 0.000000
# 2 -0.003183 0.008935 -0.002752 0.000000 0.002590 0.000000
# 3 -0.002455 -0.002752 0.016613 0.000000 -0.002485 0.000000
# 4 0.000000 0.000000 0.000000 0.028542 0.000000 0.000742
# 5 -0.002308 0.002590 -0.002485 0.000000 0.017190 0.000000
# 6 0.000000 0.000000 0.000000 0.000742 0.000000 0.010956
#
#
# Mechanical properties :
#
#
# Convention : Reuss Voigt Hill
#
# Bulk Modulus (GPa) = 68.00885 100.57659 84.29272
# Shear Modulus (GPa) = 45.51592 57.93983 51.72787
#
# Velocity S-wave (km/s) = 4.10917 4.63618 4.38061
# Velocity P-wave (km/s) = 6.90965 8.12221 7.54034
#
# Compressibility (1/GPa) = 0.01470397
#
# Stress axis : x y z
#
# Youngs Moduli (GPa) = 168.47249 111.91501 60.19549
#
# Poissons Ratio (x) = 0.35620 0.14777
# Poissons Ratio (y) = 0.53620 0.16567
# Poissons Ratio (z) = 0.41357 0.30802
#
# Static dielectric constant tensor:
#      x y z
#    x 2.074390 0.000000 0.015300 
#    y 0.000000 2.111610 0.000000 
#    z 0.015300 0.000000 2.209550 
# 
# From -- ./inp_files/102426.got.cif
#   From: 2010.05.17/outbox.cif.g08.bks.cpg/sg15_52_cif.got.tgz:102426.got - 2010.06.03 18:47:42.
