data_PCOD9295441
_publ_section_title
;
Structure prediction by ZEFSAII (Michael W. Deem and Ramdas Pophale) SiO2 
 PCOD9295441
Probable space group: C 2/C
;
_chemical_formula_sum "Si O2"
_cell_formula_units_Z 40
_cell_length_a 4.972210
_cell_length_b 13.090348
_cell_length_c 28.646406
_cell_angle_alpha 90.000000
_cell_angle_beta 131.103095
_cell_angle_gamma 90.000000
_cell_volume 1404.979941
_symmetry_space_group_name_H-M "C 2/C"
_symmetry_group_IT_number 15
_symmetry_cell_setting 'monoclinic'
loop_
_space_group_symop_operation_xyz
x,y,z
-x,y,1/2-z
-x,-y,-z
x,-y,1/2+z
1/2+x,1/2+y,z
1/2-x,1/2+y,1/2-z
1/2-x,1/2-y,-z
1/2+x,1/2-y,1/2+z
loop_
_atom_site_type_symbol
_atom_site_label
_atom_site_fract_x
_atom_site_fract_y
_atom_site_fract_z
Si Si1 0.283821 0.262508 0.319102
Si Si2 0.004418 0.167399 0.087978
Si Si3 0.041398 0.143634 0.521699
Si Si4 0.597327 0.560721 0.186410
Si Si5 0.337316 0.434175 0.094474
O O1 0.326494 0.221837 0.152447
O O2 0.638302 0.343527 0.132373
O O3 0.000000 0.301248 0.250000
O O4 0.895024 0.156265 0.183436
O O5 0.988777 0.060063 0.115664
O O6 0.656193 0.237849 0.046452
O O7 0.128808 0.148436 0.049726
O O8 0.572883 0.095128 0.944046
O O9 0.838339 0.075375 0.535802
O O10 0.406159 0.454796 0.165726
O O11 0.000000 0.559790 0.250000
#
# Coordination Sequence:
#
# PCOD9295441 Si02
#       5
#     8   8   8   8   8
#     4  11  23  44  67  97 136 185 222 291 347 411
#     4  10  23  42  71  96 139 178 233 276 351 411
#     4  10  24  45  69 103 135 184 224 288 342 419
#     4  12  25  43  68 102 133 183 233 287 340 423
#     4  11  26  44  70 100 138 177 234 281 351 409
#
# _framework density 28.47016
#
# number of rings (size 3 to 8) (size 9 to 14) (size 15 to 20)
#    0.000    1.200    4.000    0.600    5.600    4.000 
#    0.000    2.000    0.000    0.000    0.000    0.000 
#    0.000    0.000    0.000    0.000    0.000    0.000 
#
# Total GULP energy -111604.200204 kJ/mol
# GULP energy per Si atom -5580.210010 kJ/mol
# Density = 2.840536 g / cm^3
# Si number density = 28.470160 Si / 1000 Ang^3
#
#
#
# Elastic Constant Matrix: (Units=GPa)
#
#
# Indices 1 2 3 4 5 6 
#
# 1 111.8995 26.8657 16.7815 0.0001 2.2058 0.0004
# 2 26.8657 146.6439 38.8595 0.0001 9.9594 0.0001
# 3 16.7815 38.8595 125.1139 0.0000 22.8243 0.0001
# 4 0.0001 0.0001 0.0000 73.6015 0.0002 9.3153
# 5 2.2058 9.9594 22.8243 0.0002 56.6117 0.0003
# 6 0.0004 0.0001 0.0001 9.3153 0.0003 43.2434
#
#
#
# Elastic Compliance Matrix: (Units=1/GPa)
#
#
# Indices 1 2 3 4 5 6 
#
# 1 0.009422 -0.001521 -0.000835 0.000000 0.000237 0.000000
# 2 -0.001521 0.007685 -0.002102 0.000000 -0.000445 0.000000
# 3 -0.000835 -0.002102 0.009373 0.000000 -0.003377 0.000000
# 4 0.000000 0.000000 0.000000 0.013967 0.000000 -0.003009
# 5 0.000237 -0.000445 -0.003377 0.000000 0.019095 0.000000
# 6 0.000000 0.000000 0.000000 -0.003009 0.000000 0.023773
#
#
# Mechanical properties :
#
#
# Convention : Reuss Voigt Hill
#
# Bulk Modulus (GPa) = 56.92784 60.96339 58.94562
# Shear Modulus (GPa) = 50.97552 54.76802 52.87177
#
# Velocity S-wave (km/s) = 4.23601 4.39076 4.31408
# Velocity P-wave (km/s) = 6.63054 6.86765 6.75013
#
# Compressibility (1/GPa) = 0.01756610
#
# Stress axis : x y z
#
# Youngs Moduli (GPa) = 106.13130 130.12214 106.68422
#
# Poissons Ratio (x) = 0.19793 0.08904
# Poissons Ratio (y) = 0.16144 0.22421
# Poissons Ratio (z) = 0.08858 0.27347
#
# Static dielectric constant tensor:
#      x y z
#    x 2.192230 0.000000 -0.321940 
#    y 0.000000 2.423070 0.000000 
#    z -0.321940 0.000000 2.854920 
# 
# From -- ./inp_files/226861.got.cif
#   From: 2010.05.17/outbox.cif.g08.bks.cpg/sg15_114_cif.got.tgz:226861.got - 2010.06.03 18:47:42.
