data_PCOD9295591
_publ_section_title
;
Structure prediction by ZEFSAII (Michael W. Deem and Ramdas Pophale) SiO2 
 PCOD9295591
Probable space group: C 2/C
;
_chemical_formula_sum "Si O2"
_cell_formula_units_Z 40
_cell_length_a 22.558221
_cell_length_b 21.167991
_cell_length_c 11.236518
_cell_angle_alpha 90.000000
_cell_angle_beta 158.548609
_cell_angle_gamma 90.000000
_cell_volume 1962.253643
_symmetry_space_group_name_H-M "C 2/C"
_symmetry_group_IT_number 15
_symmetry_cell_setting 'monoclinic'
loop_
_space_group_symop_operation_xyz
x,y,z
-x,y,1/2-z
-x,-y,-z
x,-y,1/2+z
1/2+x,1/2+y,z
1/2-x,1/2+y,1/2-z
1/2-x,1/2-y,-z
1/2+x,1/2-y,1/2+z
loop_
_atom_site_type_symbol
_atom_site_label
_atom_site_fract_x
_atom_site_fract_y
_atom_site_fract_z
Si Si1 0.384504 0.475507 0.179975
Si Si2 0.393767 0.095133 0.231555
Si Si3 0.748217 0.408415 0.200269
Si Si4 0.696867 0.211758 0.283998
Si Si5 0.000000 0.142207 0.750000
Si Si6 0.000000 0.196262 0.250000
O O1 0.500000 0.500000 0.500000
O O2 0.465303 0.409135 0.289704
O O3 0.205740 0.461958 0.897722
O O4 0.345014 0.526383 0.002725
O O5 0.578415 0.087366 0.538968
O O6 0.385805 0.150075 0.314526
O O7 0.290817 0.106493 0.917647
O O8 0.634498 0.350918 0.946449
O O9 0.750000 0.250000 0.500000
O O10 0.844157 0.187795 0.474147
O O11 0.580986 0.257915 0.996223
#
# Coordination Sequence:
#
# PCOD9295591 Si02
#       6
#     8   8   8   8   4   4
#     4  11  22  41  68  99 131 172 219 274 337 399
#     4  10  23  43  65  95 137 172 217 275 332 395
#     4  11  23  41  67  99 129 173 222 272 334 402
#     4  11  25  44  64  94 134 176 222 271 331 393
#     4  10  25  42  64  92 135 172 218 280 322 398
#     4  12  25  40  66  98 127 176 228 268 332 402
#
# _framework density 20.384723999999999
#
# number of rings (size 3 to 8) (size 9 to 14) (size 15 to 20)
#    0.000    1.200    2.000    3.600    5.600    2.400 
#    0.000    8.000    0.000    0.000    0.000    0.000 
#    0.000    0.000    0.000    0.000    0.000    0.000 
#
# Total GULP energy -111508.919080 kJ/mol
# GULP energy per Si atom -5575.445954 kJ/mol
# Density = 2.033833 g / cm^3
# Si number density = 20.384724 Si / 1000 Ang^3
#
#
#
# Elastic Constant Matrix: (Units=GPa)
#
#
# Indices 1 2 3 4 5 6 
#
# 1 82.7672 31.5237 57.3179 0.0000 22.4263 0.0000
# 2 31.5237 104.1490 74.8295 0.0000 -0.8910 0.0000
# 3 57.3179 74.8295 134.9440 0.0000 9.4014 0.0000
# 4 0.0000 0.0000 0.0000 44.3705 0.0000 -0.1056
# 5 22.4263 -0.8910 9.4014 0.0000 33.0939 0.0000
# 6 0.0000 0.0000 0.0000 -0.1056 0.0000 8.4077
#
#
#
# Elastic Compliance Matrix: (Units=1/GPa)
#
#
# Indices 1 2 3 4 5 6 
#
# 1 0.020930 -0.001092 -0.007442 0.000000 -0.012098 0.000000
# 2 -0.001092 0.016316 -0.008841 0.000000 0.003691 0.000000
# 3 -0.007442 -0.008841 0.015445 0.000000 0.000417 0.000000
# 4 0.000000 0.000000 0.000000 0.022538 0.000000 0.000283
# 5 -0.012098 0.003691 0.000417 0.000000 0.038396 0.000000
# 6 0.000000 0.000000 0.000000 0.000283 0.000000 0.118942
#
#
# Mechanical properties :
#
#
# Convention : Reuss Voigt Hill
#
# Bulk Modulus (GPa) = 55.73654 72.13360 63.93507
# Shear Modulus (GPa) = 18.29524 27.72035 23.00779
#
# Velocity S-wave (km/s) = 2.99908 3.69163 3.36323
# Velocity P-wave (km/s) = 6.27649 7.32351 6.82012
#
# Compressibility (1/GPa) = 0.01794155
#
# Stress axis : x y z
#
# Youngs Moduli (GPa) = 47.77945 61.29097 64.74723
#
# Poissons Ratio (x) = 0.06691 0.48182
# Poissons Ratio (y) = 0.05216 0.57242
# Poissons Ratio (z) = 0.35556 0.54186
#
# Static dielectric constant tensor:
#      x y z
#    x 1.704780 0.000000 0.014640 
#    y 0.000000 1.744980 0.000000 
#    z 0.014640 0.000000 1.721400 
# 
# From -- ./inp_files/77893.got.cif
#   From: 2010.05.17/outbox.cif.g08.bks.cpg/sg15_39_cif.got.tgz:77893.got - 2010.06.03 18:47:42.
