data_PCOD9295406
_publ_section_title
;
Structure prediction by ZEFSAII (Michael W. Deem and Ramdas Pophale) SiO2 
 PCOD9295406
Probable space group: C 2/C
;
_chemical_formula_sum "Si O2"
_cell_formula_units_Z 40
_cell_length_a 16.567450
_cell_length_b 14.425980
_cell_length_c 9.415040
_cell_angle_alpha 90.000000
_cell_angle_beta 50.771339
_cell_angle_gamma 90.000000
_cell_volume 1743.076650
_symmetry_space_group_name_H-M "C 2/C"
_symmetry_group_IT_number 15
_symmetry_cell_setting 'monoclinic'
loop_
_space_group_symop_operation_xyz
x,y,z
-x,y,1/2-z
-x,-y,-z
x,-y,1/2+z
1/2+x,1/2+y,z
1/2-x,1/2+y,1/2-z
1/2-x,1/2-y,-z
1/2+x,1/2-y,1/2+z
loop_
_atom_site_type_symbol
_atom_site_label
_atom_site_fract_x
_atom_site_fract_y
_atom_site_fract_z
Si Si1 0.910790 0.060363 0.437280
Si Si2 0.453247 0.917321 0.459807
Si Si3 0.008481 0.785373 0.015173
Si Si4 0.720702 0.520276 0.154157
Si Si5 0.669243 0.329712 0.060781
O O1 0.973206 0.146088 0.430390
O O2 0.854695 0.007936 0.630168
O O3 0.000000 0.003052 0.250000
O O4 0.827332 0.087963 0.411379
O O5 0.500000 0.920526 0.250000
O O6 0.489605 0.820195 0.488615
O O7 0.500000 0.000000 0.500000
O O8 0.329478 0.938806 0.586731
O O9 0.924466 0.808461 0.228667
O O10 0.120124 0.812697 0.958720
O O11 0.722187 0.425797 0.054912
O O12 0.750000 0.250000 0.000000
#
# Coordination Sequence:
#
# PCOD9295406 Si02
#       5
#     8   8   8   8   8
#     4  11  25  44  70 103 146 180 238 297 354 429
#     4  12  27  47  73 103 146 186 240 296 357 422
#     4  10  25  44  70 103 137 188 235 295 353 418
#     4  11  26  42  70 108 136 191 233 290 365 423
#     4  10  23  42  70  98 140 186 232 283 359 429
#
# _framework density 22.947931000000001
#
# number of rings (size 3 to 8) (size 9 to 14) (size 15 to 20)
#    0.000    1.200    0.000    3.600   16.800    2.400 
#    0.000    0.000    0.000    0.000    0.000    0.000 
#    0.000    0.000    0.000    0.000    0.000    0.000 
#
# Total GULP energy -111765.325316 kJ/mol
# GULP energy per Si atom -5588.266266 kJ/mol
# Density = 2.289570 g / cm^3
# Si number density = 22.947931 Si / 1000 Ang^3
#
#
#
# Elastic Constant Matrix: (Units=GPa)
#
#
# Indices 1 2 3 4 5 6 
#
# 1 197.8262 78.3241 40.8762 0.0000 23.4028 0.0000
# 2 78.3241 177.2147 43.9626 0.0000 17.0446 0.0000
# 3 40.8762 43.9626 97.8789 0.0000 22.7469 0.0000
# 4 0.0000 0.0000 0.0000 15.6198 0.0000 7.6244
# 5 23.4028 17.0446 22.7469 0.0000 44.3627 0.0000
# 6 0.0000 0.0000 0.0000 7.6244 0.0000 45.5370
#
#
#
# Elastic Compliance Matrix: (Units=1/GPa)
#
#
# Indices 1 2 3 4 5 6 
#
# 1 0.006467 -0.002381 -0.001193 0.000000 -0.001885 0.000000
# 2 -0.002381 0.007276 -0.002175 0.000000 -0.000424 0.000000
# 3 -0.001193 -0.002175 0.012887 0.000000 -0.005143 0.000000
# 4 0.000000 0.000000 0.000000 0.069719 0.000000 -0.011673
# 5 -0.001885 -0.000424 -0.005143 0.000000 0.026336 0.000000
# 6 0.000000 0.000000 0.000000 -0.011673 0.000000 0.023915
#
#
# Mechanical properties :
#
#
# Convention : Reuss Voigt Hill
#
# Bulk Modulus (GPa) = 66.08799 88.80505 77.44652
# Shear Modulus (GPa) = 30.64822 41.75438 36.20130
#
# Velocity S-wave (km/s) = 3.65849 4.27022 3.97614
# Velocity P-wave (km/s) = 6.83430 7.94327 7.40956
#
# Compressibility (1/GPa) = 0.01513134
#
# Stress axis : x y z
#
# Youngs Moduli (GPa) = 154.62641 137.44688 77.59705
#
# Poissons Ratio (x) = 0.32726 0.09260
# Poissons Ratio (y) = 0.36816 0.16877
# Poissons Ratio (z) = 0.18452 0.29894
#
# Static dielectric constant tensor:
#      x y z
#    x 2.030060 0.000000 -0.278930 
#    y 0.000000 1.894160 0.000000 
#    z -0.278930 0.000000 2.538070 
# 
# From -- ./inp_files/37826.got.cif
#   From: 2010.05.17/outbox.cif.g08.bks.cpg/sg15_19_cif.got.tgz:37826.got - 2010.06.03 18:47:42.
