data_PCOD9295808
_publ_section_title
;
Structure prediction by ZEFSAII (Michael W. Deem and Ramdas Pophale) SiO2 
 PCOD9295808
Probable space group: C 2/C
;
_chemical_formula_sum "Si O2"
_cell_formula_units_Z 44
_cell_length_a 18.549784
_cell_length_b 12.601517
_cell_length_c 9.114601
_cell_angle_alpha 90.000000
_cell_angle_beta 90.286759
_cell_angle_gamma 90.000000
_cell_volume 2130.560686
_symmetry_space_group_name_H-M "C 2/C"
_symmetry_group_IT_number 15
_symmetry_cell_setting 'monoclinic'
loop_
_space_group_symop_operation_xyz
x,y,z
-x,y,1/2-z
-x,-y,-z
x,-y,1/2+z
1/2+x,1/2+y,z
1/2-x,1/2+y,1/2-z
1/2-x,1/2-y,-z
1/2+x,1/2-y,1/2+z
loop_
_atom_site_type_symbol
_atom_site_label
_atom_site_fract_x
_atom_site_fract_y
_atom_site_fract_z
Si Si1 0.827399 0.214252 0.068101
Si Si2 0.604867 0.520452 0.991544
Si Si3 0.412906 0.896171 0.910832
Si Si4 0.086225 0.612687 0.427632
Si Si5 0.320672 0.715244 0.416802
Si Si6 0.500000 0.477908 0.250000
O O1 0.819694 0.225080 0.242553
O O2 0.750000 0.250000 0.000000
O O3 0.863618 0.098063 0.034234
O O4 0.882152 0.299386 0.002464
O O5 0.669338 0.593307 0.041562
O O6 0.545683 0.532751 0.121242
O O7 0.565234 0.569286 0.847145
O O8 0.388398 0.889686 0.741202
O O9 0.499559 0.889085 0.918603
O O10 0.390582 0.007026 0.984934
O O11 0.115186 0.713734 0.515348
O O12 0.250000 0.750000 0.500000
#
# Coordination Sequence:
#
# PCOD9295808 Si02
#       6
#     8   8   8   8   8   4
#     4  12  28  45  69  99 141 186 230 285 345 417
#     4  11  26  46  74 108 139 182 234 286 363 408
#     4  10  23  43  70 100 134 178 228 279 336 403
#     4  10  23  43  70 100 134 178 228 279 336 403
#     4  12  28  45  69  99 141 186 230 285 345 417
#     4  10  24  46  76 106 142 174 226 306 342 430
#
# _framework density 20.651841000000001
#
# number of rings (size 3 to 8) (size 9 to 14) (size 15 to 20)
#    0.000    1.091    1.818    2.182   12.727    2.182 
#    0.000    0.000    0.000    0.000    0.000    0.000 
#    0.000    0.000    0.000    0.000    0.000    0.000 
#
# Total GULP energy -122733.025358 kJ/mol
# GULP energy per Si atom -5578.773880 kJ/mol
# Density = 2.060484 g / cm^3
# Si number density = 20.651841 Si / 1000 Ang^3
#
#
#
# Elastic Constant Matrix: (Units=GPa)
#
#
# Indices 1 2 3 4 5 6 
#
# 1 46.3577 26.7167 34.2629 0.0000 -11.3555 0.0000
# 2 26.7167 126.9087 58.5482 0.0000 -10.8420 0.0000
# 3 34.2629 58.5482 192.2384 0.0000 -3.9378 0.0000
# 4 0.0000 0.0000 0.0000 25.5401 0.0000 3.5148
# 5 -11.3555 -10.8420 -3.9378 0.0000 38.5539 0.0000
# 6 0.0000 0.0000 0.0000 3.5148 0.0000 15.3161
#
#
#
# Elastic Compliance Matrix: (Units=1/GPa)
#
#
# Indices 1 2 3 4 5 6 
#
# 1 0.028118 -0.003588 -0.003778 0.000000 0.006887 0.000000
# 2 -0.003588 0.009833 -0.002325 0.000000 0.001471 0.000000
# 3 -0.003778 -0.002325 0.006561 0.000000 -0.001096 0.000000
# 4 0.000000 0.000000 0.000000 0.040431 0.000000 -0.009278
# 5 0.006887 0.001471 -0.001096 0.000000 0.028268 0.000000
# 6 0.000000 0.000000 0.000000 -0.009278 0.000000 0.067420
#
#
# Mechanical properties :
#
#
# Convention : Reuss Voigt Hill
#
# Bulk Modulus (GPa) = 39.79241 67.17338 53.48290
# Shear Modulus (GPa) = 23.99341 32.28048 28.13694
#
# Velocity S-wave (km/s) = 3.41222 3.95787 3.69513
# Velocity P-wave (km/s) = 5.90207 7.31324 6.64522
#
# Compressibility (1/GPa) = 0.02513042
#
# Stress axis : x y z
#
# Youngs Moduli (GPa) = 35.56388 101.69350 152.41856
#
# Poissons Ratio (x) = 0.36491 0.57579
# Poissons Ratio (y) = 0.12761 0.35440
# Poissons Ratio (z) = 0.13435 0.23646
#
# Static dielectric constant tensor:
#      x y z
#    x 1.766270 0.000000 0.037480 
#    y 0.000000 1.725340 0.000000 
#    z 0.037480 0.000000 1.745610 
# 
# From -- ./inp_files/54458.got.cif
#   From: 2010.05.17/outbox.cif.g08.bks.cpg/sg15_28_cif.got.tgz:54458.got - 2010.06.03 18:47:42.
