data_PCOD9295258
_publ_section_title
;
Structure prediction by ZEFSAII (Michael W. Deem and Ramdas Pophale) SiO2 
 PCOD9295258
Probable space group: C 2/C
;
_chemical_formula_sum "Si O2"
_cell_formula_units_Z 32
_cell_length_a 25.566978
_cell_length_b 6.601081
_cell_length_c 8.569373
_cell_angle_alpha 90.000000
_cell_angle_beta 100.917374
_cell_angle_gamma 90.000000
_cell_volume 1420.075235
_symmetry_space_group_name_H-M "C 2/C"
_symmetry_group_IT_number 15
_symmetry_cell_setting 'monoclinic'
loop_
_space_group_symop_operation_xyz
x,y,z
-x,y,1/2-z
-x,-y,-z
x,-y,1/2+z
1/2+x,1/2+y,z
1/2-x,1/2+y,1/2-z
1/2-x,1/2-y,-z
1/2+x,1/2-y,1/2+z
loop_
_atom_site_type_symbol
_atom_site_label
_atom_site_fract_x
_atom_site_fract_y
_atom_site_fract_z
Si Si1 0.749155 0.944668 0.390241
Si Si2 0.568541 0.561664 0.723395
Si Si3 0.984015 0.735585 0.994716
Si Si4 0.685994 0.689564 0.855677
O O1 0.750000 0.750000 0.500000
O O2 0.765867 0.877824 0.229434
O O3 0.693995 0.068724 0.366756
O O4 0.797392 0.088284 0.474082
O O5 0.547978 0.331372 0.671992
O O6 0.546953 0.683900 0.865312
O O7 0.541883 0.665039 0.556596
O O8 0.630910 0.600939 0.765530
O O9 0.000000 0.500000 0.000000
#
# Coordination Sequence:
#
# PCOD9295258 Si02
#       4
#     8   8   8   8
#     4  11  23  40  62  92 135 173 226 271 327 393
#     4  10  23  42  67  96 132 175 228 280 339 416
#     4  10  23  43  67  99 134 174 226 284 342 414
#     4  11  23  41  65  95 132 178 219 281 328 399
#
# _framework density 22.534016999999999
#
# number of rings (size 3 to 8) (size 9 to 14) (size 15 to 20)
#    0.000    1.500    2.500    1.500    0.000   12.000 
#    0.000    0.000    0.000    0.000    0.000    0.000 
#    0.000    0.000    0.000    0.000    0.000    0.000 
#
# Total GULP energy -89077.058876 kJ/mol
# GULP energy per Si atom -5567.316180 kJ/mol
# Density = 2.248273 g / cm^3
# Si number density = 22.534017 Si / 1000 Ang^3
#
#
#
# Elastic Constant Matrix: (Units=GPa)
#
#
# Indices 1 2 3 4 5 6 
#
# 1 102.9144 57.5620 48.9258 0.0000 34.0758 0.0000
# 2 57.5620 178.0009 47.1741 0.0000 6.1978 0.0000
# 3 48.9258 47.1741 95.4127 0.0000 9.8572 0.0000
# 4 0.0000 0.0000 0.0000 45.8532 0.0000 3.1776
# 5 34.0758 6.1978 9.8572 0.0000 45.3620 0.0000
# 6 0.0000 0.0000 0.0000 3.1776 0.0000 21.9007
#
#
#
# Elastic Compliance Matrix: (Units=1/GPa)
#
#
# Indices 1 2 3 4 5 6 
#
# 1 0.019231 -0.004042 -0.006575 0.000000 -0.012465 0.000000
# 2 -0.004042 0.007316 -0.001795 0.000000 0.002427 0.000000
# 3 -0.006575 -0.001795 0.014530 0.000000 0.002027 0.000000
# 4 0.000000 0.000000 0.000000 0.022030 0.000000 -0.003196
# 5 -0.012465 0.002427 0.002027 0.000000 0.030636 0.000000
# 6 0.000000 0.000000 0.000000 -0.003196 0.000000 0.046124
#
#
# Mechanical properties :
#
#
# Convention : Reuss Voigt Hill
#
# Bulk Modulus (GPa) = 61.52791 75.96131 68.74461
# Shear Modulus (GPa) = 29.39256 37.46759 33.43008
#
# Velocity S-wave (km/s) = 3.61552 4.08206 3.85585
# Velocity P-wave (km/s) = 6.69276 7.48334 7.09906
#
# Compressibility (1/GPa) = 0.01625279
#
# Stress axis : x y z
#
# Youngs Moduli (GPa) = 52.00020 136.67804 68.82105
#
# Poissons Ratio (x) = 0.55250 0.45248
# Poissons Ratio (y) = 0.21020 0.12356
# Poissons Ratio (z) = 0.34189 0.24538
#
# Static dielectric constant tensor:
#      x y z
#    x 1.870560 0.000000 -0.086630 
#    y 0.000000 1.997860 0.000000 
#    z -0.086630 0.000000 2.015170 
# 
# From -- ./inp_files/68040.got.cif
#   From: 2010.05.17/outbox.cif.g08.bks.cpg/sg15_35_cif.got.tgz:68040.got - 2010.06.03 18:47:42.
