data_PCOD9295281
_publ_section_title
;
Structure prediction by ZEFSAII (Michael W. Deem and Ramdas Pophale) SiO2 
 PCOD9295281
Probable space group: C 2/C
;
_chemical_formula_sum "Si O2"
_cell_formula_units_Z 32
_cell_length_a 6.414329
_cell_length_b 17.688969
_cell_length_c 14.425684
_cell_angle_alpha 90.000000
_cell_angle_beta 124.056140
_cell_angle_gamma 90.000000
_cell_volume 1356.054209
_symmetry_space_group_name_H-M "C 2/C"
_symmetry_group_IT_number 15
_symmetry_cell_setting 'monoclinic'
loop_
_space_group_symop_operation_xyz
x,y,z
-x,y,1/2-z
-x,-y,-z
x,-y,1/2+z
1/2+x,1/2+y,z
1/2-x,1/2+y,1/2-z
1/2-x,1/2-y,-z
1/2+x,1/2-y,1/2+z
loop_
_atom_site_type_symbol
_atom_site_label
_atom_site_fract_x
_atom_site_fract_y
_atom_site_fract_z
Si Si1 0.700414 0.401867 0.517516
Si Si2 0.718889 0.818880 0.145141
Si Si3 0.500026 0.337723 0.858954
Si Si4 0.340717 0.933539 0.068124
O O1 0.759778 0.337271 0.458835
O O2 0.711448 0.374534 0.626607
O O3 0.405682 0.425004 0.427929
O O4 0.854945 0.478768 0.547244
O O5 0.534465 0.750603 0.127002
O O6 0.599957 0.894806 0.160567
O O7 0.000000 0.802605 0.250000
O O8 0.500000 0.349180 0.750000
O O9 0.744057 0.379951 0.959889
#
# Coordination Sequence:
#
# PCOD9295281 Si02
#       4
#     8   8   8   8
#     4   9  22  46  72  94 129 177 228 278 335 383
#     4  12  25  39  69 102 136 178 221 270 343 399
#     4  10  23  42  68 100 135 175 224 277 331 396
#     4   9  22  46  71  95 133 172 233 276 327 391
#
# _framework density 23.597878000000001
#
# number of rings (size 3 to 8) (size 9 to 14) (size 15 to 20)
#    1.500    0.500    0.000    2.250    3.500    3.000 
#    0.000    2.500    5.500    0.000    0.000    0.000 
#    0.000    0.000    0.000    0.000    0.000    0.000 
#
# Total GULP energy -89193.624515 kJ/mol
# GULP energy per Si atom -5574.601532 kJ/mol
# Density = 2.354417 g / cm^3
# Si number density = 23.597878 Si / 1000 Ang^3
#
#
#
# Elastic Constant Matrix: (Units=GPa)
#
#
# Indices 1 2 3 4 5 6 
#
# 1 83.2299 31.3560 36.8725 0.0000 -22.5727 0.0000
# 2 31.3560 133.2321 65.8737 0.0000 -14.4214 0.0000
# 3 36.8725 65.8737 86.7987 0.0000 -21.3580 0.0000
# 4 0.0000 0.0000 0.0000 2.2588 0.0000 3.1128
# 5 -22.5727 -14.4214 -21.3580 0.0000 34.9316 0.0000
# 6 0.0000 0.0000 0.0000 3.1128 0.0000 42.1248
#
#
#
# Elastic Compliance Matrix: (Units=1/GPa)
#
#
# Indices 1 2 3 4 5 6 
#
# 1 0.016336 -0.000823 -0.004475 0.000000 0.007481 0.000000
# 2 -0.000823 0.012071 -0.009082 0.000000 -0.001101 0.000000
# 3 -0.004475 -0.009082 0.021989 0.000000 0.006803 0.000000
# 4 0.000000 0.000000 0.000000 0.492904 0.000000 -0.036423
# 5 0.007481 -0.001101 0.006803 0.000000 0.037166 0.000000
# 6 0.000000 0.000000 0.000000 -0.036423 0.000000 0.026430
#
#
# Mechanical properties :
#
#
# Convention : Reuss Voigt Hill
#
# Bulk Modulus (GPa) = 46.21858 63.49613 54.85735
# Shear Modulus (GPa) = 7.77766 27.14029 17.45897
#
# Velocity S-wave (km/s) = 1.81744 3.39501 2.72298
# Velocity P-wave (km/s) = 4.90230 6.50647 5.76050
#
# Compressibility (1/GPa) = 0.02163632
#
# Stress axis : x y z
#
# Youngs Moduli (GPa) = 61.21450 82.84590 45.47820
#
# Poissons Ratio (x) = 0.06814 0.20350
# Poissons Ratio (y) = 0.05035 0.41305
# Poissons Ratio (z) = 0.27391 0.75243
#
# Static dielectric constant tensor:
#      x y z
#    x 1.966830 0.000000 -0.001000 
#    y 0.000000 1.858420 0.000000 
#    z -0.001000 0.000000 1.923980 
# 
# From -- ./inp_files/128826.got.cif
#   From: 2010.05.17/outbox.cif.g08.bks.cpg/sg15_65_cif.got.tgz:128826.got - 2010.06.03 18:47:42.
