data_PCOD9295951
_publ_section_title
;
Structure prediction by ZEFSAII (Michael W. Deem and Ramdas Pophale) SiO2 
 PCOD9295951
Probable space group: C 2/C
;
_chemical_formula_sum "Si O2"
_cell_formula_units_Z 40
_cell_length_a 15.303208
_cell_length_b 5.173307
_cell_length_c 19.519687
_cell_angle_alpha 90.000000
_cell_angle_beta 90.239915
_cell_angle_gamma 90.000000
_cell_volume 1545.324801
_symmetry_space_group_name_H-M "C 2/C"
_symmetry_group_IT_number 15
_symmetry_cell_setting 'monoclinic'
loop_
_space_group_symop_operation_xyz
x,y,z
-x,y,1/2-z
-x,-y,-z
x,-y,1/2+z
1/2+x,1/2+y,z
1/2-x,1/2+y,1/2-z
1/2-x,1/2-y,-z
1/2+x,1/2-y,1/2+z
loop_
_atom_site_type_symbol
_atom_site_label
_atom_site_fract_x
_atom_site_fract_y
_atom_site_fract_z
Si Si1 0.663699 0.316345 0.048780
Si Si2 0.158092 0.002257 0.898365
Si Si3 0.919469 0.685140 0.989296
Si Si4 0.902290 0.698995 0.724384
Si Si5 0.262901 0.613615 0.323135
O O1 0.582016 0.532588 0.046275
O O2 0.717426 0.433106 0.111732
O O3 0.639083 0.016690 0.053429
O O4 0.688284 0.360531 0.968218
O O5 0.233947 0.107408 0.850320
O O6 0.094157 0.841600 0.849499
O O7 0.115797 0.252869 0.934612
O O8 0.000000 0.500000 0.000000
O O9 0.826066 0.484420 0.713811
O O10 0.851065 0.878418 0.779056
O O11 0.000000 0.628217 0.750000
#
# Coordination Sequence:
#
# PCOD9295951 Si02
#       5
#     8   8   8   8   8
#     4  10  25  43  82 115 150 212 264 335 406 479
#     4  10  25  47  76 112 156 212 262 334 408 476
#     4  10  23  43  75 120 162 198 263 336 410 480
#     4  12  29  50  78 114 163 218 277 330 411 497
#     4  12  26  51  79 114 159 214 271 336 408 485
#
# _framework density 25.884523999999999
#
# number of rings (size 3 to 8) (size 9 to 14) (size 15 to 20)
#    1.200    0.000    2.000    2.400    5.600    4.000 
#    0.000    0.000    0.000    0.000    0.000    0.000 
#    0.000    0.000    0.000    0.000    0.000    0.000 
#
# Total GULP energy -111551.786786 kJ/mol
# GULP energy per Si atom -5577.589339 kJ/mol
# Density = 2.582561 g / cm^3
# Si number density = 25.884524 Si / 1000 Ang^3
#
#
#
# Elastic Constant Matrix: (Units=GPa)
#
#
# Indices 1 2 3 4 5 6 
#
# 1 147.6350 -0.1222 67.2720 0.0000 27.5288 0.0000
# 2 -0.1222 75.5005 34.0093 0.0000 -4.1918 0.0000
# 3 67.2720 34.0093 130.1193 0.0000 21.3887 0.0000
# 4 0.0000 0.0000 0.0000 42.6216 0.0000 14.4122
# 5 27.5288 -4.1918 21.3887 0.0000 43.8571 0.0000
# 6 0.0000 0.0000 0.0000 14.4122 0.0000 23.4603
#
#
#
# Elastic Compliance Matrix: (Units=1/GPa)
#
#
# Indices 1 2 3 4 5 6 
#
# 1 0.009690 0.002068 -0.004982 0.000000 -0.003455 0.000000
# 2 0.002068 0.016008 -0.005753 0.000000 0.003037 0.000000
# 3 -0.004982 -0.005753 0.012329 0.000000 -0.003435 0.000000
# 4 0.000000 0.000000 0.000000 0.029614 0.000000 -0.018192
# 5 -0.003455 0.003037 -0.003435 0.000000 0.026935 0.000000
# 6 0.000000 0.000000 0.000000 -0.018192 0.000000 0.053801
#
#
# Mechanical properties :
#
#
# Convention : Reuss Voigt Hill
#
# Bulk Modulus (GPa) = 48.32375 61.73035 55.02705
# Shear Modulus (GPa) = 28.96722 38.79419 33.88070
#
# Velocity S-wave (km/s) = 3.34892 3.87556 3.62182
# Velocity P-wave (km/s) = 5.80200 6.62772 6.22856
#
# Compressibility (1/GPa) = 0.02069376
#
# Stress axis : x y z
#
# Youngs Moduli (GPa) = 103.20389 62.46803 81.10737
#
# Poissons Ratio (x) = -0.12919 0.40409
# Poissons Ratio (y) = -0.21344 0.46658
# Poissons Ratio (z) = 0.51418 0.35935
#
# Static dielectric constant tensor:
#      x y z
#    x 1.436860 0.000000 0.500200 
#    y 0.000000 1.820720 0.000000 
#    z 0.500200 0.000000 1.806150 
# 
# From -- ./inp_files/208052.got.cif
#   From: 2010.05.17/outbox.cif.g08.bks.cpg/sg15_105_cif.got.tgz:208052.got - 2010.06.03 18:47:42.
