data_PCOD9295297
_publ_section_title
;
Structure prediction by ZEFSAII (Michael W. Deem and Ramdas Pophale) SiO2 
 PCOD9295297
Probable space group: C 2/C
;
_chemical_formula_sum "Si O2"
_cell_formula_units_Z 36
_cell_length_a 14.350615
_cell_length_b 24.687361
_cell_length_c 8.959966
_cell_angle_alpha 90.000000
_cell_angle_beta 33.574889
_cell_angle_gamma 90.000000
_cell_volume 1755.486312
_symmetry_space_group_name_H-M "C 2/C"
_symmetry_group_IT_number 15
_symmetry_cell_setting 'monoclinic'
loop_
_space_group_symop_operation_xyz
x,y,z
-x,y,1/2-z
-x,-y,-z
x,-y,1/2+z
1/2+x,1/2+y,z
1/2-x,1/2+y,1/2-z
1/2-x,1/2-y,-z
1/2+x,1/2-y,1/2+z
loop_
_atom_site_type_symbol
_atom_site_label
_atom_site_fract_x
_atom_site_fract_y
_atom_site_fract_z
Si Si1 0.878917 0.545822 0.733418
Si Si2 0.825291 0.027094 0.775022
Si Si3 0.000000 0.891342 0.250000
Si Si4 0.243019 0.692699 0.197720
Si Si5 0.000000 0.716468 0.250000
Si Si6 0.000000 0.352807 0.250000
O O1 0.746923 0.553455 0.776921
O O2 0.947262 0.603949 0.691925
O O3 0.000000 0.500000 0.500000
O O4 0.794970 0.517594 0.989706
O O5 0.868246 0.071555 0.839693
O O6 0.000000 0.000000 0.500000
O O7 0.884597 0.853924 0.506431
O O8 0.110505 0.688083 0.234267
O O9 0.140397 0.684883 0.486784
O O10 0.355868 0.746542 0.022583
#
# Coordination Sequence:
#
# PCOD9295297 Si02
#       6
#     8   8   4   8   4   4
#     4  12  23  39  57  88 130 173 208 250 296 344
#     4  12  22  38  58  84 128 175 208 249 297 345
#     4  11  22  38  62  92 120 166 218 246 294 383
#     4  10  23  42  68  91 120 153 207 258 316 387
#     4   9  22  48  69  88 118 160 189 264 348 371
#     4  12  24  38  63 100 122 158 219 254 288 366
#
# _framework density 20.507137
#
# number of rings (size 3 to 8) (size 9 to 14) (size 15 to 20)
#    0.000    0.889    4.444    2.667    3.111    0.889 
#    0.000    0.000    0.000    0.000    0.000    0.000 
#    0.000    0.000    0.000    0.000    0.000    0.000 
#
# Total GULP energy -100428.694310 kJ/mol
# GULP energy per Si atom -5579.371906 kJ/mol
# Density = 2.046046 g / cm^3
# Si number density = 20.507137 Si / 1000 Ang^3
#
#
#
# Elastic Constant Matrix: (Units=GPa)
#
#
# Indices 1 2 3 4 5 6 
#
# 1 82.8459 -1.8865 -22.4845 0.0000 -7.3332 0.0000
# 2 -1.8865 49.5000 24.7882 0.0000 4.5960 0.0000
# 3 -22.4845 24.7882 150.0881 0.0000 11.4509 0.0000
# 4 0.0000 0.0000 0.0000 19.0510 0.0000 -7.3184
# 5 -7.3332 4.5960 11.4509 0.0000 28.8518 0.0000
# 6 0.0000 0.0000 0.0000 -7.3184 0.0000 5.0946
#
#
#
# Elastic Compliance Matrix: (Units=1/GPa)
#
#
# Indices 1 2 3 4 5 6 
#
# 1 0.012784 -0.000671 0.001825 0.000000 0.002632 0.000000
# 2 -0.000671 0.022186 -0.003591 0.000000 -0.002280 0.000000
# 3 0.001825 -0.003591 0.007683 0.000000 -0.002013 0.000000
# 4 0.000000 0.000000 0.000000 0.117122 0.000000 0.168245
# 5 0.002632 -0.002280 -0.002013 0.000000 0.036491 0.000000
# 6 0.000000 0.000000 0.000000 0.168245 0.000000 0.437970
#
#
# Mechanical properties :
#
#
# Convention : Reuss Voigt Hill
#
# Bulk Modulus (GPa) = 26.46967 31.47426 28.97196
# Shear Modulus (GPa) = 7.67222 29.40060 18.53641
#
# Velocity S-wave (km/s) = 1.93633 3.79050 3.00976
# Velocity P-wave (km/s) = 4.23494 5.87694 5.12217
#
# Compressibility (1/GPa) = 0.03777909
#
# Stress axis : x y z
#
# Youngs Moduli (GPa) = 78.22513 45.07285 130.16027
#
# Poissons Ratio (x) = 0.03025 -0.23756
# Poissons Ratio (y) = 0.05250 0.46739
# Poissons Ratio (z) = -0.14277 0.16185
#
# Static dielectric constant tensor:
#      x y z
#    x 1.756810 0.000000 -0.019820 
#    y 0.000000 1.750810 0.000000 
#    z -0.019820 0.000000 1.734950 
# 
# From -- ./inp_files/23374.got.cif
#   From: 2010.05.17/outbox.cif.g08.bks.cpg/sg15_12_cif.got.tgz:23374.got - 2010.06.03 18:47:42.
