data_PCOD9295069
_publ_section_title
;
Structure prediction by ZEFSAII (Michael W. Deem and Ramdas Pophale) SiO2 
 PCOD9295069
Probable space group: C 2/C
;
_chemical_formula_sum "Si O2"
_cell_formula_units_Z 52
_cell_length_a 20.917074
_cell_length_b 16.069936
_cell_length_c 14.953228
_cell_angle_alpha 90.000000
_cell_angle_beta 151.267212
_cell_angle_gamma 90.000000
_cell_volume 2416.279006
_symmetry_space_group_name_H-M "C 2/C"
_symmetry_group_IT_number 15
_symmetry_cell_setting 'monoclinic'
loop_
_space_group_symop_operation_xyz
x,y,z
-x,y,1/2-z
-x,-y,-z
x,-y,1/2+z
1/2+x,1/2+y,z
1/2-x,1/2+y,1/2-z
1/2-x,1/2-y,-z
1/2+x,1/2-y,1/2+z
loop_
_atom_site_type_symbol
_atom_site_label
_atom_site_fract_x
_atom_site_fract_y
_atom_site_fract_z
Si Si1 0.286577 0.439998 0.122409
Si Si2 0.794270 0.900489 0.753922
Si Si3 0.485435 0.930754 0.404474
Si Si4 0.658020 0.736628 0.744185
Si Si5 0.136667 0.723602 0.665164
Si Si6 0.000000 0.533627 0.250000
Si Si7 0.360106 0.624308 0.538819
O O1 0.318971 0.518645 0.223751
O O2 0.356288 0.355719 0.236923
O O3 0.320214 0.448433 0.058981
O O4 0.129705 0.419244 0.941505
O O5 0.634629 0.894983 0.572962
O O6 0.846489 0.815697 0.772134
O O7 0.854932 0.904491 0.928963
O O8 0.379027 0.859329 0.296112
O O9 0.451601 0.976341 0.271354
O O10 0.500000 0.000000 0.500000
O O11 0.740749 0.722403 0.753405
O O12 0.510070 0.773623 0.559253
O O13 0.751142 0.802212 0.910154
O O14 0.500000 0.655194 0.750000
#
# Coordination Sequence:
#
# PCOD9295069 Si02
#       7
#     8   8   8   8   8   4   8
#     4  11  23  39  62  95 127 173 210 269 330 388
#     4  10  23  42  63  94 132 166 225 266 319 399
#     4  11  21  43  68  93 134 174 221 275 328 392
#     4  11  24  37  65  96 132 170 214 267 338 397
#     4  11  21  42  67  92 130 178 215 267 330 391
#     4  10  24  36  66  98 122 164 236 268 304 400
#     4  11  23  39  61  93 135 167 213 274 323 398
#
# _framework density 21.520693999999999
#
# number of rings (size 3 to 8) (size 9 to 14) (size 15 to 20)
#    0.000    1.231    3.077    5.077    3.231    2.462 
#    0.000    3.077    5.077    0.000    0.000    0.000 
#    0.000    0.000    0.000    0.000    0.000    0.000 
#
# Total GULP energy -145082.971147 kJ/mol
# GULP energy per Si atom -5580.114275 kJ/mol
# Density = 2.147171 g / cm^3
# Si number density = 21.520694 Si / 1000 Ang^3
#
#
#
# Elastic Constant Matrix: (Units=GPa)
#
#
# Indices 1 2 3 4 5 6 
#
# 1 85.4740 42.0752 -10.3508 0.0000 -6.7713 0.0000
# 2 42.0752 91.3388 -5.3246 0.0000 -11.2752 0.0000
# 3 -10.3508 -5.3246 42.1179 0.0000 20.6535 0.0000
# 4 0.0000 0.0000 0.0000 30.1576 0.0000 8.3817
# 5 -6.7713 -11.2752 20.6535 0.0000 32.4827 0.0000
# 6 0.0000 0.0000 0.0000 8.3817 0.0000 39.5991
#
#
#
# Elastic Compliance Matrix: (Units=1/GPa)
#
#
# Indices 1 2 3 4 5 6 
#
# 1 0.015534 -0.007136 0.003694 0.000000 -0.001588 0.000000
# 2 -0.007136 0.014732 -0.002426 0.000000 0.005169 0.000000
# 3 0.003694 -0.002426 0.035425 0.000000 -0.022596 0.000000
# 4 0.000000 0.000000 0.000000 0.035232 0.000000 -0.007457
# 5 -0.001588 0.005169 -0.022596 0.000000 0.046616 0.000000
# 6 0.000000 0.000000 0.000000 -0.007457 0.000000 0.026832
#
#
# Mechanical properties :
#
#
# Convention : Reuss Voigt Hill
#
# Bulk Modulus (GPa) = 18.53427 30.19226 24.36326
# Shear Modulus (GPa) = 24.49885 33.28327 28.89106
#
# Velocity S-wave (km/s) = 3.37766 3.93691 3.66796
# Velocity P-wave (km/s) = 4.88287 5.89284 5.41147
#
# Compressibility (1/GPa) = 0.05395412
#
# Stress axis : x y z
#
# Youngs Moduli (GPa) = 64.37513 67.87841 28.22902
#
# Poissons Ratio (x) = 0.48440 -0.10428
# Poissons Ratio (y) = 0.45940 0.06848
# Poissons Ratio (z) = -0.23780 0.16466
#
# Static dielectric constant tensor:
#      x y z
#    x 1.865830 0.000000 -0.009560 
#    y 0.000000 1.787430 0.000000 
#    z -0.009560 0.000000 1.860040 
# 
# From -- ./inp_files/118806.got.cif
#   From: 2010.05.17/outbox.cif.g08.bks.cpg/sg15_60_cif.got.tgz:118806.got - 2010.06.03 18:47:42.
