data_PCOD9295333
_publ_section_title
;
Structure prediction by ZEFSAII (Michael W. Deem and Ramdas Pophale) SiO2 
 PCOD9295333
Probable space group: C 2/C
;
_chemical_formula_sum "Si O2"
_cell_formula_units_Z 44
_cell_length_a 22.018428
_cell_length_b 9.496667
_cell_length_c 14.558676
_cell_angle_alpha 90.000000
_cell_angle_beta 137.320448
_cell_angle_gamma 90.000000
_cell_volume 2063.684652
_symmetry_space_group_name_H-M "C 2/C"
_symmetry_group_IT_number 15
_symmetry_cell_setting 'monoclinic'
loop_
_space_group_symop_operation_xyz
x,y,z
-x,y,1/2-z
-x,-y,-z
x,-y,1/2+z
1/2+x,1/2+y,z
1/2-x,1/2+y,1/2-z
1/2-x,1/2-y,-z
1/2+x,1/2-y,1/2+z
loop_
_atom_site_type_symbol
_atom_site_label
_atom_site_fract_x
_atom_site_fract_y
_atom_site_fract_z
Si Si1 0.919766 0.629608 0.811138
Si Si2 0.619932 0.594902 0.335861
Si Si3 0.055146 0.384296 0.949651
Si Si4 0.287363 0.621866 0.871020
Si Si5 0.735732 0.062800 0.156500
Si Si6 0.000000 0.152322 0.750000
O O1 0.928475 0.766372 0.757205
O O2 0.813738 0.597656 0.702633
O O3 0.975350 0.494639 0.840228
O O4 0.952296 0.660182 0.951585
O O5 0.644762 0.609780 0.469917
O O6 0.710535 0.582923 0.377604
O O7 0.563974 0.452598 0.264974
O O8 0.051418 0.253450 0.877624
O O9 0.148163 0.468686 0.045355
O O10 0.290212 0.781804 0.838296
O O11 0.298227 0.512324 0.801044
#
# Coordination Sequence:
#
# PCOD9295333 Si02
#       6
#     8   8   8   8   8   4
#     4   9  21  45  69  91 130 172 215 267 328 384
#     4  11  26  43  65  97 131 176 211 271 327 387
#     4  10  24  43  66  99 128 172 222 262 321 390
#     4  10  23  42  69 101 122 173 216 264 330 388
#     4  10  23  44  70  92 131 169 216 271 318 391
#     4  12  30  38  62 100 134 170 220 272 316 390
#
# _framework density 21.321086999999999
#
# number of rings (size 3 to 8) (size 9 to 14) (size 15 to 20)
#    0.000    1.818    0.000    2.182   15.273    5.818 
#    0.000    0.000    0.000    0.000    0.000    0.000 
#    0.000    0.000    0.000    0.000    0.000    0.000 
#
# Total GULP energy -123051.395879 kJ/mol
# GULP energy per Si atom -5593.245267 kJ/mol
# Density = 2.127256 g / cm^3
# Si number density = 21.321087 Si / 1000 Ang^3
#
#
#
# Elastic Constant Matrix: (Units=GPa)
#
#
# Indices 1 2 3 4 5 6 
#
# 1 -75.9554 -30.3829 -35.0612 0.0000 25.5721 0.0000
# 2 -30.3829 92.6078 35.7032 0.0000 2.7118 0.0000
# 3 -35.0612 35.7032 71.4085 0.0000 4.0418 0.0000
# 4 0.0000 0.0000 0.0000 36.3900 0.0000 -2.8016
# 5 25.5721 2.7118 4.0418 0.0000 19.7495 0.0000
# 6 0.0000 0.0000 0.0000 -2.8016 0.0000 35.0627
#
#
#
# Elastic Compliance Matrix: (Units=1/GPa)
#
#
# Indices 1 2 3 4 5 6 
#
# 1 -0.007428 -0.001374 -0.003556 0.000000 0.010534 0.000000
# 2 -0.001374 0.013127 -0.007322 0.000000 0.001476 0.000000
# 3 -0.003556 -0.007322 0.015784 0.000000 0.002380 0.000000
# 4 0.000000 0.000000 0.000000 0.027650 0.000000 0.002209
# 5 0.010534 0.001476 0.002380 0.000000 0.036305 0.000000
# 6 0.000000 0.000000 0.000000 0.002209 0.000000 0.028697
#
#
# Mechanical properties :
#
#
# Convention : Reuss Voigt Hill
#
# Bulk Modulus (GPa) = -330.99694 3.17545 -163.91075
# Shear Modulus (GPa) = 36.32885 26.09390 31.21138
#
# Velocity S-wave (km/s) = 4.13230 3.50216 3.83021
# Velocity P-wave (km/s) = 11.52445 4.22446 7.58179
#
# Compressibility (1/GPa) = -0.00302118
#
# Stress axis : x y z
#
# Youngs Moduli (GPa) = -134.62925 76.18017 63.35571
#
# Poissons Ratio (x) = 0.10470 0.22530
# Poissons Ratio (y) = -0.18504 0.46386
# Poissons Ratio (z) = -0.47875 0.55776
#
# Static dielectric constant tensor:
#      x y z
#    x 1.788840 0.000000 0.005520 
#    y 0.000000 1.737870 0.000000 
#    z 0.005520 0.000000 1.772530 
# 
# From -- ./inp_files/176732.got.cif
#   From: 2010.05.17/outbox.cif.g08.bks.cpg/sg15_89_cif.got.tgz:176732.got - 2010.06.03 18:47:42.
