data_PCOD9295838
_publ_section_title
;
Structure prediction by ZEFSAII (Michael W. Deem and Ramdas Pophale) SiO2 
 PCOD9295838
Probable space group: C 2/C
;
_chemical_formula_sum "Si O2"
_cell_formula_units_Z 40
_cell_length_a 10.627451
_cell_length_b 9.030669
_cell_length_c 16.104189
_cell_angle_alpha 90.000000
_cell_angle_beta 86.383549
_cell_angle_gamma 90.000000
_cell_volume 1542.489455
_symmetry_space_group_name_H-M "C 2/C"
_symmetry_group_IT_number 15
_symmetry_cell_setting 'monoclinic'
loop_
_space_group_symop_operation_xyz
x,y,z
-x,y,1/2-z
-x,-y,-z
x,-y,1/2+z
1/2+x,1/2+y,z
1/2-x,1/2+y,1/2-z
1/2-x,1/2-y,-z
1/2+x,1/2-y,1/2+z
loop_
_atom_site_type_symbol
_atom_site_label
_atom_site_fract_x
_atom_site_fract_y
_atom_site_fract_z
Si Si1 0.728490 0.876066 0.573413
Si Si2 0.128998 0.359956 0.993902
Si Si3 0.956003 0.105890 0.598694
Si Si4 0.283700 0.283514 0.248012
Si Si5 0.206002 0.955158 0.652803
O O1 0.750000 0.750000 0.500000
O O2 0.704025 0.795029 0.662639
O O3 0.623586 0.006607 0.559773
O O4 0.853435 0.981368 0.577237
O O5 0.028912 0.235573 0.971090
O O6 0.178106 0.451778 0.913451
O O7 0.250000 0.250000 0.000000
O O8 0.903358 0.192076 0.682316
O O9 0.082453 0.021571 0.617275
O O10 0.182789 0.204224 0.193475
O O11 0.248425 0.448551 0.272413
#
# Coordination Sequence:
#
# PCOD9295838 Si02
#       5
#     8   8   8   8   8
#     4  11  21  39  64  98 135 171 217 279 339 393
#     4   9  21  40  66  96 133 172 217 280 342 396
#     4  10  23  43  70  94 127 185 230 266 340 414
#     4  11  22  39  68  95 135 175 222 283 332 394
#     4  11  22  43  69  95 130 178 229 278 333 406
#
# _framework density 25.932106000000001
#
# number of rings (size 3 to 8) (size 9 to 14) (size 15 to 20)
#    0.000    1.600    4.000    0.600    0.000    3.200 
#    0.000    3.000    8.800    0.000    0.000    0.000 
#    0.000    0.000    0.000    0.000    0.000    0.000 
#
# Total GULP energy -111616.806611 kJ/mol
# GULP energy per Si atom -5580.840331 kJ/mol
# Density = 2.587308 g / cm^3
# Si number density = 25.932106 Si / 1000 Ang^3
#
#
#
# Elastic Constant Matrix: (Units=GPa)
#
#
# Indices 1 2 3 4 5 6 
#
# 1 111.6134 62.3651 36.5677 0.0000 15.1044 0.0000
# 2 62.3651 144.3625 57.5756 0.0000 14.5717 0.0000
# 3 36.5677 57.5756 117.6124 0.0000 -0.7709 0.0000
# 4 0.0000 0.0000 0.0000 83.6969 0.0000 10.6514
# 5 15.1044 14.5717 -0.7709 0.0000 27.8654 0.0000
# 6 0.0000 0.0000 0.0000 10.6514 0.0000 52.1431
#
#
#
# Elastic Compliance Matrix: (Units=1/GPa)
#
#
# Indices 1 2 3 4 5 6 
#
# 1 0.012554 -0.004205 -0.001875 0.000000 -0.004658 0.000000
# 2 -0.004205 0.010655 -0.003931 0.000000 -0.003401 0.000000
# 3 -0.001875 -0.003931 0.011032 0.000000 0.003377 0.000000
# 4 0.000000 0.000000 0.000000 0.012267 0.000000 -0.002506
# 5 -0.004658 -0.003401 0.003377 0.000000 0.040283 0.000000
# 6 0.000000 0.000000 0.000000 -0.002506 0.000000 0.019690
#
#
# Mechanical properties :
#
#
# Convention : Reuss Voigt Hill
#
# Bulk Modulus (GPa) = 70.33209 76.28948 73.31078
# Shear Modulus (GPa) = 38.09757 47.21306 42.65531
#
# Velocity S-wave (km/s) = 3.83708 4.27153 4.06012
# Velocity P-wave (km/s) = 6.84189 7.33558 7.09303
#
# Compressibility (1/GPa) = 0.01421826
#
# Stress axis : x y z
#
# Youngs Moduli (GPa) = 79.65629 93.85556 90.64682
#
# Poissons Ratio (x) = 0.39470 0.16997
# Poissons Ratio (y) = 0.33499 0.35630
# Poissons Ratio (z) = 0.14936 0.36891
#
# Static dielectric constant tensor:
#      x y z
#    x 2.104730 0.000000 -0.003490 
#    y 0.000000 2.092120 0.000000 
#    z -0.003490 0.000000 2.270950 
# 
# From -- ./inp_files/195249.got.cif
#   From: 2010.05.17/outbox.cif.g08.bks.cpg/sg15_98_cif.got.tgz:195249.got - 2010.06.03 18:47:42.
