data_PCOD9295797
_publ_section_title
;
Structure prediction by ZEFSAII (Michael W. Deem and Ramdas Pophale) SiO2 
 PCOD9295797
Probable space group: C 2/C
;
_chemical_formula_sum "Si O2"
_cell_formula_units_Z 40
_cell_length_a 13.559317
_cell_length_b 11.776406
_cell_length_c 16.765128
_cell_angle_alpha 90.000000
_cell_angle_beta 143.360127
_cell_angle_gamma 90.000000
_cell_volume 1597.622650
_symmetry_space_group_name_H-M "C 2/C"
_symmetry_group_IT_number 15
_symmetry_cell_setting 'monoclinic'
loop_
_space_group_symop_operation_xyz
x,y,z
-x,y,1/2-z
-x,-y,-z
x,-y,1/2+z
1/2+x,1/2+y,z
1/2-x,1/2+y,1/2-z
1/2-x,1/2-y,-z
1/2+x,1/2-y,1/2+z
loop_
_atom_site_type_symbol
_atom_site_label
_atom_site_fract_x
_atom_site_fract_y
_atom_site_fract_z
Si Si1 0.599638 0.398987 0.603742
Si Si2 0.793641 0.474692 0.954777
Si Si3 0.191794 0.654082 0.402594
Si Si4 0.108295 0.765727 0.754506
Si Si5 0.325404 0.918456 0.317212
O O1 0.500000 0.500000 0.500000
O O2 0.680370 0.328490 0.586509
O O3 0.516831 0.328952 0.621079
O O4 0.757671 0.461577 0.743546
O O5 0.684177 0.366876 0.857630
O O6 0.767064 0.574270 0.870932
O O7 0.778448 0.534072 0.030970
O O8 0.978348 0.427775 0.062224
O O9 0.250000 0.750000 0.500000
O O10 0.000000 0.659804 0.250000
O O11 0.223978 0.680737 0.777503
O O12 0.000000 0.699802 0.750000
#
# Coordination Sequence:
#
# PCOD9295797 Si02
#       5
#     8   8   8   8   8
#     4  11  25  44  68 103 142 179 237 294 356 431
#     4  10  23  46  68  98 145 181 240 290 354 433
#     4  12  26  46  77 104 142 197 248 303 368 436
#     4  11  25  41  70 104 139 185 231 291 359 426
#     4  10  23  43  69  98 138 184 228 288 357 427
#
# _framework density 25.037199999999999
#
# number of rings (size 3 to 8) (size 9 to 14) (size 15 to 20)
#    0.000    1.200    2.000    2.400    5.600    6.400 
#    0.000    0.000    0.000    0.000    0.000    0.000 
#    0.000    0.000    0.000    0.000    0.000    0.000 
#
# Total GULP energy -111650.570281 kJ/mol
# GULP energy per Si atom -5582.528514 kJ/mol
# Density = 2.498021 g / cm^3
# Si number density = 25.037200 Si / 1000 Ang^3
#
#
#
# Elastic Constant Matrix: (Units=GPa)
#
#
# Indices 1 2 3 4 5 6 
#
# 1 126.3325 16.9407 33.0745 0.0001 -36.2484 0.0000
# 2 16.9407 108.7981 22.5484 0.0001 -19.2363 0.0000
# 3 33.0745 22.5484 71.7640 0.0001 -23.1887 0.0001
# 4 0.0001 0.0001 0.0001 43.9275 0.0001 -21.9949
# 5 -36.2484 -19.2363 -23.1887 0.0001 33.4748 0.0000
# 6 0.0000 0.0000 0.0001 -21.9949 0.0000 36.3963
#
#
#
# Elastic Compliance Matrix: (Units=1/GPa)
#
#
# Indices 1 2 3 4 5 6 
#
# 1 0.011674 0.000632 -0.001774 0.000000 0.011776 0.000000
# 2 0.000632 0.010427 -0.001817 0.000000 0.005418 0.000000
# 3 -0.001774 -0.001817 0.018508 0.000000 0.009856 0.000000
# 4 0.000000 0.000000 0.000000 0.032642 0.000000 0.019726
# 5 0.011776 0.005418 0.009856 0.000000 0.052565 0.000000
# 6 0.000000 0.000000 0.000000 0.019726 0.000000 0.039396
#
#
# Mechanical properties :
#
#
# Convention : Reuss Voigt Hill
#
# Bulk Modulus (GPa) = 28.82569 50.22463 39.52516
# Shear Modulus (GPa) = 27.36827 38.38180 32.87504
#
# Velocity S-wave (km/s) = 3.30980 3.91959 3.62753
# Velocity P-wave (km/s) = 5.11317 6.37086 5.77634
#
# Compressibility (1/GPa) = 0.03469128
#
# Stress axis : x y z
#
# Youngs Moduli (GPa) = 85.66007 95.90113 54.03188
#
# Poissons Ratio (x) = -0.06060 0.09585
# Poissons Ratio (y) = -0.05413 0.09817
# Poissons Ratio (z) = 0.15195 0.17425
#
# Static dielectric constant tensor:
#      x y z
#    x 1.895660 0.000000 -0.030260 
#    y 0.000000 2.865000 0.000000 
#    z -0.030260 0.000000 2.024550 
# 
# From -- ./inp_files/204253.got.cif
#   From: 2010.05.17/outbox.cif.g08.bks.cpg/sg15_103_cif.got.tgz:204253.got - 2010.06.03 18:47:42.
