data_PCOD9295899
_publ_section_title
;
Structure prediction by ZEFSAII (Michael W. Deem and Ramdas Pophale) SiO2 
 PCOD9295899
Probable space group: C 2/C
;
_chemical_formula_sum "Si O2"
_cell_formula_units_Z 64
_cell_length_a 30.193207
_cell_length_b 8.855706
_cell_length_c 16.439446
_cell_angle_alpha 90.000000
_cell_angle_beta 40.278439
_cell_angle_gamma 90.000000
_cell_volume 2841.776889
_symmetry_space_group_name_H-M "C 2/C"
_symmetry_group_IT_number 15
_symmetry_cell_setting 'monoclinic'
loop_
_space_group_symop_operation_xyz
x,y,z
-x,y,1/2-z
-x,-y,-z
x,-y,1/2+z
1/2+x,1/2+y,z
1/2-x,1/2+y,1/2-z
1/2-x,1/2-y,-z
1/2+x,1/2-y,1/2+z
loop_
_atom_site_type_symbol
_atom_site_label
_atom_site_fract_x
_atom_site_fract_y
_atom_site_fract_z
Si Si1 0.305437 0.242268 0.494508
Si Si2 0.943836 0.566563 0.257896
Si Si3 0.767275 0.952026 0.266421
Si Si4 0.753329 0.283245 0.361108
Si Si5 0.507343 0.259452 0.023905
Si Si6 0.107990 0.723877 0.749924
Si Si7 0.571029 0.567097 0.998939
Si Si8 0.120666 0.066032 0.102203
O O1 0.250000 0.250000 0.500000
O O2 0.370720 0.137670 0.383703
O O3 0.264461 0.170987 0.627606
O O4 0.340868 0.405668 0.456369
O O5 0.972728 0.651286 0.137532
O O6 0.927964 0.394242 0.258664
O O7 0.000000 0.583243 0.250000
O O8 0.736003 0.910629 0.222813
O O9 0.849132 0.942538 0.138871
O O10 0.753889 0.118759 0.319137
O O11 0.812047 0.297183 0.345431
O O12 0.679263 0.311529 0.501956
O O13 0.459455 0.301330 0.014370
O O14 0.574899 0.199418 0.884801
O O15 0.531531 0.413675 0.032499
O O16 0.095660 0.889476 0.727419
O O17 0.569455 0.581945 0.098549
#
# Coordination Sequence:
#
# PCOD9295899 Si02
#       8
#     8   8   8   8   8   8   8   8
#     4  12  25  44  75 103 147 189 249 298 369 430
#     4  12  29  47  70 108 150 193 240 302 370 438
#     4  11  22  42  70 106 138 187 240 302 358 434
#     4  11  23  42  70 102 142 182 236 299 364 422
#     4  11  25  46  72 100 143 188 238 293 355 442
#     4  12  26  46  71 100 147 185 242 288 364 433
#     4  10  23  43  72 104 138 184 244 292 360 422
#     4  11  25  43  70 107 138 189 237 304 355 430
#
# _framework density 22.521118999999999
#
# number of rings (size 3 to 8) (size 9 to 14) (size 15 to 20)
#    0.000    0.750    1.250    6.000    7.000    2.000 
#    0.000    0.000    0.000    0.000    0.000    0.000 
#    0.000    0.000    0.000    0.000    0.000    0.000 
#
# Total GULP energy -179054.439151 kJ/mol
# GULP energy per Si atom -5595.451223 kJ/mol
# Density = 2.246986 g / cm^3
# Si number density = 22.521119 Si / 1000 Ang^3
#
#
#
# Elastic Constant Matrix: (Units=GPa)
#
#
# Indices 1 2 3 4 5 6 
#
# 1 135.8326 12.0901 14.3192 0.0000 -6.2142 -0.0001
# 2 12.0901 76.9084 20.2300 0.0008 -5.4601 -0.0002
# 3 14.3192 20.2300 90.6987 -0.0002 4.4198 0.0002
# 4 0.0000 0.0008 -0.0002 20.7244 0.0002 2.6780
# 5 -6.2142 -5.4601 4.4198 0.0002 31.4337 -0.0001
# 6 -0.0001 -0.0002 0.0002 2.6780 -0.0001 29.5450
#
#
#
# Elastic Compliance Matrix: (Units=1/GPa)
#
#
# Indices 1 2 3 4 5 6 
#
# 1 0.007619 -0.000801 -0.001098 0.000000 0.001522 0.000000
# 2 -0.000801 0.014156 -0.003165 -0.000001 0.002746 0.000000
# 3 -0.001098 -0.003165 0.012025 0.000000 -0.002458 0.000000
# 4 0.000000 -0.000001 0.000000 0.048824 0.000000 -0.004425
# 5 0.001522 0.002746 -0.002458 0.000000 0.032936 0.000000
# 6 0.000000 0.000000 0.000000 -0.004425 0.000000 0.034248
#
#
# Mechanical properties :
#
#
# Convention : Reuss Voigt Hill
#
# Bulk Modulus (GPa) = 42.24527 44.07980 43.16254
# Shear Modulus (GPa) = 29.79291 33.46066 31.62678
#
# Velocity S-wave (km/s) = 3.64110 3.85872 3.75149
# Velocity P-wave (km/s) = 6.03950 6.28236 6.16213
#
# Compressibility (1/GPa) = 0.02367129
#
# Stress axis : x y z
#
# Youngs Moduli (GPa) = 131.25651 70.64273 83.16305
#
# Poissons Ratio (x) = 0.05657 0.09134
# Poissons Ratio (y) = 0.10510 0.26319
# Poissons Ratio (z) = 0.14417 0.22357
#
# Static dielectric constant tensor:
#      x y z
#    x 1.816670 0.000000 0.032590 
#    y 0.000000 1.818980 0.000000 
#    z 0.032590 0.000000 1.911580 
# 
# From -- ./inp_files/224573.got.cif
#   From: 2010.05.17/outbox.cif.g08.bks.cpg/sg15_113_cif.got.tgz:224573.got - 2010.06.03 18:47:42.
