data_PCOD9295693
_publ_section_title
;
Structure prediction by ZEFSAII (Michael W. Deem and Ramdas Pophale) SiO2 
 PCOD9295693
Probable space group: C 2/C
;
_chemical_formula_sum "Si O2"
_cell_formula_units_Z 24
_cell_length_a 8.240749
_cell_length_b 26.180227
_cell_length_c 9.477589
_cell_angle_alpha 90.000000
_cell_angle_beta 30.989400
_cell_angle_gamma 90.000000
_cell_volume 1052.794372
_symmetry_space_group_name_H-M "C 2/C"
_symmetry_group_IT_number 15
_symmetry_cell_setting 'monoclinic'
loop_
_space_group_symop_operation_xyz
x,y,z
-x,y,1/2-z
-x,-y,-z
x,-y,1/2+z
1/2+x,1/2+y,z
1/2-x,1/2+y,1/2-z
1/2-x,1/2-y,-z
1/2+x,1/2-y,1/2+z
loop_
_atom_site_type_symbol
_atom_site_label
_atom_site_fract_x
_atom_site_fract_y
_atom_site_fract_z
Si Si1 0.668868 0.716373 0.272704
Si Si2 0.690648 0.965469 0.252121
Si Si3 0.649476 0.872289 0.494248
O O1 0.500000 0.704226 0.250000
O O2 0.393068 0.734517 0.581187
O O3 0.887934 0.669952 0.154195
O O4 0.500000 0.957402 0.250000
O O5 0.711176 0.912377 0.322066
O O6 0.500000 0.000000 0.500000
O O7 0.000000 0.000000 0.000000
O O8 0.500000 0.896818 0.750000
O O9 0.000000 0.849539 0.250000
#
# Coordination Sequence:
#
# PCOD9295693 Si02
#       3
#     8   8   8
#     4  10  23  43  67  98 137 180 226 277 336 400
#     4  12  26  46  70  97 133 175 224 280 339 400
#     4  12  26  43  68 102 138 178 228 279 338 405
#
# _framework density 22.796474
#
# number of rings (size 3 to 8) (size 9 to 14) (size 15 to 20)
#    0.000    0.667    0.000    8.000    0.000   13.333 
#    0.000    0.000    0.000    0.000    0.000    0.000 
#    0.000    0.000    0.000    0.000    0.000    0.000 
#
# Total GULP energy -67100.705920 kJ/mol
# GULP energy per Si atom -5591.725493 kJ/mol
# Density = 2.274459 g / cm^3
# Si number density = 22.796474 Si / 1000 Ang^3
#
#
#
# Elastic Constant Matrix: (Units=GPa)
#
#
# Indices 1 2 3 4 5 6 
#
# 1 155.6077 72.4534 65.3619 0.0000 -5.8641 0.0000
# 2 72.4534 79.6560 12.4225 0.0000 -16.7425 0.0000
# 3 65.3619 12.4225 161.1226 0.0000 -4.9880 0.0000
# 4 0.0000 0.0000 0.0000 38.3199 0.0000 -3.3753
# 5 -5.8641 -16.7425 -4.9880 0.0000 42.2700 0.0000
# 6 0.0000 0.0000 0.0000 -3.3753 0.0000 41.3647
#
#
#
# Elastic Compliance Matrix: (Units=1/GPa)
#
#
# Indices 1 2 3 4 5 6 
#
# 1 0.014562 -0.013269 -0.005003 0.000000 -0.003826 0.000000
# 2 -0.013269 0.025914 0.003659 0.000000 0.008855 0.000000
# 3 -0.005003 0.003659 0.008006 0.000000 0.001700 0.000000
# 4 0.000000 0.000000 0.000000 0.026285 0.000000 0.002145
# 5 -0.003826 0.008855 0.001700 0.000000 0.026835 0.000000
# 6 0.000000 0.000000 0.000000 0.002145 0.000000 0.024350
#
#
# Mechanical properties :
#
#
# Convention : Reuss Voigt Hill
#
# Bulk Modulus (GPa) = 51.93032 77.42911 64.67971
# Shear Modulus (GPa) = 30.94129 40.80084 35.87107
#
# Velocity S-wave (km/s) = 3.68813 4.23518 3.97109
# Velocity P-wave (km/s) = 6.40046 7.61280 7.03280
#
# Compressibility (1/GPa) = 0.01925657
#
# Stress axis : x y z
#
# Youngs Moduli (GPa) = 68.67242 38.58938 124.90045
#
# Poissons Ratio (x) = 0.51205 0.62483
# Poissons Ratio (y) = 0.91122 -0.45701
# Poissons Ratio (z) = 0.34354 -0.14120
#
# Static dielectric constant tensor:
#      x y z
#    x 1.841210 0.000000 0.000840 
#    y 0.000000 1.870860 0.000000 
#    z 0.000840 0.000000 1.782810 
# 
# From -- ./inp_files/25945.got.cif
#   From: 2010.05.17/outbox.cif.g08.bks.cpg/sg15_13_cif.got.tgz:25945.got - 2010.06.03 18:47:42.
