data_PCOD9295843
_publ_section_title
;
Structure prediction by ZEFSAII (Michael W. Deem and Ramdas Pophale) SiO2 
 PCOD9295843
Probable space group: C 2/C
;
_chemical_formula_sum "Si O2"
_cell_formula_units_Z 56
_cell_length_a 10.096147
_cell_length_b 12.354278
_cell_length_c 18.963510
_cell_angle_alpha 90.000000
_cell_angle_beta 83.200179
_cell_angle_gamma 90.000000
_cell_volume 2348.692088
_symmetry_space_group_name_H-M "C 2/C"
_symmetry_group_IT_number 15
_symmetry_cell_setting 'monoclinic'
loop_
_space_group_symop_operation_xyz
x,y,z
-x,y,1/2-z
-x,-y,-z
x,-y,1/2+z
1/2+x,1/2+y,z
1/2-x,1/2+y,1/2-z
1/2-x,1/2-y,-z
1/2+x,1/2-y,1/2+z
loop_
_atom_site_type_symbol
_atom_site_label
_atom_site_fract_x
_atom_site_fract_y
_atom_site_fract_z
Si Si1 0.353110 0.227340 0.581833
Si Si2 0.581182 0.233449 0.682628
Si Si3 0.968491 0.393878 0.673244
Si Si4 0.933041 0.842919 0.342833
Si Si5 0.687203 0.919243 0.538086
Si Si6 0.307727 0.539144 0.270318
Si Si7 0.190446 0.070679 0.878278
O O1 0.476502 0.245290 0.625575
O O2 0.211179 0.202591 0.627231
O O3 0.378175 0.125871 0.528538
O O4 0.310565 0.335272 0.542553
O O5 0.500000 0.174099 0.750000
O O6 0.625060 0.347093 0.714378
O O7 0.710968 0.166520 0.652083
O O8 0.825817 0.449525 0.674191
O O9 0.000000 0.431284 0.750000
O O10 0.977482 0.263079 0.679217
O O11 0.071884 0.418686 0.605029
O O12 0.887453 0.934676 0.291166
O O13 0.034012 0.901765 0.390072
O O14 0.757149 0.032541 0.548980
O O15 0.293487 0.519542 0.186563
#
# Coordination Sequence:
#
# PCOD9295843 Si02
#       7
#     8   8   8   8   8   8   8
#     4  10  24  46  69  97 134 186 230 286 343 428
#     4  12  26  42  67 103 139 176 236 282 348 422
#     4  11  22  41  67 103 134 176 228 289 349 414
#     4  11  24  42  68  98 137 179 231 285 355 409
#     4  10  23  43  70  95 140 179 231 280 356 412
#     4  12  24  41  69 102 137 181 229 295 352 410
#     4  12  24  41  67 101 136 176 228 293 346 416
#
# _framework density 23.843057000000002
#
# number of rings (size 3 to 8) (size 9 to 14) (size 15 to 20)
#    0.000    0.857    2.857    4.714    6.000    1.143 
#    0.000    2.143    0.000    0.000    0.000    0.000 
#    0.000    0.000    0.000    0.000    0.000    0.000 
#
# Total GULP energy -156217.294760 kJ/mol
# GULP energy per Si atom -5579.189099 kJ/mol
# Density = 2.378879 g / cm^3
# Si number density = 23.843057 Si / 1000 Ang^3
#
#
#
# Elastic Constant Matrix: (Units=GPa)
#
#
# Indices 1 2 3 4 5 6 
#
# 1 127.2360 19.6454 12.5865 0.0000 2.3750 0.0000
# 2 19.6454 92.3529 7.8337 0.0000 6.7077 0.0000
# 3 12.5865 7.8337 20.7748 0.0000 11.8582 0.0000
# 4 0.0000 0.0000 0.0000 -9.7550 0.0000 2.8005
# 5 2.3750 6.7077 11.8582 0.0000 23.0649 0.0000
# 6 0.0000 0.0000 0.0000 2.8005 0.0000 4.3347
#
#
#
# Elastic Compliance Matrix: (Units=1/GPa)
#
#
# Indices 1 2 3 4 5 6 
#
# 1 0.008660 -0.001512 -0.006254 0.000000 0.002763 0.000000
# 2 -0.001512 0.011488 -0.002261 0.000000 -0.002023 0.000000
# 3 -0.006254 -0.002261 0.073646 0.000000 -0.036561 0.000000
# 4 0.000000 0.000000 0.000000 -0.086472 0.000000 0.055868
# 5 0.002763 -0.002023 -0.036561 0.000000 0.062457 0.000000
# 6 0.000000 0.000000 0.000000 0.055868 0.000000 0.194603
#
#
# Mechanical properties :
#
#
# Convention : Reuss Voigt Hill
#
# Bulk Modulus (GPa) = 13.56116 35.61052 24.58584
# Shear Modulus (GPa) = 16.18042 16.88214 16.53128
#
# Velocity S-wave (km/s) = 2.60786 2.66381 2.63599
# Velocity P-wave (km/s) = 3.84291 4.94257 4.42702
#
# Compressibility (1/GPa) = 0.07373999
#
# Stress axis : x y z
#
# Youngs Moduli (GPa) = 115.47380 87.04381 13.57852
#
# Poissons Ratio (x) = 0.13165 0.08492
# Poissons Ratio (y) = 0.17464 0.03070
# Poissons Ratio (z) = 0.72213 0.19681
#
# Static dielectric constant tensor:
#      x y z
#    x 2.015910 0.000000 -0.017880 
#    y 0.000000 1.978250 0.000000 
#    z -0.017880 0.000000 2.004750 
# 
# From -- ./inp_files/231572.got.cif
#   From: 2010.05.17/outbox.cif.g08.bks.cpg/sg15_116_cif.got.tgz:231572.got - 2010.06.03 18:47:42.
