data_PCOD9295212
_publ_section_title
;
Structure prediction by ZEFSAII (Michael W. Deem and Ramdas Pophale) SiO2 
 PCOD9295212
Probable space group: C 2/C
;
_chemical_formula_sum "Si O2"
_cell_formula_units_Z 48
_cell_length_a 11.227765
_cell_length_b 21.801819
_cell_length_c 10.038408
_cell_angle_alpha 90.000000
_cell_angle_beta 66.909354
_cell_angle_gamma 90.000000
_cell_volume 2260.396769
_symmetry_space_group_name_H-M "C 2/C"
_symmetry_group_IT_number 15
_symmetry_cell_setting 'monoclinic'
loop_
_space_group_symop_operation_xyz
x,y,z
-x,y,1/2-z
-x,-y,-z
x,-y,1/2+z
1/2+x,1/2+y,z
1/2-x,1/2+y,1/2-z
1/2-x,1/2-y,-z
1/2+x,1/2-y,1/2+z
loop_
_atom_site_type_symbol
_atom_site_label
_atom_site_fract_x
_atom_site_fract_y
_atom_site_fract_z
Si Si1 0.878935 0.830196 0.391661
Si Si2 0.889581 0.709900 0.542304
Si Si3 0.500000 0.130534 0.250000
Si Si4 0.024341 0.071628 0.465290
Si Si5 0.500000 0.838805 0.250000
Si Si6 0.232600 0.569286 0.587072
Si Si7 0.275215 0.952682 0.715502
O O1 0.868534 0.780645 0.514640
O O2 0.747643 0.822463 0.368972
O O3 0.906182 0.896630 0.439661
O O4 0.000000 0.812566 0.250000
O O5 0.944463 0.673449 0.391118
O O6 0.978592 0.701686 0.629498
O O7 0.613769 0.089128 0.265094
O O8 0.131671 0.075990 0.302746
O O9 0.878559 0.096899 0.517323
O O10 0.000000 0.000000 0.500000
O O11 0.376921 0.881728 0.332200
O O12 0.225457 0.516670 0.703403
O O13 0.204847 0.541706 0.451575
#
# Coordination Sequence:
#
# PCOD9295212 Si02
#       7
#     8   8   4   8   4   8   8
#     4  11  23  45  73 100 130 183 230 275 338 411
#     4  11  25  44  71 102 135 175 226 284 341 408
#     4  12  21  44  70  96 133 176 224 280 340 414
#     4  10  23  42  66  98 132 175 223 277 331 399
#     4  12  25  44  64 102 139 172 218 288 342 396
#     4  11  25  41  65  98 136 180 225 280 340 401
#     4  11  24  41  66  97 135 177 228 279 338 408
#
# _framework density 21.235208
#
# number of rings (size 3 to 8) (size 9 to 14) (size 15 to 20)
#    0.000    1.000    4.167    2.000    2.333    6.667 
#    3.000    1.667    0.000    0.000    0.000    0.000 
#    0.000    0.000    0.000    0.000    0.000    0.000 
#
# Total GULP energy -134145.660436 kJ/mol
# GULP energy per Si atom -5589.402518 kJ/mol
# Density = 2.118688 g / cm^3
# Si number density = 21.235208 Si / 1000 Ang^3
#
#
#
# Elastic Constant Matrix: (Units=GPa)
#
#
# Indices 1 2 3 4 5 6 
#
# 1 88.7142 19.7186 15.9852 0.0000 -16.0169 0.0000
# 2 19.7186 56.0061 -4.0373 0.0000 4.0251 0.0000
# 3 15.9852 -4.0373 78.1020 0.0000 5.8539 0.0000
# 4 0.0000 0.0000 0.0000 25.5259 0.0000 -1.4450
# 5 -16.0169 4.0251 5.8539 0.0000 39.9174 0.0000
# 6 0.0000 0.0000 0.0000 -1.4450 0.0000 22.4748
#
#
#
# Elastic Compliance Matrix: (Units=1/GPa)
#
#
# Indices 1 2 3 4 5 6 
#
# 1 0.014526 -0.005890 -0.003801 0.000000 0.006980 0.000000
# 2 -0.005890 0.020464 0.002624 0.000000 -0.004812 0.000000
# 3 -0.003801 0.002624 0.014005 0.000000 -0.003844 0.000000
# 4 0.000000 0.000000 0.000000 0.039319 0.000000 0.002528
# 5 0.006980 -0.004812 -0.003844 0.000000 0.028901 0.000000
# 6 0.000000 0.000000 0.000000 0.002528 0.000000 0.044657
#
#
# Mechanical properties :
#
#
# Convention : Reuss Voigt Hill
#
# Bulk Modulus (GPa) = 28.68448 31.79504 30.23976
# Shear Modulus (GPa) = 26.64858 30.32735 28.48796
#
# Velocity S-wave (km/s) = 3.54633 3.78320 3.66668
# Velocity P-wave (km/s) = 5.50508 5.83856 5.67427
#
# Compressibility (1/GPa) = 0.03486206
#
# Stress axis : x y z
#
# Youngs Moduli (GPa) = 68.84012 48.86638 71.40107
#
# Poissons Ratio (x) = 0.28783 0.27138
# Poissons Ratio (y) = 0.40548 -0.18736
# Poissons Ratio (z) = 0.26165 -0.12823
#
# Static dielectric constant tensor:
#      x y z
#    x 1.805350 0.000000 0.012320 
#    y 0.000000 1.761050 0.000000 
#    z 0.012320 0.000000 1.767700 
# 
# From -- ./inp_files/32560.got.cif
#   From: 2010.05.17/outbox.cif.g08.bks.cpg/sg15_17_cif.got.tgz:32560.got - 2010.06.03 18:47:42.
