data_PCOD9295725
_publ_section_title
;
Structure prediction by ZEFSAII (Michael W. Deem and Ramdas Pophale) SiO2 
 PCOD9295725
Probable space group: C 2/C
;
_chemical_formula_sum "Si O2"
_cell_formula_units_Z 64
_cell_length_a 5.399585
_cell_length_b 26.028774
_cell_length_c 24.463115
_cell_angle_alpha 90.000000
_cell_angle_beta 113.540718
_cell_angle_gamma 90.000000
_cell_volume 3152.022495
_symmetry_space_group_name_H-M "C 2/C"
_symmetry_group_IT_number 15
_symmetry_cell_setting 'monoclinic'
loop_
_space_group_symop_operation_xyz
x,y,z
-x,y,1/2-z
-x,-y,-z
x,-y,1/2+z
1/2+x,1/2+y,z
1/2-x,1/2+y,1/2-z
1/2-x,1/2-y,-z
1/2+x,1/2-y,1/2+z
loop_
_atom_site_type_symbol
_atom_site_label
_atom_site_fract_x
_atom_site_fract_y
_atom_site_fract_z
Si Si1 0.135649 0.049689 0.447680
Si Si2 0.065445 0.420615 0.315363
Si Si3 0.449239 0.339001 0.381136
Si Si4 0.746956 0.664044 0.426959
Si Si5 0.898529 0.237383 0.180379
Si Si6 0.588771 0.988123 0.421825
Si Si7 0.641207 0.694225 0.010063
Si Si8 0.257977 0.319319 0.185899
O O1 0.139753 0.106394 0.423419
O O2 0.329705 0.014725 0.426784
O O3 0.833917 0.027194 0.428233
O O4 0.277260 0.048365 0.520006
O O5 0.357077 0.395030 0.352434
O O6 0.007457 0.458275 0.359891
O O7 0.000000 0.442949 0.250000
O O8 0.905686 0.367039 0.304349
O O9 0.463694 0.330821 0.446105
O O10 0.733716 0.333252 0.377070
O O11 0.292234 0.288862 0.341274
O O12 0.708087 0.691324 0.364984
O O13 0.558024 0.694427 0.454916
O O14 0.073353 0.663873 0.462040
O O15 0.162347 0.261135 0.176213
O O16 0.000000 0.225511 0.250000
O O17 0.750000 0.750000 0.000000
O O18 0.500000 0.319270 0.250000
#
# Coordination Sequence:
#
# PCOD9295725 Si02
#       8
#     8   8   8   8   8   8   8   8
#     4  10  23  45  67  92 118 166 215 263 318 382
#     4  11  23  37  61 101 129 165 209 270 337 394
#     4  11  22  37  60  91 134 169 210 252 323 396
#     4  12  26  44  65  94 133 169 220 268 315 383
#     4  11  23  39  59  88 125 177 215 256 304 378
#     4  10  23  43  68  91 123 158 211 266 328 380
#     4  12  25  40  63  98 135 173 210 267 321 369
#     4  11  20  37  60  91 134 172 212 250 310 403
#
# _framework density 20.304424000000001
#
# number of rings (size 3 to 8) (size 9 to 14) (size 15 to 20)
#    0.000    1.000    3.750    3.375    7.000    1.000 
#    0.000    1.250    0.000    0.000    0.000    0.000 
#    0.000    0.000    0.000    0.000    0.000    0.000 
#
# Total GULP energy -178154.737074 kJ/mol
# GULP energy per Si atom -5567.335534 kJ/mol
# Density = 2.025821 g / cm^3
# Si number density = 20.304424 Si / 1000 Ang^3
#
#
#
# Elastic Constant Matrix: (Units=GPa)
#
#
# Indices 1 2 3 4 5 6 
#
# 1 54.9241 -2.6452 21.6790 0.0000 -5.1993 0.0000
# 2 -2.6452 55.4620 29.8739 0.0000 1.1859 0.0000
# 3 21.6790 29.8739 137.9371 0.0000 -18.4481 0.0000
# 4 0.0000 0.0000 0.0000 159.7033 0.0000 -12.1200
# 5 -5.1993 1.1859 -18.4481 0.0000 20.1123 0.0000
# 6 0.0000 0.0000 0.0000 -12.1200 0.0000 20.9280
#
#
#
# Elastic Compliance Matrix: (Units=1/GPa)
#
#
# Indices 1 2 3 4 5 6 
#
# 1 0.019888 0.002792 -0.003493 0.000000 0.001772 0.000000
# 2 0.002792 0.021458 -0.005880 0.000000 -0.005937 0.000000
# 3 -0.003493 -0.005880 0.010256 0.000000 0.008851 0.000000
# 4 0.000000 0.000000 0.000000 0.006549 0.000000 0.003793
# 5 0.001772 -0.005937 0.008851 0.000000 0.058648 0.000000
# 6 0.000000 0.000000 0.000000 0.003793 0.000000 0.049980
#
#
# Mechanical properties :
#
#
# Convention : Reuss Voigt Hill
#
# Bulk Modulus (GPa) = 26.01500 38.45986 32.23743
# Shear Modulus (GPa) = 25.93979 53.44310 39.69144
#
# Velocity S-wave (km/s) = 3.57815 5.13596 4.42613
# Velocity P-wave (km/s) = 5.46911 7.35890 6.48323
#
# Compressibility (1/GPa) = 0.03843936
#
# Stress axis : x y z
#
# Youngs Moduli (GPa) = 50.28134 46.60321 97.50398
#
# Poissons Ratio (x) = -0.13013 0.34063
# Poissons Ratio (y) = -0.14040 0.57334
# Poissons Ratio (z) = 0.17566 0.27403
#
# Static dielectric constant tensor:
#      x y z
#    x 1.925120 0.000000 -0.857600 
#    y 0.000000 1.735510 0.000000 
#    z -0.857600 0.000000 -4.413670 
# 
# From -- ./inp_files/261831.got.cif
#   From: 2010.05.17/outbox.cif.g08.bks.cpg/sg15_131_cif.got.tgz:261831.got - 2010.06.03 18:47:42.
