data_PCOD9295727
_publ_section_title
;
Structure prediction by ZEFSAII (Michael W. Deem and Ramdas Pophale) SiO2 
 PCOD9295727
Probable space group: C 2/C
;
_chemical_formula_sum "Si O2"
_cell_formula_units_Z 52
_cell_length_a 13.949922
_cell_length_b 14.201114
_cell_length_c 11.109623
_cell_angle_alpha 90.000000
_cell_angle_beta 64.141559
_cell_angle_gamma 90.000000
_cell_volume 1980.502516
_symmetry_space_group_name_H-M "C 2/C"
_symmetry_group_IT_number 15
_symmetry_cell_setting 'monoclinic'
loop_
_space_group_symop_operation_xyz
x,y,z
-x,y,1/2-z
-x,-y,-z
x,-y,1/2+z
1/2+x,1/2+y,z
1/2-x,1/2+y,1/2-z
1/2-x,1/2-y,-z
1/2+x,1/2-y,1/2+z
loop_
_atom_site_type_symbol
_atom_site_label
_atom_site_fract_x
_atom_site_fract_y
_atom_site_fract_z
Si Si1 0.085404 0.241100 0.982559
Si Si2 0.116519 0.786972 0.030017
Si Si3 0.878089 0.424806 0.423269
Si Si4 0.817922 0.612033 0.374900
Si Si5 0.787659 0.029960 0.300477
Si Si6 0.500000 0.377841 0.750000
Si Si7 0.710035 0.831323 0.254127
O O1 0.064343 0.352009 0.020076
O O2 0.059642 0.186650 0.119775
O O3 0.005815 0.196527 0.928434
O O4 0.204874 0.225960 0.871548
O O5 0.197889 0.873106 0.995289
O O6 0.156391 0.731624 0.886461
O O7 0.132838 0.714236 0.129653
O O8 0.897343 0.535618 0.391413
O O9 0.760626 0.436774 0.546002
O O10 0.871783 0.375768 0.297212
O O11 0.787128 0.579760 0.259058
O O12 0.909881 0.061300 0.231652
O O13 0.768315 0.921117 0.280317
#
# Coordination Sequence:
#
# PCOD9295727 Si02
#       7
#     8   8   8   8   8   4   8
#     4  12  25  40  74 105 135 178 248 289 354 422
#     4  11  23  46  70  98 141 186 231 291 355 431
#     4  11  23  43  70 101 132 186 230 295 348 419
#     4  10  23  43  68  93 144 184 221 289 363 409
#     4  11  23  44  70  98 141 177 238 292 356 420
#     4  12  24  42  70 108 136 178 240 304 344 426
#     4  11  24  44  72 100 137 188 230 292 359 418
#
# _framework density 26.255963000000001
#
# number of rings (size 3 to 8) (size 9 to 14) (size 15 to 20)
#    0.000    0.923    4.615    2.308    0.000    2.462 
#    0.000    3.846    6.769    0.000    0.000    0.000 
#    0.000    0.000    0.000    0.000    0.000    0.000 
#
# Total GULP energy -145487.943588 kJ/mol
# GULP energy per Si atom -5595.690138 kJ/mol
# Density = 2.619620 g / cm^3
# Si number density = 26.255963 Si / 1000 Ang^3
#
#
#
# Elastic Constant Matrix: (Units=GPa)
#
#
# Indices 1 2 3 4 5 6 
#
# 1 65.6346 14.3292 3.2087 0.0000 4.3055 0.0000
# 2 14.3292 90.0510 28.3928 0.0000 3.9540 0.0000
# 3 3.2087 28.3928 105.0381 0.0000 -4.5961 0.0000
# 4 0.0000 0.0000 0.0000 28.3765 0.0000 11.3576
# 5 4.3055 3.9540 -4.5961 0.0000 42.0456 0.0000
# 6 0.0000 0.0000 0.0000 11.3576 0.0000 36.2196
#
#
#
# Elastic Compliance Matrix: (Units=1/GPa)
#
#
# Indices 1 2 3 4 5 6 
#
# 1 0.015867 -0.002506 0.000133 0.000000 -0.001375 0.000000
# 2 -0.002506 0.012631 -0.003395 0.000000 -0.001302 0.000000
# 3 0.000133 -0.003395 0.010498 0.000000 0.001453 0.000000
# 4 0.000000 0.000000 0.000000 0.040298 0.000000 -0.012637
# 5 -0.001375 -0.001302 0.001453 0.000000 0.024206 0.000000
# 6 0.000000 0.000000 0.000000 -0.012637 0.000000 0.031572
#
#
# Mechanical properties :
#
#
# Convention : Reuss Voigt Hill
#
# Bulk Modulus (GPa) = 36.41838 39.17614 37.79726
# Shear Modulus (GPa) = 32.10048 35.64786 33.87417
#
# Velocity S-wave (km/s) = 3.50036 3.68870 3.59576
# Velocity P-wave (km/s) = 5.49885 5.75285 5.62728
#
# Compressibility (1/GPa) = 0.02745866
#
# Stress axis : x y z
#
# Youngs Moduli (GPa) = 63.02507 79.16930 95.26055
#
# Poissons Ratio (x) = 0.19842 -0.01263
# Poissons Ratio (y) = 0.15795 0.32339
# Poissons Ratio (z) = -0.00836 0.26876
#
# Static dielectric constant tensor:
#      x y z
#    x 2.042770 0.000000 0.009080 
#    y 0.000000 2.065350 0.000000 
#    z 0.009080 0.000000 2.079930 
# 
# From -- ./inp_files/96979.got.cif
#   From: 2010.05.17/outbox.cif.g08.bks.cpg/sg15_49_cif.got.tgz:96979.got - 2010.06.03 18:47:42.
