data_PCOD9295898
_publ_section_title
;
Structure prediction by ZEFSAII (Michael W. Deem and Ramdas Pophale) SiO2 
 PCOD9295898
Probable space group: C 2/C
;
_chemical_formula_sum "Si O2"
_cell_formula_units_Z 60
_cell_length_a 8.528950
_cell_length_b 24.210555
_cell_length_c 14.160807
_cell_angle_alpha 90.000000
_cell_angle_beta 70.711254
_cell_angle_gamma 90.000000
_cell_volume 2759.933334
_symmetry_space_group_name_H-M "C 2/C"
_symmetry_group_IT_number 15
_symmetry_cell_setting 'monoclinic'
loop_
_space_group_symop_operation_xyz
x,y,z
-x,y,1/2-z
-x,-y,-z
x,-y,1/2+z
1/2+x,1/2+y,z
1/2-x,1/2+y,1/2-z
1/2-x,1/2-y,-z
1/2+x,1/2-y,1/2+z
loop_
_atom_site_type_symbol
_atom_site_label
_atom_site_fract_x
_atom_site_fract_y
_atom_site_fract_z
Si Si1 0.500000 0.863551 0.750000
Si Si2 0.428061 0.374489 0.132864
Si Si3 0.837558 0.920274 0.962913
Si Si4 0.927124 0.229675 0.003720
Si Si5 0.630771 0.108797 0.809721
Si Si6 0.034307 0.348024 0.964187
Si Si7 0.148636 0.974889 0.155755
Si Si8 0.890229 0.149064 0.178326
O O1 0.459420 0.858615 0.875187
O O2 0.301130 0.864496 0.766611
O O3 0.297979 0.360464 0.240797
O O4 0.567500 0.418798 0.132407
O O5 0.322710 0.408549 0.076095
O O6 0.503357 0.319720 0.074066
O O7 0.706983 0.879853 0.940149
O O8 0.020941 0.900151 0.897566
O O9 0.808099 0.981845 0.933340
O O10 0.905648 0.204073 0.111646
O O11 0.750000 0.250000 0.000000
O O12 0.047499 0.282188 0.974524
O O13 0.500000 0.113288 0.750000
O O14 0.694059 0.045735 0.815361
O O15 0.568654 0.131131 0.923111
O O16 0.000000 0.999336 0.250000
O O17 0.000000 0.155701 0.250000
#
# Coordination Sequence:
#
# PCOD9295898 Si02
#       8
#     4   8   8   8   8   8   8   8
#     4  12  26  48  70 110 146 196 254 308 384 442
#     4  10  23  46  73 102 147 195 249 307 374 455
#     4  11  23  45  73 106 146 190 253 308 377 452
#     4  11  24  45  73 108 143 198 254 306 380 451
#     4  11  24  48  69 110 154 192 250 302 374 464
#     4  12  26  46  72 107 152 194 250 312 377 449
#     4  10  23  43  72 103 144 201 243 304 383 445
#     4  11  24  45  72 105 152 191 250 318 373 456
#
# _framework density 21.739656
#
# number of rings (size 3 to 8) (size 9 to 14) (size 15 to 20)
#    0.000    1.067    4.000    1.600    1.867    4.267 
#    4.800    0.000    0.000    0.000    0.000    0.000 
#    0.000    0.000    0.000    0.000    0.000    0.000 
#
# Total GULP energy -167065.163788 kJ/mol
# GULP energy per Si atom -5568.838793 kJ/mol
# Density = 2.169018 g / cm^3
# Si number density = 21.739656 Si / 1000 Ang^3
#
#
#
# Elastic Constant Matrix: (Units=GPa)
#
#
# Indices 1 2 3 4 5 6 
#
# 1 135.5502 44.1550 61.7944 0.0000 12.8587 0.0000
# 2 44.1550 76.7796 34.2158 0.0000 -11.8949 0.0000
# 3 61.7944 34.2158 160.5082 0.0000 8.7414 0.0000
# 4 0.0000 0.0000 0.0000 33.2238 0.0000 11.4881
# 5 12.8587 -11.8949 8.7414 0.0000 53.1865 0.0000
# 6 0.0000 0.0000 0.0000 11.4881 0.0000 20.3933
#
#
#
# Elastic Compliance Matrix: (Units=1/GPa)
#
#
# Indices 1 2 3 4 5 6 
#
# 1 0.010746 -0.005457 -0.002791 0.000000 -0.003360 0.000000
# 2 -0.005457 0.017946 -0.002034 0.000000 0.005667 0.000000
# 3 -0.002791 -0.002034 0.007796 0.000000 -0.001061 0.000000
# 4 0.000000 0.000000 0.000000 0.037380 0.000000 -0.021057
# 5 -0.003360 0.005667 -0.001061 0.000000 0.021056 0.000000
# 6 0.000000 0.000000 0.000000 -0.021057 0.000000 0.060898
#
#
# Mechanical properties :
#
#
# Convention : Reuss Voigt Hill
#
# Bulk Modulus (GPa) = 62.78955 72.57427 67.68191
# Shear Modulus (GPa) = 27.51896 36.87224 32.19560
#
# Velocity S-wave (km/s) = 3.56173 4.12282 3.85250
# Velocity P-wave (km/s) = 6.77198 7.49129 7.14070
#
# Compressibility (1/GPa) = 0.01592622
#
# Stress axis : x y z
#
# Youngs Moduli (GPa) = 93.05957 55.72126 128.27095
#
# Poissons Ratio (x) = 0.30404 0.35799
# Poissons Ratio (y) = 0.50778 0.26085
# Poissons Ratio (z) = 0.25972 0.11331
#
# Static dielectric constant tensor:
#      x y z
#    x 1.918370 0.000000 -0.001480 
#    y 0.000000 1.769090 0.000000 
#    z -0.001480 0.000000 1.863060 
# 
# From -- ./inp_files/137801.got.cif
#   From: 2010.05.17/outbox.cif.g08.bks.cpg/sg15_69_cif.got.tgz:137801.got - 2010.06.03 18:47:42.
