data_PCOD9295776
_publ_section_title
;
Structure prediction by ZEFSAII (Michael W. Deem and Ramdas Pophale) SiO2 
 PCOD9295776
Probable space group: C 2/C
;
_chemical_formula_sum "Si O2"
_cell_formula_units_Z 56
_cell_length_a 13.483003
_cell_length_b 17.051520
_cell_length_c 10.939159
_cell_angle_alpha 90.000000
_cell_angle_beta 120.557966
_cell_angle_gamma 90.000000
_cell_volume 2165.683274
_symmetry_space_group_name_H-M "C 2/C"
_symmetry_group_IT_number 15
_symmetry_cell_setting 'monoclinic'
loop_
_space_group_symop_operation_xyz
x,y,z
-x,y,1/2-z
-x,-y,-z
x,-y,1/2+z
1/2+x,1/2+y,z
1/2-x,1/2+y,1/2-z
1/2-x,1/2-y,-z
1/2+x,1/2-y,1/2+z
loop_
_atom_site_type_symbol
_atom_site_label
_atom_site_fract_x
_atom_site_fract_y
_atom_site_fract_z
Si Si1 0.779796 0.032801 0.826358
Si Si2 0.611024 0.321591 0.218732
Si Si3 0.068323 0.428497 0.601314
Si Si4 0.866969 0.680511 0.063371
Si Si5 0.131477 0.116180 0.038780
Si Si6 0.315696 0.745076 0.260901
Si Si7 0.617103 0.864574 0.379653
O O1 0.678694 0.971862 0.726427
O O2 0.873698 0.976102 0.944119
O O3 0.823174 0.092740 0.747985
O O4 0.723252 0.086535 0.894410
O O5 0.749840 0.360970 0.539081
O O6 0.515269 0.350622 0.403109
O O7 0.682928 0.270820 0.166066
O O8 0.109594 0.373249 0.517651
O O9 0.000000 0.500000 0.500000
O O10 0.974615 0.378107 0.617495
O O11 0.882798 0.753261 0.169590
O O12 0.851021 0.710784 0.912688
O O13 0.149351 0.158364 0.180981
O O14 0.374313 0.780406 0.179110
O O15 0.500000 0.900934 0.250000
#
# Coordination Sequence:
#
# PCOD9295776 Si02
#       7
#     8   8   8   8   8   8   8
#     4  11  25  43  74 114 155 203 254 310 400 467
#     4  10  23  46  70 108 159 203 247 320 389 470
#     4  12  23  41  73 116 154 194 250 328 386 460
#     4  11  24  41  72 114 153 196 261 322 385 461
#     4  11  24  42  73 108 151 201 257 315 385 469
#     4  10  23  43  69 107 142 197 257 312 382 456
#     4  11  21  44  71 104 152 191 239 315 388 451
#
# _framework density 25.857890000000001
#
# number of rings (size 3 to 8) (size 9 to 14) (size 15 to 20)
#    0.000    1.143    2.857    3.857    0.000    8.000 
#    0.000    0.714    3.143    5.143    0.000    1.000 
#    0.000    0.000    0.000    0.000    0.000    0.000 
#
# Total GULP energy -156210.852109 kJ/mol
# GULP energy per Si atom -5578.959004 kJ/mol
# Density = 2.579904 g / cm^3
# Si number density = 25.857890 Si / 1000 Ang^3
#
#
#
# Elastic Constant Matrix: (Units=GPa)
#
#
# Indices 1 2 3 4 5 6 
#
# 1 164.4944 77.7412 56.6759 0.0000 -1.5989 0.0000
# 2 77.7412 170.1098 59.0330 0.0000 1.2527 0.0000
# 3 56.6759 59.0330 85.5563 0.0000 -0.3650 0.0000
# 4 0.0000 0.0000 0.0000 49.2877 0.0000 -1.7150
# 5 -1.5989 1.2527 -0.3650 0.0000 32.4884 0.0000
# 6 0.0000 0.0000 0.0000 -1.7150 0.0000 38.2409
#
#
#
# Elastic Compliance Matrix: (Units=1/GPa)
#
#
# Indices 1 2 3 4 5 6 
#
# 1 0.008672 -0.002595 -0.003952 0.000000 0.000482 0.000000
# 2 -0.002595 0.008510 -0.004155 0.000000 -0.000503 0.000000
# 3 -0.003952 -0.004155 0.017174 0.000000 0.000159 0.000000
# 4 0.000000 0.000000 0.000000 0.020321 0.000000 0.000911
# 5 0.000482 -0.000503 0.000159 0.000000 0.030825 0.000000
# 6 0.000000 0.000000 0.000000 0.000911 0.000000 0.026191
#
#
# Mechanical properties :
#
#
# Convention : Reuss Voigt Hill
#
# Bulk Modulus (GPa) = 77.21003 89.67340 83.44172
# Shear Modulus (GPa) = 36.38637 39.11743 37.75190
#
# Velocity S-wave (km/s) = 3.75529 3.89367 3.82511
# Velocity P-wave (km/s) = 6.98048 7.41410 7.20056
#
# Compressibility (1/GPa) = 0.01295169
#
# Stress axis : x y z
#
# Youngs Moduli (GPa) = 115.31208 117.50629 58.22891
#
# Poissons Ratio (x) = 0.30497 0.23012
# Poissons Ratio (y) = 0.29927 0.24193
# Poissons Ratio (z) = 0.45571 0.48822
#
# Static dielectric constant tensor:
#      x y z
#    x 2.220780 0.000000 0.074350 
#    y 0.000000 2.065850 0.000000 
#    z 0.074350 0.000000 2.169480 
# 
# From -- ./inp_files/161692.got.cif
#   From: 2010.05.17/outbox.cif.g08.bks.cpg/sg15_81_cif.got.tgz:161692.got - 2010.06.03 18:47:42.
