data_PCOD9295378
_publ_section_title
;
Structure prediction by ZEFSAII (Michael W. Deem and Ramdas Pophale) SiO2 
 PCOD9295378
Probable space group: C 2/C
;
_chemical_formula_sum "Si O2"
_cell_formula_units_Z 36
_cell_length_a 5.323775
_cell_length_b 19.144504
_cell_length_c 14.948589
_cell_angle_alpha 90.000000
_cell_angle_beta 72.617813
_cell_angle_gamma 90.000000
_cell_volume 1453.998872
_symmetry_space_group_name_H-M "C 2/C"
_symmetry_group_IT_number 15
_symmetry_cell_setting 'monoclinic'
loop_
_space_group_symop_operation_xyz
x,y,z
-x,y,1/2-z
-x,-y,-z
x,-y,1/2+z
1/2+x,1/2+y,z
1/2-x,1/2+y,1/2-z
1/2-x,1/2-y,-z
1/2+x,1/2-y,1/2+z
loop_
_atom_site_type_symbol
_atom_site_label
_atom_site_fract_x
_atom_site_fract_y
_atom_site_fract_z
Si Si1 0.557218 0.205345 0.917211
Si Si2 0.605558 0.932595 0.137393
Si Si3 0.717231 0.831116 0.892212
Si Si4 0.393500 0.510542 0.363676
Si Si5 0.000000 0.254450 0.750000
O O1 0.366357 0.147739 0.892352
O O2 0.431777 0.280555 0.913379
O O3 0.825268 0.206085 0.833102
O O4 0.547143 0.184575 0.022048
O O5 0.500000 0.935119 0.250000
O O6 0.368568 0.964053 0.104176
O O7 0.869252 0.977798 0.104699
O O8 0.668501 0.804835 0.796749
O O9 0.810056 0.910124 0.890498
O O10 0.500000 0.509274 0.250000
#
# Coordination Sequence:
#
# PCOD9295378 Si02
#       5
#     8   8   8   8   4
#     4  11  26  45  71 105 141 189 245 301 364 438
#     4  10  23  42  70 105 142 192 239 292 361 428
#     4  11  26  45  71 105 141 189 245 301 364 438
#     4  10  23  42  70 105 142 192 239 292 361 428
#     4  12  24  44  76 104 144 192 242 308 366 446
#
# _framework density 24.759305999999999
#
# number of rings (size 3 to 8) (size 9 to 14) (size 15 to 20)
#    0.000    1.333    0.000    4.000   15.556    1.778 
#    0.000    0.000    0.000    0.000    0.000    0.000 
#    0.000    0.000    0.000    0.000    0.000    0.000 
#
# Total GULP energy -100870.830649 kJ/mol
# GULP energy per Si atom -5603.935036 kJ/mol
# Density = 2.470295 g / cm^3
# Si number density = 24.759306 Si / 1000 Ang^3
#
#
#
# Elastic Constant Matrix: (Units=GPa)
#
#
# Indices 1 2 3 4 5 6 
#
# 1 124.7814 55.4337 31.9183 0.0000 -6.4716 0.0000
# 2 55.4337 145.1150 16.3488 0.0000 -7.5680 0.0000
# 3 31.9183 16.3488 115.6139 0.0000 -22.2424 0.0000
# 4 0.0000 0.0000 0.0000 -43.9613 0.0000 9.9547
# 5 -6.4716 -7.5680 -22.2424 0.0000 24.2050 0.0000
# 6 0.0000 0.0000 0.0000 9.9547 0.0000 25.1862
#
#
#
# Elastic Compliance Matrix: (Units=1/GPa)
#
#
# Indices 1 2 3 4 5 6 
#
# 1 0.010232 -0.003668 -0.002430 0.000000 -0.000644 0.000000
# 2 -0.003668 0.008366 0.000175 0.000000 0.001796 0.000000
# 3 -0.002430 0.000175 0.011153 0.000000 0.009654 0.000000
# 4 0.000000 0.000000 0.000000 -0.020879 0.000000 0.008252
# 5 -0.000644 0.001796 0.009654 0.000000 0.050574 0.000000
# 6 0.000000 0.000000 0.000000 0.008252 0.000000 0.036443
#
#
# Mechanical properties :
#
#
# Convention : Reuss Voigt Hill
#
# Bulk Modulus (GPa) = 55.85143 65.87909 60.86526
# Shear Modulus (GPa) = 43.97404 19.87327 31.92366
#
# Velocity S-wave (km/s) = 4.21891 2.83620 3.59466
# Velocity P-wave (km/s) = 6.80727 6.11481 6.47031
#
# Compressibility (1/GPa) = 0.01790464
#
# Stress axis : x y z
#
# Youngs Moduli (GPa) = 97.73414 119.52675 89.66394
#
# Poissons Ratio (x) = 0.43847 0.21788
# Poissons Ratio (y) = 0.35853 -0.01571
# Poissons Ratio (z) = 0.23749 -0.02094
#
# Static dielectric constant tensor:
#      x y z
#    x 1.963440 0.000000 -0.017990 
#    y 0.000000 1.879970 0.000000 
#    z -0.017990 0.000000 2.040920 
# 
# From -- ./inp_files/184188.got.cif
#   From: 2010.05.17/outbox.cif.g08.bks.cpg/sg15_93_cif.got.tgz:184188.got - 2010.06.03 18:47:42.
