data_PCOD9295999
_publ_section_title
;
Structure prediction by ZEFSAII (Michael W. Deem and Ramdas Pophale) SiO2 
 PCOD9295999
Probable space group: C 2/C
;
_chemical_formula_sum "Si O2"
_cell_formula_units_Z 32
_cell_length_a 7.557795
_cell_length_b 33.763334
_cell_length_c 5.561008
_cell_angle_alpha 90.000000
_cell_angle_beta 101.879125
_cell_angle_gamma 90.000000
_cell_volume 1388.647718
_symmetry_space_group_name_H-M "C 2/C"
_symmetry_group_IT_number 15
_symmetry_cell_setting 'monoclinic'
loop_
_space_group_symop_operation_xyz
x,y,z
-x,y,1/2-z
-x,-y,-z
x,-y,1/2+z
1/2+x,1/2+y,z
1/2-x,1/2+y,1/2-z
1/2-x,1/2-y,-z
1/2+x,1/2-y,1/2+z
loop_
_atom_site_type_symbol
_atom_site_label
_atom_site_fract_x
_atom_site_fract_y
_atom_site_fract_z
Si Si1 0.784511 0.017543 0.147717
Si Si2 0.000000 0.668307 0.750000
Si Si3 0.169055 0.783401 0.149153
Si Si4 0.000000 0.847546 0.750000
Si Si5 0.826730 0.603621 0.353774
O O1 0.746464 0.062766 0.059475
O O2 0.000000 0.011885 0.250000
O O3 0.715243 0.008229 0.400653
O O4 0.155749 0.696237 0.677931
O O5 0.902220 0.638330 0.543378
O O6 0.000000 0.766846 0.250000
O O7 0.250000 0.750000 0.000000
O O8 0.078308 0.818540 0.971719
O O9 0.154669 0.875586 0.681493
O O10 0.000000 0.592300 0.250000
#
# Coordination Sequence:
#
# PCOD9295999 Si02
#       5
#     8   4   8   4   8
#     4  10  23  44  69 101 140 188 238 290 355 423
#     4  10  25  42  62 102 132 174 232 286 350 416
#     4  11  24  43  69  97 135 178 226 285 350 424
#     4  10  23  44  64  96 134 178 222 280 350 408
#     4  11  23  41  67  95 134 179 229 286 344 416
#
# _framework density 23.044001000000002
#
# number of rings (size 3 to 8) (size 9 to 14) (size 15 to 20)
#    0.000    1.500    1.250    2.250    3.500    9.000 
#    0.000    0.000    0.000    0.000    0.000    0.000 
#    0.000    0.000    0.000    0.000    0.000    0.000 
#
# Total GULP energy -89247.826538 kJ/mol
# GULP energy per Si atom -5577.989159 kJ/mol
# Density = 2.299155 g / cm^3
# Si number density = 23.044001 Si / 1000 Ang^3
#
#
#
# Elastic Constant Matrix: (Units=GPa)
#
#
# Indices 1 2 3 4 5 6 
#
# 1 120.5334 45.9583 44.3210 0.0000 6.9238 0.0000
# 2 45.9583 121.9158 33.0525 0.0000 11.1199 0.0000
# 3 44.3210 33.0525 63.4212 0.0000 4.5756 0.0000
# 4 0.0000 0.0000 0.0000 41.8177 0.0000 19.3409
# 5 6.9238 11.1199 4.5756 0.0000 30.4749 0.0000
# 6 0.0000 0.0000 0.0000 19.3409 0.0000 53.9780
#
#
#
# Elastic Compliance Matrix: (Units=1/GPa)
#
#
# Indices 1 2 3 4 5 6 
#
# 1 0.011840 -0.002524 -0.006906 0.000000 -0.000732 0.000000
# 2 -0.002524 0.010327 -0.003424 0.000000 -0.002680 0.000000
# 3 -0.006906 -0.003424 0.022418 0.000000 -0.000547 0.000000
# 4 0.000000 0.000000 0.000000 0.028663 0.000000 -0.010270
# 5 -0.000732 -0.002680 -0.000547 0.000000 0.034040 0.000000
# 6 0.000000 0.000000 0.000000 -0.010270 0.000000 0.022206
#
#
# Mechanical properties :
#
#
# Convention : Reuss Voigt Hill
#
# Bulk Modulus (GPa) = 52.97875 61.39265 57.18570
# Shear Modulus (GPa) = 30.96034 37.42336 34.19185
#
# Velocity S-wave (km/s) = 3.66940 4.03426 3.85614
# Velocity P-wave (km/s) = 6.40256 6.95698 6.68552
#
# Compressibility (1/GPa) = 0.01887549
#
# Stress axis : x y z
#
# Youngs Moduli (GPa) = 84.45620 96.83478 44.60700
#
# Poissons Ratio (x) = 0.24445 0.30806
# Poissons Ratio (y) = 0.21320 0.15275
# Poissons Ratio (z) = 0.58326 0.33160
#
# Static dielectric constant tensor:
#      x y z
#    x 1.957810 0.000000 -0.011860 
#    y 0.000000 1.833310 0.000000 
#    z -0.011860 0.000000 1.918780 
# 
# From -- ./inp_files/2731.got.cif
#   From: 2010.05.17/outbox.cif.g08.bks.cpg/sg15_2_cif.got.tgz:2731.got - 2010.06.03 18:47:42.
