data_PCOD9295248
_publ_section_title
;
Structure prediction by ZEFSAII (Michael W. Deem and Ramdas Pophale) SiO2 
 PCOD9295248
Probable space group: C 2/C
;
_chemical_formula_sum "Si O2"
_cell_formula_units_Z 28
_cell_length_a 20.769209
_cell_length_b 12.449908
_cell_length_c 9.302802
_cell_angle_alpha 90.000000
_cell_angle_beta 30.650372
_cell_angle_gamma 90.000000
_cell_volume 1226.303473
_symmetry_space_group_name_H-M "C 2/C"
_symmetry_group_IT_number 15
_symmetry_cell_setting 'monoclinic'
loop_
_space_group_symop_operation_xyz
x,y,z
-x,y,1/2-z
-x,-y,-z
x,-y,1/2+z
1/2+x,1/2+y,z
1/2-x,1/2+y,1/2-z
1/2-x,1/2-y,-z
1/2+x,1/2-y,1/2+z
loop_
_atom_site_type_symbol
_atom_site_label
_atom_site_fract_x
_atom_site_fract_y
_atom_site_fract_z
Si Si1 0.500000 0.848263 0.250000
Si Si2 0.126916 0.027329 0.338246
Si Si3 0.198589 0.474649 0.265600
Si Si4 0.609103 0.762748 0.330366
O O1 0.526785 0.781015 0.344133
O O2 0.382217 0.926267 0.517380
O O3 0.098555 0.151126 0.433710
O O4 0.175531 0.960814 0.380399
O O5 0.244117 0.010592 0.003008
O O6 0.000000 0.000000 0.500000
O O7 0.111346 0.369522 0.421718
O O8 0.750000 0.750000 0.000000
#
# Coordination Sequence:
#
# PCOD9295248 Si02
#       4
#     4   8   8   8
#     4  12  22  44  70  96 132 174 226 270 320 408
#     4  11  25  44  67  96 136 173 219 272 328 392
#     4  11  23  44  66  97 130 173 221 267 330 391
#     4  10  23  42  67  94 132 178 208 269 345 374
#
# _framework density 22.832849
#
# number of rings (size 3 to 8) (size 9 to 14) (size 15 to 20)
#    0.000    1.143    5.714    1.714    8.000    0.000 
#    5.143    2.857    0.000    0.000    0.000    0.000 
#    0.000    0.000    0.000    0.000    0.000    0.000 
#
# Total GULP energy -78086.804504 kJ/mol
# GULP energy per Si atom -5577.628893 kJ/mol
# Density = 2.278088 g / cm^3
# Si number density = 22.832849 Si / 1000 Ang^3
#
#
#
# Elastic Constant Matrix: (Units=GPa)
#
#
# Indices 1 2 3 4 5 6 
#
# 1 157.4479 23.5281 -9.1797 0.0000 0.5069 0.0000
# 2 23.5281 37.9504 -4.4418 0.0000 9.6244 0.0000
# 3 -9.1797 -4.4418 80.9478 0.0000 4.7721 0.0000
# 4 0.0000 0.0000 0.0000 3.9214 0.0000 -8.0226
# 5 0.5069 9.6244 4.7721 0.0000 32.8702 0.0000
# 6 0.0000 0.0000 0.0000 -8.0226 0.0000 37.9296
#
#
#
# Elastic Compliance Matrix: (Units=1/GPa)
#
#
# Indices 1 2 3 4 5 6 
#
# 1 0.007066 -0.004623 0.000478 0.000000 0.001175 0.000000
# 2 -0.004623 0.031837 0.001783 0.000000 -0.009509 0.000000
# 3 0.000478 0.001783 0.012645 0.000000 -0.002365 0.000000
# 4 0.000000 0.000000 0.000000 0.449537 0.000000 0.095083
# 5 0.001175 -0.009509 -0.002365 0.000000 0.033532 0.000000
# 6 0.000000 0.000000 0.000000 0.095083 0.000000 0.046476
#
#
# Mechanical properties :
#
#
# Convention : Reuss Voigt Hill
#
# Bulk Modulus (GPa) = 21.35583 32.90659 27.13121
# Shear Modulus (GPa) = 8.31359 32.70687 20.51023
#
# Velocity S-wave (km/s) = 1.91023 3.78888 3.00038
# Velocity P-wave (km/s) = 3.77342 5.79517 4.88992
#
# Compressibility (1/GPa) = 0.04682563
#
# Stress axis : x y z
#
# Youngs Moduli (GPa) = 141.51811 31.41036 79.08149
#
# Poissons Ratio (x) = 0.14521 -0.03783
# Poissons Ratio (y) = 0.65422 -0.14103
# Poissons Ratio (z) = -0.06770 -0.05601
#
# Static dielectric constant tensor:
#      x y z
#    x 1.843610 0.000000 -0.033910 
#    y 0.000000 1.985430 0.000000 
#    z -0.033910 0.000000 1.836790 
# 
# From -- ./inp_files/27263.got.cif
#   From: 2010.05.17/outbox.cif.g08.bks.cpg/sg15_14_cif.got.tgz:27263.got - 2010.06.03 18:47:42.
