data_PCOD9295901
_publ_section_title
;
Structure prediction by ZEFSAII (Michael W. Deem and Ramdas Pophale) SiO2 
 PCOD9295901
Probable space group: C 2/C
;
_chemical_formula_sum "Si O2"
_cell_formula_units_Z 52
_cell_length_a 30.520998
_cell_length_b 10.077097
_cell_length_c 12.446848
_cell_angle_alpha 90.000000
_cell_angle_beta 37.227691
_cell_angle_gamma 90.000000
_cell_volume 2315.994102
_symmetry_space_group_name_H-M "C 2/C"
_symmetry_group_IT_number 15
_symmetry_cell_setting 'monoclinic'
loop_
_space_group_symop_operation_xyz
x,y,z
-x,y,1/2-z
-x,-y,-z
x,-y,1/2+z
1/2+x,1/2+y,z
1/2-x,1/2+y,1/2-z
1/2-x,1/2-y,-z
1/2+x,1/2-y,1/2+z
loop_
_atom_site_type_symbol
_atom_site_label
_atom_site_fract_x
_atom_site_fract_y
_atom_site_fract_z
Si Si1 0.429879 0.030954 0.711398
Si Si2 0.782529 0.833312 0.692349
Si Si3 0.032010 0.856806 0.467579
Si Si4 0.826500 0.033399 0.895591
Si Si5 0.500000 0.780001 0.250000
Si Si6 0.384385 0.266876 0.689293
Si Si7 0.792507 0.568437 0.547974
O O1 0.452072 0.120667 0.770603
O O2 0.373408 0.118744 0.751451
O O3 0.500000 0.000000 0.500000
O O4 0.378021 0.915128 0.856576
O O5 0.815961 0.928809 0.537830
O O6 0.843836 0.798493 0.659654
O O7 0.763550 0.693338 0.673868
O O8 0.721673 0.926882 0.864955
O O9 0.113275 0.868355 0.270416
O O10 0.031572 0.813479 0.593425
O O11 0.971936 0.772113 0.521113
O O12 0.000000 0.000000 0.500000
O O13 0.754879 0.060117 0.967051
O O14 0.853844 0.881770 0.827579
#
# Coordination Sequence:
#
# PCOD9295901 Si02
#       7
#     8   8   8   8   4   8   8
#     4  11  27  46  72 100 147 194 253 302 364 444
#     4  11  26  44  72 106 144 191 238 301 374 432
#     4   9  20  40  68 105 140 183 234 296 358 440
#     4  10  23  43  72 104 142 187 241 302 359 441
#     4  10  24  42  70 100 146 196 236 306 380 416
#     4   9  23  43  69 102 141 186 242 297 360 427
#     4  11  28  44  72 105 143 193 241 301 363 450
#
# _framework density 22.452562
#
# number of rings (size 3 to 8) (size 9 to 14) (size 15 to 20)
#    0.000    1.846    0.000    0.462   12.923   11.692 
#    0.000    0.000    0.000    0.000    0.000    0.000 
#    0.000    0.000    0.000    0.000    0.000    0.000 
#
# Total GULP energy -144969.004395 kJ/mol
# GULP energy per Si atom -5575.730938 kJ/mol
# Density = 2.240146 g / cm^3
# Si number density = 22.452562 Si / 1000 Ang^3
#
#
#
# Elastic Constant Matrix: (Units=GPa)
#
#
# Indices 1 2 3 4 5 6 
#
# 1 102.0541 34.2040 51.9556 0.0000 5.2124 0.0000
# 2 34.2040 114.9028 22.4871 0.0000 3.0811 0.0000
# 3 51.9556 22.4871 119.7935 0.0000 -7.5084 0.0000
# 4 0.0000 0.0000 0.0000 33.4322 0.0000 3.2669
# 5 5.2124 3.0811 -7.5084 0.0000 26.5871 0.0000
# 6 0.0000 0.0000 0.0000 3.2669 0.0000 36.7938
#
#
#
# Elastic Compliance Matrix: (Units=1/GPa)
#
#
# Indices 1 2 3 4 5 6 
#
# 1 0.013896 -0.002907 -0.005732 0.000000 -0.004006 0.000000
# 2 -0.002907 0.009707 -0.000607 0.000000 -0.000726 0.000000
# 3 -0.005732 -0.000607 0.011221 0.000000 0.004363 0.000000
# 4 0.000000 0.000000 0.000000 0.030173 0.000000 -0.002679
# 5 -0.004006 -0.000726 0.004363 0.000000 0.039714 0.000000
# 6 0.000000 0.000000 0.000000 -0.002679 0.000000 0.027416
#
#
# Mechanical properties :
#
#
# Convention : Reuss Voigt Hill
#
# Bulk Modulus (GPa) = 61.23144 61.56041 61.39593
# Shear Modulus (GPa) = 32.03828 34.56953 33.30391
#
# Velocity S-wave (km/s) = 3.78157 3.92812 3.85554
# Velocity P-wave (km/s) = 6.81159 6.93188 6.87200
#
# Compressibility (1/GPa) = 0.01633148
#
# Stress axis : x y z
#
# Youngs Moduli (GPa) = 71.96328 103.02220 89.11746
#
# Poissons Ratio (x) = 0.29951 0.51084
# Poissons Ratio (y) = 0.20922 0.05407
# Poissons Ratio (z) = 0.41251 0.06250
#
# Static dielectric constant tensor:
#      x y z
#    x 1.795530 0.000000 0.014390 
#    y 0.000000 1.930160 0.000000 
#    z 0.014390 0.000000 1.899920 
# 
# From -- ./inp_files/126415.got.cif
#   From: 2010.05.17/outbox.cif.g08.bks.cpg/sg15_64_cif.got.tgz:126415.got - 2010.06.03 18:47:42.
