data_PCOD9295567
_publ_section_title
;
Structure prediction by ZEFSAII (Michael W. Deem and Ramdas Pophale) SiO2 
 PCOD9295567
Probable space group: C 2/C
;
_chemical_formula_sum "Si O2"
_cell_formula_units_Z 48
_cell_length_a 25.405167
_cell_length_b 15.188348
_cell_length_c 9.875294
_cell_angle_alpha 90.000000
_cell_angle_beta 151.847530
_cell_angle_gamma 90.000000
_cell_volume 1797.870991
_symmetry_space_group_name_H-M "C 2/C"
_symmetry_group_IT_number 15
_symmetry_cell_setting 'monoclinic'
loop_
_space_group_symop_operation_xyz
x,y,z
-x,y,1/2-z
-x,-y,-z
x,-y,1/2+z
1/2+x,1/2+y,z
1/2-x,1/2+y,1/2-z
1/2-x,1/2-y,-z
1/2+x,1/2-y,1/2+z
loop_
_atom_site_type_symbol
_atom_site_label
_atom_site_fract_x
_atom_site_fract_y
_atom_site_fract_z
Si Si1 0.106580 0.979853 0.591842
Si Si2 0.335843 0.948323 0.955447
Si Si3 0.243650 0.220485 0.139422
Si Si4 0.835397 0.636870 0.883210
Si Si5 0.469122 0.348125 0.438557
Si Si6 0.017206 0.341528 0.030534
O O1 0.225979 0.960222 0.799377
O O2 0.000000 0.976572 0.250000
O O3 0.074476 0.905070 0.628484
O O4 0.100570 0.079369 0.635678
O O5 0.322802 0.860817 0.839229
O O6 0.327719 0.033313 0.842797
O O7 0.443002 0.922752 0.287973
O O8 0.261748 0.300422 0.283414
O O9 0.250000 0.250000 0.000000
O O10 0.117857 0.181527 0.877207
O O11 0.887045 0.676821 0.865185
O O12 0.914551 0.635822 0.198079
O O13 0.498412 0.251985 0.562541
#
# Coordination Sequence:
#
# PCOD9295567 Si02
#       6
#     8   8   8   8   8   8
#     4  11  23  40  69  97 140 173 231 293 357 416
#     4  12  25  42  73 105 137 190 243 287 360 437
#     4  11  24  43  66 102 143 186 229 297 353 421
#     4  10  24  44  71  98 145 181 232 302 356 416
#     4  10  23  43  64  98 136 179 223 294 352 417
#     4  10  24  45  69  98 139 182 240 291 358 427
#
# _framework density 26.698245
#
# number of rings (size 3 to 8) (size 9 to 14) (size 15 to 20)
#    0.000    1.333    1.667    2.500    7.000    5.333 
#    3.000    0.000    0.000    0.000    0.000    0.000 
#    0.000    0.000    0.000    0.000    0.000    0.000 
#
# Total GULP energy -134256.251707 kJ/mol
# GULP energy per Si atom -5594.010488 kJ/mol
# Density = 2.663748 g / cm^3
# Si number density = 26.698245 Si / 1000 Ang^3
#
#
#
# Elastic Constant Matrix: (Units=GPa)
#
#
# Indices 1 2 3 4 5 6 
#
# 1 62.4669 41.4319 -3.4535 0.0000 11.1612 0.0000
# 2 41.4319 210.1156 23.2605 0.0000 -3.2701 0.0000
# 3 -3.4535 23.2605 68.5012 0.0000 -4.4350 0.0000
# 4 0.0000 0.0000 0.0000 37.0197 0.0000 -1.5012
# 5 11.1612 -3.2701 -4.4350 0.0000 31.8793 0.0000
# 6 0.0000 0.0000 0.0000 -1.5012 0.0000 41.1849
#
#
#
# Elastic Compliance Matrix: (Units=1/GPa)
#
#
# Indices 1 2 3 4 5 6 
#
# 1 0.020298 -0.004340 0.002026 0.000000 -0.007270 0.000000
# 2 -0.004340 0.005876 -0.002095 0.000000 0.001831 0.000000
# 3 0.002026 -0.002095 0.015492 0.000000 0.001231 0.000000
# 4 0.000000 0.000000 0.000000 0.027053 0.000000 0.000986
# 5 -0.007270 0.001831 0.001231 0.000000 0.034273 0.000000
# 6 0.000000 0.000000 0.000000 0.000986 0.000000 0.024317
#
#
# Mechanical properties :
#
#
# Convention : Reuss Voigt Hill
#
# Bulk Modulus (GPa) = 30.44408 51.50683 40.97546
# Shear Modulus (GPa) = 33.99651 40.67310 37.33480
#
# Velocity S-wave (km/s) = 3.57229 3.90736 3.74357
# Velocity P-wave (km/s) = 5.33318 6.30005 5.83667
#
# Compressibility (1/GPa) = 0.03284710
#
# Stress axis : x y z
#
# Youngs Moduli (GPa) = 49.26614 170.19782 64.55094
#
# Poissons Ratio (x) = 0.73865 -0.13080
# Poissons Ratio (y) = 0.21381 0.13526
# Poissons Ratio (z) = -0.09983 0.35663
#
# Static dielectric constant tensor:
#      x y z
#    x 2.067620 0.000000 -0.008840 
#    y 0.000000 2.165820 0.000000 
#    z -0.008840 0.000000 2.193610 
# 
# From -- ./inp_files/123602.got.cif
#   From: 2010.05.17/outbox.cif.g08.bks.cpg/sg15_62_cif.got.tgz:123602.got - 2010.06.03 18:47:42.
