data_PCOD9295935
_publ_section_title
;
Structure prediction by ZEFSAII (Michael W. Deem and Ramdas Pophale) SiO2 
 PCOD9295935
Probable space group: C 2/C
;
_chemical_formula_sum "Si O2"
_cell_formula_units_Z 40
_cell_length_a 14.124866
_cell_length_b 16.283094
_cell_length_c 20.924506
_cell_angle_alpha 90.000000
_cell_angle_beta 22.849511
_cell_angle_gamma 90.000000
_cell_volume 1868.776435
_symmetry_space_group_name_H-M "C 2/C"
_symmetry_group_IT_number 15
_symmetry_cell_setting 'monoclinic'
loop_
_space_group_symop_operation_xyz
x,y,z
-x,y,1/2-z
-x,-y,-z
x,-y,1/2+z
1/2+x,1/2+y,z
1/2-x,1/2+y,1/2-z
1/2-x,1/2-y,-z
1/2+x,1/2-y,1/2+z
loop_
_atom_site_type_symbol
_atom_site_label
_atom_site_fract_x
_atom_site_fract_y
_atom_site_fract_z
Si Si1 0.213344 0.330702 0.728744
Si Si2 0.000000 0.021772 0.250000
Si Si3 0.000000 0.280173 0.250000
Si Si4 0.461801 0.812371 0.522299
Si Si5 0.000000 0.557862 0.250000
Si Si6 0.673713 0.413954 0.507897
Si Si7 0.000000 0.500000 0.500000
O O1 0.320130 0.245591 0.636189
O O2 0.056407 0.315071 0.889604
O O3 0.082539 0.384341 0.756513
O O4 0.443378 0.384895 0.609798
O O5 0.920314 0.070403 0.362966
O O6 0.758838 0.974298 0.376055
O O7 0.212601 0.229061 0.151099
O O8 0.128126 0.341372 0.119512
O O9 0.471059 0.905524 0.492820
O O10 0.789987 0.496297 0.406077
#
# Coordination Sequence:
#
# PCOD9295935 Si02
#       7
#     8   4   4   8   4   8   4
#     4  11  25  44  68 100 137 185 237 293 362 418
#     4  12  25  43  77 107 146 180 246 289 363 429
#     4   9  23  44  71 105 138 182 241 309 354 409
#     4  11  25  43  69 104 141 185 236 297 358 426
#     4  11  24  47  66  98 148 188 235 286 365 442
#     4  10  23  43  74 103 138 184 240 304 354 424
#     4  12  26  44  68 110 144 190 232 296 352 430
#
# _framework density 21.404378999999999
#
# number of rings (size 3 to 8) (size 9 to 14) (size 15 to 20)
#    0.000    1.200    2.000    2.400    2.800    4.800 
#    3.600    0.000    0.000    0.000    0.000    0.000 
#    0.000    0.000    0.000    0.000    0.000    0.000 
#
# Total GULP energy -111363.175058 kJ/mol
# GULP energy per Si atom -5568.158753 kJ/mol
# Density = 2.135566 g / cm^3
# Si number density = 21.404379 Si / 1000 Ang^3
#
#
#
# Elastic Constant Matrix: (Units=GPa)
#
#
# Indices 1 2 3 4 5 6 
#
# 1 87.2080 44.0571 15.4586 -0.0012 -9.1522 -0.0743
# 2 44.0571 111.4630 11.3729 -0.0132 13.4741 0.0358
# 3 15.4586 11.3729 42.2613 0.0508 13.3257 0.0339
# 4 -0.0012 -0.0132 0.0508 11.2809 -0.0113 4.2520
# 5 -9.1522 13.4741 13.3257 -0.0113 39.0810 -0.0339
# 6 -0.0743 0.0358 0.0339 4.2520 -0.0339 26.1445
#
#
#
# Elastic Compliance Matrix: (Units=1/GPa)
#
#
# Indices 1 2 3 4 5 6 
#
# 1 0.017336 -0.007203 -0.007245 0.000005 0.009014 0.000079
# 2 -0.007203 0.012462 0.001308 0.000021 -0.006429 -0.000051
# 3 -0.007245 0.001308 0.029847 -0.000125 -0.012325 -0.000057
# 4 0.000005 0.000021 -0.000125 0.094435 0.000051 -0.015358
# 5 0.009014 -0.006429 -0.012325 0.000051 0.034118 0.000086
# 6 0.000079 -0.000051 -0.000057 -0.015358 0.000086 0.040747
#
#
# Mechanical properties :
#
#
# Convention : Reuss Voigt Hill
#
# Bulk Modulus (GPa) = 29.97059 42.52328 36.24694
# Shear Modulus (GPa) = 18.77259 26.63754 22.70506
#
# Velocity S-wave (km/s) = 2.96471 3.53156 3.26048
# Velocity P-wave (km/s) = 5.07462 6.04475 5.58081
#
# Compressibility (1/GPa) = 0.03336604
#
# Stress axis : x y z
#
# Youngs Moduli (GPa) = 57.68398 80.24237 33.50437
#
# Poissons Ratio (x) = 0.57795 0.24274
# Poissons Ratio (y) = 0.41547 -0.04383
# Poissons Ratio (z) = 0.41793 -0.10498
#
# Static dielectric constant tensor:
#      x y z
#    x 1.759280 0.000000 -0.007010 
#    y 0.000000 1.775680 0.000020 
#    z -0.007010 0.000020 1.828080 
# 
# From -- ./inp_files/37940.got.cif
#   From: 2010.05.17/outbox.cif.g08.bks.cpg/sg15_19_cif.got.tgz:37940.got - 2010.06.03 18:47:42.
