data_PCOD9295270
_publ_section_title
;
Structure prediction by ZEFSAII (Michael W. Deem and Ramdas Pophale) SiO2 
 PCOD9295270
Probable space group: C 2/C
;
_chemical_formula_sum "Si O2"
_cell_formula_units_Z 48
_cell_length_a 25.833889
_cell_length_b 9.310029
_cell_length_c 10.153631
_cell_angle_alpha 90.000000
_cell_angle_beta 81.359609
_cell_angle_gamma 90.000000
_cell_volume 2414.377005
_symmetry_space_group_name_H-M "C 2/C"
_symmetry_group_IT_number 15
_symmetry_cell_setting 'monoclinic'
loop_
_space_group_symop_operation_xyz
x,y,z
-x,y,1/2-z
-x,-y,-z
x,-y,1/2+z
1/2+x,1/2+y,z
1/2-x,1/2+y,1/2-z
1/2-x,1/2-y,-z
1/2+x,1/2-y,1/2+z
loop_
_atom_site_type_symbol
_atom_site_label
_atom_site_fract_x
_atom_site_fract_y
_atom_site_fract_z
Si Si1 0.689715 0.208419 0.512577
Si Si2 0.932962 0.345124 0.128656
Si Si3 0.878473 0.783414 0.198170
Si Si4 0.970708 0.856124 0.961481
Si Si5 0.890742 0.475999 0.884664
Si Si6 0.383358 0.397638 0.781054
O O1 0.750000 0.250000 0.500000
O O2 0.668304 0.222893 0.372891
O O3 0.659123 0.326849 0.609195
O O4 0.664879 0.057859 0.574259
O O5 0.924633 0.427092 0.270370
O O6 0.893461 0.208805 0.154925
O O7 0.988357 0.270272 0.083446
O O8 0.917158 0.449854 0.015963
O O9 0.886580 0.677253 0.316118
O O10 0.867690 0.944557 0.247017
O O11 0.929942 0.799164 0.086434
O O12 0.937210 0.897569 0.845014
O O13 0.000000 0.000000 0.000000
#
# Coordination Sequence:
#
# PCOD9295270 Si02
#       6
#     8   8   8   8   8   8
#     4  10  24  47  67  93 133 173 224 288 349 399
#     4  11  23  43  66  94 144 176 219 273 331 397
#     4  11  23  42  67  98 132 175 231 276 327 403
#     4  11  22  40  66  97 136 183 225 264 325 399
#     4  11  24  45  66 100 137 173 226 280 336 401
#     4  10  23  42  67  98 131 178 227 278 324 404
#
# _framework density 19.880906
#
# number of rings (size 3 to 8) (size 9 to 14) (size 15 to 20)
#    0.000    1.333    3.333    1.500    2.333    4.000 
#    9.000    0.833    0.000    0.000    0.000    0.000 
#    0.000    0.000    0.000    0.000    0.000    0.000 
#
# Total GULP energy -134129.325260 kJ/mol
# GULP energy per Si atom -5588.721886 kJ/mol
# Density = 1.983566 g / cm^3
# Si number density = 19.880906 Si / 1000 Ang^3
#
#
#
# Elastic Constant Matrix: (Units=GPa)
#
#
# Indices 1 2 3 4 5 6 
#
# 1 105.8617 13.3641 34.1892 0.0000 -4.2030 0.0000
# 2 13.3641 113.4654 33.2577 0.0000 2.7681 0.0000
# 3 34.1892 33.2577 88.4009 0.0000 8.3483 0.0000
# 4 0.0000 0.0000 0.0000 34.9462 0.0000 5.8392
# 5 -4.2030 2.7681 8.3483 0.0000 13.8572 0.0000
# 6 0.0000 0.0000 0.0000 5.8392 0.0000 20.7490
#
#
#
# Elastic Compliance Matrix: (Units=1/GPa)
#
#
# Indices 1 2 3 4 5 6 
#
# 1 0.011311 -0.000032 -0.004970 0.000000 0.006431 0.000000
# 2 -0.000032 0.009907 -0.003739 0.000000 0.000264 0.000000
# 3 -0.004970 -0.003739 0.015600 0.000000 -0.010159 0.000000
# 4 0.000000 0.000000 0.000000 0.030027 0.000000 -0.008450
# 5 0.006431 0.000264 -0.010159 0.000000 0.080183 0.000000
# 6 0.000000 0.000000 0.000000 -0.008450 0.000000 0.050573
#
#
# Mechanical properties :
#
#
# Convention : Reuss Voigt Hill
#
# Bulk Modulus (GPa) = 51.72022 52.15000 51.93511
# Shear Modulus (GPa) = 22.57043 29.03828 25.80436
#
# Velocity S-wave (km/s) = 3.37305 3.82594 3.60661
# Velocity P-wave (km/s) = 6.42195 6.76796 6.59722
#
# Compressibility (1/GPa) = 0.01933480
#
# Stress axis : x y z
#
# Youngs Moduli (GPa) = 88.41200 100.94180 64.10153
#
# Poissons Ratio (x) = 0.00328 0.31855
# Poissons Ratio (y) = 0.00287 0.23970
# Poissons Ratio (z) = 0.43937 0.37746
#
# Static dielectric constant tensor:
#      x y z
#    x 1.691060 0.000000 0.013420 
#    y 0.000000 1.718780 0.000000 
#    z 0.013420 0.000000 1.731920 
# 
# From -- ./inp_files/116300.got.cif
#   From: 2010.05.17/outbox.cif.g08.bks.cpg/sg15_59_cif.got.tgz:116300.got - 2010.06.03 18:47:42.
