data_PCOD9295711
_publ_section_title
;
Structure prediction by ZEFSAII (Michael W. Deem and Ramdas Pophale) SiO2 
 PCOD9295711
Probable space group: C 2/C
;
_chemical_formula_sum "Si O2"
_cell_formula_units_Z 32
_cell_length_a 17.514034
_cell_length_b 5.199333
_cell_length_c 14.958781
_cell_angle_alpha 90.000000
_cell_angle_beta 107.878991
_cell_angle_gamma 90.000000
_cell_volume 1296.382942
_symmetry_space_group_name_H-M "C 2/C"
_symmetry_group_IT_number 15
_symmetry_cell_setting 'monoclinic'
loop_
_space_group_symop_operation_xyz
x,y,z
-x,y,1/2-z
-x,-y,-z
x,-y,1/2+z
1/2+x,1/2+y,z
1/2-x,1/2+y,1/2-z
1/2-x,1/2-y,-z
1/2+x,1/2-y,1/2+z
loop_
_atom_site_type_symbol
_atom_site_label
_atom_site_fract_x
_atom_site_fract_y
_atom_site_fract_z
Si Si1 0.271534 0.696999 0.202572
Si Si2 0.681385 0.907769 0.024255
Si Si3 0.069012 0.587605 0.824279
Si Si4 0.033079 0.243865 0.061448
O O1 0.267509 0.425640 0.253449
O O2 0.361241 0.783206 0.208872
O O3 0.221590 0.643747 0.092691
O O4 0.620748 0.960568 0.921313
O O5 0.750000 0.750000 0.000000
O O6 0.628230 0.762560 0.080322
O O7 0.000000 0.418292 0.750000
O O8 0.007282 0.769821 0.855942
O O9 0.000000 0.500000 0.000000
O O10 0.000000 0.000000 0.000000
#
# Coordination Sequence:
#
# PCOD9295711 Si02
#       4
#     8   8   8   8
#     4  12  27  48  75 110 149 195 250 307 369 441
#     4  11  24  48  79 109 148 196 250 307 369 443
#     4  11  25  45  71 106 148 193 244 303 370 439
#     4  10  23  43  68 101 139 182 232 293 358 423
#
# _framework density 24.684062000000001
#
# number of rings (size 3 to 8) (size 9 to 14) (size 15 to 20)
#    0.000    1.000    0.000    5.250    0.000   12.000 
#    0.000   15.000    0.000    0.000    0.000    0.000 
#    0.000    0.000    0.000    0.000    0.000    0.000 
#
# Total GULP energy -89378.202506 kJ/mol
# GULP energy per Si atom -5586.137657 kJ/mol
# Density = 2.462788 g / cm^3
# Si number density = 24.684062 Si / 1000 Ang^3
#
#
#
# Elastic Constant Matrix: (Units=GPa)
#
#
# Indices 1 2 3 4 5 6 
#
# 1 239.7159 26.3520 63.1899 0.0000 -9.1560 0.0000
# 2 26.3520 98.7572 33.0980 0.0000 1.7826 0.0000
# 3 63.1899 33.0980 147.0926 0.0000 24.2936 0.0000
# 4 0.0000 0.0000 0.0000 47.0146 0.0000 -4.1596
# 5 -9.1560 1.7826 24.2936 0.0000 72.7656 0.0000
# 6 0.0000 0.0000 0.0000 -4.1596 0.0000 19.0126
#
#
#
# Elastic Compliance Matrix: (Units=1/GPa)
#
#
# Indices 1 2 3 4 5 6 
#
# 1 0.004863 -0.000592 -0.002180 0.000000 0.001354 0.000000
# 2 -0.000592 0.011047 -0.002302 0.000000 0.000423 0.000000
# 3 -0.002180 -0.002302 0.008772 0.000000 -0.003147 0.000000
# 4 0.000000 0.000000 0.000000 0.021690 0.000000 0.004745
# 5 0.001354 0.000423 -0.003147 0.000000 0.014953 0.000000
# 6 0.000000 0.000000 0.000000 0.004745 0.000000 0.053635
#
#
# Mechanical properties :
#
#
# Convention : Reuss Voigt Hill
#
# Bulk Modulus (GPa) = 68.78929 81.20505 74.99717
# Shear Modulus (GPa) = 38.47576 51.95362 45.21469
#
# Velocity S-wave (km/s) = 3.95236 4.59273 4.28452
# Velocity P-wave (km/s) = 6.98259 7.81622 7.41114
#
# Compressibility (1/GPa) = 0.01453715
#
# Stress axis : x y z
#
# Youngs Moduli (GPa) = 205.63849 90.51877 113.99427
#
# Poissons Ratio (x) = 0.05355 0.24846
# Poissons Ratio (y) = 0.12165 0.26237
# Poissons Ratio (z) = 0.44821 0.20834
#
# Static dielectric constant tensor:
#      x y z
#    x 1.993020 0.000000 0.012440 
#    y 0.000000 1.948030 0.000000 
#    z 0.012440 0.000000 2.239190 
# 
# From -- ./inp_files/158252.got.cif
#   From: 2010.05.17/outbox.cif.g08.bks.cpg/sg15_80_cif.got.tgz:158252.got - 2010.06.03 18:47:42.
