data_PCOD9295795
_publ_section_title
;
Structure prediction by ZEFSAII (Michael W. Deem and Ramdas Pophale) SiO2 
 PCOD9295795
Probable space group: C 2/C
;
_chemical_formula_sum "Si O2"
_cell_formula_units_Z 52
_cell_length_a 22.763757
_cell_length_b 8.061511
_cell_length_c 22.700262
_cell_angle_alpha 90.000000
_cell_angle_beta 145.245422
_cell_angle_gamma 90.000000
_cell_volume 2374.726874
_symmetry_space_group_name_H-M "C 2/C"
_symmetry_group_IT_number 15
_symmetry_cell_setting 'monoclinic'
loop_
_space_group_symop_operation_xyz
x,y,z
-x,y,1/2-z
-x,-y,-z
x,-y,1/2+z
1/2+x,1/2+y,z
1/2-x,1/2+y,1/2-z
1/2-x,1/2-y,-z
1/2+x,1/2-y,1/2+z
loop_
_atom_site_type_symbol
_atom_site_label
_atom_site_fract_x
_atom_site_fract_y
_atom_site_fract_z
Si Si1 0.156208 0.924913 0.059848
Si Si2 0.691142 0.454045 0.705861
Si Si3 0.118855 0.623924 0.592425
Si Si4 0.616039 0.929933 0.765432
Si Si5 0.968073 0.097676 0.848141
Si Si6 0.000000 0.212098 0.750000
Si Si7 0.451696 0.098800 0.555079
O O1 0.154075 0.906331 0.128905
O O2 0.271579 0.989870 0.142303
O O3 0.125119 0.753190 0.002417
O O4 0.066446 0.055091 0.968815
O O5 0.806466 0.484124 0.819935
O O6 0.678195 0.290743 0.656793
O O7 0.616953 0.464286 0.701159
O O8 0.102640 0.571137 0.511616
O O9 0.019333 0.637120 0.552109
O O10 0.592063 0.774374 0.701287
O O11 0.591326 0.839444 0.807168
O O12 0.529166 0.061227 0.672421
O O13 0.010077 0.099428 0.815908
#
# Coordination Sequence:
#
# PCOD9295795 Si02
#       7
#     8   8   8   8   8   4   8
#     4  12  23  39  72 105 138 184 227 295 368 411
#     4  12  22  40  64 107 139 180 229 287 357 430
#     4  11  24  37  65 102 146 186 216 279 367 423
#     4  10  23  47  66  97 140 182 239 292 339 418
#     4  10  23  43  69  98 136 184 234 288 338 424
#     4   8  24  48  72  92 142 188 242 288 336 410
#     4  11  24  40  61  99 148 180 226 285 351 420
#
# _framework density 21.897255000000001
#
# number of rings (size 3 to 8) (size 9 to 14) (size 15 to 20)
#    0.923    0.308    3.077    3.231    4.308    0.615 
#    0.000    1.538    0.000    0.000    0.000    0.000 
#    0.000    0.000    0.000    0.000    0.000    0.000 
#
# Total GULP energy -144837.104844 kJ/mol
# GULP energy per Si atom -5570.657879 kJ/mol
# Density = 2.184742 g / cm^3
# Si number density = 21.897255 Si / 1000 Ang^3
#
#
#
# Elastic Constant Matrix: (Units=GPa)
#
#
# Indices 1 2 3 4 5 6 
#
# 1 89.0386 12.0951 32.3144 0.0000 3.0877 0.0000
# 2 12.0951 94.9354 33.3303 0.0000 23.5016 0.0001
# 3 32.3144 33.3303 115.4373 0.0000 26.4696 0.0000
# 4 0.0000 0.0000 0.0000 36.8652 0.0000 -2.7584
# 5 3.0877 23.5016 26.4696 0.0000 16.8594 0.0000
# 6 0.0000 0.0001 0.0000 -2.7584 0.0000 16.5669
#
#
#
# Elastic Compliance Matrix: (Units=1/GPa)
#
#
# Indices 1 2 3 4 5 6 
#
# 1 0.013000 -0.001912 -0.004926 0.000000 0.008017 0.000000
# 2 -0.001912 0.016409 0.001503 0.000000 -0.024884 0.000000
# 3 -0.004926 0.001503 0.015439 0.000000 -0.025433 0.000000
# 4 0.000000 0.000000 0.000000 0.027468 0.000000 0.004573
# 5 0.008017 -0.024884 -0.025433 0.000000 0.132463 0.000000
# 6 0.000000 0.000000 0.000000 0.004573 0.000000 0.061123
#
#
# Mechanical properties :
#
#
# Convention : Reuss Voigt Hill
#
# Bulk Modulus (GPa) = 29.25610 50.54343 39.89977
# Shear Modulus (GPa) = 17.36322 28.83641 23.09982
#
# Velocity S-wave (km/s) = 2.81897 3.63284 3.25147
# Velocity P-wave (km/s) = 4.89746 6.38192 5.68832
#
# Compressibility (1/GPa) = 0.03418091
#
# Stress axis : x y z
#
# Youngs Moduli (GPa) = 76.92104 60.94060 64.76984
#
# Poissons Ratio (x) = 0.11650 0.31902
# Poissons Ratio (y) = 0.14704 -0.09735
# Poissons Ratio (z) = 0.37888 -0.09160
#
# Static dielectric constant tensor:
#      x y z
#    x 1.823820 0.000000 -0.016670 
#    y 0.000000 1.977760 0.000000 
#    z -0.016670 0.000000 1.846390 
# 
# From -- ./inp_files/303051.got.cif
#   From: 2010.05.17/outbox.cif.g08.bks.cpg/sg15_152_cif.got.tgz:303051.got - 2010.06.03 18:47:42.
