data_PCOD9295136
_publ_section_title
;
Structure prediction by ZEFSAII (Michael W. Deem and Ramdas Pophale) SiO2 
 PCOD9295136
Probable space group: C 2/C
;
_chemical_formula_sum "Si O2"
_cell_formula_units_Z 44
_cell_length_a 14.967603
_cell_length_b 19.747640
_cell_length_c 9.451446
_cell_angle_alpha 90.000000
_cell_angle_beta 50.418131
_cell_angle_gamma 90.000000
_cell_volume 2153.076582
_symmetry_space_group_name_H-M "C 2/C"
_symmetry_group_IT_number 15
_symmetry_cell_setting 'monoclinic'
loop_
_space_group_symop_operation_xyz
x,y,z
-x,y,1/2-z
-x,-y,-z
x,-y,1/2+z
1/2+x,1/2+y,z
1/2-x,1/2+y,1/2-z
1/2-x,1/2-y,-z
1/2+x,1/2-y,1/2+z
loop_
_atom_site_type_symbol
_atom_site_label
_atom_site_fract_x
_atom_site_fract_y
_atom_site_fract_z
Si Si1 0.751217 0.678155 0.836498
Si Si2 0.641602 0.065967 0.268424
Si Si3 0.500000 0.488000 0.250000
Si Si4 0.535629 0.597888 0.988667
Si Si5 0.715203 0.664435 0.200413
Si Si6 0.363014 0.938017 0.047230
O O1 0.619608 0.661870 0.922827
O O2 0.791873 0.754791 0.773838
O O3 0.826016 0.628186 0.667124
O O4 0.755672 0.657540 0.996942
O O5 0.689387 0.132992 0.292601
O O6 0.502524 0.062001 0.404969
O O7 0.681263 0.003198 0.323748
O O8 0.682019 0.060276 0.066872
O O9 0.434774 0.541606 0.420411
O O10 0.449612 0.437956 0.179207
O O11 0.404575 0.624518 0.147163
#
# Coordination Sequence:
#
# PCOD9295136 Si02
#       6
#     8   8   4   8   8   8
#     4  11  25  42  65  92 132 174 212 265 320 390
#     4  10  23  42  65  94 126 166 214 263 313 376
#     4  10  24  42  72  90 138 162 214 282 320 390
#     4  11  24  44  64 104 125 174 214 270 330 382
#     4  11  25  42  65  92 132 174 212 265 320 390
#     4  10  23  42  65  94 126 166 214 263 313 376
#
# _framework density 20.435873999999998
#
# number of rings (size 3 to 8) (size 9 to 14) (size 15 to 20)
#    0.000    1.455    1.818    1.091   10.182    2.909 
#    0.000    0.000    0.000    0.000    0.000    0.000 
#    0.000    0.000    0.000    0.000    0.000    0.000 
#
# Total GULP energy -122846.341597 kJ/mol
# GULP energy per Si atom -5583.924618 kJ/mol
# Density = 2.038936 g / cm^3
# Si number density = 20.435874 Si / 1000 Ang^3
#
#
#
# Elastic Constant Matrix: (Units=GPa)
#
#
# Indices 1 2 3 4 5 6 
#
# 1 37.8324 15.7698 37.4554 0.0000 19.5116 0.0000
# 2 15.7698 70.5703 68.6120 0.0000 27.0242 0.0000
# 3 37.4554 68.6120 130.5161 0.0000 26.6749 0.0000
# 4 0.0000 0.0000 0.0000 44.0176 0.0000 24.3921
# 5 19.5116 27.0242 26.6749 0.0000 35.1962 0.0000
# 6 0.0000 0.0000 0.0000 24.3921 0.0000 56.7891
#
#
#
# Elastic Compliance Matrix: (Units=1/GPa)
#
#
# Indices 1 2 3 4 5 6 
#
# 1 0.051329 0.016213 -0.017624 0.000000 -0.027547 0.000000
# 2 0.016213 0.039821 -0.020709 0.000000 -0.023869 0.000000
# 3 -0.017624 -0.020709 0.021725 0.000000 0.009205 0.000000
# 4 0.000000 0.000000 0.000000 0.029815 0.000000 -0.012806
# 5 -0.027547 -0.023869 0.009205 0.000000 0.055033 0.000000
# 6 0.000000 0.000000 0.000000 -0.012806 0.000000 0.023109
#
#
# Mechanical properties :
#
#
# Convention : Reuss Voigt Hill
#
# Bulk Modulus (GPa) = 14.56929 53.62144 34.09536
# Shear Modulus (GPa) = 17.36414 35.00602 26.18508
#
# Velocity S-wave (km/s) = 2.91811 4.14329 3.58345
# Velocity P-wave (km/s) = 4.30099 7.01320 5.81737
#
# Compressibility (1/GPa) = 0.06863755
#
# Stress axis : x y z
#
# Youngs Moduli (GPa) = 19.48208 25.11207 46.03085
#
# Poissons Ratio (x) = -0.40715 0.81123
# Poissons Ratio (y) = -0.31587 0.95324
# Poissons Ratio (z) = 0.34334 0.52004
#
# Static dielectric constant tensor:
#      x y z
#    x 1.757070 0.000000 -0.030770 
#    y 0.000000 1.679240 0.000000 
#    z -0.030770 0.000000 1.734360 
# 
# From -- ./inp_files/39549.got.cif
#   From: 2010.05.17/outbox.cif.g08.bks.cpg/sg15_20_cif.got.tgz:39549.got - 2010.06.03 18:47:42.
