data_PCOD9295088
_publ_section_title
;
Structure prediction by ZEFSAII (Michael W. Deem and Ramdas Pophale) SiO2 
 PCOD9295088
Probable space group: C 2/C
;
_chemical_formula_sum "Si O2"
_cell_formula_units_Z 48
_cell_length_a 9.127181
_cell_length_b 15.250699
_cell_length_c 30.081668
_cell_angle_alpha 90.000000
_cell_angle_beta 38.254140
_cell_angle_gamma 90.000000
_cell_volume 2592.535364
_symmetry_space_group_name_H-M "C 2/C"
_symmetry_group_IT_number 15
_symmetry_cell_setting 'monoclinic'
loop_
_space_group_symop_operation_xyz
x,y,z
-x,y,1/2-z
-x,-y,-z
x,-y,1/2+z
1/2+x,1/2+y,z
1/2-x,1/2+y,1/2-z
1/2-x,1/2-y,-z
1/2+x,1/2-y,1/2+z
loop_
_atom_site_type_symbol
_atom_site_label
_atom_site_fract_x
_atom_site_fract_y
_atom_site_fract_z
Si Si1 0.715373 0.943378 0.316632
Si Si2 0.759464 0.632922 0.209166
Si Si3 0.603857 0.010629 0.524595
Si Si4 0.707056 0.172599 0.045336
Si Si5 0.772905 0.750812 0.696457
Si Si6 0.054917 0.173857 0.046815
O O1 0.603310 0.958743 0.392090
O O2 0.627106 0.848219 0.321275
O O3 0.000000 0.940685 0.250000
O O4 0.652458 0.032204 0.304698
O O5 0.500000 0.626617 0.250000
O O6 0.722592 0.689627 0.261481
O O7 0.952132 0.677299 0.130801
O O8 0.809090 0.082977 0.477850
O O9 0.500000 0.000000 0.500000
O O10 0.701002 0.918739 0.520043
O O11 0.903383 0.172914 0.037542
O O12 0.750000 0.250000 0.000000
O O13 0.500000 0.739154 0.750000
O O14 0.891619 0.800847 0.627255
O O15 0.250000 0.250000 0.000000
#
# Coordination Sequence:
#
# PCOD9295088 Si02
#       6
#     8   8   8   8   8   8
#     4   9  21  39  63  89 126 161 211 255 320 381
#     4  10  23  42  64  93 127 166 211 268 322 386
#     4  11  24  41  67  95 128 174 218 268 329 383
#     4  11  25  43  64  96 134 168 221 269 321 391
#     4  11  22  42  66  91 130 166 214 266 325 389
#     4  12  24  41  66  95 129 174 220 264 328 379
#
# _framework density 18.514695
#
# number of rings (size 3 to 8) (size 9 to 14) (size 15 to 20)
#    0.000    1.333    3.333    1.500    9.333    0.000 
#    0.000    0.833    0.000    0.000    0.000    0.000 
#    0.000    0.000    0.000    0.000    0.000    0.000 
#
# Total GULP energy -133920.992605 kJ/mol
# GULP energy per Si atom -5580.041359 kJ/mol
# Density = 1.847255 g / cm^3
# Si number density = 18.514695 Si / 1000 Ang^3
#
#
#
# Elastic Constant Matrix: (Units=GPa)
#
#
# Indices 1 2 3 4 5 6 
#
# 1 123.0745 87.3662 56.1138 -0.0004 14.2358 0.0003
# 2 87.3662 180.6609 100.3032 -0.0010 32.4767 0.0008
# 3 56.1138 100.3032 143.7014 0.0025 9.7727 -0.0016
# 4 -0.0004 -0.0010 0.0025 36.9089 0.0011 -2.0433
# 5 14.2358 32.4767 9.7727 0.0011 34.3499 -0.0004
# 6 0.0003 0.0008 -0.0016 -2.0433 -0.0004 27.1585
#
#
#
# Elastic Compliance Matrix: (Units=1/GPa)
#
#
# Indices 1 2 3 4 5 6 
#
# 1 0.012477 -0.005514 -0.001047 0.000000 0.000340 0.000000
# 2 -0.005514 0.013412 -0.006630 0.000001 -0.008510 -0.000001
# 3 -0.001047 -0.006630 0.011767 -0.000001 0.003354 0.000001
# 4 0.000000 0.000001 -0.000001 0.027207 -0.000001 0.002047
# 5 0.000340 -0.008510 0.003354 -0.000001 0.036062 0.000001
# 6 0.000000 -0.000001 0.000001 0.002047 0.000001 0.036975
#
#
# Mechanical properties :
#
#
# Convention : Reuss Voigt Hill
#
# Bulk Modulus (GPa) = 88.68635 103.88925 96.28780
# Shear Modulus (GPa) = 29.75468 33.26037 31.50752
#
# Velocity S-wave (km/s) = 4.01320 4.24303 4.12971
# Velocity P-wave (km/s) = 8.33540 8.95757 8.65208
#
# Compressibility (1/GPa) = 0.01127569
#
# Stress axis : x y z
#
# Youngs Moduli (GPa) = 80.14665 74.55768 84.98198
#
# Poissons Ratio (x) = 0.41110 0.08894
# Poissons Ratio (y) = 0.44192 0.56343
# Poissons Ratio (z) = 0.08388 0.49432
#
# Static dielectric constant tensor:
#      x y z
#    x 1.607610 0.000000 -0.038850 
#    y 0.000000 1.691830 0.000000 
#    z -0.038850 0.000000 1.744600 
# 
# From -- ./inp_files/189271.got.cif
#   From: 2010.05.17/outbox.cif.g08.bks.cpg/sg15_95_cif.got.tgz:189271.got - 2010.06.03 18:47:42.
