data_PCOD9295937
_publ_section_title
;
Structure prediction by ZEFSAII (Michael W. Deem and Ramdas Pophale) SiO2 
 PCOD9295937
Probable space group: C 2/C
;
_chemical_formula_sum "Si O2"
_cell_formula_units_Z 40
_cell_length_a 21.361459
_cell_length_b 8.137229
_cell_length_c 30.874931
_cell_angle_alpha 90.000000
_cell_angle_beta 162.181414
_cell_angle_gamma 90.000000
_cell_volume 1642.255625
_symmetry_space_group_name_H-M "C 2/C"
_symmetry_group_IT_number 15
_symmetry_cell_setting 'monoclinic'
loop_
_space_group_symop_operation_xyz
x,y,z
-x,y,1/2-z
-x,-y,-z
x,-y,1/2+z
1/2+x,1/2+y,z
1/2-x,1/2+y,1/2-z
1/2-x,1/2-y,-z
1/2+x,1/2-y,1/2+z
loop_
_atom_site_type_symbol
_atom_site_label
_atom_site_fract_x
_atom_site_fract_y
_atom_site_fract_z
Si Si1 0.170438 0.467141 0.051061
Si Si2 0.647730 0.084333 0.946189
Si Si3 0.686364 0.405259 0.525773
Si Si4 0.240106 0.966217 0.655414
Si Si5 0.227354 0.910882 0.290519
O O1 0.233087 0.562372 0.050241
O O2 0.176447 0.281465 0.036537
O O3 0.942518 0.523112 0.914657
O O4 0.302459 0.486584 0.181212
O O5 0.400779 0.083441 0.785085
O O6 0.750000 0.250000 0.000000
O O7 0.700047 0.943613 0.944701
O O8 0.779963 0.488408 0.630004
O O9 0.453564 0.453370 0.361258
O O10 0.270454 0.784361 0.696423
O O11 0.000000 0.000000 0.500000
#
# Coordination Sequence:
#
# PCOD9295937 Si02
#       5
#     8   8   8   8   8
#     4  10  23  44  71 107 142 193 249 308 367 453
#     4  12  27  46  73 109 149 196 244 307 381 450
#     4  11  24  45  72 102 149 191 244 304 378 439
#     4  11  25  46  74 103 151 193 250 306 372 444
#     4  10  23  43  74 105 138 195 252 303 373 439
#
# _framework density 24.356743999999999
#
# number of rings (size 3 to 8) (size 9 to 14) (size 15 to 20)
#    0.000    1.200    2.000    2.400    2.800    5.600 
#    3.600    0.000    0.000    0.000    0.000    0.000 
#    0.000    0.000    0.000    0.000    0.000    0.000 
#
# Total GULP energy -111808.843732 kJ/mol
# GULP energy per Si atom -5590.442187 kJ/mol
# Density = 2.430131 g / cm^3
# Si number density = 24.356744 Si / 1000 Ang^3
#
#
#
# Elastic Constant Matrix: (Units=GPa)
#
#
# Indices 1 2 3 4 5 6 
#
# 1 141.1282 39.1165 1.8418 -0.0210 -15.7437 0.0815
# 2 39.1165 55.6394 31.4774 0.0036 -9.2191 0.0503
# 3 1.8418 31.4774 81.9164 -0.0121 0.4223 0.2376
# 4 -0.0210 0.0036 -0.0121 22.0623 0.0013 16.8858
# 5 -15.7437 -9.2191 0.4223 0.0013 48.4599 -0.0040
# 6 0.0815 0.0503 0.2376 16.8858 -0.0040 -20.6317
#
#
#
# Elastic Compliance Matrix: (Units=1/GPa)
#
#
# Indices 1 2 3 4 5 6 
#
# 1 0.009434 -0.007994 0.002852 -0.000016 0.001519 0.000037
# 2 -0.007994 0.030739 -0.011649 0.000031 0.003352 -0.000066
# 3 0.002852 -0.011649 0.016627 -0.000074 -0.001435 0.000114
# 4 -0.000016 0.000031 -0.000074 0.027869 0.000002 0.022808
# 5 0.001519 0.003352 -0.001435 0.000002 0.021779 -0.000005
# 6 0.000037 -0.000066 0.000114 0.022808 -0.000005 -0.029800
#
#
# Mechanical properties :
#
#
# Convention : Reuss Voigt Hill
#
# Bulk Modulus (GPa) = 43.07244 47.06171 45.06708
# Shear Modulus (GPa) = 42.38416 23.72799 33.05607
#
# Velocity S-wave (km/s) = 4.17602 3.12458 3.68797
# Velocity P-wave (km/s) = 6.40114 5.69044 6.05623
#
# Compressibility (1/GPa) = 0.02321670
#
# Stress axis : x y z
#
# Youngs Moduli (GPa) = 106.00370 32.53230 60.14383
#
# Poissons Ratio (x) = 0.26006 -0.17151
# Poissons Ratio (y) = 0.84737 0.70062
# Poissons Ratio (z) = -0.30229 0.37897
#
# Static dielectric constant tensor:
#      x y z
#    x 2.135500 -0.000040 -0.042410 
#    y -0.000040 2.096500 -0.000410 
#    z -0.042410 -0.000410 2.016710 
# 
# From -- ./inp_files/317630.got.cif
#   From: 2010.05.17/outbox.cif.g08.bks.cpg/sg15_159_cif.got.tgz:317630.got - 2010.06.03 18:47:42.
