data_PCOD9295331
_publ_section_title
;
Structure prediction by ZEFSAII (Michael W. Deem and Ramdas Pophale) SiO2 
 PCOD9295331
Probable space group: C 2/C
;
_chemical_formula_sum "Si O2"
_cell_formula_units_Z 24
_cell_length_a 17.051214
_cell_length_b 6.355385
_cell_length_c 10.235934
_cell_angle_alpha 90.000000
_cell_angle_beta 70.394848
_cell_angle_gamma 90.000000
_cell_volume 1044.932239
_symmetry_space_group_name_H-M "C 2/C"
_symmetry_group_IT_number 15
_symmetry_cell_setting 'monoclinic'
loop_
_space_group_symop_operation_xyz
x,y,z
-x,y,1/2-z
-x,-y,-z
x,-y,1/2+z
1/2+x,1/2+y,z
1/2-x,1/2+y,1/2-z
1/2-x,1/2-y,-z
1/2+x,1/2-y,1/2+z
loop_
_atom_site_type_symbol
_atom_site_label
_atom_site_fract_x
_atom_site_fract_y
_atom_site_fract_z
Si Si1 0.818156 0.938795 0.969535
Si Si2 0.589197 0.921384 0.995233
Si Si3 0.678850 0.164598 0.179508
O O1 0.902284 0.820381 0.960826
O O2 0.773427 0.093869 0.097552
O O3 0.750000 0.750000 0.000000
O O4 0.828063 0.085328 0.837889
O O5 0.647450 0.919963 0.834419
O O6 0.500000 0.000000 0.000000
O O7 0.622619 0.063016 0.095657
#
# Coordination Sequence:
#
# PCOD9295331 Si02
#       3
#     8   8   8
#     4   9  22  40  66  97 132 177 228 278 336 412
#     4  11  24  42  68 103 140 178 228 286 350 413
#     4  10  23  42  69 100 136 181 230 284 345 413
#
# _framework density 22.967997
#
# number of rings (size 3 to 8) (size 9 to 14) (size 15 to 20)
#    0.000    2.000    0.000    1.000   14.000    4.000 
#    0.000    6.667    0.000    0.000    0.000    0.000 
#    0.000    0.000    0.000    0.000    0.000    0.000 
#
# Total GULP energy -66991.078440 kJ/mol
# GULP energy per Si atom -5582.589870 kJ/mol
# Density = 2.291572 g / cm^3
# Si number density = 22.967997 Si / 1000 Ang^3
#
#
#
# Elastic Constant Matrix: (Units=GPa)
#
#
# Indices 1 2 3 4 5 6 
#
# 1 112.1457 54.3330 18.2784 0.0000 22.0058 0.0000
# 2 54.3330 128.4492 19.8848 0.0000 16.4822 0.0000
# 3 18.2784 19.8848 102.8815 0.0000 31.7730 0.0000
# 4 0.0000 0.0000 0.0000 24.7611 0.0000 5.2933
# 5 22.0058 16.4822 31.7730 0.0000 34.6416 0.0000
# 6 0.0000 0.0000 0.0000 5.2933 0.0000 42.5239
#
#
#
# Elastic Compliance Matrix: (Units=1/GPa)
#
#
# Indices 1 2 3 4 5 6 
#
# 1 0.012190 -0.004457 0.000603 0.000000 -0.006176 0.000000
# 2 -0.004457 0.009942 -0.000758 0.000000 -0.001204 0.000000
# 3 0.000603 -0.000758 0.013626 0.000000 -0.012520 0.000000
# 4 0.000000 0.000000 0.000000 0.041490 0.000000 -0.005165
# 5 -0.006176 -0.001204 -0.012520 0.000000 0.044846 0.000000
# 6 0.000000 0.000000 0.000000 -0.005165 0.000000 0.024159
#
#
# Mechanical properties :
#
#
# Convention : Reuss Voigt Hill
#
# Bulk Modulus (GPa) = 37.68725 58.71876 48.20301
# Shear Modulus (GPa) = 30.42802 37.11734 33.77268
#
# Velocity S-wave (km/s) = 3.64373 4.02437 3.83877
# Velocity P-wave (km/s) = 5.84351 6.87132 6.37815
#
# Compressibility (1/GPa) = 0.02653417
#
# Stress axis : x y z
#
# Youngs Moduli (GPa) = 82.03440 100.57996 73.39008
#
# Poissons Ratio (x) = 0.44830 -0.04426
# Poissons Ratio (y) = 0.36564 0.05563
# Poissons Ratio (z) = -0.04948 0.07624
#
# Static dielectric constant tensor:
#      x y z
#    x 1.907350 0.000000 0.013050 
#    y 0.000000 1.956330 0.000000 
#    z 0.013050 0.000000 1.877370 
# 
# From -- ./inp_files/101905.got.cif
#   From: 2010.05.17/outbox.cif.g08.bks.cpg/sg15_51_cif.got.tgz:101905.got - 2010.06.03 18:47:42.
