data_PCOD9295098
_publ_section_title
;
Structure prediction by ZEFSAII (Michael W. Deem and Ramdas Pophale) SiO2 
 PCOD9295098
Probable space group: C 2/C
;
_chemical_formula_sum "Si O2"
_cell_formula_units_Z 40
_cell_length_a 7.750501
_cell_length_b 7.074154
_cell_length_c 28.680714
_cell_angle_alpha 90.000000
_cell_angle_beta 79.203474
_cell_angle_gamma 90.000000
_cell_volume 1544.677338
_symmetry_space_group_name_H-M "C 2/C"
_symmetry_group_IT_number 15
_symmetry_cell_setting 'monoclinic'
loop_
_space_group_symop_operation_xyz
x,y,z
-x,y,1/2-z
-x,-y,-z
x,-y,1/2+z
1/2+x,1/2+y,z
1/2-x,1/2+y,1/2-z
1/2-x,1/2-y,-z
1/2+x,1/2-y,1/2+z
loop_
_atom_site_type_symbol
_atom_site_label
_atom_site_fract_x
_atom_site_fract_y
_atom_site_fract_z
Si Si1 0.934406 0.342873 0.396246
Si Si2 0.442125 0.279128 0.369110
Si Si3 0.177082 0.687009 0.695173
Si Si4 0.941175 0.999780 0.055951
Si Si5 0.671159 0.762160 0.718241
O O1 0.924790 0.242322 0.345369
O O2 0.738031 0.377832 0.428264
O O3 0.971375 0.562829 0.383699
O O4 0.054360 0.214073 0.423613
O O5 0.626169 0.329268 0.335066
O O6 0.420484 0.400001 0.416466
O O7 0.301118 0.319769 0.334790
O O8 0.191551 0.773182 0.746373
O O9 0.118050 0.473819 0.707419
O O10 0.000000 0.000000 0.000000
O O11 0.500000 0.668334 0.750000
#
# Coordination Sequence:
#
# PCOD9295098 Si02
#       5
#     8   8   8   8   8
#     4  10  23  42  64  95 128 168 214 272 335 398
#     4   9  21  41  60  88 128 165 211 263 326 396
#     4   9  19  37  58  87 119 162 206 259 314 390
#     4  11  24  42  67  96 125 168 222 273 335 398
#     4   9  18  36  56  86 120 162 206 254 320 377
#
# _framework density 25.895378000000001
#
# number of rings (size 3 to 8) (size 9 to 14) (size 15 to 20)
#    0.000    2.400    0.000    0.600    2.800    4.800 
#   28.800    0.000    0.000    0.000    0.000    0.000 
#    0.000    0.000    0.000    0.000    0.000    0.000 
#
# Total GULP energy -111605.443959 kJ/mol
# GULP energy per Si atom -5580.272198 kJ/mol
# Density = 2.583644 g / cm^3
# Si number density = 25.895378 Si / 1000 Ang^3
#
#
#
# Elastic Constant Matrix: (Units=GPa)
#
#
# Indices 1 2 3 4 5 6 
#
# 1 85.7477 5.3997 29.8444 0.0000 14.0389 0.0000
# 2 5.3997 89.7919 53.9763 0.0000 -3.5889 0.0000
# 3 29.8444 53.9763 264.6211 0.0000 10.7660 0.0000
# 4 0.0000 0.0000 0.0000 40.3114 0.0000 9.4033
# 5 14.0389 -3.5889 10.7660 0.0000 20.5940 0.0000
# 6 0.0000 0.0000 0.0000 9.4033 0.0000 19.1304
#
#
#
# Elastic Compliance Matrix: (Units=1/GPa)
#
#
# Indices 1 2 3 4 5 6 
#
# 1 0.013494 -0.000524 -0.001060 0.000000 -0.008736 0.000000
# 2 -0.000524 0.012987 -0.002755 0.000000 0.004060 0.000000
# 3 -0.001060 -0.002755 0.004547 0.000000 -0.002135 0.000000
# 4 0.000000 0.000000 0.000000 0.028020 0.000000 -0.013773
# 5 -0.008736 0.004060 -0.002135 0.000000 0.056337 0.000000
# 6 0.000000 0.000000 0.000000 -0.013773 0.000000 0.059043
#
#
# Mechanical properties :
#
#
# Convention : Reuss Voigt Hill
#
# Bulk Modulus (GPa) = 44.73973 68.73349 56.73661
# Shear Modulus (GPa) = 26.23910 39.40318 32.82114
#
# Velocity S-wave (km/s) = 3.18665 3.90504 3.56399
# Velocity P-wave (km/s) = 5.55466 6.85075 6.23647
#
# Compressibility (1/GPa) = 0.02235150
#
# Stress axis : x y z
#
# Youngs Moduli (GPa) = 74.10563 77.00104 219.90874
#
# Poissons Ratio (x) = 0.04032 0.23303
# Poissons Ratio (y) = 0.03881 0.60588
# Poissons Ratio (z) = 0.07853 0.21215
#
# Static dielectric constant tensor:
#      x y z
#    x 2.199090 0.000000 0.031730 
#    y 0.000000 2.090640 0.000000 
#    z 0.031730 0.000000 2.029620 
# 
# From -- ./inp_files/287072.got.cif
#   From: 2010.05.17/outbox.cif.g08.bks.cpg/sg15_144_cif.got.tgz:287072.got - 2010.06.03 18:47:42.
