data_PCOD9295193
_publ_section_title
;
Structure prediction by ZEFSAII (Michael W. Deem and Ramdas Pophale) SiO2 
 PCOD9295193
Probable space group: C 2/C
;
_chemical_formula_sum "Si O2"
_cell_formula_units_Z 32
_cell_length_a 17.846760
_cell_length_b 5.315372
_cell_length_c 13.268165
_cell_angle_alpha 90.000000
_cell_angle_beta 96.344660
_cell_angle_gamma 90.000000
_cell_volume 1250.937841
_symmetry_space_group_name_H-M "C 2/C"
_symmetry_group_IT_number 15
_symmetry_cell_setting 'monoclinic'
loop_
_space_group_symop_operation_xyz
x,y,z
-x,y,1/2-z
-x,-y,-z
x,-y,1/2+z
1/2+x,1/2+y,z
1/2-x,1/2+y,1/2-z
1/2-x,1/2-y,-z
1/2+x,1/2-y,1/2+z
loop_
_atom_site_type_symbol
_atom_site_label
_atom_site_fract_x
_atom_site_fract_y
_atom_site_fract_z
Si Si1 0.438544 0.775239 0.478704
Si Si2 0.322173 0.877099 0.889957
Si Si3 0.148506 0.083499 0.397155
Si Si4 0.068613 0.965195 0.205300
O O1 0.389964 0.671315 0.565421
O O2 0.465776 0.555417 0.406703
O O3 0.500000 0.000000 0.500000
O O4 0.371375 0.875052 0.396549
O O5 0.234336 0.931823 0.871949
O O6 0.358288 0.696461 0.812191
O O7 0.343168 0.758004 0.002942
O O8 0.095818 0.159952 0.295741
O O9 0.000000 0.820470 0.250000
#
# Coordination Sequence:
#
# PCOD9295193 Si02
#       4
#     8   8   8   8
#     4  11  23  41  67  97 137 182 225 280 353 405
#     4  10  23  42  66  94 135 183 220 288 345 400
#     4  10  23  43  65  96 138 173 232 285 337 415
#     4  11  24  40  65 101 134 175 233 280 338 415
#
# _framework density 25.580808000000001
#
# number of rings (size 3 to 8) (size 9 to 14) (size 15 to 20)
#    0.000    1.500    0.000    3.750    3.500    9.000 
#    0.000    0.000    0.000    0.000    0.000    0.000 
#    0.000    0.000    0.000    0.000    0.000    0.000 
#
# Total GULP energy -89275.177775 kJ/mol
# GULP energy per Si atom -5579.698611 kJ/mol
# Density = 2.552259 g / cm^3
# Si number density = 25.580808 Si / 1000 Ang^3
#
#
#
# Elastic Constant Matrix: (Units=GPa)
#
#
# Indices 1 2 3 4 5 6 
#
# 1 200.1952 32.6981 68.2862 0.0000 -33.3599 0.0000
# 2 32.6981 41.6955 21.7434 0.0000 -16.0679 0.0000
# 3 68.2862 21.7434 158.9504 0.0000 0.4680 0.0000
# 4 0.0000 0.0000 0.0000 19.0887 0.0000 -1.6744
# 5 -33.3599 -16.0679 0.4680 0.0000 54.9217 0.0000
# 6 0.0000 0.0000 0.0000 -1.6744 0.0000 28.2468
#
#
#
# Elastic Compliance Matrix: (Units=1/GPa)
#
#
# Indices 1 2 3 4 5 6 
#
# 1 0.006897 -0.002740 -0.002598 0.000000 0.003410 0.000000
# 2 -0.002740 0.030515 -0.003019 0.000000 0.007289 0.000000
# 3 -0.002598 -0.003019 0.007828 0.000000 -0.002528 0.000000
# 4 0.000000 0.000000 0.000000 0.052661 0.000000 0.003122
# 5 0.003410 0.007289 -0.002528 0.000000 0.022433 0.000000
# 6 0.000000 0.000000 0.000000 0.003122 0.000000 0.035587
#
#
# Mechanical properties :
#
#
# Convention : Reuss Voigt Hill
#
# Bulk Modulus (GPa) = 35.05508 71.81073 53.43290
# Shear Modulus (GPa) = 27.45085 38.99232 33.22159
#
# Velocity S-wave (km/s) = 3.27938 3.90844 3.60765
# Velocity P-wave (km/s) = 5.29835 6.96426 6.18763
#
# Compressibility (1/GPa) = 0.02852654
#
# Stress axis : x y z
#
# Youngs Moduli (GPa) = 144.98815 32.77071 127.74810
#
# Poissons Ratio (x) = 0.08978 0.33193
# Poissons Ratio (y) = 0.39723 0.38563
# Poissons Ratio (z) = 0.37672 0.09892
#
# Static dielectric constant tensor:
#      x y z
#    x 2.003860 0.000000 -0.051210 
#    y 0.000000 2.179920 0.000000 
#    z -0.051210 0.000000 2.055900 
# 
# From -- ./inp_files/158022.got.cif
#   From: 2010.05.17/outbox.cif.g08.bks.cpg/sg15_80_cif.got.tgz:158022.got - 2010.06.03 18:47:42.
