data_PCOD9295504
_publ_section_title
;
Structure prediction by ZEFSAII (Michael W. Deem and Ramdas Pophale) SiO2 
 PCOD9295504
Probable space group: C 2/C
;
_chemical_formula_sum "Si O2"
_cell_formula_units_Z 40
_cell_length_a 6.572045
_cell_length_b 13.511193
_cell_length_c 25.717954
_cell_angle_alpha 90.000000
_cell_angle_beta 124.482864
_cell_angle_gamma 90.000000
_cell_volume 1882.407298
_symmetry_space_group_name_H-M "C 2/C"
_symmetry_group_IT_number 15
_symmetry_cell_setting 'monoclinic'
loop_
_space_group_symop_operation_xyz
x,y,z
-x,y,1/2-z
-x,-y,-z
x,-y,1/2+z
1/2+x,1/2+y,z
1/2-x,1/2+y,1/2-z
1/2-x,1/2-y,-z
1/2+x,1/2-y,1/2+z
loop_
_atom_site_type_symbol
_atom_site_label
_atom_site_fract_x
_atom_site_fract_y
_atom_site_fract_z
Si Si1 0.670999 0.926679 0.628069
Si Si2 0.958821 0.682605 0.184048
Si Si3 0.641044 0.384225 0.391102
Si Si4 0.351201 0.476500 0.911643
Si Si5 0.319473 0.146448 0.484224
O O1 0.682386 0.867681 0.683727
O O2 0.688473 0.857887 0.579793
O O3 0.839708 0.022382 0.645131
O O4 0.390529 0.969771 0.588362
O O5 0.895610 0.782003 0.143621
O O6 0.740211 0.601856 0.146045
O O7 0.000000 0.702285 0.250000
O O8 0.424007 0.417316 0.399021
O O9 0.902644 0.380448 0.458924
O O10 0.601706 0.428837 0.969457
O O11 0.250000 0.250000 0.500000
#
# Coordination Sequence:
#
# PCOD9295504 Si02
#       5
#     8   8   8   8   8
#     4   9  22  40  62  92 125 166 201 261 318 372
#     4  10  23  43  61  88 124 165 218 255 303 377
#     4  11  22  39  66  93 122 165 204 259 323 372
#     4   9  21  40  60  91 127 156 209 257 307 383
#     4  11  20  37  66  97 129 159 205 258 326 386
#
# _framework density 21.249386999999999
#
# number of rings (size 3 to 8) (size 9 to 14) (size 15 to 20)
#    1.200    0.800    2.000    2.400    0.000    9.600 
#    0.000    3.000    0.000    0.000    0.000    0.000 
#    0.000    0.000    0.000    0.000    0.000    0.000 
#
# Total GULP energy -111458.194767 kJ/mol
# GULP energy per Si atom -5572.909738 kJ/mol
# Density = 2.120102 g / cm^3
# Si number density = 21.249387 Si / 1000 Ang^3
#
#
#
# Elastic Constant Matrix: (Units=GPa)
#
#
# Indices 1 2 3 4 5 6 
#
# 1 93.3884 7.1524 -6.1873 0.0000 -11.3536 0.0000
# 2 7.1524 57.4541 1.4149 0.0000 -1.9606 0.0000
# 3 -6.1873 1.4149 22.1938 0.0000 -4.9661 0.0000
# 4 0.0000 0.0000 0.0000 15.6109 0.0000 -8.6226
# 5 -11.3536 -1.9606 -4.9661 0.0000 26.6852 0.0000
# 6 0.0000 0.0000 0.0000 -8.6226 0.0000 38.8558
#
#
#
# Elastic Compliance Matrix: (Units=1/GPa)
#
#
# Indices 1 2 3 4 5 6 
#
# 1 0.011830 -0.001390 0.004685 0.000000 0.005803 0.000000
# 2 -0.001390 0.017628 -0.001413 0.000000 0.000441 0.000000
# 3 0.004685 -0.001413 0.048914 0.000000 0.010992 0.000000
# 4 0.000000 0.000000 0.000000 0.073006 0.000000 0.016201
# 5 0.005803 0.000441 0.010992 0.000000 0.042021 0.000000
# 6 0.000000 0.000000 0.000000 0.016201 0.000000 0.029331
#
#
# Mechanical properties :
#
#
# Convention : Reuss Voigt Hill
#
# Bulk Modulus (GPa) = 12.17479 19.75515 15.96497
# Shear Modulus (GPa) = 20.29675 27.60747 23.95211
#
# Velocity S-wave (km/s) = 3.09393 3.60837 3.36101
# Velocity P-wave (km/s) = 4.30176 5.16502 4.75303
#
# Compressibility (1/GPa) = 0.08213696
#
# Stress axis : x y z
#
# Youngs Moduli (GPa) = 84.52818 56.72768 20.44421
#
# Poissons Ratio (x) = 0.07886 -0.09579
# Poissons Ratio (y) = 0.11750 0.02888
# Poissons Ratio (z) = -0.39604 0.08014
#
# Static dielectric constant tensor:
#      x y z
#    x 1.815410 0.000000 -0.025720 
#    y 0.000000 1.766060 0.000000 
#    z -0.025720 0.000000 1.780990 
# 
# From -- ./inp_files/229969.got.cif
#   From: 2010.05.17/outbox.cif.g08.bks.cpg/sg15_115_cif.got.tgz:229969.got - 2010.06.03 18:47:42.
