data_PCOD9295002
_publ_section_title
;
Structure prediction by ZEFSAII (Michael W. Deem and Ramdas Pophale) SiO2 
 PCOD9295002
Probable space group: C 2/C
;
_chemical_formula_sum "Si O2"
_cell_formula_units_Z 52
_cell_length_a 25.607749
_cell_length_b 8.908241
_cell_length_c 24.942302
_cell_angle_alpha 90.000000
_cell_angle_beta 152.363026
_cell_angle_gamma 90.000000
_cell_volume 2639.332723
_symmetry_space_group_name_H-M "C 2/C"
_symmetry_group_IT_number 15
_symmetry_cell_setting 'monoclinic'
loop_
_space_group_symop_operation_xyz
x,y,z
-x,y,1/2-z
-x,-y,-z
x,-y,1/2+z
1/2+x,1/2+y,z
1/2-x,1/2+y,1/2-z
1/2-x,1/2-y,-z
1/2+x,1/2-y,1/2+z
loop_
_atom_site_type_symbol
_atom_site_label
_atom_site_fract_x
_atom_site_fract_y
_atom_site_fract_z
Si Si1 0.067371 0.995621 0.368018
Si Si2 0.500000 0.045605 0.250000
Si Si3 0.656816 0.719908 0.027582
Si Si4 0.841132 0.464453 0.205152
Si Si5 0.469074 0.004225 0.033749
Si Si6 0.713416 0.939192 0.996536
Si Si7 0.155768 0.728949 0.010667
O O1 0.072760 0.152888 0.405248
O O2 0.000000 0.998205 0.250000
O O3 0.056685 0.867114 0.403687
O O4 0.194069 0.963273 0.463247
O O5 0.426184 0.970202 0.230631
O O6 0.599365 0.131728 0.369454
O O7 0.743076 0.590216 0.123526
O O8 0.739922 0.827010 0.068039
O O9 0.596146 0.840629 0.010856
O O10 0.768503 0.314179 0.131080
O O11 0.922102 0.485239 0.329327
O O12 0.394799 0.861906 0.985445
O O13 0.500000 0.000000 0.000000
O O14 0.683700 0.101280 0.992606
#
# Coordination Sequence:
#
# PCOD9295002 Si02
#       7
#     8   4   8   8   8   8   8
#     4  11  24  33  60  97 140 170 207 260 332 407
#     4  12  20  36  64  94 134 180 200 256 332 394
#     4  10  23  42  58  97 126 171 222 262 326 391
#     4  11  24  41  67  92 140 168 212 274 327 394
#     4  11  26  47  71  89 121 177 231 281 334 378
#     4  11  22  33  62  93 135 176 215 245 333 405
#     4  10  23  42  58  97 126 171 222 262 326 391
#
# _framework density 19.70195
#
# number of rings (size 3 to 8) (size 9 to 14) (size 15 to 20)
#    0.000    1.231    6.154    0.923    6.462    1.231 
#    0.000    3.077    0.000    0.000    0.000    0.000 
#    0.000    0.000    0.000    0.000    0.000    0.000 
#
# Total GULP energy -144778.847886 kJ/mol
# GULP energy per Si atom -5568.417226 kJ/mol
# Density = 1.965711 g / cm^3
# Si number density = 19.701950 Si / 1000 Ang^3
#
#
#
# Elastic Constant Matrix: (Units=GPa)
#
#
# Indices 1 2 3 4 5 6 
#
# 1 135.6762 60.8818 46.3416 0.0000 -16.6940 0.0000
# 2 60.8818 118.0260 24.7876 0.0000 -6.9858 0.0000
# 3 46.3416 24.7876 103.9140 0.0001 2.8910 0.0000
# 4 0.0000 0.0000 0.0001 19.8250 0.0000 4.9021
# 5 -16.6940 -6.9858 2.8910 0.0000 26.5266 0.0000
# 6 0.0000 0.0000 0.0000 4.9021 0.0000 13.8899
#
#
#
# Elastic Compliance Matrix: (Units=1/GPa)
#
#
# Indices 1 2 3 4 5 6 
#
# 1 0.011810 -0.004794 -0.004308 0.000000 0.006639 0.000000
# 2 -0.004794 0.011047 -0.000495 0.000000 -0.000054 0.000000
# 3 -0.004308 -0.000495 0.011777 0.000000 -0.004125 0.000000
# 4 0.000000 0.000000 0.000000 0.055264 0.000000 -0.019504
# 5 0.006639 -0.000054 -0.004125 0.000000 0.042312 0.000000
# 6 0.000000 0.000000 0.000000 -0.019504 0.000000 0.078878
#
#
# Mechanical properties :
#
#
# Convention : Reuss Voigt Hill
#
# Bulk Modulus (GPa) = 64.77199 69.07090 66.92144
# Shear Modulus (GPa) = 21.23772 27.08865 24.16319
#
# Velocity S-wave (km/s) = 3.28678 3.71202 3.50585
# Velocity P-wave (km/s) = 6.88122 7.31479 7.10131
#
# Compressibility (1/GPa) = 0.01543877
#
# Stress axis : x y z
#
# Youngs Moduli (GPa) = 84.67240 90.52512 84.90776
#
# Poissons Ratio (x) = 0.43401 0.36578
# Poissons Ratio (y) = 0.40595 0.04207
# Poissons Ratio (z) = 0.36477 0.04485
#
# Static dielectric constant tensor:
#      x y z
#    x 1.693640 0.000000 -0.023320 
#    y 0.000000 1.735020 0.000000 
#    z -0.023320 0.000000 1.773840 
# 
# From -- ./inp_files/283331.got.cif
#   From: 2010.05.17/outbox.cif.g08.bks.cpg/sg15_142_cif.got.tgz:283331.got - 2010.06.03 18:47:42.
