data_PCOD9295300
_publ_section_title
;
Structure prediction by ZEFSAII (Michael W. Deem and Ramdas Pophale) SiO2 
 PCOD9295300
Probable space group: C 2/C
;
_chemical_formula_sum "Si O2"
_cell_formula_units_Z 48
_cell_length_a 16.157349
_cell_length_b 11.393401
_cell_length_c 21.019858
_cell_angle_alpha 90.000000
_cell_angle_beta 35.288417
_cell_angle_gamma 90.000000
_cell_volume 2235.373442
_symmetry_space_group_name_H-M "C 2/C"
_symmetry_group_IT_number 15
_symmetry_cell_setting 'monoclinic'
loop_
_space_group_symop_operation_xyz
x,y,z
-x,y,1/2-z
-x,-y,-z
x,-y,1/2+z
1/2+x,1/2+y,z
1/2-x,1/2+y,1/2-z
1/2-x,1/2-y,-z
1/2+x,1/2-y,1/2+z
loop_
_atom_site_type_symbol
_atom_site_label
_atom_site_fract_x
_atom_site_fract_y
_atom_site_fract_z
Si Si1 0.956574 0.106443 0.882047
Si Si2 0.956230 0.542637 0.673907
Si Si3 0.993293 0.329409 0.564203
Si Si4 0.212432 0.949823 0.136851
Si Si5 0.730629 0.947248 0.087897
Si Si6 0.649990 0.198242 0.475942
O O1 0.980399 0.230827 0.899802
O O2 0.862879 0.111846 0.876336
O O3 0.106157 0.053615 0.763104
O O4 0.867758 0.025705 0.986336
O O5 0.827506 0.551255 0.803899
O O6 0.926920 0.442708 0.640623
O O7 0.098230 0.510633 0.626767
O O8 0.011274 0.659936 0.604218
O O9 0.141800 0.379854 0.443050
O O10 0.901271 0.280938 0.564010
O O11 0.250554 0.082175 0.091300
O O12 0.771034 0.812730 0.048422
#
# Coordination Sequence:
#
# PCOD9295300 Si02
#       6
#     8   8   8   8   8   8
#     4  11  24  40  69  98 124 165 221 264 307 376
#     4  10  23  42  68  92 128 168 215 261 316 378
#     4  11  24  43  65  92 131 170 209 262 326 378
#     4  10  23  42  68  92 128 168 215 261 316 378
#     4  11  24  40  69  98 124 165 221 264 307 376
#     4  11  24  43  65  92 131 170 209 262 326 378
#
# _framework density 21.472922000000001
#
# number of rings (size 3 to 8) (size 9 to 14) (size 15 to 20)
#    0.000    1.333    3.333    3.000    4.667    6.000 
#    0.000    0.000    0.000    0.000    0.000    0.000 
#    0.000    0.000    0.000    0.000    0.000    0.000 
#
# Total GULP energy -134157.375822 kJ/mol
# GULP energy per Si atom -5589.890659 kJ/mol
# Density = 2.142405 g / cm^3
# Si number density = 21.472922 Si / 1000 Ang^3
#
#
#
# Elastic Constant Matrix: (Units=GPa)
#
#
# Indices 1 2 3 4 5 6 
#
# 1 51.0983 2.9692 4.3689 0.0000 6.2587 0.0000
# 2 2.9692 51.6453 32.8143 0.0000 5.0028 0.0000
# 3 4.3689 32.8143 175.1582 0.0000 29.4973 0.0000
# 4 0.0000 0.0000 0.0000 5.5934 0.0000 -2.1589
# 5 6.2587 5.0028 29.4973 0.0000 12.7147 0.0000
# 6 0.0000 0.0000 0.0000 -2.1589 0.0000 22.4126
#
#
#
# Elastic Compliance Matrix: (Units=1/GPa)
#
#
# Indices 1 2 3 4 5 6 
#
# 1 0.021317 -0.001183 0.002263 0.000000 -0.015276 0.000000
# 2 -0.001183 0.022062 -0.004497 0.000000 0.002334 0.000000
# 3 0.002263 -0.004497 0.010478 0.000000 -0.023654 0.000000
# 4 0.000000 0.000000 0.000000 0.185687 0.000000 0.017886
# 5 -0.015276 0.002334 -0.023654 0.000000 0.140125 0.000000
# 6 0.000000 0.000000 0.000000 0.017886 0.000000 0.046341
#
#
# Mechanical properties :
#
#
# Convention : Reuss Voigt Hill
#
# Bulk Modulus (GPa) = 21.26656 39.80073 30.53364
# Shear Modulus (GPa) = 11.14781 23.99410 17.57096
#
# Velocity S-wave (km/s) = 2.28097 3.34640 2.86367
# Velocity P-wave (km/s) = 4.10640 5.78850 5.01843
#
# Compressibility (1/GPa) = 0.04702219
#
# Stress axis : x y z
#
# Youngs Moduli (GPa) = 46.91196 45.32715 95.43392
#
# Poissons Ratio (x) = 0.05364 -0.21593
# Poissons Ratio (y) = 0.05551 0.42912
# Poissons Ratio (z) = -0.10614 0.20382
#
# Static dielectric constant tensor:
#      x y z
#    x 1.784900 0.000000 0.009360 
#    y 0.000000 1.731450 0.000000 
#    z 0.009360 0.000000 1.778780 
# 
# From -- ./inp_files/243904.got.cif
#   From: 2010.05.17/outbox.cif.g08.bks.cpg/sg15_122_cif.got.tgz:243904.got - 2010.06.03 18:47:42.
