data_PCOD9295981
_publ_section_title
;
Structure prediction by ZEFSAII (Michael W. Deem and Ramdas Pophale) SiO2 
 PCOD9295981
Probable space group: C 2/C
;
_chemical_formula_sum "Si O2"
_cell_formula_units_Z 48
_cell_length_a 24.735086
_cell_length_b 13.881841
_cell_length_c 8.204837
_cell_angle_alpha 90.000000
_cell_angle_beta 49.132155
_cell_angle_gamma 90.000000
_cell_volume 2130.487867
_symmetry_space_group_name_H-M "C 2/C"
_symmetry_group_IT_number 15
_symmetry_cell_setting 'monoclinic'
loop_
_space_group_symop_operation_xyz
x,y,z
-x,y,1/2-z
-x,-y,-z
x,-y,1/2+z
1/2+x,1/2+y,z
1/2-x,1/2+y,1/2-z
1/2-x,1/2-y,-z
1/2+x,1/2-y,1/2+z
loop_
_atom_site_type_symbol
_atom_site_label
_atom_site_fract_x
_atom_site_fract_y
_atom_site_fract_z
Si Si1 0.813494 0.854810 0.506742
Si Si2 0.720866 0.531325 0.748635
Si Si3 0.886738 0.459613 0.995238
Si Si4 0.570291 0.143376 0.750145
Si Si5 0.206740 0.769560 0.420212
Si Si6 0.551328 0.222456 0.302561
O O1 0.786315 0.922746 0.415185
O O2 0.755964 0.775802 0.679904
O O3 0.885909 0.800823 0.311865
O O4 0.820231 0.931571 0.641381
O O5 0.804080 0.516682 0.627896
O O6 0.695866 0.617915 0.913910
O O7 0.903205 0.411908 0.136778
O O8 0.928417 0.557838 0.883152
O O9 0.911815 0.378864 0.817530
O O10 0.631939 0.216366 0.577205
O O11 0.499899 0.201893 0.943091
O O12 0.250000 0.750000 0.500000
O O13 0.500000 0.247233 0.250000
#
# Coordination Sequence:
#
# PCOD9295981 Si02
#       6
#     8   8   8   8   8   8
#     4  12  25  43  69  97 138 171 224 277 327 401
#     4  12  24  41  69 104 129 172 228 276 330 384
#     4  11  21  39  66  98 134 165 214 279 332 385
#     4  11  23  39  66 100 135 172 215 268 338 398
#     4  12  22  41  66  99 136 176 218 269 326 399
#     4  10  23  44  63  92 135 179 214 271 336 395
#
# _framework density 22.530051
#
# number of rings (size 3 to 8) (size 9 to 14) (size 15 to 20)
#    0.000    0.667    5.000    4.000    0.000    0.000 
#    0.000    5.833    0.000    0.000    0.000    0.000 
#    0.000    0.000    0.000    0.000    0.000    0.000 
#
# Total GULP energy -134447.474830 kJ/mol
# GULP energy per Si atom -5601.978118 kJ/mol
# Density = 2.247877 g / cm^3
# Si number density = 22.530051 Si / 1000 Ang^3
#
#
#
# Elastic Constant Matrix: (Units=GPa)
#
#
# Indices 1 2 3 4 5 6 
#
# 1 71.5871 26.8663 50.0858 0.0000 -19.0765 0.0000
# 2 26.8663 131.3779 63.6726 0.0000 -30.8977 0.0000
# 3 50.0858 63.6726 139.6877 0.0000 -30.2876 0.0000
# 4 0.0000 0.0000 0.0000 51.9692 0.0000 6.1089
# 5 -19.0765 -30.8977 -30.2876 0.0000 46.0484 0.0000
# 6 0.0000 0.0000 0.0000 6.1089 0.0000 22.7440
#
#
#
# Elastic Compliance Matrix: (Units=1/GPa)
#
#
# Indices 1 2 3 4 5 6 
#
# 1 0.019262 -0.000097 -0.006002 0.000000 0.003967 0.000000
# 2 -0.000097 0.010532 -0.003782 0.000000 0.004539 0.000000
# 3 -0.006002 -0.003782 0.011600 0.000000 0.002606 0.000000
# 4 0.000000 0.000000 0.000000 0.019869 0.000000 -0.005337
# 5 0.003967 0.004539 0.002606 0.000000 0.028119 0.000000
# 6 0.000000 0.000000 0.000000 -0.005337 0.000000 0.045401
#
#
# Mechanical properties :
#
#
# Convention : Reuss Voigt Hill
#
# Bulk Modulus (GPa) = 46.22881 69.32245 57.77563
# Shear Modulus (GPa) = 30.91094 37.62084 34.26589
#
# Velocity S-wave (km/s) = 3.70805 4.09076 3.90410
# Velocity P-wave (km/s) = 6.23668 7.29027 6.78396
#
# Compressibility (1/GPa) = 0.02163153
#
# Stress axis : x y z
#
# Youngs Moduli (GPa) = 51.91612 94.95083 86.21005
#
# Poissons Ratio (x) = 0.00923 0.51744
# Poissons Ratio (y) = 0.00505 0.32601
# Poissons Ratio (z) = 0.31160 0.35906
#
# Static dielectric constant tensor:
#      x y z
#    x 2.029780 0.000000 0.074940 
#    y 0.000000 1.797110 0.000000 
#    z 0.074940 0.000000 1.870710 
# 
# From -- ./inp_files/54978.got.cif
#   From: 2010.05.17/outbox.cif.g08.bks.cpg/sg15_28_cif.got.tgz:54978.got - 2010.06.03 18:47:42.
