data_PCOD9295275
_publ_section_title
;
Structure prediction by ZEFSAII (Michael W. Deem and Ramdas Pophale) SiO2 
 PCOD9295275
Probable space group: C 2/C
;
_chemical_formula_sum "Si O2"
_cell_formula_units_Z 64
_cell_length_a 14.556408
_cell_length_b 14.526823
_cell_length_c 18.328636
_cell_angle_alpha 90.000000
_cell_angle_beta 50.424623
_cell_angle_gamma 90.000000
_cell_volume 2987.373005
_symmetry_space_group_name_H-M "C 2/C"
_symmetry_group_IT_number 15
_symmetry_cell_setting 'monoclinic'
loop_
_space_group_symop_operation_xyz
x,y,z
-x,y,1/2-z
-x,-y,-z
x,-y,1/2+z
1/2+x,1/2+y,z
1/2-x,1/2+y,1/2-z
1/2-x,1/2-y,-z
1/2+x,1/2-y,1/2+z
loop_
_atom_site_type_symbol
_atom_site_label
_atom_site_fract_x
_atom_site_fract_y
_atom_site_fract_z
Si Si1 0.895733 0.184825 0.130277
Si Si2 0.354265 0.720217 0.312947
Si Si3 0.366092 0.404204 0.306940
Si Si4 0.664584 0.472795 0.336641
Si Si5 0.374373 0.991273 0.847895
Si Si6 0.363146 0.654277 0.531708
Si Si7 0.738588 0.448377 0.544524
Si Si8 0.791503 0.283855 0.900034
O O1 0.840324 0.223292 0.232747
O O2 0.891274 0.073735 0.141379
O O3 0.821059 0.206092 0.096599
O O4 0.031325 0.218535 0.050758
O O5 0.500000 0.724532 0.250000
O O6 0.264304 0.796038 0.392802
O O7 0.296136 0.627420 0.377107
O O8 0.500000 0.441499 0.250000
O O9 0.317452 0.432212 0.252523
O O10 0.285522 0.454306 0.407385
O O11 0.366349 0.296760 0.323949
O O12 0.778313 0.483981 0.332889
O O13 0.591846 0.395397 0.417891
O O14 0.500000 0.013516 0.750000
O O15 0.356630 0.882171 0.870263
O O16 0.356685 0.042105 0.935013
O O17 0.350368 0.577474 0.475910
O O18 0.750000 0.250000 0.000000
#
# Coordination Sequence:
#
# PCOD9295275 Si02
#       8
#     8   8   8   8   8   8   8   8
#     4  11  23  43  67  95 137 171 222 280 328 404
#     4  12  24  44  69  99 138 171 220 284 340 406
#     4  12  23  40  68  97 132 170 225 279 333 393
#     4  10  23  42  67  99 130 171 226 271 335 398
#     4  10  23  47  70  94 137 180 222 279 342 402
#     4  11  24  41  68  98 129 176 220 272 342 392
#     4  11  22  42  66 101 126 171 227 267 342 398
#     4  11  24  43  65  97 134 180 227 273 333 396
#
# _framework density 21.423504000000001
#
# number of rings (size 3 to 8) (size 9 to 14) (size 15 to 20)
#    0.000    1.000    3.750    3.000    1.750    2.000 
#    6.750    0.625    0.000    0.000    0.000    0.000 
#    0.000    0.000    0.000    0.000    0.000    0.000 
#
# Total GULP energy -178436.055052 kJ/mol
# GULP energy per Si atom -5576.126720 kJ/mol
# Density = 2.137474 g / cm^3
# Si number density = 21.423504 Si / 1000 Ang^3
#
#
#
# Elastic Constant Matrix: (Units=GPa)
#
#
# Indices 1 2 3 4 5 6 
#
# 1 44.7585 13.7021 50.9631 0.0000 11.7586 0.0000
# 2 13.7021 82.0245 30.6679 0.0000 9.9590 0.0000
# 3 50.9631 30.6679 161.8017 0.0000 9.8988 0.0000
# 4 0.0000 0.0000 0.0000 -8.9768 0.0000 19.7954
# 5 11.7586 9.9590 9.8988 0.0000 29.8157 0.0000
# 6 0.0000 0.0000 0.0000 19.7954 0.0000 18.3266
#
#
#
# Elastic Compliance Matrix: (Units=1/GPa)
#
#
# Indices 1 2 3 4 5 6 
#
# 1 0.038294 -0.000855 -0.011221 0.000000 -0.011091 0.000000
# 2 -0.000855 0.013537 -0.002083 0.000000 -0.003493 0.000000
# 3 -0.011221 -0.002083 0.009999 0.000000 0.001801 0.000000
# 4 0.000000 0.000000 0.000000 -0.032939 0.000000 0.035579
# 5 -0.011091 -0.003493 0.001801 0.000000 0.038482 0.000000
# 6 0.000000 0.000000 0.000000 0.035579 0.000000 0.016134
#
#
# Mechanical properties :
#
#
# Convention : Reuss Voigt Hill
#
# Bulk Modulus (GPa) = 29.83919 53.25009 41.54464
# Shear Modulus (GPa) = 40.65165 20.71656 30.68410
#
# Velocity S-wave (km/s) = 4.36079 3.11304 3.78863
# Velocity P-wave (km/s) = 6.27007 6.15071 6.21068
#
# Compressibility (1/GPa) = 0.03351298
#
# Stress axis : x y z
#
# Youngs Moduli (GPa) = 26.11370 73.87082 100.00715
#
# Poissons Ratio (x) = 0.06316 1.12218
# Poissons Ratio (y) = 0.02233 0.20830
# Poissons Ratio (z) = 0.29302 0.15386
#
# Static dielectric constant tensor:
#      x y z
#    x 1.763310 0.000000 -0.043710 
#    y 0.000000 1.830340 0.000000 
#    z -0.043710 0.000000 1.837130 
# 
# From -- ./inp_files/205705.got.cif
#   From: 2010.05.17/outbox.cif.g08.bks.cpg/sg15_103_cif.got.tgz:205705.got - 2010.06.03 18:47:42.
