data_PCOD9295987
_publ_section_title
;
Structure prediction by ZEFSAII (Michael W. Deem and Ramdas Pophale) SiO2 
 PCOD9295987
Probable space group: C 2/C
;
_chemical_formula_sum "Si O2"
_cell_formula_units_Z 48
_cell_length_a 11.666691
_cell_length_b 15.269402
_cell_length_c 14.076206
_cell_angle_alpha 90.000000
_cell_angle_beta 133.152614
_cell_angle_gamma 90.000000
_cell_volume 1829.368468
_symmetry_space_group_name_H-M "C 2/C"
_symmetry_group_IT_number 15
_symmetry_cell_setting 'monoclinic'
loop_
_space_group_symop_operation_xyz
x,y,z
-x,y,1/2-z
-x,-y,-z
x,-y,1/2+z
1/2+x,1/2+y,z
1/2-x,1/2+y,1/2-z
1/2-x,1/2-y,-z
1/2+x,1/2-y,1/2+z
loop_
_atom_site_type_symbol
_atom_site_label
_atom_site_fract_x
_atom_site_fract_y
_atom_site_fract_z
Si Si1 0.453279 0.327604 0.929332
Si Si2 0.649489 0.064807 0.214615
Si Si3 0.731341 0.191807 0.585329
Si Si4 0.235540 0.597649 0.875777
Si Si5 0.500000 0.193642 0.250000
Si Si6 0.500000 0.745081 0.250000
Si Si7 0.812770 0.010652 0.120601
O O1 0.298400 0.387559 0.849644
O O2 0.420758 0.230483 0.949732
O O3 0.493318 0.312034 0.841490
O O4 0.590818 0.377714 0.061440
O O5 0.500401 0.122138 0.163514
O O6 0.643978 0.967005 0.253449
O O7 0.702644 0.058639 0.136274
O O8 0.750000 0.250000 0.500000
O O9 0.767445 0.091146 0.600307
O O10 0.875831 0.237770 0.722431
O O11 0.147074 0.689196 0.837496
O O12 0.266438 0.548805 0.992370
O O13 0.000000 0.016357 0.250000
#
# Coordination Sequence:
#
# PCOD9295987 Si02
#       7
#     8   8   8   8   4   4   8
#     4  11  24  44  68 102 137 190 238 293 357 430
#     4  11  24  44  73 103 142 189 236 296 361 420
#     4  11  25  41  67 100 141 180 237 292 357 420
#     4  12  26  47  72 105 148 188 246 295 367 428
#     4  10  23  44  63  98 142 182 228 292 353 420
#     4  12  27  48  71 104 144 196 238 306 361 422
#     4  12  24  44  74 109 141 190 245 294 360 443
#
# _framework density 26.238565000000001
#
# number of rings (size 3 to 8) (size 9 to 14) (size 15 to 20)
#    0.000    0.667    2.500    5.500    2.333    4.000 
#    0.000    5.000    0.000    0.000    0.000    0.000 
#    0.000    0.000    0.000    0.000    0.000    0.000 
#
# Total GULP energy -134342.749421 kJ/mol
# GULP energy per Si atom -5597.614559 kJ/mol
# Density = 2.617884 g / cm^3
# Si number density = 26.238565 Si / 1000 Ang^3
#
#
#
# Elastic Constant Matrix: (Units=GPa)
#
#
# Indices 1 2 3 4 5 6 
#
# 1 73.3160 16.7946 11.3416 0.0000 -13.0708 0.0000
# 2 16.7946 143.9515 10.3658 0.0000 6.5213 0.0000
# 3 11.3416 10.3658 58.0868 0.0000 -8.1881 0.0000
# 4 0.0000 0.0000 0.0000 33.9893 0.0000 -8.4400
# 5 -13.0708 6.5213 -8.1881 0.0000 44.0563 0.0000
# 6 0.0000 0.0000 0.0000 -8.4400 0.0000 39.6296
#
#
#
# Elastic Compliance Matrix: (Units=1/GPa)
#
#
# Indices 1 2 3 4 5 6 
#
# 1 0.015151 -0.001822 -0.002014 0.000000 0.004390 0.000000
# 2 -0.001822 0.007331 -0.001213 0.000000 -0.001851 0.000000
# 3 -0.002014 -0.001213 0.018245 0.000000 0.002973 0.000000
# 4 0.000000 0.000000 0.000000 0.031064 0.000000 0.006616
# 5 0.004390 -0.001851 0.002973 0.000000 0.024827 0.000000
# 6 0.000000 0.000000 0.000000 0.006616 0.000000 0.026643
#
#
# Mechanical properties :
#
#
# Convention : Reuss Voigt Hill
#
# Bulk Modulus (GPa) = 32.65026 39.15092 35.90059
# Shear Modulus (GPa) = 34.82674 39.32519 37.07597
#
# Velocity S-wave (km/s) = 3.64718 3.87558 3.76311
# Velocity P-wave (km/s) = 5.49605 5.91442 5.70907
#
# Compressibility (1/GPa) = 0.03062762
#
# Stress axis : x y z
#
# Youngs Moduli (GPa) = 66.00148 136.41585 54.81095
#
# Poissons Ratio (x) = 0.24848 0.11041
# Poissons Ratio (y) = 0.12022 0.06651
# Poissons Ratio (z) = 0.13295 0.16553
#
# Static dielectric constant tensor:
#      x y z
#    x 1.305140 0.000000 -1.253010 
#    y 0.000000 1.967520 0.000000 
#    z -1.253010 0.000000 -0.034570 
# 
# From -- ./inp_files/144420.got.cif
#   From: 2010.05.17/outbox.cif.g08.bks.cpg/sg15_73_cif.got.tgz:144420.got - 2010.06.03 18:47:42.
