data_PCOD9295873
_publ_section_title
;
Structure prediction by ZEFSAII (Michael W. Deem and Ramdas Pophale) SiO2 
 PCOD9295873
Probable space group: C 2/C
;
_chemical_formula_sum "Si O2"
_cell_formula_units_Z 52
_cell_length_a 21.964435
_cell_length_b 10.441490
_cell_length_c 11.978690
_cell_angle_alpha 90.000000
_cell_angle_beta 118.293461
_cell_angle_gamma 90.000000
_cell_volume 2419.004706
_symmetry_space_group_name_H-M "C 2/C"
_symmetry_group_IT_number 15
_symmetry_cell_setting 'monoclinic'
loop_
_space_group_symop_operation_xyz
x,y,z
-x,y,1/2-z
-x,-y,-z
x,-y,1/2+z
1/2+x,1/2+y,z
1/2-x,1/2+y,1/2-z
1/2-x,1/2-y,-z
1/2+x,1/2-y,1/2+z
loop_
_atom_site_type_symbol
_atom_site_label
_atom_site_fract_x
_atom_site_fract_y
_atom_site_fract_z
Si Si1 0.425245 0.725645 0.156546
Si Si2 0.622779 0.081762 0.277079
Si Si3 0.000000 0.500000 0.500000
Si Si4 0.657880 0.272518 0.119358
Si Si5 0.895926 0.298901 0.496985
Si Si6 0.311499 0.823594 0.215024
Si Si7 0.428513 0.503535 0.505918
O O1 0.500000 0.780180 0.250000
O O2 0.369577 0.737057 0.205403
O O3 0.393582 0.791823 0.017658
O O4 0.435113 0.580066 0.124427
O O5 0.555293 0.031464 0.152792
O O6 0.653997 0.193611 0.227887
O O7 0.608512 0.135302 0.386843
O O8 0.675943 0.963507 0.325223
O O9 0.959584 0.365471 0.489652
O O10 0.733843 0.276764 0.133922
O O11 0.628596 0.416655 0.107745
O O12 0.829604 0.327706 0.361929
O O13 0.906698 0.147258 0.510750
O O14 0.500000 0.500000 0.500000
#
# Coordination Sequence:
#
# PCOD9295873 Si02
#       7
#     8   8   4   8   8   8   8
#     4  10  24  44  73 101 142 192 243 302 370 437
#     4  11  26  44  71 104 141 188 246 300 370 440
#     4  10  24  44  68 102 144 180 232 304 358 426
#     4  10  26  47  68 103 148 194 241 305 375 443
#     4  11  25  44  71 107 140 189 244 305 368 445
#     4  11  26  46  71 104 147 193 245 306 377 449
#     4  10  23  43  71 106 143 186 243 304 372 440
#
# _framework density 21.496444
#
# number of rings (size 3 to 8) (size 9 to 14) (size 15 to 20)
#    0.923    0.615    0.000    2.769   10.769    4.308 
#    0.000    0.000    0.000    0.000    0.000    0.000 
#    0.000    0.000    0.000    0.000    0.000    0.000 
#
# Total GULP energy -144760.175068 kJ/mol
# GULP energy per Si atom -5567.699041 kJ/mol
# Density = 2.144752 g / cm^3
# Si number density = 21.496444 Si / 1000 Ang^3
#
#
#
# Elastic Constant Matrix: (Units=GPa)
#
#
# Indices 1 2 3 4 5 6 
#
# 1 135.8461 52.7438 53.3216 0.0000 2.5663 0.0000
# 2 52.7438 130.3538 34.8740 0.0000 -21.9043 0.0000
# 3 53.3216 34.8740 81.4053 0.0000 -17.2213 0.0000
# 4 0.0000 0.0000 0.0000 32.3714 0.0000 -17.6117
# 5 2.5663 -21.9043 -17.2213 0.0000 31.4070 0.0000
# 6 0.0000 0.0000 0.0000 -17.6117 0.0000 21.1387
#
#
#
# Elastic Compliance Matrix: (Units=1/GPa)
#
#
# Indices 1 2 3 4 5 6 
#
# 1 0.012313 -0.004242 -0.008016 0.000000 -0.008360 0.000000
# 2 -0.004242 0.010737 -0.000185 0.000000 0.007734 0.000000
# 3 -0.008016 -0.000185 0.020051 0.000000 0.011521 0.000000
# 4 0.000000 0.000000 0.000000 0.056503 0.000000 0.047076
# 5 -0.008360 0.007734 0.011521 0.000000 0.044234 0.000000
# 6 0.000000 0.000000 0.000000 0.047076 0.000000 0.086528
#
#
# Mechanical properties :
#
#
# Convention : Reuss Voigt Hill
#
# Bulk Modulus (GPa) = 54.90219 69.94266 62.42243
# Shear Modulus (GPa) = 19.13324 30.76110 24.94717
#
# Velocity S-wave (km/s) = 2.98663 3.78694 3.41034
# Velocity P-wave (km/s) = 6.12282 7.19227 6.67898
#
# Compressibility (1/GPa) = 0.01821421
#
# Stress axis : x y z
#
# Youngs Moduli (GPa) = 81.21599 93.13650 49.87159
#
# Poissons Ratio (x) = 0.39511 0.39979
# Poissons Ratio (y) = 0.34454 0.00922
# Poissons Ratio (z) = 0.65106 0.01722
#
# Static dielectric constant tensor:
#      x y z
#    x 1.793890 0.000000 0.015740 
#    y 0.000000 1.774750 0.000000 
#    z 0.015740 0.000000 1.839470 
# 
# From -- ./inp_files/111192.got.cif
#   From: 2010.05.17/outbox.cif.g08.bks.cpg/sg15_56_cif.got.tgz:111192.got - 2010.06.03 18:47:42.
