data_PCOD9295835
_publ_section_title
;
Structure prediction by ZEFSAII (Michael W. Deem and Ramdas Pophale) SiO2 
 PCOD9295835
Probable space group: C 2/C
;
_chemical_formula_sum "Si O2"
_cell_formula_units_Z 48
_cell_length_a 13.077626
_cell_length_b 11.739523
_cell_length_c 20.718207
_cell_angle_alpha 90.000000
_cell_angle_beta 135.087980
_cell_angle_gamma 90.000000
_cell_volume 2245.683935
_symmetry_space_group_name_H-M "C 2/C"
_symmetry_group_IT_number 15
_symmetry_cell_setting 'monoclinic'
loop_
_space_group_symop_operation_xyz
x,y,z
-x,y,1/2-z
-x,-y,-z
x,-y,1/2+z
1/2+x,1/2+y,z
1/2-x,1/2+y,1/2-z
1/2-x,1/2-y,-z
1/2+x,1/2-y,1/2+z
loop_
_atom_site_type_symbol
_atom_site_label
_atom_site_fract_x
_atom_site_fract_y
_atom_site_fract_z
Si Si1 0.458246 0.308986 0.468554
Si Si2 0.473108 0.990184 0.807086
Si Si3 0.598144 0.075417 0.994295
Si Si4 0.406846 0.755072 0.602369
Si Si5 0.071447 0.995449 0.348057
Si Si6 0.147398 0.961670 0.632520
O O1 0.399639 0.207301 0.485154
O O2 0.485743 0.255797 0.410631
O O3 0.605001 0.356989 0.567356
O O4 0.364537 0.422788 0.415471
O O5 0.500000 0.047609 0.750000
O O6 0.563800 0.872740 0.849111
O O7 0.303981 0.958757 0.734573
O O8 0.526703 0.059969 0.892330
O O9 0.762629 0.031848 0.069202
O O10 0.500000 0.000000 0.000000
O O11 0.250000 0.750000 0.500000
O O12 0.427528 0.641908 0.652701
O O13 0.000000 0.039044 0.250000
O O14 0.975144 0.030812 0.366759
#
# Coordination Sequence:
#
# PCOD9295835 Si02
#       6
#     8   8   8   8   8   8
#     4  10  23  43  70  90 142 186 229 282 354 415
#     4  12  25  41  71 106 136 176 241 291 352 419
#     4  12  24  45  71 103 139 180 234 293 349 426
#     4  11  20  40  70  98 133 178 231 295 347 408
#     4  11  24  42  69 101 139 183 233 290 362 417
#     4  10  25  45  66  99 140 187 235 287 352 424
#
# _framework density 21.374334000000001
#
# number of rings (size 3 to 8) (size 9 to 14) (size 15 to 20)
#    0.000    1.000    3.333    2.500    4.667    4.667 
#    0.000    0.000    0.000    0.000    0.000    0.000 
#    0.000    0.000    0.000    0.000    0.000    0.000 
#
# Total GULP energy -134230.341403 kJ/mol
# GULP energy per Si atom -5592.930892 kJ/mol
# Density = 2.132568 g / cm^3
# Si number density = 21.374334 Si / 1000 Ang^3
#
#
#
# Elastic Constant Matrix: (Units=GPa)
#
#
# Indices 1 2 3 4 5 6 
#
# 1 98.6474 29.4216 59.8155 0.0000 5.5488 0.0000
# 2 29.4216 79.1807 23.4023 0.0000 -14.5996 0.0000
# 3 59.8155 23.4023 158.1108 0.0000 -3.9916 0.0000
# 4 0.0000 0.0000 0.0000 17.7700 0.0000 -9.2301
# 5 5.5488 -14.5996 -3.9916 0.0000 46.4041 0.0000
# 6 0.0000 0.0000 0.0000 -9.2301 0.0000 26.3388
#
#
#
# Elastic Compliance Matrix: (Units=1/GPa)
#
#
# Indices 1 2 3 4 5 6 
#
# 1 0.014764 -0.004690 -0.004984 0.000000 -0.003670 0.000000
# 2 -0.004690 0.015480 -0.000381 0.000000 0.005398 0.000000
# 3 -0.004984 -0.000381 0.008297 0.000000 0.001190 0.000000
# 4 0.000000 0.000000 0.000000 0.068798 0.000000 0.024109
# 5 -0.003670 0.005398 0.001190 0.000000 0.023789 0.000000
# 6 0.000000 0.000000 0.000000 0.024109 0.000000 0.046416
#
#
# Mechanical properties :
#
#
# Convention : Reuss Voigt Hill
#
# Bulk Modulus (GPa) = 54.25400 62.35751 58.30575
# Shear Modulus (GPa) = 24.53431 32.98920 28.76176
#
# Velocity S-wave (km/s) = 3.39165 3.93288 3.67225
# Velocity P-wave (km/s) = 6.38558 7.06121 6.73188
#
# Compressibility (1/GPa) = 0.01843182
#
# Stress axis : x y z
#
# Youngs Moduli (GPa) = 67.73083 64.60053 120.53101
#
# Poissons Ratio (x) = 0.30295 0.60074
# Poissons Ratio (y) = 0.31763 0.04589
# Poissons Ratio (z) = 0.33758 0.02460
#
# Static dielectric constant tensor:
#      x y z
#    x 1.774840 0.000000 -0.012240 
#    y 0.000000 1.750860 0.000000 
#    z -0.012240 0.000000 1.756550 
# 
# From -- ./inp_files/243980.got.cif
#   From: 2010.05.17/outbox.cif.g08.bks.cpg/sg15_122_cif.got.tgz:243980.got - 2010.06.03 18:47:42.
