data_PCOD9295881
_publ_section_title
;
Structure prediction by ZEFSAII (Michael W. Deem and Ramdas Pophale) SiO2 
 PCOD9295881
Probable space group: C 2/C
;
_chemical_formula_sum "Si O2"
_cell_formula_units_Z 36
_cell_length_a 18.391084
_cell_length_b 8.411655
_cell_length_c 12.726085
_cell_angle_alpha 90.000000
_cell_angle_beta 116.895601
_cell_angle_gamma 90.000000
_cell_volume 1755.766584
_symmetry_space_group_name_H-M "C 2/C"
_symmetry_group_IT_number 15
_symmetry_cell_setting 'monoclinic'
loop_
_space_group_symop_operation_xyz
x,y,z
-x,y,1/2-z
-x,-y,-z
x,-y,1/2+z
1/2+x,1/2+y,z
1/2-x,1/2+y,1/2-z
1/2-x,1/2-y,-z
1/2+x,1/2-y,1/2+z
loop_
_atom_site_type_symbol
_atom_site_label
_atom_site_fract_x
_atom_site_fract_y
_atom_site_fract_z
Si Si1 0.069612 0.414906 0.478828
Si Si2 0.326818 0.438504 0.679348
Si Si3 0.787340 0.577937 0.051687
Si Si4 0.000000 0.195744 0.250000
Si Si5 0.697433 0.774738 0.721900
O O1 0.131207 0.536147 0.459723
O O2 0.125831 0.312504 0.593790
O O3 0.000000 0.500000 0.500000
O O4 0.027943 0.305588 0.364383
O O5 0.280679 0.456311 0.536962
O O6 0.421497 0.407351 0.728449
O O7 0.311463 0.602431 0.732041
O O8 0.282133 0.300974 0.715956
O O9 0.805141 0.593957 0.186276
O O10 0.750000 0.750000 0.000000
#
# Coordination Sequence:
#
# PCOD9295881 Si02
#       5
#     8   8   8   4   8
#     4  11  25  41  66 102 136 176 220 283 339 398
#     4  10  25  42  68 100 131 178 221 278 334 397
#     4   9  21  42  69  94 129 175 228 269 329 394
#     4  12  28  42  64 102 144 168 224 280 338 398
#     4  10  23  43  71  93 132 180 229 272 334 401
#
# _framework density 20.503865000000001
#
# number of rings (size 3 to 8) (size 9 to 14) (size 15 to 20)
#    0.000    1.778    0.000    1.333   15.556    6.222 
#    0.000    0.000    0.000    0.000    0.000    0.000 
#    0.000    0.000    0.000    0.000    0.000    0.000 
#
# Total GULP energy -100614.806455 kJ/mol
# GULP energy per Si atom -5589.711470 kJ/mol
# Density = 2.045720 g / cm^3
# Si number density = 20.503865 Si / 1000 Ang^3
#
#
#
# Elastic Constant Matrix: (Units=GPa)
#
#
# Indices 1 2 3 4 5 6 
#
# 1 180.2086 64.6451 50.1771 0.0000 19.0801 0.0000
# 2 64.6451 100.7996 43.8664 0.0000 -3.2916 0.0000
# 3 50.1771 43.8664 153.7923 0.0000 4.4367 0.0000
# 4 0.0000 0.0000 0.0000 26.0118 0.0000 -6.7332
# 5 19.0801 -3.2916 4.4367 0.0000 22.4524 0.0000
# 6 0.0000 0.0000 0.0000 -6.7332 0.0000 37.9417
#
#
#
# Elastic Compliance Matrix: (Units=1/GPa)
#
#
# Indices 1 2 3 4 5 6 
#
# 1 0.008575 -0.005294 -0.001061 0.000000 -0.007854 0.000000
# 2 -0.005294 0.014716 -0.002677 0.000000 0.007185 0.000000
# 3 -0.001061 -0.002677 0.007641 0.000000 -0.001001 0.000000
# 4 0.000000 0.000000 0.000000 0.040295 0.000000 0.007151
# 5 -0.007854 0.007185 -0.001001 0.000000 0.052464 0.000000
# 6 0.000000 0.000000 0.000000 0.007151 0.000000 0.027625
#
#
# Mechanical properties :
#
#
# Convention : Reuss Voigt Hill
#
# Bulk Modulus (GPa) = 77.72063 83.57529 80.64796
# Shear Modulus (GPa) = 28.79012 35.68863 32.23937
#
# Velocity S-wave (km/s) = 3.75124 4.17655 3.96960
# Velocity P-wave (km/s) = 7.53326 8.00671 7.77359
#
# Compressibility (1/GPa) = 0.01286660
#
# Stress axis : x y z
#
# Youngs Moduli (GPa) = 116.61418 67.95440 130.87217
#
# Poissons Ratio (x) = 0.35976 0.13888
# Poissons Ratio (y) = 0.61738 0.35039
# Poissons Ratio (z) = 0.12375 0.18194
#
# Static dielectric constant tensor:
#      x y z
#    x 1.694900 0.000000 -0.021880 
#    y 0.000000 1.760630 0.000000 
#    z -0.021880 0.000000 1.769300 
# 
# From -- ./inp_files/102454.got.cif
#   From: 2010.05.17/outbox.cif.g08.bks.cpg/sg15_52_cif.got.tgz:102454.got - 2010.06.03 18:47:42.
