data_PCOD9295358
_publ_section_title
;
Structure prediction by ZEFSAII (Michael W. Deem and Ramdas Pophale) SiO2 
 PCOD9295358
Probable space group: C 2/C
;
_chemical_formula_sum "Si O2"
_cell_formula_units_Z 32
_cell_length_a 10.799122
_cell_length_b 12.727483
_cell_length_c 20.698644
_cell_angle_alpha 90.000000
_cell_angle_beta 151.914959
_cell_angle_gamma 90.000000
_cell_volume 1339.344530
_symmetry_space_group_name_H-M "C 2/C"
_symmetry_group_IT_number 15
_symmetry_cell_setting 'monoclinic'
loop_
_space_group_symop_operation_xyz
x,y,z
-x,y,1/2-z
-x,-y,-z
x,-y,1/2+z
1/2+x,1/2+y,z
1/2-x,1/2+y,1/2-z
1/2-x,1/2-y,-z
1/2+x,1/2-y,1/2+z
loop_
_atom_site_type_symbol
_atom_site_label
_atom_site_fract_x
_atom_site_fract_y
_atom_site_fract_z
Si Si1 0.735167 0.579957 0.809122
Si Si2 0.523776 0.704873 0.441391
Si Si3 0.494284 0.651670 0.932226
Si Si4 0.050015 0.382708 0.645726
O O1 0.500000 0.555179 0.750000
O O2 0.859736 0.691194 0.886006
O O3 0.634953 0.598021 0.689354
O O4 0.932342 0.482610 0.892758
O O5 0.627601 0.645708 0.552709
O O6 0.321198 0.632561 0.309104
O O7 0.750000 0.750000 0.500000
O O8 0.485307 0.774866 0.909658
O O9 0.795406 0.612933 0.074030
#
# Coordination Sequence:
#
# PCOD9295358 Si02
#       4
#     8   8   8   8
#     4  11  25  42  71 101 127 179 232 274 338 405
#     4  11  25  44  66 100 136 177 222 277 338 401
#     4  10  23  45  66  92 140 176 212 284 340 391
#     4  10  23  42  69  97 130 176 222 277 336 401
#
# _framework density 23.892285000000001
#
# number of rings (size 3 to 8) (size 9 to 14) (size 15 to 20)
#    0.000    1.500    0.000    5.250    7.000    6.000 
#    4.500    0.000    0.000    0.000    0.000    0.000 
#    0.000    0.000    0.000    0.000    0.000    0.000 
#
# Total GULP energy -89534.257712 kJ/mol
# GULP energy per Si atom -5595.891107 kJ/mol
# Density = 2.383791 g / cm^3
# Si number density = 23.892285 Si / 1000 Ang^3
#
#
#
# Elastic Constant Matrix: (Units=GPa)
#
#
# Indices 1 2 3 4 5 6 
#
# 1 137.2035 9.8192 37.7710 -0.0004 -25.3022 0.0001
# 2 9.8192 118.7566 4.7468 -0.0001 -4.6864 -0.0002
# 3 37.7710 4.7468 77.3680 0.0012 -24.0178 0.0008
# 4 -0.0004 -0.0001 0.0012 -9.8318 0.0005 7.7948
# 5 -25.3022 -4.6864 -24.0178 0.0005 29.8465 0.0003
# 6 0.0001 -0.0002 0.0008 7.7948 0.0003 30.8903
#
#
#
# Elastic Compliance Matrix: (Units=1/GPa)
#
#
# Indices 1 2 3 4 5 6 
#
# 1 0.009069 -0.000427 -0.002713 0.000000 0.005438 0.000000
# 2 -0.000427 0.008494 -0.000015 0.000000 0.000960 0.000000
# 3 -0.002713 -0.000015 0.018043 0.000002 0.012217 -0.000001
# 4 0.000000 0.000000 0.000002 -0.084755 0.000002 0.021387
# 5 0.005438 0.000960 0.012217 0.000002 0.048097 -0.000001
# 6 0.000000 0.000000 -0.000001 0.021387 -0.000001 0.026976
#
#
# Mechanical properties :
#
#
# Convention : Reuss Voigt Hill
#
# Bulk Modulus (GPa) = 34.13305 48.66690 41.39997
# Shear Modulus (GPa) = 119.04930 28.91372 73.98151
#
# Velocity S-wave (km/s) = 7.06652 3.48252 5.57062
# Velocity P-wave (km/s) = 8.99434 6.04848 7.66428
#
# Compressibility (1/GPa) = 0.02929712
#
# Stress axis : x y z
#
# Youngs Moduli (GPa) = 110.26991 117.72530 55.42188
#
# Poissons Ratio (x) = 0.05024 0.15036
# Poissons Ratio (y) = 0.04706 0.00082
# Poissons Ratio (z) = 0.29917 0.00174
#
# Static dielectric constant tensor:
#      x y z
#    x 1.928500 0.000000 -0.040620 
#    y 0.000000 1.871560 0.000000 
#    z -0.040620 0.000000 1.961870 
# 
# From -- ./inp_files/237846.got.cif
#   From: 2010.05.17/outbox.cif.g08.bks.cpg/sg15_119_cif.got.tgz:237846.got - 2010.06.03 18:47:42.
