data_PCOD9295480
_publ_section_title
;
Structure prediction by ZEFSAII (Michael W. Deem and Ramdas Pophale) SiO2 
 PCOD9295480
Probable space group: C 2/C
;
_chemical_formula_sum "Si O2"
_cell_formula_units_Z 40
_cell_length_a 14.535467
_cell_length_b 15.294796
_cell_length_c 14.886073
_cell_angle_alpha 90.000000
_cell_angle_beta 151.230034
_cell_angle_gamma 90.000000
_cell_volume 1592.808264
_symmetry_space_group_name_H-M "C 2/C"
_symmetry_group_IT_number 15
_symmetry_cell_setting 'monoclinic'
loop_
_space_group_symop_operation_xyz
x,y,z
-x,y,1/2-z
-x,-y,-z
x,-y,1/2+z
1/2+x,1/2+y,z
1/2-x,1/2+y,1/2-z
1/2-x,1/2-y,-z
1/2+x,1/2-y,1/2+z
loop_
_atom_site_type_symbol
_atom_site_label
_atom_site_fract_x
_atom_site_fract_y
_atom_site_fract_z
Si Si1 0.651587 0.621674 0.639845
Si Si2 0.000000 0.812023 0.250000
Si Si3 0.224909 0.434380 0.787361
Si Si4 0.369104 0.180039 0.978596
Si Si5 0.500000 0.978990 0.250000
Si Si6 0.302567 0.350588 0.532853
O O1 0.734730 0.524400 0.730924
O O2 0.426189 0.614782 0.466736
O O3 0.676178 0.635210 0.555364
O O4 0.765539 0.694185 0.793829
O O5 0.185808 0.863373 0.373928
O O6 0.064430 0.749557 0.388638
O O7 0.140504 0.463176 0.811321
O O8 0.053356 0.374614 0.607972
O O9 0.633249 0.913751 0.421509
O O10 0.500000 0.371198 0.750000
O O11 0.250000 0.250000 0.500000
#
# Coordination Sequence:
#
# PCOD9295480 Si02
#       6
#     8   4   8   8   4   8
#     4  10  25  44  73 106 136 185 235 291 350 414
#     4  10  27  44  66 109 134 188 234 272 364 425
#     4  10  23  45  72 105 137 180 238 292 354 410
#     4  11  24  46  68  98 149 179 232 290 345 424
#     4  10  23  42  74 103 132 186 226 290 356 415
#     4  11  24  46  68 100 142 183 233 280 346 417
#
# _framework density 25.112879
#
# number of rings (size 3 to 8) (size 9 to 14) (size 15 to 20)
#    0.000    1.600    1.000    1.200    8.400    9.600 
#    0.000    0.000    0.000    0.000    0.000    0.000 
#    0.000    0.000    0.000    0.000    0.000    0.000 
#
# Total GULP energy -111787.568403 kJ/mol
# GULP energy per Si atom -5589.378420 kJ/mol
# Density = 2.505572 g / cm^3
# Si number density = 25.112879 Si / 1000 Ang^3
#
#
#
# Elastic Constant Matrix: (Units=GPa)
#
#
# Indices 1 2 3 4 5 6 
#
# 1 119.4853 33.3300 68.0576 -0.0016 17.1375 -0.0010
# 2 33.3300 68.3885 58.0797 -0.0169 2.9873 -0.0072
# 3 68.0576 58.0797 177.7566 -0.0062 9.4740 -0.0030
# 4 -0.0016 -0.0169 -0.0062 -4.7402 -0.0029 -11.4828
# 5 17.1375 2.9873 9.4740 -0.0029 63.6226 -0.0008
# 6 -0.0010 -0.0072 -0.0030 -11.4828 -0.0008 31.2613
#
#
#
# Elastic Compliance Matrix: (Units=1/GPa)
#
#
# Indices 1 2 3 4 5 6 
#
# 1 0.011359 -0.002555 -0.003384 0.000007 -0.002436 0.000002
# 2 -0.002555 0.020813 -0.005853 -0.000040 0.000583 -0.000011
# 3 -0.003384 -0.005853 0.008841 0.000006 -0.000130 0.000002
# 4 0.000007 -0.000040 0.000006 -0.111632 -0.000006 -0.041004
# 5 -0.002436 0.000583 -0.000130 -0.000006 0.016366 -0.000002
# 6 0.000002 -0.000011 0.000002 -0.041004 -0.000002 0.016927
#
#
# Mechanical properties :
#
#
# Convention : Reuss Voigt Hill
#
# Bulk Modulus (GPa) = 57.38110 76.06278 66.72194
# Shear Modulus (GPa) = -630.39015 31.77294 -299.30860
#
# Velocity S-wave (km/s) = -15.86088 3.56083 -10.92905
# Velocity P-wave (km/s) = 17.67836 6.87460 11.51661
#
# Compressibility (1/GPa) = 0.01742734
#
# Stress axis : x y z
#
# Youngs Moduli (GPa) = 88.03548 48.04669 113.11256
#
# Poissons Ratio (x) = 0.12278 0.38280
# Poissons Ratio (y) = 0.22497 0.66206
# Poissons Ratio (z) = 0.29793 0.28122
#
# Static dielectric constant tensor:
#      x y z
#    x 1.970240 -0.000010 0.017360 
#    y -0.000010 2.119940 -0.000030 
#    z 0.017360 -0.000030 1.977950 
# 
# From -- ./inp_files/155629.got.cif
#   From: 2010.05.17/outbox.cif.g08.bks.cpg/sg15_78_cif.got.tgz:155629.got - 2010.06.03 18:47:42.
