data_PCOD9295521
_publ_section_title
;
Structure prediction by ZEFSAII (Michael W. Deem and Ramdas Pophale) SiO2 
 PCOD9295521
Probable space group: C 2/C
;
_chemical_formula_sum "Si O2"
_cell_formula_units_Z 44
_cell_length_a 24.018078
_cell_length_b 11.234472
_cell_length_c 11.909593
_cell_angle_alpha 90.000000
_cell_angle_beta 37.384946
_cell_angle_gamma 90.000000
_cell_volume 1951.174281
_symmetry_space_group_name_H-M "C 2/C"
_symmetry_group_IT_number 15
_symmetry_cell_setting 'monoclinic'
loop_
_space_group_symop_operation_xyz
x,y,z
-x,y,1/2-z
-x,-y,-z
x,-y,1/2+z
1/2+x,1/2+y,z
1/2-x,1/2+y,1/2-z
1/2-x,1/2-y,-z
1/2+x,1/2-y,1/2+z
loop_
_atom_site_type_symbol
_atom_site_label
_atom_site_fract_x
_atom_site_fract_y
_atom_site_fract_z
Si Si1 0.732474 0.845456 0.808203
Si Si2 0.250650 0.440695 0.436112
Si Si3 0.662667 0.639302 0.075684
Si Si4 0.500000 0.501355 0.250000
Si Si5 0.381138 0.219189 0.225652
Si Si6 0.430643 0.684760 0.034596
O O1 0.660266 0.831946 0.824104
O O2 0.836234 0.800277 0.614675
O O3 0.740203 0.979893 0.841764
O O4 0.700523 0.758965 0.960893
O O5 0.263752 0.537387 0.514428
O O6 0.337863 0.352635 0.295507
O O7 0.165809 0.357606 0.601635
O O8 0.588380 0.583586 0.112696
O O9 0.609311 0.655431 0.278816
O O10 0.484766 0.418458 0.382238
O O11 0.489881 0.219536 0.069884
#
# Coordination Sequence:
#
# PCOD9295521 Si02
#       6
#     8   8   8   4   8   8
#     4  11  26  43  73  98 142 185 220 283 355 402
#     4  10  23  43  63 102 137 175 230 279 343 399
#     4  11  23  42  67 101 139 178 226 287 340 403
#     4  12  22  38  74 100 132 176 242 292 330 394
#     4  11  24  44  72  99 139 179 229 287 339 407
#     4  11  24  43  67 106 130 179 235 286 327 409
#
# _framework density 22.550522000000001
#
# number of rings (size 3 to 8) (size 9 to 14) (size 15 to 20)
#    0.000    1.091    1.818    4.909   12.727    0.000 
#    0.000    3.636   12.000    0.000    0.000    0.000 
#    0.000    0.000    0.000    0.000    0.000    0.000 
#
# Total GULP energy -122935.610322 kJ/mol
# GULP energy per Si atom -5587.982287 kJ/mol
# Density = 2.249920 g / cm^3
# Si number density = 22.550522 Si / 1000 Ang^3
#
#
#
# Elastic Constant Matrix: (Units=GPa)
#
#
# Indices 1 2 3 4 5 6 
#
# 1 95.8326 38.6651 32.7539 0.0000 -19.2816 0.0000
# 2 38.6651 94.2449 51.4998 0.0000 3.5666 0.0000
# 3 32.7539 51.4998 107.6975 0.0000 -8.5047 0.0000
# 4 0.0000 0.0000 0.0000 23.6387 0.0000 3.4406
# 5 -19.2816 3.5666 -8.5047 0.0000 32.1063 0.0000
# 6 0.0000 0.0000 0.0000 3.4406 0.0000 31.2709
#
#
#
# Elastic Compliance Matrix: (Units=1/GPa)
#
#
# Indices 1 2 3 4 5 6 
#
# 1 0.015105 -0.006031 -0.000961 0.000000 0.009487 0.000000
# 2 -0.006031 0.017165 -0.006956 0.000000 -0.007372 0.000000
# 3 -0.000961 -0.006956 0.013195 0.000000 0.003691 0.000000
# 4 0.000000 0.000000 0.000000 0.042992 0.000000 -0.004730
# 5 0.009487 -0.007372 0.003691 0.000000 0.038641 0.000000
# 6 0.000000 0.000000 0.000000 -0.004730 0.000000 0.032499
#
#
# Mechanical properties :
#
#
# Convention : Reuss Voigt Hill
#
# Bulk Modulus (GPa) = 56.91585 60.40139 58.65862
# Shear Modulus (GPa) = 25.85983 29.06027 27.46005
#
# Velocity S-wave (km/s) = 3.39004 3.59371 3.49336
# Velocity P-wave (km/s) = 6.37317 6.63797 6.50692
#
# Compressibility (1/GPa) = 0.01756980
#
# Stress axis : x y z
#
# Youngs Moduli (GPa) = 66.20126 58.25771 75.78498
#
# Poissons Ratio (x) = 0.35137 0.07281
# Poissons Ratio (y) = 0.39928 0.52716
# Poissons Ratio (z) = 0.06360 0.40524
#
# Static dielectric constant tensor:
#      x y z
#    x 1.913040 0.000000 0.028190 
#    y 0.000000 1.828900 0.000000 
#    z 0.028190 0.000000 1.819660 
# 
# From -- ./inp_files/95097.got.cif
#   From: 2010.05.17/outbox.cif.g08.bks.cpg/sg15_48_cif.got.tgz:95097.got - 2010.06.03 18:47:42.
