data_PCOD9295072
_publ_section_title
;
Structure prediction by ZEFSAII (Michael W. Deem and Ramdas Pophale) SiO2 
 PCOD9295072
Probable space group: C 2/C
;
_chemical_formula_sum "Si O2"
_cell_formula_units_Z 44
_cell_length_a 19.176853
_cell_length_b 11.742912
_cell_length_c 7.943169
_cell_angle_alpha 90.000000
_cell_angle_beta 76.551940
_cell_angle_gamma 90.000000
_cell_volume 1739.693713
_symmetry_space_group_name_H-M "C 2/C"
_symmetry_group_IT_number 15
_symmetry_cell_setting 'monoclinic'
loop_
_space_group_symop_operation_xyz
x,y,z
-x,y,1/2-z
-x,-y,-z
x,-y,1/2+z
1/2+x,1/2+y,z
1/2-x,1/2+y,1/2-z
1/2-x,1/2-y,-z
1/2+x,1/2-y,1/2+z
loop_
_atom_site_type_symbol
_atom_site_label
_atom_site_fract_x
_atom_site_fract_y
_atom_site_fract_z
Si Si1 0.773698 0.145398 0.142982
Si Si2 0.368921 0.085888 0.130996
Si Si3 0.500000 0.531065 0.250000
Si Si4 0.847857 0.074079 0.763256
Si Si5 0.436111 0.285117 0.976025
Si Si6 0.144674 0.655378 0.727514
O O1 0.688667 0.128072 0.201495
O O2 0.799806 0.262314 0.213634
O O3 0.806453 0.038075 0.227090
O O4 0.806364 0.131947 0.939576
O O5 0.381230 0.953042 0.153196
O O6 0.438383 0.169273 0.084804
O O7 0.331965 0.106333 0.968507
O O8 0.572897 0.461050 0.218354
O O9 0.508284 0.614108 0.081997
O O10 0.865259 0.153889 0.593581
O O11 0.418885 0.236898 0.800142
#
# Coordination Sequence:
#
# PCOD9295072 Si02
#       6
#     8   8   4   8   8   8
#     4  12  23  40  68 103 138 173 223 275 342 400
#     4  10  24  42  67  94 141 178 224 268 337 404
#     4  12  22  48  68 100 138 170 234 276 336 394
#     4  12  24  39  69 105 131 177 215 283 343 390
#     4  10  25  42  68  95 136 176 222 279 329 392
#     4  10  23  42  63  96 136 178 220 269 332 400
#
# _framework density 25.291809000000001
#
# number of rings (size 3 to 8) (size 9 to 14) (size 15 to 20)
#    1.091    0.000    3.636    2.182    5.091    0.727 
#    0.000    0.909    0.000    1.091    0.000    0.000 
#    0.000    0.000    0.000    0.000    0.000    0.000 
#
# Total GULP energy -122928.278462 kJ/mol
# GULP energy per Si atom -5587.649021 kJ/mol
# Density = 2.523424 g / cm^3
# Si number density = 25.291809 Si / 1000 Ang^3
#
#
#
# Elastic Constant Matrix: (Units=GPa)
#
#
# Indices 1 2 3 4 5 6 
#
# 1 60.3355 20.2056 16.5212 0.0000 2.7320 0.0000
# 2 20.2056 157.2230 50.0035 0.0000 16.7643 0.0000
# 3 16.5212 50.0035 114.2067 0.0000 1.9112 0.0000
# 4 0.0000 0.0000 0.0000 66.0479 0.0000 11.3269
# 5 2.7320 16.7643 1.9112 0.0000 24.4472 0.0000
# 6 0.0000 0.0000 0.0000 11.3269 0.0000 38.1431
#
#
#
# Elastic Compliance Matrix: (Units=1/GPa)
#
#
# Indices 1 2 3 4 5 6 
#
# 1 0.017648 -0.001606 -0.001838 0.000000 -0.000727 0.000000
# 2 -0.001606 0.008150 -0.003250 0.000000 -0.005155 0.000000
# 3 -0.001838 -0.003250 0.010418 0.000000 0.001619 0.000000
# 4 0.000000 0.000000 0.000000 0.015953 0.000000 -0.004737
# 5 -0.000727 -0.005155 0.001619 0.000000 0.044394 0.000000
# 6 0.000000 0.000000 0.000000 -0.004737 0.000000 0.027624
#
#
# Mechanical properties :
#
#
# Convention : Reuss Voigt Hill
#
# Bulk Modulus (GPa) = 43.80436 56.13619 49.97028
# Shear Modulus (GPa) = 34.43922 42.06328 38.25125
#
# Velocity S-wave (km/s) = 3.69409 4.08256 3.89317
# Velocity P-wave (km/s) = 5.96257 6.66833 6.32530
#
# Compressibility (1/GPa) = 0.02282878
#
# Stress axis : x y z
#
# Youngs Moduli (GPa) = 56.66380 122.69860 95.99103
#
# Poissons Ratio (x) = 0.19706 0.17639
# Poissons Ratio (y) = 0.09101 0.31195
# Poissons Ratio (z) = 0.10413 0.39874
#
# Static dielectric constant tensor:
#      x y z
#    x 1.983750 0.000000 0.010750 
#    y 0.000000 2.048660 0.000000 
#    z 0.010750 0.000000 2.024980 
# 
# From -- ./inp_files/60476.got.cif
#   From: 2010.05.17/outbox.cif.g08.bks.cpg/sg15_31_cif.got.tgz:60476.got - 2010.06.03 18:47:42.
