data_PCOD9295852
_publ_section_title
;
Structure prediction by ZEFSAII (Michael W. Deem and Ramdas Pophale) SiO2 
 PCOD9295852
Probable space group: C 2/C
;
_chemical_formula_sum "Si O2"
_cell_formula_units_Z 48
_cell_length_a 21.719177
_cell_length_b 7.104052
_cell_length_c 17.667343
_cell_angle_alpha 90.000000
_cell_angle_beta 128.779582
_cell_angle_gamma 90.000000
_cell_volume 2125.058840
_symmetry_space_group_name_H-M "C 2/C"
_symmetry_group_IT_number 15
_symmetry_cell_setting 'monoclinic'
loop_
_space_group_symop_operation_xyz
x,y,z
-x,y,1/2-z
-x,-y,-z
x,-y,1/2+z
1/2+x,1/2+y,z
1/2-x,1/2+y,1/2-z
1/2-x,1/2-y,-z
1/2+x,1/2-y,1/2+z
loop_
_atom_site_type_symbol
_atom_site_label
_atom_site_fract_x
_atom_site_fract_y
_atom_site_fract_z
Si Si1 0.234464 0.828373 0.141110
Si Si2 0.683706 0.513879 0.363488
Si Si3 0.326540 0.177545 0.250404
Si Si4 0.605797 0.572796 0.966456
Si Si5 0.999353 0.581382 0.084365
Si Si6 0.027762 0.810629 0.685399
O O1 0.247954 0.671424 0.086649
O O2 0.216949 0.717218 0.204409
O O3 0.307807 0.968253 0.208130
O O4 0.163560 0.973155 0.070021
O O5 0.704484 0.323497 0.335805
O O6 0.649122 0.456848 0.418457
O O7 0.616543 0.612617 0.259261
O O8 0.419972 0.194626 0.336544
O O9 0.576150 0.785049 0.958701
O O10 0.526408 0.449273 0.904725
O O11 0.007127 0.398516 0.142997
O O12 0.000000 0.500000 0.000000
O O13 0.000000 0.827344 0.750000
#
# Coordination Sequence:
#
# PCOD9295852 Si02
#       6
#     8   8   8   8   8   8
#     4  12  26  45  68 103 143 185 236 297 365 429
#     4  11  24  47  72 100 139 190 236 296 357 420
#     4  12  26  42  71  98 144 188 236 289 363 429
#     4  11  27  44  73 104 142 182 241 299 351 423
#     4  12  27  42  71 107 141 186 240 292 352 425
#     4  10  23  43  70  99 137 182 234 288 351 416
#
# _framework density 22.587609
#
# number of rings (size 3 to 8) (size 9 to 14) (size 15 to 20)
#    0.000    0.667    5.000    1.500    7.000    3.333 
#    0.000    0.000    0.000    0.000    0.000    0.000 
#    0.000    0.000    0.000    0.000    0.000    0.000 
#
# Total GULP energy -134166.116252 kJ/mol
# GULP energy per Si atom -5590.254844 kJ/mol
# Density = 2.253620 g / cm^3
# Si number density = 22.587609 Si / 1000 Ang^3
#
#
#
# Elastic Constant Matrix: (Units=GPa)
#
#
# Indices 1 2 3 4 5 6 
#
# 1 39.3695 35.0703 -15.4784 0.0000 -4.4048 0.0000
# 2 35.0703 133.0851 0.0398 -0.0001 -11.5520 0.0000
# 3 -15.4784 0.0398 41.1957 0.0000 0.4704 0.0000
# 4 0.0000 -0.0001 0.0000 26.1376 0.0000 2.0824
# 5 -4.4048 -11.5520 0.4704 0.0000 18.0206 0.0000
# 6 0.0000 0.0000 0.0000 2.0824 0.0000 49.4659
#
#
#
# Elastic Compliance Matrix: (Units=1/GPa)
#
#
# Indices 1 2 3 4 5 6 
#
# 1 0.041285 -0.010635 0.015489 0.000000 0.002870 0.000000
# 2 -0.010635 0.010696 -0.004056 0.000000 0.004363 0.000000
# 3 0.015489 -0.004056 0.030093 0.000000 0.000401 0.000000
# 4 0.000000 0.000000 0.000000 0.038388 0.000000 -0.001616
# 5 0.002870 0.004363 0.000401 0.000000 0.058980 0.000000
# 6 0.000000 0.000000 0.000000 -0.001616 0.000000 0.020284
#
#
# Mechanical properties :
#
#
# Convention : Reuss Voigt Hill
#
# Bulk Modulus (GPa) = 11.95149 28.10154 20.02652
# Shear Modulus (GPa) = 22.12197 31.65939 26.89068
#
# Velocity S-wave (km/s) = 3.13291 3.74789 3.45411
# Velocity P-wave (km/s) = 4.28830 5.58543 4.97928
#
# Compressibility (1/GPa) = 0.08367156
#
# Stress axis : x y z
#
# Youngs Moduli (GPa) = 24.22212 93.48944 33.22978
#
# Poissons Ratio (x) = 0.99424 -0.51471
# Poissons Ratio (y) = 0.25760 0.13478
# Poissons Ratio (z) = -0.37518 0.37919
#
# Static dielectric constant tensor:
#      x y z
#    x 1.850610 0.000000 0.058980 
#    y 0.000000 1.810820 0.000000 
#    z 0.058980 0.000000 1.861430 
# 
# From -- ./inp_files/254238.got.cif
#   From: 2010.05.17/outbox.cif.g08.bks.cpg/sg15_128_cif.got.tgz:254238.got - 2010.06.03 18:47:42.
