data_PCOD9295599
_publ_section_title
;
Structure prediction by ZEFSAII (Michael W. Deem and Ramdas Pophale) SiO2 
 PCOD9295599
Probable space group: C 2/C
;
_chemical_formula_sum "Si O2"
_cell_formula_units_Z 40
_cell_length_a 8.611244
_cell_length_b 26.983583
_cell_length_c 13.566591
_cell_angle_alpha 90.000000
_cell_angle_beta 31.277016
_cell_angle_gamma 90.000000
_cell_volume 1636.632266
_symmetry_space_group_name_H-M "C 2/C"
_symmetry_group_IT_number 15
_symmetry_cell_setting 'monoclinic'
loop_
_space_group_symop_operation_xyz
x,y,z
-x,y,1/2-z
-x,-y,-z
x,-y,1/2+z
1/2+x,1/2+y,z
1/2-x,1/2+y,1/2-z
1/2-x,1/2-y,-z
1/2+x,1/2-y,1/2+z
loop_
_atom_site_type_symbol
_atom_site_label
_atom_site_fract_x
_atom_site_fract_y
_atom_site_fract_z
Si Si1 0.648630 0.563758 0.918193
Si Si2 0.284734 0.170307 0.643381
Si Si3 0.143133 0.724154 0.278001
Si Si4 0.748779 0.831342 0.049601
Si Si5 0.201326 0.006372 0.227177
O O1 0.641389 0.621502 0.946794
O O2 0.609977 0.546247 0.826522
O O3 0.000000 0.547838 0.750000
O O4 0.388062 0.540064 0.128870
O O5 0.143887 0.216345 0.780675
O O6 0.451430 0.198475 0.465284
O O7 0.557970 0.148288 0.559443
O O8 0.000000 0.142331 0.750000
O O9 0.000000 0.710199 0.250000
O O10 0.476233 0.704210 0.115579
O O11 0.500000 0.804684 0.250000
O O12 0.000000 0.027370 0.250000
O O13 0.500000 0.000000 0.000000
#
# Coordination Sequence:
#
# PCOD9295599 Si02
#       5
#     8   8   8   8   8
#     4  10  23  43  66 101 139 173 221 285 333 416
#     4  11  22  40  68  92 130 183 237 279 336 403
#     4  11  22  40  63  97 132 179 233 284 330 408
#     4  11  23  42  62  93 140 176 219 285 344 392
#     4  11  22  43  75 101 131 176 225 268 344 421
#
# _framework density 24.440431
#
# number of rings (size 3 to 8) (size 9 to 14) (size 15 to 20)
#    0.000    1.200    2.000    6.000    0.000    1.600 
#    3.600    4.000    0.000    0.000    0.000    0.000 
#    0.000    0.000    0.000    0.000    0.000    0.000 
#
# Total GULP energy -111465.534577 kJ/mol
# GULP energy per Si atom -5573.276729 kJ/mol
# Density = 2.438480 g / cm^3
# Si number density = 24.440431 Si / 1000 Ang^3
#
#
#
# Elastic Constant Matrix: (Units=GPa)
#
#
# Indices 1 2 3 4 5 6 
#
# 1 86.8309 18.2656 16.4167 0.0000 14.1266 0.0000
# 2 18.2656 69.8681 20.9961 0.0000 -0.1254 0.0000
# 3 16.4167 20.9961 174.9983 0.0000 2.3267 0.0000
# 4 0.0000 0.0000 0.0000 22.8761 0.0000 -3.8970
# 5 14.1266 -0.1254 2.3267 0.0000 53.5425 0.0000
# 6 0.0000 0.0000 0.0000 -3.8970 0.0000 42.6782
#
#
#
# Elastic Compliance Matrix: (Units=1/GPa)
#
#
# Indices 1 2 3 4 5 6 
#
# 1 0.012873 -0.003135 -0.000787 0.000000 -0.003370 0.000000
# 2 -0.003135 0.015612 -0.001591 0.000000 0.000933 0.000000
# 3 -0.000787 -0.001591 0.005980 0.000000 -0.000056 0.000000
# 4 0.000000 0.000000 0.000000 0.044405 0.000000 0.004055
# 5 -0.003370 0.000933 -0.000056 0.000000 0.019570 0.000000
# 6 0.000000 0.000000 0.000000 0.004055 0.000000 0.023801
#
#
# Mechanical properties :
#
#
# Convention : Reuss Voigt Hill
#
# Bulk Modulus (GPa) = 42.66441 49.22823 45.94632
# Shear Modulus (GPa) = 35.44073 42.22061 38.83067
#
# Velocity S-wave (km/s) = 3.81213 4.16082 3.99028
# Velocity P-wave (km/s) = 6.07214 6.57792 6.33008
#
# Compressibility (1/GPa) = 0.02343874
#
# Stress axis : x y z
#
# Youngs Moduli (GPa) = 77.68169 64.05256 167.22901
#
# Poissons Ratio (x) = 0.20081 0.13156
# Poissons Ratio (y) = 0.24353 0.26613
# Poissons Ratio (z) = 0.06111 0.10194
#
# Static dielectric constant tensor:
#      x y z
#    x 2.095290 0.000000 -0.000890 
#    y 0.000000 1.978900 0.000000 
#    z -0.000890 0.000000 2.081280 
# 
# From -- ./inp_files/139696.got.cif
#   From: 2010.05.17/outbox.cif.g08.bks.cpg/sg15_70_cif.got.tgz:139696.got - 2010.06.03 18:47:42.
