data_PCOD9295765
_publ_section_title
;
Structure prediction by ZEFSAII (Michael W. Deem and Ramdas Pophale) SiO2 
 PCOD9295765
Probable space group: C 2/C
;
_chemical_formula_sum "Si O2"
_cell_formula_units_Z 32
_cell_length_a 16.434445
_cell_length_b 10.375201
_cell_length_c 11.983115
_cell_angle_alpha 90.000000
_cell_angle_beta 45.568612
_cell_angle_gamma 90.000000
_cell_volume 1459.062186
_symmetry_space_group_name_H-M "C 2/C"
_symmetry_group_IT_number 15
_symmetry_cell_setting 'monoclinic'
loop_
_space_group_symop_operation_xyz
x,y,z
-x,y,1/2-z
-x,-y,-z
x,-y,1/2+z
1/2+x,1/2+y,z
1/2-x,1/2+y,1/2-z
1/2-x,1/2-y,-z
1/2+x,1/2-y,1/2+z
loop_
_atom_site_type_symbol
_atom_site_label
_atom_site_fract_x
_atom_site_fract_y
_atom_site_fract_z
Si Si1 0.319458 0.544254 0.153704
Si Si2 0.091770 0.454347 0.005918
Si Si3 0.035443 0.212951 0.956403
Si Si4 0.162711 0.356911 0.629512
O O1 0.222247 0.553711 0.339875
O O2 0.391267 0.415792 0.099312
O O3 0.244578 0.543016 0.114527
O O4 0.405408 0.665809 0.068835
O O5 0.099927 0.557724 0.096636
O O6 0.052323 0.305470 0.047624
O O7 0.000000 0.500000 0.000000
O O8 0.085979 0.283225 0.796805
O O9 0.250000 0.250000 0.500000
#
# Coordination Sequence:
#
# PCOD9295765 Si02
#       4
#     8   8   8   8
#     4  10  23  43  69 102 139 186 236 301 350 429
#     4  11  24  41  69 104 141 183 238 296 350 428
#     4  10  23  44  69 101 144 179 242 298 354 423
#     4  11  22  42  71 100 139 192 236 280 370 433
#
# _framework density 21.931894
#
# number of rings (size 3 to 8) (size 9 to 14) (size 15 to 20)
#    0.000    1.500    2.500    1.500    3.500   10.000 
#    0.000    0.000   11.000    0.000    0.000    0.000 
#    0.000    0.000    0.000    0.000    0.000    0.000 
#
# Total GULP energy -89216.992678 kJ/mol
# GULP energy per Si atom -5576.062042 kJ/mol
# Density = 2.188198 g / cm^3
# Si number density = 21.931894 Si / 1000 Ang^3
#
#
#
# Elastic Constant Matrix: (Units=GPa)
#
#
# Indices 1 2 3 4 5 6 
#
# 1 156.3528 78.6801 63.9106 0.0000 -3.7437 0.0000
# 2 78.6801 129.8993 56.8019 0.0000 1.5078 0.0000
# 3 63.9106 56.8019 131.6108 0.0000 -17.5538 0.0000
# 4 0.0000 0.0000 0.0000 32.1791 0.0000 -2.4360
# 5 -3.7437 1.5078 -17.5538 0.0000 37.5929 0.0000
# 6 0.0000 0.0000 0.0000 -2.4360 0.0000 48.0383
#
#
#
# Elastic Compliance Matrix: (Units=1/GPa)
#
#
# Indices 1 2 3 4 5 6 
#
# 1 0.009946 -0.004813 -0.002767 0.000000 -0.000109 0.000000
# 2 -0.004813 0.012034 -0.003183 0.000000 -0.002448 0.000000
# 3 -0.002767 -0.003183 0.010980 0.000000 0.004979 0.000000
# 4 0.000000 0.000000 0.000000 0.031196 0.000000 0.001582
# 5 -0.000109 -0.002448 0.004979 0.000000 0.029013 0.000000
# 6 0.000000 0.000000 0.000000 0.001582 0.000000 0.020897
#
#
# Mechanical properties :
#
#
# Convention : Reuss Voigt Hill
#
# Bulk Modulus (GPa) = 87.46320 90.73866 89.10093
# Shear Modulus (GPa) = 35.86707 38.12675 36.99691
#
# Velocity S-wave (km/s) = 4.04838 4.17395 4.11164
# Velocity P-wave (km/s) = 7.86247 8.04313 7.95331
#
# Compressibility (1/GPa) = 0.01143338
#
# Stress axis : x y z
#
# Youngs Moduli (GPa) = 100.53845 83.09846 91.07741
#
# Poissons Ratio (x) = 0.39998 0.25202
# Poissons Ratio (y) = 0.48392 0.28989
# Poissons Ratio (z) = 0.27820 0.26449
#
# Static dielectric constant tensor:
#      x y z
#    x 1.850240 0.000000 0.063870 
#    y 0.000000 1.856040 0.000000 
#    z 0.063870 0.000000 1.874210 
# 
# From -- ./inp_files/94292.got.cif
#   From: 2010.05.17/outbox.cif.g08.bks.cpg/sg15_48_cif.got.tgz:94292.got - 2010.06.03 18:47:42.
