data_PCOD9295624
_publ_section_title
;
Structure prediction by ZEFSAII (Michael W. Deem and Ramdas Pophale) SiO2 
 PCOD9295624
Probable space group: C 2/C
;
_chemical_formula_sum "Si O2"
_cell_formula_units_Z 64
_cell_length_a 8.946474
_cell_length_b 17.871078
_cell_length_c 19.867339
_cell_angle_alpha 90.000000
_cell_angle_beta 91.537000
_cell_angle_gamma 90.000000
_cell_volume 3175.309588
_symmetry_space_group_name_H-M "C 2/C"
_symmetry_group_IT_number 15
_symmetry_cell_setting 'monoclinic'
loop_
_space_group_symop_operation_xyz
x,y,z
-x,y,1/2-z
-x,-y,-z
x,-y,1/2+z
1/2+x,1/2+y,z
1/2-x,1/2+y,1/2-z
1/2-x,1/2-y,-z
1/2+x,1/2-y,1/2+z
loop_
_atom_site_type_symbol
_atom_site_label
_atom_site_fract_x
_atom_site_fract_y
_atom_site_fract_z
Si Si1 0.387217 0.274497 0.304006
Si Si2 0.417754 0.769750 0.583037
Si Si3 0.081494 0.720817 0.576991
Si Si4 0.914338 0.809370 0.684234
Si Si5 0.157213 0.977867 0.815119
Si Si6 0.853922 0.061296 0.818464
Si Si7 0.386292 0.924936 0.067013
Si Si8 0.424233 0.926925 0.915785
O O1 0.500000 0.244137 0.250000
O O2 0.468980 0.283159 0.376301
O O3 0.253273 0.218206 0.310759
O O4 0.341795 0.357717 0.282912
O O5 0.251154 0.742034 0.600132
O O6 0.426646 0.766203 0.502894
O O7 0.478320 0.853317 0.603067
O O8 0.978793 0.777003 0.616776
O O9 0.010164 0.638352 0.588623
O O10 0.923524 0.897914 0.685175
O O11 0.000000 0.777822 0.750000
O O12 0.300558 0.960722 0.863527
O O13 0.200524 0.002940 0.739742
O O14 0.026343 0.036628 0.835130
O O15 0.751720 0.070177 0.883163
O O16 0.460327 0.006216 0.071064
O O17 0.349041 0.909197 0.987896
#
# Coordination Sequence:
#
# PCOD9295624 Si02
#       8
#     8   8   8   8   8   8   8   8
#     4  12  24  42  66  96 129 173 225 277 338 408
#     4  10  23  43  67  97 134 175 222 282 342 404
#     4  10  23  43  67  97 134 175 222 282 342 404
#     4  12  24  42  66  96 129 173 225 277 338 408
#     4  11  24  44  64  93 135 173 217 277 340 402
#     4  11  24  44  64  93 135 173 217 277 340 402
#     4  10  23  43  66  96 131 174 225 271 334 411
#     4  10  23  43  66  96 131 174 225 271 334 411
#
# _framework density 20.155515000000001
#
# number of rings (size 3 to 8) (size 9 to 14) (size 15 to 20)
#    0.000    1.250    5.000    0.750    3.500    4.500 
#    0.000    0.000    0.000    0.000    0.000    0.000 
#    0.000    0.000    0.000    0.000    0.000    0.000 
#
# Total GULP energy -178376.700882 kJ/mol
# GULP energy per Si atom -5574.271903 kJ/mol
# Density = 2.010964 g / cm^3
# Si number density = 20.155515 Si / 1000 Ang^3
#
#
#
# Elastic Constant Matrix: (Units=GPa)
#
#
# Indices 1 2 3 4 5 6 
#
# 1 88.8950 9.5345 35.3183 0.0000 -11.4733 0.0000
# 2 9.5345 96.1815 14.2276 0.0000 -13.2026 0.0000
# 3 35.3183 14.2276 32.9493 0.0000 -3.6427 0.0000
# 4 0.0000 0.0000 0.0000 26.2387 0.0000 -2.2099
# 5 -11.4733 -13.2026 -3.6427 0.0000 46.1965 0.0000
# 6 0.0000 0.0000 0.0000 -2.2099 0.0000 31.8887
#
#
#
# Elastic Compliance Matrix: (Units=1/GPa)
#
#
# Indices 1 2 3 4 5 6 
#
# 1 0.020360 0.001786 -0.022173 0.000000 0.003819 0.000000
# 2 0.001786 0.011640 -0.006581 0.000000 0.003251 0.000000
# 3 -0.022173 -0.006581 0.056635 0.000000 -0.002922 0.000000
# 4 0.000000 0.000000 0.000000 0.038335 0.000000 0.002657
# 5 0.003819 0.003251 -0.002922 0.000000 0.023294 0.000000
# 6 0.000000 0.000000 0.000000 0.002657 0.000000 0.031543
#
#
# Mechanical properties :
#
#
# Convention : Reuss Voigt Hill
#
# Bulk Modulus (GPa) = 28.81899 37.35405 33.08652
# Shear Modulus (GPa) = 20.21768 31.46117 25.83942
#
# Velocity S-wave (km/s) = 3.17059 3.95514 3.58439
# Velocity P-wave (km/s) = 5.26620 6.27938 5.79497
#
# Compressibility (1/GPa) = 0.03469935
#
# Stress axis : x y z
#
# Youngs Moduli (GPa) = 49.11651 85.91273 17.65692
#
# Poissons Ratio (x) = -0.15342 0.39150
# Poissons Ratio (y) = -0.08771 0.11620
# Poissons Ratio (z) = 1.08904 0.56537
#
# Static dielectric constant tensor:
#      x y z
#    x 1.741200 0.000000 0.022030 
#    y 0.000000 1.702730 0.000000 
#    z 0.022030 0.000000 1.752330 
# 
# From -- ./inp_files/232712.got.cif
#   From: 2010.05.17/outbox.cif.g08.bks.cpg/sg15_117_cif.got.tgz:232712.got - 2010.06.03 18:47:42.
