data_PCOD9295525
_publ_section_title
;
Structure prediction by ZEFSAII (Michael W. Deem and Ramdas Pophale) SiO2 
 PCOD9295525
Probable space group: C 2/C
;
_chemical_formula_sum "Si O2"
_cell_formula_units_Z 40
_cell_length_a 12.171173
_cell_length_b 8.961175
_cell_length_c 19.180337
_cell_angle_alpha 90.000000
_cell_angle_beta 71.234591
_cell_angle_gamma 90.000000
_cell_volume 1980.760184
_symmetry_space_group_name_H-M "C 2/C"
_symmetry_group_IT_number 15
_symmetry_cell_setting 'monoclinic'
loop_
_space_group_symop_operation_xyz
x,y,z
-x,y,1/2-z
-x,-y,-z
x,-y,1/2+z
1/2+x,1/2+y,z
1/2-x,1/2+y,1/2-z
1/2-x,1/2-y,-z
1/2+x,1/2-y,1/2+z
loop_
_atom_site_type_symbol
_atom_site_label
_atom_site_fract_x
_atom_site_fract_y
_atom_site_fract_z
Si Si1 0.341087 0.179558 0.428230
Si Si2 0.362486 0.176604 0.940622
Si Si3 0.640228 0.867640 0.729878
Si Si4 0.959757 0.845365 0.040661
Si Si5 0.232794 0.318621 0.177213
O O1 0.250000 0.250000 0.500000
O O2 0.308959 0.192802 0.353774
O O3 0.456695 0.272586 0.419691
O O4 0.359379 0.002790 0.438203
O O5 0.360744 0.237820 0.861553
O O6 0.250000 0.250000 0.000000
O O7 0.458499 0.232186 0.975068
O O8 0.500000 0.851403 0.750000
O O9 0.705225 0.788841 0.780567
O O10 0.672860 0.042019 0.726677
O O11 0.837618 0.869859 0.104600
O O12 0.000000 0.000000 0.000000
#
# Coordination Sequence:
#
# PCOD9295525 Si02
#       5
#     8   8   8   8   8
#     4  11  22  40  66  95 128 172 214 270 329 384
#     4   9  20  38  60  91 124 160 213 261 317 383
#     4  11  23  45  64  93 134 170 218 270 329 391
#     4  11  21  39  64  95 131 164 220 265 324 393
#     4  10  23  43  63  91 129 171 214 268 326 389
#
# _framework density 20.194265000000001
#
# number of rings (size 3 to 8) (size 9 to 14) (size 15 to 20)
#    0.000    1.600    2.000    4.200    0.000    4.800 
#   14.400    0.000    0.000    0.000    0.000    0.000 
#    0.000    0.000    0.000    0.000    0.000    0.000 
#
# Total GULP energy -111457.818755 kJ/mol
# GULP energy per Si atom -5572.890938 kJ/mol
# Density = 2.014830 g / cm^3
# Si number density = 20.194265 Si / 1000 Ang^3
#
#
#
# Elastic Constant Matrix: (Units=GPa)
#
#
# Indices 1 2 3 4 5 6 
#
# 1 28.7615 5.7942 5.1183 0.0000 11.0895 0.0000
# 2 5.7942 73.7200 39.2340 0.0000 18.3474 0.0000
# 3 5.1183 39.2340 102.3204 0.0000 23.5812 0.0000
# 4 0.0000 0.0000 0.0000 37.8177 0.0000 5.7261
# 5 11.0895 18.3474 23.5812 0.0000 37.4122 0.0000
# 6 0.0000 0.0000 0.0000 5.7261 0.0000 33.1119
#
#
#
# Elastic Compliance Matrix: (Units=1/GPa)
#
#
# Indices 1 2 3 4 5 6 
#
# 1 0.039342 -0.000666 0.001053 0.000000 -0.011998 0.000000
# 2 -0.000666 0.017879 -0.005671 0.000000 -0.004996 0.000000
# 3 0.001053 -0.005671 0.013251 0.000000 -0.005883 0.000000
# 4 0.000000 0.000000 0.000000 0.027154 0.000000 -0.004696
# 5 -0.011998 -0.004996 -0.005883 0.000000 0.036444 0.000000
# 6 0.000000 0.000000 0.000000 -0.004696 0.000000 0.031013
#
#
# Mechanical properties :
#
#
# Convention : Reuss Voigt Hill
#
# Bulk Modulus (GPa) = 16.69374 33.89941 25.29658
# Shear Modulus (GPa) = 25.56008 31.97872 28.76940
#
# Velocity S-wave (km/s) = 3.56154 3.98371 3.77852
# Velocity P-wave (km/s) = 5.01969 6.16303 5.62051
#
# Compressibility (1/GPa) = 0.05990269
#
# Stress axis : x y z
#
# Youngs Moduli (GPa) = 25.41828 55.93280 75.46722
#
# Poissons Ratio (x) = 0.03727 -0.07944
# Poissons Ratio (y) = 0.01694 0.42795
# Poissons Ratio (z) = -0.02676 0.31718
#
# Static dielectric constant tensor:
#      x y z
#    x 2.031450 0.000000 -0.082510 
#    y 0.000000 1.673270 0.000000 
#    z -0.082510 0.000000 1.777910 
# 
# From -- ./inp_files/195093.got.cif
#   From: 2010.05.17/outbox.cif.g08.bks.cpg/sg15_98_cif.got.tgz:195093.got - 2010.06.03 18:47:42.
