data_PCOD9295917
_publ_section_title
;
Structure prediction by ZEFSAII (Michael W. Deem and Ramdas Pophale) SiO2 
 PCOD9295917
Probable space group: C 2/C
;
_chemical_formula_sum "Si O2"
_cell_formula_units_Z 36
_cell_length_a 7.664895
_cell_length_b 16.919279
_cell_length_c 13.736366
_cell_angle_alpha 90.000000
_cell_angle_beta 84.378870
_cell_angle_gamma 90.000000
_cell_volume 1772.827607
_symmetry_space_group_name_H-M "C 2/C"
_symmetry_group_IT_number 15
_symmetry_cell_setting 'monoclinic'
loop_
_space_group_symop_operation_xyz
x,y,z
-x,y,1/2-z
-x,-y,-z
x,-y,1/2+z
1/2+x,1/2+y,z
1/2-x,1/2+y,1/2-z
1/2-x,1/2-y,-z
1/2+x,1/2-y,1/2+z
loop_
_atom_site_type_symbol
_atom_site_label
_atom_site_fract_x
_atom_site_fract_y
_atom_site_fract_z
Si Si1 0.192521 0.170248 0.949443
Si Si2 0.872291 0.887799 0.353176
Si Si3 0.145167 0.462331 0.923130
Si Si4 0.000000 0.364806 0.750000
Si Si5 0.689290 0.238409 0.757945
O O1 0.278766 0.184609 0.839357
O O2 0.992528 0.148699 0.932226
O O3 0.250000 0.250000 0.000000
O O4 0.258474 0.101380 0.015040
O O5 0.717711 0.824673 0.341849
O O6 0.000000 0.892740 0.250000
O O7 0.783284 0.971471 0.380050
O O8 0.046538 0.419480 0.839196
O O9 0.000000 0.500000 0.000000
O O10 0.165332 0.305357 0.733611
O O11 0.500000 0.274970 0.750000
#
# Coordination Sequence:
#
# PCOD9295917 Si02
#       5
#     8   8   8   4   8
#     4  11  21  44  67  99 139 177 234 287 341 422
#     4  10  23  43  72  99 140 184 230 292 352 413
#     4  12  27  43  69 103 143 183 235 289 355 419
#     4  12  26  48  66 104 142 180 238 294 340 432
#     4  11  22  44  73  97 134 189 232 285 352 413
#
# _framework density 20.306542
#
# number of rings (size 3 to 8) (size 9 to 14) (size 15 to 20)
#    0.000    0.889    5.556    2.000    7.778    2.667 
#    0.000    4.444    0.000    0.000    0.000    0.000 
#    0.000    0.000    0.000    0.000    0.000    0.000 
#
# Total GULP energy -100419.915343 kJ/mol
# GULP energy per Si atom -5578.884186 kJ/mol
# Density = 2.026032 g / cm^3
# Si number density = 20.306542 Si / 1000 Ang^3
#
#
#
# Elastic Constant Matrix: (Units=GPa)
#
#
# Indices 1 2 3 4 5 6 
#
# 1 143.6043 73.1850 45.2728 0.0000 44.6650 0.0000
# 2 73.1850 154.7403 60.7865 0.0000 31.7928 0.0000
# 3 45.2728 60.7865 107.5595 0.0000 50.2191 0.0000
# 4 0.0000 0.0000 0.0000 44.9043 0.0000 32.8477
# 5 44.6650 31.7928 50.2191 0.0000 39.9227 0.0000
# 6 0.0000 0.0000 0.0000 32.8477 0.0000 -50.9985
#
#
#
# Elastic Compliance Matrix: (Units=1/GPa)
#
#
# Indices 1 2 3 4 5 6 
#
# 1 0.013211 -0.004716 0.005457 0.000000 -0.017888 0.000000
# 2 -0.004716 0.010039 -0.005862 0.000000 0.004656 0.000000
# 3 0.005457 -0.005862 0.026616 0.000000 -0.034917 0.000000
# 4 0.000000 0.000000 0.000000 0.015137 0.000000 0.009750
# 5 -0.017888 0.004656 -0.034917 0.000000 0.085276 0.000000
# 6 0.000000 0.000000 0.000000 0.009750 0.000000 -0.013329
#
#
# Mechanical properties :
#
#
# Convention : Reuss Voigt Hill
#
# Bulk Modulus (GPa) = 25.23827 84.93252 55.08540
# Shear Modulus (GPa) = 31.17161 21.87635 26.52398
#
# Velocity S-wave (km/s) = 3.92223 3.28579 3.61803
# Velocity P-wave (km/s) = 5.74173 7.50408 6.68127
#
# Compressibility (1/GPa) = 0.03962236
#
# Stress axis : x y z
#
# Youngs Moduli (GPa) = 75.69713 99.60814 37.57118
#
# Poissons Ratio (x) = 0.46978 -0.20502
# Poissons Ratio (y) = 0.35701 0.22026
# Poissons Ratio (z) = -0.41307 0.58394
#
# Static dielectric constant tensor:
#      x y z
#    x 1.762310 0.000000 -0.023830 
#    y 0.000000 1.681840 0.000000 
#    z -0.023830 0.000000 1.850950 
# 
# From -- ./inp_files/132870.got.cif
#   From: 2010.05.17/outbox.cif.g08.bks.cpg/sg15_67_cif.got.tgz:132870.got - 2010.06.03 18:47:42.
