data_PCOD9295221
_publ_section_title
;
Structure prediction by ZEFSAII (Michael W. Deem and Ramdas Pophale) SiO2 
 PCOD9295221
Probable space group: C 2/C
;
_chemical_formula_sum "Si O2"
_cell_formula_units_Z 40
_cell_length_a 13.357661
_cell_length_b 5.419925
_cell_length_c 22.387583
_cell_angle_alpha 90.000000
_cell_angle_beta 64.305640
_cell_angle_gamma 90.000000
_cell_volume 1460.539779
_symmetry_space_group_name_H-M "C 2/C"
_symmetry_group_IT_number 15
_symmetry_cell_setting 'monoclinic'
loop_
_space_group_symop_operation_xyz
x,y,z
-x,y,1/2-z
-x,-y,-z
x,-y,1/2+z
1/2+x,1/2+y,z
1/2-x,1/2+y,1/2-z
1/2-x,1/2-y,-z
1/2+x,1/2-y,1/2+z
loop_
_atom_site_type_symbol
_atom_site_label
_atom_site_fract_x
_atom_site_fract_y
_atom_site_fract_z
Si Si1 0.539698 0.233770 0.171535
Si Si2 0.841697 0.598212 0.010818
Si Si3 0.332733 0.060711 0.149948
Si Si4 0.111013 0.230567 0.182373
Si Si5 0.574751 0.304174 0.946000
O O1 0.500000 0.264365 0.250000
O O2 0.429507 0.174406 0.163526
O O3 0.594166 0.497389 0.142308
O O4 0.620597 0.997070 0.148858
O O5 0.844428 0.304705 0.022882
O O6 0.750000 0.750000 0.000000
O O7 0.663365 0.816922 0.917788
O O8 0.966957 0.635881 0.955415
O O9 0.210470 0.144774 0.199972
O O10 0.351269 0.767416 0.131723
O O11 0.000000 0.260468 0.250000
O O12 0.500000 0.500000 0.000000
#
# Coordination Sequence:
#
# PCOD9295221 Si02
#       5
#     8   8   8   8   8
#     4  10  24  44  68 100 138 179 239 291 360 432
#     4   9  21  41  60  91 136 177 233 284 348 423
#     4  10  23  42  67 100 137 184 231 298 361 422
#     4  10  24  43  69 101 136 183 237 288 363 432
#     4   9  21  40  61  95 133 181 234 286 347 430
#
# _framework density 27.387134
#
# number of rings (size 3 to 8) (size 9 to 14) (size 15 to 20)
#    1.200    1.200    0.000    0.000    2.800   12.000 
#    0.000    0.000    0.000    0.000    0.000    0.000 
#    0.000    0.000    0.000    0.000    0.000    0.000 
#
# Total GULP energy -111362.646152 kJ/mol
# GULP energy per Si atom -5568.132308 kJ/mol
# Density = 2.732480 g / cm^3
# Si number density = 27.387134 Si / 1000 Ang^3
#
#
#
# Elastic Constant Matrix: (Units=GPa)
#
#
# Indices 1 2 3 4 5 6 
#
# 1 193.5300 43.1639 24.7061 0.0001 8.1822 0.0003
# 2 43.1639 148.8583 7.1884 -0.0003 -3.5794 0.0008
# 3 24.7061 7.1884 66.8010 0.0002 -0.9478 0.0002
# 4 0.0001 -0.0003 0.0002 31.7367 -0.0001 -13.0790
# 5 8.1822 -3.5794 -0.9478 -0.0001 45.6576 -0.0001
# 6 0.0003 0.0008 0.0002 -13.0790 -0.0001 49.2385
#
#
#
# Elastic Compliance Matrix: (Units=1/GPa)
#
#
# Indices 1 2 3 4 5 6 
#
# 1 0.005836 -0.001625 -0.002001 0.000000 -0.001215 0.000000
# 2 -0.001625 0.007217 -0.000164 0.000000 0.000854 0.000000
# 3 -0.002001 -0.000164 0.015737 0.000000 0.000672 0.000000
# 4 0.000000 0.000000 0.000000 0.035382 0.000000 0.009398
# 5 -0.001215 0.000854 0.000672 0.000000 0.022201 0.000000
# 6 0.000000 0.000000 0.000000 0.009398 0.000000 0.022806
#
#
# Mechanical properties :
#
#
# Convention : Reuss Voigt Hill
#
# Bulk Modulus (GPa) = 47.14334 62.14511 54.64423
# Shear Modulus (GPa) = 40.37816 47.60194 43.99005
#
# Velocity S-wave (km/s) = 3.84389 4.17359 4.01213
# Velocity P-wave (km/s) = 6.07879 6.77981 6.43885
#
# Compressibility (1/GPa) = 0.02121190
#
# Stress axis : x y z
#
# Youngs Moduli (GPa) = 171.33910 138.55397 63.54442
#
# Poissons Ratio (x) = 0.22514 0.12715
# Poissons Ratio (y) = 0.27842 0.01039
# Poissons Ratio (z) = 0.34284 0.02266
#
# Static dielectric constant tensor:
#      x y z
#    x 2.141450 0.000000 -0.012860 
#    y 0.000000 2.662080 0.000000 
#    z -0.012860 0.000000 2.330730 
# 
# From -- ./inp_files/312017.got.cif
#   From: 2010.05.17/outbox.cif.g08.bks.cpg/sg15_157_cif.got.tgz:312017.got - 2010.06.03 18:47:42.
