data_PCOD9295984
_publ_section_title
;
Structure prediction by ZEFSAII (Michael W. Deem and Ramdas Pophale) SiO2 
 PCOD9295984
Probable space group: C 2/C
;
_chemical_formula_sum "Si O2"
_cell_formula_units_Z 44
_cell_length_a 15.749654
_cell_length_b 11.245424
_cell_length_c 13.822566
_cell_angle_alpha 90.000000
_cell_angle_beta 54.673359
_cell_angle_gamma 90.000000
_cell_volume 1997.357741
_symmetry_space_group_name_H-M "C 2/C"
_symmetry_group_IT_number 15
_symmetry_cell_setting 'monoclinic'
loop_
_space_group_symop_operation_xyz
x,y,z
-x,y,1/2-z
-x,-y,-z
x,-y,1/2+z
1/2+x,1/2+y,z
1/2-x,1/2+y,1/2-z
1/2-x,1/2-y,-z
1/2+x,1/2-y,1/2+z
loop_
_atom_site_type_symbol
_atom_site_label
_atom_site_fract_x
_atom_site_fract_y
_atom_site_fract_z
Si Si1 0.254714 0.247916 0.340153
Si Si2 0.500000 0.448544 0.750000
Si Si3 0.094723 0.544721 0.554708
Si Si4 0.704199 0.442304 0.025431
Si Si5 0.047227 0.336132 0.894745
Si Si6 0.439375 0.249710 0.643895
O O1 0.212067 0.128987 0.420340
O O2 0.257222 0.351636 0.416844
O O3 0.370555 0.222576 0.228539
O O4 0.179356 0.281299 0.301365
O O5 0.409739 0.518110 0.866388
O O6 0.446678 0.363719 0.705513
O O7 0.206690 0.544276 0.530918
O O8 0.010897 0.644283 0.639675
O O9 0.038303 0.417444 0.601291
O O10 0.894969 0.574309 0.067242
O O11 0.991832 0.241961 0.002230
#
# Coordination Sequence:
#
# PCOD9295984 Si02
#       6
#     8   4   8   8   8   8
#     4  11  23  42  70  92 127 172 224 264 325 374
#     4  12  28  42  60 104 146 154 212 278 350 380
#     4   9  19  44  64  91 122 172 228 244 315 392
#     4  11  25  42  63 100 128 169 218 273 319 389
#     4   9  19  40  69  91 124 168 223 265 300 389
#     4  10  23  44  63  95 127 176 209 266 326 394
#
# _framework density 22.029102000000002
#
# number of rings (size 3 to 8) (size 9 to 14) (size 15 to 20)
#    1.091    0.727    1.818    1.091    2.545    3.636 
#    6.545    0.000    0.000    0.000    0.000    0.000 
#    0.000    0.000    0.000    0.000    0.000    0.000 
#
# Total GULP energy -122750.762350 kJ/mol
# GULP energy per Si atom -5579.580107 kJ/mol
# Density = 2.197896 g / cm^3
# Si number density = 22.029102 Si / 1000 Ang^3
#
#
#
# Elastic Constant Matrix: (Units=GPa)
#
#
# Indices 1 2 3 4 5 6 
#
# 1 46.7488 -3.7955 -1.2048 0.0000 -14.4670 0.0000
# 2 -3.7955 17.1260 -0.8228 0.0000 2.1969 0.0000
# 3 -1.2048 -0.8228 65.4940 0.0000 -7.8757 0.0000
# 4 0.0000 0.0000 0.0000 45.7951 0.0000 -25.6006
# 5 -14.4670 2.1969 -7.8757 0.0000 21.9917 0.0000
# 6 0.0000 0.0000 0.0000 -25.6006 0.0000 27.6681
#
#
#
# Elastic Compliance Matrix: (Units=1/GPa)
#
#
# Indices 1 2 3 4 5 6 
#
# 1 0.027584 0.003841 0.002813 0.000000 0.018769 0.000000
# 2 0.003841 0.059684 0.000426 0.000000 -0.003283 0.000000
# 3 0.002813 0.000426 0.016243 0.000000 0.007625 0.000000
# 4 0.000000 0.000000 0.000000 0.045233 0.000000 0.041853
# 5 0.018769 -0.003283 0.007625 0.000000 0.060877 0.000000
# 6 0.000000 0.000000 0.000000 0.041853 0.000000 0.074869
#
#
# Mechanical properties :
#
#
# Convention : Reuss Voigt Hill
#
# Bulk Modulus (GPa) = 8.49854 13.08028 10.78941
# Shear Modulus (GPa) = 16.15230 28.10378 22.12804
#
# Velocity S-wave (km/s) = 2.71075 3.57565 3.17281
# Velocity P-wave (km/s) = 3.69646 4.79559 4.28144
#
# Compressibility (1/GPa) = 0.11766733
#
# Stress axis : x y z
#
# Youngs Moduli (GPa) = 36.25355 16.75503 61.56675
#
# Poissons Ratio (x) = -0.06435 -0.17317
# Poissons Ratio (y) = -0.13923 -0.02620
# Poissons Ratio (z) = -0.10197 -0.00713
#
# Static dielectric constant tensor:
#      x y z
#    x 1.850330 0.000000 0.018460 
#    y 0.000000 1.838640 0.000000 
#    z 0.018460 0.000000 1.801530 
# 
# From -- ./inp_files/103627.got.cif
#   From: 2010.05.17/outbox.cif.g08.bks.cpg/sg15_52_cif.got.tgz:103627.got - 2010.06.03 18:47:42.
