data_PCOD9295306
_publ_section_title
;
Structure prediction by ZEFSAII (Michael W. Deem and Ramdas Pophale) SiO2 
 PCOD9295306
Probable space group: C 2/C
;
_chemical_formula_sum "Si O2"
_cell_formula_units_Z 64
_cell_length_a 14.156953
_cell_length_b 18.289126
_cell_length_c 14.787647
_cell_angle_alpha 90.000000
_cell_angle_beta 50.382691
_cell_angle_gamma 90.000000
_cell_volume 2949.397807
_symmetry_space_group_name_H-M "C 2/C"
_symmetry_group_IT_number 15
_symmetry_cell_setting 'monoclinic'
loop_
_space_group_symop_operation_xyz
x,y,z
-x,y,1/2-z
-x,-y,-z
x,-y,1/2+z
1/2+x,1/2+y,z
1/2-x,1/2+y,1/2-z
1/2-x,1/2-y,-z
1/2+x,1/2-y,1/2+z
loop_
_atom_site_type_symbol
_atom_site_label
_atom_site_fract_x
_atom_site_fract_y
_atom_site_fract_z
Si Si1 0.361429 0.633746 0.859198
Si Si2 0.276197 0.417833 0.732116
Si Si3 0.664550 0.438142 0.409471
Si Si4 0.138772 0.964103 0.639266
Si Si5 0.890536 0.325427 0.038319
Si Si6 0.433961 0.335797 0.508689
Si Si7 0.502831 0.036318 0.398676
Si Si8 0.059501 0.612503 0.797706
O O1 0.500000 0.655484 0.750000
O O2 0.343589 0.548997 0.844596
O O3 0.256667 0.681480 0.876656
O O4 0.357806 0.635855 0.969474
O O5 0.346352 0.487353 0.642864
O O6 0.279942 0.420266 0.838547
O O7 0.347240 0.348871 0.648427
O O8 0.135364 0.430813 0.792957
O O9 0.657300 0.452978 0.521562
O O10 0.558002 0.381990 0.445447
O O11 0.798699 0.406596 0.306299
O O12 0.000000 0.944695 0.750000
O O13 0.953758 0.249369 0.977205
O O14 0.939693 0.348207 0.106529
O O15 0.915868 0.393696 0.955858
O O16 0.500000 0.000000 0.500000
O O17 0.482535 0.963702 0.352785
O O18 0.000000 0.654396 0.750000
#
# Coordination Sequence:
#
# PCOD9295306 Si02
#       8
#     8   8   8   8   8   8   8   8
#     4  11  23  41  69  94 129 174 219 280 335 384
#     4  11  22  39  63  99 129 171 224 276 325 396
#     4  11  22  41  66 100 131 169 227 275 331 391
#     4  11  20  35  67  99 129 164 223 280 328 380
#     4  11  25  44  62  99 135 175 222 264 343 410
#     4  12  24  42  64  94 140 173 214 275 333 413
#     4   9  21  40  64  88 124 168 219 272 322 382
#     4  10  23  42  68  94 129 170 221 279 325 396
#
# _framework density 21.699344
#
# number of rings (size 3 to 8) (size 9 to 14) (size 15 to 20)
#    0.000    1.250    2.500    5.250    5.250    2.000 
#    2.250    1.250    0.000    0.000    0.000    0.000 
#    0.000    0.000    0.000    0.000    0.000    0.000 
#
# Total GULP energy -178744.891663 kJ/mol
# GULP energy per Si atom -5585.777864 kJ/mol
# Density = 2.164996 g / cm^3
# Si number density = 21.699344 Si / 1000 Ang^3
#
#
#
# Elastic Constant Matrix: (Units=GPa)
#
#
# Indices 1 2 3 4 5 6 
#
# 1 79.9089 18.0386 1.6935 0.0000 9.7176 0.0000
# 2 18.0386 53.8211 18.4486 0.0000 -12.1573 0.0000
# 3 1.6935 18.4486 58.7139 0.0000 10.2122 0.0000
# 4 0.0000 0.0000 0.0000 15.5867 0.0000 -2.2587
# 5 9.7176 -12.1573 10.2122 0.0000 49.1809 0.0000
# 6 0.0000 0.0000 0.0000 -2.2587 0.0000 15.0768
#
#
#
# Elastic Compliance Matrix: (Units=1/GPa)
#
#
# Indices 1 2 3 4 5 6 
#
# 1 0.014670 -0.007008 0.002681 0.000000 -0.005188 0.000000
# 2 -0.007008 0.026580 -0.009890 0.000000 0.010009 0.000000
# 3 0.002681 -0.009890 0.021351 0.000000 -0.007408 0.000000
# 4 0.000000 0.000000 0.000000 0.065581 0.000000 0.009825
# 5 -0.005188 0.010009 -0.007408 0.000000 0.025370 0.000000
# 6 0.000000 0.000000 0.000000 0.009825 0.000000 0.067799
#
#
# Mechanical properties :
#
#
# Convention : Reuss Voigt Hill
#
# Bulk Modulus (GPa) = 29.26841 29.86726 29.56783
# Shear Modulus (GPa) = 19.14431 26.25307 22.69869
#
# Velocity S-wave (km/s) = 2.97350 3.48207 3.23778
# Velocity P-wave (km/s) = 5.03054 5.47361 5.25675
#
# Compressibility (1/GPa) = 0.03416653
#
# Stress axis : x y z
#
# Youngs Moduli (GPa) = 68.16542 37.62267 46.83714
#
# Poissons Ratio (x) = 0.26365 -0.12557
# Poissons Ratio (y) = 0.47768 0.46324
# Poissons Ratio (z) = -0.18275 0.37210
#
# Static dielectric constant tensor:
#      x y z
#    x 1.795950 0.000000 -0.004930 
#    y 0.000000 1.774670 0.000000 
#    z -0.004930 0.000000 1.842370 
# 
# From -- ./inp_files/155499.got.cif
#   From: 2010.05.17/outbox.cif.g08.bks.cpg/sg15_78_cif.got.tgz:155499.got - 2010.06.03 18:47:42.
