data_PCOD9295534
_publ_section_title
;
Structure prediction by ZEFSAII (Michael W. Deem and Ramdas Pophale) SiO2 
 PCOD9295534
Probable space group: C 2/C
;
_chemical_formula_sum "Si O2"
_cell_formula_units_Z 36
_cell_length_a 18.641010
_cell_length_b 9.465831
_cell_length_c 22.127712
_cell_angle_alpha 90.000000
_cell_angle_beta 154.977510
_cell_angle_gamma 90.000000
_cell_volume 1651.499114
_symmetry_space_group_name_H-M "C 2/C"
_symmetry_group_IT_number 15
_symmetry_cell_setting 'monoclinic'
loop_
_space_group_symop_operation_xyz
x,y,z
-x,y,1/2-z
-x,-y,-z
x,-y,1/2+z
1/2+x,1/2+y,z
1/2-x,1/2+y,1/2-z
1/2-x,1/2-y,-z
1/2+x,1/2-y,1/2+z
loop_
_atom_site_type_symbol
_atom_site_label
_atom_site_fract_x
_atom_site_fract_y
_atom_site_fract_z
Si Si1 0.000000 0.599455 0.750000
Si Si2 0.363460 0.459857 0.234405
Si Si3 0.770399 0.726223 0.675934
Si Si4 0.231156 0.915916 0.477079
Si Si5 0.418596 0.142194 0.908815
O O1 0.862414 0.688660 0.683154
O O2 0.891781 0.501460 0.622893
O O3 0.323323 0.612924 0.230522
O O4 0.564273 0.448472 0.388565
O O5 0.305684 0.454666 0.120428
O O6 0.253620 0.339605 0.183959
O O7 0.565839 0.738876 0.521039
O O8 0.850971 0.627913 0.788941
O O9 0.250000 0.750000 0.500000
O O10 0.500000 0.000000 0.000000
#
# Coordination Sequence:
#
# PCOD9295534 Si02
#       5
#     4   8   8   8   8
#     4  12  22  40  72 100 126 166 242 278 334 404
#     4  10  23  44  64  93 138 174 221 273 336 398
#     4  11  23  42  70 100 129 176 223 285 334 390
#     4  11  24  42  65  96 132 180 217 278 337 396
#     4  10  23  43  63  98 138 170 215 272 341 398
#
# _framework density 21.798376000000001
#
# number of rings (size 3 to 8) (size 9 to 14) (size 15 to 20)
#    0.000    1.333    0.000    6.667    3.111    2.667 
#    8.000    5.556    0.000    0.000    0.000    0.000 
#    0.000    0.000    0.000    0.000    0.000    0.000 
#
# Total GULP energy -100466.458977 kJ/mol
# GULP energy per Si atom -5581.469943 kJ/mol
# Density = 2.174876 g / cm^3
# Si number density = 21.798376 Si / 1000 Ang^3
#
#
#
# Elastic Constant Matrix: (Units=GPa)
#
#
# Indices 1 2 3 4 5 6 
#
# 1 115.0700 13.7529 28.4649 0.0001 24.5022 0.0000
# 2 13.7529 54.3521 18.2254 0.0004 4.9781 0.0003
# 3 28.4649 18.2254 78.9203 0.0015 15.1022 0.0009
# 4 0.0001 0.0004 0.0015 10.8526 0.0003 -9.6533
# 5 24.5022 4.9781 15.1022 0.0003 39.4153 0.0002
# 6 0.0000 0.0003 0.0009 -9.6533 0.0002 19.4283
#
#
#
# Elastic Compliance Matrix: (Units=1/GPa)
#
#
# Indices 1 2 3 4 5 6 
#
# 1 0.010633 -0.001359 -0.002470 0.000001 -0.005492 0.000001
# 2 -0.001359 0.020141 -0.004139 0.000000 -0.000113 0.000000
# 3 -0.002470 -0.004139 0.015242 -0.000004 -0.003781 -0.000003
# 4 0.000001 0.000000 -0.000004 0.165122 -0.000001 0.082044
# 5 -0.005492 -0.000113 -0.003781 -0.000001 0.030248 0.000000
# 6 0.000001 0.000000 -0.000003 0.082044 0.000000 0.092236
#
#
# Mechanical properties :
#
#
# Convention : Reuss Voigt Hill
#
# Bulk Modulus (GPa) = 33.24717 41.02541 37.13629
# Shear Modulus (GPa) = 13.90487 26.46585 20.18536
#
# Velocity S-wave (km/s) = 2.52838 3.48820 3.04633
# Velocity P-wave (km/s) = 4.87943 5.92323 5.42649
#
# Compressibility (1/GPa) = 0.03007775
#
# Stress axis : x y z
#
# Youngs Moduli (GPa) = 94.04402 49.65042 65.61008
#
# Poissons Ratio (x) = 0.06748 0.16208
# Poissons Ratio (y) = 0.12782 0.27158
# Poissons Ratio (z) = 0.23233 0.20552
#
# Static dielectric constant tensor:
#      x y z
#    x 1.934380 0.000000 0.057630 
#    y 0.000000 1.770900 0.000000 
#    z 0.057630 0.000000 1.823920 
# 
# From -- ./inp_files/247911.got.cif
#   From: 2010.05.17/outbox.cif.g08.bks.cpg/sg15_124_cif.got.tgz:247911.got - 2010.06.03 18:47:42.
