data_PCOD9295896
_publ_section_title
;
Structure prediction by ZEFSAII (Michael W. Deem and Ramdas Pophale) SiO2 
 PCOD9295896
Probable space group: C 2/C
;
_chemical_formula_sum "Si O2"
_cell_formula_units_Z 44
_cell_length_a 5.456588
_cell_length_b 19.272197
_cell_length_c 18.585536
_cell_angle_alpha 90.000000
_cell_angle_beta 111.854791
_cell_angle_gamma 90.000000
_cell_volume 1813.996385
_symmetry_space_group_name_H-M "C 2/C"
_symmetry_group_IT_number 15
_symmetry_cell_setting 'monoclinic'
loop_
_space_group_symop_operation_xyz
x,y,z
-x,y,1/2-z
-x,-y,-z
x,-y,1/2+z
1/2+x,1/2+y,z
1/2-x,1/2+y,1/2-z
1/2-x,1/2-y,-z
1/2+x,1/2-y,1/2+z
loop_
_atom_site_type_symbol
_atom_site_label
_atom_site_fract_x
_atom_site_fract_y
_atom_site_fract_z
Si Si1 0.691857 0.206156 0.881730
Si Si2 0.610885 0.172342 0.183612
Si Si3 0.022494 0.965972 0.580208
Si Si4 0.424112 0.686984 0.452552
Si Si5 0.154168 0.482315 0.669627
Si Si6 0.500000 0.907252 0.250000
O O1 0.505665 0.241343 0.922093
O O2 0.603419 0.139794 0.826940
O O3 0.708782 0.267304 0.825781
O O4 0.963313 0.190699 0.954574
O O5 0.500000 0.190547 0.250000
O O6 0.380255 0.173164 0.097875
O O7 0.725112 0.095438 0.201835
O O8 0.953461 0.883582 0.567845
O O9 0.811244 0.996272 0.613437
O O10 0.000000 0.000000 0.500000
O O11 0.333346 0.977426 0.630670
O O12 0.205822 0.541371 0.733709
#
# Coordination Sequence:
#
# PCOD9295896 Si02
#       6
#     8   8   8   8   8   4
#     4  11  23  45  69 103 150 184 254 305 384 441
#     4  11  22  44  72 102 141 199 248 300 379 457
#     4  11  23  46  75 104 143 196 251 306 375 447
#     4  10  23  43  72 103 138 196 248 309 370 457
#     4  11  25  46  71 105 147 193 249 307 373 450
#     4  12  26  48  70 116 148 198 246 330 374 450
#
# _framework density 24.255835000000001
#
# number of rings (size 3 to 8) (size 9 to 14) (size 15 to 20)
#    0.000    1.091    2.727    3.273    0.000    0.727 
#   19.636    0.000    0.000    0.000    0.000    0.000 
#    0.000    0.000    0.000    0.000    0.000    0.000 
#
# Total GULP energy -122975.372972 kJ/mol
# GULP energy per Si atom -5589.789681 kJ/mol
# Density = 2.420063 g / cm^3
# Si number density = 24.255835 Si / 1000 Ang^3
#
#
#
# Elastic Constant Matrix: (Units=GPa)
#
#
# Indices 1 2 3 4 5 6 
#
# 1 113.5802 39.2030 71.7541 0.0000 -13.8798 0.0000
# 2 39.2030 147.7796 61.3267 0.0000 -7.2459 0.0000
# 3 71.7541 61.3267 158.4846 0.0000 4.6097 0.0000
# 4 0.0000 0.0000 0.0000 175.0877 0.0000 -25.0890
# 5 -13.8798 -7.2459 4.6097 0.0000 56.6108 0.0000
# 6 0.0000 0.0000 0.0000 -25.0890 0.0000 16.6168
#
#
#
# Elastic Compliance Matrix: (Units=1/GPa)
#
#
# Indices 1 2 3 4 5 6 
#
# 1 0.013169 -0.000954 -0.005697 0.000000 0.003571 0.000000
# 2 -0.000954 0.008225 -0.002781 0.000000 0.001045 0.000000
# 3 -0.005697 -0.002781 0.010040 0.000000 -0.002570 0.000000
# 4 0.000000 0.000000 0.000000 0.007288 0.000000 0.011004
# 5 0.003571 0.001045 -0.002570 0.000000 0.018883 0.000000
# 6 0.000000 0.000000 0.000000 0.011004 0.000000 0.076795
#
#
# Mechanical properties :
#
#
# Convention : Reuss Voigt Hill
#
# Bulk Modulus (GPa) = 79.55657 84.93465 82.24561
# Shear Modulus (GPa) = 31.75500 66.16708 48.96104
#
# Velocity S-wave (km/s) = 3.62217 5.22858 4.49768
# Velocity P-wave (km/s) = 7.09673 8.45831 7.80726
#
# Compressibility (1/GPa) = 0.01256967
#
# Stress axis : x y z
#
# Youngs Moduli (GPa) = 75.93555 121.57436 99.60140
#
# Poissons Ratio (x) = 0.11602 0.56742
# Poissons Ratio (y) = 0.07246 0.27701
# Poissons Ratio (z) = 0.43260 0.33813
#
# Static dielectric constant tensor:
#      x y z
#    x 1.972660 0.000000 0.034580 
#    y 0.000000 1.953010 0.000000 
#    z 0.034580 0.000000 1.836010 
# 
# From -- ./inp_files/184993.got.cif
#   From: 2010.05.17/outbox.cif.g08.bks.cpg/sg15_93_cif.got.tgz:184993.got - 2010.06.03 18:47:42.
