data_PCOD9295580
_publ_section_title
;
Structure prediction by ZEFSAII (Michael W. Deem and Ramdas Pophale) SiO2 
 PCOD9295580
Probable space group: C 2/C
;
_chemical_formula_sum "Si O2"
_cell_formula_units_Z 24
_cell_length_a 7.338983
_cell_length_b 7.439893
_cell_length_c 16.546683
_cell_angle_alpha 90.000000
_cell_angle_beta 100.710514
_cell_angle_gamma 90.000000
_cell_volume 887.729941
_symmetry_space_group_name_H-M "C 2/C"
_symmetry_group_IT_number 15
_symmetry_cell_setting 'monoclinic'
loop_
_space_group_symop_operation_xyz
x,y,z
-x,y,1/2-z
-x,-y,-z
x,-y,1/2+z
1/2+x,1/2+y,z
1/2-x,1/2+y,1/2-z
1/2-x,1/2-y,-z
1/2+x,1/2-y,1/2+z
loop_
_atom_site_type_symbol
_atom_site_label
_atom_site_fract_x
_atom_site_fract_y
_atom_site_fract_z
Si Si1 0.425583 0.617383 0.829204
Si Si2 0.057816 0.474404 0.375877
Si Si3 0.762782 0.936901 0.046211
O O1 0.500000 0.550612 0.750000
O O2 0.205574 0.601217 0.824376
O O3 0.533454 0.508114 0.908590
O O4 0.504547 0.819583 0.848558
O O5 0.162236 0.440808 0.471298
O O6 0.854612 0.405815 0.381450
O O7 0.750000 0.750000 0.000000
#
# Coordination Sequence:
#
# PCOD9295580 Si02
#       3
#     8   8   8
#     4  11  25  40  64  96 132 174 217 276 336 398
#     4  10  23  43  65  93 130 172 222 272 332 402
#     4   9  21  42  67  95 126 172 221 274 330 397
#
# _framework density 27.035250000000001
#
# number of rings (size 3 to 8) (size 9 to 14) (size 15 to 20)
#    0.000    2.000    0.000    1.000    4.667   17.333 
#    0.000    0.000    0.000    0.000    0.000    0.000 
#    0.000    0.000    0.000    0.000    0.000    0.000 
#
# Total GULP energy -67036.030003 kJ/mol
# GULP energy per Si atom -5586.335834 kJ/mol
# Density = 2.697372 g / cm^3
# Si number density = 27.035250 Si / 1000 Ang^3
#
#
#
# Elastic Constant Matrix: (Units=GPa)
#
#
# Indices 1 2 3 4 5 6 
#
# 1 158.1400 21.3050 25.9785 0.0000 -44.4379 0.0000
# 2 21.3050 61.6586 -2.7497 0.0000 -4.1328 0.0000
# 3 25.9785 -2.7497 99.4866 0.0000 -33.7135 0.0000
# 4 0.0000 0.0000 0.0000 19.8091 0.0000 -4.3142
# 5 -44.4379 -4.1328 -33.7135 0.0000 58.7820 0.0000
# 6 0.0000 0.0000 0.0000 -4.3142 0.0000 47.5667
#
#
#
# Elastic Compliance Matrix: (Units=1/GPa)
#
#
# Indices 1 2 3 4 5 6 
#
# 1 0.008396 -0.002505 -0.000212 0.000000 0.006049 0.000000
# 2 -0.002505 0.017130 0.001110 0.000000 -0.000053 0.000000
# 3 -0.000212 0.001110 0.012549 0.000000 0.007115 0.000000
# 4 0.000000 0.000000 0.000000 0.051499 0.000000 0.004671
# 5 0.006049 -0.000053 0.007115 0.000000 0.025662 0.000000
# 6 0.000000 0.000000 0.000000 0.004671 0.000000 0.021447
#
#
# Mechanical properties :
#
#
# Convention : Reuss Voigt Hill
#
# Bulk Modulus (GPa) = 28.68580 45.37254 37.02917
# Shear Modulus (GPa) = 32.99977 43.54832 38.27405
#
# Velocity S-wave (km/s) = 3.49753 4.01783 3.76667
# Velocity P-wave (km/s) = 5.19074 6.19218 5.71345
#
# Compressibility (1/GPa) = 0.03486045
#
# Stress axis : x y z
#
# Youngs Moduli (GPa) = 119.10920 58.37780 79.68975
#
# Poissons Ratio (x) = 0.14623 0.01686
# Poissons Ratio (y) = 0.29836 -0.08843
# Poissons Ratio (z) = 0.02520 -0.06478
#
# Static dielectric constant tensor:
#      x y z
#    x 2.148830 0.000000 0.005560 
#    y 0.000000 2.168840 0.000000 
#    z 0.005560 0.000000 2.269610 
# 
# From -- ./inp_files/131197.got.cif
#   From: 2010.05.17/outbox.cif.g08.bks.cpg/sg15_66_cif.got.tgz:131197.got - 2010.06.03 18:47:42.
