data_PCOD9295554
_publ_section_title
;
Structure prediction by ZEFSAII (Michael W. Deem and Ramdas Pophale) SiO2 
 PCOD9295554
Probable space group: C 2/C
;
_chemical_formula_sum "Si O2"
_cell_formula_units_Z 32
_cell_length_a 11.832246
_cell_length_b 8.106564
_cell_length_c 15.628686
_cell_angle_alpha 90.000000
_cell_angle_beta 124.082107
_cell_angle_gamma 90.000000
_cell_volume 1241.595840
_symmetry_space_group_name_H-M "C 2/C"
_symmetry_group_IT_number 15
_symmetry_cell_setting 'monoclinic'
loop_
_space_group_symop_operation_xyz
x,y,z
-x,y,1/2-z
-x,-y,-z
x,-y,1/2+z
1/2+x,1/2+y,z
1/2-x,1/2+y,1/2-z
1/2-x,1/2-y,-z
1/2+x,1/2-y,1/2+z
loop_
_atom_site_type_symbol
_atom_site_label
_atom_site_fract_x
_atom_site_fract_y
_atom_site_fract_z
Si Si1 0.895579 0.124570 0.866704
Si Si2 0.120042 0.776293 0.734169
Si Si3 0.871164 0.292125 0.442605
Si Si4 0.080478 0.375959 0.858312
O O1 0.756476 0.211773 0.837429
O O2 0.967656 0.234442 0.824463
O O3 0.864869 0.951123 0.809075
O O4 0.009519 0.160340 0.986818
O O5 0.108881 0.654941 0.646481
O O6 0.000000 0.802949 0.750000
O O7 0.885042 0.422729 0.527014
O O8 0.725604 0.201098 0.392105
O O9 0.000000 0.478328 0.750000
#
# Coordination Sequence:
#
# PCOD9295554 Si02
#       4
#     8   8   8   8
#     4  10  23  43  64  95 132 167 213 265 317 376
#     4  12  25  42  66  95 132 172 211 266 320 379
#     4   9  19  38  68  96 121 172 217 255 321 382
#     4   9  16  35  69  95 119 167 217 256 317 377
#
# _framework density 25.773281999999998
#
# number of rings (size 3 to 8) (size 9 to 14) (size 15 to 20)
#    1.500    0.500    2.500    1.500    0.000    1.000 
#    4.500    1.250    0.000    0.000    0.000    0.000 
#    0.000    0.000    0.000    0.000    0.000    0.000 
#
# Total GULP energy -89082.636950 kJ/mol
# GULP energy per Si atom -5567.664809 kJ/mol
# Density = 2.571462 g / cm^3
# Si number density = 25.773282 Si / 1000 Ang^3
#
#
#
# Elastic Constant Matrix: (Units=GPa)
#
#
# Indices 1 2 3 4 5 6 
#
# 1 183.9703 -1.5476 55.2886 0.0000 8.9288 0.0000
# 2 -1.5476 51.6836 6.2549 0.0000 18.9100 0.0000
# 3 55.2886 6.2549 182.8297 0.0000 15.7555 0.0000
# 4 0.0000 0.0000 0.0000 18.7102 0.0000 2.9221
# 5 8.9288 18.9100 15.7555 0.0000 74.3675 0.0000
# 6 0.0000 0.0000 0.0000 2.9221 0.0000 14.5231
#
#
#
# Elastic Compliance Matrix: (Units=1/GPa)
#
#
# Indices 1 2 3 4 5 6 
#
# 1 0.006003 0.000575 -0.001793 0.000000 -0.000487 0.000000
# 2 0.000575 0.021401 -0.000439 0.000000 -0.005418 0.000000
# 3 -0.001793 -0.000439 0.006110 0.000000 -0.000968 0.000000
# 4 0.000000 0.000000 0.000000 0.055181 0.000000 -0.011103
# 5 -0.000487 -0.005418 -0.000968 0.000000 0.015088 0.000000
# 6 0.000000 0.000000 0.000000 -0.011103 0.000000 0.071090
#
#
# Mechanical properties :
#
#
# Convention : Reuss Voigt Hill
#
# Bulk Modulus (GPa) = 33.11270 59.83059 46.47165
# Shear Modulus (GPa) = 26.55989 45.41934 35.98962
#
# Velocity S-wave (km/s) = 3.21365 4.20249 3.74089
# Velocity P-wave (km/s) = 5.16195 6.84196 6.06045
#
# Compressibility (1/GPa) = 0.03019989
#
# Stress axis : x y z
#
# Youngs Moduli (GPa) = 166.58351 46.72647 163.66085
#
# Poissons Ratio (x) = -0.02687 0.29345
# Poissons Ratio (y) = -0.09578 0.07187
# Poissons Ratio (z) = 0.29869 0.02052
#
# Static dielectric constant tensor:
#      x y z
#    x 2.064680 0.000000 -0.108180 
#    y 0.000000 2.086960 0.000000 
#    z -0.108180 0.000000 2.103030 
# 
# From -- ./inp_files/236742.got.cif
#   From: 2010.05.17/outbox.cif.g08.bks.cpg/sg15_119_cif.got.tgz:236742.got - 2010.06.03 18:47:42.
