data_PCOD9295748
_publ_section_title
;
Structure prediction by ZEFSAII (Michael W. Deem and Ramdas Pophale) SiO2 
 PCOD9295748
Probable space group: C 2/C
;
_chemical_formula_sum "Si O2"
_cell_formula_units_Z 40
_cell_length_a 14.778509
_cell_length_b 12.070278
_cell_length_c 12.398989
_cell_angle_alpha 90.000000
_cell_angle_beta 130.148525
_cell_angle_gamma 90.000000
_cell_volume 1690.600472
_symmetry_space_group_name_H-M "C 2/C"
_symmetry_group_IT_number 15
_symmetry_cell_setting 'monoclinic'
loop_
_space_group_symop_operation_xyz
x,y,z
-x,y,1/2-z
-x,-y,-z
x,-y,1/2+z
1/2+x,1/2+y,z
1/2-x,1/2+y,1/2-z
1/2-x,1/2-y,-z
1/2+x,1/2-y,1/2+z
loop_
_atom_site_type_symbol
_atom_site_label
_atom_site_fract_x
_atom_site_fract_y
_atom_site_fract_z
Si Si1 0.393077 0.488144 0.082909
Si Si2 0.160769 0.564982 0.021006
Si Si3 0.402554 0.910473 0.358100
Si Si4 0.489082 0.250241 0.117383
Si Si5 0.821430 0.808809 0.395820
O O1 0.500000 0.505100 0.250000
O O2 0.262908 0.503849 0.034748
O O3 0.412044 0.363365 0.056489
O O4 0.396227 0.589298 0.001239
O O5 0.167241 0.515112 0.147257
O O6 0.175477 0.696329 0.034614
O O7 0.021384 0.551140 0.890784
O O8 0.438094 0.834202 0.488750
O O9 0.313771 0.843958 0.216961
O O10 0.500000 0.212373 0.250000
O O11 0.619551 0.282554 0.174154
#
# Coordination Sequence:
#
# PCOD9295748 Si02
#       5
#     8   8   8   8   8
#     4  11  24  41  69  98 134 171 226 266 329 396
#     4  10  24  43  61 102 129 176 215 272 335 386
#     4  10  23  44  67  94 139 167 228 269 329 400
#     4  10  23  43  68  99 127 176 222 273 328 386
#     4  11  24  41  69  95 134 177 217 273 331 392
#
# _framework density 23.660232000000001
#
# number of rings (size 3 to 8) (size 9 to 14) (size 15 to 20)
#    0.000    1.600    0.000    3.600    8.400    4.000 
#    7.200    0.000    0.000    0.000    0.000    0.000 
#    0.000    0.000    0.000    0.000    0.000    0.000 
#
# Total GULP energy -111794.094203 kJ/mol
# GULP energy per Si atom -5589.704710 kJ/mol
# Density = 2.360638 g / cm^3
# Si number density = 23.660232 Si / 1000 Ang^3
#
#
#
# Elastic Constant Matrix: (Units=GPa)
#
#
# Indices 1 2 3 4 5 6 
#
# 1 150.9869 23.1471 23.9272 0.0000 16.8242 0.0000
# 2 23.1471 130.9001 47.8918 0.0000 -1.9635 0.0000
# 3 23.9272 47.8918 71.3767 0.0000 4.2682 0.0000
# 4 0.0000 0.0000 0.0000 -91.3455 0.0000 -2.8702
# 5 16.8242 -1.9635 4.2682 0.0000 21.3565 0.0000
# 6 0.0000 0.0000 0.0000 -2.8702 0.0000 36.7554
#
#
#
# Elastic Compliance Matrix: (Units=1/GPa)
#
#
# Indices 1 2 3 4 5 6 
#
# 1 0.007658 -0.000832 -0.001663 0.000000 -0.005777 0.000000
# 2 -0.000832 0.010330 -0.006830 0.000000 0.002970 0.000000
# 3 -0.001663 -0.006830 0.019341 0.000000 -0.003183 0.000000
# 4 0.000000 0.000000 0.000000 -0.010921 0.000000 -0.000853
# 5 -0.005777 0.002970 -0.003183 0.000000 0.052284 0.000000
# 6 0.000000 0.000000 0.000000 -0.000853 0.000000 0.027140
#
#
# Mechanical properties :
#
#
# Convention : Reuss Voigt Hill
#
# Bulk Modulus (GPa) = 53.53884 60.35508 56.94696
# Shear Modulus (GPa) = 38.25294 10.57313 24.41303
#
# Velocity S-wave (km/s) = 4.02526 2.11623 3.21568
# Velocity P-wave (km/s) = 6.65439 5.61567 6.15697
#
# Compressibility (1/GPa) = 0.01867803
#
# Stress axis : x y z
#
# Youngs Moduli (GPa) = 130.58280 96.80652 51.70471
#
# Poissons Ratio (x) = 0.08057 0.08600
# Poissons Ratio (y) = 0.10868 0.35313
# Poissons Ratio (z) = 0.21719 0.66116
#
# Static dielectric constant tensor:
#      x y z
#    x 1.947110 0.000000 -0.039790 
#    y 0.000000 1.919310 0.000000 
#    z -0.039790 0.000000 1.886810 
# 
# From -- ./inp_files/111381.got.cif
#   From: 2010.05.17/outbox.cif.g08.bks.cpg/sg15_56_cif.got.tgz:111381.got - 2010.06.03 18:47:42.
