data_PCOD9295373
_publ_section_title
;
Structure prediction by ZEFSAII (Michael W. Deem and Ramdas Pophale) SiO2 
 PCOD9295373
Probable space group: C 2/C
;
_chemical_formula_sum "Si O2"
_cell_formula_units_Z 32
_cell_length_a 15.573161
_cell_length_b 15.286247
_cell_length_c 10.305438
_cell_angle_alpha 90.000000
_cell_angle_beta 32.849487
_cell_angle_gamma 90.000000
_cell_volume 1330.733275
_symmetry_space_group_name_H-M "C 2/C"
_symmetry_group_IT_number 15
_symmetry_cell_setting 'monoclinic'
loop_
_space_group_symop_operation_xyz
x,y,z
-x,y,1/2-z
-x,-y,-z
x,-y,1/2+z
1/2+x,1/2+y,z
1/2-x,1/2+y,1/2-z
1/2-x,1/2-y,-z
1/2+x,1/2-y,1/2+z
loop_
_atom_site_type_symbol
_atom_site_label
_atom_site_fract_x
_atom_site_fract_y
_atom_site_fract_z
Si Si1 0.133007 0.125741 0.971610
Si Si2 0.867165 0.826303 0.310267
Si Si3 0.298776 0.957550 0.825496
Si Si4 0.470894 0.129952 0.643610
O O1 0.080053 0.170288 0.905368
O O2 0.306847 0.164836 0.789912
O O3 0.174651 0.021229 0.909463
O O4 0.000000 0.134558 0.250000
O O5 0.750000 0.750000 0.500000
O O6 0.776883 0.916659 0.451508
O O7 0.000000 0.823436 0.250000
O O8 0.376146 0.879714 0.642445
O O9 0.429011 0.026363 0.707757
O O10 0.500000 0.165684 0.750000
#
# Coordination Sequence:
#
# PCOD9295373 Si02
#       4
#     8   8   8   8
#     4  10  23  42  70 103 135 173 239 284 340 406
#     4  12  29  45  69  99 143 186 225 287 352 413
#     4   9  21  38  70  99 141 176 235 269 347 399
#     4   9  19  35  67 102 133 173 223 285 329 396
#
# _framework density 24.046893000000001
#
# number of rings (size 3 to 8) (size 9 to 14) (size 15 to 20)
#    1.500    0.500    0.000    2.250    7.000    2.000 
#    0.000    2.500    0.000    0.000    0.000    0.000 
#    0.000    0.000    0.000    0.000    0.000    0.000 
#
# Total GULP energy -89245.805966 kJ/mol
# GULP energy per Si atom -5577.862873 kJ/mol
# Density = 2.399216 g / cm^3
# Si number density = 24.046893 Si / 1000 Ang^3
#
#
#
# Elastic Constant Matrix: (Units=GPa)
#
#
# Indices 1 2 3 4 5 6 
#
# 1 139.9291 13.4458 73.6813 -0.0001 33.2166 0.0001
# 2 13.4458 64.5226 33.4932 0.0000 4.6363 0.0000
# 3 73.6813 33.4932 150.8140 -0.0002 30.8354 0.0001
# 4 -0.0001 0.0000 -0.0002 13.0753 0.0001 -3.1458
# 5 33.2166 4.6363 30.8354 0.0001 32.2335 -0.0001
# 6 0.0001 0.0000 0.0001 -3.1458 -0.0001 4.3307
#
#
#
# Elastic Compliance Matrix: (Units=1/GPa)
#
#
# Indices 1 2 3 4 5 6 
#
# 1 0.010966 0.000264 -0.003851 0.000000 -0.007654 0.000000
# 2 0.000264 0.017582 -0.004303 0.000000 0.001315 0.000000
# 3 -0.003851 -0.004303 0.010604 0.000000 -0.005556 0.000000
# 4 0.000000 0.000000 0.000000 0.092677 0.000000 0.067320
# 5 -0.007654 0.001315 -0.005556 0.000000 0.044038 0.000001
# 6 0.000000 0.000000 0.000000 0.067320 0.000001 0.279810
#
#
# Mechanical properties :
#
#
# Convention : Reuss Voigt Hill
#
# Bulk Modulus (GPa) = 42.78519 66.27849 54.53184
# Shear Modulus (GPa) = 10.43304 25.57092 18.00198
#
# Velocity S-wave (km/s) = 2.08520 3.26448 2.73906
# Velocity P-wave (km/s) = 4.86091 6.46770 5.72100
#
# Compressibility (1/GPa) = 0.02337257
#
# Stress axis : x y z
#
# Youngs Moduli (GPa) = 91.19126 56.87506 94.30614
#
# Poissons Ratio (x) = -0.01501 0.36318
# Poissons Ratio (y) = -0.02407 0.40576
# Poissons Ratio (z) = 0.35119 0.24471
#
# Static dielectric constant tensor:
#      x y z
#    x 1.603860 0.000000 0.811850 
#    y 0.000000 1.946360 0.000000 
#    z 0.811850 0.000000 -0.025350 
# 
# From -- ./inp_files/106236.got.cif
#   From: 2010.05.17/outbox.cif.g08.bks.cpg/sg15_54_cif.got.tgz:106236.got - 2010.06.03 18:47:42.
