data_PCOD9295262
_publ_section_title
;
Structure prediction by ZEFSAII (Michael W. Deem and Ramdas Pophale) SiO2 
 PCOD9295262
Probable space group: C 2/C
;
_chemical_formula_sum "Si O2"
_cell_formula_units_Z 40
_cell_length_a 9.177873
_cell_length_b 10.633423
_cell_length_c 28.057543
_cell_angle_alpha 90.000000
_cell_angle_beta 36.886183
_cell_angle_gamma 90.000000
_cell_volume 1643.541070
_symmetry_space_group_name_H-M "C 2/C"
_symmetry_group_IT_number 15
_symmetry_cell_setting 'monoclinic'
loop_
_space_group_symop_operation_xyz
x,y,z
-x,y,1/2-z
-x,-y,-z
x,-y,1/2+z
1/2+x,1/2+y,z
1/2-x,1/2+y,1/2-z
1/2-x,1/2-y,-z
1/2+x,1/2-y,1/2+z
loop_
_atom_site_type_symbol
_atom_site_label
_atom_site_fract_x
_atom_site_fract_y
_atom_site_fract_z
Si Si1 0.362454 0.068265 0.127433
Si Si2 0.000000 0.279470 0.250000
Si Si3 0.073449 0.715795 0.478190
Si Si4 0.500000 0.628085 0.750000
Si Si5 0.306496 0.047709 0.877472
Si Si6 0.889598 0.806542 0.623059
O O1 0.234944 0.190256 0.184395
O O2 0.489703 0.116471 0.046076
O O3 0.136395 0.971516 0.179612
O O4 0.551448 0.007753 0.114479
O O5 0.011839 0.369137 0.201571
O O6 0.098808 0.856369 0.449788
O O7 0.346821 0.682366 0.422991
O O8 0.918836 0.727316 0.566221
O O9 0.712679 0.729194 0.703763
O O10 0.209233 0.939375 0.868535
#
# Coordination Sequence:
#
# PCOD9295262 Si02
#       6
#     8   4   8   4   8   8
#     4  10  23  42  67  96 138 170 228 276 330 397
#     4   9  23  38  62  98 137 169 214 284 332 383
#     4  10  24  49  63 100 136 180 221 279 327 407
#     4  11  23  40  66 102 125 181 218 272 334 401
#     4  11  22  42  68  96 131 177 225 272 333 400
#     4  11  24  43  72  95 140 175 225 274 341 391
#
# _framework density 24.337696000000001
#
# number of rings (size 3 to 8) (size 9 to 14) (size 15 to 20)
#    0.000    1.600    2.000    1.200    2.800    8.000 
#    3.600    0.000    0.000    0.000    0.000    0.000 
#    0.000    0.000    0.000    0.000    0.000    0.000 
#
# Total GULP energy -111808.238095 kJ/mol
# GULP energy per Si atom -5590.411905 kJ/mol
# Density = 2.428230 g / cm^3
# Si number density = 24.337696 Si / 1000 Ang^3
#
#
#
# Elastic Constant Matrix: (Units=GPa)
#
#
# Indices 1 2 3 4 5 6 
#
# 1 69.5774 68.2804 20.1039 -0.0001 15.1701 -0.0001
# 2 68.2804 135.9133 36.4014 -0.0001 -1.5742 0.0000
# 3 20.1039 36.4014 47.7165 0.0011 -2.0840 0.0005
# 4 -0.0001 -0.0001 0.0011 33.9600 -0.0004 10.3200
# 5 15.1701 -1.5742 -2.0840 -0.0004 18.7041 0.0002
# 6 -0.0001 0.0000 0.0005 10.3200 0.0002 28.1086
#
#
#
# Elastic Compliance Matrix: (Units=1/GPa)
#
#
# Indices 1 2 3 4 5 6 
#
# 1 0.046807 -0.022909 -0.004006 0.000000 -0.040338 0.000001
# 2 -0.022909 0.020460 -0.005094 0.000000 0.019735 0.000000
# 3 -0.004006 -0.005094 0.026784 -0.000001 0.005804 0.000000
# 4 0.000000 0.000000 -0.000001 0.033144 0.000001 -0.012169
# 5 -0.040338 0.019735 0.005804 0.000001 0.088488 -0.000001
# 6 0.000001 0.000000 0.000000 -0.012169 -0.000001 0.040044
#
#
# Mechanical properties :
#
#
# Convention : Reuss Voigt Hill
#
# Bulk Modulus (GPa) = 33.29653 55.86429 44.58041
# Shear Modulus (GPa) = 15.16266 24.71596 19.93931
#
# Velocity S-wave (km/s) = 2.49873 3.19021 2.86541
# Velocity P-wave (km/s) = 4.69421 6.04761 5.41337
#
# Compressibility (1/GPa) = 0.03003316
#
# Stress axis : x y z
#
# Youngs Moduli (GPa) = 21.36423 48.87626 37.33529
#
# Poissons Ratio (x) = 1.11973 0.14955
# Poissons Ratio (y) = 0.48944 0.19019
# Poissons Ratio (z) = 0.08558 0.24898
#
# Static dielectric constant tensor:
#      x y z
#    x 1.915430 0.000000 0.022750 
#    y 0.000000 1.974580 0.000000 
#    z 0.022750 0.000000 1.935260 
# 
# From -- ./inp_files/307011.got.cif
#   From: 2010.05.17/outbox.cif.g08.bks.cpg/sg15_154_cif.got.tgz:307011.got - 2010.06.03 18:47:42.
