data_PCOD9295001
_publ_section_title
;
Structure prediction by ZEFSAII (Michael W. Deem and Ramdas Pophale) SiO2 
 PCOD9295001
Probable space group: C 2/C
;
_chemical_formula_sum "Si O2"
_cell_formula_units_Z 44
_cell_length_a 8.310289
_cell_length_b 12.219591
_cell_length_c 22.199927
_cell_angle_alpha 90.000000
_cell_angle_beta 64.423819
_cell_angle_gamma 90.000000
_cell_volume 2033.464968
_symmetry_space_group_name_H-M "C 2/C"
_symmetry_group_IT_number 15
_symmetry_cell_setting 'monoclinic'
loop_
_space_group_symop_operation_xyz
x,y,z
-x,y,1/2-z
-x,-y,-z
x,-y,1/2+z
1/2+x,1/2+y,z
1/2-x,1/2+y,1/2-z
1/2-x,1/2-y,-z
1/2+x,1/2-y,1/2+z
loop_
_atom_site_type_symbol
_atom_site_label
_atom_site_fract_x
_atom_site_fract_y
_atom_site_fract_z
Si Si1 0.511956 0.090895 0.148700
Si Si2 0.000000 0.753345 0.250000
Si Si3 0.201406 0.952466 0.469223
Si Si4 0.539851 0.243032 0.450961
Si Si5 0.237851 0.394953 0.437095
Si Si6 0.808560 0.046552 0.787183
O O1 0.579254 0.180268 0.184736
O O2 0.419968 0.154495 0.107431
O O3 0.669838 0.016683 0.097489
O O4 0.359777 0.020896 0.206300
O O5 0.147866 0.837699 0.251769
O O6 0.186242 0.825454 0.453952
O O7 0.269763 0.992741 0.523301
O O8 0.000000 0.000000 0.500000
O O9 0.397577 0.322812 0.439835
O O10 0.434262 0.179214 0.520677
O O11 0.269502 0.422004 0.362818
O O12 0.000000 0.986632 0.750000
#
# Coordination Sequence:
#
# PCOD9295001 Si02
#       6
#     8   4   8   8   8   8
#     4  11  22  41  61  86 119 158 201 245 297 353
#     4  10  24  42  62  78 120 168 196 244 300 340
#     4   9  20  33  64  96 116 153 195 242 301 359
#     4   9  17  35  62  91 118 153 187 245 304 346
#     4   9  17  36  60  84 125 152 190 241 298 352
#     4  10  23  42  58  86 119 159 205 243 284 355
#
# _framework density 21.637943
#
# number of rings (size 3 to 8) (size 9 to 14) (size 15 to 20)
#    0.545    1.818    1.818    1.091    0.000    7.273 
#    3.273    1.818    0.000    0.000    0.000    0.000 
#    0.000    0.000    0.000    0.000    0.000    0.000 
#
# Total GULP energy -122671.751017 kJ/mol
# GULP energy per Si atom -5575.988683 kJ/mol
# Density = 2.158869 g / cm^3
# Si number density = 21.637943 Si / 1000 Ang^3
#
#
#
# Elastic Constant Matrix: (Units=GPa)
#
#
# Indices 1 2 3 4 5 6 
#
# 1 42.8396 43.4216 4.1986 0.0000 -15.0658 0.0000
# 2 43.4216 104.7359 29.1920 0.0000 -12.2352 0.0000
# 3 4.1986 29.1920 61.8604 0.0000 -11.0508 0.0000
# 4 0.0000 0.0000 0.0000 20.4911 0.0000 -14.1279
# 5 -15.0658 -12.2352 -11.0508 0.0000 26.1668 0.0000
# 6 0.0000 0.0000 0.0000 -14.1279 0.0000 33.9215
#
#
#
# Elastic Compliance Matrix: (Units=1/GPa)
#
#
# Indices 1 2 3 4 5 6 
#
# 1 0.054203 -0.022728 0.011598 0.000000 0.025479 0.000000
# 2 -0.022728 0.020776 -0.009587 0.000000 -0.007420 0.000000
# 3 0.011598 -0.009587 0.021951 0.000000 0.011465 0.000000
# 4 0.000000 0.000000 0.000000 0.068460 0.000000 0.028513
# 5 0.025479 -0.007420 0.011465 0.000000 0.054258 0.000000
# 6 0.000000 0.000000 0.000000 0.028513 0.000000 0.041355
#
#
# Mechanical properties :
#
#
# Convention : Reuss Voigt Hill
#
# Bulk Modulus (GPa) = 18.01943 40.34002 29.17973
# Shear Modulus (GPa) = 15.57948 24.95747 20.26847
#
# Velocity S-wave (km/s) = 2.68621 3.39988 3.06389
# Velocity P-wave (km/s) = 4.23872 5.83917 5.10209
#
# Compressibility (1/GPa) = 0.05549564
#
# Stress axis : x y z
#
# Youngs Moduli (GPa) = 18.44910 48.13334 45.55704
#
# Poissons Ratio (x) = 1.09397 -0.52837
# Poissons Ratio (y) = 0.41931 0.43676
# Poissons Ratio (z) = -0.21397 0.46145
#
# Static dielectric constant tensor:
#      x y z
#    x 1.819600 0.000000 -0.010360 
#    y 0.000000 1.845240 0.000000 
#    z -0.010360 0.000000 1.787540 
# 
# From -- ./inp_files/263031.got.cif
#   From: 2010.05.17/outbox.cif.g08.bks.cpg/sg15_132_cif.got.tgz:263031.got - 2010.06.03 18:47:42.
