data_PCOD9295003
_publ_section_title
;
Structure prediction by ZEFSAII (Michael W. Deem and Ramdas Pophale) SiO2 
 PCOD9295003
Probable space group: C 2/C
;
_chemical_formula_sum "Si O2"
_cell_formula_units_Z 32
_cell_length_a 14.562080
_cell_length_b 7.836814
_cell_length_c 11.740143
_cell_angle_alpha 90.000000
_cell_angle_beta 108.692988
_cell_angle_gamma 90.000000
_cell_volume 1269.114269
_symmetry_space_group_name_H-M "C 2/C"
_symmetry_group_IT_number 15
_symmetry_cell_setting 'monoclinic'
loop_
_space_group_symop_operation_xyz
x,y,z
-x,y,1/2-z
-x,-y,-z
x,-y,1/2+z
1/2+x,1/2+y,z
1/2-x,1/2+y,1/2-z
1/2-x,1/2-y,-z
1/2+x,1/2-y,1/2+z
loop_
_atom_site_type_symbol
_atom_site_label
_atom_site_fract_x
_atom_site_fract_y
_atom_site_fract_z
Si Si1 0.771853 0.737385 0.675459
Si Si2 0.607103 0.379728 0.967908
Si Si3 0.345434 0.743349 0.459007
Si Si4 0.430187 0.965224 0.127013
O O1 0.661229 0.701765 0.599246
O O2 0.813527 0.879469 0.604985
O O3 0.804972 0.766868 0.815451
O O4 0.829803 0.571963 0.653320
O O5 0.537496 0.228439 0.895235
O O6 0.589276 0.576425 0.985831
O O7 0.250000 0.750000 0.500000
O O8 0.406105 0.911907 0.514257
O O9 0.500000 0.039933 0.250000
#
# Coordination Sequence:
#
# PCOD9295003 Si02
#       4
#     8   8   8   8
#     4   9  21  40  58  93 120 151 212 245 295 362
#     4   9  21  40  58  88 122 159 199 254 294 352
#     4  12  22  36  68  91 115 166 203 249 307 355
#     4  10  23  42  59  90 131 155 200 251 305 365
#
# _framework density 25.214435999999999
#
# number of rings (size 3 to 8) (size 9 to 14) (size 15 to 20)
#    1.500    0.500    2.500    0.000    7.000    2.000 
#    0.000    1.250    0.000    0.000    0.000    0.000 
#    0.000    0.000    0.000    0.000    0.000    0.000 
#
# Total GULP energy -89340.087952 kJ/mol
# GULP energy per Si atom -5583.755497 kJ/mol
# Density = 2.515705 g / cm^3
# Si number density = 25.214436 Si / 1000 Ang^3
#
#
#
# Elastic Constant Matrix: (Units=GPa)
#
#
# Indices 1 2 3 4 5 6 
#
# 1 42.3998 7.5428 12.5937 0.0000 -5.5531 0.0000
# 2 7.5428 156.3881 45.7175 0.0000 -13.3969 0.0000
# 3 12.5937 45.7175 185.4068 0.0000 -0.7910 0.0000
# 4 0.0000 0.0000 0.0000 15.8393 0.0000 -8.2638
# 5 -5.5531 -13.3969 -0.7910 0.0000 26.0306 0.0000
# 6 0.0000 0.0000 0.0000 -8.2638 0.0000 32.4011
#
#
#
# Elastic Compliance Matrix: (Units=1/GPa)
#
#
# Indices 1 2 3 4 5 6 
#
# 1 0.024775 -0.000295 -0.001588 0.000000 0.005085 0.000000
# 2 -0.000295 0.007228 -0.001747 0.000000 0.003604 0.000000
# 3 -0.001588 -0.001747 0.005928 0.000000 -0.001058 0.000000
# 4 0.000000 0.000000 0.000000 0.072825 0.000000 0.018574
# 5 0.005085 0.003604 -0.001058 0.000000 0.041324 0.000000
# 6 0.000000 0.000000 0.000000 0.018574 0.000000 0.035600
#
#
# Mechanical properties :
#
#
# Convention : Reuss Voigt Hill
#
# Bulk Modulus (GPa) = 32.60466 57.32250 44.96358
# Shear Modulus (GPa) = 24.37078 36.07690 30.22384
#
# Velocity S-wave (km/s) = 3.11230 3.78670 3.46594
# Velocity P-wave (km/s) = 5.08667 6.47319 5.82136
#
# Compressibility (1/GPa) = 0.03067046
#
# Stress axis : x y z
#
# Youngs Moduli (GPa) = 40.36275 138.35141 168.70053
#
# Poissons Ratio (x) = 0.04081 0.26797
# Poissons Ratio (y) = 0.01191 0.29470
# Poissons Ratio (z) = 0.06411 0.24168
#
# Static dielectric constant tensor:
#      x y z
#    x 2.146970 0.000000 -0.005510 
#    y 0.000000 2.003300 0.000000 
#    z -0.005510 0.000000 1.946440 
# 
# From -- ./inp_files/109395.got.cif
#   From: 2010.05.17/outbox.cif.g08.bks.cpg/sg15_55_cif.got.tgz:109395.got - 2010.06.03 18:47:42.
