data_PCOD9295148
_publ_section_title
;
Structure prediction by ZEFSAII (Michael W. Deem and Ramdas Pophale) SiO2 
 PCOD9295148
Probable space group: C 2/C
;
_chemical_formula_sum "Si O2"
_cell_formula_units_Z 48
_cell_length_a 23.866667
_cell_length_b 10.572973
_cell_length_c 20.260634
_cell_angle_alpha 90.000000
_cell_angle_beta 23.087000
_cell_angle_gamma 90.000000
_cell_volume 2004.796205
_symmetry_space_group_name_H-M "C 2/C"
_symmetry_group_IT_number 15
_symmetry_cell_setting 'monoclinic'
loop_
_space_group_symop_operation_xyz
x,y,z
-x,y,1/2-z
-x,-y,-z
x,-y,1/2+z
1/2+x,1/2+y,z
1/2-x,1/2+y,1/2-z
1/2-x,1/2-y,-z
1/2+x,1/2-y,1/2+z
loop_
_atom_site_type_symbol
_atom_site_label
_atom_site_fract_x
_atom_site_fract_y
_atom_site_fract_z
Si Si1 0.369606 0.969765 0.713067
Si Si2 0.804732 0.527110 0.143639
Si Si3 0.260222 0.726702 0.864949
Si Si4 0.630580 0.089329 0.652324
Si Si5 0.639240 0.647003 0.210638
Si Si6 0.508028 0.404231 0.315768
O O1 0.522746 0.038257 0.542200
O O2 0.375182 0.817657 0.704763
O O3 0.270362 0.996057 0.757720
O O4 0.319389 0.003010 0.841377
O O5 0.774668 0.397557 0.138240
O O6 0.724854 0.636344 0.187797
O O7 0.344448 0.673861 0.836354
O O8 0.119497 0.809659 0.027956
O O9 0.500000 0.037212 0.750000
O O10 0.586391 0.219125 0.738894
O O11 0.749790 0.111445 0.468075
O O12 0.523366 0.534844 0.339567
O O13 0.500000 0.446047 0.250000
#
# Coordination Sequence:
#
# PCOD9295148 Si02
#       6
#     8   8   8   8   8   8
#     4  11  23  41  68  91 133 174 214 271 331 398
#     4  10  23  44  62  95 132 173 221 266 330 395
#     4  11  23  42  64  97 126 171 222 265 331 389
#     4  11  22  40  67  98 128 172 220 274 338 385
#     4  10  23  42  65  96 131 168 223 279 321 397
#     4  11  22  40  64  95 132 168 213 270 328 394
#
# _framework density 23.942582999999999
#
# number of rings (size 3 to 8) (size 9 to 14) (size 15 to 20)
#    0.000    1.333    3.333    2.000    2.333    3.333 
#    0.000    3.333    0.000    0.000    0.000    0.000 
#    0.000    0.000    0.000    0.000    0.000    0.000 
#
# Total GULP energy -133916.397697 kJ/mol
# GULP energy per Si atom -5579.849904 kJ/mol
# Density = 2.388809 g / cm^3
# Si number density = 23.942583 Si / 1000 Ang^3
#
#
#
# Elastic Constant Matrix: (Units=GPa)
#
#
# Indices 1 2 3 4 5 6 
#
# 1 181.9170 9.9633 28.9541 0.0000 -3.1338 0.0000
# 2 9.9633 51.6219 1.7924 0.0000 -7.7538 0.0000
# 3 28.9541 1.7924 50.8668 0.0000 1.9424 0.0000
# 4 0.0000 0.0000 0.0000 27.8607 0.0000 1.1738
# 5 -3.1338 -7.7538 1.9424 0.0000 22.5409 0.0000
# 6 0.0000 0.0000 0.0000 1.1738 0.0000 8.5540
#
#
#
# Elastic Compliance Matrix: (Units=1/GPa)
#
#
# Indices 1 2 3 4 5 6 
#
# 1 0.006116 -0.000935 -0.003480 0.000000 0.000829 0.000000
# 2 -0.000935 0.020620 -0.000462 0.000000 0.007003 0.000000
# 3 -0.003480 -0.000462 0.021753 0.000000 -0.002517 0.000000
# 4 0.000000 0.000000 0.000000 0.036102 0.000000 -0.004954
# 5 0.000829 0.007003 -0.002517 0.000000 0.047105 0.000000
# 6 0.000000 0.000000 0.000000 -0.004954 0.000000 0.117585
#
#
# Mechanical properties :
#
#
# Convention : Reuss Voigt Hill
#
# Bulk Modulus (GPa) = 25.81659 40.64725 33.23192
# Shear Modulus (GPa) = 18.38602 28.03750 23.21176
#
# Velocity S-wave (km/s) = 2.77415 3.42574 3.11702
# Velocity P-wave (km/s) = 4.58991 5.71502 5.18309
#
# Compressibility (1/GPa) = 0.03873479
#
# Stress axis : x y z
#
# Youngs Moduli (GPa) = 163.49417 48.49656 45.97154
#
# Poissons Ratio (x) = 0.04535 0.15999
# Poissons Ratio (y) = 0.15290 0.02122
# Poissons Ratio (z) = 0.56900 0.02239
#
# Static dielectric constant tensor:
#      x y z
#    x 1.960660 0.000000 0.011530 
#    y 0.000000 1.935780 0.000000 
#    z 0.011530 0.000000 1.992440 
# 
# From -- ./inp_files/255332.got.cif
#   From: 2010.05.17/outbox.cif.g08.bks.cpg/sg15_128_cif.got.tgz:255332.got - 2010.06.03 18:47:42.
