data_PCOD9295529
_publ_section_title
;
Structure prediction by ZEFSAII (Michael W. Deem and Ramdas Pophale) SiO2 
 PCOD9295529
Probable space group: C 2/C
;
_chemical_formula_sum "Si O2"
_cell_formula_units_Z 44
_cell_length_a 11.366097
_cell_length_b 20.780336
_cell_length_c 8.515085
_cell_angle_alpha 90.000000
_cell_angle_beta 93.406516
_cell_angle_gamma 90.000000
_cell_volume 2007.635504
_symmetry_space_group_name_H-M "C 2/C"
_symmetry_group_IT_number 15
_symmetry_cell_setting 'monoclinic'
loop_
_space_group_symop_operation_xyz
x,y,z
-x,y,1/2-z
-x,-y,-z
x,-y,1/2+z
1/2+x,1/2+y,z
1/2-x,1/2+y,1/2-z
1/2-x,1/2-y,-z
1/2+x,1/2-y,1/2+z
loop_
_atom_site_type_symbol
_atom_site_label
_atom_site_fract_x
_atom_site_fract_y
_atom_site_fract_z
Si Si1 0.246471 0.496674 0.922333
Si Si2 0.500000 0.217774 0.250000
Si Si3 0.127351 0.269593 0.067272
Si Si4 0.261237 0.298794 0.643434
Si Si5 0.871813 0.073270 0.169494
Si Si6 0.121114 0.580353 0.668873
O O1 0.286726 0.441147 0.809281
O O2 0.213079 0.556874 0.809298
O O3 0.353228 0.516164 0.044764
O O4 0.144315 0.467985 0.025325
O O5 0.533441 0.247850 0.423551
O O6 0.369224 0.188744 0.287243
O O7 0.140984 0.230539 0.229471
O O8 0.124225 0.345804 0.109406
O O9 0.250000 0.250000 0.000000
O O10 0.250000 0.250000 0.500000
O O11 0.318448 0.363913 0.587621
O O12 0.000000 0.079596 0.250000
O O13 0.000000 0.570593 0.750000
#
# Coordination Sequence:
#
# PCOD9295529 Si02
#       6
#     8   4   8   8   8   8
#     4  10  23  44  64 102 132 180 229 275 344 402
#     4  10  24  42  66  90 142 168 214 284 330 398
#     4  10  23  43  63  96 134 176 223 277 343 406
#     4  11  25  43  69 103 132 178 227 279 347 412
#     4  11  24  43  70  96 137 176 228 281 336 411
#     4  11  23  41  68  98 139 177 224 285 339 415
#
# _framework density 21.916328
#
# number of rings (size 3 to 8) (size 9 to 14) (size 15 to 20)
#    0.000    1.455    0.000    4.364    7.636    0.000 
#    8.182    0.000   12.000    0.000    0.000    0.000 
#    0.000    0.000    0.000    0.000    0.000    0.000 
#
# Total GULP energy -122520.462549 kJ/mol
# GULP energy per Si atom -5569.111934 kJ/mol
# Density = 2.186645 g / cm^3
# Si number density = 21.916328 Si / 1000 Ang^3
#
#
#
# Elastic Constant Matrix: (Units=GPa)
#
#
# Indices 1 2 3 4 5 6 
#
# 1 90.8131 13.0744 28.4279 0.0000 15.7285 0.0000
# 2 13.0744 70.9177 30.5621 0.0000 1.2009 0.0000
# 3 28.4279 30.5621 122.9814 0.0000 7.3749 0.0000
# 4 0.0000 0.0000 0.0000 33.7428 0.0000 -9.1106
# 5 15.7285 1.2009 7.3749 0.0000 35.7891 0.0000
# 6 0.0000 0.0000 0.0000 -9.1106 0.0000 27.5120
#
#
#
# Elastic Compliance Matrix: (Units=1/GPa)
#
#
# Indices 1 2 3 4 5 6 
#
# 1 0.012811 -0.001267 -0.002340 0.000000 -0.005105 0.000000
# 2 -0.001267 0.015920 -0.003711 0.000000 0.000787 0.000000
# 3 -0.002340 -0.003711 0.009644 0.000000 -0.000834 0.000000
# 4 0.000000 0.000000 0.000000 0.032546 0.000000 0.010778
# 5 -0.005105 0.000787 -0.000834 0.000000 0.030331 0.000000
# 6 0.000000 0.000000 0.000000 0.010778 0.000000 0.039917
#
#
# Mechanical properties :
#
#
# Convention : Reuss Voigt Hill
#
# Bulk Modulus (GPa) = 42.12324 47.64899 44.88612
# Shear Modulus (GPa) = 30.54033 33.58529 32.06281
#
# Velocity S-wave (km/s) = 3.73701 3.91888 3.82902
# Velocity P-wave (km/s) = 6.15484 6.50118 6.33038
#
# Compressibility (1/GPa) = 0.02373986
#
# Stress axis : x y z
#
# Youngs Moduli (GPa) = 78.05890 62.81327 103.68626
#
# Poissons Ratio (x) = 0.07957 0.24266
# Poissons Ratio (y) = 0.09888 0.38475
# Poissons Ratio (z) = 0.18268 0.23308
#
# Static dielectric constant tensor:
#      x y z
#    x 1.812630 0.000000 0.003350 
#    y 0.000000 1.818090 0.000000 
#    z 0.003350 0.000000 1.836370 
# 
# From -- ./inp_files/30951.got.cif
#   From: 2010.05.17/outbox.cif.g08.bks.cpg/sg15_16_cif.got.tgz:30951.got - 2010.06.03 18:47:42.
