data_PCOD9295053
_publ_section_title
;
Structure prediction by ZEFSAII (Michael W. Deem and Ramdas Pophale) SiO2 
 PCOD9295053
Probable space group: C 2/C
;
_chemical_formula_sum "Si O2"
_cell_formula_units_Z 48
_cell_length_a 5.533828
_cell_length_b 30.214179
_cell_length_c 14.657547
_cell_angle_alpha 90.000000
_cell_angle_beta 66.145327
_cell_angle_gamma 90.000000
_cell_volume 2241.386158
_symmetry_space_group_name_H-M "C 2/C"
_symmetry_group_IT_number 15
_symmetry_cell_setting 'monoclinic'
loop_
_space_group_symop_operation_xyz
x,y,z
-x,y,1/2-z
-x,-y,-z
x,-y,1/2+z
1/2+x,1/2+y,z
1/2-x,1/2+y,1/2-z
1/2-x,1/2-y,-z
1/2+x,1/2-y,1/2+z
loop_
_atom_site_type_symbol
_atom_site_label
_atom_site_fract_x
_atom_site_fract_y
_atom_site_fract_z
Si Si1 0.888288 0.476802 0.867618
Si Si2 0.315362 0.704332 0.686729
Si Si3 0.469422 0.612484 0.862767
Si Si4 0.945871 0.387695 0.552599
Si Si5 0.342758 0.551116 0.516311
Si Si6 0.181174 0.301511 0.813815
O O1 0.915544 0.520761 0.926362
O O2 0.000000 0.482847 0.750000
O O3 0.989084 0.430431 0.893560
O O4 0.569915 0.473060 0.923484
O O5 0.500000 0.704051 0.750000
O O6 0.387425 0.658076 0.629207
O O7 0.368867 0.752662 0.635618
O O8 0.000000 0.703105 0.750000
O O9 0.500000 0.607717 0.750000
O O10 0.576433 0.569412 0.897507
O O11 0.172644 0.617614 0.942993
O O12 0.695352 0.404311 0.535452
O O13 0.903386 0.343012 0.613126
O O14 0.500000 0.304654 0.750000
O O15 0.000000 0.303424 0.750000
#
# Coordination Sequence:
#
# PCOD9295053 Si02
#       6
#     8   8   8   8   8   8
#     4  10  23  42  63  90 128 169 213 274 332 390
#     4   9  20  40  64  97 130 173 222 263 322 395
#     4  10  24  40  64  90 128 172 215 273 326 389
#     4  11  24  39  64  95 125 168 222 269 327 399
#     4  10  24  42  61  97 124 164 225 268 328 401
#     4  10  23  42  69  97 136 175 215 271 328 390
#
# _framework density 21.415320000000001
#
# number of rings (size 3 to 8) (size 9 to 14) (size 15 to 20)
#    0.000    2.000    0.000    1.000   14.000    0.667 
#    0.000    0.833    0.000    0.000    0.000    0.000 
#    0.000    0.000    0.000    0.000    0.000    0.000 
#
# Total GULP energy -133718.273374 kJ/mol
# GULP energy per Si atom -5571.594724 kJ/mol
# Density = 2.136658 g / cm^3
# Si number density = 21.415320 Si / 1000 Ang^3
#
#
#
# Elastic Constant Matrix: (Units=GPa)
#
#
# Indices 1 2 3 4 5 6 
#
# 1 70.0111 22.0911 27.9152 0.0000 -2.8361 0.0000
# 2 22.0911 164.5277 60.3726 0.0000 2.7058 0.0000
# 3 27.9152 60.3726 118.5763 0.0000 1.2991 0.0000
# 4 0.0000 0.0000 0.0000 31.1720 0.0000 -5.2499
# 5 -2.8361 2.7058 1.2991 0.0000 16.6143 0.0000
# 6 0.0000 0.0000 0.0000 -5.2499 0.0000 40.8315
#
#
#
# Elastic Compliance Matrix: (Units=1/GPa)
#
#
# Indices 1 2 3 4 5 6 
#
# 1 0.016043 -0.000993 -0.003306 0.000000 0.003159 0.000000
# 2 -0.000993 0.007550 -0.003598 0.000000 -0.001118 0.000000
# 3 -0.003306 -0.003598 0.011053 0.000000 -0.000843 0.000000
# 4 0.000000 0.000000 0.000000 0.032790 0.000000 0.004216
# 5 0.003159 -0.001118 -0.000843 0.000000 0.060976 0.000000
# 6 0.000000 0.000000 0.000000 0.004216 0.000000 0.025033
#
#
# Mechanical properties :
#
#
# Convention : Reuss Voigt Hill
#
# Bulk Modulus (GPa) = 53.04488 63.76367 58.40428
# Shear Modulus (GPa) = 28.48634 33.90597 31.19615
#
# Velocity S-wave (km/s) = 3.65113 3.98333 3.82084
# Velocity P-wave (km/s) = 6.52669 7.14110 6.84080
#
# Compressibility (1/GPa) = 0.01885196
#
# Stress axis : x y z
#
# Youngs Moduli (GPa) = 62.33305 132.45049 90.47476
#
# Poissons Ratio (x) = 0.13152 0.29910
# Poissons Ratio (y) = 0.06189 0.32553
# Poissons Ratio (z) = 0.20606 0.47656
#
# Static dielectric constant tensor:
#      x y z
#    x 1.875640 0.000000 0.006380 
#    y 0.000000 1.890840 0.000000 
#    z 0.006380 0.000000 1.711300 
# 
# From -- ./inp_files/130596.got.cif
#   From: 2010.05.17/outbox.cif.g08.bks.cpg/sg15_66_cif.got.tgz:130596.got - 2010.06.03 18:47:42.
