data_PCOD9295427
_publ_section_title
;
Structure prediction by ZEFSAII (Michael W. Deem and Ramdas Pophale) SiO2 
 PCOD9295427
Probable space group: C 2/C
;
_chemical_formula_sum "Si O2"
_cell_formula_units_Z 48
_cell_length_a 26.007868
_cell_length_b 14.090722
_cell_length_c 11.334715
_cell_angle_alpha 90.000000
_cell_angle_beta 32.363536
_cell_angle_gamma 90.000000
_cell_volume 2223.500339
_symmetry_space_group_name_H-M "C 2/C"
_symmetry_group_IT_number 15
_symmetry_cell_setting 'monoclinic'
loop_
_space_group_symop_operation_xyz
x,y,z
-x,y,1/2-z
-x,-y,-z
x,-y,1/2+z
1/2+x,1/2+y,z
1/2-x,1/2+y,1/2-z
1/2-x,1/2-y,-z
1/2+x,1/2-y,1/2+z
loop_
_atom_site_type_symbol
_atom_site_label
_atom_site_fract_x
_atom_site_fract_y
_atom_site_fract_z
Si Si1 0.348373 0.697284 0.331903
Si Si2 0.765223 0.265097 0.107976
Si Si3 0.963483 0.623730 0.685631
Si Si4 0.428727 0.082346 0.272858
Si Si5 0.884842 0.895855 0.982197
Si Si6 0.110775 0.112324 0.493672
O O1 0.250000 0.750000 0.500000
O O2 0.413474 0.777044 0.263586
O O3 0.341512 0.610818 0.435040
O O4 0.389826 0.662494 0.130246
O O5 0.666866 0.309354 0.350077
O O6 0.812067 0.171540 0.077415
O O7 0.750000 0.250000 0.000000
O O8 0.843371 0.348047 0.971186
O O9 0.899930 0.527570 0.809932
O O10 0.000000 0.625370 0.750000
O O11 0.028493 0.611475 0.439804
O O12 0.500000 0.086344 0.250000
O O13 0.000000 0.886053 0.750000
O O14 0.863732 0.001333 0.069597
O O15 0.000000 0.117388 0.750000
#
# Coordination Sequence:
#
# PCOD9295427 Si02
#       6
#     8   8   8   8   8   8
#     4  12  25  44  73 104 142 186 239 298 350 426
#     4  12  27  44  73 107 141 189 239 297 352 434
#     4  10  23  42  71 105 141 182 229 300 365 421
#     4  10  23  44  70 103 145 185 233 292 363 433
#     4  11  29  48  71 106 145 192 242 295 359 428
#     4  11  27  50  75 103 144 196 239 293 361 432
#
# _framework density 21.587582999999999
#
# number of rings (size 3 to 8) (size 9 to 14) (size 15 to 20)
#    0.000    1.000    1.667    3.000   11.667    1.333 
#    3.000    0.000    0.000    0.000    0.000    0.000 
#    0.000    0.000    0.000    0.000    0.000    0.000 
#
# Total GULP energy -133985.611470 kJ/mol
# GULP energy per Si atom -5582.733811 kJ/mol
# Density = 2.153845 g / cm^3
# Si number density = 21.587583 Si / 1000 Ang^3
#
#
#
# Elastic Constant Matrix: (Units=GPa)
#
#
# Indices 1 2 3 4 5 6 
#
# 1 121.2262 37.9779 29.1425 0.0000 21.7451 0.0000
# 2 37.9779 98.4897 24.6121 0.0000 -11.4976 0.0000
# 3 29.1425 24.6121 79.4723 0.0000 10.9238 0.0000
# 4 0.0000 0.0000 0.0000 -0.9972 0.0000 8.9506
# 5 21.7451 -11.4976 10.9238 0.0000 34.1961 0.0000
# 6 0.0000 0.0000 0.0000 8.9506 0.0000 42.8689
#
#
#
# Elastic Compliance Matrix: (Units=1/GPa)
#
#
# Indices 1 2 3 4 5 6 
#
# 1 0.011819 -0.005204 -0.001515 0.000000 -0.008781 0.000000
# 2 -0.005204 0.014183 -0.003759 0.000000 0.009278 0.000000
# 3 -0.001515 -0.003759 0.015003 0.000000 -0.005093 0.000000
# 4 0.000000 0.000000 0.000000 -0.348915 0.000000 0.072850
# 5 -0.008781 0.009278 -0.005093 0.000000 0.039573 0.000000
# 6 0.000000 0.000000 0.000000 0.072850 0.000000 0.008117
#
#
# Mechanical properties :
#
#
# Convention : Reuss Voigt Hill
#
# Bulk Modulus (GPa) = 49.88219 53.62813 51.75516
# Shear Modulus (GPa) = -21.49787 29.04394 3.77304
#
# Velocity S-wave (km/s) = -3.15912 3.67195 1.32347
# Velocity P-wave (km/s) = 3.13852 6.54780 5.13439
#
# Compressibility (1/GPa) = 0.02004724
#
# Stress axis : x y z
#
# Youngs Moduli (GPa) = 84.61203 70.50928 66.65327
#
# Poissons Ratio (x) = 0.36691 0.10100
# Poissons Ratio (y) = 0.44030 0.25058
# Poissons Ratio (z) = 0.12822 0.26507
#
# Static dielectric constant tensor:
#      x y z
#    x 1.807210 0.000000 -0.000510 
#    y 0.000000 1.763600 0.000000 
#    z -0.000510 0.000000 1.921270 
# 
# From -- ./inp_files/123454.got.cif
#   From: 2010.05.17/outbox.cif.g08.bks.cpg/sg15_62_cif.got.tgz:123454.got - 2010.06.03 18:47:42.
