data_PCOD9295356
_publ_section_title
;
Structure prediction by ZEFSAII (Michael W. Deem and Ramdas Pophale) SiO2 
 PCOD9295356
Probable space group: C 2/C
;
_chemical_formula_sum "Si O2"
_cell_formula_units_Z 52
_cell_length_a 18.551437
_cell_length_b 13.294030
_cell_length_c 12.686754
_cell_angle_alpha 90.000000
_cell_angle_beta 52.264554
_cell_angle_gamma 90.000000
_cell_volume 2474.435489
_symmetry_space_group_name_H-M "C 2/C"
_symmetry_group_IT_number 15
_symmetry_cell_setting 'monoclinic'
loop_
_space_group_symop_operation_xyz
x,y,z
-x,y,1/2-z
-x,-y,-z
x,-y,1/2+z
1/2+x,1/2+y,z
1/2-x,1/2+y,1/2-z
1/2-x,1/2-y,-z
1/2+x,1/2-y,1/2+z
loop_
_atom_site_type_symbol
_atom_site_label
_atom_site_fract_x
_atom_site_fract_y
_atom_site_fract_z
Si Si1 0.904813 0.656610 0.781617
Si Si2 0.412716 0.032754 0.145206
Si Si3 0.297668 0.919430 0.558875
Si Si4 0.000000 0.021862 0.750000
Si Si5 0.642769 0.340027 0.012287
Si Si6 0.096807 0.124283 0.311185
Si Si7 0.150501 0.374187 0.600534
O O1 0.873641 0.572506 0.725761
O O2 0.920787 0.762883 0.713530
O O3 0.000000 0.622469 0.750000
O O4 0.832212 0.658727 0.940668
O O5 0.348271 0.092996 0.124023
O O6 0.420612 0.099673 0.243023
O O7 0.500000 0.000000 0.000000
O O8 0.191373 0.911852 0.674189
O O9 0.332043 0.027646 0.486085
O O10 0.914654 0.092188 0.855184
O O11 0.978243 0.950403 0.669577
O O12 0.626055 0.223115 0.054588
O O13 0.610587 0.369953 0.924095
O O14 0.750846 0.356327 0.932056
#
# Coordination Sequence:
#
# PCOD9295356 Si02
#       7
#     8   8   8   4   8   8   8
#     4  11  23  40  63  98 132 167 219 272 330 395
#     4  11  22  40  70 100 133 174 218 279 335 400
#     4  11  22  42  66  96 129 173 218 274 336 396
#     4  12  26  46  68  94 134 170 232 282 324 410
#     4  11  24  45  65 100 127 181 223 273 341 401
#     4  12  24  45  67  92 133 178 221 271 336 403
#     4  10  23  42  69  96 139 168 223 281 336 406
#
# _framework density 21.014894000000002
#
# number of rings (size 3 to 8) (size 9 to 14) (size 15 to 20)
#    0.000    0.923    5.385    1.846    0.000    2.462 
#    0.000    0.000    0.000    0.000    0.000    0.000 
#    0.000    0.000    0.000    0.000    0.000    0.000 
#
# Total GULP energy -145314.319525 kJ/mol
# GULP energy per Si atom -5589.012289 kJ/mol
# Density = 2.096706 g / cm^3
# Si number density = 21.014894 Si / 1000 Ang^3
#
#
#
# Elastic Constant Matrix: (Units=GPa)
#
#
# Indices 1 2 3 4 5 6 
#
# 1 58.4332 2.0640 14.6478 0.0000 7.6507 0.0000
# 2 2.0640 73.2912 23.4705 0.0000 9.6277 0.0000
# 3 14.6478 23.4705 104.5300 0.0000 10.7953 0.0000
# 4 0.0000 0.0000 0.0000 22.6097 0.0000 -0.7239
# 5 7.6507 9.6277 10.7953 0.0000 33.0025 0.0000
# 6 0.0000 0.0000 0.0000 -0.7239 0.0000 27.8296
#
#
#
# Elastic Compliance Matrix: (Units=1/GPa)
#
#
# Indices 1 2 3 4 5 6 
#
# 1 0.018150 0.000714 -0.002326 0.000000 -0.003655 0.000000
# 2 0.000714 0.015090 -0.003122 0.000000 -0.003546 0.000000
# 3 -0.002326 -0.003122 0.010809 0.000000 -0.002086 0.000000
# 4 0.000000 0.000000 0.000000 0.044266 0.000000 0.001151
# 5 -0.003655 -0.003546 -0.002086 0.000000 0.032865 0.000000
# 6 0.000000 0.000000 0.000000 0.001151 0.000000 0.035963
#
#
# Mechanical properties :
#
#
# Convention : Reuss Voigt Hill
#
# Bulk Modulus (GPa) = 28.91821 35.17989 32.04905
# Shear Modulus (GPa) = 28.06824 29.75985 28.91404
#
# Velocity S-wave (km/s) = 3.65860 3.76723 3.71331
# Velocity P-wave (km/s) = 5.62475 5.97491 5.80247
#
# Compressibility (1/GPa) = 0.03458029
#
# Stress axis : x y z
#
# Youngs Moduli (GPa) = 55.09637 66.27031 92.51569
#
# Poissons Ratio (x) = -0.04731 0.21521
# Poissons Ratio (y) = -0.03934 0.28883
# Poissons Ratio (z) = 0.12817 0.20689
#
# Static dielectric constant tensor:
#      x y z
#    x 1.776030 0.000000 -0.002210 
#    y 0.000000 1.726090 0.000000 
#    z -0.002210 0.000000 1.743540 
# 
# From -- ./inp_files/112645.got.cif
#   From: 2010.05.17/outbox.cif.g08.bks.cpg/sg15_57_cif.got.tgz:112645.got - 2010.06.03 18:47:42.
