data_PCOD9295029
_publ_section_title
;
Structure prediction by ZEFSAII (Michael W. Deem and Ramdas Pophale) SiO2 
 PCOD9295029
Probable space group: C 2/C
;
_chemical_formula_sum "Si O2"
_cell_formula_units_Z 64
_cell_length_a 9.608904
_cell_length_b 24.834738
_cell_length_c 14.088082
_cell_angle_alpha 90.000000
_cell_angle_beta 94.635738
_cell_angle_gamma 90.000000
_cell_volume 3350.906072
_symmetry_space_group_name_H-M "C 2/C"
_symmetry_group_IT_number 15
_symmetry_cell_setting 'monoclinic'
loop_
_space_group_symop_operation_xyz
x,y,z
-x,y,1/2-z
-x,-y,-z
x,-y,1/2+z
1/2+x,1/2+y,z
1/2-x,1/2+y,1/2-z
1/2-x,1/2-y,-z
1/2+x,1/2-y,1/2+z
loop_
_atom_site_type_symbol
_atom_site_label
_atom_site_fract_x
_atom_site_fract_y
_atom_site_fract_z
Si Si1 0.556724 0.621270 0.018943
Si Si2 0.337406 0.890898 0.645498
Si Si3 0.635496 0.117640 0.812193
Si Si4 0.712004 0.688200 0.515537
Si Si5 0.863282 0.623412 0.364486
Si Si6 0.836154 0.966570 0.582371
Si Si7 0.117271 0.507273 0.924037
Si Si8 0.367891 0.577352 0.680327
O O1 0.691030 0.626166 0.093320
O O2 0.459119 0.573742 0.058189
O O3 0.451492 0.671309 0.996089
O O4 0.618493 0.605058 0.920643
O O5 0.475248 0.870673 0.598618
O O6 0.346495 0.868825 0.752082
O O7 0.367455 0.955488 0.643235
O O8 0.500000 0.140272 0.750000
O O9 0.714448 0.158853 0.888848
O O10 0.594329 0.064072 0.870422
O O11 0.736987 0.095535 0.735206
O O12 0.750000 0.750000 0.500000
O O13 0.774695 0.661105 0.425528
O O14 0.793338 0.565769 0.380096
O O15 0.768530 0.990281 0.483114
O O16 0.874113 0.013983 0.655774
O O17 0.000000 0.500000 0.000000
O O18 0.500000 0.592306 0.750000
#
# Coordination Sequence:
#
# PCOD9295029 Si02
#       8
#     8   8   8   8   8   8   8   8
#     4  11  24  41  63  95 130 170 223 272 326 390
#     4  11  23  37  64  99 134 171 210 261 325 395
#     4  12  26  41  66 100 133 176 224 267 330 401
#     4  11  25  52  71  86 123 172 224 295 344 384
#     4  10  23  42  62  92 130 169 222 261 319 394
#     4  11  21  35  57  90 138 187 208 249 314 392
#     4  12  20  36  61  93 141 181 213 245 316 396
#     4  12  23  37  60  97 143 172 215 266 322 400
#
# _framework density 19.099312000000001
#
# number of rings (size 3 to 8) (size 9 to 14) (size 15 to 20)
#    0.000    0.750    6.250    1.875    7.000    1.500 
#    2.250    3.125    0.000    0.000    0.000    0.000 
#    0.000    0.000    0.000    0.000    0.000    0.000 
#
# Total GULP energy -178518.739044 kJ/mol
# GULP energy per Si atom -5578.710595 kJ/mol
# Density = 1.905584 g / cm^3
# Si number density = 19.099312 Si / 1000 Ang^3
#
#
#
# Elastic Constant Matrix: (Units=GPa)
#
#
# Indices 1 2 3 4 5 6 
#
# 1 127.3334 24.9954 56.4925 0.0000 5.9316 0.0000
# 2 24.9954 74.5055 33.8613 0.0000 -0.6823 0.0000
# 3 56.4925 33.8613 97.0005 0.0000 -2.7565 0.0000
# 4 0.0000 0.0000 0.0000 1.7104 0.0000 1.2785
# 5 5.9316 -0.6823 -2.7565 0.0000 41.6396 0.0000
# 6 0.0000 0.0000 0.0000 1.2785 0.0000 15.5789
#
#
#
# Elastic Compliance Matrix: (Units=1/GPa)
#
#
# Indices 1 2 3 4 5 6 
#
# 1 0.010796 -0.000900 -0.006029 0.000000 -0.001952 0.000000
# 2 -0.000900 0.016028 -0.005070 0.000000 0.000055 0.000000
# 3 -0.006029 -0.005070 0.015641 0.000000 0.001811 0.000000
# 4 0.000000 0.000000 0.000000 0.622885 0.000000 -0.051117
# 5 -0.001952 0.000055 0.001811 0.000000 0.024414 0.000000
# 6 0.000000 0.000000 0.000000 -0.051117 0.000000 0.068385
#
#
# Mechanical properties :
#
#
# Convention : Reuss Voigt Hill
#
# Bulk Modulus (GPa) = 54.14402 58.83753 56.49077
# Shear Modulus (GPa) = 6.34275 24.01844 15.18059
#
# Velocity S-wave (km/s) = 1.82432 3.55005 2.82232
# Velocity P-wave (km/s) = 5.73129 6.90484 6.34525
#
# Compressibility (1/GPa) = 0.01846926
#
# Stress axis : x y z
#
# Youngs Moduli (GPa) = 92.63033 62.38995 63.93255
#
# Poissons Ratio (x) = 0.05613 0.38543
# Poissons Ratio (y) = 0.08334 0.32411
# Poissons Ratio (z) = 0.55844 0.31629
#
# Static dielectric constant tensor:
#      x y z
#    x 1.702210 0.000000 -0.012130 
#    y 0.000000 1.747330 0.000000 
#    z -0.012130 0.000000 1.859920 
# 
# From -- ./inp_files/137836.got.cif
#   From: 2010.05.17/outbox.cif.g08.bks.cpg/sg15_69_cif.got.tgz:137836.got - 2010.06.03 18:47:42.
