data_PCOD9295421
_publ_section_title
;
Structure prediction by ZEFSAII (Michael W. Deem and Ramdas Pophale) SiO2 
 PCOD9295421
Probable space group: C 2/C
;
_chemical_formula_sum "Si O2"
_cell_formula_units_Z 40
_cell_length_a 15.908460
_cell_length_b 14.212060
_cell_length_c 8.000648
_cell_angle_alpha 90.000000
_cell_angle_beta 66.574967
_cell_angle_gamma 90.000000
_cell_volume 1659.796170
_symmetry_space_group_name_H-M "C 2/C"
_symmetry_group_IT_number 15
_symmetry_cell_setting 'monoclinic'
loop_
_space_group_symop_operation_xyz
x,y,z
-x,y,1/2-z
-x,-y,-z
x,-y,1/2+z
1/2+x,1/2+y,z
1/2-x,1/2+y,1/2-z
1/2-x,1/2-y,-z
1/2+x,1/2-y,1/2+z
loop_
_atom_site_type_symbol
_atom_site_label
_atom_site_fract_x
_atom_site_fract_y
_atom_site_fract_z
Si Si1 0.850590 0.142294 0.988966
Si Si2 0.652401 0.845130 0.504606
Si Si3 0.761649 0.358110 0.433340
Si Si4 0.395420 0.472386 0.123099
Si Si5 0.928950 0.535991 0.918311
O O1 0.744600 0.160207 0.038600
O O2 0.887953 0.082524 0.802835
O O3 0.896755 0.244281 0.959148
O O4 0.853643 0.077128 0.148628
O O5 0.684746 0.864033 0.288500
O O6 0.601704 0.933453 0.623506
O O7 0.750000 0.250000 0.500000
O O8 0.665862 0.410300 0.458996
O O9 0.832681 0.409759 0.503859
O O10 0.500000 0.500000 0.000000
O O11 0.000000 0.594945 0.750000
O O12 0.000000 0.500000 0.000000
#
# Coordination Sequence:
#
# PCOD9295421 Si02
#       5
#     8   8   8   8   8
#     4  10  23  42  71 102 143 189 235 300 358 439
#     4  10  23  45  72 103 140 191 248 290 368 439
#     4  11  26  46  75 105 148 197 238 309 372 435
#     4  11  24  44  70 104 143 190 241 290 366 432
#     4  12  25  45  76 107 144 189 248 306 368 433
#
# _framework density 24.099345
#
# number of rings (size 3 to 8) (size 9 to 14) (size 15 to 20)
#    0.000    1.200    4.000    0.600    2.800    8.000 
#    0.000    0.000    0.000    0.000    0.000    0.000 
#    0.000    0.000    0.000    0.000    0.000    0.000 
#
# Total GULP energy -111449.981003 kJ/mol
# GULP energy per Si atom -5572.499050 kJ/mol
# Density = 2.404449 g / cm^3
# Si number density = 24.099345 Si / 1000 Ang^3
#
#
#
# Elastic Constant Matrix: (Units=GPa)
#
#
# Indices 1 2 3 4 5 6 
#
# 1 160.6535 54.0486 27.9807 0.0000 -7.9906 0.0000
# 2 54.0486 176.4765 24.3783 0.0000 -18.3966 0.0000
# 3 27.9807 24.3783 83.5170 0.0000 -8.3880 0.0000
# 4 0.0000 0.0000 0.0000 28.4886 0.0000 1.5778
# 5 -7.9906 -18.3966 -8.3880 0.0000 34.1750 0.0000
# 6 0.0000 0.0000 0.0000 1.5778 0.0000 -4.7289
#
#
#
# Elastic Compliance Matrix: (Units=1/GPa)
#
#
# Indices 1 2 3 4 5 6 
#
# 1 0.007203 -0.001933 -0.001830 0.000000 0.000195 0.000000
# 2 -0.001933 0.006702 -0.001017 0.000000 0.002906 0.000000
# 3 -0.001830 -0.001017 0.013109 0.000000 0.002242 0.000000
# 4 0.000000 0.000000 0.000000 0.034465 0.000000 0.011500
# 5 0.000195 0.002906 0.002242 0.000000 0.031421 0.000000
# 6 0.000000 0.000000 0.000000 0.011500 0.000000 -0.207628
#
#
# Mechanical properties :
#
#
# Convention : Reuss Voigt Hill
#
# Bulk Modulus (GPa) = 57.29007 70.38468 63.83738
# Shear Modulus (GPa) = -50.32639 32.53623 -8.89508
#
# Velocity S-wave (km/s) = -4.57474 3.67834 -1.92328
# Velocity P-wave (km/s) = 2.01996 6.87821 4.64917
#
# Compressibility (1/GPa) = 0.01745503
#
# Stress axis : x y z
#
# Youngs Moduli (GPa) = 138.82634 149.21111 76.28615
#
# Poissons Ratio (x) = 0.28844 0.13957
# Poissons Ratio (y) = 0.26836 0.07756
# Poissons Ratio (z) = 0.25398 0.15171
#
# Static dielectric constant tensor:
#      x y z
#    x 1.943430 0.000000 0.025770 
#    y 0.000000 2.123950 0.000000 
#    z 0.025770 0.000000 2.097590 
# 
# From -- ./inp_files/37870.got.cif
#   From: 2010.05.17/outbox.cif.g08.bks.cpg/sg15_19_cif.got.tgz:37870.got - 2010.06.03 18:47:42.
