data_PCOD9295252
_publ_section_title
;
Structure prediction by ZEFSAII (Michael W. Deem and Ramdas Pophale) SiO2 
 PCOD9295252
Probable space group: C 2/C
;
_chemical_formula_sum "Si O2"
_cell_formula_units_Z 60
_cell_length_a 16.604002
_cell_length_b 23.801318
_cell_length_c 11.427433
_cell_angle_alpha 90.000000
_cell_angle_beta 146.943499
_cell_angle_gamma 90.000000
_cell_volume 2463.371991
_symmetry_space_group_name_H-M "C 2/C"
_symmetry_group_IT_number 15
_symmetry_cell_setting 'monoclinic'
loop_
_space_group_symop_operation_xyz
x,y,z
-x,y,1/2-z
-x,-y,-z
x,-y,1/2+z
1/2+x,1/2+y,z
1/2-x,1/2+y,1/2-z
1/2-x,1/2-y,-z
1/2+x,1/2-y,1/2+z
loop_
_atom_site_type_symbol
_atom_site_label
_atom_site_fract_x
_atom_site_fract_y
_atom_site_fract_z
Si Si1 0.162916 0.257894 0.189864
Si Si2 0.273048 0.963002 0.713368
Si Si3 0.628954 0.135866 0.810617
Si Si4 0.500000 0.522526 0.750000
Si Si5 0.866426 0.126782 0.282214
Si Si6 0.373894 0.730986 0.739422
Si Si7 0.857753 0.891929 0.256222
Si Si8 0.571102 0.932517 0.008329
O O1 0.152910 0.303417 0.279680
O O2 0.153113 0.193425 0.219632
O O3 0.308894 0.265891 0.291619
O O4 0.024985 0.265031 0.932336
O O5 0.208126 0.910162 0.705141
O O6 0.139940 0.998689 0.494070
O O7 0.357020 0.005697 0.901204
O O8 0.397490 0.940582 0.774489
O O9 0.500000 0.139803 0.750000
O O10 0.579842 0.093911 0.648770
O O11 0.777119 0.115400 0.055683
O O12 0.587490 0.558585 0.759079
O O13 0.038532 0.110565 0.501671
O O14 0.250000 0.750000 0.500000
O O15 0.399572 0.665910 0.743926
O O16 0.685124 0.895171 0.074080
#
# Coordination Sequence:
#
# PCOD9295252 Si02
#       8
#     8   8   8   4   8   8   8   8
#     4  11  24  42  65  99 134 177 233 275 343 416
#     4  10  24  45  71  99 137 179 229 289 343 407
#     4  12  23  42  69 100 140 187 228 287 352 408
#     4  10  24  44  68  96 132 180 220 288 346 396
#     4  10  23  42  67  94 139 182 222 286 346 410
#     4  11  24  40  65  96 134 177 217 281 341 412
#     4  10  24  43  65  98 135 173 233 280 339 411
#     4  11  24  45  68 103 135 176 234 286 334 419
#
# _framework density 24.356856000000001
#
# number of rings (size 3 to 8) (size 9 to 14) (size 15 to 20)
#    0.000    1.333    2.667    1.600    5.600    5.333 
#    2.400    0.000    0.000    0.000    0.000    0.000 
#    0.000    0.000    0.000    0.000    0.000    0.000 
#
# Total GULP energy -167740.845726 kJ/mol
# GULP energy per Si atom -5591.361524 kJ/mol
# Density = 2.430142 g / cm^3
# Si number density = 24.356856 Si / 1000 Ang^3
#
#
#
# Elastic Constant Matrix: (Units=GPa)
#
#
# Indices 1 2 3 4 5 6 
#
# 1 95.2388 22.7163 15.4095 0.0000 13.5981 0.0000
# 2 22.7163 80.2576 20.0079 0.0000 2.8155 0.0000
# 3 15.4095 20.0079 126.2741 0.0000 8.7375 0.0000
# 4 0.0000 0.0000 0.0000 15.1066 0.0000 8.5235
# 5 13.5981 2.8155 8.7375 0.0000 33.7707 0.0000
# 6 0.0000 0.0000 0.0000 8.5235 0.0000 23.4609
#
#
#
# Elastic Compliance Matrix: (Units=1/GPa)
#
#
# Indices 1 2 3 4 5 6 
#
# 1 0.011966 -0.003066 -0.000671 0.000000 -0.004389 0.000000
# 2 -0.003066 0.013768 -0.001846 0.000000 0.000564 0.000000
# 3 -0.000671 -0.001846 0.008415 0.000000 -0.001753 0.000000
# 4 0.000000 0.000000 0.000000 0.083264 0.000000 -0.030251
# 5 -0.004389 0.000564 -0.001753 0.000000 0.031785 0.000000
# 6 0.000000 0.000000 0.000000 -0.030251 0.000000 0.053614
#
#
# Mechanical properties :
#
#
# Convention : Reuss Voigt Hill
#
# Bulk Modulus (GPa) = 43.50958 46.44866 44.97912
# Shear Modulus (GPa) = 22.55901 30.71009 26.63455
#
# Velocity S-wave (km/s) = 3.04663 3.55468 3.31042
# Velocity P-wave (km/s) = 5.50256 5.99659 5.75488
#
# Compressibility (1/GPa) = 0.02298345
#
# Stress axis : x y z
#
# Youngs Moduli (GPa) = 83.56731 72.63143 118.83512
#
# Poissons Ratio (x) = 0.22267 0.07972
# Poissons Ratio (y) = 0.25620 0.21942
# Poissons Ratio (z) = 0.05606 0.13411
#
# Static dielectric constant tensor:
#      x y z
#    x 1.934470 0.000000 -0.006660 
#    y 0.000000 1.930770 0.000000 
#    z -0.006660 0.000000 1.999240 
# 
# From -- ./inp_files/108445.got.cif
#   From: 2010.05.17/outbox.cif.g08.bks.cpg/sg15_55_cif.got.tgz:108445.got - 2010.06.03 18:47:42.
