data_PCOD9295158
_publ_section_title
;
Structure prediction by ZEFSAII (Michael W. Deem and Ramdas Pophale) SiO2 
 PCOD9295158
Probable space group: C 2/C
;
_chemical_formula_sum "Si O2"
_cell_formula_units_Z 60
_cell_length_a 25.950976
_cell_length_b 15.746197
_cell_length_c 20.653868
_cell_angle_alpha 90.000000
_cell_angle_beta 19.572464
_cell_angle_gamma 90.000000
_cell_volume 2827.313744
_symmetry_space_group_name_H-M "C 2/C"
_symmetry_group_IT_number 15
_symmetry_cell_setting 'monoclinic'
loop_
_space_group_symop_operation_xyz
x,y,z
-x,y,1/2-z
-x,-y,-z
x,-y,1/2+z
1/2+x,1/2+y,z
1/2-x,1/2+y,1/2-z
1/2-x,1/2-y,-z
1/2+x,1/2-y,1/2+z
loop_
_atom_site_type_symbol
_atom_site_label
_atom_site_fract_x
_atom_site_fract_y
_atom_site_fract_z
Si Si1 0.154178 0.790990 0.712201
Si Si2 0.917515 0.296381 0.979807
Si Si3 0.202565 0.050713 0.539710
Si Si4 0.418787 0.609951 0.942557
Si Si5 0.000000 0.621726 0.250000
Si Si6 0.177928 0.136666 0.052088
Si Si7 0.661472 0.238401 0.378639
Si Si8 0.911530 0.413502 0.619932
O O1 0.208784 0.856221 0.592628
O O2 0.208799 0.700764 0.617765
O O3 0.228035 0.794247 0.695380
O O4 0.971185 0.796914 0.935202
O O5 0.972407 0.198310 0.910713
O O6 0.919590 0.325795 0.903038
O O7 0.018290 0.363660 0.901120
O O8 0.757530 0.284982 0.208423
O O9 0.155444 0.120578 0.541728
O O10 0.366240 0.067587 0.375771
O O11 0.068096 0.053402 0.752518
O O12 0.198536 0.960615 0.508595
O O13 0.272546 0.573947 0.154453
O O14 0.000000 0.162121 0.250000
O O15 0.574498 0.157127 0.452256
O O16 0.000000 0.500000 0.500000
#
# Coordination Sequence:
#
# PCOD9295158 Si02
#       8
#     8   8   8   8   4   8   8   8
#     4  11  24  41  70  97 136 179 231 286 354 418
#     4  11  25  42  68 100 136 179 237 279 350 418
#     4  11  24  40  67  99 139 178 225 293 348 412
#     4  10  23  42  65  98 132 181 226 279 346 414
#     4  12  26  42  68 100 140 176 234 294 344 404
#     4  11  23  42  68 103 134 180 233 286 354 416
#     4  11  24  43  67  98 135 182 228 288 345 424
#     4  11  25  43  71 101 138 184 236 283 351 419
#
# _framework density 21.221556
#
# number of rings (size 3 to 8) (size 9 to 14) (size 15 to 20)
#    0.000    1.067    5.333    0.800    5.600    4.267 
#    0.000    0.000    0.000    4.000    0.000    0.000 
#    0.000    0.000    0.000    0.000    0.000    0.000 
#
# Total GULP energy -167411.980453 kJ/mol
# GULP energy per Si atom -5580.399348 kJ/mol
# Density = 2.117325 g / cm^3
# Si number density = 21.221556 Si / 1000 Ang^3
#
#
#
# Elastic Constant Matrix: (Units=GPa)
#
#
# Indices 1 2 3 4 5 6 
#
# 1 89.3929 11.9034 20.1612 -0.0022 7.9933 0.0006
# 2 11.9034 81.3888 24.8152 -0.0035 5.8835 0.0016
# 3 20.1612 24.8152 93.0268 -0.0018 2.3132 0.0006
# 4 -0.0022 -0.0035 -0.0018 18.4307 0.0007 -1.0179
# 5 7.9933 5.8835 2.3132 0.0007 36.3290 0.0002
# 6 0.0006 0.0016 0.0006 -1.0179 0.0002 19.4632
#
#
#
# Elastic Compliance Matrix: (Units=1/GPa)
#
#
# Indices 1 2 3 4 5 6 
#
# 1 0.012037 -0.000884 -0.002314 0.000001 -0.002358 0.000000
# 2 -0.000884 0.013578 -0.003386 0.000002 -0.001789 -0.000001
# 3 -0.002314 -0.003386 0.012147 0.000000 0.000284 0.000000
# 4 0.000001 0.000002 0.000000 0.054414 -0.000002 0.002846
# 5 -0.002358 -0.001789 0.000284 -0.000002 0.028317 0.000000
# 6 0.000000 -0.000001 0.000000 0.002846 0.000000 0.051528
#
#
# Mechanical properties :
#
#
# Convention : Reuss Voigt Hill
#
# Bulk Modulus (GPa) = 40.66150 41.95203 41.30676
# Shear Modulus (GPa) = 25.85484 28.63982 27.24733
#
# Velocity S-wave (km/s) = 3.49424 3.67763 3.58711
# Velocity P-wave (km/s) = 5.95665 6.15181 6.05502
#
# Compressibility (1/GPa) = 0.02459329
#
# Stress axis : x y z
#
# Youngs Moduli (GPa) = 83.07649 73.65039 82.32333
#
# Poissons Ratio (x) = 0.06514 0.19051
# Poissons Ratio (y) = 0.07348 0.27872
# Poissons Ratio (z) = 0.19225 0.24936
#
# Static dielectric constant tensor:
#      x y z
#    x 1.800310 0.000000 0.021510 
#    y 0.000000 1.749360 0.000000 
#    z 0.021510 0.000000 1.799730 
# 
# From -- ./inp_files/257867.got.cif
#   From: 2010.05.17/outbox.cif.g08.bks.cpg/sg15_129_cif.got.tgz:257867.got - 2010.06.03 18:47:42.
