data_PCOD9295182
_publ_section_title
;
Structure prediction by ZEFSAII (Michael W. Deem and Ramdas Pophale) SiO2 
 PCOD9295182
Probable space group: C 2/C
;
_chemical_formula_sum "Si O2"
_cell_formula_units_Z 32
_cell_length_a 16.899569
_cell_length_b 10.183469
_cell_length_c 14.666326
_cell_angle_alpha 90.000000
_cell_angle_beta 151.764690
_cell_angle_gamma 90.000000
_cell_volume 1194.097987
_symmetry_space_group_name_H-M "C 2/C"
_symmetry_group_IT_number 15
_symmetry_cell_setting 'monoclinic'
loop_
_space_group_symop_operation_xyz
x,y,z
-x,y,1/2-z
-x,-y,-z
x,-y,1/2+z
1/2+x,1/2+y,z
1/2-x,1/2+y,1/2-z
1/2-x,1/2-y,-z
1/2+x,1/2-y,1/2+z
loop_
_atom_site_type_symbol
_atom_site_label
_atom_site_fract_x
_atom_site_fract_y
_atom_site_fract_z
Si Si1 0.949059 0.400001 0.299304
Si Si2 0.127811 0.193640 0.575606
Si Si3 0.404462 0.536485 0.789402
Si Si4 0.758150 0.110004 0.462441
O O1 0.000000 0.352729 0.250000
O O2 0.074678 0.342306 0.502010
O O3 0.768332 0.345817 0.146200
O O4 0.909714 0.555316 0.253699
O O5 0.180880 0.138448 0.727771
O O6 0.963575 0.102110 0.390563
O O7 0.298601 0.516915 0.590751
O O8 0.580799 0.601880 0.938255
O O9 0.750000 0.250000 0.500000
#
# Coordination Sequence:
#
# PCOD9295182 Si02
#       4
#     8   8   8   8
#     4  11  25  41  69 102 131 179 227 285 332 408
#     4  10  23  43  67  98 134 168 229 277 342 393
#     4   9  22  43  65  91 134 180 206 287 338 398
#     4  10  23  42  66  92 135 176 226 266 343 405
#
# _framework density 26.798469000000001
#
# number of rings (size 3 to 8) (size 9 to 14) (size 15 to 20)
#    0.000    2.000    0.000    0.750   17.500    0.000 
#    0.000    2.500    0.000    0.000    0.000    0.000 
#    0.000    0.000    0.000    0.000    0.000    0.000 
#
# Total GULP energy -89563.896050 kJ/mol
# GULP energy per Si atom -5597.743503 kJ/mol
# Density = 2.673747 g / cm^3
# Si number density = 26.798469 Si / 1000 Ang^3
#
#
#
# Elastic Constant Matrix: (Units=GPa)
#
#
# Indices 1 2 3 4 5 6 
#
# 1 169.9339 29.3255 46.3110 0.0000 -13.7121 0.0000
# 2 29.3255 106.3185 20.6834 0.0000 1.7789 0.0000
# 3 46.3110 20.6834 71.1886 0.0000 8.2419 0.0000
# 4 0.0000 0.0000 0.0000 45.2141 0.0000 -6.9086
# 5 -13.7121 1.7789 8.2419 0.0000 33.2699 0.0000
# 6 0.0000 0.0000 0.0000 -6.9086 0.0000 22.5633
#
#
#
# Elastic Compliance Matrix: (Units=1/GPa)
#
#
# Indices 1 2 3 4 5 6 
#
# 1 0.007927 -0.001226 -0.005340 0.000000 0.004655 0.000000
# 2 -0.001226 0.010160 -0.002093 0.000000 -0.000530 0.000000
# 3 -0.005340 -0.002093 0.018913 0.000000 -0.006774 0.000000
# 4 0.000000 0.000000 0.000000 0.023203 0.000000 0.007104
# 5 0.004655 -0.000530 -0.006774 0.000000 0.033682 0.000000
# 6 0.000000 0.000000 0.000000 0.007104 0.000000 0.046495
#
#
# Mechanical properties :
#
#
# Convention : Reuss Voigt Hill
#
# Bulk Modulus (GPa) = 50.80502 60.00897 55.40700
# Shear Modulus (GPa) = 30.43984 36.95086 33.69535
#
# Velocity S-wave (km/s) = 3.37394 3.71730 3.54978
# Velocity P-wave (km/s) = 5.84613 6.39263 6.12548
#
# Compressibility (1/GPa) = 0.01968309
#
# Stress axis : x y z
#
# Youngs Moduli (GPa) = 126.15124 98.42680 52.87263
#
# Poissons Ratio (x) = 0.12063 0.28233
# Poissons Ratio (y) = 0.15461 0.11068
# Poissons Ratio (z) = 0.67361 0.20603
#
# Static dielectric constant tensor:
#      x y z
#    x 2.080560 0.000000 -0.019080 
#    y 0.000000 2.169550 0.000000 
#    z -0.019080 0.000000 2.090540 
# 
# From -- ./inp_files/45679.got.cif
#   From: 2010.05.17/outbox.cif.g08.bks.cpg/sg15_23_cif.got.tgz:45679.got - 2010.06.03 18:47:42.
