data_PCOD9295294
_publ_section_title
;
Structure prediction by ZEFSAII (Michael W. Deem and Ramdas Pophale) SiO2 
 PCOD9295294
Probable space group: C 2/C
;
_chemical_formula_sum "Si O2"
_cell_formula_units_Z 48
_cell_length_a 15.785421
_cell_length_b 9.285671
_cell_length_c 16.785326
_cell_angle_alpha 90.000000
_cell_angle_beta 62.827132
_cell_angle_gamma 90.000000
_cell_volume 2188.819724
_symmetry_space_group_name_H-M "C 2/C"
_symmetry_group_IT_number 15
_symmetry_cell_setting 'monoclinic'
loop_
_space_group_symop_operation_xyz
x,y,z
-x,y,1/2-z
-x,-y,-z
x,-y,1/2+z
1/2+x,1/2+y,z
1/2-x,1/2+y,1/2-z
1/2-x,1/2-y,-z
1/2+x,1/2-y,1/2+z
loop_
_atom_site_type_symbol
_atom_site_label
_atom_site_fract_x
_atom_site_fract_y
_atom_site_fract_z
Si Si1 0.015603 0.596166 0.572684
Si Si2 0.160542 0.136244 0.528044
Si Si3 0.657183 0.793654 0.244416
Si Si4 0.649485 0.688637 0.072464
Si Si5 0.223298 0.064021 0.335655
Si Si6 0.912804 0.633565 0.344895
O O1 0.069506 0.749796 0.545986
O O2 0.087674 0.498587 0.593949
O O3 0.000000 0.500000 0.500000
O O4 0.919696 0.625831 0.665486
O O5 0.152119 0.095607 0.439209
O O6 0.311182 0.350987 0.725558
O O7 0.077780 0.225599 0.605155
O O8 0.165271 0.982544 0.568447
O O9 0.622210 0.748397 0.171783
O O10 0.746914 0.900521 0.193768
O O11 0.679091 0.132094 0.171547
O O12 0.750000 0.750000 0.000000
O O13 0.250000 0.250000 0.500000
O O14 0.000000 0.615265 0.250000
#
# Coordination Sequence:
#
# PCOD9295294 Si02
#       6
#     8   8   8   8   8   8
#     4  12  26  47  75 107 147 197 245 305 369 439
#     4  10  23  42  68 103 138 187 240 294 365 438
#     4  12  26  44  73 107 147 193 249 299 374 443
#     4  12  24  46  73 104 148 196 243 305 371 445
#     4  11  24  44  68 103 141 187 245 294 363 443
#     4  11  21  44  70  99 143 185 239 300 362 433
#
# _framework density 21.929625999999999
#
# number of rings (size 3 to 8) (size 9 to 14) (size 15 to 20)
#    0.000    0.667    5.000    2.500    7.000    1.333 
#    0.000    1.667    0.000    0.000    0.000    0.000 
#    0.000    0.000    0.000    0.000    0.000    0.000 
#
# Total GULP energy -133939.357727 kJ/mol
# GULP energy per Si atom -5580.806572 kJ/mol
# Density = 2.187971 g / cm^3
# Si number density = 21.929626 Si / 1000 Ang^3
#
#
#
# Elastic Constant Matrix: (Units=GPa)
#
#
# Indices 1 2 3 4 5 6 
#
# 1 50.6805 9.1006 24.2980 0.0000 13.6430 0.0000
# 2 9.1006 142.8185 29.2867 0.0000 15.0895 0.0000
# 3 24.2980 29.2867 99.2943 0.0000 16.5593 0.0000
# 4 0.0000 0.0000 0.0000 40.9400 0.0000 5.1883
# 5 13.6430 15.0895 16.5593 0.0000 22.3513 0.0000
# 6 0.0000 0.0000 0.0000 5.1883 0.0000 35.2305
#
#
#
# Elastic Compliance Matrix: (Units=1/GPa)
#
#
# Indices 1 2 3 4 5 6 
#
# 1 0.025021 0.000595 -0.004204 0.000000 -0.012560 0.000000
# 2 0.000595 0.007774 -0.001715 0.000000 -0.004341 0.000000
# 3 -0.004204 -0.001715 0.012533 0.000000 -0.005562 0.000000
# 4 0.000000 0.000000 0.000000 0.024891 0.000000 -0.003666
# 5 -0.012560 -0.004341 -0.005562 0.000000 0.059458 0.000000
# 6 0.000000 0.000000 0.000000 -0.003666 0.000000 0.028924
#
#
# Mechanical properties :
#
#
# Convention : Reuss Voigt Hill
#
# Bulk Modulus (GPa) = 28.83404 46.46267 37.64836
# Shear Modulus (GPa) = 27.65356 35.04488 31.34922
#
# Velocity S-wave (km/s) = 3.55493 4.00191 3.78502
# Velocity P-wave (km/s) = 5.47969 6.52586 6.02552
#
# Compressibility (1/GPa) = 0.03468123
#
# Stress axis : x y z
#
# Youngs Moduli (GPa) = 39.96629 128.62971 79.78937
#
# Poissons Ratio (x) = -0.07649 0.33541
# Poissons Ratio (y) = -0.02376 0.13680
# Poissons Ratio (z) = 0.16800 0.22054
#
# Static dielectric constant tensor:
#      x y z
#    x 1.897630 0.000000 -0.034060 
#    y 0.000000 1.886680 0.000000 
#    z -0.034060 0.000000 1.839230 
# 
# From -- ./inp_files/213291.got.cif
#   From: 2010.05.17/outbox.cif.g08.bks.cpg/sg15_107_cif.got.tgz:213291.got - 2010.06.03 18:47:42.
