data_PCOD9295236
_publ_section_title
;
Structure prediction by ZEFSAII (Michael W. Deem and Ramdas Pophale) SiO2 
 PCOD9295236
Probable space group: C 2/C
;
_chemical_formula_sum "Si O2"
_cell_formula_units_Z 48
_cell_length_a 15.685651
_cell_length_b 25.745849
_cell_length_c 11.790361
_cell_angle_alpha 90.000000
_cell_angle_beta 30.343905
_cell_angle_gamma 90.000000
_cell_volume 2405.419495
_symmetry_space_group_name_H-M "C 2/C"
_symmetry_group_IT_number 15
_symmetry_cell_setting 'monoclinic'
loop_
_space_group_symop_operation_xyz
x,y,z
-x,y,1/2-z
-x,-y,-z
x,-y,1/2+z
1/2+x,1/2+y,z
1/2-x,1/2+y,1/2-z
1/2-x,1/2-y,-z
1/2+x,1/2-y,1/2+z
loop_
_atom_site_type_symbol
_atom_site_label
_atom_site_fract_x
_atom_site_fract_y
_atom_site_fract_z
Si Si1 0.909468 0.004129 0.729264
Si Si2 0.300785 0.690320 0.956208
Si Si3 0.658638 0.199200 0.650377
Si Si4 0.306380 0.099334 0.000859
Si Si5 0.844159 0.598796 0.513950
Si Si6 0.060241 0.349105 0.931937
O O1 0.000000 0.013210 0.750000
O O2 0.783256 0.052129 0.855460
O O3 0.811603 0.949983 0.858826
O O4 0.000000 0.000000 0.500000
O O5 0.500000 0.685613 0.750000
O O6 0.246600 0.653025 0.914813
O O7 0.250000 0.750000 0.000000
O O8 0.184848 0.670060 0.192260
O O9 0.500000 0.194571 0.750000
O O10 0.750000 0.250000 0.500000
O O11 0.752560 0.144571 0.519172
O O12 0.566372 0.196175 0.877501
O O13 0.500000 0.083319 0.750000
O O14 0.324698 0.127455 0.101158
O O15 0.934362 0.606485 0.530800
O O16 0.000000 0.590946 0.250000
#
# Coordination Sequence:
#
# PCOD9295236 Si02
#       6
#     8   8   8   8   8   8
#     4  12  29  44  67 104 137 178 230 285 346 406
#     4  11  23  39  63  95 134 173 226 280 339 409
#     4   9  20  39  62  92 124 167 221 272 330 401
#     4   9  22  43  66  88 130 176 223 275 336 416
#     4  10  23  42  67  92 131 176 226 281 340 411
#     4   9  21  41  65  93 125 178 224 274 352 399
#
# _framework density 19.954939
#
# number of rings (size 3 to 8) (size 9 to 14) (size 15 to 20)
#    0.000    2.333    0.000    2.500   11.667    6.667 
#    0.000    0.000    0.000    0.000    0.000    0.000 
#    0.000    0.000    0.000    0.000    0.000    0.000 
#
# Total GULP energy -133622.505702 kJ/mol
# GULP energy per Si atom -5567.604404 kJ/mol
# Density = 1.990952 g / cm^3
# Si number density = 19.954939 Si / 1000 Ang^3
#
#
#
# Elastic Constant Matrix: (Units=GPa)
#
#
# Indices 1 2 3 4 5 6 
#
# 1 66.7575 12.5527 36.0531 0.0014 4.1628 -0.0014
# 2 12.5527 120.7585 56.1100 0.0016 -11.1582 -0.0004
# 3 36.0531 56.1100 95.3964 0.0037 -2.7312 -0.0020
# 4 0.0014 0.0016 0.0037 39.8353 -0.0022 -10.3526
# 5 4.1628 -11.1582 -2.7312 -0.0022 23.0765 0.0018
# 6 -0.0014 -0.0004 -0.0020 -10.3526 0.0018 23.8835
#
#
#
# Elastic Compliance Matrix: (Units=1/GPa)
#
#
# Indices 1 2 3 4 5 6 
#
# 1 0.019434 0.001507 -0.008339 0.000000 -0.003764 0.000001
# 2 0.001507 0.012052 -0.007524 0.000000 0.004665 -0.000001
# 3 -0.008339 -0.007524 0.018060 -0.000001 0.000004 0.000000
# 4 0.000000 0.000000 -0.000001 0.028290 0.000002 0.012263
# 5 -0.003764 0.004665 0.000004 0.000002 0.046269 -0.000003
# 6 0.000001 -0.000001 0.000000 0.012263 -0.000003 0.047185
#
#
# Mechanical properties :
#
#
# Convention : Reuss Voigt Hill
#
# Bulk Modulus (GPa) = 48.00112 54.70488 51.35300
# Shear Modulus (GPa) = 24.16068 29.23882 26.69975
#
# Velocity S-wave (km/s) = 3.48338 3.83200 3.66184
# Velocity P-wave (km/s) = 6.34709 6.85950 6.60826
#
# Compressibility (1/GPa) = 0.02083285
#
# Stress axis : x y z
#
# Youngs Moduli (GPa) = 51.45497 82.97692 55.37183
#
# Poissons Ratio (x) = -0.12501 0.46173
# Poissons Ratio (y) = -0.07752 0.41663
# Poissons Ratio (z) = 0.42907 0.62434
#
# Static dielectric constant tensor:
#      x y z
#    x 1.764750 0.000000 0.045900 
#    y 0.000000 1.778170 0.000000 
#    z 0.045900 0.000000 1.741780 
# 
# From -- ./inp_files/101222.got.cif
#   From: 2010.05.17/outbox.cif.g08.bks.cpg/sg15_51_cif.got.tgz:101222.got - 2010.06.03 18:47:42.
