data_PCOD9295169
_publ_section_title
;
Structure prediction by ZEFSAII (Michael W. Deem and Ramdas Pophale) SiO2 
 PCOD9295169
Probable space group: C 2/C
;
_chemical_formula_sum "Si O2"
_cell_formula_units_Z 56
_cell_length_a 13.464652
_cell_length_b 18.605617
_cell_length_c 12.553964
_cell_angle_alpha 90.000000
_cell_angle_beta 134.628562
_cell_angle_gamma 90.000000
_cell_volume 2238.217921
_symmetry_space_group_name_H-M "C 2/C"
_symmetry_group_IT_number 15
_symmetry_cell_setting 'monoclinic'
loop_
_space_group_symop_operation_xyz
x,y,z
-x,y,1/2-z
-x,-y,-z
x,-y,1/2+z
1/2+x,1/2+y,z
1/2-x,1/2+y,1/2-z
1/2-x,1/2-y,-z
1/2+x,1/2-y,1/2+z
loop_
_atom_site_type_symbol
_atom_site_label
_atom_site_fract_x
_atom_site_fract_y
_atom_site_fract_z
Si Si1 0.000000 0.062435 0.750000
Si Si2 0.500000 0.996218 0.250000
Si Si3 0.294265 0.483648 0.922448
Si Si4 0.853277 0.809173 0.246369
Si Si5 0.700506 0.648862 0.564141
Si Si6 0.385543 0.868533 0.020030
Si Si7 0.886892 0.867076 0.831989
Si Si8 0.426764 0.223836 0.996498
O O1 0.069796 0.116678 0.718711
O O2 0.882457 0.019639 0.598089
O O3 0.447017 0.943122 0.114034
O O4 0.365287 0.042235 0.182300
O O5 0.375287 0.438921 0.894622
O O6 0.272525 0.566969 0.880195
O O7 0.802148 0.806474 0.330361
O O8 0.717512 0.808582 0.071756
O O9 0.963944 0.745569 0.331417
O O10 0.823881 0.671552 0.578328
O O11 0.541912 0.645155 0.401092
O O12 0.497852 0.826660 0.033894
O O13 0.243786 0.874551 0.844670
O O14 0.878364 0.798997 0.905158
#
# Coordination Sequence:
#
# PCOD9295169 Si02
#       8
#     4   4   8   8   8   8   8   8
#     4  12  26  44  69  97 132 186 224 282 340 392
#     4  10  26  44  65 105 134 182 228 276 340 412
#     4  11  24  44  68  98 139 174 234 279 337 403
#     4  11  25  44  67  99 134 179 228 279 338 393
#     4  10  23  42  66 102 134 172 226 280 335 410
#     4  11  23  43  68  97 142 176 220 275 350 400
#     4  11  23  40  67 101 129 183 221 277 336 401
#     4  11  22  45  63  99 136 173 223 275 330 409
#
# _framework density 25.019905000000001
#
# number of rings (size 3 to 8) (size 9 to 14) (size 15 to 20)
#    0.000    1.143    4.286    2.571    4.000    4.571 
#   10.286    0.000    0.000    0.000    0.000    0.000 
#    0.000    0.000    0.000    0.000    0.000    0.000 
#
# Total GULP energy -156580.010732 kJ/mol
# GULP energy per Si atom -5592.143240 kJ/mol
# Density = 2.496296 g / cm^3
# Si number density = 25.019905 Si / 1000 Ang^3
#
#
#
# Elastic Constant Matrix: (Units=GPa)
#
#
# Indices 1 2 3 4 5 6 
#
# 1 79.4711 12.1270 64.4038 0.0000 8.8974 0.0000
# 2 12.1270 51.1437 -4.1172 0.0000 4.1466 0.0000
# 3 64.4038 -4.1172 124.2429 0.0000 36.6090 0.0000
# 4 0.0000 0.0000 0.0000 88.4103 0.0000 -11.7245
# 5 8.8974 4.1466 36.6090 0.0000 51.2329 0.0000
# 6 0.0000 0.0000 0.0000 -11.7245 0.0000 32.2798
#
#
#
# Elastic Compliance Matrix: (Units=1/GPa)
#
#
# Indices 1 2 3 4 5 6 
#
# 1 0.025815 -0.008005 -0.015855 0.000000 0.007494 0.000000
# 2 -0.008005 0.022364 0.006352 0.000000 -0.004959 0.000000
# 3 -0.015855 0.006352 0.020037 0.000000 -0.012078 0.000000
# 4 0.000000 0.000000 0.000000 0.011883 0.000000 0.004316
# 5 0.007494 -0.004959 -0.012078 0.000000 0.027249 0.000000
# 6 0.000000 0.000000 0.000000 0.004316 0.000000 0.032547
#
#
# Mechanical properties :
#
#
# Convention : Reuss Voigt Hill
#
# Bulk Modulus (GPa) = 30.12118 44.40943 37.26530
# Shear Modulus (GPa) = 26.88484 46.54753 36.71619
#
# Velocity S-wave (km/s) = 3.28157 4.31794 3.83492
# Velocity P-wave (km/s) = 5.14036 6.53051 5.87669
#
# Compressibility (1/GPa) = 0.03319923
#
# Stress axis : x y z
#
# Youngs Moduli (GPa) = 38.73754 44.71418 49.90779
#
# Poissons Ratio (x) = 0.35794 0.79129
# Poissons Ratio (y) = 0.31010 -0.31700
# Poissons Ratio (z) = 0.61419 -0.28402
#
# Static dielectric constant tensor:
#      x y z
#    x 2.063590 0.000000 0.042880 
#    y 0.000000 1.951160 0.000000 
#    z 0.042880 0.000000 2.034660 
# 
# From -- ./inp_files/156252.got.cif
#   From: 2010.05.17/outbox.cif.g08.bks.cpg/sg15_79_cif.got.tgz:156252.got - 2010.06.03 18:47:42.
