data_PCOD9295202
_publ_section_title
;
Structure prediction by ZEFSAII (Michael W. Deem and Ramdas Pophale) SiO2 
 PCOD9295202
Probable space group: C 2/C
;
_chemical_formula_sum "Si O2"
_cell_formula_units_Z 64
_cell_length_a 29.688627
_cell_length_b 14.767093
_cell_length_c 9.047961
_cell_angle_alpha 90.000000
_cell_angle_beta 125.618420
_cell_angle_gamma 90.000000
_cell_volume 3224.632435
_symmetry_space_group_name_H-M "C 2/C"
_symmetry_group_IT_number 15
_symmetry_cell_setting 'monoclinic'
loop_
_space_group_symop_operation_xyz
x,y,z
-x,y,1/2-z
-x,-y,-z
x,-y,1/2+z
1/2+x,1/2+y,z
1/2-x,1/2+y,1/2-z
1/2-x,1/2-y,-z
1/2+x,1/2-y,1/2+z
loop_
_atom_site_type_symbol
_atom_site_label
_atom_site_fract_x
_atom_site_fract_y
_atom_site_fract_z
Si Si1 0.937227 0.111376 0.079295
Si Si2 0.878411 0.995461 0.730131
Si Si3 0.853508 0.465714 0.752738
Si Si4 0.304166 0.436975 0.851001
Si Si5 0.607303 0.803689 0.457948
Si Si6 0.959238 0.448299 0.310741
Si Si7 0.715945 0.913143 0.155928
Si Si8 0.766024 0.267184 0.862260
O O1 0.902092 0.068806 0.147769
O O2 0.920834 0.215867 0.024684
O O3 0.000000 0.104988 0.250000
O O4 0.923393 0.051598 0.909075
O O5 0.844035 0.938527 0.784941
O O6 0.838875 0.066116 0.567783
O O7 0.901731 0.500441 0.735859
O O8 0.806287 0.431082 0.551075
O O9 0.827812 0.544967 0.807996
O O10 0.879108 0.386148 0.903129
O O11 0.272039 0.531581 0.790481
O O12 0.257876 0.361784 0.740874
O O13 0.565887 0.845919 0.254583
O O14 0.667686 0.771108 0.520184
O O15 0.000000 0.454833 0.250000
O O16 0.000000 0.500000 0.500000
O O17 0.733485 0.810251 0.211558
O O18 0.750000 0.250000 0.000000
#
# Coordination Sequence:
#
# PCOD9295202 Si02
#       8
#     8   8   8   8   8   8   8   8
#     4  11  24  44  71  92 130 173 232 284 346 390
#     4  10  23  42  66  96 128 173 217 279 337 404
#     4  12  24  43  65  98 139 177 233 277 341 417
#     4  11  21  40  62  95 135 168 216 267 333 403
#     4  12  25  42  66 103 132 179 232 280 335 417
#     4  12  23  43  70  94 133 185 231 284 344 394
#     4  12  24  41  66  97 138 183 217 276 343 416
#     4  12  24  39  66  95 137 178 218 272 339 407
#
# _framework density 19.847223
#
# number of rings (size 3 to 8) (size 9 to 14) (size 15 to 20)
#    0.000    0.500    3.750    6.000    1.750    0.500 
#    0.000    0.000    0.000    0.000    0.000    0.000 
#    0.000    0.000    0.000    0.000    0.000    0.000 
#
# Total GULP energy -178527.342501 kJ/mol
# GULP energy per Si atom -5578.979453 kJ/mol
# Density = 1.980205 g / cm^3
# Si number density = 19.847223 Si / 1000 Ang^3
#
#
#
# Elastic Constant Matrix: (Units=GPa)
#
#
# Indices 1 2 3 4 5 6 
#
# 1 74.0113 -0.7422 13.0855 0.0000 7.8451 0.0000
# 2 -0.7422 48.4016 6.6909 0.0000 -2.9532 0.0000
# 3 13.0855 6.6909 100.6065 0.0000 7.3995 0.0000
# 4 0.0000 0.0000 0.0000 35.3952 0.0000 8.8736
# 5 7.8451 -2.9532 7.3995 0.0000 23.7007 0.0000
# 6 0.0000 0.0000 0.0000 8.8736 0.0000 21.1791
#
#
#
# Elastic Compliance Matrix: (Units=1/GPa)
#
#
# Indices 1 2 3 4 5 6 
#
# 1 0.014234 0.000177 -0.001554 0.000000 -0.004204 0.000000
# 2 0.000177 0.021080 -0.001652 0.000000 0.003084 0.000000
# 3 -0.001554 -0.001652 0.010469 0.000000 -0.002960 0.000000
# 4 0.000000 0.000000 0.000000 0.031568 0.000000 -0.013226
# 5 -0.004204 0.003084 -0.002960 0.000000 0.044893 0.000000
# 6 0.000000 0.000000 0.000000 -0.013226 0.000000 0.052758
#
#
# Mechanical properties :
#
#
# Convention : Reuss Voigt Hill
#
# Bulk Modulus (GPa) = 25.17325 29.00974 27.09150
# Shear Modulus (GPa) = 25.73324 29.65402 27.69363
#
# Velocity S-wave (km/s) = 3.60469 3.86957 3.73948
# Velocity P-wave (km/s) = 5.48052 5.88328 5.68547
#
# Compressibility (1/GPa) = 0.03972470
#
# Stress axis : x y z
#
# Youngs Moduli (GPa) = 70.25637 47.43907 95.51675
#
# Poissons Ratio (x) = -0.00838 0.14842
# Poissons Ratio (y) = -0.01240 0.15776
# Poissons Ratio (z) = 0.10917 0.07835
#
# Static dielectric constant tensor:
#      x y z
#    x 1.716710 0.000000 0.021110 
#    y 0.000000 1.679580 0.000000 
#    z 0.021110 0.000000 1.711000 
# 
# From -- ./inp_files/70152.got.cif
#   From: 2010.05.17/outbox.cif.g08.bks.cpg/sg15_36_cif.got.tgz:70152.got - 2010.06.03 18:47:42.
