data_PCOD9295385
_publ_section_title
;
Structure prediction by ZEFSAII (Michael W. Deem and Ramdas Pophale) SiO2 
 PCOD9295385
Probable space group: C 2/C
;
_chemical_formula_sum "Si O2"
_cell_formula_units_Z 48
_cell_length_a 15.481312
_cell_length_b 12.452975
_cell_length_c 11.110596
_cell_angle_alpha 90.000000
_cell_angle_beta 89.999959
_cell_angle_gamma 90.000000
_cell_volume 2141.993929
_symmetry_space_group_name_H-M "C 2/C"
_symmetry_group_IT_number 15
_symmetry_cell_setting 'monoclinic'
loop_
_space_group_symop_operation_xyz
x,y,z
-x,y,1/2-z
-x,-y,-z
x,-y,1/2+z
1/2+x,1/2+y,z
1/2-x,1/2+y,1/2-z
1/2-x,1/2-y,-z
1/2+x,1/2-y,1/2+z
loop_
_atom_site_type_symbol
_atom_site_label
_atom_site_fract_x
_atom_site_fract_y
_atom_site_fract_z
Si Si1 0.163224 0.357861 0.689309
Si Si2 0.137759 0.596508 0.724088
Si Si3 0.637759 0.596508 0.275912
Si Si4 0.336776 0.642140 0.689309
Si Si5 0.406427 0.726535 0.454224
Si Si6 0.906427 0.273465 0.045776
O O1 0.117961 0.471204 0.713154
O O2 0.259844 0.378914 0.739668
O O3 0.128512 0.250000 0.750000
O O4 0.157387 0.329074 0.548278
O O5 0.240156 0.621087 0.739668
O O6 0.120732 0.659180 0.600202
O O7 0.089058 0.650493 0.836188
O O8 0.617961 0.471204 0.286846
O O9 0.589058 0.650493 0.163812
O O10 0.620732 0.659180 0.399798
O O11 0.342613 0.670926 0.548278
O O12 0.500000 0.750000 0.509482
#
# Coordination Sequence:
#
# PCOD9295385 Si02
#       6
#     8   8   8   8   8   8
#     4  11  24  40  69 100 126 169 227 266 311 385
#     4  10  23  42  70  92 128 177 216 268 317 383
#     4  10  23  42  70  92 128 177 216 268 317 383
#     4  11  24  40  69 100 126 169 227 266 311 385
#     4  11  24  45  65  94 136 173 210 266 335 380
#     4  11  24  45  65  94 136 173 210 266 335 380
#
# _framework density 22.409026999999998
#
# number of rings (size 3 to 8) (size 9 to 14) (size 15 to 20)
#    0.000    1.333    3.333    3.000    4.667    4.667 
#    6.000    0.000    0.000    0.000    0.000    0.000 
#    0.000    0.000    0.000    0.000    0.000    0.000 
#
# Total GULP energy -133954.165041 kJ/mol
# GULP energy per Si atom -5581.423543 kJ/mol
# Density = 2.235802 g / cm^3
# Si number density = 22.409027 Si / 1000 Ang^3
#
#
#
# Elastic Constant Matrix: (Units=GPa)
#
#
# Indices 1 2 3 4 5 6 
#
# 1 48.0778 8.0040 6.4340 0.0000 -0.0002 0.0000
# 2 8.0040 224.7025 40.7486 0.0000 -0.0001 0.0000
# 3 6.4340 40.7486 78.4189 0.0000 -0.0001 0.0000
# 4 0.0000 0.0000 0.0000 19.5183 0.0000 0.0002
# 5 -0.0002 -0.0001 -0.0001 0.0000 18.6453 0.0000
# 6 0.0000 0.0000 0.0000 0.0002 0.0000 7.7771
#
#
#
# Elastic Compliance Matrix: (Units=1/GPa)
#
#
# Indices 1 2 3 4 5 6 
#
# 1 0.021078 -0.000483 -0.001479 0.000000 0.000000 0.000000
# 2 -0.000483 0.004924 -0.002519 0.000000 0.000000 0.000000
# 3 -0.001479 -0.002519 0.014182 0.000000 0.000000 0.000000
# 4 0.000000 0.000000 0.000000 0.051234 0.000000 -0.000001
# 5 0.000000 0.000000 0.000000 0.000000 0.053633 0.000000
# 6 0.000000 0.000000 0.000000 -0.000001 0.000000 0.128583
#
#
# Mechanical properties :
#
#
# Convention : Reuss Voigt Hill
#
# Bulk Modulus (GPa) = 32.02697 51.28583 41.65640
# Shear Modulus (GPa) = 17.06468 28.92231 22.99349
#
# Velocity S-wave (km/s) = 2.76254 3.59647 3.20673
# Velocity P-wave (km/s) = 4.94960 6.33893 5.68685
#
# Compressibility (1/GPa) = 0.03122368
#
# Stress axis : x y z
#
# Youngs Moduli (GPa) = 47.44318 203.07153 70.50993
#
# Poissons Ratio (x) = 0.09802 0.10425
# Poissons Ratio (y) = 0.02290 0.17763
# Poissons Ratio (z) = 0.07015 0.51159
#
# Static dielectric constant tensor:
#      x y z
#    x 1.877810 0.000000 0.000000 
#    y 0.000000 1.813180 0.000000 
#    z 0.000000 0.000000 1.836330 
# 
# From -- ./inp_files/103767.got.cif
#   From: 2010.05.17/outbox.cif.g08.bks.cpg/sg15_52_cif.got.tgz:103767.got - 2010.06.03 18:47:42.
