data_PCOD9295965
_publ_section_title
;
Structure prediction by ZEFSAII (Michael W. Deem and Ramdas Pophale) SiO2 
 PCOD9295965
Probable space group: C 2/C
;
_chemical_formula_sum "Si O2"
_cell_formula_units_Z 32
_cell_length_a 16.503051
_cell_length_b 14.020576
_cell_length_c 9.815590
_cell_angle_alpha 90.000000
_cell_angle_beta 35.226949
_cell_angle_gamma 90.000000
_cell_volume 1310.039088
_symmetry_space_group_name_H-M "C 2/C"
_symmetry_group_IT_number 15
_symmetry_cell_setting 'monoclinic'
loop_
_space_group_symop_operation_xyz
x,y,z
-x,y,1/2-z
-x,-y,-z
x,-y,1/2+z
1/2+x,1/2+y,z
1/2-x,1/2+y,1/2-z
1/2-x,1/2-y,-z
1/2+x,1/2-y,1/2+z
loop_
_atom_site_type_symbol
_atom_site_label
_atom_site_fract_x
_atom_site_fract_y
_atom_site_fract_z
Si Si1 0.688229 0.728395 0.371082
Si Si2 0.005496 0.695610 0.903069
Si Si3 0.402987 0.516046 0.002700
Si Si4 0.099314 0.568762 0.998711
O O1 0.630367 0.740974 0.294962
O O2 0.630637 0.625796 0.492659
O O3 0.635733 0.825541 0.511667
O O4 0.854301 0.733824 0.152824
O O5 0.000000 0.688924 0.750000
O O6 0.023643 0.597500 0.961398
O O7 0.500000 0.471837 0.750000
O O8 0.500000 0.500000 0.000000
O O9 0.249050 0.475880 0.253059
O O10 0.000000 0.523573 0.250000
#
# Coordination Sequence:
#
# PCOD9295965 Si02
#       4
#     8   8   8   8
#     4  10  24  44  78 103 150 196 253 305 381 437
#     4  10  23  43  78 109 150 193 257 307 382 443
#     4  12  29  48  76 111 158 197 255 312 379 452
#     4  10  26  48  76 110 151 197 256 303 384 449
#
# _framework density 24.426753000000001
#
# number of rings (size 3 to 8) (size 9 to 14) (size 15 to 20)
#    1.500    0.000    0.000    3.000    7.000    5.000 
#    0.000    0.000    0.000    0.000    0.000    0.000 
#    0.000    0.000    0.000    0.000    0.000    0.000 
#
# Total GULP energy -89324.801586 kJ/mol
# GULP energy per Si atom -5582.800099 kJ/mol
# Density = 2.437116 g / cm^3
# Si number density = 24.426753 Si / 1000 Ang^3
#
#
#
# Elastic Constant Matrix: (Units=GPa)
#
#
# Indices 1 2 3 4 5 6 
#
# 1 127.1088 -28.6776 61.5563 0.0000 -9.4144 0.0000
# 2 -28.6776 81.7205 34.0778 0.0000 -17.5786 0.0000
# 3 61.5563 34.0778 195.1124 0.0000 6.2839 0.0000
# 4 0.0000 0.0000 0.0000 -8.8927 0.0000 -58.4678
# 5 -9.4144 -17.5786 6.2839 0.0000 34.4681 0.0000
# 6 0.0000 0.0000 0.0000 -58.4678 0.0000 -35.5799
#
#
#
# Elastic Compliance Matrix: (Units=1/GPa)
#
#
# Indices 1 2 3 4 5 6 
#
# 1 0.013862 0.009646 -0.006376 0.000000 0.009868 0.000000
# 2 0.009646 0.021959 -0.007367 0.000000 0.015177 0.000000
# 3 -0.006376 -0.007367 0.008651 0.000000 -0.007076 0.000000
# 4 0.000000 0.000000 0.000000 0.011470 0.000000 -0.018848
# 5 0.009868 0.015177 -0.007076 0.000000 0.040738 0.000000
# 6 0.000000 0.000000 0.000000 -0.018848 0.000000 0.002867
#
#
# Mechanical properties :
#
#
# Convention : Reuss Voigt Hill
#
# Bulk Modulus (GPa) = 27.56488 59.76162 43.66325
# Shear Modulus (GPa) = 41.72454 20.46478 31.09466
#
# Velocity S-wave (km/s) = 4.13746 2.89762 3.57175
# Velocity P-wave (km/s) = 5.84243 5.97609 5.90964
#
# Compressibility (1/GPa) = 0.03627804
#
# Stress axis : x y z
#
# Youngs Moduli (GPa) = 72.13840 45.54005 115.58728
#
# Poissons Ratio (x) = -0.43928 0.73698
# Poissons Ratio (y) = -0.69586 0.85157
# Poissons Ratio (z) = 0.45995 0.33551
#
# Static dielectric constant tensor:
#      x y z
#    x 1.926600 0.000000 0.037820 
#    y 0.000000 2.077330 0.000000 
#    z 0.037820 0.000000 1.955910 
# 
# From -- ./inp_files/84924.got.cif
#   From: 2010.05.17/outbox.cif.g08.bks.cpg/sg15_43_cif.got.tgz:84924.got - 2010.06.03 18:47:42.
