data_PCOD9295481
_publ_section_title
;
Structure prediction by ZEFSAII (Michael W. Deem and Ramdas Pophale) SiO2 
 PCOD9295481
Probable space group: C 2/C
;
_chemical_formula_sum "Si O2"
_cell_formula_units_Z 40
_cell_length_a 15.421016
_cell_length_b 11.556157
_cell_length_c 10.266758
_cell_angle_alpha 90.000000
_cell_angle_beta 58.607366
_cell_angle_gamma 90.000000
_cell_volume 1561.792003
_symmetry_space_group_name_H-M "C 2/C"
_symmetry_group_IT_number 15
_symmetry_cell_setting 'monoclinic'
loop_
_space_group_symop_operation_xyz
x,y,z
-x,y,1/2-z
-x,-y,-z
x,-y,1/2+z
1/2+x,1/2+y,z
1/2-x,1/2+y,1/2-z
1/2-x,1/2-y,-z
1/2+x,1/2-y,1/2+z
loop_
_atom_site_type_symbol
_atom_site_label
_atom_site_fract_x
_atom_site_fract_y
_atom_site_fract_z
Si Si1 0.318601 0.710727 0.590504
Si Si2 0.000862 0.125995 0.566018
Si Si3 0.577734 0.822890 0.309834
Si Si4 0.812075 0.024804 0.980567
Si Si5 0.320874 0.030125 0.153017
O O1 0.383594 0.664070 0.661819
O O2 0.196941 0.702604 0.687265
O O3 0.345792 0.611608 0.461975
O O4 0.346142 0.845591 0.571925
O O5 0.044705 0.224779 0.436556
O O6 0.088101 0.103920 0.603916
O O7 0.000000 0.000000 0.500000
O O8 0.500000 0.821252 0.250000
O O9 0.589075 0.950825 0.362484
O O10 0.754492 0.048493 0.163540
O O11 0.734316 0.034901 0.923077
#
# Coordination Sequence:
#
# PCOD9295481 Si02
#       5
#     8   8   8   8   8
#     4  10  23  45  72 106 141 200 240 296 368 443
#     4  10  23  42  74 105 137 194 250 297 359 445
#     4  11  26  45  70 106 149 190 245 306 371 439
#     4  10  23  45  74 108 144 190 245 303 363 440
#     4  11  24  46  76 107 150 189 245 306 368 435
#
# _framework density 25.611606999999999
#
# number of rings (size 3 to 8) (size 9 to 14) (size 15 to 20)
#    0.000    1.600    2.000    0.600   11.200    1.600 
#    0.000   12.000    0.000    0.000    0.000    0.000 
#    0.000    0.000    0.000    0.000    0.000    0.000 
#
# Total GULP energy -111677.418158 kJ/mol
# GULP energy per Si atom -5583.870908 kJ/mol
# Density = 2.555331 g / cm^3
# Si number density = 25.611607 Si / 1000 Ang^3
#
#
#
# Elastic Constant Matrix: (Units=GPa)
#
#
# Indices 1 2 3 4 5 6 
#
# 1 217.1462 74.9273 58.5011 0.0000 28.9827 0.0000
# 2 74.9273 145.9685 17.6963 0.0000 -8.6584 0.0000
# 3 58.5011 17.6963 81.1984 0.0000 12.1501 0.0000
# 4 0.0000 0.0000 0.0000 23.3111 0.0000 -3.6659
# 5 28.9827 -8.6584 12.1501 0.0000 51.1691 0.0000
# 6 0.0000 0.0000 0.0000 -3.6659 0.0000 65.7410
#
#
#
# Elastic Compliance Matrix: (Units=1/GPa)
#
#
# Indices 1 2 3 4 5 6 
#
# 1 0.007423 -0.003555 -0.003996 0.000000 -0.003857 0.000000
# 2 -0.003555 0.008870 0.000106 0.000000 0.003489 0.000000
# 3 -0.003996 0.000106 0.015377 0.000000 -0.001370 0.000000
# 4 0.000000 0.000000 0.000000 0.043277 0.000000 0.002413
# 5 -0.003857 0.003489 -0.001370 0.000000 0.022643 0.000000
# 6 0.000000 0.000000 0.000000 0.002413 0.000000 0.015346
#
#
# Mechanical properties :
#
#
# Convention : Reuss Voigt Hill
#
# Bulk Modulus (GPa) = 59.59754 82.95138 71.27446
# Shear Modulus (GPa) = 37.47580 47.59015 42.53298
#
# Velocity S-wave (km/s) = 3.82938 4.31530 4.07958
# Velocity P-wave (km/s) = 6.54770 7.56886 7.07672
#
# Compressibility (1/GPa) = 0.01677922
#
# Stress axis : x y z
#
# Youngs Moduli (GPa) = 134.71200 112.74466 65.03377
#
# Poissons Ratio (x) = 0.40078 0.25990
# Poissons Ratio (y) = 0.47887 -0.00689
# Poissons Ratio (z) = 0.53836 -0.01195
#
# Static dielectric constant tensor:
#      x y z
#    x 2.034090 0.000000 0.033260 
#    y 0.000000 2.005840 0.000000 
#    z 0.033260 0.000000 1.398400 
# 
# From -- ./inp_files/94515.got.cif
#   From: 2010.05.17/outbox.cif.g08.bks.cpg/sg15_48_cif.got.tgz:94515.got - 2010.06.03 18:47:42.
