data_PCOD9295330
_publ_section_title
;
Structure prediction by ZEFSAII (Michael W. Deem and Ramdas Pophale) SiO2 
 PCOD9295330
Probable space group: C 2/C
;
_chemical_formula_sum "Si O2"
_cell_formula_units_Z 40
_cell_length_a 16.576624
_cell_length_b 17.006121
_cell_length_c 10.486162
_cell_angle_alpha 90.000000
_cell_angle_beta 146.712660
_cell_angle_gamma 90.000000
_cell_volume 1622.415874
_symmetry_space_group_name_H-M "C 2/C"
_symmetry_group_IT_number 15
_symmetry_cell_setting 'monoclinic'
loop_
_space_group_symop_operation_xyz
x,y,z
-x,y,1/2-z
-x,-y,-z
x,-y,1/2+z
1/2+x,1/2+y,z
1/2-x,1/2+y,1/2-z
1/2-x,1/2-y,-z
1/2+x,1/2-y,1/2+z
loop_
_atom_site_type_symbol
_atom_site_label
_atom_site_fract_x
_atom_site_fract_y
_atom_site_fract_z
Si Si1 0.686599 0.591147 0.303675
Si Si2 0.595956 0.215676 0.994152
Si Si3 0.143565 0.069347 0.643046
Si Si4 0.613821 0.303809 0.283548
Si Si5 0.598349 0.070009 0.685348
O O1 0.746513 0.677663 0.341676
O O2 0.676924 0.524077 0.181733
O O3 0.801427 0.556730 0.557729
O O4 0.517599 0.586632 0.125446
O O5 0.500000 0.248598 0.750000
O O6 0.514396 0.136404 0.925852
O O7 0.583962 0.269348 0.102312
O O8 0.142352 0.105273 0.784440
O O9 0.283293 0.105194 0.756887
O O10 0.500000 0.298477 0.250000
O O11 0.750000 0.250000 0.500000
O O12 0.500000 0.000000 0.500000
#
# Coordination Sequence:
#
# PCOD9295330 Si02
#       5
#     8   8   8   8   8
#     4  10  23  42  68  99 140 184 236 297 357 423
#     4  10  23  46  70 101 141 191 242 290 350 430
#     4  11  24  42  66 100 143 186 234 294 362 429
#     4  12  27  46  71 107 148 195 237 295 365 429
#     4  11  22  39  69 102 134 180 242 298 353 416
#
# _framework density 24.654591
#
# number of rings (size 3 to 8) (size 9 to 14) (size 15 to 20)
#    0.000    1.200    2.000    3.000    2.800    4.800 
#    0.000    5.000    0.000    0.000    0.000    0.000 
#    0.000    0.000    0.000    0.000    0.000    0.000 
#
# Total GULP energy -111651.539729 kJ/mol
# GULP energy per Si atom -5582.576986 kJ/mol
# Density = 2.459848 g / cm^3
# Si number density = 24.654591 Si / 1000 Ang^3
#
#
#
# Elastic Constant Matrix: (Units=GPa)
#
#
# Indices 1 2 3 4 5 6 
#
# 1 153.0430 12.4585 34.1276 0.0000 19.8577 0.0000
# 2 12.4585 66.5723 24.5813 0.0000 -9.1962 0.0000
# 3 34.1276 24.5813 90.5904 0.0000 20.3520 0.0000
# 4 0.0000 0.0000 0.0000 29.6272 0.0000 -6.2073
# 5 19.8577 -9.1962 20.3520 0.0000 49.2177 0.0000
# 6 0.0000 0.0000 0.0000 -6.2073 0.0000 44.6735
#
#
#
# Elastic Compliance Matrix: (Units=1/GPa)
#
#
# Indices 1 2 3 4 5 6 
#
# 1 0.007358 -0.000965 -0.001987 0.000000 -0.002327 0.000000
# 2 -0.000965 0.018292 -0.006014 0.000000 0.006294 0.000000
# 3 -0.001987 -0.006014 0.014873 0.000000 -0.006472 0.000000
# 4 0.000000 0.000000 0.000000 0.034765 0.000000 0.004831
# 5 -0.002327 0.006294 -0.006472 0.000000 0.025109 0.000000
# 6 0.000000 0.000000 0.000000 0.004831 0.000000 0.023056
#
#
# Mechanical properties :
#
#
# Convention : Reuss Voigt Hill
#
# Bulk Modulus (GPa) = 44.26534 50.28227 47.27381
# Shear Modulus (GPa) = 33.57627 40.63957 37.10792
#
# Velocity S-wave (km/s) = 3.69435 4.06440 3.88379
# Velocity P-wave (km/s) = 6.01588 6.51650 6.27119
#
# Compressibility (1/GPa) = 0.02259104
#
# Stress axis : x y z
#
# Youngs Moduli (GPa) = 135.91141 54.66921 67.23473
#
# Poissons Ratio (x) = 0.05273 0.13361
# Poissons Ratio (y) = 0.13110 0.40435
# Poissons Ratio (z) = 0.27010 0.32878
#
# Static dielectric constant tensor:
#      x y z
#    x 2.082330 0.000000 -0.032080 
#    y 0.000000 2.143170 0.000000 
#    z -0.032080 0.000000 1.942420 
# 
# From -- ./inp_files/106899.got.cif
#   From: 2010.05.17/outbox.cif.g08.bks.cpg/sg15_54_cif.got.tgz:106899.got - 2010.06.03 18:47:42.
