data_PCOD9295210
_publ_section_title
;
Structure prediction by ZEFSAII (Michael W. Deem and Ramdas Pophale) SiO2 
 PCOD9295210
Probable space group: C 2/C
;
_chemical_formula_sum "Si O2"
_cell_formula_units_Z 40
_cell_length_a 11.369005
_cell_length_b 9.548481
_cell_length_c 16.717916
_cell_angle_alpha 90.000000
_cell_angle_beta 98.846194
_cell_angle_gamma 90.000000
_cell_volume 1793.254202
_symmetry_space_group_name_H-M "C 2/C"
_symmetry_group_IT_number 15
_symmetry_cell_setting 'monoclinic'
loop_
_space_group_symop_operation_xyz
x,y,z
-x,y,1/2-z
-x,-y,-z
x,-y,1/2+z
1/2+x,1/2+y,z
1/2-x,1/2+y,1/2-z
1/2-x,1/2-y,-z
1/2+x,1/2-y,1/2+z
loop_
_atom_site_type_symbol
_atom_site_label
_atom_site_fract_x
_atom_site_fract_y
_atom_site_fract_z
Si Si1 0.628073 0.942794 0.298144
Si Si2 0.283658 0.347060 0.078203
Si Si3 0.530840 0.462848 0.095814
Si Si4 0.328499 0.671734 0.292036
Si Si5 0.733863 0.099538 0.962905
O O1 0.500000 0.980960 0.250000
O O2 0.650567 0.779297 0.277562
O O3 0.625728 0.946820 0.395011
O O4 0.725344 0.053370 0.272729
O O5 0.424316 0.362944 0.111746
O O6 0.216023 0.278540 0.144037
O O7 0.250000 0.250000 0.000000
O O8 0.247073 0.497369 0.039758
O O9 0.556156 0.590196 0.159566
O O10 0.661815 0.405392 0.093425
O O11 0.500000 0.500000 0.000000
O O12 0.750000 0.250000 0.000000
#
# Coordination Sequence:
#
# PCOD9295210 Si02
#       5
#     8   8   8   8   8
#     4  11  27  44  66  98 140 169 223 276 335 404
#     4  11  20  42  71  92 128 173 224 270 328 391
#     4   9  19  38  67  91 128 164 217 271 324 391
#     4  11  25  45  63 100 133 178 218 276 339 395
#     4  10  23  42  66  98 129 171 228 274 324 398
#
# _framework density 22.305817000000001
#
# number of rings (size 3 to 8) (size 9 to 14) (size 15 to 20)
#    0.000    1.600    6.000    0.000    8.400    3.200 
#    0.000    2.000    0.000    0.000    0.000    0.000 
#    0.000    0.000    0.000    0.000    0.000    0.000 
#
# Total GULP energy -111456.652003 kJ/mol
# GULP energy per Si atom -5572.832600 kJ/mol
# Density = 2.225505 g / cm^3
# Si number density = 22.305817 Si / 1000 Ang^3
#
#
#
# Elastic Constant Matrix: (Units=GPa)
#
#
# Indices 1 2 3 4 5 6 
#
# 1 66.2185 25.2012 24.3267 0.0000 26.2028 0.0000
# 2 25.2012 133.9810 10.9717 0.0000 9.1084 0.0000
# 3 24.3267 10.9717 48.9011 0.0000 17.5504 0.0000
# 4 0.0000 0.0000 0.0000 52.3819 0.0000 5.1121
# 5 26.2028 9.1084 17.5504 0.0000 32.7678 0.0000
# 6 0.0000 0.0000 0.0000 5.1121 0.0000 43.5937
#
#
#
# Elastic Compliance Matrix: (Units=1/GPa)
#
#
# Indices 1 2 3 4 5 6 
#
# 1 0.024667 -0.003086 -0.005951 0.000000 -0.015679 0.000000
# 2 -0.003086 0.008048 -0.000437 0.000000 0.000465 0.000000
# 3 -0.005951 -0.000437 0.026934 0.000000 -0.009545 0.000000
# 4 0.000000 0.000000 0.000000 0.019312 0.000000 -0.002265
# 5 -0.015679 0.000465 -0.009545 0.000000 0.048039 0.000000
# 6 0.000000 0.000000 0.000000 -0.002265 0.000000 0.023205
#
#
# Mechanical properties :
#
#
# Convention : Reuss Voigt Hill
#
# Bulk Modulus (GPa) = 24.57043 41.12219 32.84631
# Shear Modulus (GPa) = 27.36416 38.32206 32.84311
#
# Velocity S-wave (km/s) = 3.50633 4.14941 3.84135
# Velocity P-wave (km/s) = 5.23752 6.43680 5.86788
#
# Compressibility (1/GPa) = 0.04069933
#
# Stress axis : x y z
#
# Youngs Moduli (GPa) = 40.54029 124.24702 37.12803
#
# Poissons Ratio (x) = 0.38348 0.22095
# Poissons Ratio (y) = 0.12512 0.01624
# Poissons Ratio (z) = 0.24126 0.05433
#
# Static dielectric constant tensor:
#      x y z
#    x 2.217610 0.000000 0.143940 
#    y 0.000000 1.679490 0.000000 
#    z 0.143940 0.000000 2.281200 
# 
# From -- ./inp_files/195113.got.cif
#   From: 2010.05.17/outbox.cif.g08.bks.cpg/sg15_98_cif.got.tgz:195113.got - 2010.06.03 18:47:42.
