data_PCOD9295861
_publ_section_title
;
Structure prediction by ZEFSAII (Michael W. Deem and Ramdas Pophale) SiO2 
 PCOD9295861
Probable space group: C 2/C
;
_chemical_formula_sum "Si O2"
_cell_formula_units_Z 52
_cell_length_a 17.672845
_cell_length_b 13.775570
_cell_length_c 30.670675
_cell_angle_alpha 90.000000
_cell_angle_beta 161.633625
_cell_angle_gamma 90.000000
_cell_volume 2352.756169
_symmetry_space_group_name_H-M "C 2/C"
_symmetry_group_IT_number 15
_symmetry_cell_setting 'monoclinic'
loop_
_space_group_symop_operation_xyz
x,y,z
-x,y,1/2-z
-x,-y,-z
x,-y,1/2+z
1/2+x,1/2+y,z
1/2-x,1/2+y,1/2-z
1/2-x,1/2-y,-z
1/2+x,1/2-y,1/2+z
loop_
_atom_site_type_symbol
_atom_site_label
_atom_site_fract_x
_atom_site_fract_y
_atom_site_fract_z
Si Si1 0.000000 0.151511 0.750000
Si Si2 0.500000 0.966116 0.750000
Si Si3 0.661146 0.857107 0.395449
Si Si4 0.000000 0.809914 0.750000
Si Si5 0.358846 0.016440 0.466408
Si Si6 0.838681 0.413099 0.291305
Si Si7 0.516685 0.256779 0.164600
Si Si8 0.822100 0.087524 0.351573
O O1 0.943768 0.215055 0.762351
O O2 0.812349 0.076447 0.625506
O O3 0.269438 0.917232 0.647904
O O4 0.409706 0.038697 0.663415
O O5 0.500070 0.768644 0.289138
O O6 0.575740 0.866604 0.398218
O O7 0.934235 0.853972 0.527307
O O8 0.212426 0.883532 0.879109
O O9 0.548035 0.023643 0.608375
O O10 0.500000 0.000000 0.500000
O O11 0.668841 0.332512 0.219426
O O12 0.686641 0.480686 0.174924
O O13 0.618536 0.149079 0.216504
O O14 0.250000 0.250000 0.000000
#
# Coordination Sequence:
#
# PCOD9295861 Si02
#       8
#     4   4   8   4   8   8   8   8
#     4  11  25  45  69 104 140 184 238 292 360 432
#     4   9  21  43  67 106 132 182 222 286 360 422
#     4  10  23  43  71 101 137 175 238 292 348 418
#     4  10  24  42  66 102 130 178 236 288 350 412
#     4  11  23  43  70  93 141 182 229 291 355 418
#     4  11  26  45  69 106 139 185 238 291 353 424
#     4  12  27  46  68 106 144 190 240 292 361 429
#     4  11  24  43  74  97 143 184 226 295 352 423
#
# _framework density 22.101737
#
# number of rings (size 3 to 8) (size 9 to 14) (size 15 to 20)
#    0.000    1.231    1.538    2.769    6.462    4.923 
#    5.538    0.000    0.000    0.000    0.000    0.000 
#    0.000    0.000    0.000    0.000    0.000    0.000 
#
# Total GULP energy -144853.051837 kJ/mol
# GULP energy per Si atom -5571.271225 kJ/mol
# Density = 2.205143 g / cm^3
# Si number density = 22.101737 Si / 1000 Ang^3
#
#
#
# Elastic Constant Matrix: (Units=GPa)
#
#
# Indices 1 2 3 4 5 6 
#
# 1 142.7972 37.3832 24.8540 -0.0026 2.7699 0.0018
# 2 37.3832 93.9148 3.9795 0.0033 1.3328 0.0024
# 3 24.8540 3.9795 70.1998 0.0229 5.2250 0.0123
# 4 -0.0026 0.0033 0.0229 16.1097 -0.0002 -2.1752
# 5 2.7699 1.3328 5.2250 -0.0002 26.9779 0.0009
# 6 0.0018 0.0024 0.0123 -2.1752 0.0009 1.9565
#
#
#
# Elastic Compliance Matrix: (Units=1/GPa)
#
#
# Indices 1 2 3 4 5 6 
#
# 1 0.008321 -0.003193 -0.002753 0.000009 -0.000163 0.000024
# 2 -0.003193 0.011904 0.000482 -0.000007 -0.000354 -0.000022
# 3 -0.002753 0.000482 0.015395 -0.000041 -0.002723 -0.000139
# 4 0.000009 -0.000007 -0.000041 0.073039 0.000005 0.081204
# 5 -0.000163 -0.000354 -0.002723 0.000005 0.037629 0.000007
# 6 0.000024 -0.000022 -0.000139 0.081204 0.000007 0.601397
#
#
# Mechanical properties :
#
#
# Convention : Reuss Voigt Hill
#
# Bulk Modulus (GPa) = 40.49945 48.81613 44.65779
# Shear Modulus (GPa) = 6.52023 25.05516 15.78770
#
# Velocity S-wave (km/s) = 1.71945 3.37059 2.67557
# Velocity P-wave (km/s) = 4.72291 6.10597 5.45842
#
# Compressibility (1/GPa) = 0.02469169
#
# Stress axis : x y z
#
# Youngs Moduli (GPa) = 120.17424 84.00781 64.95575
#
# Poissons Ratio (x) = 0.26827 0.17882
# Poissons Ratio (y) = 0.38376 -0.03132
# Poissons Ratio (z) = 0.33083 -0.04050
#
# Static dielectric constant tensor:
#      x y z
#    x 1.869860 -0.000020 0.025620 
#    y -0.000020 1.606620 0.000020 
#    z 0.025620 0.000020 1.791470 
# 
# From -- ./inp_files/162644.got.cif
#   From: 2010.05.17/outbox.cif.g08.bks.cpg/sg15_82_cif.got.tgz:162644.got - 2010.06.03 18:47:42.
