data_PCOD9295594
_publ_section_title
;
Structure prediction by ZEFSAII (Michael W. Deem and Ramdas Pophale) SiO2 
 PCOD9295594
Probable space group: C 2/C
;
_chemical_formula_sum "Si O2"
_cell_formula_units_Z 60
_cell_length_a 6.582863
_cell_length_b 26.703273
_cell_length_c 16.941169
_cell_angle_alpha 90.000000
_cell_angle_beta 89.435303
_cell_angle_gamma 90.000000
_cell_volume 2977.841610
_symmetry_space_group_name_H-M "C 2/C"
_symmetry_group_IT_number 15
_symmetry_cell_setting 'monoclinic'
loop_
_space_group_symop_operation_xyz
x,y,z
-x,y,1/2-z
-x,-y,-z
x,-y,1/2+z
1/2+x,1/2+y,z
1/2-x,1/2+y,1/2-z
1/2-x,1/2-y,-z
1/2+x,1/2-y,1/2+z
loop_
_atom_site_type_symbol
_atom_site_label
_atom_site_fract_x
_atom_site_fract_y
_atom_site_fract_z
Si Si1 0.490699 0.658854 0.668245
Si Si2 0.706508 0.775511 0.418171
Si Si3 0.115012 0.364332 0.073173
Si Si4 0.164523 0.036635 0.178458
Si Si5 0.971372 0.104694 0.460196
Si Si6 0.500000 0.110742 0.250000
Si Si7 0.739305 0.427839 0.111085
Si Si8 0.851263 0.175797 0.173891
O O1 0.500000 0.687204 0.750000
O O2 0.592376 0.693125 0.602501
O O3 0.268719 0.642788 0.644742
O O4 0.637713 0.610905 0.672919
O O5 0.750000 0.750000 0.500000
O O6 0.523271 0.814826 0.429558
O O7 0.669870 0.733698 0.351319
O O8 0.964524 0.410221 0.088944
O O9 0.260553 0.375428 0.998457
O O10 0.063249 0.060834 0.102011
O O11 0.346853 0.073737 0.203825
O O12 0.000000 0.033920 0.250000
O O13 0.234418 0.982096 0.149702
O O14 0.106211 0.083105 0.532128
O O15 0.066920 0.148095 0.405295
O O16 0.642737 0.147198 0.197284
O O17 0.000000 0.170376 0.250000
#
# Coordination Sequence:
#
# PCOD9295594 Si02
#       8
#     8   8   8   8   8   4   8   8
#     4  10  23  43  65  97 134 171 224 284 332 410
#     4  11  26  42  68 101 134 180 229 276 348 411
#     4  10  24  44  67  99 134 176 220 281 339 410
#     4  12  25  45  69 100 137 179 228 282 338 407
#     4  11  23  45  68  98 142 175 226 281 336 406
#     4  12  26  44  66 100 138 178 226 284 340 406
#     4  10  24  42  70  98 134 177 225 279 339 403
#     4  12  26  45  69 101 140 183 229 290 337 408
#
# _framework density 20.148821000000002
#
# number of rings (size 3 to 8) (size 9 to 14) (size 15 to 20)
#    0.000    1.067    2.667    3.200    6.533    7.467 
#    0.000    0.000    0.000    0.000    0.000    0.000 
#    0.000    0.000    0.000    0.000    0.000    0.000 
#
# Total GULP energy -167540.493560 kJ/mol
# GULP energy per Si atom -5584.683119 kJ/mol
# Density = 2.010296 g / cm^3
# Si number density = 20.148821 Si / 1000 Ang^3
#
#
#
# Elastic Constant Matrix: (Units=GPa)
#
#
# Indices 1 2 3 4 5 6 
#
# 1 137.8534 54.0133 63.5959 0.0000 -19.5264 0.0000
# 2 54.0133 128.5907 43.5542 0.0000 -19.4510 0.0000
# 3 63.5959 43.5542 124.5490 0.0000 -12.8778 0.0000
# 4 0.0000 0.0000 0.0000 26.6810 0.0000 3.5123
# 5 -19.5264 -19.4510 -12.8778 0.0000 15.7428 0.0000
# 6 0.0000 0.0000 0.0000 3.5123 0.0000 7.9902
#
#
#
# Elastic Compliance Matrix: (Units=1/GPa)
#
#
# Indices 1 2 3 4 5 6 
#
# 1 0.011074 -0.002076 -0.004122 0.000000 0.007799 0.000000
# 2 -0.002076 0.010608 -0.001705 0.000000 0.009138 0.000000
# 3 -0.004122 -0.001705 0.010906 0.000000 0.001702 0.000000
# 4 0.000000 0.000000 0.000000 0.039782 0.000000 -0.017487
# 5 0.007799 0.009138 0.001702 0.000000 0.085876 0.000000
# 6 0.000000 0.000000 0.000000 -0.017487 0.000000 0.132841
#
#
# Mechanical properties :
#
#
# Convention : Reuss Voigt Hill
#
# Bulk Modulus (GPa) = 59.58655 79.25774 69.42215
# Shear Modulus (GPa) = 16.00072 25.40479 20.70276
#
# Velocity S-wave (km/s) = 2.82108 3.55471 3.20893
# Velocity P-wave (km/s) = 6.34419 7.50130 6.94688
#
# Compressibility (1/GPa) = 0.01678231
#
# Stress axis : x y z
#
# Youngs Moduli (GPa) = 90.30457 94.26735 91.69300
#
# Poissons Ratio (x) = 0.19566 0.37797
# Poissons Ratio (y) = 0.18743 0.15634
# Poissons Ratio (z) = 0.37225 0.16073
#
# Static dielectric constant tensor:
#      x y z
#    x 1.744080 0.000000 -0.018330 
#    y 0.000000 1.725480 0.000000 
#    z -0.018330 0.000000 1.746080 
# 
# From -- ./inp_files/186197.got.cif
#   From: 2010.05.17/outbox.cif.g08.bks.cpg/sg15_94_cif.got.tgz:186197.got - 2010.06.03 18:47:42.
