data_PCOD9295836
_publ_section_title
;
Structure prediction by ZEFSAII (Michael W. Deem and Ramdas Pophale) SiO2 
 PCOD9295836
Probable space group: C 2/C
;
_chemical_formula_sum "Si O2"
_cell_formula_units_Z 60
_cell_length_a 26.061375
_cell_length_b 10.805207
_cell_length_c 11.135951
_cell_angle_alpha 90.000000
_cell_angle_beta 81.952663
_cell_angle_gamma 90.000000
_cell_volume 3104.987992
_symmetry_space_group_name_H-M "C 2/C"
_symmetry_group_IT_number 15
_symmetry_cell_setting 'monoclinic'
loop_
_space_group_symop_operation_xyz
x,y,z
-x,y,1/2-z
-x,-y,-z
x,-y,1/2+z
1/2+x,1/2+y,z
1/2-x,1/2+y,1/2-z
1/2-x,1/2-y,-z
1/2+x,1/2-y,1/2+z
loop_
_atom_site_type_symbol
_atom_site_label
_atom_site_fract_x
_atom_site_fract_y
_atom_site_fract_z
Si Si1 0.603227 0.244461 0.385507
Si Si2 0.697103 0.901998 0.957818
Si Si3 0.507747 0.853507 0.495179
Si Si4 0.197250 0.214637 0.175832
Si Si5 0.200115 0.696885 0.948829
Si Si6 0.096479 0.208452 0.606654
Si Si7 0.000000 0.223498 0.250000
Si Si8 0.401215 0.418073 0.893791
O O1 0.647678 0.145009 0.399175
O O2 0.547176 0.197662 0.443112
O O3 0.602293 0.273247 0.246524
O O4 0.611870 0.360617 0.471185
O O5 0.749963 0.854204 0.879433
O O6 0.698301 0.049062 0.964658
O O7 0.691941 0.831896 0.087444
O O8 0.551563 0.794792 0.566044
O O9 0.518143 0.806768 0.356226
O O10 0.500000 0.000000 0.500000
O O11 0.200756 0.263472 0.309564
O O12 0.148535 0.122731 0.169562
O O13 0.250000 0.750000 0.000000
O O14 0.149252 0.754131 0.024818
O O15 0.087822 0.062349 0.593049
O O16 0.952026 0.143346 0.316482
#
# Coordination Sequence:
#
# PCOD9295836 Si02
#       8
#     8   8   8   8   8   8   4   8
#     4  10  24  42  67  96 130 172 215 270 330 390
#     4  10  23  46  66  96 131 175 214 273 336 393
#     4  11  25  44  66  99 130 174 220 269 333 394
#     4  10  23  43  70  92 135 173 217 277 330 397
#     4  12  26  41  68 101 128 173 224 271 334 396
#     4  12  26  41  70  98 132 171 220 277 327 398
#     4  10  24  42  70  92 136 172 214 280 330 386
#     4  10  24  44  66  99 130 175 221 269 339 390
#
# _framework density 19.323746
#
# number of rings (size 3 to 8) (size 9 to 14) (size 15 to 20)
#    0.000    1.333    0.000    3.600   11.200    1.067 
#    0.000    0.000    0.000    0.000    0.000    0.000 
#    0.000    0.000    0.000    0.000    0.000    0.000 
#
# Total GULP energy -167707.760459 kJ/mol
# GULP energy per Si atom -5590.258682 kJ/mol
# Density = 1.927976 g / cm^3
# Si number density = 19.323746 Si / 1000 Ang^3
#
#
#
# Elastic Constant Matrix: (Units=GPa)
#
#
# Indices 1 2 3 4 5 6 
#
# 1 131.8761 53.7807 42.5471 0.0000 14.0650 0.0000
# 2 53.7807 163.5650 64.0081 0.0000 7.1370 0.0000
# 3 42.5471 64.0081 143.1340 0.0000 9.4909 0.0000
# 4 0.0000 0.0000 0.0000 7.9608 0.0000 -7.8771
# 5 14.0650 7.1370 9.4909 0.0000 30.5481 0.0000
# 6 0.0000 0.0000 0.0000 -7.8771 0.0000 18.3538
#
#
#
# Elastic Compliance Matrix: (Units=1/GPa)
#
#
# Indices 1 2 3 4 5 6 
#
# 1 0.009382 -0.002346 -0.001521 0.000000 -0.003299 0.000000
# 2 -0.002346 0.008012 -0.002893 0.000000 0.000107 0.000000
# 3 -0.001521 -0.002893 0.008823 0.000000 -0.001365 0.000000
# 4 0.000000 0.000000 0.000000 0.218334 0.000000 0.093705
# 5 -0.003299 0.000107 -0.001365 0.000000 0.034653 0.000000
# 6 0.000000 0.000000 0.000000 0.093705 0.000000 0.094701
#
#
# Mechanical properties :
#
#
# Convention : Reuss Voigt Hill
#
# Bulk Modulus (GPa) = 78.75303 84.36079 81.55691
# Shear Modulus (GPa) = 12.76626 29.92182 21.34404
#
# Velocity S-wave (km/s) = 2.57310 3.93930 3.32708
# Velocity P-wave (km/s) = 7.04775 8.02758 7.55357
#
# Compressibility (1/GPa) = 0.01269792
#
# Stress axis : x y z
#
# Youngs Moduli (GPa) = 106.58612 124.80558 113.34244
#
# Poissons Ratio (x) = 0.29275 0.17241
# Poissons Ratio (y) = 0.25001 0.32789
# Poissons Ratio (z) = 0.16213 0.36105
#
# Static dielectric constant tensor:
#      x y z
#    x 1.653800 0.000000 0.016440 
#    y 0.000000 1.708260 0.000000 
#    z 0.016440 0.000000 1.665450 
# 
# From -- ./inp_files/121960.got.cif
#   From: 2010.05.17/outbox.cif.g08.bks.cpg/sg15_61_cif.got.tgz:121960.got - 2010.06.03 18:47:42.
