data_PCOD9295955
_publ_section_title
;
Structure prediction by ZEFSAII (Michael W. Deem and Ramdas Pophale) SiO2 
 PCOD9295955
Probable space group: C 2/C
;
_chemical_formula_sum "Si O2"
_cell_formula_units_Z 40
_cell_length_a 10.098199
_cell_length_b 11.849691
_cell_length_c 22.219580
_cell_angle_alpha 90.000000
_cell_angle_beta 35.980784
_cell_angle_gamma 90.000000
_cell_volume 1562.085978
_symmetry_space_group_name_H-M "C 2/C"
_symmetry_group_IT_number 15
_symmetry_cell_setting 'monoclinic'
loop_
_space_group_symop_operation_xyz
x,y,z
-x,y,1/2-z
-x,-y,-z
x,-y,1/2+z
1/2+x,1/2+y,z
1/2-x,1/2+y,1/2-z
1/2-x,1/2-y,-z
1/2+x,1/2-y,1/2+z
loop_
_atom_site_type_symbol
_atom_site_label
_atom_site_fract_x
_atom_site_fract_y
_atom_site_fract_z
Si Si1 0.088535 0.970735 0.807759
Si Si2 0.291038 0.337400 0.396968
Si Si3 0.743885 0.916456 0.133574
Si Si4 0.585360 0.100928 0.102540
Si Si5 0.175428 0.303096 0.964976
O O1 0.317985 0.919066 0.697946
O O2 0.875999 0.888774 0.876011
O O3 0.139513 0.006316 0.858476
O O4 0.011368 0.088112 0.807522
O O5 0.366347 0.208135 0.372753
O O6 0.194018 0.374075 0.498348
O O7 0.071890 0.356296 0.436724
O O8 0.500000 0.886154 0.250000
O O9 0.852880 0.798641 0.073156
O O10 0.698446 0.993290 0.092284
O O11 0.250000 0.250000 0.000000
#
# Coordination Sequence:
#
# PCOD9295955 Si02
#       5
#     8   8   8   8   8
#     4  11  25  43  72 108 145 193 245 301 378 447
#     4  11  24  44  70 108 146 184 246 312 363 445
#     4  10  23  44  72 105 147 195 247 301 370 453
#     4  10  23  43  76 104 141 196 242 299 378 447
#     4  12  26  43  74 106 147 197 248 305 376 447
#
# _framework density 25.606786
#
# number of rings (size 3 to 8) (size 9 to 14) (size 15 to 20)
#    0.000    1.200    0.000    5.400    8.400    2.400 
#    0.000    2.000    4.400    0.000    0.000    0.000 
#    0.000    0.000    0.000    0.000    0.000    0.000 
#
# Total GULP energy -112196.914320 kJ/mol
# GULP energy per Si atom -5609.845716 kJ/mol
# Density = 2.554850 g / cm^3
# Si number density = 25.606786 Si / 1000 Ang^3
#
#
#
# Elastic Constant Matrix: (Units=GPa)
#
#
# Indices 1 2 3 4 5 6 
#
# 1 115.0026 10.4167 22.7394 0.0002 -20.6921 0.0000
# 2 10.4167 114.2651 31.8132 0.0002 -21.0334 -0.0001
# 3 22.7394 31.8132 127.8750 -0.0002 -40.2817 0.0001
# 4 0.0002 0.0002 -0.0002 40.2355 -0.0002 -23.1151
# 5 -20.6921 -21.0334 -40.2817 -0.0002 54.3712 -0.0001
# 6 0.0000 -0.0001 0.0001 -23.1151 -0.0001 8.7842
#
#
#
# Elastic Compliance Matrix: (Units=1/GPa)
#
#
# Indices 1 2 3 4 5 6 
#
# 1 0.009385 -0.000108 -0.000692 0.000000 0.003018 0.000000
# 2 -0.000108 0.009669 -0.001593 0.000000 0.002519 0.000000
# 3 -0.000692 -0.001593 0.010517 0.000000 0.006912 -0.000001
# 4 0.000000 0.000000 0.000000 -0.048567 0.000000 -0.127800
# 5 0.003018 0.002519 0.006912 0.000000 0.025636 -0.000001
# 6 0.000000 0.000000 -0.000001 -0.127800 -0.000001 -0.222457
#
#
# Mechanical properties :
#
#
# Convention : Reuss Voigt Hill
#
# Bulk Modulus (GPa) = 40.34399 54.12013 47.23206
# Shear Modulus (GPa) = -24.65829 40.15641 7.74906
#
# Velocity S-wave (km/s) = -3.10652 3.96434 1.74148
# Velocity P-wave (km/s) = 1.70941 6.49119 4.74646
#
# Compressibility (1/GPa) = 0.02478684
#
# Stress axis : x y z
#
# Youngs Moduli (GPa) = 106.55422 103.42807 95.08666
#
# Poissons Ratio (x) = 0.01112 0.06575
# Poissons Ratio (y) = 0.01146 0.15144
# Poissons Ratio (z) = 0.07368 0.16472
#
# Static dielectric constant tensor:
#      x y z
#    x 2.076650 0.000000 0.032400 
#    y 0.000000 1.986440 0.000000 
#    z 0.032400 0.000000 2.002280 
# 
# From -- ./inp_files/292367.got.cif
#   From: 2010.05.17/outbox.cif.g08.bks.cpg/sg15_147_cif.got.tgz:292367.got - 2010.06.03 18:47:42.
