data_PCOD9295728
_publ_section_title
;
Structure prediction by ZEFSAII (Michael W. Deem and Ramdas Pophale) SiO2 
 PCOD9295728
Probable space group: C 2/C
;
_chemical_formula_sum "Si O2"
_cell_formula_units_Z 64
_cell_length_a 8.714748
_cell_length_b 23.113470
_cell_length_c 14.553332
_cell_angle_alpha 90.000000
_cell_angle_beta 86.346353
_cell_angle_gamma 90.000000
_cell_volume 2925.491352
_symmetry_space_group_name_H-M "C 2/C"
_symmetry_group_IT_number 15
_symmetry_cell_setting 'monoclinic'
loop_
_space_group_symop_operation_xyz
x,y,z
-x,y,1/2-z
-x,-y,-z
x,-y,1/2+z
1/2+x,1/2+y,z
1/2-x,1/2+y,1/2-z
1/2-x,1/2-y,-z
1/2+x,1/2-y,1/2+z
loop_
_atom_site_type_symbol
_atom_site_label
_atom_site_fract_x
_atom_site_fract_y
_atom_site_fract_z
Si Si1 0.111693 0.840473 0.665272
Si Si2 0.557306 0.326705 0.352355
Si Si3 0.482008 0.593181 0.011300
Si Si4 0.491413 0.991119 0.145394
Si Si5 0.100230 0.705837 0.661986
Si Si6 0.080538 0.723952 0.020710
Si Si7 0.750545 0.500212 0.003328
Si Si8 0.034829 0.627955 0.349171
O O1 0.015227 0.853335 0.577170
O O2 0.139509 0.772879 0.683286
O O3 0.281184 0.866529 0.645613
O O4 0.000000 0.863843 0.750000
O O5 0.500000 0.323399 0.250000
O O6 0.488082 0.381646 0.408564
O O7 0.741748 0.328475 0.352494
O O8 0.507284 0.269856 0.411150
O O9 0.618226 0.547253 0.023453
O O10 0.329036 0.556941 0.034444
O O11 0.500000 0.969726 0.250000
O O12 0.627743 0.972209 0.072189
O O13 0.506205 0.060765 0.147939
O O14 0.335275 0.981928 0.094149
O O15 0.000000 0.682656 0.750000
O O16 0.003713 0.711304 0.572344
O O17 0.065225 0.663700 0.075167
O O18 0.250000 0.750000 0.000000
O O19 0.000000 0.652458 0.250000
#
# Coordination Sequence:
#
# PCOD9295728 Si02
#       8
#     8   8   8   8   8   8   8   8
#     4  11  23  39  67  97 129 169 218 269 323 381
#     4  12  25  43  63  95 135 175 217 259 324 401
#     4  11  24  43  66  94 127 170 220 270 328 384
#     4  10  23  43  68  94 128 165 217 272 335 384
#     4  11  24  43  64  95 135 173 216 265 316 387
#     4  12  25  39  65  95 134 173 211 262 322 391
#     4  10  24  44  67  94 126 165 221 279 327 389
#     4  11  24  39  65  98 129 167 215 268 320 389
#
# _framework density 21.876667000000001
#
# number of rings (size 3 to 8) (size 9 to 14) (size 15 to 20)
#    0.000    1.000    3.750    2.250    8.750    1.000 
#    0.000    3.125    0.000    0.000    0.000    0.000 
#    0.000    0.000    0.000    0.000    0.000    0.000 
#
# Total GULP energy -178895.723092 kJ/mol
# GULP energy per Si atom -5590.491347 kJ/mol
# Density = 2.182687 g / cm^3
# Si number density = 21.876667 Si / 1000 Ang^3
#
#
#
# Elastic Constant Matrix: (Units=GPa)
#
#
# Indices 1 2 3 4 5 6 
#
# 1 82.9379 11.4416 46.4275 0.0000 4.6669 0.0000
# 2 11.4416 28.7807 -13.6562 0.0000 -0.3958 0.0000
# 3 46.4275 -13.6562 129.6341 0.0000 20.9716 0.0000
# 4 0.0000 0.0000 0.0000 25.1020 0.0000 4.0525
# 5 4.6669 -0.3958 20.9716 0.0000 35.6953 0.0000
# 6 0.0000 0.0000 0.0000 4.0525 0.0000 -0.8696
#
#
#
# Elastic Compliance Matrix: (Units=1/GPa)
#
#
# Indices 1 2 3 4 5 6 
#
# 1 0.017833 -0.010797 -0.007876 0.000000 0.002176 0.000000
# 2 -0.010797 0.043247 0.008969 0.000000 -0.003378 0.000000
# 3 -0.007876 0.008969 0.012484 0.000000 -0.006205 0.000000
# 4 0.000000 0.000000 0.000000 0.022734 0.000000 0.105943
# 5 0.002176 -0.003378 -0.006205 0.000000 0.031338 0.000000
# 6 0.000000 0.000000 0.000000 0.105943 0.000000 -0.656236
#
#
# Mechanical properties :
#
#
# Convention : Reuss Voigt Hill
#
# Bulk Modulus (GPa) = 18.46522 36.64208 27.55365
# Shear Modulus (GPa) = -10.18038 25.12819 7.47390
#
# Velocity S-wave (km/s) = -2.15955 3.39282 1.85035
# Velocity P-wave (km/s) = 1.49691 5.66869 4.14577
#
# Compressibility (1/GPa) = 0.05415585
#
# Stress axis : x y z
#
# Youngs Moduli (GPa) = 56.07502 23.12302 80.10565
#
# Poissons Ratio (x) = 0.24965 0.63093
# Poissons Ratio (y) = 0.60543 -0.71848
# Poissons Ratio (z) = 0.44166 -0.20739
#
# Static dielectric constant tensor:
#      x y z
#    x 1.814350 0.000000 -0.007050 
#    y 0.000000 1.795320 0.000000 
#    z -0.007050 0.000000 1.820290 
# 
# From -- ./inp_files/137870.got.cif
#   From: 2010.05.17/outbox.cif.g08.bks.cpg/sg15_69_cif.got.tgz:137870.got - 2010.06.03 18:47:42.
