data_PCOD9295888
_publ_section_title
;
Structure prediction by ZEFSAII (Michael W. Deem and Ramdas Pophale) SiO2 
 PCOD9295888
Probable space group: C 2/C
;
_chemical_formula_sum "Si O2"
_cell_formula_units_Z 40
_cell_length_a 11.471892
_cell_length_b 14.937045
_cell_length_c 10.876188
_cell_angle_alpha 90.000000
_cell_angle_beta 63.183611
_cell_angle_gamma 90.000000
_cell_volume 1663.273445
_symmetry_space_group_name_H-M "C 2/C"
_symmetry_group_IT_number 15
_symmetry_cell_setting 'monoclinic'
loop_
_space_group_symop_operation_xyz
x,y,z
-x,y,1/2-z
-x,-y,-z
x,-y,1/2+z
1/2+x,1/2+y,z
1/2-x,1/2+y,1/2-z
1/2-x,1/2-y,-z
1/2+x,1/2-y,1/2+z
loop_
_atom_site_type_symbol
_atom_site_label
_atom_site_fract_x
_atom_site_fract_y
_atom_site_fract_z
Si Si1 0.630147 0.100727 0.248049
Si Si2 0.887590 0.042836 0.971271
Si Si3 0.649177 0.809301 0.210785
Si Si4 0.824219 0.795841 0.352286
Si Si5 0.227614 0.117691 0.094151
O O1 0.500000 0.062174 0.250000
O O2 0.757980 0.063758 0.115619
O O3 0.620137 0.209167 0.243466
O O4 0.649815 0.086613 0.382868
O O5 0.912874 0.133857 0.884632
O O6 0.858197 0.968726 0.883524
O O7 0.000000 0.000000 0.000000
O O8 0.500000 0.833501 0.250000
O O9 0.718174 0.837042 0.306312
O O10 0.659673 0.700665 0.196184
O O11 0.734507 0.847965 0.058619
O O12 0.750000 0.750000 0.500000
#
# Coordination Sequence:
#
# PCOD9295888 Si02
#       5
#     8   8   8   8   8
#     4  10  24  46  69 101 145 189 241 301 363 443
#     4  11  26  43  72 104 144 187 245 304 360 428
#     4  10  23  43  71  98 144 192 240 296 363 442
#     4   9  22  43  68 103 137 195 236 290 364 435
#     4  10  25  42  66 106 138 187 243 300 364 430
#
# _framework density 24.048963000000001
#
# number of rings (size 3 to 8) (size 9 to 14) (size 15 to 20)
#    0.000    2.000    0.000    0.000   16.800    4.800 
#    0.000    0.000    0.000    0.000    0.000    0.000 
#    0.000    0.000    0.000    0.000    0.000    0.000 
#
# Total GULP energy -111695.011889 kJ/mol
# GULP energy per Si atom -5584.750594 kJ/mol
# Density = 2.399423 g / cm^3
# Si number density = 24.048963 Si / 1000 Ang^3
#
#
#
# Elastic Constant Matrix: (Units=GPa)
#
#
# Indices 1 2 3 4 5 6 
#
# 1 184.2404 30.3320 43.3384 0.0000 35.8879 0.0000
# 2 30.3320 120.0805 3.4445 0.0000 5.2254 0.0000
# 3 43.3384 3.4445 78.9483 0.0000 28.3450 0.0000
# 4 0.0000 0.0000 0.0000 19.0614 0.0000 12.7693
# 5 35.8879 5.2254 28.3450 0.0000 50.1728 0.0000
# 6 0.0000 0.0000 0.0000 12.7693 0.0000 32.8608
#
#
#
# Elastic Compliance Matrix: (Units=1/GPa)
#
#
# Indices 1 2 3 4 5 6 
#
# 1 0.006931 -0.001532 -0.002528 0.000000 -0.003370 0.000000
# 2 -0.001532 0.008704 0.000493 0.000000 -0.000090 0.000000
# 3 -0.002528 0.000493 0.016812 0.000000 -0.007741 0.000000
# 4 0.000000 0.000000 0.000000 0.070925 0.000000 -0.027561
# 5 -0.003370 -0.000090 -0.007741 0.000000 0.026724 0.000000
# 6 0.000000 0.000000 0.000000 -0.027561 0.000000 0.041141
#
#
# Mechanical properties :
#
#
# Convention : Reuss Voigt Hill
#
# Bulk Modulus (GPa) = 39.50301 59.72212 49.61257
# Shear Modulus (GPa) = 26.76541 40.82930 33.79735
#
# Velocity S-wave (km/s) = 3.33972 4.12485 3.75287
# Velocity P-wave (km/s) = 5.59762 6.89734 6.28119
#
# Compressibility (1/GPa) = 0.02531453
#
# Stress axis : x y z
#
# Youngs Moduli (GPa) = 144.28136 114.88484 59.48136
#
# Poissons Ratio (x) = 0.17595 0.15037
# Poissons Ratio (y) = 0.22098 -0.02933
# Poissons Ratio (z) = 0.36474 -0.05666
#
# Static dielectric constant tensor:
#      x y z
#    x 1.849490 0.000000 -0.109250 
#    y 0.000000 2.104680 0.000000 
#    z -0.109250 0.000000 1.881800 
# 
# From -- ./inp_files/85944.got.cif
#   From: 2010.05.17/outbox.cif.g08.bks.cpg/sg15_43_cif.got.tgz:85944.got - 2010.06.03 18:47:42.
