data_PCOD9295502
_publ_section_title
;
Structure prediction by ZEFSAII (Michael W. Deem and Ramdas Pophale) SiO2 
 PCOD9295502
Probable space group: C 2/C
;
_chemical_formula_sum "Si O2"
_cell_formula_units_Z 52
_cell_length_a 17.051068
_cell_length_b 13.922469
_cell_length_c 12.744645
_cell_angle_alpha 90.000000
_cell_angle_beta 117.019393
_cell_angle_gamma 90.000000
_cell_volume 2695.265443
_symmetry_space_group_name_H-M "C 2/C"
_symmetry_group_IT_number 15
_symmetry_cell_setting 'monoclinic'
loop_
_space_group_symop_operation_xyz
x,y,z
-x,y,1/2-z
-x,-y,-z
x,-y,1/2+z
1/2+x,1/2+y,z
1/2-x,1/2+y,1/2-z
1/2-x,1/2-y,-z
1/2+x,1/2-y,1/2+z
loop_
_atom_site_type_symbol
_atom_site_label
_atom_site_fract_x
_atom_site_fract_y
_atom_site_fract_z
Si Si1 0.080509 0.621086 0.986825
Si Si2 0.500000 0.403798 0.750000
Si Si3 0.756038 0.645464 0.952067
Si Si4 0.096883 0.838258 0.010934
Si Si5 0.579941 0.591162 0.728816
Si Si6 0.613002 0.067426 0.634594
Si Si7 0.223804 0.548545 0.909308
O O1 0.149504 0.592280 0.939671
O O2 0.978977 0.615653 0.888374
O O3 0.104105 0.726334 0.041303
O O4 0.090531 0.539284 0.080614
O O5 0.464864 0.347503 0.628567
O O6 0.574451 0.477870 0.752884
O O7 0.671928 0.631282 0.825270
O O8 0.842238 0.627211 0.932812
O O9 0.750000 0.750000 0.000000
O O10 0.755628 0.559228 0.037535
O O11 0.064495 0.890962 0.096834
O O12 0.188591 0.887780 0.035964
O O13 0.500000 0.633529 0.750000
O O14 0.682795 0.054786 0.769198
#
# Coordination Sequence:
#
# PCOD9295502 Si02
#       7
#     8   4   8   8   8   8   8
#     4  10  25  42  63  98 126 174 214 259 325 382
#     4  10  24  40  66  94 132 174 206 276 328 378
#     4  11  24  42  65  98 125 169 218 262 323 383
#     4  12  23  43  68  97 129 171 219 271 325 385
#     4  10  23  43  60  95 134 168 216 263 329 381
#     4  10  23  44  63  92 135 170 210 265 318 384
#     4  11  22  43  67  93 133 163 216 272 314 388
#
# _framework density 19.293089999999999
#
# number of rings (size 3 to 8) (size 9 to 14) (size 15 to 20)
#    0.462    0.923    3.077    1.385    6.462    0.000 
#    0.000    0.000    0.000    0.000    0.000    0.000 
#    0.000    0.000    0.000    0.000    0.000    0.000 
#
# Total GULP energy -145105.755559 kJ/mol
# GULP energy per Si atom -5580.990598 kJ/mol
# Density = 1.924918 g / cm^3
# Si number density = 19.293090 Si / 1000 Ang^3
#
#
#
# Elastic Constant Matrix: (Units=GPa)
#
#
# Indices 1 2 3 4 5 6 
#
# 1 108.1796 37.3150 28.2205 0.0000 -0.0728 0.0000
# 2 37.3150 85.4765 5.1168 0.0000 -10.5062 0.0000
# 3 28.2205 5.1168 85.5190 0.0000 2.0545 0.0000
# 4 0.0000 0.0000 0.0000 14.8143 0.0000 0.5248
# 5 -0.0728 -10.5062 2.0545 0.0000 28.7742 0.0000
# 6 0.0000 0.0000 0.0000 0.5248 0.0000 8.4400
#
#
#
# Elastic Compliance Matrix: (Units=1/GPa)
#
#
# Indices 1 2 3 4 5 6 
#
# 1 0.011981 -0.005213 -0.003603 0.000000 -0.001616 0.000000
# 2 -0.005213 0.014578 0.000722 0.000000 0.005258 0.000000
# 3 -0.003603 0.000722 0.012855 0.000000 -0.000663 0.000000
# 4 0.000000 0.000000 0.000000 0.067652 0.000000 -0.004206
# 5 -0.001616 0.005258 -0.000663 0.000000 0.036716 0.000000
# 6 0.000000 0.000000 0.000000 -0.004206 0.000000 0.118745
#
#
# Mechanical properties :
#
#
# Convention : Reuss Voigt Hill
#
# Bulk Modulus (GPa) = 43.05652 46.71996 44.88824
# Shear Modulus (GPa) = 17.45459 24.30721 20.88090
#
# Velocity S-wave (km/s) = 3.01110 3.55335 3.29340
# Velocity P-wave (km/s) = 5.86979 6.41120 6.14646
#
# Compressibility (1/GPa) = 0.02322529
#
# Stress axis : x y z
#
# Youngs Moduli (GPa) = 83.46623 68.59623 77.79091
#
# Poissons Ratio (x) = 0.35761 0.28027
# Poissons Ratio (y) = 0.43513 -0.05615
# Poissons Ratio (z) = 0.30072 -0.04951
#
# Static dielectric constant tensor:
#      x y z
#    x 1.681760 0.000000 0.002450 
#    y 0.000000 1.650800 0.000000 
#    z 0.002450 0.000000 1.667270 
# 
# From -- ./inp_files/105463.got.cif
#   From: 2010.05.17/outbox.cif.g08.bks.cpg/sg15_53_cif.got.tgz:105463.got - 2010.06.03 18:47:42.
