data_PCOD9295914
_publ_section_title
;
Structure prediction by ZEFSAII (Michael W. Deem and Ramdas Pophale) SiO2 
 PCOD9295914
Probable space group: C 2/C
;
_chemical_formula_sum "Si O2"
_cell_formula_units_Z 48
_cell_length_a 12.841874
_cell_length_b 26.747762
_cell_length_c 8.904098
_cell_angle_alpha 90.000000
_cell_angle_beta 126.076984
_cell_angle_gamma 90.000000
_cell_volume 2471.945394
_symmetry_space_group_name_H-M "C 2/C"
_symmetry_group_IT_number 15
_symmetry_cell_setting 'monoclinic'
loop_
_space_group_symop_operation_xyz
x,y,z
-x,y,1/2-z
-x,-y,-z
x,-y,1/2+z
1/2+x,1/2+y,z
1/2-x,1/2+y,1/2-z
1/2-x,1/2-y,-z
1/2+x,1/2-y,1/2+z
loop_
_atom_site_type_symbol
_atom_site_label
_atom_site_fract_x
_atom_site_fract_y
_atom_site_fract_z
Si Si1 0.500000 0.621624 0.750000
Si Si2 0.615343 0.540519 0.625440
Si Si3 0.848109 0.897225 0.621806
Si Si4 0.824548 0.538043 0.350065
Si Si5 0.127033 0.780821 0.449668
Si Si6 0.000000 0.499396 0.750000
Si Si7 0.641282 0.719027 0.322779
O O1 0.553224 0.585276 0.667205
O O2 0.387723 0.660080 0.603040
O O3 0.500000 0.500000 0.500000
O O4 0.687815 0.567381 0.547922
O O5 0.727742 0.508330 0.796019
O O6 0.765935 0.914753 0.694564
O O7 0.839248 0.837951 0.604046
O O8 0.000000 0.908545 0.750000
O O9 0.892849 0.533142 0.247274
O O10 0.935241 0.533495 0.568080
O O11 0.250000 0.750000 0.500000
O O12 0.134662 0.778392 0.636544
O O13 0.000000 0.760696 0.250000
O O14 0.500000 0.736584 0.250000
O O15 0.750000 0.750000 0.500000
#
# Coordination Sequence:
#
# PCOD9295914 Si02
#       7
#     4   8   8   8   8   4   8
#     4  10  24  38  68 103 140 175 222 284 366 404
#     4  12  22  37  67 105 133 173 220 288 339 401
#     4  11  22  38  68 100 132 163 226 289 338 398
#     4  11  22  40  63  89 135 176 224 262 333 407
#     4  10  23  43  72  98 139 175 227 290 355 415
#     4  10  24  40  56  83 132 189 210 258 318 406
#     4  11  24  44  72  99 134 177 229 291 354 415
#
# _framework density 19.417902999999999
#
# number of rings (size 3 to 8) (size 9 to 14) (size 15 to 20)
#    0.500    0.667    3.333    4.000    2.333    0.000 
#    1.500    0.000   14.667    0.000    0.000    0.000 
#    0.000    0.000    0.000    0.000    0.000    0.000 
#
# Total GULP energy -133701.623671 kJ/mol
# GULP energy per Si atom -5570.900986 kJ/mol
# Density = 1.937371 g / cm^3
# Si number density = 19.417903 Si / 1000 Ang^3
#
#
#
# Elastic Constant Matrix: (Units=GPa)
#
#
# Indices 1 2 3 4 5 6 
#
# 1 125.5497 51.1870 29.7131 0.0000 -3.3650 0.0000
# 2 51.1870 73.7086 49.1188 0.0000 10.3054 0.0000
# 3 29.7131 49.1188 113.8621 0.0000 4.1110 0.0000
# 4 0.0000 0.0000 0.0000 27.9900 0.0000 -5.1038
# 5 -3.3650 10.3054 4.1110 0.0000 37.1223 0.0000
# 6 0.0000 0.0000 0.0000 -5.1038 0.0000 18.9773
#
#
#
# Elastic Compliance Matrix: (Units=1/GPa)
#
#
# Indices 1 2 3 4 5 6 
#
# 1 0.011552 -0.009002 0.000744 0.000000 0.003464 0.000000
# 2 -0.009002 0.026798 -0.008949 0.000000 -0.007264 0.000000
# 3 0.000744 -0.008949 0.012406 0.000000 0.001178 0.000000
# 4 0.000000 0.000000 0.000000 0.037569 0.000000 0.010104
# 5 0.003464 -0.007264 0.001178 0.000000 0.029138 0.000000
# 6 0.000000 0.000000 0.000000 0.010104 0.000000 0.055412
#
#
# Mechanical properties :
#
#
# Convention : Reuss Voigt Hill
#
# Bulk Modulus (GPa) = 61.19353 63.68426 62.43889
# Shear Modulus (GPa) = 23.50324 29.02470 26.26397
#
# Velocity S-wave (km/s) = 3.48284 3.87038 3.68171
# Velocity P-wave (km/s) = 6.91057 7.26918 7.09214
#
# Compressibility (1/GPa) = 0.01634160
#
# Stress axis : x y z
#
# Youngs Moduli (GPa) = 86.56480 37.31689 80.60446
#
# Poissons Ratio (x) = 0.33594 -0.05996
# Poissons Ratio (y) = 0.77928 0.72130
# Poissons Ratio (z) = -0.06439 0.33394
#
# Static dielectric constant tensor:
#      x y z
#    x 1.733530 0.000000 -0.021730 
#    y 0.000000 1.659920 0.000000 
#    z -0.021730 0.000000 1.848940 
# 
# From -- ./inp_files/33826.got.cif
#   From: 2010.05.17/outbox.cif.g08.bks.cpg/sg15_17_cif.got.tgz:33826.got - 2010.06.03 18:47:42.
