data_PCOD9295343
_publ_section_title
;
Structure prediction by ZEFSAII (Michael W. Deem and Ramdas Pophale) SiO2 
 PCOD9295343
Probable space group: C 2/C
;
_chemical_formula_sum "Si O2"
_cell_formula_units_Z 40
_cell_length_a 21.141875
_cell_length_b 5.099713
_cell_length_c 14.698510
_cell_angle_alpha 90.000000
_cell_angle_beta 105.325123
_cell_angle_gamma 90.000000
_cell_volume 1528.405155
_symmetry_space_group_name_H-M "C 2/C"
_symmetry_group_IT_number 15
_symmetry_cell_setting 'monoclinic'
loop_
_space_group_symop_operation_xyz
x,y,z
-x,y,1/2-z
-x,-y,-z
x,-y,1/2+z
1/2+x,1/2+y,z
1/2-x,1/2+y,1/2-z
1/2-x,1/2-y,-z
1/2+x,1/2-y,1/2+z
loop_
_atom_site_type_symbol
_atom_site_label
_atom_site_fract_x
_atom_site_fract_y
_atom_site_fract_z
Si Si1 0.406679 0.118851 0.781282
Si Si2 0.881890 0.924211 0.009188
Si Si3 0.313652 0.284856 0.337649
Si Si4 0.696630 0.505063 0.850507
Si Si5 0.049332 0.553084 0.896419
O O1 0.367501 0.932586 0.834233
O O2 0.477061 0.168664 0.852789
O O3 0.425371 0.968253 0.694348
O O4 0.364402 0.354293 0.721301
O O5 0.826947 0.865972 0.065478
O O6 0.908802 0.210017 0.046873
O O7 0.938044 0.705477 0.039096
O O8 0.849112 0.970346 0.899270
O O9 0.281059 0.315138 0.225361
O O10 0.257464 0.189840 0.385069
#
# Coordination Sequence:
#
# PCOD9295343 Si02
#       5
#     8   8   8   8   8
#     4  10  23  42  69  93 136 182 222 278 337 400
#     4  11  26  44  70 101 135 176 225 283 335 398
#     4  12  24  42  71  96 135 181 225 277 339 402
#     4  11  24  46  65 103 135 180 226 281 336 404
#     4  10  24  45  67  99 136 177 225 280 337 395
#
# _framework density 26.17107
#
# number of rings (size 3 to 8) (size 9 to 14) (size 15 to 20)
#    0.000    1.200    4.000    0.600    5.600    3.200 
#    0.000    4.000    0.000    0.000    0.000    0.000 
#    0.000    0.000    0.000    0.000    0.000    0.000 
#
# Total GULP energy -111900.751099 kJ/mol
# GULP energy per Si atom -5595.037555 kJ/mol
# Density = 2.611150 g / cm^3
# Si number density = 26.171070 Si / 1000 Ang^3
#
#
#
# Elastic Constant Matrix: (Units=GPa)
#
#
# Indices 1 2 3 4 5 6 
#
# 1 81.4870 2.9844 20.0126 0.0000 10.7591 0.0000
# 2 2.9844 61.3915 6.2457 0.0000 7.0247 0.0000
# 3 20.0126 6.2457 119.0125 0.0000 -9.5828 0.0000
# 4 0.0000 0.0000 0.0000 42.9253 0.0000 8.0512
# 5 10.7591 7.0247 -9.5828 0.0000 37.3926 0.0000
# 6 0.0000 0.0000 0.0000 8.0512 0.0000 31.2100
#
#
#
# Elastic Compliance Matrix: (Units=1/GPa)
#
#
# Indices 1 2 3 4 5 6 
#
# 1 0.013525 0.000138 -0.002652 0.000000 -0.004597 0.000000
# 2 0.000138 0.016804 -0.001187 0.000000 -0.003501 0.000000
# 3 -0.002652 -0.001187 0.009179 0.000000 0.003338 0.000000
# 4 0.000000 0.000000 0.000000 0.024481 0.000000 -0.006315
# 5 -0.004597 -0.003501 0.003338 0.000000 0.029579 0.000000
# 6 0.000000 0.000000 0.000000 -0.006315 0.000000 0.033670
#
#
# Mechanical properties :
#
#
# Convention : Reuss Voigt Hill
#
# Bulk Modulus (GPa) = 31.14557 35.59737 33.37147
# Shear Modulus (GPa) = 34.40176 37.81548 36.10862
#
# Velocity S-wave (km/s) = 3.62953 3.80535 3.71848
# Velocity P-wave (km/s) = 5.43059 5.73925 5.58705
#
# Compressibility (1/GPa) = 0.03210730
#
# Stress axis : x y z
#
# Youngs Moduli (GPa) = 73.93676 59.51133 108.93857
#
# Poissons Ratio (x) = -0.00823 0.28888
# Poissons Ratio (y) = -0.01023 0.12931
# Poissons Ratio (z) = 0.19606 0.07064
#
# Static dielectric constant tensor:
#      x y z
#    x 2.084920 0.000000 -0.035350 
#    y 0.000000 2.078860 0.000000 
#    z -0.035350 0.000000 2.035560 
# 
# From -- ./inp_files/170593.got.cif
#   From: 2010.05.17/outbox.cif.g08.bks.cpg/sg15_86_cif.got.tgz:170593.got - 2010.06.03 18:47:42.
