data_PCOD9295051
_publ_section_title
;
Structure prediction by ZEFSAII (Michael W. Deem and Ramdas Pophale) SiO2 
 PCOD9295051
Probable space group: C 2/C
;
_chemical_formula_sum "Si O2"
_cell_formula_units_Z 40
_cell_length_a 7.721996
_cell_length_b 23.573956
_cell_length_c 9.216330
_cell_angle_alpha 90.000000
_cell_angle_beta 92.211178
_cell_angle_gamma 90.000000
_cell_volume 1676.473006
_symmetry_space_group_name_H-M "C 2/C"
_symmetry_group_IT_number 15
_symmetry_cell_setting 'monoclinic'
loop_
_space_group_symop_operation_xyz
x,y,z
-x,y,1/2-z
-x,-y,-z
x,-y,1/2+z
1/2+x,1/2+y,z
1/2-x,1/2+y,1/2-z
1/2-x,1/2-y,-z
1/2+x,1/2-y,1/2+z
loop_
_atom_site_type_symbol
_atom_site_label
_atom_site_fract_x
_atom_site_fract_y
_atom_site_fract_z
Si Si1 0.232892 0.750177 0.255969
Si Si2 0.736186 0.950484 0.895868
Si Si3 0.172594 0.553932 0.066951
Si Si4 0.193932 0.322548 0.495513
Si Si5 0.392212 0.667545 0.498785
O O1 0.127616 0.710755 0.135802
O O2 0.315457 0.704957 0.365941
O O3 0.155323 0.799685 0.354401
O O4 0.349290 0.784620 0.143747
O O5 0.527759 0.958561 0.901496
O O6 0.768993 0.941568 0.725711
O O7 0.813142 0.895640 0.980984
O O8 0.782483 0.010069 0.973546
O O9 0.139620 0.613271 0.985869
O O10 0.401652 0.330041 0.510302
#
# Coordination Sequence:
#
# PCOD9295051 Si02
#       5
#     8   8   8   8   8
#     4  10  24  40  60  94 132 162 200 260 318 372
#     4  10  23  42  63  90 126 165 208 258 313 371
#     4  10  23  42  63  90 126 165 208 258 313 371
#     4  11  23  42  66  94 126 165 213 259 310 373
#     4  11  23  42  66  94 126 165 213 259 310 373
#
# _framework density 23.859613
#
# number of rings (size 3 to 8) (size 9 to 14) (size 15 to 20)
#    0.000    1.600    2.000    1.200    2.800   10.400 
#    0.000    0.000    0.000    0.000    0.000    0.000 
#    0.000    0.000    0.000    0.000    0.000    0.000 
#
# Total GULP energy -111634.730080 kJ/mol
# GULP energy per Si atom -5581.736504 kJ/mol
# Density = 2.380531 g / cm^3
# Si number density = 23.859613 Si / 1000 Ang^3
#
#
#
# Elastic Constant Matrix: (Units=GPa)
#
#
# Indices 1 2 3 4 5 6 
#
# 1 37.0134 -11.4319 11.2756 0.0000 4.3512 0.0000
# 2 -11.4319 163.2308 42.4724 0.0000 -7.1583 0.0000
# 3 11.2756 42.4724 103.0615 0.0000 -8.0101 0.0000
# 4 0.0000 0.0000 0.0000 26.1948 0.0000 3.0763
# 5 4.3512 -7.1583 -8.0101 0.0000 27.1170 0.0000
# 6 0.0000 0.0000 0.0000 3.0763 0.0000 23.0301
#
#
#
# Elastic Compliance Matrix: (Units=1/GPa)
#
#
# Indices 1 2 3 4 5 6 
#
# 1 0.030182 0.003185 -0.005041 0.000000 -0.005491 0.000000
# 2 0.003185 0.007225 -0.003293 0.000000 0.000423 0.000000
# 3 -0.005041 -0.003293 0.011880 0.000000 0.003449 0.000000
# 4 0.000000 0.000000 0.000000 0.038784 0.000000 -0.005181
# 5 -0.005491 0.000423 0.003449 0.000000 0.038889 0.000000
# 6 0.000000 0.000000 0.000000 -0.005181 0.000000 0.044114
#
#
# Mechanical properties :
#
#
# Convention : Reuss Voigt Hill
#
# Bulk Modulus (GPa) = 25.64926 43.10423 34.37674
# Shear Modulus (GPa) = 25.72443 32.66769 29.19606
#
# Velocity S-wave (km/s) = 3.28709 3.70423 3.50188
# Velocity P-wave (km/s) = 5.01797 6.03325 5.54888
#
# Compressibility (1/GPa) = 0.03898748
#
# Stress axis : x y z
#
# Youngs Moduli (GPa) = 33.13204 138.41377 84.17807
#
# Poissons Ratio (x) = -0.44082 0.42438
# Poissons Ratio (y) = -0.10552 0.27719
# Poissons Ratio (z) = 0.16703 0.45578
#
# Static dielectric constant tensor:
#      x y z
#    x 2.066620 0.000000 0.067070 
#    y 0.000000 1.954670 0.000000 
#    z 0.067070 0.000000 1.952770 
# 
# From -- ./inp_files/23764.got.cif
#   From: 2010.05.17/outbox.cif.g08.bks.cpg/sg15_12_cif.got.tgz:23764.got - 2010.06.03 18:47:42.
