data_PCOD9295011
_publ_section_title
;
Structure prediction by ZEFSAII (Michael W. Deem and Ramdas Pophale) SiO2 
 PCOD9295011
Probable space group: C 2/C
;
_chemical_formula_sum "Si O2"
_cell_formula_units_Z 48
_cell_length_a 11.607186
_cell_length_b 23.350952
_cell_length_c 8.745168
_cell_angle_alpha 90.000000
_cell_angle_beta 62.712919
_cell_angle_gamma 90.000000
_cell_volume 2106.516919
_symmetry_space_group_name_H-M "C 2/C"
_symmetry_group_IT_number 15
_symmetry_cell_setting 'monoclinic'
loop_
_space_group_symop_operation_xyz
x,y,z
-x,y,1/2-z
-x,-y,-z
x,-y,1/2+z
1/2+x,1/2+y,z
1/2-x,1/2+y,1/2-z
1/2-x,1/2-y,-z
1/2+x,1/2-y,1/2+z
loop_
_atom_site_type_symbol
_atom_site_label
_atom_site_fract_x
_atom_site_fract_y
_atom_site_fract_z
Si Si1 0.805387 0.140451 0.318506
Si Si2 0.734296 0.535811 0.605677
Si Si3 0.500000 0.258760 0.750000
Si Si4 0.218543 0.839724 0.987331
Si Si5 0.851936 0.559036 0.863483
Si Si6 0.000000 0.951140 0.750000
Si Si7 0.555723 0.766348 0.547378
O O1 0.722855 0.152375 0.218185
O O2 0.724760 0.108120 0.496791
O O3 0.918927 0.094761 0.198308
O O4 0.875647 0.198660 0.324519
O O5 0.702836 0.598036 0.563346
O O6 0.773397 0.544495 0.757351
O O7 0.851355 0.500633 0.457973
O O8 0.613417 0.494805 0.637468
O O9 0.506760 0.226168 0.582671
O O10 0.311921 0.802810 0.037766
O O11 0.092025 0.801159 0.036576
O O12 0.000000 0.576922 0.750000
O O13 0.500000 0.779525 0.750000
#
# Coordination Sequence:
#
# PCOD9295011 Si02
#       7
#     8   8   4   8   8   4   8
#     4   9  20  40  65  95 137 166 216 283 340 397
#     4  11  23  38  64  93 134 169 224 277 330 405
#     4   9  20  42  72  98 132 168 226 299 340 386
#     4  10  23  42  60  96 129 170 221 278 340 396
#     4  11  24  40  60  96 134 183 220 260 332 424
#     4   9  20  36  64 102 124 166 214 273 342 392
#     4  10  23  43  66  93 131 175 226 283 338 396
#
# _framework density 22.786429999999999
#
# number of rings (size 3 to 8) (size 9 to 14) (size 15 to 20)
#    0.000    2.000    0.000    2.500    3.500    9.333 
#    4.500    2.500    0.000    0.000    0.000    0.000 
#    0.000    0.000    0.000    0.000    0.000    0.000 
#
# Total GULP energy -133783.085507 kJ/mol
# GULP energy per Si atom -5574.295229 kJ/mol
# Density = 2.273457 g / cm^3
# Si number density = 22.786430 Si / 1000 Ang^3
#
#
#
# Elastic Constant Matrix: (Units=GPa)
#
#
# Indices 1 2 3 4 5 6 
#
# 1 82.0832 33.9201 55.7849 0.0000 19.4767 0.0000
# 2 33.9201 52.1770 9.2608 0.0000 15.6067 0.0000
# 3 55.7849 9.2608 100.8344 0.0000 34.0046 0.0000
# 4 0.0000 0.0000 0.0000 6.2589 0.0000 17.6918
# 5 19.4767 15.6067 34.0046 0.0000 40.0265 0.0000
# 6 0.0000 0.0000 0.0000 17.6918 0.0000 13.6187
#
#
#
# Elastic Compliance Matrix: (Units=1/GPa)
#
#
# Indices 1 2 3 4 5 6 
#
# 1 0.029860 -0.018557 -0.017316 0.000000 0.007417 0.000000
# 2 -0.018557 0.033333 0.011973 0.000000 -0.014139 0.000000
# 3 -0.017316 0.011973 0.024009 0.000000 -0.016639 0.000000
# 4 0.000000 0.000000 0.000000 -0.059793 0.000000 0.077677
# 5 0.007417 -0.014139 -0.016639 0.000000 0.041023 0.000000
# 6 0.000000 0.000000 0.000000 0.077677 0.000000 -0.027480
#
#
# Mechanical properties :
#
#
# Convention : Reuss Voigt Hill
#
# Bulk Modulus (GPa) = 25.37967 48.11399 36.74683
# Shear Modulus (GPa) = 49.07456 21.05606 35.06531
#
# Velocity S-wave (km/s) = 4.64580 3.04314 3.92710
# Velocity P-wave (km/s) = 6.31983 5.78866 6.06007
#
# Compressibility (1/GPa) = 0.03940162
#
# Stress axis : x y z
#
# Youngs Moduli (GPa) = 33.48997 30.00000 41.65129
#
# Poissons Ratio (x) = 0.55670 0.72125
# Poissons Ratio (y) = 0.62147 -0.49869
# Poissons Ratio (z) = 0.57992 -0.35919
#
# Static dielectric constant tensor:
#      x y z
#    x 1.883480 0.000000 -0.053240 
#    y 0.000000 1.819980 0.000000 
#    z -0.053240 0.000000 1.918230 
# 
# From -- ./inp_files/32600.got.cif
#   From: 2010.05.17/outbox.cif.g08.bks.cpg/sg15_17_cif.got.tgz:32600.got - 2010.06.03 18:47:42.
