data_PCOD9295114
_publ_section_title
;
Structure prediction by ZEFSAII (Michael W. Deem and Ramdas Pophale) SiO2 
 PCOD9295114
Probable space group: C 2/C
;
_chemical_formula_sum "Si O2"
_cell_formula_units_Z 32
_cell_length_a 10.487801
_cell_length_b 10.110110
_cell_length_c 34.233949
_cell_angle_alpha 90.000000
_cell_angle_beta 156.124185
_cell_angle_gamma 90.000000
_cell_volume 1469.231477
_symmetry_space_group_name_H-M "C 2/C"
_symmetry_group_IT_number 15
_symmetry_cell_setting 'monoclinic'
loop_
_space_group_symop_operation_xyz
x,y,z
-x,y,1/2-z
-x,-y,-z
x,-y,1/2+z
1/2+x,1/2+y,z
1/2-x,1/2+y,1/2-z
1/2-x,1/2-y,-z
1/2+x,1/2-y,1/2+z
loop_
_atom_site_type_symbol
_atom_site_label
_atom_site_fract_x
_atom_site_fract_y
_atom_site_fract_z
Si Si1 0.447284 0.951413 0.091694
Si Si2 0.185828 0.711504 0.267481
Si Si3 0.653756 0.102937 0.073045
Si Si4 0.165582 0.824384 0.564120
O O1 0.674788 0.841463 0.172965
O O2 0.585959 0.041758 0.096350
O O3 0.337851 0.047808 0.095502
O O4 0.125586 0.872715 0.990591
O O5 0.478304 0.630640 0.331791
O O6 0.000000 0.635559 0.250000
O O7 0.928612 0.749495 0.162918
O O8 0.477212 0.239452 0.011529
O O9 0.500000 0.000000 0.000000
#
# Coordination Sequence:
#
# PCOD9295114 Si02
#       4
#     8   8   8   8
#     4  10  23  44  67  94 139 174 218 283 328 392
#     4  11  24  40  66  98 130 175 225 271 329 398
#     4  11  23  41  68  96 132 179 216 272 338 391
#     4  10  23  42  65 100 134 172 226 271 330 400
#
# _framework density 21.780093999999998
#
# number of rings (size 3 to 8) (size 9 to 14) (size 15 to 20)
#    0.000    1.500    0.000    3.750    7.000    4.000 
#    0.000    0.000    0.000    0.000    0.000    0.000 
#    0.000    0.000    0.000    0.000    0.000    0.000 
#
# Total GULP energy -89436.546319 kJ/mol
# GULP energy per Si atom -5589.784145 kJ/mol
# Density = 2.173052 g / cm^3
# Si number density = 21.780094 Si / 1000 Ang^3
#
#
#
# Elastic Constant Matrix: (Units=GPa)
#
#
# Indices 1 2 3 4 5 6 
#
# 1 140.1911 45.0473 69.2810 0.0000 29.0004 0.0000
# 2 45.0473 77.0108 39.8541 0.0001 19.7896 0.0001
# 3 69.2810 39.8541 168.3203 -0.0002 22.6634 0.0002
# 4 0.0000 0.0001 -0.0002 17.9583 0.0002 -0.9673
# 5 29.0004 19.7896 22.6634 0.0002 30.2824 0.0001
# 6 0.0000 0.0001 0.0002 -0.9673 0.0001 52.6259
#
#
#
# Elastic Compliance Matrix: (Units=1/GPa)
#
#
# Indices 1 2 3 4 5 6 
#
# 1 0.010879 -0.003308 -0.002872 0.000000 -0.006107 0.000000
# 2 -0.003308 0.017691 -0.001887 0.000000 -0.006981 0.000000
# 3 -0.002872 -0.001887 0.007822 0.000000 -0.001870 0.000000
# 4 0.000000 0.000000 0.000000 0.055740 -0.000001 0.001025
# 5 -0.006107 -0.006981 -0.001870 -0.000001 0.044832 0.000000
# 6 0.000000 0.000000 0.000000 0.001025 0.000000 0.019021
#
#
# Mechanical properties :
#
#
# Convention : Reuss Voigt Hill
#
# Bulk Modulus (GPa) = 49.36656 77.09857 63.23256
# Shear Modulus (GPa) = 27.95310 35.59596 31.77453
#
# Velocity S-wave (km/s) = 3.58638 4.04708 3.82367
# Velocity P-wave (km/s) = 6.31384 7.57060 6.97060
#
# Compressibility (1/GPa) = 0.02025663
#
# Stress axis : x y z
#
# Youngs Moduli (GPa) = 91.92240 56.52718 127.84580
#
# Poissons Ratio (x) = 0.18698 0.36721
# Poissons Ratio (y) = 0.30406 0.24128
# Poissons Ratio (z) = 0.26402 0.10668
#
# Static dielectric constant tensor:
#      x y z
#    x 1.823020 0.000000 0.003270 
#    y 0.000000 1.813830 0.000000 
#    z 0.003270 0.000000 1.822760 
# 
# From -- ./inp_files/140773.got.cif
#   From: 2010.05.17/outbox.cif.g08.bks.cpg/sg15_71_cif.got.tgz:140773.got - 2010.06.03 18:47:42.
