data_PCOD9295963
_publ_section_title
;
Structure prediction by ZEFSAII (Michael W. Deem and Ramdas Pophale) SiO2 
 PCOD9295963
Probable space group: C 2/C
;
_chemical_formula_sum "Si O2"
_cell_formula_units_Z 28
_cell_length_a 7.777276
_cell_length_b 26.421159
_cell_length_c 5.390973
_cell_angle_alpha 90.000000
_cell_angle_beta 100.806033
_cell_angle_gamma 90.000000
_cell_volume 1088.118801
_symmetry_space_group_name_H-M "C 2/C"
_symmetry_group_IT_number 15
_symmetry_cell_setting 'monoclinic'
loop_
_space_group_symop_operation_xyz
x,y,z
-x,y,1/2-z
-x,-y,-z
x,-y,1/2+z
1/2+x,1/2+y,z
1/2-x,1/2+y,1/2-z
1/2-x,1/2-y,-z
1/2+x,1/2-y,1/2+z
loop_
_atom_site_type_symbol
_atom_site_label
_atom_site_fract_x
_atom_site_fract_y
_atom_site_fract_z
Si Si1 0.500000 0.867416 0.750000
Si Si2 0.171541 0.126264 0.462673
Si Si3 0.211397 0.530553 0.783608
Si Si4 0.667678 0.211173 0.669744
O O1 0.666599 0.892186 0.668787
O O2 0.417342 0.833010 0.515541
O O3 0.183041 0.082994 0.671907
O O4 0.213112 0.180991 0.599617
O O5 0.000000 0.128313 0.250000
O O6 0.253322 0.503380 0.535901
O O7 0.000000 0.539376 0.750000
O O8 0.500000 0.236694 0.750000
O O9 0.750000 0.250000 0.500000
#
# Coordination Sequence:
#
# PCOD9295963 Si02
#       4
#     4   8   8   8
#     4  10  24  44  72 100 150 190 250 308 390 454
#     4  11  26  46  73 111 152 202 253 321 388 470
#     4  10  23  43  77 112 156 206 259 320 392 468
#     4  10  24  47  75 106 149 198 256 323 390 470
#
# _framework density 25.732482999999998
#
# number of rings (size 3 to 8) (size 9 to 14) (size 15 to 20)
#    0.000    1.714    0.000    2.571   10.000   10.286 
#    0.000    7.143    0.000    0.000    0.000    0.000 
#    0.000    0.000    0.000    0.000    0.000    0.000 
#
# Total GULP energy -78440.330594 kJ/mol
# GULP energy per Si atom -5602.880757 kJ/mol
# Density = 2.567392 g / cm^3
# Si number density = 25.732483 Si / 1000 Ang^3
#
#
#
# Elastic Constant Matrix: (Units=GPa)
#
#
# Indices 1 2 3 4 5 6 
#
# 1 127.6435 83.7970 83.2633 0.0000 6.3223 0.0000
# 2 83.7970 131.6806 72.9139 0.0000 20.0488 0.0000
# 3 83.2633 72.9139 163.9884 0.0000 20.3149 0.0000
# 4 0.0000 0.0000 0.0000 56.4118 0.0000 21.3221
# 5 6.3223 20.0488 20.3149 0.0000 59.3555 0.0000
# 6 0.0000 0.0000 0.0000 21.3221 0.0000 5.2074
#
#
#
# Elastic Compliance Matrix: (Units=1/GPa)
#
#
# Indices 1 2 3 4 5 6 
#
# 1 0.016179 -0.007921 -0.005024 0.000000 0.002672 0.000000
# 2 -0.007921 0.014174 -0.001871 0.000000 -0.003303 0.000000
# 3 -0.005024 -0.001871 0.009750 0.000000 -0.002170 0.000000
# 4 0.000000 0.000000 0.000000 -0.032369 0.000000 0.132539
# 5 0.002672 -0.003303 -0.002170 0.000000 0.018422 0.000000
# 6 0.000000 0.000000 0.000000 0.132539 0.000000 -0.350658
#
#
# Mechanical properties :
#
#
# Convention : Reuss Voigt Hill
#
# Bulk Modulus (GPa) = 95.50405 100.36230 97.93317
# Shear Modulus (GPa) = -17.15961 36.41749 9.62894
#
# Velocity S-wave (km/s) = -2.58514 3.76604 1.93651
# Velocity P-wave (km/s) = 5.31829 7.61562 6.56817
#
# Compressibility (1/GPa) = 0.01047076
#
# Stress axis : x y z
#
# Youngs Moduli (GPa) = 61.80845 70.55357 102.56881
#
# Poissons Ratio (x) = 0.55883 0.51530
# Poissons Ratio (y) = 0.48957 0.19192
# Poissons Ratio (z) = 0.31052 0.13201
#
# Static dielectric constant tensor:
#      x y z
#    x 2.137740 0.000000 -0.155590 
#    y 0.000000 2.002770 0.000000 
#    z -0.155590 0.000000 2.095240 
# 
# From -- ./inp_files/2019.got.cif
#   From: 2010.05.17/outbox.cif.g08.bks.cpg/sg15_2_cif.got.tgz:2019.got - 2010.06.03 18:47:42.
