data_PCOD9295396
_publ_section_title
;
Structure prediction by ZEFSAII (Michael W. Deem and Ramdas Pophale) SiO2 
 PCOD9295396
Probable space group: C 2/C
;
_chemical_formula_sum "Si O2"
_cell_formula_units_Z 64
_cell_length_a 13.799603
_cell_length_b 31.984321
_cell_length_c 9.245356
_cell_angle_alpha 90.000000
_cell_angle_beta 49.015653
_cell_angle_gamma 90.000000
_cell_volume 3080.422876
_symmetry_space_group_name_H-M "C 2/C"
_symmetry_group_IT_number 15
_symmetry_cell_setting 'monoclinic'
loop_
_space_group_symop_operation_xyz
x,y,z
-x,y,1/2-z
-x,-y,-z
x,-y,1/2+z
1/2+x,1/2+y,z
1/2-x,1/2+y,1/2-z
1/2-x,1/2-y,-z
1/2+x,1/2-y,1/2+z
loop_
_atom_site_type_symbol
_atom_site_label
_atom_site_fract_x
_atom_site_fract_y
_atom_site_fract_z
Si Si1 0.814358 0.586058 0.822241
Si Si2 0.283764 0.001079 0.195005
Si Si3 0.232259 0.131310 0.454032
Si Si4 0.369413 0.234036 0.785334
Si Si5 0.729366 0.337695 0.265707
Si Si6 0.903035 0.586056 0.054875
Si Si7 0.961772 0.797038 0.449678
Si Si8 0.858205 0.039412 0.927492
O O1 0.798510 0.539297 0.781069
O O2 0.711368 0.617581 0.858789
O O3 0.952768 0.598872 0.621754
O O4 0.822151 0.589608 0.986400
O O5 0.244476 0.983037 0.077782
O O6 0.395859 0.035934 0.092607
O O7 0.169525 0.027443 0.380240
O O8 0.278714 0.153499 0.555077
O O9 0.341747 0.113858 0.240600
O O10 0.135113 0.163974 0.475912
O O11 0.158178 0.089079 0.573025
O O12 0.500000 0.232002 0.750000
O O13 0.326854 0.189478 0.764076
O O14 0.397175 0.263925 0.620304
O O15 0.250000 0.250000 0.000000
O O16 0.595184 0.313419 0.385488
O O17 0.000000 0.781471 0.250000
O O18 0.000000 0.025932 0.750000
#
# Coordination Sequence:
#
# PCOD9295396 Si02
#       8
#     8   8   8   8   8   8   8   8
#     4  11  23  41  63  91 132 177 231 279 338 404
#     4  11  21  40  60  89 131 172 225 275 339 395
#     4  10  23  42  70  96 136 176 227 282 341 405
#     4  12  27  49  76 107 143 182 227 286 355 433
#     4  11  24  45  69 103 133 177 223 281 344 410
#     4  10  24  41  60  96 130 182 228 281 332 403
#     4  10  24  48  73 103 140 182 225 286 352 420
#     4  11  21  38  60  93 129 172 221 276 331 400
#
# _framework density 20.776367
#
# number of rings (size 3 to 8) (size 9 to 14) (size 15 to 20)
#    0.000    1.250    3.750    1.875    3.500    2.500 
#    2.250    0.000    0.000    0.000    0.000    0.000 
#    0.000    0.000    0.000    0.000    0.000    0.000 
#
# Total GULP energy -178700.219437 kJ/mol
# GULP energy per Si atom -5584.381857 kJ/mol
# Density = 2.072908 g / cm^3
# Si number density = 20.776367 Si / 1000 Ang^3
#
#
#
# Elastic Constant Matrix: (Units=GPa)
#
#
# Indices 1 2 3 4 5 6 
#
# 1 58.6224 22.1600 12.9960 0.0000 5.9193 0.0000
# 2 22.1600 90.5410 39.2366 0.0000 9.3608 0.0000
# 3 12.9960 39.2366 94.2071 0.0000 4.4814 0.0000
# 4 0.0000 0.0000 0.0000 34.8657 0.0000 13.3426
# 5 5.9193 9.3608 4.4814 0.0000 19.0073 0.0000
# 6 0.0000 0.0000 0.0000 13.3426 0.0000 17.0682
#
#
#
# Elastic Compliance Matrix: (Units=1/GPa)
#
#
# Indices 1 2 3 4 5 6 
#
# 1 0.019110 -0.003927 -0.000819 0.000000 -0.003824 0.000000
# 2 -0.003927 0.014850 -0.005414 0.000000 -0.004814 0.000000
# 3 -0.000819 -0.005414 0.012990 0.000000 -0.000141 0.000000
# 4 0.000000 0.000000 0.000000 0.040924 0.000000 -0.031992
# 5 -0.003824 -0.004814 -0.000141 0.000000 0.056206 0.000000
# 6 0.000000 0.000000 0.000000 -0.031992 0.000000 0.083597
#
#
# Mechanical properties :
#
#
# Convention : Reuss Voigt Hill
#
# Bulk Modulus (GPa) = 37.55187 43.57287 40.56237
# Shear Modulus (GPa) = 19.46477 25.45342 22.45910
#
# Velocity S-wave (km/s) = 3.06416 3.50396 3.29141
# Velocity P-wave (km/s) = 5.53464 6.11459 5.83183
#
# Compressibility (1/GPa) = 0.02662983
#
# Stress axis : x y z
#
# Youngs Moduli (GPa) = 52.32729 67.34083 76.98514
#
# Poissons Ratio (x) = 0.26445 0.06303
# Poissons Ratio (y) = 0.20550 0.41681
# Poissons Ratio (z) = 0.04284 0.36459
#
# Static dielectric constant tensor:
#      x y z
#    x 1.741930 0.000000 0.009020 
#    y 0.000000 1.742610 0.000000 
#    z 0.009020 0.000000 1.745140 
# 
# From -- ./inp_files/44847.got.cif
#   From: 2010.05.17/outbox.cif.g08.bks.cpg/sg15_23_cif.got.tgz:44847.got - 2010.06.03 18:47:42.
