data_PCOD9295867
_publ_section_title
;
Structure prediction by ZEFSAII (Michael W. Deem and Ramdas Pophale) SiO2 
 PCOD9295867
Probable space group: C 2/C
;
_chemical_formula_sum "Si O2"
_cell_formula_units_Z 52
_cell_length_a 15.515697
_cell_length_b 8.744381
_cell_length_c 15.161210
_cell_angle_alpha 90.000000
_cell_angle_beta 102.724382
_cell_angle_gamma 90.000000
_cell_volume 2006.481625
_symmetry_space_group_name_H-M "C 2/C"
_symmetry_group_IT_number 15
_symmetry_cell_setting 'monoclinic'
loop_
_space_group_symop_operation_xyz
x,y,z
-x,y,1/2-z
-x,-y,-z
x,-y,1/2+z
1/2+x,1/2+y,z
1/2-x,1/2+y,1/2-z
1/2-x,1/2-y,-z
1/2+x,1/2-y,1/2+z
loop_
_atom_site_type_symbol
_atom_site_label
_atom_site_fract_x
_atom_site_fract_y
_atom_site_fract_z
Si Si1 0.192172 0.855372 0.425202
Si Si2 0.729656 0.418295 0.247174
Si Si3 0.054109 0.222294 0.417723
Si Si4 0.481817 0.696174 0.899391
Si Si5 0.283504 0.313530 0.633987
Si Si6 0.437907 0.973668 0.322672
Si Si7 0.000000 0.002106 0.250000
O O1 0.250000 0.750000 0.500000
O O2 0.206691 0.813360 0.326472
O O3 0.088381 0.829231 0.421340
O O4 0.226032 0.033590 0.429872
O O5 0.694224 0.587912 0.269583
O O6 0.717627 0.315842 0.156680
O O7 0.836535 0.447124 0.275225
O O8 0.051996 0.148087 0.512533
O O9 0.148382 0.285735 0.409786
O O10 0.974209 0.339283 0.392900
O O11 0.447076 0.607540 0.804702
O O12 0.455475 0.870579 0.878172
O O13 0.457313 0.390781 0.667428
O O14 0.500000 0.972629 0.250000
#
# Coordination Sequence:
#
# PCOD9295867 Si02
#       7
#     8   8   8   8   8   8   4
#     4  10  24  45  71 104 147 194 243 303 379 438
#     4  10  23  43  71 103 145 193 245 301 378 440
#     4  12  24  46  71 110 150 194 248 315 372 451
#     4  12  27  44  75 114 147 199 258 308 380 457
#     4  10  23  43  73 106 143 197 244 303 377 445
#     4  12  24  44  76 104 152 194 246 314 378 443
#     4  12  22  40  70 106 148 186 248 310 374 430
#
# _framework density 25.916011999999998
#
# number of rings (size 3 to 8) (size 9 to 14) (size 15 to 20)
#    0.923    0.000    4.615    1.846    2.154    1.231 
#    0.000    0.769    0.000    0.000    0.000    0.000 
#    0.000    0.000    0.000    0.000    0.000    0.000 
#
# Total GULP energy -145014.700787 kJ/mol
# GULP energy per Si atom -5577.488492 kJ/mol
# Density = 2.585703 g / cm^3
# Si number density = 25.916012 Si / 1000 Ang^3
#
#
#
# Elastic Constant Matrix: (Units=GPa)
#
#
# Indices 1 2 3 4 5 6 
#
# 1 100.8311 37.3716 69.7440 0.0000 -22.2436 0.0000
# 2 37.3716 103.7003 37.8480 0.0000 8.8550 0.0000
# 3 69.7440 37.8480 180.2223 0.0000 -25.9250 0.0000
# 4 0.0000 0.0000 0.0000 35.2948 0.0000 -3.6677
# 5 -22.2436 8.8550 -25.9250 0.0000 58.5745 0.0000
# 6 0.0000 0.0000 0.0000 -3.6677 0.0000 37.5952
#
#
#
# Elastic Compliance Matrix: (Units=1/GPa)
#
#
# Indices 1 2 3 4 5 6 
#
# 1 0.015667 -0.004411 -0.004469 0.000000 0.004638 0.000000
# 2 -0.004411 0.012109 -0.001431 0.000000 -0.004139 0.000000
# 3 -0.004469 -0.001431 0.007867 0.000000 0.002001 0.000000
# 4 0.000000 0.000000 0.000000 0.028623 0.000000 0.002792
# 5 0.004638 -0.004139 0.002001 0.000000 0.020345 0.000000
# 6 0.000000 0.000000 0.000000 0.002792 0.000000 0.026872
#
#
# Mechanical properties :
#
#
# Convention : Reuss Voigt Hill
#
# Bulk Modulus (GPa) = 66.58211 74.96453 70.77332
# Shear Modulus (GPa) = 36.46657 42.27888 39.37273
#
# Velocity S-wave (km/s) = 3.75521 4.04342 3.90198
# Velocity P-wave (km/s) = 6.67453 7.12655 6.90424
#
# Compressibility (1/GPa) = 0.01501905
#
# Stress axis : x y z
#
# Youngs Moduli (GPa) = 63.82794 82.58571 127.11729
#
# Poissons Ratio (x) = 0.36428 0.56815
# Poissons Ratio (y) = 0.28154 0.18195
# Poissons Ratio (z) = 0.28528 0.11821
#
# Static dielectric constant tensor:
#      x y z
#    x 2.339350 0.000000 0.070750 
#    y 0.000000 2.077130 0.000000 
#    z 0.070750 0.000000 2.013340 
# 
# From -- ./inp_files/203574.got.cif
#   From: 2010.05.17/outbox.cif.g08.bks.cpg/sg15_102_cif.got.tgz:203574.got - 2010.06.03 18:47:42.
