data_PCOD9295944
_publ_section_title
;
Structure prediction by ZEFSAII (Michael W. Deem and Ramdas Pophale) SiO2 
 PCOD9295944
Probable space group: C 2/C
;
_chemical_formula_sum "Si O2"
_cell_formula_units_Z 56
_cell_length_a 11.717567
_cell_length_b 8.559312
_cell_length_c 26.768939
_cell_angle_alpha 90.000000
_cell_angle_beta 112.888380
_cell_angle_gamma 90.000000
_cell_volume 2473.384898
_symmetry_space_group_name_H-M "C 2/C"
_symmetry_group_IT_number 15
_symmetry_cell_setting 'monoclinic'
loop_
_space_group_symop_operation_xyz
x,y,z
-x,y,1/2-z
-x,-y,-z
x,-y,1/2+z
1/2+x,1/2+y,z
1/2-x,1/2+y,1/2-z
1/2-x,1/2-y,-z
1/2+x,1/2-y,1/2+z
loop_
_atom_site_type_symbol
_atom_site_label
_atom_site_fract_x
_atom_site_fract_y
_atom_site_fract_z
Si Si1 0.110864 0.335491 0.859682
Si Si2 0.277959 0.433178 0.451291
Si Si3 0.437232 0.606188 0.887802
Si Si4 0.971849 0.366926 0.317191
Si Si5 0.272659 0.936084 0.351736
Si Si6 0.698801 0.754180 0.299248
Si Si7 0.839033 0.902985 0.572778
O O1 0.211288 0.431274 0.908734
O O2 0.178422 0.208935 0.836427
O O3 0.024878 0.245012 0.884247
O O4 0.027010 0.460422 0.816544
O O5 0.397385 0.388213 0.438585
O O6 0.190824 0.279805 0.437194
O O7 0.310202 0.474372 0.513247
O O8 0.310422 0.633335 0.835369
O O9 0.519800 0.453675 0.891566
O O10 0.909157 0.378012 0.360749
O O11 0.863232 0.311164 0.261990
O O12 0.089354 0.262230 0.322019
O O13 0.242387 0.075027 0.307543
O O14 0.251595 0.018805 0.401653
#
# Coordination Sequence:
#
# PCOD9295944 Si02
#       7
#     8   8   8   8   8   8   8
#     4  11  24  43  71 101 137 173 235 278 348 409
#     4  11  22  45  68 105 138 185 226 282 340 420
#     4  11  22  45  66  99 142 175 226 291 328 420
#     4  11  24  47  68  96 133 182 227 289 336 417
#     4  11  24  47  68 101 136 181 224 291 341 413
#     4  11  24  47  68  94 137 178 233 276 354 406
#     4  10  23  43  75 100 140 183 231 276 355 400
#
# _framework density 22.64104
#
# number of rings (size 3 to 8) (size 9 to 14) (size 15 to 20)
#    0.000    1.143    4.286    0.429    0.000    8.000 
#   12.857    7.857    0.000    0.000    0.000    0.000 
#    0.000    0.000    0.000    0.000    0.000    0.000 
#
# Total GULP energy -156485.179282 kJ/mol
# GULP energy per Si atom -5588.756403 kJ/mol
# Density = 2.258951 g / cm^3
# Si number density = 22.641040 Si / 1000 Ang^3
#
#
#
# Elastic Constant Matrix: (Units=GPa)
#
#
# Indices 1 2 3 4 5 6 
#
# 1 142.7647 39.9443 20.1944 0.0000 -3.1764 0.0000
# 2 39.9443 106.0636 19.4068 0.0000 11.1853 0.0000
# 3 20.1944 19.4068 58.6810 0.0000 6.3183 0.0000
# 4 0.0000 0.0000 0.0000 24.8970 0.0000 2.4073
# 5 -3.1764 11.1853 6.3183 0.0000 24.3446 0.0000
# 6 0.0000 0.0000 0.0000 2.4073 0.0000 38.8605
#
#
#
# Elastic Compliance Matrix: (Units=1/GPa)
#
#
# Indices 1 2 3 4 5 6 
#
# 1 0.008222 -0.003020 -0.002156 0.000000 0.003020 0.000000
# 2 -0.003020 0.011510 -0.002217 0.000000 -0.005107 0.000000
# 3 -0.002156 -0.002217 0.018967 0.000000 -0.004185 0.000000
# 4 0.000000 0.000000 0.000000 0.040407 0.000000 -0.002503
# 5 0.003020 -0.005107 -0.004185 0.000000 0.044904 0.000000
# 6 0.000000 0.000000 0.000000 -0.002503 0.000000 0.025888
#
#
# Mechanical properties :
#
#
# Convention : Reuss Voigt Hill
#
# Bulk Modulus (GPa) = 41.81969 51.84448 46.83208
# Shear Modulus (GPa) = 28.95939 32.81799 30.88869
#
# Velocity S-wave (km/s) = 3.58028 3.81135 3.69762
# Velocity P-wave (km/s) = 5.96675 6.50513 6.24174
#
# Compressibility (1/GPa) = 0.02391218
#
# Stress axis : x y z
#
# Youngs Moduli (GPa) = 121.62879 86.88022 52.72302
#
# Poissons Ratio (x) = 0.26241 0.11365
# Poissons Ratio (y) = 0.36737 0.11690
# Poissons Ratio (z) = 0.26219 0.19264
#
# Static dielectric constant tensor:
#      x y z
#    x 1.835730 0.000000 -0.005850 
#    y 0.000000 1.873210 0.000000 
#    z -0.005850 0.000000 1.869090 
# 
# From -- ./inp_files/291626.got.cif
#   From: 2010.05.17/outbox.cif.g08.bks.cpg/sg15_146_cif.got.tgz:291626.got - 2010.06.03 18:47:42.
