data_PCOD9295992
_publ_section_title
;
Structure prediction by ZEFSAII (Michael W. Deem and Ramdas Pophale) SiO2 
 PCOD9295992
Probable space group: C 2/C
;
_chemical_formula_sum "Si O2"
_cell_formula_units_Z 52
_cell_length_a 21.243477
_cell_length_b 23.390176
_cell_length_c 4.911650
_cell_angle_alpha 90.000000
_cell_angle_beta 76.134418
_cell_angle_gamma 90.000000
_cell_volume 2369.427283
_symmetry_space_group_name_H-M "C 2/C"
_symmetry_group_IT_number 15
_symmetry_cell_setting 'monoclinic'
loop_
_space_group_symop_operation_xyz
x,y,z
-x,y,1/2-z
-x,-y,-z
x,-y,1/2+z
1/2+x,1/2+y,z
1/2-x,1/2+y,1/2-z
1/2-x,1/2-y,-z
1/2+x,1/2-y,1/2+z
loop_
_atom_site_type_symbol
_atom_site_label
_atom_site_fract_x
_atom_site_fract_y
_atom_site_fract_z
Si Si1 0.802350 0.393852 0.893690
Si Si2 0.675389 0.766262 0.636901
Si Si3 0.089510 0.038431 0.897341
Si Si4 0.284614 0.401641 0.992635
Si Si5 0.375093 0.702133 0.293831
Si Si6 0.500000 0.632338 0.250000
Si Si7 0.431661 0.038154 0.250051
O O1 0.762173 0.384740 0.211717
O O2 0.822809 0.331304 0.767374
O O3 0.758761 0.425542 0.709726
O O4 0.867539 0.427706 0.882823
O O5 0.750000 0.750000 0.500000
O O6 0.637956 0.753674 0.397231
O O7 0.640677 0.725598 0.890711
O O8 0.160169 0.060211 0.920963
O O9 0.040345 0.089613 0.014231
O O10 0.080318 0.983202 0.101057
O O11 0.322476 0.348647 0.814149
O O12 0.444825 0.673182 0.183058
O O13 0.500000 0.067805 0.250000
O O14 0.431102 0.981606 0.439069
#
# Coordination Sequence:
#
# PCOD9295992 Si02
#       7
#     8   8   8   8   8   4   8
#     4  12  23  38  66  95 120 160 204 255 314 380
#     4  12  22  40  68  90 129 160 207 259 321 369
#     4  11  24  41  63  92 129 170 219 269 305 364
#     4  11  22  37  61  92 125 159 207 257 312 367
#     4  11  23  42  61  92 126 173 209 255 308 378
#     4  10  26  44  66  88 132 182 220 250 324 376
#     4  10  23  44  64  85 120 160 196 246 314 380
#
# _framework density 21.94623
#
# number of rings (size 3 to 8) (size 9 to 14) (size 15 to 20)
#    0.000    0.923    3.077    3.692    0.000    9.231 
#    2.769    0.000    0.000    0.000    0.000    0.000 
#    0.000    0.000    0.000    0.000    0.000    0.000 
#
# Total GULP energy -145406.634987 kJ/mol
# GULP energy per Si atom -5592.562884 kJ/mol
# Density = 2.189628 g / cm^3
# Si number density = 21.946230 Si / 1000 Ang^3
#
#
#
# Elastic Constant Matrix: (Units=GPa)
#
#
# Indices 1 2 3 4 5 6 
#
# 1 152.8373 39.0126 26.7452 0.0000 -17.8458 0.0000
# 2 39.0126 44.8986 -1.1343 0.0000 -14.7317 0.0000
# 3 26.7452 -1.1343 52.5522 0.0000 5.9157 0.0000
# 4 0.0000 0.0000 0.0000 9.4097 0.0000 1.5382
# 5 -17.8458 -14.7317 5.9157 0.0000 29.9238 0.0000
# 6 0.0000 0.0000 0.0000 1.5382 0.0000 34.1904
#
#
#
# Elastic Compliance Matrix: (Units=1/GPa)
#
#
# Indices 1 2 3 4 5 6 
#
# 1 0.009832 -0.007634 -0.005529 0.000000 0.003199 0.000000
# 2 -0.007634 0.032533 0.003372 0.000000 0.010797 0.000000
# 3 -0.005529 0.003372 0.022603 0.000000 -0.006106 0.000000
# 4 0.000000 0.000000 0.000000 0.107061 0.000000 -0.004817
# 5 0.003199 0.010797 -0.006106 0.000000 0.041849 0.000000
# 6 0.000000 0.000000 0.000000 -0.004817 0.000000 0.029465
#
#
# Mechanical properties :
#
#
# Convention : Reuss Voigt Hill
#
# Bulk Modulus (GPa) = 22.03285 42.17058 32.10171
# Shear Modulus (GPa) = 17.98223 27.08241 22.53232
#
# Velocity S-wave (km/s) = 2.86558 3.51669 3.20770
# Velocity P-wave (km/s) = 4.58367 5.97885 5.32713
#
# Compressibility (1/GPa) = 0.04538677
#
# Stress axis : x y z
#
# Youngs Moduli (GPa) = 101.70437 30.73781 44.24278
#
# Poissons Ratio (x) = 0.23464 0.24461
# Poissons Ratio (y) = 0.77637 -0.14917
# Poissons Ratio (z) = 0.56231 -0.10364
#
# Static dielectric constant tensor:
#      x y z
#    x 1.831560 0.000000 -0.008410 
#    y 0.000000 1.792090 0.000000 
#    z -0.008410 0.000000 1.786730 
# 
# From -- ./inp_files/13660.got.cif
#   From: 2010.05.17/outbox.cif.g08.bks.cpg/sg15_7_cif.got.tgz:13660.got - 2010.06.03 18:47:42.
