data_PCOD9295052
_publ_section_title
;
Structure prediction by ZEFSAII (Michael W. Deem and Ramdas Pophale) SiO2 
 PCOD9295052
Probable space group: C 2/C
;
_chemical_formula_sum "Si O2"
_cell_formula_units_Z 48
_cell_length_a 20.298738
_cell_length_b 22.362171
_cell_length_c 8.210915
_cell_angle_alpha 90.000000
_cell_angle_beta 142.237388
_cell_angle_gamma 90.000000
_cell_volume 2282.462125
_symmetry_space_group_name_H-M "C 2/C"
_symmetry_group_IT_number 15
_symmetry_cell_setting 'monoclinic'
loop_
_space_group_symop_operation_xyz
x,y,z
-x,y,1/2-z
-x,-y,-z
x,-y,1/2+z
1/2+x,1/2+y,z
1/2-x,1/2+y,1/2-z
1/2-x,1/2-y,-z
1/2+x,1/2-y,1/2+z
loop_
_atom_site_type_symbol
_atom_site_label
_atom_site_fract_x
_atom_site_fract_y
_atom_site_fract_z
Si Si1 0.080121 0.028740 0.786691
Si Si2 0.078041 0.458635 0.257933
Si Si3 0.886357 0.722067 0.372738
Si Si4 0.228845 0.050192 0.801506
Si Si5 0.236517 0.685536 0.693637
Si Si6 0.371566 0.174757 0.683079
O O1 0.172473 0.060468 0.865946
O O2 0.000000 0.064088 0.750000
O O3 0.000000 0.000000 0.500000
O O4 0.141126 0.977249 0.007066
O O5 0.177772 0.500603 0.502002
O O6 0.116377 0.396122 0.259540
O O7 0.000000 0.439130 0.250000
O O8 0.000000 0.500000 0.000000
O O9 0.853549 0.787540 0.376215
O O10 0.835330 0.682399 0.422458
O O11 0.011195 0.706028 0.594797
O O12 0.835880 0.710651 0.096253
O O13 0.267699 0.114406 0.824504
O O14 0.195925 0.700650 0.796684
#
# Coordination Sequence:
#
# PCOD9295052 Si02
#       6
#     8   8   8   8   8   8
#     4   9  20  40  59  84 125 166 210 268 324 384
#     4  12  23  37  62 101 138 171 209 265 342 404
#     4  10  23  42  63  90 127 173 216 271 315 387
#     4  11  22  38  63  97 127 169 215 266 335 395
#     4  11  23  41  66  93 127 169 223 268 324 392
#     4  11  22  43  64  92 133 171 217 270 326 396
#
# _framework density 21.029921000000002
#
# number of rings (size 3 to 8) (size 9 to 14) (size 15 to 20)
#    0.000    1.333    1.667    5.000    2.333    0.000 
#    9.000    3.333    0.000    0.000    0.000    0.000 
#    0.000    0.000    0.000    0.000    0.000    0.000 
#
# Total GULP energy -133758.155648 kJ/mol
# GULP energy per Si atom -5573.256485 kJ/mol
# Density = 2.098206 g / cm^3
# Si number density = 21.029921 Si / 1000 Ang^3
#
#
#
# Elastic Constant Matrix: (Units=GPa)
#
#
# Indices 1 2 3 4 5 6 
#
# 1 181.6983 48.6696 14.7513 0.0000 -11.4438 0.0000
# 2 48.6696 73.3883 25.5293 0.0000 6.4922 0.0000
# 3 14.7513 25.5293 86.3586 0.0000 -4.4837 0.0000
# 4 0.0000 0.0000 0.0000 26.7417 0.0000 4.8777
# 5 -11.4438 6.4922 -4.4837 0.0000 34.0472 0.0000
# 6 0.0000 0.0000 0.0000 4.8777 0.0000 29.9456
#
#
#
# Elastic Compliance Matrix: (Units=1/GPa)
#
#
# Indices 1 2 3 4 5 6 
#
# 1 0.007060 -0.005158 0.000496 0.000000 0.003422 0.000000
# 2 -0.005158 0.019384 -0.005167 0.000000 -0.006110 0.000000
# 3 0.000496 -0.005167 0.013172 0.000000 0.002887 0.000000
# 4 0.000000 0.000000 0.000000 0.038540 0.000000 -0.006278
# 5 0.003422 -0.006110 0.002887 0.000000 0.032066 0.000000
# 6 0.000000 0.000000 0.000000 -0.006278 0.000000 0.034416
#
#
# Mechanical properties :
#
#
# Convention : Reuss Voigt Hill
#
# Bulk Modulus (GPa) = 50.09781 57.70507 53.90144
# Shear Modulus (GPa) = 29.24844 34.97990 32.11417
#
# Velocity S-wave (km/s) = 3.73339 4.08283 3.91201
# Velocity P-wave (km/s) = 6.51599 7.05160 6.78908
#
# Compressibility (1/GPa) = 0.01996095
#
# Stress axis : x y z
#
# Youngs Moduli (GPa) = 141.63514 51.58763 75.91807
#
# Poissons Ratio (x) = 0.26607 -0.03768
# Poissons Ratio (y) = 0.73051 0.39224
# Poissons Ratio (z) = -0.07030 0.26654
#
# Static dielectric constant tensor:
#      x y z
#    x 1.821360 0.000000 -0.016070 
#    y 0.000000 1.781810 0.000000 
#    z -0.016070 0.000000 1.781090 
# 
# From -- ./inp_files/57680.got.cif
#   From: 2010.05.17/outbox.cif.g08.bks.cpg/sg15_29_cif.got.tgz:57680.got - 2010.06.03 18:47:42.
