data_PCOD9295749
_publ_section_title
;
Structure prediction by ZEFSAII (Michael W. Deem and Ramdas Pophale) SiO2 
 PCOD9295749
Probable space group: C 2/C
;
_chemical_formula_sum "Si O2"
_cell_formula_units_Z 44
_cell_length_a 11.604414
_cell_length_b 13.862924
_cell_length_c 20.283041
_cell_angle_alpha 90.000000
_cell_angle_beta 39.449776
_cell_angle_gamma 90.000000
_cell_volume 2073.286989
_symmetry_space_group_name_H-M "C 2/C"
_symmetry_group_IT_number 15
_symmetry_cell_setting 'monoclinic'
loop_
_space_group_symop_operation_xyz
x,y,z
-x,y,1/2-z
-x,-y,-z
x,-y,1/2+z
1/2+x,1/2+y,z
1/2-x,1/2+y,1/2-z
1/2-x,1/2-y,-z
1/2+x,1/2-y,1/2+z
loop_
_atom_site_type_symbol
_atom_site_label
_atom_site_fract_x
_atom_site_fract_y
_atom_site_fract_z
Si Si1 0.631002 0.562881 0.896268
Si Si2 0.000000 0.764613 0.250000
Si Si3 0.962237 0.594999 0.058040
Si Si4 0.389814 0.722483 0.495262
Si Si5 0.747462 0.878427 0.722823
Si Si6 0.181664 0.147864 0.555597
O O1 0.762514 0.485059 0.805144
O O2 0.495279 0.610091 0.902673
O O3 0.500000 0.500000 0.000000
O O4 0.700124 0.647805 0.912763
O O5 0.101828 0.695480 0.256423
O O6 0.135319 0.834132 0.151852
O O7 0.791104 0.607241 0.182589
O O8 0.953940 0.686230 0.011436
O O9 0.000000 0.500000 0.000000
O O10 0.136025 0.587985 0.030466
O O11 0.250000 0.750000 0.500000
O O12 0.560816 0.669106 0.384253
O O13 0.250000 0.250000 0.500000
#
# Coordination Sequence:
#
# PCOD9295749 Si02
#       6
#     8   4   8   8   8   8
#     4  10  23  43  68  99 134 183 228 281 350 408
#     4  12  22  42  76  98 130 180 244 286 346 410
#     4  12  28  43  69 108 138 180 239 289 348 413
#     4  11  25  48  70  98 147 184 224 286 354 423
#     4  11  25  44  72 104 136 184 232 292 355 414
#     4  12  22  45  73  95 136 181 234 290 332 420
#
# _framework density 21.222339000000002
#
# number of rings (size 3 to 8) (size 9 to 14) (size 15 to 20)
#    0.000    0.727    5.455    1.091    7.636    2.182 
#    0.000    0.000    0.000    0.000    0.000    0.000 
#    0.000    0.000    0.000    0.000    0.000    0.000 
#
# Total GULP energy -122688.807793 kJ/mol
# GULP energy per Si atom -5576.763991 kJ/mol
# Density = 2.117404 g / cm^3
# Si number density = 21.222339 Si / 1000 Ang^3
#
#
#
# Elastic Constant Matrix: (Units=GPa)
#
#
# Indices 1 2 3 4 5 6 
#
# 1 74.8751 20.6921 10.5520 0.0000 10.2940 0.0000
# 2 20.6921 103.9195 39.0677 0.0000 17.0414 0.0000
# 3 10.5520 39.0677 133.9168 -0.0002 16.6845 0.0001
# 4 0.0000 0.0000 -0.0002 34.9341 0.0001 20.0034
# 5 10.2940 17.0414 16.6845 0.0001 26.8318 0.0000
# 6 0.0000 0.0000 0.0001 20.0034 0.0000 28.7277
#
#
#
# Elastic Compliance Matrix: (Units=1/GPa)
#
#
# Indices 1 2 3 4 5 6 
#
# 1 0.014540 -0.002218 0.000023 0.000000 -0.004184 0.000000
# 2 -0.002218 0.011894 -0.002667 0.000000 -0.005045 0.000000
# 3 0.000023 -0.002667 0.008708 0.000000 -0.003730 0.000000
# 4 0.000000 0.000000 0.000000 0.047606 0.000000 -0.033149
# 5 -0.004184 -0.005045 -0.003730 0.000000 0.044398 0.000000
# 6 0.000000 0.000000 0.000000 -0.033149 0.000000 0.057892
#
#
# Mechanical properties :
#
#
# Convention : Reuss Voigt Hill
#
# Bulk Modulus (GPa) = 39.33984 50.37057 44.85521
# Shear Modulus (GPa) = 24.60199 34.25870 29.43034
#
# Velocity S-wave (km/s) = 3.40847 4.02216 3.72797
# Velocity P-wave (km/s) = 5.83673 6.73473 6.30175
#
# Compressibility (1/GPa) = 0.02541952
#
# Stress axis : x y z
#
# Youngs Moduli (GPa) = 68.77361 84.07425 114.83446
#
# Poissons Ratio (x) = 0.18644 -0.00258
# Poissons Ratio (y) = 0.15251 0.30622
# Poissons Ratio (z) = -0.00155 0.22419
#
# Static dielectric constant tensor:
#      x y z
#    x 1.938160 0.000000 0.197380 
#    y 0.000000 1.868960 0.000000 
#    z 0.197380 0.000000 2.280500 
# 
# From -- ./inp_files/197650.got.cif
#   From: 2010.05.17/outbox.cif.g08.bks.cpg/sg15_99_cif.got.tgz:197650.got - 2010.06.03 18:47:42.
