data_PCOD9295784
_publ_section_title
;
Structure prediction by ZEFSAII (Michael W. Deem and Ramdas Pophale) SiO2 
 PCOD9295784
Probable space group: C 2/C
;
_chemical_formula_sum "Si O2"
_cell_formula_units_Z 36
_cell_length_a 5.149672
_cell_length_b 13.244870
_cell_length_c 20.710682
_cell_angle_alpha 90.000000
_cell_angle_beta 81.599315
_cell_angle_gamma 90.000000
_cell_volume 1397.451568
_symmetry_space_group_name_H-M "C 2/C"
_symmetry_group_IT_number 15
_symmetry_cell_setting 'monoclinic'
loop_
_space_group_symop_operation_xyz
x,y,z
-x,y,1/2-z
-x,-y,-z
x,-y,1/2+z
1/2+x,1/2+y,z
1/2-x,1/2+y,1/2-z
1/2-x,1/2-y,-z
1/2+x,1/2-y,1/2+z
loop_
_atom_site_type_symbol
_atom_site_label
_atom_site_fract_x
_atom_site_fract_y
_atom_site_fract_z
Si Si1 0.251418 0.129695 0.502763
Si Si2 0.418335 0.993849 0.685347
Si Si3 0.704306 0.631821 0.075854
Si Si4 0.000000 0.154401 0.750000
Si Si5 0.836838 0.847155 0.120991
O O1 0.250000 0.250000 0.500000
O O2 0.551793 0.101304 0.479370
O O3 0.061550 0.100822 0.450239
O O4 0.095114 0.111773 0.574689
O O5 0.500000 0.940540 0.750000
O O6 0.650191 0.058007 0.642734
O O7 0.229399 0.081529 0.717728
O O8 0.270109 0.921491 0.640985
O O9 0.711492 0.753816 0.085801
O O10 0.909500 0.204294 0.687090
#
# Coordination Sequence:
#
# PCOD9295784 Si02
#       5
#     8   8   8   4   8
#     4  10  23  43  70 105 137 172 233 287 339 428
#     4  10  25  45  63 101 141 176 239 293 333 426
#     4  11  25  43  74 100 135 184 224 288 352 411
#     4  10  24  44  64  94 134 178 226 290 330 418
#     4  10  23  43  69  95 138 179 226 282 356 409
#
# _framework density 25.761178000000001
#
# number of rings (size 3 to 8) (size 9 to 14) (size 15 to 20)
#    0.000    1.778    0.000    2.667   17.111    1.778 
#    6.000    0.000    0.000    0.000    0.000    0.000 
#    0.000    0.000    0.000    0.000    0.000    0.000 
#
# Total GULP energy -100741.950147 kJ/mol
# GULP energy per Si atom -5596.775008 kJ/mol
# Density = 2.570254 g / cm^3
# Si number density = 25.761178 Si / 1000 Ang^3
#
#
#
# Elastic Constant Matrix: (Units=GPa)
#
#
# Indices 1 2 3 4 5 6 
#
# 1 108.6681 6.5568 44.5335 0.0000 -5.2886 0.0000
# 2 6.5568 84.6344 38.3725 0.0000 15.6401 0.0000
# 3 44.5335 38.3725 161.5567 0.0000 12.2860 0.0000
# 4 0.0000 0.0000 0.0000 43.5727 0.0000 21.3199
# 5 -5.2886 15.6401 12.2860 0.0000 59.7884 0.0000
# 6 0.0000 0.0000 0.0000 21.3199 0.0000 14.3069
#
#
#
# Elastic Compliance Matrix: (Units=1/GPa)
#
#
# Indices 1 2 3 4 5 6 
#
# 1 0.010521 0.000310 -0.003087 0.000000 0.001484 0.000000
# 2 0.000310 0.013751 -0.003129 0.000000 -0.002927 0.000000
# 3 -0.003087 -0.003129 0.007865 0.000000 -0.001071 0.000000
# 4 0.000000 0.000000 0.000000 0.084731 0.000000 -0.126265
# 5 0.001484 -0.002927 -0.001071 0.000000 0.017843 0.000000
# 6 0.000000 0.000000 0.000000 -0.126265 0.000000 0.258055
#
#
# Mechanical properties :
#
#
# Convention : Reuss Voigt Hill
#
# Bulk Modulus (GPa) = 49.19778 59.30941 54.25359
# Shear Modulus (GPa) = 12.15506 41.22668 26.69087
#
# Velocity S-wave (km/s) = 2.17454 4.00477 3.22233
# Velocity P-wave (km/s) = 5.04420 6.66761 5.91189
#
# Compressibility (1/GPa) = 0.02032612
#
# Stress axis : x y z
#
# Youngs Moduli (GPa) = 95.05028 72.72184 127.14194
#
# Poissons Ratio (x) = -0.02256 0.39243
# Poissons Ratio (y) = -0.02948 0.39783
# Poissons Ratio (z) = 0.29338 0.22755
#
# Static dielectric constant tensor:
#      x y z
#    x 2.129060 0.000000 0.012030 
#    y 0.000000 1.998020 0.000000 
#    z 0.012030 0.000000 2.135700 
# 
# From -- ./inp_files/226468.got.cif
#   From: 2010.05.17/outbox.cif.g08.bks.cpg/sg15_114_cif.got.tgz:226468.got - 2010.06.03 18:47:42.
