data_PCOD9295871
_publ_section_title
;
Structure prediction by ZEFSAII (Michael W. Deem and Ramdas Pophale) SiO2 
 PCOD9295871
Probable space group: C 2/C
;
_chemical_formula_sum "Si O2"
_cell_formula_units_Z 48
_cell_length_a 11.288701
_cell_length_b 24.829967
_cell_length_c 14.230470
_cell_angle_alpha 90.000000
_cell_angle_beta 30.012573
_cell_angle_gamma 90.000000
_cell_volume 1995.144643
_symmetry_space_group_name_H-M "C 2/C"
_symmetry_group_IT_number 15
_symmetry_cell_setting 'monoclinic'
loop_
_space_group_symop_operation_xyz
x,y,z
-x,y,1/2-z
-x,-y,-z
x,-y,1/2+z
1/2+x,1/2+y,z
1/2-x,1/2+y,1/2-z
1/2-x,1/2-y,-z
1/2+x,1/2-y,1/2+z
loop_
_atom_site_type_symbol
_atom_site_label
_atom_site_fract_x
_atom_site_fract_y
_atom_site_fract_z
Si Si1 0.500000 0.683075 0.250000
Si Si2 0.562716 0.054756 0.011991
Si Si3 0.000000 0.998523 0.750000
Si Si4 0.757336 0.250054 0.899283
Si Si5 0.922776 0.176061 0.512836
Si Si6 0.040814 0.659996 0.917914
Si Si7 0.434293 0.555108 0.098577
O O1 0.438879 0.702599 0.398748
O O2 0.241405 0.657668 0.402661
O O3 0.340298 0.069100 0.227931
O O4 0.614432 0.100260 0.900013
O O5 0.786172 0.038524 0.918802
O O6 0.500000 0.000000 0.000000
O O7 0.038696 0.960859 0.811508
O O8 0.638641 0.197564 0.934050
O O9 0.052020 0.248415 0.640668
O O10 0.638679 0.300712 0.926753
O O11 0.674100 0.184150 0.736028
O O12 0.933205 0.111161 0.503288
O O13 0.500000 0.500000 0.000000
#
# Coordination Sequence:
#
# PCOD9295871 Si02
#       7
#     4   8   4   8   8   8   8
#     4  12  27  50  76 106 156 198 256 313 378 458
#     4  10  23  43  71 105 148 192 253 306 380 447
#     4  10  23  44  70 100 150 200 236 325 374 450
#     4  12  27  52  79 111 156 195 257 322 388 465
#     4  12  26  49  77 111 150 205 254 314 392 449
#     4  12  27  49  77 112 152 203 252 323 383 458
#     4  11  24  45  69 107 147 192 256 305 374 458
#
# _framework density 24.058406000000002
#
# number of rings (size 3 to 8) (size 9 to 14) (size 15 to 20)
#    0.000    0.667    3.333    4.000    3.500    2.667 
#    3.000    0.000    0.000    0.000    0.000    0.000 
#    0.000    0.000    0.000    0.000    0.000    0.000 
#
# Total GULP energy -133795.049589 kJ/mol
# GULP energy per Si atom -5574.793733 kJ/mol
# Density = 2.400365 g / cm^3
# Si number density = 24.058406 Si / 1000 Ang^3
#
#
#
# Elastic Constant Matrix: (Units=GPa)
#
#
# Indices 1 2 3 4 5 6 
#
# 1 131.4511 63.2829 54.6397 -0.0053 7.9228 0.0055
# 2 63.2829 138.4006 40.1964 -0.0005 6.5035 0.0008
# 3 54.6397 40.1964 131.9420 -0.0063 2.3827 0.0027
# 4 -0.0053 -0.0005 -0.0063 30.3385 0.0045 1.5691
# 5 7.9228 6.5035 2.3827 0.0045 65.4811 -0.0030
# 6 0.0055 0.0008 0.0027 1.5691 -0.0030 20.7310
#
#
#
# Elastic Compliance Matrix: (Units=1/GPa)
#
#
# Indices 1 2 3 4 5 6 
#
# 1 0.010961 -0.004015 -0.003301 0.000001 -0.000807 -0.000003
# 2 -0.004015 0.009430 -0.001203 -0.000001 -0.000407 0.000001
# 3 -0.003301 -0.001203 0.009309 0.000001 0.000180 0.000000
# 4 0.000001 -0.000001 0.000001 0.033091 -0.000003 -0.002505
# 5 -0.000807 -0.000407 0.000180 -0.000003 0.015403 0.000003
# 6 -0.000003 0.000001 0.000000 -0.002505 0.000003 0.048426
#
#
# Mechanical properties :
#
#
# Convention : Reuss Voigt Hill
#
# Bulk Modulus (GPa) = 78.97760 79.78130 79.37945
# Shear Modulus (GPa) = 33.81110 39.55511 36.68311
#
# Velocity S-wave (km/s) = 3.75290 4.05918 3.90904
# Velocity P-wave (km/s) = 7.18872 7.42986 7.31029
#
# Compressibility (1/GPa) = 0.01266182
#
# Stress axis : x y z
#
# Youngs Moduli (GPa) = 91.22956 106.04727 107.41784
#
# Poissons Ratio (x) = 0.42580 0.35464
# Poissons Ratio (y) = 0.36631 0.12919
# Poissons Ratio (z) = 0.30119 0.12754
#
# Static dielectric constant tensor:
#      x y z
#    x 1.939980 0.000000 0.044140 
#    y 0.000000 1.920420 0.000000 
#    z 0.044140 0.000000 2.696940 
# 
# From -- ./inp_files/148711.got.cif
#   From: 2010.05.17/outbox.cif.g08.bks.cpg/sg15_75_cif.got.tgz:148711.got - 2010.06.03 18:47:42.
