data_PCOD9295945
_publ_section_title
;
Structure prediction by ZEFSAII (Michael W. Deem and Ramdas Pophale) SiO2 
 PCOD9295945
Probable space group: C 2/C
;
_chemical_formula_sum "Si O2"
_cell_formula_units_Z 36
_cell_length_a 20.362431
_cell_length_b 7.214383
_cell_length_c 10.288102
_cell_angle_alpha 90.000000
_cell_angle_beta 80.432008
_cell_angle_gamma 90.000000
_cell_volume 1490.322358
_symmetry_space_group_name_H-M "C 2/C"
_symmetry_group_IT_number 15
_symmetry_cell_setting 'monoclinic'
loop_
_space_group_symop_operation_xyz
x,y,z
-x,y,1/2-z
-x,-y,-z
x,-y,1/2+z
1/2+x,1/2+y,z
1/2-x,1/2+y,1/2-z
1/2-x,1/2-y,-z
1/2+x,1/2-y,1/2+z
loop_
_atom_site_type_symbol
_atom_site_label
_atom_site_fract_x
_atom_site_fract_y
_atom_site_fract_z
Si Si1 0.500000 0.455411 0.750000
Si Si2 0.035032 0.594886 0.608527
Si Si3 0.326942 0.906235 0.971635
Si Si4 0.143351 0.908645 0.213510
Si Si5 0.265783 0.907588 0.728818
O O1 0.522513 0.313976 0.627858
O O2 0.433663 0.563120 0.732287
O O3 0.000000 0.517076 0.750000
O O4 0.000000 0.500000 0.500000
O O5 0.111345 0.539292 0.576639
O O6 0.350890 0.699305 0.926283
O O7 0.272284 0.950619 0.879573
O O8 0.298571 0.939033 0.123117
O O9 0.183634 0.766950 0.295168
O O10 0.189329 0.091116 0.207286
#
# Coordination Sequence:
#
# PCOD9295945 Si02
#       5
#     4   8   8   8   8
#     4  10  26  48  74 110 148 188 242 298 366 438
#     4  10  23  43  75 100 149 186 236 291 374 420
#     4  10  23  43  75 100 144 188 251 291 365 425
#     4  10  25  45  75 107 146 192 246 297 363 436
#     4  10  24  45  74  99 147 189 250 293 365 426
#
# _framework density 24.155846
#
# number of rings (size 3 to 8) (size 9 to 14) (size 15 to 20)
#    2.000    0.000    0.000    2.000    4.667    0.889 
#    0.000    2.222    0.000    0.000    0.000    0.000 
#    0.000    0.000    0.000    0.000    0.000    0.000 
#
# Total GULP energy -100417.885029 kJ/mol
# GULP energy per Si atom -5578.771391 kJ/mol
# Density = 2.410087 g / cm^3
# Si number density = 24.155846 Si / 1000 Ang^3
#
#
#
# Elastic Constant Matrix: (Units=GPa)
#
#
# Indices 1 2 3 4 5 6 
#
# 1 184.9936 70.7689 17.0319 0.0000 -30.6004 0.0000
# 2 70.7689 94.9334 21.7948 0.0000 1.6846 0.0000
# 3 17.0319 21.7948 90.9211 0.0000 -6.3737 0.0000
# 4 0.0000 0.0000 0.0000 14.5626 0.0000 -21.7752
# 5 -30.6004 1.6846 -6.3737 0.0000 32.8709 0.0000
# 6 0.0000 0.0000 0.0000 -21.7752 0.0000 31.3020
#
#
#
# Elastic Compliance Matrix: (Units=1/GPa)
#
#
# Indices 1 2 3 4 5 6 
#
# 1 0.009907 -0.007713 0.000677 0.000000 0.009749 0.000000
# 2 -0.007713 0.017192 -0.003286 0.000000 -0.008699 0.000000
# 3 0.000677 -0.003286 0.011877 0.000000 0.003101 0.000000
# 4 0.000000 0.000000 0.000000 -1.708628 0.000000 -1.188605
# 5 0.009749 -0.008699 0.003101 0.000000 0.040545 0.000000
# 6 0.000000 0.000000 0.000000 -1.188605 0.000000 -0.794905
#
#
# Mechanical properties :
#
#
# Convention : Reuss Voigt Hill
#
# Bulk Modulus (GPa) = 54.55434 65.55992 60.05713
# Shear Modulus (GPa) = -2.08572 33.16395 15.53912
#
# Velocity S-wave (km/s) = -0.93022 3.70931 2.53906
# Velocity P-wave (km/s) = 4.63461 6.74867 5.78896
#
# Compressibility (1/GPa) = 0.01833035
#
# Stress axis : x y z
#
# Youngs Moduli (GPa) = 100.94315 58.16529 84.19690
#
# Poissons Ratio (x) = 0.44864 -0.05697
# Poissons Ratio (y) = 0.77860 0.27668
# Poissons Ratio (z) = -0.06830 0.19114
#
# Static dielectric constant tensor:
#      x y z
#    x 1.896360 0.000000 -0.008270 
#    y 0.000000 2.084890 0.000000 
#    z -0.008270 0.000000 1.871990 
# 
# From -- ./inp_files/109304.got.cif
#   From: 2010.05.17/outbox.cif.g08.bks.cpg/sg15_55_cif.got.tgz:109304.got - 2010.06.03 18:47:42.
