data_PCOD9295493
_publ_section_title
;
Structure prediction by ZEFSAII (Michael W. Deem and Ramdas Pophale) SiO2 
 PCOD9295493
Probable space group: C 2/C
;
_chemical_formula_sum "Si O2"
_cell_formula_units_Z 40
_cell_length_a 14.433102
_cell_length_b 18.616617
_cell_length_c 6.005675
_cell_angle_alpha 90.000000
_cell_angle_beta 59.295931
_cell_angle_gamma 90.000000
_cell_volume 1387.483413
_symmetry_space_group_name_H-M "C 2/C"
_symmetry_group_IT_number 15
_symmetry_cell_setting 'monoclinic'
loop_
_space_group_symop_operation_xyz
x,y,z
-x,y,1/2-z
-x,-y,-z
x,-y,1/2+z
1/2+x,1/2+y,z
1/2-x,1/2+y,1/2-z
1/2-x,1/2-y,-z
1/2+x,1/2-y,1/2+z
loop_
_atom_site_type_symbol
_atom_site_label
_atom_site_fract_x
_atom_site_fract_y
_atom_site_fract_z
Si Si1 0.313482 0.707474 0.121495
Si Si2 0.355190 0.423367 0.289025
Si Si3 0.112620 0.454033 0.467779
Si Si4 0.000000 0.057142 0.250000
Si Si5 0.128639 0.380015 0.984530
Si Si6 0.500000 0.798497 0.750000
O O1 0.360793 0.631045 0.982431
O O2 0.420366 0.754694 0.010463
O O3 0.250000 0.750000 0.000000
O O4 0.226484 0.677033 0.404935
O O5 0.230920 0.424182 0.378702
O O6 0.408451 0.501224 0.270776
O O7 0.431534 0.395348 0.000231
O O8 0.148673 0.537258 0.378276
O O9 0.086515 0.404588 0.281698
O O10 0.000000 0.460745 0.750000
O O11 0.075394 0.341518 0.832777
#
# Coordination Sequence:
#
# PCOD9295493 Si02
#       6
#     8   8   8   4   8   4
#     4  10  23  48  76 106 157 217 271 334 394 494
#     4  11  23  46  79 116 165 203 278 342 422 499
#     4  12  27  51  85 128 171 216 269 359 440 500
#     4  10  23  42  78 122 149 210 260 360 430 472
#     4  11  25  50  82 122 164 217 281 348 424 498
#     4  10  25  52  82 114 169 228 282 338 406 506
#
# _framework density 28.829173000000001
#
# number of rings (size 3 to 8) (size 9 to 14) (size 15 to 20)
#    0.000    1.200    0.000    4.800    0.000    5.600 
#   37.800    4.000   22.000    0.000    0.000    0.000 
#    0.000    0.000    0.000    0.000    0.000    0.000 
#
# Total GULP energy -111474.369783 kJ/mol
# GULP energy per Si atom -5573.718489 kJ/mol
# Density = 2.876356 g / cm^3
# Si number density = 28.829173 Si / 1000 Ang^3
#
#
#
# Elastic Constant Matrix: (Units=GPa)
#
#
# Indices 1 2 3 4 5 6 
#
# 1 155.6933 48.5856 54.3832 0.0000 -37.1529 0.0000
# 2 48.5856 161.3647 60.7047 0.0000 -22.4238 0.0000
# 3 54.3832 60.7047 231.6065 0.0000 -13.6742 0.0000
# 4 0.0000 0.0000 0.0000 60.1938 0.0000 -17.0098
# 5 -37.1529 -22.4238 -13.6742 0.0000 31.5330 0.0000
# 6 0.0000 0.0000 0.0000 -17.0098 0.0000 47.5479
#
#
#
# Elastic Compliance Matrix: (Units=1/GPa)
#
#
# Indices 1 2 3 4 5 6 
#
# 1 0.009610 -0.000970 -0.001410 0.000000 0.010021 0.000000
# 2 -0.000970 0.007566 -0.001545 0.000000 0.003567 0.000000
# 3 -0.001410 -0.001545 0.005019 0.000000 -0.000584 0.000000
# 4 0.000000 0.000000 0.000000 0.018481 0.000000 0.006612
# 5 0.010021 0.003567 -0.000584 0.000000 0.045803 0.000000
# 6 0.000000 0.000000 0.000000 0.006612 0.000000 0.023397
#
#
# Mechanical properties :
#
#
# Convention : Reuss Voigt Hill
#
# Bulk Modulus (GPa) = 69.71485 97.33461 83.52473
# Shear Modulus (GPa) = 40.81366 53.52100 47.16733
#
# Velocity S-wave (km/s) = 3.76667 4.31337 4.04926
# Velocity P-wave (km/s) = 6.56899 7.65785 7.13423
#
# Compressibility (1/GPa) = 0.01434415
#
# Stress axis : x y z
#
# Youngs Moduli (GPa) = 104.06335 132.16840 199.23271
#
# Poissons Ratio (x) = 0.12824 0.28101
# Poissons Ratio (y) = 0.10097 0.30775
# Poissons Ratio (z) = 0.14678 0.20415
#
# Static dielectric constant tensor:
#      x y z
#    x 2.627380 0.000000 0.269500 
#    y 0.000000 2.282100 0.000000 
#    z 0.269500 0.000000 2.695850 
# 
# From -- ./inp_files/49993.got.cif
#   From: 2010.05.17/outbox.cif.g08.bks.cpg/sg15_25_cif.got.tgz:49993.got - 2010.06.03 18:47:42.
