data_PCOD9295558
_publ_section_title
;
Structure prediction by ZEFSAII (Michael W. Deem and Ramdas Pophale) SiO2 
 PCOD9295558
Probable space group: C 2/C
;
_chemical_formula_sum "Si O2"
_cell_formula_units_Z 52
_cell_length_a 25.718953
_cell_length_b 11.253206
_cell_length_c 15.270945
_cell_angle_alpha 90.000000
_cell_angle_beta 141.510918
_cell_angle_gamma 90.000000
_cell_volume 2750.685726
_symmetry_space_group_name_H-M "C 2/C"
_symmetry_group_IT_number 15
_symmetry_cell_setting 'monoclinic'
loop_
_space_group_symop_operation_xyz
x,y,z
-x,y,1/2-z
-x,-y,-z
x,-y,1/2+z
1/2+x,1/2+y,z
1/2-x,1/2+y,1/2-z
1/2-x,1/2-y,-z
1/2+x,1/2-y,1/2+z
loop_
_atom_site_type_symbol
_atom_site_label
_atom_site_fract_x
_atom_site_fract_y
_atom_site_fract_z
Si Si1 0.720694 0.982825 0.575033
Si Si2 0.910135 0.310521 0.176160
Si Si3 0.365309 0.206066 0.973179
Si Si4 0.860362 0.036681 0.112800
Si Si5 0.089944 0.556296 0.638258
Si Si6 0.000000 0.141500 0.750000
Si Si7 0.743417 0.434361 0.679695
O O1 0.662021 0.870370 0.477471
O O2 0.791788 0.989539 0.596104
O O3 0.759204 0.972310 0.722568
O O4 0.661950 0.098689 0.499646
O O5 0.891061 0.171372 0.161653
O O6 0.908992 0.377815 0.267521
O O7 0.000000 0.326551 0.250000
O O8 0.385885 0.149088 0.906439
O O9 0.289986 0.300463 0.870194
O O10 0.444674 0.276195 0.114587
O O11 0.936831 0.944819 0.218377
O O12 0.816029 0.013582 0.960643
O O13 0.162438 0.456655 0.729257
O O14 0.000000 0.500000 0.500000
#
# Coordination Sequence:
#
# PCOD9295558 Si02
#       7
#     8   8   8   8   8   4   8
#     4  11  24  39  71  93 123 179 216 263 332 380
#     4  12  24  42  67  95 130 171 220 271 326 380
#     4  10  24  42  64  95 132 167 216 264 329 388
#     4  11  23  45  65  95 132 171 220 267 323 394
#     4  11  24  43  65  98 130 168 220 272 322 386
#     4  10  24  44  64  94 138 168 212 274 324 394
#     4  10  23  43  64  96 131 166 218 266 323 385
#
# _framework density 18.904375999999999
#
# number of rings (size 3 to 8) (size 9 to 14) (size 15 to 20)
#    0.000    1.231    2.308    3.231    7.538    3.692 
#    2.769    2.308    0.000    0.000    0.000    0.000 
#    0.000    0.000    0.000    0.000    0.000    0.000 
#
# Total GULP energy -145320.100665 kJ/mol
# GULP energy per Si atom -5589.234641 kJ/mol
# Density = 1.886135 g / cm^3
# Si number density = 18.904376 Si / 1000 Ang^3
#
#
#
# Elastic Constant Matrix: (Units=GPa)
#
#
# Indices 1 2 3 4 5 6 
#
# 1 149.9403 47.0489 46.3980 0.0000 1.9372 0.0000
# 2 47.0489 93.2518 33.8570 0.0000 3.1552 0.0000
# 3 46.3980 33.8570 62.6004 0.0000 5.2382 0.0000
# 4 0.0000 0.0000 0.0000 30.5161 0.0000 6.3867
# 5 1.9372 3.1552 5.2382 0.0000 35.7754 0.0000
# 6 0.0000 0.0000 0.0000 6.3867 0.0000 13.4704
#
#
#
# Elastic Compliance Matrix: (Units=1/GPa)
#
#
# Indices 1 2 3 4 5 6 
#
# 1 0.009174 -0.002690 -0.005389 0.000000 0.000530 0.000000
# 2 -0.002690 0.014133 -0.005627 0.000000 -0.000277 0.000000
# 3 -0.005389 -0.005627 0.023231 0.000000 -0.002613 0.000000
# 4 0.000000 0.000000 0.000000 0.036380 0.000000 -0.017248
# 5 0.000530 -0.000277 -0.002613 0.000000 0.028331 0.000000
# 6 0.000000 0.000000 0.000000 -0.017248 0.000000 0.082415
#
#
# Mechanical properties :
#
#
# Convention : Reuss Voigt Hill
#
# Bulk Modulus (GPa) = 52.28516 62.26669 57.27593
# Shear Modulus (GPa) = 21.98286 27.85163 24.91724
#
# Velocity S-wave (km/s) = 3.41375 3.84251 3.63446
# Velocity P-wave (km/s) = 6.57693 7.25918 6.92646
#
# Compressibility (1/GPa) = 0.01912589
#
# Stress axis : x y z
#
# Youngs Moduli (GPa) = 109.00145 70.75545 43.04667
#
# Poissons Ratio (x) = 0.19033 0.23198
# Poissons Ratio (y) = 0.29321 0.24222
# Poissons Ratio (z) = 0.58743 0.39813
#
# Static dielectric constant tensor:
#      x y z
#    x 1.627940 0.000000 -0.004550 
#    y 0.000000 1.645800 0.000000 
#    z -0.004550 0.000000 1.661650 
# 
# From -- ./inp_files/161050.got.cif
#   From: 2010.05.17/outbox.cif.g08.bks.cpg/sg15_81_cif.got.tgz:161050.got - 2010.06.03 18:47:42.
