data_PCOD9295465
_publ_section_title
;
Structure prediction by ZEFSAII (Michael W. Deem and Ramdas Pophale) SiO2 
 PCOD9295465
Probable space group: C 2/C
;
_chemical_formula_sum "Si O2"
_cell_formula_units_Z 36
_cell_length_a 18.346698
_cell_length_b 8.873425
_cell_length_c 16.851384
_cell_angle_alpha 90.000000
_cell_angle_beta 30.420905
_cell_angle_gamma 90.000000
_cell_volume 1389.102319
_symmetry_space_group_name_H-M "C 2/C"
_symmetry_group_IT_number 15
_symmetry_cell_setting 'monoclinic'
loop_
_space_group_symop_operation_xyz
x,y,z
-x,y,1/2-z
-x,-y,-z
x,-y,1/2+z
1/2+x,1/2+y,z
1/2-x,1/2+y,1/2-z
1/2-x,1/2-y,-z
1/2+x,1/2-y,1/2+z
loop_
_atom_site_type_symbol
_atom_site_label
_atom_site_fract_x
_atom_site_fract_y
_atom_site_fract_z
Si Si1 0.828263 0.184022 0.505389
Si Si2 0.500000 0.438305 0.250000
Si Si3 0.945007 0.763809 0.158926
Si Si4 0.607082 0.014925 0.474703
Si Si5 0.810445 0.947110 0.654071
O O1 0.750000 0.250000 0.500000
O O2 0.910557 0.328267 0.463209
O O3 0.915687 0.047796 0.386367
O O4 0.768148 0.092563 0.639122
O O5 0.409057 0.337298 0.276540
O O6 0.803359 0.685245 0.258730
O O7 0.059192 0.628363 0.069909
O O8 0.034993 0.872390 0.013433
O O9 0.767077 0.017529 0.285971
O O10 0.500000 0.000000 0.500000
#
# Coordination Sequence:
#
# PCOD9295465 Si02
#       5
#     8   4   8   8   8
#     4  11  26  43  71 107 146 191 252 317 373 449
#     4  10  26  42  62 108 144 186 246 308 374 446
#     4  10  23  42  72  98 145 192 246 300 377 448
#     4  10  23  44  71 101 143 192 244 303 376 444
#     4  10  23  46  69 107 142 194 247 312 378 453
#
# _framework density 25.916018999999999
#
# number of rings (size 3 to 8) (size 9 to 14) (size 15 to 20)
#    0.000    1.778    0.000    1.333   12.444    1.778 
#    0.000   10.000    0.000    0.000    0.000    0.000 
#    0.000    0.000    0.000    0.000    0.000    0.000 
#
# Total GULP energy -100563.790235 kJ/mol
# GULP energy per Si atom -5586.877235 kJ/mol
# Density = 2.585703 g / cm^3
# Si number density = 25.916019 Si / 1000 Ang^3
#
#
#
# Elastic Constant Matrix: (Units=GPa)
#
#
# Indices 1 2 3 4 5 6 
#
# 1 115.7600 42.9341 4.9757 0.0000 11.7104 0.0000
# 2 42.9341 151.6247 9.6208 0.0000 19.8098 0.0000
# 3 4.9757 9.6208 81.1356 0.0000 -5.1343 0.0000
# 4 0.0000 0.0000 0.0000 48.3176 0.0000 21.4559
# 5 11.7104 19.8098 -5.1343 0.0000 43.1677 0.0000
# 6 0.0000 0.0000 0.0000 21.4559 0.0000 65.3706
#
#
#
# Elastic Compliance Matrix: (Units=1/GPa)
#
#
# Indices 1 2 3 4 5 6 
#
# 1 0.009751 -0.002536 -0.000394 0.000000 -0.001528 0.000000
# 2 -0.002536 0.007764 -0.000954 0.000000 -0.002989 0.000000
# 3 -0.000394 -0.000954 0.012592 0.000000 0.002042 0.000000
# 4 0.000000 0.000000 0.000000 0.024228 0.000000 -0.007952
# 5 -0.001528 -0.002989 0.002042 0.000000 0.025194 0.000000
# 6 0.000000 0.000000 0.000000 -0.007952 0.000000 0.017907
#
#
# Mechanical properties :
#
#
# Convention : Reuss Voigt Hill
#
# Bulk Modulus (GPa) = 44.76736 51.50907 48.13821
# Shear Modulus (GPa) = 44.38482 50.77051 47.57766
#
# Velocity S-wave (km/s) = 4.14290 4.43091 4.28932
# Velocity P-wave (km/s) = 6.34005 6.78939 6.56856
#
# Compressibility (1/GPa) = 0.02233770
#
# Stress axis : x y z
#
# Youngs Moduli (GPa) = 102.55573 128.79226 79.41799
#
# Poissons Ratio (x) = 0.32667 0.03128
# Poissons Ratio (y) = 0.26012 0.07579
# Poissons Ratio (z) = 0.04040 0.12290
#
# Static dielectric constant tensor:
#      x y z
#    x 2.189740 0.000000 0.092520 
#    y 0.000000 2.171940 0.000000 
#    z 0.092520 0.000000 2.362410 
# 
# From -- ./inp_files/214206.got.cif
#   From: 2010.05.17/outbox.cif.g08.bks.cpg/sg15_108_cif.got.tgz:214206.got - 2010.06.03 18:47:42.
