data_PCOD9295755
_publ_section_title
;
Structure prediction by ZEFSAII (Michael W. Deem and Ramdas Pophale) SiO2 
 PCOD9295755
Probable space group: C 2/C
;
_chemical_formula_sum "Si O2"
_cell_formula_units_Z 56
_cell_length_a 20.564709
_cell_length_b 11.594694
_cell_length_c 10.976013
_cell_angle_alpha 90.000000
_cell_angle_beta 109.432541
_cell_angle_gamma 90.000000
_cell_volume 2468.048883
_symmetry_space_group_name_H-M "C 2/C"
_symmetry_group_IT_number 15
_symmetry_cell_setting 'monoclinic'
loop_
_space_group_symop_operation_xyz
x,y,z
-x,y,1/2-z
-x,-y,-z
x,-y,1/2+z
1/2+x,1/2+y,z
1/2-x,1/2+y,1/2-z
1/2-x,1/2-y,-z
1/2+x,1/2-y,1/2+z
loop_
_atom_site_type_symbol
_atom_site_label
_atom_site_fract_x
_atom_site_fract_y
_atom_site_fract_z
Si Si1 0.181219 0.899480 0.337651
Si Si2 0.500000 0.142788 0.250000
Si Si3 0.394471 0.611938 0.334694
Si Si4 0.722455 0.772432 0.286243
Si Si5 0.543448 0.641563 0.880588
Si Si6 0.557337 0.041073 0.938143
Si Si7 0.000000 0.251202 0.250000
Si Si8 0.789585 0.427049 0.993132
O O1 0.220751 0.816886 0.271055
O O2 0.119379 0.839550 0.371817
O O3 0.144557 0.999259 0.234777
O O4 0.237566 0.964624 0.457027
O O5 0.498954 0.237577 0.140706
O O6 0.442355 0.052657 0.172637
O O7 0.339372 0.713446 0.326336
O O8 0.442095 0.588766 0.480626
O O9 0.439594 0.670364 0.258844
O O10 0.752789 0.672560 0.391538
O O11 0.700132 0.875125 0.364670
O O12 0.500000 0.574524 0.750000
O O13 0.531149 0.162870 0.870453
O O14 0.636961 0.048051 0.024292
O O15 0.500000 0.000000 0.000000
#
# Coordination Sequence:
#
# PCOD9295755 Si02
#       8
#     8   4   8   8   8   8   4   8
#     4  11  25  41  71 100 134 188 229 284 347 411
#     4   9  24  41  58  98 130 163 228 273 350 388
#     4  11  24  47  67 103 136 181 238 276 353 416
#     4  10  23  45  67  99 138 181 229 281 348 411
#     4  10  25  46  63 100 137 179 227 292 339 410
#     4  11  23  40  68  99 132 180 225 282 342 404
#     4  11  24  41  72  98 140 183 222 289 336 414
#     4  10  23  43  68  99 139 175 232 282 341 425
#
# _framework density 22.689986999999999
#
# number of rings (size 3 to 8) (size 9 to 14) (size 15 to 20)
#    0.429    1.143    1.429    1.714    7.000    1.143 
#    2.571    0.000    0.000    0.000    0.000    0.000 
#    0.000    0.000    0.000    0.000    0.000    0.000 
#
# Total GULP energy -156256.915620 kJ/mol
# GULP energy per Si atom -5580.604129 kJ/mol
# Density = 2.263834 g / cm^3
# Si number density = 22.689987 Si / 1000 Ang^3
#
#
#
# Elastic Constant Matrix: (Units=GPa)
#
#
# Indices 1 2 3 4 5 6 
#
# 1 118.9098 18.2618 11.8261 0.0000 -4.3261 0.0000
# 2 18.2618 58.8531 10.1517 0.0000 -0.3632 0.0000
# 3 11.8261 10.1517 86.5930 0.0000 8.2476 0.0000
# 4 0.0000 0.0000 0.0000 -5.5630 0.0000 0.8162
# 5 -4.3261 -0.3632 8.2476 0.0000 33.9495 0.0000
# 6 0.0000 0.0000 0.0000 0.8162 0.0000 37.5099
#
#
#
# Elastic Compliance Matrix: (Units=1/GPa)
#
#
# Indices 1 2 3 4 5 6 
#
# 1 0.008962 -0.002591 -0.001051 0.000000 0.001370 0.000000
# 2 -0.002591 0.018107 -0.001798 0.000000 0.000300 0.000000
# 3 -0.001051 -0.001798 0.012199 0.000000 -0.003117 0.000000
# 4 0.000000 0.000000 0.000000 -0.179187 0.000000 0.003899
# 5 0.001370 0.000300 -0.003117 0.000000 0.030390 0.000000
# 6 0.000000 0.000000 0.000000 0.003899 0.000000 0.026575
#
#
# Mechanical properties :
#
#
# Convention : Reuss Voigt Hill
#
# Bulk Modulus (GPa) = 35.22354 38.31500 36.76927
# Shear Modulus (GPa) = -79.85781 28.12036 -25.86872
#
# Velocity S-wave (km/s) = -5.93899 3.52423 -3.38019
# Velocity P-wave (km/s) = 5.60992 5.78647 1.00299
#
# Compressibility (1/GPa) = 0.02839010
#
# Stress axis : x y z
#
# Youngs Moduli (GPa) = 111.58230 55.22603 81.97154
#
# Poissons Ratio (x) = 0.14310 0.08612
# Poissons Ratio (y) = 0.28913 0.14735
# Poissons Ratio (z) = 0.11723 0.09927
#
# Static dielectric constant tensor:
#      x y z
#    x 1.843390 0.000000 0.000080 
#    y 0.000000 1.846980 0.000000 
#    z 0.000080 0.000000 1.889740 
# 
# From -- ./inp_files/111711.got.cif
#   From: 2010.05.17/outbox.cif.g08.bks.cpg/sg15_56_cif.got.tgz:111711.got - 2010.06.03 18:47:42.
