data_PCOD9295566
_publ_section_title
;
Structure prediction by ZEFSAII (Michael W. Deem and Ramdas Pophale) SiO2 
 PCOD9295566
Probable space group: C 2/C
;
_chemical_formula_sum "Si O2"
_cell_formula_units_Z 52
_cell_length_a 6.878659
_cell_length_b 24.510579
_cell_length_c 20.770107
_cell_angle_alpha 90.000000
_cell_angle_beta 129.928736
_cell_angle_gamma 90.000000
_cell_volume 2685.361370
_symmetry_space_group_name_H-M "C 2/C"
_symmetry_group_IT_number 15
_symmetry_cell_setting 'monoclinic'
loop_
_space_group_symop_operation_xyz
x,y,z
-x,y,1/2-z
-x,-y,-z
x,-y,1/2+z
1/2+x,1/2+y,z
1/2-x,1/2+y,1/2-z
1/2-x,1/2-y,-z
1/2+x,1/2-y,1/2+z
loop_
_atom_site_type_symbol
_atom_site_label
_atom_site_fract_x
_atom_site_fract_y
_atom_site_fract_z
Si Si1 0.080675 0.231465 0.900434
Si Si2 0.000000 0.227511 0.250000
Si Si3 0.726782 0.687531 0.166854
Si Si4 0.005456 0.086935 0.043144
Si Si5 0.842167 0.490637 0.158832
Si Si6 0.025706 0.102041 0.899838
Si Si7 0.033083 0.540973 0.566561
O O1 0.220357 0.260408 0.868943
O O2 0.060006 0.165979 0.895392
O O3 0.778970 0.246811 0.828536
O O4 0.250000 0.250000 0.000000
O O5 0.932880 0.198680 0.303015
O O6 0.601770 0.639474 0.100212
O O7 0.000000 0.669141 0.250000
O O8 0.108708 0.030199 0.093447
O O9 0.101425 0.091366 0.990302
O O10 0.702791 0.082800 0.982487
O O11 0.740607 0.430725 0.158031
O O12 0.000000 0.515166 0.250000
O O13 0.009032 0.487680 0.130185
O O14 0.206650 0.071655 0.888753
O O15 0.000000 0.500000 0.500000
#
# Coordination Sequence:
#
# PCOD9295566 Si02
#       7
#     8   4   8   8   8   8   8
#     4  11  24  44  71  95 130 175 219 274 330 395
#     4  10  26  46  64 100 138 168 224 272 324 394
#     4  10  23  43  64  98 132 167 214 273 331 388
#     4  11  21  40  68  92 126 165 214 273 320 392
#     4  11  24  41  62  94 131 167 211 276 332 381
#     4  11  23  42  65  93 126 168 223 263 320 400
#     4  11  21  41  64  88 123 168 214 256 322 397
#
# _framework density 19.364246999999999
#
# number of rings (size 3 to 8) (size 9 to 14) (size 15 to 20)
#    0.000    1.231    4.615    1.385    3.231    3.692 
#    8.308    0.000    0.000    0.000    0.000    0.000 
#    0.000    0.000    0.000    0.000    0.000    0.000 
#
# Total GULP energy -144810.858726 kJ/mol
# GULP energy per Si atom -5569.648413 kJ/mol
# Density = 1.932017 g / cm^3
# Si number density = 19.364247 Si / 1000 Ang^3
#
#
#
# Elastic Constant Matrix: (Units=GPa)
#
#
# Indices 1 2 3 4 5 6 
#
# 1 124.6616 29.2258 31.5974 0.0000 -19.0149 0.0000
# 2 29.2258 82.5144 10.2369 0.0000 -5.2318 0.0000
# 3 31.5974 10.2369 83.5105 0.0000 -5.0846 0.0000
# 4 0.0000 0.0000 0.0000 3.0543 0.0000 23.4218
# 5 -19.0149 -5.2318 -5.0846 0.0000 15.9604 0.0000
# 6 0.0000 0.0000 0.0000 23.4218 0.0000 -12.0427
#
#
#
# Elastic Compliance Matrix: (Units=1/GPa)
#
#
# Indices 1 2 3 4 5 6 
#
# 1 0.011252 -0.002861 -0.003210 0.000000 0.011445 0.000000
# 2 -0.002861 0.013243 -0.000494 0.000000 0.000775 0.000000
# 3 -0.003210 -0.000494 0.013264 0.000000 0.000240 0.000000
# 4 0.000000 0.000000 0.000000 0.020573 0.000000 0.040012
# 5 0.011445 0.000775 0.000240 0.000000 0.076620 0.000000
# 6 0.000000 0.000000 0.000000 0.040012 0.000000 -0.005218
#
#
# Mechanical properties :
#
#
# Convention : Reuss Voigt Hill
#
# Bulk Modulus (GPa) = 40.60171 48.08965 44.34568
# Shear Modulus (GPa) = 33.09651 16.03617 24.56634
#
# Velocity S-wave (km/s) = 4.13868 2.88085 3.56567
# Velocity P-wave (km/s) = 6.62202 5.99616 6.31684
#
# Compressibility (1/GPa) = 0.02462951
#
# Stress axis : x y z
#
# Youngs Moduli (GPa) = 88.87495 75.51192 75.39159
#
# Poissons Ratio (x) = 0.21607 0.24198
# Poissons Ratio (y) = 0.25431 0.03721
# Poissons Ratio (z) = 0.28526 0.03727
#
# Static dielectric constant tensor:
#      x y z
#    x 1.669410 0.000000 0.006040 
#    y 0.000000 1.683010 0.000000 
#    z 0.006040 0.000000 1.699070 
# 
# From -- ./inp_files/185792.got.cif
#   From: 2010.05.17/outbox.cif.g08.bks.cpg/sg15_93_cif.got.tgz:185792.got - 2010.06.03 18:47:42.
