data_PCOD9295168
_publ_section_title
;
Structure prediction by ZEFSAII (Michael W. Deem and Ramdas Pophale) SiO2 
 PCOD9295168
Probable space group: C 2/C
;
_chemical_formula_sum "Si O2"
_cell_formula_units_Z 48
_cell_length_a 20.807694
_cell_length_b 18.767473
_cell_length_c 8.975752
_cell_angle_alpha 90.000000
_cell_angle_beta 141.607391
_cell_angle_gamma 90.000000
_cell_volume 2176.831642
_symmetry_space_group_name_H-M "C 2/C"
_symmetry_group_IT_number 15
_symmetry_cell_setting 'monoclinic'
loop_
_space_group_symop_operation_xyz
x,y,z
-x,y,1/2-z
-x,-y,-z
x,-y,1/2+z
1/2+x,1/2+y,z
1/2-x,1/2+y,1/2-z
1/2-x,1/2-y,-z
1/2+x,1/2-y,1/2+z
loop_
_atom_site_type_symbol
_atom_site_label
_atom_site_fract_x
_atom_site_fract_y
_atom_site_fract_z
Si Si1 0.896225 0.232122 0.461306
Si Si2 0.711432 0.538245 0.490606
Si Si3 0.475420 0.629720 0.380577
Si Si4 0.424988 0.016552 0.727250
Si Si5 0.686093 0.627141 0.955028
Si Si6 0.184504 0.376586 0.081980
O O1 0.918502 0.200372 0.339661
O O2 0.823477 0.177041 0.419399
O O3 0.856486 0.312230 0.394506
O O4 0.000000 0.233088 0.750000
O O5 0.603622 0.564805 0.226786
O O6 0.815868 0.549198 0.582964
O O7 0.710473 0.455360 0.531746
O O8 0.724691 0.584892 0.662735
O O9 0.500000 0.631650 0.250000
O O10 0.578208 0.625374 0.667703
O O11 0.500000 0.058158 0.750000
O O12 0.392392 0.941381 0.592945
O O13 0.500000 0.000000 0.000000
O O14 0.773398 0.652859 0.997926
#
# Coordination Sequence:
#
# PCOD9295168 Si02
#       6
#     8   8   8   8   8   8
#     4  10  24  41  67  94 136 186 226 271 340 410
#     4  11  24  38  70  99 134 176 225 287 335 393
#     4  11  23  43  66  99 141 174 225 280 337 400
#     4  11  23  41  65  95 133 175 229 278 337 394
#     4  10  23  42  66 101 132 181 226 274 345 402
#     4  11  22  42  69  96 136 177 226 284 333 402
#
# _framework density 22.050397
#
# number of rings (size 3 to 8) (size 9 to 14) (size 15 to 20)
#    0.000    1.333    3.333    1.500    4.667    2.667 
#    0.000    0.833    0.000    0.000    0.000    0.000 
#    0.000    0.000    0.000    0.000    0.000    0.000 
#
# Total GULP energy -134054.167019 kJ/mol
# GULP energy per Si atom -5585.590292 kJ/mol
# Density = 2.200021 g / cm^3
# Si number density = 22.050397 Si / 1000 Ang^3
#
#
#
# Elastic Constant Matrix: (Units=GPa)
#
#
# Indices 1 2 3 4 5 6 
#
# 1 124.1633 24.6349 16.4977 0.0000 1.5952 0.0000
# 2 24.6349 90.6326 -8.3916 0.0000 -0.1098 0.0000
# 3 16.4977 -8.3916 39.5061 0.0000 4.8502 0.0000
# 4 0.0000 0.0000 0.0000 15.7977 0.0000 -16.2720
# 5 1.5952 -0.1098 4.8502 0.0000 23.0003 0.0000
# 6 0.0000 0.0000 0.0000 -16.2720 0.0000 -16.2217
#
#
#
# Elastic Compliance Matrix: (Units=1/GPa)
#
#
# Indices 1 2 3 4 5 6 
#
# 1 0.009230 -0.002926 -0.004513 0.000000 0.000297 0.000000
# 2 -0.002926 0.012187 0.003879 0.000000 -0.000557 0.000000
# 3 -0.004513 0.003879 0.028724 0.000000 -0.005726 0.000000
# 4 0.000000 0.000000 0.000000 0.031133 0.000000 -0.031230
# 5 0.000297 -0.000557 -0.005726 0.000000 0.044662 0.000000
# 6 0.000000 0.000000 0.000000 -0.031230 0.000000 -0.030319
#
#
# Mechanical properties :
#
#
# Convention : Reuss Voigt Hill
#
# Bulk Modulus (GPa) = 23.24392 35.53156 29.38774
# Shear Modulus (GPa) = 42.70671 19.28599 30.99635
#
# Velocity S-wave (km/s) = 4.40566 2.96063 3.75334
# Velocity P-wave (km/s) = 6.03688 5.27597 5.66921
#
# Compressibility (1/GPa) = 0.04302201
#
# Stress axis : x y z
#
# Youngs Moduli (GPa) = 108.33880 82.05152 34.81415
#
# Poissons Ratio (x) = 0.24011 0.15710
# Poissons Ratio (y) = 0.31704 -0.13505
# Poissons Ratio (z) = 0.48890 -0.31829
#
# Static dielectric constant tensor:
#      x y z
#    x 1.636840 0.000000 0.046200 
#    y 0.000000 1.784160 0.000000 
#    z 0.046200 0.000000 1.860190 
# 
# From -- ./inp_files/57963.got.cif
#   From: 2010.05.17/outbox.cif.g08.bks.cpg/sg15_29_cif.got.tgz:57963.got - 2010.06.03 18:47:42.
