data_PCOD9295605
_publ_section_title
;
Structure prediction by ZEFSAII (Michael W. Deem and Ramdas Pophale) SiO2 
 PCOD9295605
Probable space group: C 2/C
;
_chemical_formula_sum "Si O2"
_cell_formula_units_Z 44
_cell_length_a 8.103402
_cell_length_b 14.197090
_cell_length_c 22.512922
_cell_angle_alpha 90.000000
_cell_angle_beta 47.837510
_cell_angle_gamma 90.000000
_cell_volume 1919.817259
_symmetry_space_group_name_H-M "C 2/C"
_symmetry_group_IT_number 15
_symmetry_cell_setting 'monoclinic'
loop_
_space_group_symop_operation_xyz
x,y,z
-x,y,1/2-z
-x,-y,-z
x,-y,1/2+z
1/2+x,1/2+y,z
1/2-x,1/2+y,1/2-z
1/2-x,1/2-y,-z
1/2+x,1/2-y,1/2+z
loop_
_atom_site_type_symbol
_atom_site_label
_atom_site_fract_x
_atom_site_fract_y
_atom_site_fract_z
Si Si1 0.763857 0.728506 0.682963
Si Si2 0.100917 0.582421 0.600743
Si Si3 0.000000 0.500769 0.250000
Si Si4 0.210814 0.874279 0.733745
Si Si5 0.506214 0.280261 0.990061
Si Si6 0.900685 0.616622 0.454052
O O1 0.500000 0.733680 0.750000
O O2 0.858680 0.776229 0.719361
O O3 0.863662 0.784381 0.603223
O O4 0.852779 0.623258 0.655648
O O5 0.117218 0.552119 0.666218
O O6 0.271903 0.666689 0.545512
O O7 0.129434 0.494781 0.549187
O O8 0.812400 0.562615 0.261914
O O9 0.415132 0.857834 0.639950
O O10 0.000000 0.914983 0.750000
O O11 0.661615 0.337500 0.998351
O O12 0.506953 0.171109 0.010620
#
# Coordination Sequence:
#
# PCOD9295605 Si02
#       6
#     8   8   4   8   8   8
#     4  12  24  44  72 106 147 191 242 300 361 440
#     4  11  25  40  71 107 140 196 245 293 377 437
#     4  10  24  46  66 106 148 180 248 312 346 440
#     4  11  22  44  75 101 141 194 239 295 372 429
#     4  11  23  45  72  99 147 197 235 305 373 426
#     4  10  23  43  66 104 144 185 247 305 358 437
#
# _framework density 22.918847
#
# number of rings (size 3 to 8) (size 9 to 14) (size 15 to 20)
#    0.000    1.091    2.727    3.273    3.818    3.636 
#    0.000    3.636    0.000    0.000    0.000    0.000 
#    0.000    0.000    0.000    0.000    0.000    0.000 
#
# Total GULP energy -122930.801956 kJ/mol
# GULP energy per Si atom -5587.763725 kJ/mol
# Density = 2.286668 g / cm^3
# Si number density = 22.918847 Si / 1000 Ang^3
#
#
#
# Elastic Constant Matrix: (Units=GPa)
#
#
# Indices 1 2 3 4 5 6 
#
# 1 115.6401 54.5379 43.1940 -0.0001 -8.8638 0.0001
# 2 54.5379 85.0558 38.3996 -0.0005 -6.1936 0.0003
# 3 43.1940 38.3996 113.3262 -0.0001 -0.3277 0.0001
# 4 -0.0001 -0.0005 -0.0001 46.8305 0.0002 7.1643
# 5 -8.8638 -6.1936 -0.3277 0.0002 28.8555 -0.0002
# 6 0.0001 0.0003 0.0001 7.1643 -0.0002 22.0103
#
#
#
# Elastic Compliance Matrix: (Units=1/GPa)
#
#
# Indices 1 2 3 4 5 6 
#
# 1 0.013148 -0.007072 -0.002608 0.000000 0.002491 0.000000
# 2 -0.007072 0.017935 -0.003377 0.000000 0.001639 0.000000
# 3 -0.002608 -0.003377 0.010958 0.000000 -0.001401 0.000000
# 4 0.000000 0.000000 0.000000 0.022473 0.000000 -0.007315
# 5 0.002491 0.001639 -0.001401 0.000000 0.035757 0.000000
# 6 0.000000 0.000000 0.000000 -0.007315 0.000000 0.047814
#
#
# Mechanical properties :
#
#
# Convention : Reuss Voigt Hill
#
# Bulk Modulus (GPa) = 62.78201 65.14279 63.96240
# Shear Modulus (GPa) = 27.85405 31.39865 29.62635
#
# Velocity S-wave (km/s) = 3.48995 3.70536 3.59926
# Velocity P-wave (km/s) = 6.61001 6.84041 6.72620
#
# Compressibility (1/GPa) = 0.01592813
#
# Stress axis : x y z
#
# Youngs Moduli (GPa) = 76.05947 55.75602 91.25469
#
# Poissons Ratio (x) = 0.39428 0.23798
# Poissons Ratio (y) = 0.53786 0.30818
# Poissons Ratio (z) = 0.19835 0.18830
#
# Static dielectric constant tensor:
#      x y z
#    x 1.887740 0.000000 0.022630 
#    y 0.000000 1.905470 0.000000 
#    z 0.022630 0.000000 1.801250 
# 
# From -- ./inp_files/288581.got.cif
#   From: 2010.05.17/outbox.cif.g08.bks.cpg/sg15_145_cif.got.tgz:288581.got - 2010.06.03 18:47:42.
