data_PCOD9295127
_publ_section_title
;
Structure prediction by ZEFSAII (Michael W. Deem and Ramdas Pophale) SiO2 
 PCOD9295127
Probable space group: C 2/C
;
_chemical_formula_sum "Si O2"
_cell_formula_units_Z 52
_cell_length_a 9.103431
_cell_length_b 11.811774
_cell_length_c 24.147233
_cell_angle_alpha 90.000000
_cell_angle_beta 110.784469
_cell_angle_gamma 90.000000
_cell_volume 2427.520685
_symmetry_space_group_name_H-M "C 2/C"
_symmetry_group_IT_number 15
_symmetry_cell_setting 'monoclinic'
loop_
_space_group_symop_operation_xyz
x,y,z
-x,y,1/2-z
-x,-y,-z
x,-y,1/2+z
1/2+x,1/2+y,z
1/2-x,1/2+y,1/2-z
1/2-x,1/2-y,-z
1/2+x,1/2-y,1/2+z
loop_
_atom_site_type_symbol
_atom_site_label
_atom_site_fract_x
_atom_site_fract_y
_atom_site_fract_z
Si Si1 0.509122 0.683607 0.955220
Si Si2 0.723274 0.869741 0.923302
Si Si3 0.330000 0.869331 0.103331
Si Si4 0.525366 0.592696 0.844409
Si Si5 0.500000 0.582841 0.250000
Si Si6 0.828294 0.703914 0.849352
Si Si7 0.765959 0.277725 0.212850
O O1 0.592497 0.791980 0.937162
O O2 0.323737 0.695348 0.940593
O O3 0.512845 0.585303 0.908472
O O4 0.617758 0.647882 0.020125
O O5 0.760400 0.817634 0.867924
O O6 0.676319 0.999770 0.914087
O O7 0.494873 0.816341 0.107798
O O8 0.319762 0.856718 0.169104
O O9 0.459704 0.493825 0.797400
O O10 0.706782 0.609722 0.854353
O O11 0.421364 0.703179 0.813363
O O12 0.350324 0.658537 0.213143
O O13 0.821557 0.697735 0.782307
#
# Coordination Sequence:
#
# PCOD9295127 Si02
#       7
#     8   8   8   8   4   8   8
#     4   9  22  45  64  96 126 161 223 256 306 390
#     4  10  23  44  68  89 130 172 202 268 319 356
#     4  11  23  40  64  94 128 163 211 261 313 371
#     4  10  23  42  65  87 129 167 204 261 317 369
#     4  12  22  40  66  86 128 170 198 268 320 356
#     4  11  22  41  61  98 126 162 220 249 310 394
#     4  11  23  40  59  97 127 157 218 253 305 395
#
# _framework density 21.421033000000001
#
# number of rings (size 3 to 8) (size 9 to 14) (size 15 to 20)
#    0.000    1.538    3.077    0.462    4.308    4.308 
#    0.000   14.615    0.000    0.000    0.000    0.000 
#    0.000    0.000    0.000    0.000    0.000    0.000 
#
# Total GULP energy -145061.478926 kJ/mol
# GULP energy per Si atom -5579.287651 kJ/mol
# Density = 2.137228 g / cm^3
# Si number density = 21.421033 Si / 1000 Ang^3
#
#
#
# Elastic Constant Matrix: (Units=GPa)
#
#
# Indices 1 2 3 4 5 6 
#
# 1 103.2226 32.3733 16.0653 0.0000 37.1861 0.0000
# 2 32.3733 57.4944 18.9299 0.0000 6.5703 0.0000
# 3 16.0653 18.9299 79.1708 0.0000 14.6234 0.0000
# 4 0.0000 0.0000 0.0000 24.6326 0.0000 3.8852
# 5 37.1861 6.5703 14.6234 0.0000 35.4910 0.0000
# 6 0.0000 0.0000 0.0000 3.8852 0.0000 15.3183
#
#
#
# Elastic Compliance Matrix: (Units=1/GPa)
#
#
# Indices 1 2 3 4 5 6 
#
# 1 0.019202 -0.009231 0.001852 0.000000 -0.019173 0.000000
# 2 -0.009231 0.023420 -0.005100 0.000000 0.007437 0.000000
# 3 0.001852 -0.005100 0.014784 0.000000 -0.007088 0.000000
# 4 0.000000 0.000000 0.000000 0.042288 0.000000 -0.010726
# 5 -0.019173 0.007437 -0.007088 0.000000 0.049808 0.000000
# 6 0.000000 0.000000 0.000000 -0.010726 0.000000 0.068002
#
#
# Mechanical properties :
#
#
# Convention : Reuss Voigt Hill
#
# Bulk Modulus (GPa) = 30.81918 41.62497 36.22208
# Shear Modulus (GPa) = 19.74125 26.58969 23.16547
#
# Velocity S-wave (km/s) = 3.03905 3.52702 3.29209
# Velocity P-wave (km/s) = 5.17040 6.00504 5.60328
#
# Compressibility (1/GPa) = 0.03244733
#
# Stress axis : x y z
#
# Youngs Moduli (GPa) = 52.07915 42.69889 67.64180
#
# Poissons Ratio (x) = 0.39413 -0.12528
# Poissons Ratio (y) = 0.48072 0.34500
# Poissons Ratio (z) = -0.09645 0.21778
#
# Static dielectric constant tensor:
#      x y z
#    x 1.858340 0.000000 -0.008130 
#    y 0.000000 1.774120 0.000000 
#    z -0.008130 0.000000 1.783190 
# 
# From -- ./inp_files/288122.got.cif
#   From: 2010.05.17/outbox.cif.g08.bks.cpg/sg15_145_cif.got.tgz:288122.got - 2010.06.03 18:47:42.
