data_PCOD9295455
_publ_section_title
;
Structure prediction by ZEFSAII (Michael W. Deem and Ramdas Pophale) SiO2 
 PCOD9295455
Probable space group: C 2/C
;
_chemical_formula_sum "Si O2"
_cell_formula_units_Z 64
_cell_length_a 15.843891
_cell_length_b 15.433599
_cell_length_c 13.017910
_cell_angle_alpha 90.000000
_cell_angle_beta 55.825361
_cell_angle_gamma 90.000000
_cell_volume 2633.593385
_symmetry_space_group_name_H-M "C 2/C"
_symmetry_group_IT_number 15
_symmetry_cell_setting 'monoclinic'
loop_
_space_group_symop_operation_xyz
x,y,z
-x,y,1/2-z
-x,-y,-z
x,-y,1/2+z
1/2+x,1/2+y,z
1/2-x,1/2+y,1/2-z
1/2-x,1/2-y,-z
1/2+x,1/2-y,1/2+z
loop_
_atom_site_type_symbol
_atom_site_label
_atom_site_fract_x
_atom_site_fract_y
_atom_site_fract_z
Si Si1 0.136779 0.239103 0.117161
Si Si2 0.014941 0.367943 0.049978
Si Si3 0.119902 0.777546 0.868794
Si Si4 0.644229 0.453439 0.316672
Si Si5 0.119512 0.821964 0.177738
Si Si6 0.469302 0.578777 0.407520
Si Si7 0.866444 0.522703 0.194107
Si Si8 0.716536 0.856409 0.594708
O O1 0.069912 0.308893 0.098900
O O2 0.138958 0.248441 0.237840
O O3 0.091095 0.142920 0.127122
O O4 0.250000 0.250000 0.000000
O O5 0.933143 0.306563 0.048061
O O6 0.949687 0.446888 0.140229
O O7 0.092640 0.405745 0.913639
O O8 0.216648 0.816296 0.857853
O O9 0.037049 0.853648 0.926757
O O10 0.645073 0.355234 0.274676
O O11 0.554510 0.507321 0.319560
O O12 0.611783 0.460196 0.457690
O O13 0.756939 0.490366 0.228199
O O14 0.141562 0.724113 0.127390
O O15 0.000000 0.838068 0.250000
O O16 0.200899 0.873760 0.050726
O O17 0.844886 0.562735 0.320542
#
# Coordination Sequence:
#
# PCOD9295455 Si02
#       8
#     8   8   8   8   8   8   8   8
#     4  11  25  43  71 114 142 189 229 292 357 441
#     4  10  24  44  70 106 144 183 233 283 358 426
#     4  11  22  47  71 100 142 182 232 287 352 424
#     4  11  24  46  72 103 140 186 230 301 350 415
#     4  11  27  46  72 102 136 187 244 292 345 421
#     4  10  23  42  72 105 142 182 231 287 359 416
#     4  11  24  46  72 104 141 188 229 295 359 419
#     4  11  25  48  73 102 136 190 242 287 354 427
#
# _framework density 24.301397999999999
#
# number of rings (size 3 to 8) (size 9 to 14) (size 15 to 20)
#    0.000    1.250    1.250    3.750   10.500    1.000 
#    6.750    0.000    0.000    0.000    0.000    0.000 
#    0.000    0.000    0.000    0.000    0.000    0.000 
#
# Total GULP energy -179027.749778 kJ/mol
# GULP energy per Si atom -5594.617181 kJ/mol
# Density = 2.424609 g / cm^3
# Si number density = 24.301398 Si / 1000 Ang^3
#
#
#
# Elastic Constant Matrix: (Units=GPa)
#
#
# Indices 1 2 3 4 5 6 
#
# 1 57.4460 16.4186 44.8667 0.0000 -6.5818 0.0000
# 2 16.4186 51.7413 20.8350 0.0000 -8.2990 0.0000
# 3 44.8667 20.8350 125.6744 0.0000 -36.7281 0.0000
# 4 0.0000 0.0000 0.0000 41.1298 0.0000 0.9896
# 5 -6.5818 -8.2990 -36.7281 0.0000 38.9641 0.0000
# 6 0.0000 0.0000 0.0000 0.9896 0.0000 10.7186
#
#
#
# Elastic Compliance Matrix: (Units=1/GPa)
#
#
# Indices 1 2 3 4 5 6 
#
# 1 0.026285 -0.005185 -0.010420 0.000000 -0.006486 0.000000
# 2 -0.005185 0.021807 -0.000915 0.000000 0.002907 0.000000
# 3 -0.010420 -0.000915 0.015538 0.000000 0.012691 0.000000
# 4 0.000000 0.000000 0.000000 0.024367 0.000000 -0.002250
# 5 -0.006486 0.002907 0.012691 0.000000 0.037151 0.000000
# 6 0.000000 0.000000 0.000000 -0.002250 0.000000 0.093504
#
#
# Mechanical properties :
#
#
# Convention : Reuss Voigt Hill
#
# Bulk Modulus (GPa) = 32.69071 44.34471 38.51771
# Shear Modulus (GPa) = 19.09226 28.34527 23.71877
#
# Velocity S-wave (km/s) = 2.80598 3.41897 3.12753
# Velocity P-wave (km/s) = 4.89688 5.82007 5.37832
#
# Compressibility (1/GPa) = 0.03058973
#
# Stress axis : x y z
#
# Youngs Moduli (GPa) = 38.04522 45.85726 64.36029
#
# Poissons Ratio (x) = 0.23778 0.67062
# Poissons Ratio (y) = 0.19727 0.05887
# Poissons Ratio (z) = 0.39642 0.04194
#
# Static dielectric constant tensor:
#      x y z
#    x 1.972040 0.000000 0.032230 
#    y 0.000000 1.968790 0.000000 
#    z 0.032230 0.000000 1.956640 
# 
# From -- ./inp_files/162527.got.cif
#   From: 2010.05.17/outbox.cif.g08.bks.cpg/sg15_82_cif.got.tgz:162527.got - 2010.06.03 18:47:42.
