data_PCOD9295913
_publ_section_title
;
Structure prediction by ZEFSAII (Michael W. Deem and Ramdas Pophale) SiO2 
 PCOD9295913
Probable space group: C 2/C
;
_chemical_formula_sum "Si O2"
_cell_formula_units_Z 32
_cell_length_a 23.295086
_cell_length_b 4.894718
_cell_length_c 9.912508
_cell_angle_alpha 90.000000
_cell_angle_beta 80.914756
_cell_angle_gamma 90.000000
_cell_volume 1116.073100
_symmetry_space_group_name_H-M "C 2/C"
_symmetry_group_IT_number 15
_symmetry_cell_setting 'monoclinic'
loop_
_space_group_symop_operation_xyz
x,y,z
-x,y,1/2-z
-x,-y,-z
x,-y,1/2+z
1/2+x,1/2+y,z
1/2-x,1/2+y,1/2-z
1/2-x,1/2-y,-z
1/2+x,1/2-y,1/2+z
loop_
_atom_site_type_symbol
_atom_site_label
_atom_site_fract_x
_atom_site_fract_y
_atom_site_fract_z
Si Si1 0.153931 0.546012 0.534197
Si Si2 0.715134 0.691892 0.710462
Si Si3 0.468677 0.205848 0.904735
Si Si4 0.622706 0.537044 0.408799
O O1 0.203865 0.388010 0.589011
O O2 0.090530 0.560780 0.628160
O O3 0.164770 0.857115 0.490805
O O4 0.135946 0.352717 0.414746
O O5 0.753141 0.417137 0.704063
O O6 0.648875 0.585193 0.763931
O O7 0.500000 0.281014 0.750000
O O8 0.439761 0.444475 0.011482
O O9 0.500000 0.000000 0.000000
#
# Coordination Sequence:
#
# PCOD9295913 Si02
#       4
#     8   8   8   8
#     4  10  24  42  64  98 134 168 232 272 332 408
#     4  12  25  41  69  95 136 183 222 277 344 394
#     4  10  23  43  72  98 136 178 223 281 348 394
#     4  10  24  42  65  97 134 168 231 273 332 408
#
# _framework density 28.671956999999999
#
# number of rings (size 3 to 8) (size 9 to 14) (size 15 to 20)
#    1.500    0.000    0.000    4.500    0.000   10.000 
#    0.000    0.000    0.000    0.000    0.000    0.000 
#    0.000    0.000    0.000    0.000    0.000    0.000 
#
# Total GULP energy -89177.427795 kJ/mol
# GULP energy per Si atom -5573.589237 kJ/mol
# Density = 2.860670 g / cm^3
# Si number density = 28.671957 Si / 1000 Ang^3
#
#
#
# Elastic Constant Matrix: (Units=GPa)
#
#
# Indices 1 2 3 4 5 6 
#
# 1 115.9273 23.5929 25.7863 0.0000 -22.3603 0.0000
# 2 23.5929 142.8965 19.8036 0.0000 -7.3848 0.0000
# 3 25.7863 19.8036 103.8993 0.0000 -12.7439 0.0000
# 4 0.0000 0.0000 0.0000 49.5742 0.0000 -2.0023
# 5 -22.3603 -7.3848 -12.7439 0.0000 62.8504 0.0000
# 6 0.0000 0.0000 0.0000 -2.0023 0.0000 47.6413
#
#
#
# Elastic Compliance Matrix: (Units=1/GPa)
#
#
# Indices 1 2 3 4 5 6 
#
# 1 0.009862 -0.001217 -0.001849 0.000000 0.002991 0.000000
# 2 -0.001217 0.007359 -0.001074 0.000000 0.000214 0.000000
# 3 -0.001849 -0.001074 0.010452 0.000000 0.001335 0.000000
# 4 0.000000 0.000000 0.000000 0.020206 0.000000 0.000849
# 5 0.002991 0.000214 0.001335 0.000000 0.017271 0.000000
# 6 0.000000 0.000000 0.000000 0.000849 0.000000 0.021026
#
#
# Mechanical properties :
#
#
# Convention : Reuss Voigt Hill
#
# Bulk Modulus (GPa) = 51.56748 55.67653 53.62200
# Shear Modulus (GPa) = 49.54388 51.58253 50.56321
#
# Velocity S-wave (km/s) = 4.16138 4.24613 4.20397
# Velocity P-wave (km/s) = 6.41201 6.59546 6.50438
#
# Compressibility (1/GPa) = 0.01939207
#
# Stress axis : x y z
#
# Youngs Moduli (GPa) = 101.39995 135.88780 95.67478
#
# Poissons Ratio (x) = 0.16544 0.17687
# Poissons Ratio (y) = 0.12345 0.10278
# Poissons Ratio (z) = 0.18746 0.14598
#
# Static dielectric constant tensor:
#      x y z
#    x 2.299490 0.000000 -0.006100 
#    y 0.000000 2.108240 0.000000 
#    z -0.006100 0.000000 2.629510 
# 
# From -- ./inp_files/120451.got.cif
#   From: 2010.05.17/outbox.cif.g08.bks.cpg/sg15_61_cif.got.tgz:120451.got - 2010.06.03 18:47:42.
