data_PCOD9295348
_publ_section_title
;
Structure prediction by ZEFSAII (Michael W. Deem and Ramdas Pophale) SiO2 
 PCOD9295348
Probable space group: C 2/C
;
_chemical_formula_sum "Si O2"
_cell_formula_units_Z 32
_cell_length_a 13.035127
_cell_length_b 7.099830
_cell_length_c 14.059364
_cell_angle_alpha 90.000000
_cell_angle_beta 88.817548
_cell_angle_gamma 90.000000
_cell_volume 1300.877491
_symmetry_space_group_name_H-M "C 2/C"
_symmetry_group_IT_number 15
_symmetry_cell_setting 'monoclinic'
loop_
_space_group_symop_operation_xyz
x,y,z
-x,y,1/2-z
-x,-y,-z
x,-y,1/2+z
1/2+x,1/2+y,z
1/2-x,1/2+y,1/2-z
1/2-x,1/2-y,-z
1/2+x,1/2-y,1/2+z
loop_
_atom_site_type_symbol
_atom_site_label
_atom_site_fract_x
_atom_site_fract_y
_atom_site_fract_z
Si Si1 0.962098 0.202617 0.966025
Si Si2 0.790891 0.161166 0.124217
Si Si3 0.155376 0.325274 0.062277
Si Si4 0.358124 0.466370 0.302922
O O1 0.944377 0.665861 0.002912
O O2 0.938645 0.170640 0.854874
O O3 0.858739 0.219031 0.032074
O O4 0.000000 0.000000 0.000000
O O5 0.746898 0.349452 0.174795
O O6 0.696031 0.020671 0.103389
O O7 0.859436 0.034053 0.194564
O O8 0.137448 0.164523 0.141126
O O9 0.250000 0.250000 0.000000
#
# Coordination Sequence:
#
# PCOD9295348 Si02
#       4
#     8   8   8   8
#     4  10  23  42  69  95 133 178 218 276 337 400
#     4  12  23  44  70  97 138 172 228 276 334 405
#     4  11  23  45  68  95 133 178 221 277 340 394
#     4  11  24  42  67 100 129 178 221 278 336 400
#
# _framework density 24.598780999999999
#
# number of rings (size 3 to 8) (size 9 to 14) (size 15 to 20)
#    0.000    1.000    7.500    0.750    0.000    5.000 
#    0.000    0.000    0.000    0.000    0.000    0.000 
#    0.000    0.000    0.000    0.000    0.000    0.000 
#
# Total GULP energy -89349.496442 kJ/mol
# GULP energy per Si atom -5584.343528 kJ/mol
# Density = 2.454279 g / cm^3
# Si number density = 24.598781 Si / 1000 Ang^3
#
#
#
# Elastic Constant Matrix: (Units=GPa)
#
#
# Indices 1 2 3 4 5 6 
#
# 1 138.4495 47.1645 48.9892 0.0000 24.7315 0.0000
# 2 47.1645 108.1967 48.1102 0.0000 6.0351 0.0000
# 3 48.9892 48.1102 131.5015 0.0000 39.7741 0.0000
# 4 0.0000 0.0000 0.0000 36.4645 0.0000 11.2364
# 5 24.7315 6.0351 39.7741 0.0000 41.9250 0.0000
# 6 0.0000 0.0000 0.0000 11.2364 0.0000 44.4873
#
#
#
# Elastic Compliance Matrix: (Units=1/GPa)
#
#
# Indices 1 2 3 4 5 6 
#
# 1 0.009501 -0.003455 -0.001025 0.000000 -0.004135 0.000000
# 2 -0.003455 0.012599 -0.004754 0.000000 0.004735 0.000000
# 3 -0.001025 -0.004754 0.013092 0.000000 -0.011132 0.000000
# 4 0.000000 0.000000 0.000000 0.029738 0.000000 -0.007511
# 5 -0.004135 0.004735 -0.011132 0.000000 0.036171 0.000000
# 6 0.000000 0.000000 0.000000 -0.007511 0.000000 0.024375
#
#
# Mechanical properties :
#
#
# Convention : Reuss Voigt Hill
#
# Bulk Modulus (GPa) = 59.79442 74.07505 66.93473
# Shear Modulus (GPa) = 33.44036 40.16763 36.80399
#
# Velocity S-wave (km/s) = 3.69105 4.04531 3.87223
# Velocity P-wave (km/s) = 6.52118 7.21097 6.87473
#
# Compressibility (1/GPa) = 0.01672397
#
# Stress axis : x y z
#
# Youngs Moduli (GPa) = 105.24937 79.37439 76.37977
#
# Poissons Ratio (x) = 0.27428 0.07826
# Poissons Ratio (y) = 0.36369 0.36311
# Poissons Ratio (z) = 0.10784 0.37735
#
# Static dielectric constant tensor:
#      x y z
#    x 2.155900 0.000000 0.062390 
#    y 0.000000 2.079910 0.000000 
#    z 0.062390 0.000000 1.988550 
# 
# From -- ./inp_files/158042.got.cif
#   From: 2010.05.17/outbox.cif.g08.bks.cpg/sg15_80_cif.got.tgz:158042.got - 2010.06.03 18:47:42.
