data_PCOD9295846
_publ_section_title
;
Structure prediction by ZEFSAII (Michael W. Deem and Ramdas Pophale) SiO2 
 PCOD9295846
Probable space group: C 2/C
;
_chemical_formula_sum "Si O2"
_cell_formula_units_Z 32
_cell_length_a 5.322268
_cell_length_b 13.356243
_cell_length_c 18.648928
_cell_angle_alpha 90.000000
_cell_angle_beta 87.408095
_cell_angle_gamma 90.000000
_cell_volume 1324.312259
_symmetry_space_group_name_H-M "C 2/C"
_symmetry_group_IT_number 15
_symmetry_cell_setting 'monoclinic'
loop_
_space_group_symop_operation_xyz
x,y,z
-x,y,1/2-z
-x,-y,-z
x,-y,1/2+z
1/2+x,1/2+y,z
1/2-x,1/2+y,1/2-z
1/2-x,1/2-y,-z
1/2+x,1/2-y,1/2+z
loop_
_atom_site_type_symbol
_atom_site_label
_atom_site_fract_x
_atom_site_fract_y
_atom_site_fract_z
Si Si1 0.809652 0.576245 0.462952
Si Si2 0.636878 0.927515 0.824373
Si Si3 0.255912 0.780952 0.294272
Si Si4 0.048167 0.915595 0.099812
O O1 0.586815 0.512089 0.431614
O O2 0.694155 0.636902 0.531746
O O3 0.000000 0.500000 0.500000
O O4 0.956457 0.612549 0.390941
O O5 0.500000 0.940903 0.750000
O O6 0.821992 0.833104 0.814632
O O7 0.764591 0.031457 0.846245
O O8 0.500000 0.819657 0.250000
O O9 0.000000 0.776550 0.250000
O O10 0.164997 0.848458 0.361430
#
# Coordination Sequence:
#
# PCOD9295846 Si02
#       4
#     8   8   8   8
#     4   9  21  42  67 101 131 184 238 278 354 429
#     4  10  24  43  70 102 142 180 233 294 354 418
#     4  11  28  44  66 109 141 179 244 289 348 431
#     4  10  23  43  70  97 139 185 231 287 356 417
#
# _framework density 24.163485999999999
#
# number of rings (size 3 to 8) (size 9 to 14) (size 15 to 20)
#    0.000    2.000    0.000    0.000   17.500    1.000 
#    0.000   11.250    0.000    0.000    0.000    0.000 
#    0.000    0.000    0.000    0.000    0.000    0.000 
#
# Total GULP energy -89299.852189 kJ/mol
# GULP energy per Si atom -5581.240762 kJ/mol
# Density = 2.410849 g / cm^3
# Si number density = 24.163486 Si / 1000 Ang^3
#
#
#
# Elastic Constant Matrix: (Units=GPa)
#
#
# Indices 1 2 3 4 5 6 
#
# 1 105.0741 23.0975 68.9217 0.0000 -30.8706 0.0000
# 2 23.0975 77.2396 52.7440 0.0000 -18.6192 0.0000
# 3 68.9217 52.7440 183.1172 0.0000 -39.7170 0.0000
# 4 0.0000 0.0000 0.0000 15.6931 0.0000 -27.0702
# 5 -30.8706 -18.6192 -39.7170 0.0000 71.0827 0.0000
# 6 0.0000 0.0000 0.0000 -27.0702 0.0000 18.4516
#
#
#
# Elastic Compliance Matrix: (Units=1/GPa)
#
#
# Indices 1 2 3 4 5 6 
#
# 1 0.013326 -0.000308 -0.004198 0.000000 0.003361 0.000000
# 2 -0.000308 0.016341 -0.004200 0.000000 0.001799 0.000000
# 3 -0.004198 -0.004200 0.008667 0.000000 0.001919 0.000000
# 4 0.000000 0.000000 0.000000 -0.041629 0.000000 -0.061074
# 5 0.003361 0.001799 0.001919 0.000000 0.017072 0.000000
# 6 0.000000 0.000000 0.000000 -0.061074 0.000000 -0.035406
#
#
# Mechanical properties :
#
#
# Convention : Reuss Voigt Hill
#
# Bulk Modulus (GPa) = 47.79882 72.77301 60.28591
# Shear Modulus (GPa) = 1813.69709 35.75667 924.72688
#
# Velocity S-wave (km/s) = 27.42669 3.85097 19.58384
# Velocity P-wave (km/s) = 31.98107 7.06792 23.15971
#
# Compressibility (1/GPa) = 0.02092102
#
# Stress axis : x y z
#
# Youngs Moduli (GPa) = 75.04242 61.19571 115.37838
#
# Poissons Ratio (x) = 0.01886 0.48434
# Poissons Ratio (y) = 0.02313 0.48464
# Poissons Ratio (z) = 0.31501 0.25705
#
# Static dielectric constant tensor:
#      x y z
#    x 2.020050 0.000000 -0.016130 
#    y 0.000000 1.934050 0.000000 
#    z -0.016130 0.000000 2.113380 
# 
# From -- ./inp_files/183714.got.cif
#   From: 2010.05.17/outbox.cif.g08.bks.cpg/sg15_92_cif.got.tgz:183714.got - 2010.06.03 18:47:42.
