data_PCOD9295090
_publ_section_title
;
Structure prediction by ZEFSAII (Michael W. Deem and Ramdas Pophale) SiO2 
 PCOD9295090
Probable space group: C 2/C
;
_chemical_formula_sum "Si O2"
_cell_formula_units_Z 56
_cell_length_a 14.656196
_cell_length_b 15.945673
_cell_length_c 13.377010
_cell_angle_alpha 90.000000
_cell_angle_beta 63.781287
_cell_angle_gamma 90.000000
_cell_volume 2804.599576
_symmetry_space_group_name_H-M "C 2/C"
_symmetry_group_IT_number 15
_symmetry_cell_setting 'monoclinic'
loop_
_space_group_symop_operation_xyz
x,y,z
-x,y,1/2-z
-x,-y,-z
x,-y,1/2+z
1/2+x,1/2+y,z
1/2-x,1/2+y,1/2-z
1/2-x,1/2-y,-z
1/2+x,1/2-y,1/2+z
loop_
_atom_site_type_symbol
_atom_site_label
_atom_site_fract_x
_atom_site_fract_y
_atom_site_fract_z
Si Si1 0.703041 0.429563 0.063849
Si Si2 0.850313 0.750481 0.179401
Si Si3 0.735549 0.410735 0.813525
Si Si4 0.500000 0.876456 0.250000
Si Si5 0.128627 0.252780 0.056422
Si Si6 0.500000 0.655323 0.750000
Si Si7 0.108081 0.912300 0.686411
Si Si8 0.806683 0.404041 0.214622
O O1 0.594618 0.391312 0.150416
O O2 0.688616 0.528803 0.091066
O O3 0.789364 0.401964 0.102260
O O4 0.720715 0.407795 0.939889
O O5 0.814525 0.661883 0.242953
O O6 0.940068 0.789533 0.199619
O O7 0.757707 0.820442 0.220891
O O8 0.894217 0.738131 0.048167
O O9 0.644416 0.390065 0.780323
O O10 0.756912 0.508461 0.776347
O O11 0.578275 0.825242 0.144176
O O12 0.419978 0.912164 0.205976
O O13 0.091898 0.168012 0.126053
O O14 0.250000 0.250000 0.000000
O O15 0.000000 0.956279 0.750000
#
# Coordination Sequence:
#
# PCOD9295090 Si02
#       8
#     8   8   8   4   8   4   8   8
#     4  10  23  42  64  93 134 172 218 281 330 396
#     4  11  24  43  64  94 136 172 217 279 329 391
#     4  11  24  42  67  91 132 181 217 271 338 394
#     4  12  24  40  68  98 126 182 214 271 348 387
#     4  12  23  41  67  96 136 166 223 284 327 393
#     4  10  24  40  60  94 132 174 218 269 334 397
#     4  11  22  39  66 104 126 168 227 272 346 394
#     4  10  24  44  63  96 131 167 224 271 328 396
#
# _framework density 19.967199000000001
#
# number of rings (size 3 to 8) (size 9 to 14) (size 15 to 20)
#    0.000    1.143    4.286    0.857    2.000    4.571 
#    0.000    1.429    0.000    0.000    0.000    0.000 
#    0.000    0.000    0.000    0.000    0.000    0.000 
#
# Total GULP energy -155927.200216 kJ/mol
# GULP energy per Si atom -5568.828579 kJ/mol
# Density = 1.992175 g / cm^3
# Si number density = 19.967199 Si / 1000 Ang^3
#
#
#
# Elastic Constant Matrix: (Units=GPa)
#
#
# Indices 1 2 3 4 5 6 
#
# 1 109.0577 5.1058 48.5438 0.0000 15.7756 0.0000
# 2 5.1058 51.7502 35.8963 0.0000 5.3145 0.0000
# 3 48.5438 35.8963 171.4351 0.0000 41.0293 0.0000
# 4 0.0000 0.0000 0.0000 20.9283 0.0000 1.7528
# 5 15.7756 5.3145 41.0293 0.0000 29.2702 0.0000
# 6 0.0000 0.0000 0.0000 1.7528 0.0000 10.0097
#
#
#
# Elastic Compliance Matrix: (Units=1/GPa)
#
#
# Indices 1 2 3 4 5 6 
#
# 1 0.010640 0.001062 -0.002734 0.000000 -0.002095 0.000000
# 2 0.001062 0.022999 -0.005989 0.000000 0.003647 0.000000
# 3 -0.002734 -0.005989 0.010908 0.000000 -0.012729 0.000000
# 4 0.000000 0.000000 0.000000 0.048493 0.000000 -0.008492
# 5 -0.002095 0.003647 -0.012729 0.000000 0.052474 0.000000
# 6 0.000000 0.000000 0.000000 -0.008492 0.000000 0.101390
#
#
# Mechanical properties :
#
#
# Convention : Reuss Voigt Hill
#
# Bulk Modulus (GPa) = 34.21878 56.81498 45.51688
# Shear Modulus (GPa) = 18.38462 28.22146 23.30304
#
# Velocity S-wave (km/s) = 3.03766 3.76359 3.41994
# Velocity P-wave (km/s) = 5.42936 6.88492 6.20000
#
# Compressibility (1/GPa) = 0.02922372
#
# Stress axis : x y z
#
# Youngs Moduli (GPa) = 93.98840 43.48080 91.67945
#
# Poissons Ratio (x) = -0.04616 0.25061
# Poissons Ratio (y) = -0.09977 0.54908
# Poissons Ratio (z) = 0.25692 0.26041
#
# Static dielectric constant tensor:
#      x y z
#    x 1.723490 0.000000 0.014560 
#    y 0.000000 1.785190 0.000000 
#    z 0.014560 0.000000 2.191670 
# 
# From -- ./inp_files/98282.got.cif
#   From: 2010.05.17/outbox.cif.g08.bks.cpg/sg15_50_cif.got.tgz:98282.got - 2010.06.03 18:47:42.
