data_PCOD9295964
_publ_section_title
;
Structure prediction by ZEFSAII (Michael W. Deem and Ramdas Pophale) SiO2 
 PCOD9295964
Probable space group: C 2/C
;
_chemical_formula_sum "Si O2"
_cell_formula_units_Z 60
_cell_length_a 20.976927
_cell_length_b 18.359222
_cell_length_c 11.025396
_cell_angle_alpha 90.000000
_cell_angle_beta 37.411363
_cell_angle_gamma 90.000000
_cell_volume 2579.648182
_symmetry_space_group_name_H-M "C 2/C"
_symmetry_group_IT_number 15
_symmetry_cell_setting 'monoclinic'
loop_
_space_group_symop_operation_xyz
x,y,z
-x,y,1/2-z
-x,-y,-z
x,-y,1/2+z
1/2+x,1/2+y,z
1/2-x,1/2+y,1/2-z
1/2-x,1/2-y,-z
1/2+x,1/2-y,1/2+z
loop_
_atom_site_type_symbol
_atom_site_label
_atom_site_fract_x
_atom_site_fract_y
_atom_site_fract_z
Si Si1 0.335519 0.724849 0.466493
Si Si2 0.380082 0.509897 0.406688
Si Si3 0.385655 0.638233 0.785030
Si Si4 0.256841 0.104820 0.719081
Si Si5 0.250000 0.250000 0.500000
Si Si6 0.602457 0.378425 0.819673
Si Si7 0.804142 0.654165 0.179083
Si Si8 0.064626 0.493334 0.027809
O O1 0.250000 0.750000 0.500000
O O2 0.269670 0.671072 0.652701
O O3 0.414940 0.678265 0.265085
O O4 0.372892 0.792343 0.488752
O O5 0.500000 0.526558 0.250000
O O6 0.368065 0.424295 0.408978
O O7 0.316539 0.541695 0.614284
O O8 0.357020 0.549540 0.313338
O O9 0.284146 0.634271 0.847788
O O10 0.492094 0.616323 0.555537
O O11 0.373804 0.721191 0.840370
O O12 0.369572 0.068067 0.551530
O O13 0.211392 0.302409 0.672819
O O14 0.694508 0.354041 0.770516
O O15 0.859117 0.576080 0.105583
O O16 0.000000 0.481595 0.250000
O O17 0.000000 0.500000 0.000000
#
# Coordination Sequence:
#
# PCOD9295964 Si02
#       8
#     8   8   8   8   4   8   8   8
#     4   9  21  43  76 103 142 188 244 308 378 446
#     4  11  23  39  75 112 144 182 236 313 384 456
#     4  12  25  42  67 109 147 189 233 302 387 450
#     4  11  24  48  70 101 154 187 249 316 375 449
#     4  12  28  44  68 102 156 198 240 304 380 456
#     4  10  23  43  77 114 140 183 243 310 396 453
#     4  11  25  51  74 106 150 199 255 322 379 456
#     4  12  32  51  78 110 152 220 273 317 384 471
#
# _framework density 23.258986
#
# number of rings (size 3 to 8) (size 9 to 14) (size 15 to 20)
#    0.000    1.067    2.667    2.000   13.067    1.067 
#    2.400    1.333    0.000    0.000    0.000    0.000 
#    0.000    0.000    0.000    0.000    0.000    0.000 
#
# Total GULP energy -167213.150582 kJ/mol
# GULP energy per Si atom -5573.771686 kJ/mol
# Density = 2.320605 g / cm^3
# Si number density = 23.258986 Si / 1000 Ang^3
#
#
#
# Elastic Constant Matrix: (Units=GPa)
#
#
# Indices 1 2 3 4 5 6 
#
# 1 103.8170 12.9312 19.0077 0.0000 12.1515 0.0000
# 2 12.9312 47.2448 -24.8791 0.0000 3.5118 0.0000
# 3 19.0077 -24.8791 49.9227 0.0000 14.1676 0.0000
# 4 0.0000 0.0000 0.0000 23.6711 0.0000 -1.5887
# 5 12.1515 3.5118 14.1676 0.0000 32.9775 0.0000
# 6 0.0000 0.0000 0.0000 -1.5887 0.0000 40.4335
#
#
#
# Elastic Compliance Matrix: (Units=1/GPa)
#
#
# Indices 1 2 3 4 5 6 
#
# 1 0.012169 -0.007830 -0.008540 0.000000 0.000019 0.000000
# 2 -0.007830 0.037310 0.024922 0.000000 -0.011795 0.000000
# 3 -0.008540 0.024922 0.040500 0.000000 -0.016907 0.000000
# 4 0.000000 0.000000 0.000000 0.042357 0.000000 0.001664
# 5 0.000019 -0.011795 -0.016907 0.000000 0.038836 0.000000
# 6 0.000000 0.000000 0.000000 0.001664 0.000000 0.024797
#
#
# Mechanical properties :
#
#
# Convention : Reuss Voigt Hill
#
# Bulk Modulus (GPa) = 9.33857 23.90048 16.61952
# Shear Modulus (GPa) = 23.30340 32.34473 27.82406
#
# Velocity S-wave (km/s) = 3.16873 3.73317 3.46247
# Velocity P-wave (km/s) = 4.17271 5.37403 4.81101
#
# Compressibility (1/GPa) = 0.10708278
#
# Stress axis : x y z
#
# Youngs Moduli (GPa) = 82.17590 26.80254 24.69111
#
# Poissons Ratio (x) = 0.20985 0.21087
# Poissons Ratio (y) = 0.64340 -0.61535
# Poissons Ratio (z) = 0.70182 -0.66797
#
# Static dielectric constant tensor:
#      x y z
#    x 1.922940 0.000000 0.050650 
#    y 0.000000 1.840820 0.000000 
#    z 0.050650 0.000000 2.031160 
# 
# From -- ./inp_files/113781.got.cif
#   From: 2010.05.17/outbox.cif.g08.bks.cpg/sg15_57_cif.got.tgz:113781.got - 2010.06.03 18:47:42.
