data_PCOD9295347
_publ_section_title
;
Structure prediction by ZEFSAII (Michael W. Deem and Ramdas Pophale) SiO2 
 PCOD9295347
Probable space group: C 2/C
;
_chemical_formula_sum "Si O2"
_cell_formula_units_Z 56
_cell_length_a 24.218478
_cell_length_b 13.524711
_cell_length_c 14.569510
_cell_angle_alpha 90.000000
_cell_angle_beta 32.431885
_cell_angle_gamma 90.000000
_cell_volume 2559.321310
_symmetry_space_group_name_H-M "C 2/C"
_symmetry_group_IT_number 15
_symmetry_cell_setting 'monoclinic'
loop_
_space_group_symop_operation_xyz
x,y,z
-x,y,1/2-z
-x,-y,-z
x,-y,1/2+z
1/2+x,1/2+y,z
1/2-x,1/2+y,1/2-z
1/2-x,1/2-y,-z
1/2+x,1/2-y,1/2+z
loop_
_atom_site_type_symbol
_atom_site_label
_atom_site_fract_x
_atom_site_fract_y
_atom_site_fract_z
Si Si1 0.202329 0.180506 0.144457
Si Si2 0.491159 0.282879 0.030670
Si Si3 0.491786 0.093646 0.152464
Si Si4 0.720577 0.917717 0.286478
Si Si5 0.807038 0.292561 0.676415
Si Si6 0.144475 0.961500 0.228441
Si Si7 0.221152 0.453256 0.626966
O O1 0.291598 0.167165 0.095860
O O2 0.105443 0.227014 0.332973
O O3 0.150485 0.075882 0.189059
O O4 0.250000 0.250000 0.000000
O O5 0.476018 0.203578 0.133031
O O6 0.417355 0.249784 0.050795
O O7 0.455793 0.393154 0.112805
O O8 0.500000 0.095723 0.250000
O O9 0.392655 0.033633 0.256156
O O10 0.601093 0.053199 0.963428
O O11 0.733333 0.802110 0.288281
O O12 0.793154 0.962301 0.263464
O O13 0.754341 0.949140 0.136968
O O14 0.779899 0.373214 0.790328
O O15 0.208614 0.914373 0.054567
#
# Coordination Sequence:
#
# PCOD9295347 Si02
#       7
#     8   8   8   8   8   8   8
#     4  12  24  46  70  98 140 185 231 291 361 425
#     4  10  25  42  69 100 136 180 235 292 347 429
#     4  11  22  38  67  99 133 176 232 294 353 416
#     4  11  21  41  64  96 139 177 236 291 349 426
#     4  10  23  42  69  94 136 179 228 289 346 426
#     4  11  24  41  68 100 138 185 234 290 351 428
#     4  11  23  41  64 101 135 183 229 292 357 414
#
# _framework density 21.880801000000002
#
# number of rings (size 3 to 8) (size 9 to 14) (size 15 to 20)
#    0.000    1.143    4.286    1.714    2.000    2.286 
#    0.000    1.429    3.143    0.000    0.000    0.000 
#    0.000    0.000    0.000    0.000    0.000    0.000 
#
# Total GULP energy -156212.722935 kJ/mol
# GULP energy per Si atom -5579.025819 kJ/mol
# Density = 2.183100 g / cm^3
# Si number density = 21.880801 Si / 1000 Ang^3
#
#
#
# Elastic Constant Matrix: (Units=GPa)
#
#
# Indices 1 2 3 4 5 6 
#
# 1 140.1665 17.5343 42.7182 0.0000 16.6744 0.0000
# 2 17.5343 34.6613 3.7742 0.0000 8.5083 0.0000
# 3 42.7182 3.7742 85.0608 0.0000 6.4979 0.0000
# 4 0.0000 0.0000 0.0000 16.5942 0.0000 9.9464
# 5 16.6744 8.5083 6.4979 0.0000 26.9459 0.0000
# 6 0.0000 0.0000 0.0000 9.9464 0.0000 23.8713
#
#
#
# Elastic Compliance Matrix: (Units=1/GPa)
#
#
# Indices 1 2 3 4 5 6 
#
# 1 0.009277 -0.003332 -0.004231 0.000000 -0.003668 0.000000
# 2 -0.003332 0.032506 0.000874 0.000000 -0.008413 0.000000
# 3 -0.004231 0.000874 0.013920 0.000000 -0.001014 0.000000
# 4 0.000000 0.000000 0.000000 0.080322 0.000000 -0.033468
# 5 -0.003668 -0.008413 -0.001014 0.000000 0.042282 0.000000
# 6 0.000000 0.000000 0.000000 -0.033468 0.000000 0.055836
#
#
# Mechanical properties :
#
#
# Convention : Reuss Voigt Hill
#
# Bulk Modulus (GPa) = 23.62690 43.10468 33.36579
# Shear Modulus (GPa) = 19.11094 26.53974 22.82534
#
# Velocity S-wave (km/s) = 2.95856 3.48648 3.23331
# Velocity P-wave (km/s) = 4.74260 5.99583 5.40565
#
# Compressibility (1/GPa) = 0.04232463
#
# Stress axis : x y z
#
# Youngs Moduli (GPa) = 107.79329 30.76348 71.84001
#
# Poissons Ratio (x) = 0.10250 0.30395
# Poissons Ratio (y) = 0.35915 -0.06276
# Poissons Ratio (z) = 0.45606 -0.02688
#
# Static dielectric constant tensor:
#      x y z
#    x 1.803960 0.000000 -0.012970 
#    y 0.000000 1.936860 0.000000 
#    z -0.012970 0.000000 1.846360 
# 
# From -- ./inp_files/173806.got.cif
#   From: 2010.05.17/outbox.cif.g08.bks.cpg/sg15_87_cif.got.tgz:173806.got - 2010.06.03 18:47:42.
