data_PCOD9295582
_publ_section_title
;
Structure prediction by ZEFSAII (Michael W. Deem and Ramdas Pophale) SiO2 
 PCOD9295582
Probable space group: C 2/C
;
_chemical_formula_sum "Si O2"
_cell_formula_units_Z 60
_cell_length_a 12.140658
_cell_length_b 12.857970
_cell_length_c 20.483640
_cell_angle_alpha 90.000000
_cell_angle_beta 118.616115
_cell_angle_gamma 90.000000
_cell_volume 2806.992436
_symmetry_space_group_name_H-M "C 2/C"
_symmetry_group_IT_number 15
_symmetry_cell_setting 'monoclinic'
loop_
_space_group_symop_operation_xyz
x,y,z
-x,y,1/2-z
-x,-y,-z
x,-y,1/2+z
1/2+x,1/2+y,z
1/2-x,1/2+y,1/2-z
1/2-x,1/2-y,-z
1/2+x,1/2-y,1/2+z
loop_
_atom_site_type_symbol
_atom_site_label
_atom_site_fract_x
_atom_site_fract_y
_atom_site_fract_z
Si Si1 0.649193 0.901587 0.987136
Si Si2 0.219354 0.276259 0.886709
Si Si3 0.648504 0.920818 0.586682
Si Si4 0.816442 0.743455 0.587710
Si Si5 0.636688 0.911949 0.293734
Si Si6 0.101070 0.212675 0.187562
Si Si7 0.810481 0.001521 0.745212
Si Si8 0.500000 0.673763 0.750000
O O1 0.701249 0.874306 0.930079
O O2 0.497453 0.893777 0.946092
O O3 0.714360 0.815407 0.052316
O O4 0.671975 0.013660 0.026923
O O5 0.303711 0.288064 0.846094
O O6 0.081498 0.240784 0.823533
O O7 0.731538 0.817695 0.608468
O O8 0.701404 0.992059 0.660110
O O9 0.750000 0.750000 0.500000
O O10 0.829561 0.632213 0.626143
O O11 0.958878 0.781795 0.622558
O O12 0.500000 0.963375 0.250000
O O13 0.624724 0.811226 0.241710
O O14 0.743570 0.982483 0.294981
O O15 0.116825 0.106470 0.231639
O O16 0.901110 0.097268 0.756684
#
# Coordination Sequence:
#
# PCOD9295582 Si02
#       8
#     8   8   8   8   8   8   8   4
#     4  10  24  42  68  93 137 171 217 265 338 393
#     4  11  24  43  65  98 132 171 219 278 323 390
#     4  11  22  43  68  97 129 179 217 267 333 397
#     4  11  24  42  70  93 134 174 219 266 341 396
#     4  10  23  43  65  93 133 171 218 274 328 390
#     4  11  23  44  65  98 131 171 223 274 322 393
#     4  12  24  40  69  99 128 172 227 270 323 392
#     4  12  24  40  68  96 132 172 222 268 336 380
#
# _framework density 21.37519
#
# number of rings (size 3 to 8) (size 9 to 14) (size 15 to 20)
#    0.000    1.067    4.000    1.600    4.667    5.333 
#    0.000    1.333    0.000    0.000    0.000    0.000 
#    0.000    0.000    0.000    0.000    0.000    0.000 
#
# Total GULP energy -167753.212244 kJ/mol
# GULP energy per Si atom -5591.773741 kJ/mol
# Density = 2.132654 g / cm^3
# Si number density = 21.375190 Si / 1000 Ang^3
#
#
#
# Elastic Constant Matrix: (Units=GPa)
#
#
# Indices 1 2 3 4 5 6 
#
# 1 73.6637 4.1863 32.0074 0.0000 10.0127 0.0000
# 2 4.1863 30.1352 8.5418 0.0000 13.7378 0.0000
# 3 32.0074 8.5418 132.9706 0.0000 17.5414 0.0000
# 4 0.0000 0.0000 0.0000 -5.3188 0.0000 -32.7873
# 5 10.0127 13.7378 17.5414 0.0000 40.3437 0.0000
# 6 0.0000 0.0000 0.0000 -32.7873 0.0000 -5.8726
#
#
#
# Elastic Compliance Matrix: (Units=1/GPa)
#
#
# Indices 1 2 3 4 5 6 
#
# 1 0.015367 -0.000127 -0.003388 0.000000 -0.002298 0.000000
# 2 -0.000127 0.039364 -0.000779 0.000000 -0.013034 0.000000
# 3 -0.003388 -0.000779 0.008741 0.000000 -0.002695 0.000000
# 4 0.000000 0.000000 0.000000 0.005626 0.000000 -0.031412
# 5 -0.002298 -0.013034 -0.002695 0.000000 0.030967 0.000000
# 6 0.000000 0.000000 0.000000 -0.031412 0.000000 0.005096
#
#
# Mechanical properties :
#
#
# Convention : Reuss Voigt Hill
#
# Bulk Modulus (GPa) = 18.21977 36.24894 27.23435
# Shear Modulus (GPa) = 37.86631 18.63272 28.24952
#
# Velocity S-wave (km/s) = 4.21349 2.95566 3.63933
# Velocity P-wave (km/s) = 5.67571 5.35193 5.51619
#
# Compressibility (1/GPa) = 0.05488544
#
# Stress axis : x y z
#
# Youngs Moduli (GPa) = 65.07579 25.40388 114.39780
#
# Poissons Ratio (x) = 0.00323 0.38754
# Poissons Ratio (y) = 0.00827 0.08908
# Poissons Ratio (z) = 0.22045 0.01978
#
# Static dielectric constant tensor:
#      x y z
#    x 1.746080 0.000000 -0.034310 
#    y 0.000000 1.782340 0.000000 
#    z -0.034310 0.000000 1.790410 
# 
# From -- ./inp_files/238794.got.cif
#   From: 2010.05.17/outbox.cif.g08.bks.cpg/sg15_120_cif.got.tgz:238794.got - 2010.06.03 18:47:42.
