data_PCOD9295226
_publ_section_title
;
Structure prediction by ZEFSAII (Michael W. Deem and Ramdas Pophale) SiO2 
 PCOD9295226
Probable space group: C 2/C
;
_chemical_formula_sum "Si O2"
_cell_formula_units_Z 60
_cell_length_a 17.369933
_cell_length_b 21.255226
_cell_length_c 8.549663
_cell_angle_alpha 90.000000
_cell_angle_beta 60.086823
_cell_angle_gamma 90.000000
_cell_volume 2736.042205
_symmetry_space_group_name_H-M "C 2/C"
_symmetry_group_IT_number 15
_symmetry_cell_setting 'monoclinic'
loop_
_space_group_symop_operation_xyz
x,y,z
-x,y,1/2-z
-x,-y,-z
x,-y,1/2+z
1/2+x,1/2+y,z
1/2-x,1/2+y,1/2-z
1/2-x,1/2-y,-z
1/2+x,1/2-y,1/2+z
loop_
_atom_site_type_symbol
_atom_site_label
_atom_site_fract_x
_atom_site_fract_y
_atom_site_fract_z
Si Si1 0.725850 0.686380 0.822734
Si Si2 0.337595 0.388956 0.403498
Si Si3 0.883718 0.247357 0.972443
Si Si4 0.321899 0.079746 0.879892
Si Si5 0.500000 0.127544 0.750000
Si Si6 0.247009 0.461241 0.737421
Si Si7 0.926951 0.722233 0.078894
Si Si8 0.933457 0.985664 0.705176
O O1 0.691639 0.634034 0.735829
O O2 0.801659 0.726444 0.656169
O O3 0.769585 0.645830 0.916038
O O4 0.641033 0.730172 0.937801
O O5 0.376655 0.326669 0.442332
O O6 0.254556 0.411926 0.589864
O O7 0.400891 0.449610 0.321229
O O8 0.887265 0.282698 0.798220
O O9 0.974066 0.255059 0.977276
O O10 0.424354 0.089714 0.734116
O O11 0.274876 0.027574 0.819541
O O12 0.319906 0.055118 0.058577
O O13 0.553629 0.167466 0.565168
O O14 0.342863 0.458231 0.728000
O O15 0.000000 0.946936 0.750000
O O16 0.000000 0.000000 0.500000
#
# Coordination Sequence:
#
# PCOD9295226 Si02
#       8
#     8   8   8   8   4   8   8   8
#     4  11  23  44  73 100 134 181 227 287 356 414
#     4  11  23  40  69 100 134 183 228 280 337 418
#     4  10  23  43  70 102 135 183 226 284 348 418
#     4  12  26  47  71  98 138 180 234 288 353 407
#     4  12  28  46  70 100 140 178 234 304 338 408
#     4  12  25  46  68  99 137 185 231 285 342 418
#     4  10  23  42  67 103 141 172 232 275 349 418
#     4  12  23  38  64  96 140 173 223 270 334 403
#
# _framework density 21.929487999999999
#
# number of rings (size 3 to 8) (size 9 to 14) (size 15 to 20)
#    0.000    0.800    5.333    1.600    7.467    2.133 
#    0.000    0.000    0.000    0.000    0.000    0.000 
#    0.000    0.000    0.000    0.000    0.000    0.000 
#
# Total GULP energy -167432.348638 kJ/mol
# GULP energy per Si atom -5581.078288 kJ/mol
# Density = 2.187958 g / cm^3
# Si number density = 21.929488 Si / 1000 Ang^3
#
#
#
# Elastic Constant Matrix: (Units=GPa)
#
#
# Indices 1 2 3 4 5 6 
#
# 1 93.9363 19.8288 -3.4246 0.0000 -18.6627 0.0000
# 2 19.8288 50.4191 26.3271 0.0000 -7.5724 0.0000
# 3 -3.4246 26.3271 70.7250 0.0000 -6.8595 0.0000
# 4 0.0000 0.0000 0.0000 38.4249 0.0000 -0.6619
# 5 -18.6627 -7.5724 -6.8595 0.0000 20.9060 0.0000
# 6 0.0000 0.0000 0.0000 -0.6619 0.0000 2.9788
#
#
#
# Elastic Compliance Matrix: (Units=1/GPa)
#
#
# Indices 1 2 3 4 5 6 
#
# 1 0.014468 -0.006024 0.004115 0.000000 0.012084 0.000000
# 2 -0.006024 0.027905 -0.010556 0.000000 0.001267 0.000000
# 3 0.004115 -0.010556 0.018853 0.000000 0.006036 0.000000
# 4 0.000000 0.000000 0.000000 0.026125 0.000000 0.005805
# 5 0.012084 0.001267 0.006036 0.000000 0.061059 0.000000
# 6 0.000000 0.000000 0.000000 0.005805 0.000000 0.336992
#
#
# Mechanical properties :
#
#
# Convention : Reuss Voigt Hill
#
# Bulk Modulus (GPa) = 27.55136 33.39366 30.47251
# Shear Modulus (GPa) = 9.57062 23.95187 16.76125
#
# Velocity S-wave (km/s) = 2.09135 3.30846 2.76764
# Velocity P-wave (km/s) = 4.29215 5.46401 4.91314
#
# Compressibility (1/GPa) = 0.03629585
#
# Stress axis : x y z
#
# Youngs Moduli (GPa) = 69.11929 35.83572 53.04057
#
# Poissons Ratio (x) = 0.21586 -0.21825
# Poissons Ratio (y) = 0.41635 0.55992
# Poissons Ratio (z) = -0.28441 0.37830
#
# Static dielectric constant tensor:
#      x y z
#    x 1.865060 0.000000 -0.004140 
#    y 0.000000 1.811520 0.000000 
#    z -0.004140 0.000000 1.823160 
# 
# From -- ./inp_files/50625.got.cif
#   From: 2010.05.17/outbox.cif.g08.bks.cpg/sg15_26_cif.got.tgz:50625.got - 2010.06.03 18:47:42.
