data_PCOD9295510
_publ_section_title
;
Structure prediction by ZEFSAII (Michael W. Deem and Ramdas Pophale) SiO2 
 PCOD9295510
Probable space group: C 2/C
;
_chemical_formula_sum "Si O2"
_cell_formula_units_Z 40
_cell_length_a 11.825807
_cell_length_b 8.143650
_cell_length_c 18.537054
_cell_angle_alpha 90.000000
_cell_angle_beta 109.729765
_cell_angle_gamma 90.000000
_cell_volume 1680.414775
_symmetry_space_group_name_H-M "C 2/C"
_symmetry_group_IT_number 15
_symmetry_cell_setting 'monoclinic'
loop_
_space_group_symop_operation_xyz
x,y,z
-x,y,1/2-z
-x,-y,-z
x,-y,1/2+z
1/2+x,1/2+y,z
1/2-x,1/2+y,1/2-z
1/2-x,1/2-y,-z
1/2+x,1/2-y,1/2+z
loop_
_atom_site_type_symbol
_atom_site_label
_atom_site_fract_x
_atom_site_fract_y
_atom_site_fract_z
Si Si1 0.462814 0.963357 0.884682
Si Si2 0.116921 0.696383 0.823924
Si Si3 0.970643 0.875980 0.056563
Si Si4 0.284272 0.545671 0.617975
Si Si5 0.645752 0.331715 0.214174
O O1 0.495935 0.814763 0.945902
O O2 0.355934 0.065998 0.896848
O O3 0.399233 0.855078 0.807248
O O4 0.569925 0.066627 0.873071
O O5 0.176838 0.854900 0.873800
O O6 0.224012 0.642472 0.793596
O O7 0.000000 0.736374 0.750000
O O8 0.053139 0.929789 0.143344
O O9 0.835674 0.882987 0.055868
O O10 0.000000 0.000000 0.000000
O O11 0.349099 0.623862 0.701706
#
# Coordination Sequence:
#
# PCOD9295510 Si02
#       5
#     8   8   8   8   8
#     4   9  23  38  60  92 121 154 199 253 300 354
#     4  11  20  36  63  93 123 149 196 262 303 345
#     4  10  23  43  62  84 129 169 197 244 302 363
#     4  11  21  39  65  89 118 157 205 253 300 355
#     4   9  21  37  63  91 118 155 202 246 304 357
#
# _framework density 23.803647000000002
#
# number of rings (size 3 to 8) (size 9 to 14) (size 15 to 20)
#    1.200    0.800    2.000    1.800    2.800    0.800 
#    3.600    2.000    0.000    0.000    0.000    0.000 
#    0.000    0.000    0.000    0.000    0.000    0.000 
#
# Total GULP energy -111730.601817 kJ/mol
# GULP energy per Si atom -5586.530091 kJ/mol
# Density = 2.374947 g / cm^3
# Si number density = 23.803647 Si / 1000 Ang^3
#
#
#
# Elastic Constant Matrix: (Units=GPa)
#
#
# Indices 1 2 3 4 5 6 
#
# 1 140.4419 22.1511 34.5283 0.0000 -33.3580 0.0000
# 2 22.1511 16.2962 20.7647 0.0000 32.0953 0.0000
# 3 34.5283 20.7647 76.1617 0.0000 -2.3597 0.0000
# 4 0.0000 0.0000 0.0000 -3.5403 0.0000 -9.8015
# 5 -33.3580 32.0953 -2.3597 0.0000 4.9560 0.0000
# 6 0.0000 0.0000 0.0000 -9.8015 0.0000 43.2870
#
#
#
# Elastic Compliance Matrix: (Units=1/GPa)
#
#
# Indices 1 2 3 4 5 6 
#
# 1 0.006141 0.006739 -0.004763 0.000000 -0.004578 0.000000
# 2 0.006739 0.002608 -0.002928 0.000000 0.027076 0.000000
# 3 -0.004763 -0.002928 0.015916 0.000000 -0.005524 0.000000
# 4 0.000000 0.000000 0.000000 -0.173620 0.000000 -0.039313
# 5 -0.004578 0.027076 -0.005524 0.000000 -0.007014 0.000000
# 6 0.000000 0.000000 0.000000 -0.039313 0.000000 0.014200
#
#
# Mechanical properties :
#
#
# Convention : Reuss Voigt Hill
#
# Bulk Modulus (GPa) = 43.93139 43.08756 43.50948
# Shear Modulus (GPa) = -37.79945 19.30427 -9.24759
#
# Velocity S-wave (km/s) = -3.98926 2.85086 -1.97317
# Velocity P-wave (km/s) = 1.65017 5.38304 3.62312
#
# Compressibility (1/GPa) = 0.02276277
#
# Stress axis : x y z
#
# Youngs Moduli (GPa) = 162.83950 383.38050 62.82793
#
# Poissons Ratio (x) = -2.58375 0.29927
# Poissons Ratio (y) = -1.09744 0.18394
# Poissons Ratio (z) = 0.77566 1.12239
#
# Static dielectric constant tensor:
#      x y z
#    x 1.939140 0.000000 0.043650 
#    y 0.000000 1.936000 0.000000 
#    z 0.043650 0.000000 1.941400 
# 
# From -- ./inp_files/195236.got.cif
#   From: 2010.05.17/outbox.cif.g08.bks.cpg/sg15_98_cif.got.tgz:195236.got - 2010.06.03 18:47:42.
