data_PCOD9295125
_publ_section_title
;
Structure prediction by ZEFSAII (Michael W. Deem and Ramdas Pophale) SiO2 
 PCOD9295125
Probable space group: C 2/C
;
_chemical_formula_sum "Si O2"
_cell_formula_units_Z 36
_cell_length_a 12.972544
_cell_length_b 14.217583
_cell_length_c 11.669933
_cell_angle_alpha 90.000000
_cell_angle_beta 43.643493
_cell_angle_gamma 90.000000
_cell_volume 1485.507244
_symmetry_space_group_name_H-M "C 2/C"
_symmetry_group_IT_number 15
_symmetry_cell_setting 'monoclinic'
loop_
_space_group_symop_operation_xyz
x,y,z
-x,y,1/2-z
-x,-y,-z
x,-y,1/2+z
1/2+x,1/2+y,z
1/2-x,1/2+y,1/2-z
1/2-x,1/2-y,-z
1/2+x,1/2-y,1/2+z
loop_
_atom_site_type_symbol
_atom_site_label
_atom_site_fract_x
_atom_site_fract_y
_atom_site_fract_z
Si Si1 0.736109 0.949502 0.327459
Si Si2 0.114599 0.843166 0.489313
Si Si3 0.727523 0.349884 0.658414
Si Si4 0.094547 0.289636 0.573101
Si Si5 0.000000 0.114945 0.750000
O O1 0.819918 0.925249 0.142831
O O2 0.628453 0.862869 0.446669
O O3 0.858293 0.945633 0.332658
O O4 0.686082 0.056784 0.370123
O O5 0.175554 0.742516 0.395310
O O6 0.191661 0.852298 0.552259
O O7 0.936154 0.845609 0.651234
O O8 0.250000 0.250000 0.500000
O O9 0.013243 0.187977 0.632682
O O10 0.000000 0.339720 0.750000
#
# Coordination Sequence:
#
# PCOD9295125 Si02
#       5
#     8   8   8   8   4
#     4  11  20  38  68  87 119 168 209 242 312 371
#     4  10  23  42  65  87 127 161 207 253 307 364
#     4  10  23  44  61  92 123 164 204 258 301 369
#     4   8  17  33  52  86 124 153 187 254 301 343
#     4   8  18  34  56  92 124 150 198 260 292 348
#
# _framework density 24.234147
#
# number of rings (size 3 to 8) (size 9 to 14) (size 15 to 20)
#    0.667    1.778    0.000    2.000    3.111    0.000 
#   16.000    1.111    0.000    0.000    0.000    0.000 
#    0.000    0.000    0.000    0.000    0.000    0.000 
#
# Total GULP energy -100491.697758 kJ/mol
# GULP energy per Si atom -5582.872098 kJ/mol
# Density = 2.417899 g / cm^3
# Si number density = 24.234147 Si / 1000 Ang^3
#
#
#
# Elastic Constant Matrix: (Units=GPa)
#
#
# Indices 1 2 3 4 5 6 
#
# 1 65.2313 20.9942 21.5709 0.0000 -1.9450 0.0000
# 2 20.9942 164.1988 41.6412 0.0000 4.8015 0.0000
# 3 21.5709 41.6412 123.5526 0.0000 12.8300 0.0000
# 4 0.0000 0.0000 0.0000 27.4318 0.0000 -6.8165
# 5 -1.9450 4.8015 12.8300 0.0000 30.8298 0.0000
# 6 0.0000 0.0000 0.0000 -6.8165 0.0000 25.2955
#
#
#
# Elastic Compliance Matrix: (Units=1/GPa)
#
#
# Indices 1 2 3 4 5 6 
#
# 1 0.016777 -0.001541 -0.002660 0.000000 0.002405 0.000000
# 2 -0.001541 0.006801 -0.001989 0.000000 -0.000329 0.000000
# 3 -0.002660 -0.001989 0.009630 0.000000 -0.003866 0.000000
# 4 0.000000 0.000000 0.000000 0.039070 0.000000 0.010528
# 5 0.002405 -0.000329 -0.003866 0.000000 0.034248 0.000000
# 6 0.000000 0.000000 0.000000 0.010528 0.000000 0.042370
#
#
# Mechanical properties :
#
#
# Convention : Reuss Voigt Hill
#
# Bulk Modulus (GPa) = 48.00965 57.93281 52.97123
# Shear Modulus (GPa) = 29.72327 34.62985 32.17656
#
# Velocity S-wave (km/s) = 3.50595 3.78427 3.64776
# Velocity P-wave (km/s) = 6.02019 6.56137 6.29660
#
# Compressibility (1/GPa) = 0.02082914
#
# Stress axis : x y z
#
# Youngs Moduli (GPa) = 59.60468 147.03180 103.84406
#
# Poissons Ratio (x) = 0.22657 0.27618
# Poissons Ratio (y) = 0.09185 0.20655
# Poissons Ratio (z) = 0.15852 0.29246
#
# Static dielectric constant tensor:
#      x y z
#    x 2.140940 0.000000 0.016690 
#    y 0.000000 1.937600 0.000000 
#    z 0.016690 0.000000 1.969730 
# 
# From -- ./inp_files/96784.got.cif
#   From: 2010.05.17/outbox.cif.g08.bks.cpg/sg15_49_cif.got.tgz:96784.got - 2010.06.03 18:47:42.
