data_PCOD9295974
_publ_section_title
;
Structure prediction by ZEFSAII (Michael W. Deem and Ramdas Pophale) SiO2 
 PCOD9295974
Probable space group: C 2/C
;
_chemical_formula_sum "Si O2"
_cell_formula_units_Z 40
_cell_length_a 9.033074
_cell_length_b 30.203428
_cell_length_c 14.273412
_cell_angle_alpha 90.000000
_cell_angle_beta 30.042913
_cell_angle_gamma 90.000000
_cell_volume 1949.631427
_symmetry_space_group_name_H-M "C 2/C"
_symmetry_group_IT_number 15
_symmetry_cell_setting 'monoclinic'
loop_
_space_group_symop_operation_xyz
x,y,z
-x,y,1/2-z
-x,-y,-z
x,-y,1/2+z
1/2+x,1/2+y,z
1/2-x,1/2+y,1/2-z
1/2-x,1/2-y,-z
1/2+x,1/2-y,1/2+z
loop_
_atom_site_type_symbol
_atom_site_label
_atom_site_fract_x
_atom_site_fract_y
_atom_site_fract_z
Si Si1 0.500000 0.221124 0.250000
Si Si2 0.193151 0.584205 0.381564
Si Si3 0.500000 0.498133 0.250000
Si Si4 0.950603 0.193527 0.672227
Si Si5 0.302097 0.931974 0.940202
Si Si6 0.809267 0.611560 0.762928
O O1 0.632189 0.255983 0.254584
O O2 0.242999 0.196057 0.446863
O O3 0.500000 0.606156 0.250000
O O4 0.288258 0.533178 0.313391
O O5 0.020458 0.598728 0.383516
O O6 0.967416 0.587168 0.590454
O O7 0.334130 0.467897 0.415181
O O8 0.713510 0.163320 0.750822
O O9 0.000000 0.173144 0.750000
O O10 0.500000 0.952027 0.750000
O O11 0.025432 0.905844 0.048774
O O12 0.000000 0.603763 0.750000
#
# Coordination Sequence:
#
# PCOD9295974 Si02
#       6
#     4   8   4   8   8   8
#     4   8  18  37  70 104 116 168 208 258 314 391
#     4  10  23  44  62  92 127 161 221 276 324 381
#     4  10  24  43  66  88 130 158 230 274 330 385
#     4   9  18  39  67  94 132 160 212 254 320 375
#     4  12  24  41  66  92 122 175 213 272 335 376
#     4  12  25  42  61  97 135 173 220 262 316 389
#
# _framework density 20.516698000000002
#
# number of rings (size 3 to 8) (size 9 to 14) (size 15 to 20)
#    1.200    0.400    2.000    3.000    1.400    1.600 
#    3.600    1.000    0.000    0.000    0.000    0.000 
#    0.000    0.000    0.000    0.000    0.000    0.000 
#
# Total GULP energy -111427.594119 kJ/mol
# GULP energy per Si atom -5571.379706 kJ/mol
# Density = 2.047000 g / cm^3
# Si number density = 20.516698 Si / 1000 Ang^3
#
#
#
# Elastic Constant Matrix: (Units=GPa)
#
#
# Indices 1 2 3 4 5 6 
#
# 1 131.6769 13.1486 56.8883 0.0000 -11.6179 0.0000
# 2 13.1486 36.9093 21.2102 0.0000 -8.6173 0.0000
# 3 56.8883 21.2102 146.0211 0.0000 17.4004 0.0000
# 4 0.0000 0.0000 0.0000 27.8470 0.0000 -41.6577
# 5 -11.6179 -8.6173 17.4004 0.0000 44.5756 0.0000
# 6 0.0000 0.0000 0.0000 -41.6577 0.0000 73.2673
#
#
#
# Elastic Compliance Matrix: (Units=1/GPa)
#
#
# Indices 1 2 3 4 5 6 
#
# 1 0.009847 -0.000020 -0.004341 0.000000 0.004257 0.000000
# 2 -0.000020 0.032356 -0.005702 0.000000 0.008476 0.000000
# 3 -0.004341 -0.005702 0.010104 0.000000 -0.006178 0.000000
# 4 0.000000 0.000000 0.000000 0.240292 0.000000 0.136623
# 5 0.004257 0.008476 -0.006178 0.000000 0.027594 0.000000
# 6 0.000000 0.000000 0.000000 0.136623 0.000000 0.091329
#
#
# Mechanical properties :
#
#
# Convention : Reuss Voigt Hill
#
# Bulk Modulus (GPa) = 31.07324 55.23348 43.15336
# Shear Modulus (GPa) = 11.30263 44.02866 27.66565
#
# Velocity S-wave (km/s) = 2.34967 4.63751 3.67610
# Velocity P-wave (km/s) = 4.74758 7.46023 6.25278
#
# Compressibility (1/GPa) = 0.03218204
#
# Stress axis : x y z
#
# Youngs Moduli (GPa) = 101.55068 30.90602 98.97132
#
# Poissons Ratio (x) = 0.00060 0.42962
# Poissons Ratio (y) = 0.00198 0.56436
# Poissons Ratio (z) = 0.44082 0.17623
#
# Static dielectric constant tensor:
#      x y z
#    x 1.775010 0.000000 -0.031670 
#    y 0.000000 1.737880 0.000000 
#    z -0.031670 0.000000 1.739240 
# 
# From -- ./inp_files/139714.got.cif
#   From: 2010.05.17/outbox.cif.g08.bks.cpg/sg15_70_cif.got.tgz:139714.got - 2010.06.03 18:47:42.
