data_PCOD9295272
_publ_section_title
;
Structure prediction by ZEFSAII (Michael W. Deem and Ramdas Pophale) SiO2 
 PCOD9295272
Probable space group: C 2/C
;
_chemical_formula_sum "Si O2"
_cell_formula_units_Z 32
_cell_length_a 25.356271
_cell_length_b 10.223362
_cell_length_c 10.402539
_cell_angle_alpha 90.000000
_cell_angle_beta 26.671815
_cell_angle_gamma 90.000000
_cell_volume 1210.453820
_symmetry_space_group_name_H-M "C 2/C"
_symmetry_group_IT_number 15
_symmetry_cell_setting 'monoclinic'
loop_
_space_group_symop_operation_xyz
x,y,z
-x,y,1/2-z
-x,-y,-z
x,-y,1/2+z
1/2+x,1/2+y,z
1/2-x,1/2+y,1/2-z
1/2-x,1/2-y,-z
1/2+x,1/2-y,1/2+z
loop_
_atom_site_type_symbol
_atom_site_label
_atom_site_fract_x
_atom_site_fract_y
_atom_site_fract_z
Si Si1 0.067299 0.674885 0.806524
Si Si2 0.833356 0.094441 0.568690
Si Si3 0.125280 0.877995 0.224488
Si Si4 0.642366 0.019409 0.344500
O O1 0.138953 0.764546 0.551934
O O2 0.150279 0.598351 0.723189
O O3 0.971208 0.766584 0.087557
O O4 0.985406 0.574988 0.906176
O O5 0.874913 0.087663 0.623697
O O6 0.895451 0.995299 0.332120
O O7 0.697472 0.049156 0.850367
O O8 0.265234 0.864725 0.889683
#
# Coordination Sequence:
#
# PCOD9295272 Si02
#       4
#     8   8   8   8
#     4  11  20  44  66  94 127 175 219 271 320 386
#     4  10  23  42  67  98 134 173 217 270 325 389
#     4  10  23  42  67  98 134 173 217 270 325 389
#     4   9  24  41  66  94 128 173 222 265 326 384
#
# _framework density 26.436366
#
# number of rings (size 3 to 8) (size 9 to 14) (size 15 to 20)
#    1.500    0.500    0.000    3.000    0.000    4.000 
#    0.000    6.250    0.000    0.000    0.000    0.000 
#    0.000    0.000    0.000    0.000    0.000    0.000 
#
# Total GULP energy -89394.061107 kJ/mol
# GULP energy per Si atom -5587.128819 kJ/mol
# Density = 2.637620 g / cm^3
# Si number density = 26.436366 Si / 1000 Ang^3
#
#
#
# Elastic Constant Matrix: (Units=GPa)
#
#
# Indices 1 2 3 4 5 6 
#
# 1 86.0339 24.3086 32.2227 0.0000 3.6393 0.0000
# 2 24.3086 86.9186 57.7913 0.0000 7.0256 0.0000
# 3 32.2227 57.7913 85.5669 0.0000 -14.5638 0.0000
# 4 0.0000 0.0000 0.0000 47.9405 0.0000 -13.7630
# 5 3.6393 7.0256 -14.5638 0.0000 61.3299 0.0000
# 6 0.0000 0.0000 0.0000 -13.7630 0.0000 22.4828
#
#
#
# Elastic Compliance Matrix: (Units=1/GPa)
#
#
# Indices 1 2 3 4 5 6 
#
# 1 0.013796 0.000022 -0.005575 0.000000 -0.002145 0.000000
# 2 0.000022 0.023226 -0.016828 0.000000 -0.006658 0.000000
# 3 -0.005575 -0.016828 0.026612 0.000000 0.008578 0.000000
# 4 0.000000 0.000000 0.000000 0.025307 0.000000 0.015492
# 5 -0.002145 -0.006658 0.008578 0.000000 0.019232 0.000000
# 6 0.000000 0.000000 0.000000 0.015492 0.000000 0.053962
#
#
# Mechanical properties :
#
#
# Convention : Reuss Voigt Hill
#
# Bulk Modulus (GPa) = 52.99133 54.12942 53.56038
# Shear Modulus (GPa) = 23.45356 35.96376 29.70866
#
# Velocity S-wave (km/s) = 2.98177 3.69235 3.35592
# Velocity P-wave (km/s) = 5.65181 6.22075 5.94309
#
# Compressibility (1/GPa) = 0.01887101
#
# Stress axis : x y z
#
# Youngs Moduli (GPa) = 72.48492 43.05546 37.57727
#
# Poissons Ratio (x) = -0.00094 0.20950
# Poissons Ratio (y) = -0.00159 0.63235
# Poissons Ratio (z) = 0.40412 0.72454
#
# Static dielectric constant tensor:
#      x y z
#    x 2.017100 0.000000 0.037180 
#    y 0.000000 2.128820 0.000000 
#    z 0.037180 0.000000 2.244130 
# 
# From -- ./inp_files/125787.got.cif
#   From: 2010.05.17/outbox.cif.g08.bks.cpg/sg15_63_cif.got.tgz:125787.got - 2010.06.03 18:47:42.
