data_PCOD9295131
_publ_section_title
;
Structure prediction by ZEFSAII (Michael W. Deem and Ramdas Pophale) SiO2 
 PCOD9295131
Probable space group: C 2/C
;
_chemical_formula_sum "Si O2"
_cell_formula_units_Z 48
_cell_length_a 5.075479
_cell_length_b 30.376282
_cell_length_c 15.439546
_cell_angle_alpha 90.000000
_cell_angle_beta 101.923273
_cell_angle_gamma 90.000000
_cell_volume 2329.023029
_symmetry_space_group_name_H-M "C 2/C"
_symmetry_group_IT_number 15
_symmetry_cell_setting 'monoclinic'
loop_
_space_group_symop_operation_xyz
x,y,z
-x,y,1/2-z
-x,-y,-z
x,-y,1/2+z
1/2+x,1/2+y,z
1/2-x,1/2+y,1/2-z
1/2-x,1/2-y,-z
1/2+x,1/2-y,1/2+z
loop_
_atom_site_type_symbol
_atom_site_label
_atom_site_fract_x
_atom_site_fract_y
_atom_site_fract_z
Si Si1 0.278536 0.377142 0.809676
Si Si2 0.500000 0.157602 0.750000
Si Si3 0.000000 0.099355 0.750000
Si Si4 0.826276 0.973322 0.106732
Si Si5 0.497869 0.307635 0.962428
Si Si6 0.075453 0.294451 0.074965
Si Si7 0.836098 0.467960 0.600776
O O1 0.500000 0.383175 0.750000
O O2 0.397003 0.344028 0.889025
O O3 0.208114 0.423485 0.849962
O O4 0.000000 0.359554 0.750000
O O5 0.233256 0.128062 0.721981
O O6 0.450466 0.186452 0.831562
O O7 0.143157 0.068118 0.829633
O O8 0.626665 0.010022 0.132151
O O9 0.114312 0.996054 0.112567
O O10 0.709160 0.959949 0.004960
O O11 0.429132 0.258594 0.923564
O O12 0.338843 0.310866 0.042438
O O13 0.815406 0.309378 0.001881
#
# Coordination Sequence:
#
# PCOD9295131 Si02
#       7
#     8   4   4   8   8   8   8
#     4  12  26  41  67 103 130 170 223 275 328 389
#     4  12  26  40  68 105 130 171 224 274 326 390
#     4  12  26  42  66 101 130 169 222 276 330 388
#     4  10  23  43  65  90 125 172 213 265 331 386
#     4  10  23  46  68  96 133 178 216 267 334 388
#     4  10  23  44  70  96 133 177 216 268 331 390
#     4  10  23  42  65  91 125 171 213 266 328 387
#
# _framework density 20.609497999999999
#
# number of rings (size 3 to 8) (size 9 to 14) (size 15 to 20)
#    0.000    1.333    0.000    4.000    9.333    0.000 
#    1.500    0.000    0.000    0.000    0.000    0.000 
#    0.000    0.000    0.000    0.000    0.000    0.000 
#
# Total GULP energy -134359.136138 kJ/mol
# GULP energy per Si atom -5598.297339 kJ/mol
# Density = 2.056259 g / cm^3
# Si number density = 20.609498 Si / 1000 Ang^3
#
#
#
# Elastic Constant Matrix: (Units=GPa)
#
#
# Indices 1 2 3 4 5 6 
#
# 1 78.1055 14.6676 16.0262 0.0000 -23.6533 0.0000
# 2 14.6676 77.5604 70.8909 0.0000 -14.0416 0.0000
# 3 16.0262 70.8909 95.6603 0.0000 -18.5900 0.0000
# 4 0.0000 0.0000 0.0000 19.8003 0.0000 6.9982
# 5 -23.6533 -14.0416 -18.5900 0.0000 27.3972 0.0000
# 6 0.0000 0.0000 0.0000 6.9982 0.0000 26.8384
#
#
#
# Elastic Compliance Matrix: (Units=1/GPa)
#
#
# Indices 1 2 3 4 5 6 
#
# 1 0.017415 -0.001783 0.001323 0.000000 0.015019 0.000000
# 2 -0.001783 0.040147 -0.029665 0.000000 -0.001092 0.000000
# 3 0.001323 -0.029665 0.033962 0.000000 0.008982 0.000000
# 4 0.000000 0.000000 0.000000 0.055631 0.000000 -0.014506
# 5 0.015019 -0.001092 0.008982 0.000000 0.055001 0.000000
# 6 0.000000 0.000000 0.000000 -0.014506 0.000000 0.041043
#
#
# Mechanical properties :
#
#
# Convention : Reuss Voigt Hill
#
# Bulk Modulus (GPa) = 31.97790 50.49952 41.23871
# Shear Modulus (GPa) = 15.92996 24.78994 20.35995
#
# Velocity S-wave (km/s) = 2.78320 3.47196 3.14648
# Velocity P-wave (km/s) = 5.08705 6.37408 5.76658
#
# Compressibility (1/GPa) = 0.03127159
#
# Stress axis : x y z
#
# Youngs Moduli (GPa) = 57.42218 24.90851 29.44502
#
# Poissons Ratio (x) = 0.04442 -0.03894
# Poissons Ratio (y) = 0.10240 0.87349
# Poissons Ratio (z) = -0.07594 0.73892
#
# Static dielectric constant tensor:
#      x y z
#    x 1.714070 0.000000 0.001890 
#    y 0.000000 1.697810 0.000000 
#    z 0.001890 0.000000 1.719900 
# 
# From -- ./inp_files/130105.got.cif
#   From: 2010.05.17/outbox.cif.g08.bks.cpg/sg15_66_cif.got.tgz:130105.got - 2010.06.03 18:47:42.
