data_PCOD9295463
_publ_section_title
;
Structure prediction by ZEFSAII (Michael W. Deem and Ramdas Pophale) SiO2 
 PCOD9295463
Probable space group: C 2/C
;
_chemical_formula_sum "Si O2"
_cell_formula_units_Z 40
_cell_length_a 12.382738
_cell_length_b 18.854104
_cell_length_c 12.198334
_cell_angle_alpha 90.000000
_cell_angle_beta 144.389536
_cell_angle_gamma 90.000000
_cell_volume 1658.244651
_symmetry_space_group_name_H-M "C 2/C"
_symmetry_group_IT_number 15
_symmetry_cell_setting 'monoclinic'
loop_
_space_group_symop_operation_xyz
x,y,z
-x,y,1/2-z
-x,-y,-z
x,-y,1/2+z
1/2+x,1/2+y,z
1/2-x,1/2+y,1/2-z
1/2-x,1/2-y,-z
1/2+x,1/2-y,1/2+z
loop_
_atom_site_type_symbol
_atom_site_label
_atom_site_fract_x
_atom_site_fract_y
_atom_site_fract_z
Si Si1 0.500000 0.304282 0.250000
Si Si2 0.260548 0.967606 0.179298
Si Si3 0.053887 0.651603 0.918730
Si Si4 0.000000 0.432346 0.750000
Si Si5 0.384080 0.816967 0.490759
Si Si6 0.905089 0.928766 0.780814
O O1 0.582110 0.253648 0.411846
O O2 0.671993 0.341335 0.333255
O O3 0.442881 0.921697 0.346889
O O4 0.322748 0.018909 0.130332
O O5 0.205757 0.014459 0.238082
O O6 0.088839 0.916174 0.006986
O O7 0.000000 0.672501 0.750000
O O8 0.958618 0.699401 0.932100
O O9 0.266849 0.633662 0.125780
O O10 0.993840 0.380197 0.640693
O O11 0.000000 0.958385 0.750000
#
# Coordination Sequence:
#
# PCOD9295463 Si02
#       6
#     4   8   8   4   8   8
#     4   9  22  50  68  96 118 150 226 309 324 378
#     4  11  23  36  58  90 141 177 215 257 296 389
#     4  12  23  41  60  94 139 176 207 262 318 400
#     4  11  20  40  64  96 132 178 212 261 320 388
#     4  10  23  42  72  93 124 164 220 278 343 372
#     4  11  22  37  53  84 135 184 215 248 299 371
#
# _framework density 24.121894000000001
#
# number of rings (size 3 to 8) (size 9 to 14) (size 15 to 20)
#    0.000    1.200    5.000    0.600    2.800    3.200 
#    3.600    1.000    0.000    0.000    0.000    0.000 
#    0.000    0.000    0.000    0.000    0.000    0.000 
#
# Total GULP energy -111605.473507 kJ/mol
# GULP energy per Si atom -5580.273675 kJ/mol
# Density = 2.406699 g / cm^3
# Si number density = 24.121894 Si / 1000 Ang^3
#
#
#
# Elastic Constant Matrix: (Units=GPa)
#
#
# Indices 1 2 3 4 5 6 
#
# 1 179.4602 5.7990 44.0669 0.0000 -26.6050 0.0000
# 2 5.7990 6.2881 9.4168 0.0000 2.1409 0.0000
# 3 44.0669 9.4168 121.3139 0.0000 6.1269 0.0000
# 4 0.0000 0.0000 0.0000 3.4189 0.0000 13.4328
# 5 -26.6050 2.1409 6.1269 0.0000 47.7087 0.0000
# 6 0.0000 0.0000 0.0000 13.4328 0.0000 -2.5890
#
#
#
# Elastic Compliance Matrix: (Units=1/GPa)
#
#
# Indices 1 2 3 4 5 6 
#
# 1 0.006953 -0.004288 -0.002414 0.000000 0.004380 0.000000
# 2 -0.004288 0.184509 -0.012305 0.000000 -0.009091 0.000000
# 3 -0.002414 -0.012305 0.010181 0.000000 -0.002101 0.000000
# 4 0.000000 0.000000 0.000000 0.013677 0.000000 0.070964
# 5 0.004380 -0.009091 -0.002101 0.000000 0.024081 0.000000
# 6 0.000000 0.000000 0.000000 0.070964 0.000000 -0.018062
#
#
# Mechanical properties :
#
#
# Convention : Reuss Voigt Hill
#
# Bulk Modulus (GPa) = 6.11141 47.29193 26.70167
# Shear Modulus (GPa) = 15.92874 26.22635 21.07755
#
# Velocity S-wave (km/s) = 2.57250 3.30091 2.95921
# Velocity P-wave (km/s) = 3.37087 5.84602 4.77173
#
# Compressibility (1/GPa) = 0.16362843
#
# Stress axis : x y z
#
# Youngs Moduli (GPa) = 143.82525 5.41978 98.21973
#
# Poissons Ratio (x) = 0.02324 0.23710
# Poissons Ratio (y) = 0.61675 1.20863
# Poissons Ratio (z) = 0.34719 0.06669
#
# Static dielectric constant tensor:
#      x y z
#    x 1.988660 0.000000 -0.013610 
#    y 0.000000 2.078340 0.000000 
#    z -0.013610 0.000000 2.039850 
# 
# From -- ./inp_files/89900.got.cif
#   From: 2010.05.17/outbox.cif.g08.bks.cpg/sg15_45_cif.got.tgz:89900.got - 2010.06.03 18:47:42.
