data_PCOD9295134
_publ_section_title
;
Structure prediction by ZEFSAII (Michael W. Deem and Ramdas Pophale) SiO2 
 PCOD9295134
Probable space group: C 2/C
;
_chemical_formula_sum "Si O2"
_cell_formula_units_Z 52
_cell_length_a 6.506404
_cell_length_b 15.668220
_cell_length_c 27.448483
_cell_angle_alpha 90.000000
_cell_angle_beta 117.936180
_cell_angle_gamma 90.000000
_cell_volume 2472.127290
_symmetry_space_group_name_H-M "C 2/C"
_symmetry_group_IT_number 15
_symmetry_cell_setting 'monoclinic'
loop_
_space_group_symop_operation_xyz
x,y,z
-x,y,1/2-z
-x,-y,-z
x,-y,1/2+z
1/2+x,1/2+y,z
1/2-x,1/2+y,1/2-z
1/2-x,1/2-y,-z
1/2+x,1/2-y,1/2+z
loop_
_atom_site_type_symbol
_atom_site_label
_atom_site_fract_x
_atom_site_fract_y
_atom_site_fract_z
Si Si1 0.878656 0.981597 0.134034
Si Si2 0.750628 0.890082 0.788939
Si Si3 0.000000 0.761854 0.750000
Si Si4 0.589739 0.435160 0.969253
Si Si5 0.161858 0.181302 0.638098
Si Si6 0.747261 0.703915 0.106590
Si Si7 0.948083 0.623778 0.580768
O O1 0.615498 0.953429 0.117043
O O2 0.021019 0.893355 0.149059
O O3 0.877682 0.020540 0.079418
O O4 0.027947 0.047004 0.182856
O O5 0.500000 0.931817 0.750000
O O6 0.731928 0.840881 0.838432
O O7 0.807217 0.821121 0.753865
O O8 0.118056 0.707038 0.805260
O O9 0.395802 0.361929 0.942045
O O10 0.500000 0.500000 0.000000
O O11 0.831579 0.398175 0.016381
O O12 0.245637 0.143234 0.596540
O O13 0.996024 0.263866 0.614725
O O14 0.595425 0.789764 0.093921
#
# Coordination Sequence:
#
# PCOD9295134 Si02
#       7
#     8   8   4   8   8   8   8
#     4  10  25  43  63  93 132 166 216 271 325 393
#     4  11  23  43  65  93 126 168 217 269 328 394
#     4  12  24  40  66  92 124 172 210 266 332 386
#     4  11  22  42  66  94 131 173 212 270 325 384
#     4  11  23  42  65  95 127 170 218 270 321 393
#     4  10  23  42  65  93 129 169 217 263 321 396
#     4  11  22  43  65  95 128 170 215 264 326 392
#
# _framework density 21.034516
#
# number of rings (size 3 to 8) (size 9 to 14) (size 15 to 20)
#    0.000    1.231    4.615    0.923    1.077    3.077 
#    2.769    0.000    0.000    0.000    0.000    0.000 
#    0.000    0.000    0.000    0.000    0.000    0.000 
#
# Total GULP energy -145301.498994 kJ/mol
# GULP energy per Si atom -5588.519192 kJ/mol
# Density = 2.098664 g / cm^3
# Si number density = 21.034516 Si / 1000 Ang^3
#
#
#
# Elastic Constant Matrix: (Units=GPa)
#
#
# Indices 1 2 3 4 5 6 
#
# 1 54.9662 11.5148 7.2455 0.0000 12.2911 0.0000
# 2 11.5148 79.8233 31.0369 0.0000 13.1870 0.0000
# 3 7.2455 31.0369 82.6855 0.0000 22.4429 0.0000
# 4 0.0000 0.0000 0.0000 32.9232 0.0000 16.6002
# 5 12.2911 13.1870 22.4429 0.0000 29.8968 0.0000
# 6 0.0000 0.0000 0.0000 16.6002 0.0000 37.6417
#
#
#
# Elastic Compliance Matrix: (Units=1/GPa)
#
#
# Indices 1 2 3 4 5 6 
#
# 1 0.020334 -0.002036 0.001265 0.000000 -0.008412 0.000000
# 2 -0.002036 0.015080 -0.004903 0.000000 -0.002134 0.000000
# 3 0.001265 -0.004903 0.016801 0.000000 -0.010970 0.000000
# 4 0.000000 0.000000 0.000000 0.039059 0.000000 -0.017225
# 5 -0.008412 -0.002134 -0.010970 0.000000 0.046083 0.000000
# 6 0.000000 0.000000 0.000000 -0.017225 0.000000 0.034163
#
#
# Mechanical properties :
#
#
# Convention : Reuss Voigt Hill
#
# Bulk Modulus (GPa) = 24.46864 35.22994 29.84929
# Shear Modulus (GPa) = 25.44687 31.27086 28.35886
#
# Velocity S-wave (km/s) = 3.48194 3.85989 3.67578
# Velocity P-wave (km/s) = 5.27476 6.05392 5.67772
#
# Compressibility (1/GPa) = 0.04086864
#
# Stress axis : x y z
#
# Youngs Moduli (GPa) = 49.17984 66.31199 59.52051
#
# Poissons Ratio (x) = 0.13499 -0.07532
# Poissons Ratio (y) = 0.10011 0.29182
# Poissons Ratio (z) = -0.06223 0.32512
#
# Static dielectric constant tensor:
#      x y z
#    x 1.798760 0.000000 0.018930 
#    y 0.000000 1.746310 0.000000 
#    z 0.018930 0.000000 1.752850 
# 
# From -- ./inp_files/286158.got.cif
#   From: 2010.05.17/outbox.cif.g08.bks.cpg/sg15_144_cif.got.tgz:286158.got - 2010.06.03 18:47:42.
