data_PCOD9295133
_publ_section_title
;
Structure prediction by ZEFSAII (Michael W. Deem and Ramdas Pophale) SiO2 
 PCOD9295133
Probable space group: C 2/C
;
_chemical_formula_sum "Si O2"
_cell_formula_units_Z 48
_cell_length_a 17.148262
_cell_length_b 9.663194
_cell_length_c 18.450950
_cell_angle_alpha 90.000000
_cell_angle_beta 52.759149
_cell_angle_gamma 90.000000
_cell_volume 2434.032798
_symmetry_space_group_name_H-M "C 2/C"
_symmetry_group_IT_number 15
_symmetry_cell_setting 'monoclinic'
loop_
_space_group_symop_operation_xyz
x,y,z
-x,y,1/2-z
-x,-y,-z
x,-y,1/2+z
1/2+x,1/2+y,z
1/2-x,1/2+y,1/2-z
1/2-x,1/2-y,-z
1/2+x,1/2-y,1/2+z
loop_
_atom_site_type_symbol
_atom_site_label
_atom_site_fract_x
_atom_site_fract_y
_atom_site_fract_z
Si Si1 0.990857 0.548217 0.894684
Si Si2 0.800205 0.253480 0.665833
Si Si3 0.299491 0.374038 0.516675
Si Si4 0.821150 0.521344 0.279789
Si Si5 0.734395 0.110765 0.465803
Si Si6 0.015505 0.264995 0.510580
O O1 0.064432 0.520078 0.787610
O O2 0.996014 0.408382 0.939048
O O3 0.028530 0.679704 0.921145
O O4 0.875570 0.566172 0.950717
O O5 0.805515 0.351940 0.732664
O O6 0.764122 0.351000 0.619732
O O7 0.908217 0.199384 0.580841
O O8 0.734849 0.118123 0.712650
O O9 0.250000 0.250000 0.500000
O O10 0.224644 0.430593 0.619144
O O11 0.310272 0.496787 0.451897
O O12 0.396773 0.322063 0.503612
O O13 0.750000 0.250000 0.500000
#
# Coordination Sequence:
#
# PCOD9295133 Si02
#       6
#     8   8   8   8   8   8
#     4   9  19  39  66  86 124 167 214 246 316 389
#     4  10  23  42  65  92 126 168 218 257 317 384
#     4  12  24  39  65  94 126 166 212 262 318 377
#     4  11  23  40  66  92 123 166 213 260 306 385
#     4  11  22  43  62  92 128 166 208 267 324 375
#     4   9  19  39  64  91 119 171 206 255 314 386
#
# _framework density 19.720358000000001
#
# number of rings (size 3 to 8) (size 9 to 14) (size 15 to 20)
#    0.000    1.667    3.333    2.000    2.333    1.333 
#    3.000    0.000    0.000    0.000    0.000    0.000 
#    0.000    0.000    0.000    0.000    0.000    0.000 
#
# Total GULP energy -133847.990331 kJ/mol
# GULP energy per Si atom -5576.999597 kJ/mol
# Density = 1.967547 g / cm^3
# Si number density = 19.720358 Si / 1000 Ang^3
#
#
#
# Elastic Constant Matrix: (Units=GPa)
#
#
# Indices 1 2 3 4 5 6 
#
# 1 53.6049 3.5592 -5.7159 0.0000 11.0684 0.0000
# 2 3.5592 64.8242 -10.0705 0.0000 0.8304 0.0000
# 3 -5.7159 -10.0705 42.0262 0.0000 -4.9623 0.0000
# 4 0.0000 0.0000 0.0000 28.8417 0.0000 2.6844
# 5 11.0684 0.8304 -4.9623 0.0000 26.1243 0.0000
# 6 0.0000 0.0000 0.0000 2.6844 0.0000 48.5217
#
#
#
# Elastic Compliance Matrix: (Units=1/GPa)
#
#
# Indices 1 2 3 4 5 6 
#
# 1 0.020614 -0.000771 0.001627 0.000000 -0.008400 0.000000
# 2 -0.000771 0.016053 0.003805 0.000000 0.000539 0.000000
# 3 0.001627 0.003805 0.025402 0.000000 0.004015 0.000000
# 4 0.000000 0.000000 0.000000 0.034851 0.000000 -0.001928
# 5 -0.008400 0.000539 0.004015 0.000000 0.042583 0.000000
# 6 0.000000 0.000000 0.000000 -0.001928 0.000000 0.020716
#
#
# Mechanical properties :
#
#
# Convention : Reuss Voigt Hill
#
# Bulk Modulus (GPa) = 14.00739 15.11122 14.55931
# Shear Modulus (GPa) = 28.62134 32.20969 30.41552
#
# Velocity S-wave (km/s) = 3.81381 4.04582 3.93153
# Velocity P-wave (km/s) = 5.14897 5.43179 5.29227
#
# Compressibility (1/GPa) = 0.07139089
#
# Stress axis : x y z
#
# Youngs Moduli (GPa) = 48.51023 62.29377 39.36714
#
# Poissons Ratio (x) = 0.04806 -0.06405
# Poissons Ratio (y) = 0.03742 -0.14981
# Poissons Ratio (z) = -0.07892 -0.23706
#
# Static dielectric constant tensor:
#      x y z
#    x 1.736700 0.000000 -0.004260 
#    y 0.000000 1.715560 0.000000 
#    z -0.004260 0.000000 1.798650 
# 
# From -- ./inp_files/247286.got.cif
#   From: 2010.05.17/outbox.cif.g08.bks.cpg/sg15_124_cif.got.tgz:247286.got - 2010.06.03 18:47:42.
