data_PCOD9295858
_publ_section_title
;
Structure prediction by ZEFSAII (Michael W. Deem and Ramdas Pophale) SiO2 
 PCOD9295858
Probable space group: C 2/C
;
_chemical_formula_sum "Si O2"
_cell_formula_units_Z 56
_cell_length_a 15.608255
_cell_length_b 24.068404
_cell_length_c 11.016762
_cell_angle_alpha 90.000000
_cell_angle_beta 142.272738
_cell_angle_gamma 90.000000
_cell_volume 2532.436180
_symmetry_space_group_name_H-M "C 2/C"
_symmetry_group_IT_number 15
_symmetry_cell_setting 'monoclinic'
loop_
_space_group_symop_operation_xyz
x,y,z
-x,y,1/2-z
-x,-y,-z
x,-y,1/2+z
1/2+x,1/2+y,z
1/2-x,1/2+y,1/2-z
1/2-x,1/2-y,-z
1/2+x,1/2-y,1/2+z
loop_
_atom_site_type_symbol
_atom_site_label
_atom_site_fract_x
_atom_site_fract_y
_atom_site_fract_z
Si Si1 0.444778 0.651299 0.317094
Si Si2 0.448389 0.217221 0.818015
Si Si3 0.856309 0.730517 0.018810
Si Si4 0.277228 0.167494 0.254143
Si Si5 0.261025 0.648106 0.796104
Si Si6 0.091565 0.429861 0.729736
Si Si7 0.585429 0.055361 0.720661
O O1 0.500000 0.627872 0.250000
O O2 0.445781 0.717497 0.303357
O O3 0.297278 0.637468 0.213999
O O4 0.577695 0.640366 0.552454
O O5 0.500000 0.192496 0.750000
O O6 0.291529 0.196938 0.671556
O O7 0.571346 0.195953 0.047127
O O8 0.000000 0.726493 0.250000
O O9 0.750000 0.750000 0.000000
O O10 0.832182 0.783261 0.902191
O O11 0.815782 0.672740 0.908551
O O12 0.305360 0.121505 0.182278
O O13 0.206539 0.596213 0.811533
O O14 0.144593 0.493082 0.804804
O O15 0.000000 0.419887 0.750000
O O16 0.011982 0.436774 0.509494
O O17 0.500000 0.067374 0.750000
#
# Coordination Sequence:
#
# PCOD9295858 Si02
#       7
#     8   8   8   8   8   8   8
#     4  11  23  37  57  95 138 171 211 266 340 421
#     4  11  20  36  61  91 129 174 220 268 329 403
#     4  12  26  40  59  90 136 183 229 275 331 417
#     4  12  23  41  63  93 135 179 226 279 341 404
#     4  12  22  39  64  94 131 172 226 278 342 402
#     4  10  24  44  69 101 129 174 237 298 342 405
#     4  10  23  43  71 101 130 169 237 299 349 399
#
# _framework density 22.113095000000001
#
# number of rings (size 3 to 8) (size 9 to 14) (size 15 to 20)
#    0.000    0.857    4.286    3.000    4.000    2.286 
#    0.000    0.714    0.000    0.857    0.000    0.000 
#    0.000    0.000    0.000    0.000    0.000    0.000 
#
# Total GULP energy -155936.398765 kJ/mol
# GULP energy per Si atom -5569.157099 kJ/mol
# Density = 2.206276 g / cm^3
# Si number density = 22.113095 Si / 1000 Ang^3
#
#
#
# Elastic Constant Matrix: (Units=GPa)
#
#
# Indices 1 2 3 4 5 6 
#
# 1 156.6138 27.4646 23.5256 0.0000 -12.2569 0.0000
# 2 27.4646 111.0071 16.4468 0.0000 -2.8632 0.0000
# 3 23.5256 16.4468 91.6043 0.0000 0.3532 0.0000
# 4 0.0000 0.0000 0.0000 9.4810 0.0000 -3.5651
# 5 -12.2569 -2.8632 0.3532 0.0000 35.5783 0.0000
# 6 0.0000 0.0000 0.0000 -3.5651 0.0000 37.4097
#
#
#
# Elastic Compliance Matrix: (Units=1/GPa)
#
#
# Indices 1 2 3 4 5 6 
#
# 1 0.007057 -0.001455 -0.001560 0.000000 0.002330 0.000000
# 2 -0.001455 0.009575 -0.001347 0.000000 0.000283 0.000000
# 3 -0.001560 -0.001347 0.011562 0.000000 -0.000761 0.000000
# 4 0.000000 0.000000 0.000000 0.109394 0.000000 0.010425
# 5 0.002330 0.000283 -0.000761 0.000000 0.028940 0.000000
# 6 0.000000 0.000000 0.000000 0.010425 0.000000 0.027725
#
#
# Mechanical properties :
#
#
# Convention : Reuss Voigt Hill
#
# Bulk Modulus (GPa) = 51.35853 54.89993 53.12923
# Shear Modulus (GPa) = 23.87027 35.94635 29.90831
#
# Velocity S-wave (km/s) = 3.28908 4.03621 3.68165
# Velocity P-wave (km/s) = 6.14002 6.82657 6.49238
#
# Compressibility (1/GPa) = 0.01947096
#
# Stress axis : x y z
#
# Youngs Moduli (GPa) = 141.70497 104.43688 86.49096
#
# Poissons Ratio (x) = 0.15193 0.13494
# Poissons Ratio (y) = 0.20614 0.11647
# Poissons Ratio (z) = 0.22108 0.14064
#
# Static dielectric constant tensor:
#      x y z
#    x 1.983690 0.000000 -0.097780 
#    y 0.000000 1.856580 0.000000 
#    z -0.097780 0.000000 1.937410 
# 
# From -- ./inp_files/101139.got.cif
#   From: 2010.05.17/outbox.cif.g08.bks.cpg/sg15_51_cif.got.tgz:101139.got - 2010.06.03 18:47:42.
