data_PCOD9295086
_publ_section_title
;
Structure prediction by ZEFSAII (Michael W. Deem and Ramdas Pophale) SiO2 
 PCOD9295086
Probable space group: C 2/C
;
_chemical_formula_sum "Si O2"
_cell_formula_units_Z 32
_cell_length_a 12.157313
_cell_length_b 11.438704
_cell_length_c 14.849720
_cell_angle_alpha 90.000000
_cell_angle_beta 36.854341
_cell_angle_gamma 90.000000
_cell_volume 1238.587428
_symmetry_space_group_name_H-M "C 2/C"
_symmetry_group_IT_number 15
_symmetry_cell_setting 'monoclinic'
loop_
_space_group_symop_operation_xyz
x,y,z
-x,y,1/2-z
-x,-y,-z
x,-y,1/2+z
1/2+x,1/2+y,z
1/2-x,1/2+y,1/2-z
1/2-x,1/2-y,-z
1/2+x,1/2-y,1/2+z
loop_
_atom_site_type_symbol
_atom_site_label
_atom_site_fract_x
_atom_site_fract_y
_atom_site_fract_z
Si Si1 0.293007 0.732592 0.255921
Si Si2 0.054584 0.597075 0.537985
Si Si3 0.789003 0.331110 0.887745
Si Si4 0.078278 0.021381 0.107272
O O1 0.127219 0.705674 0.430821
O O2 0.228083 0.732081 0.196116
O O3 0.437393 0.626050 0.178852
O O4 0.388181 0.856934 0.206580
O O5 0.223447 0.565162 0.489843
O O6 0.000000 0.500000 0.500000
O O7 0.000000 0.375415 0.750000
O O8 0.750000 0.250000 0.000000
O O9 0.630982 0.429618 0.996791
O O10 0.000000 0.961362 0.250000
#
# Coordination Sequence:
#
# PCOD9295086 Si02
#       4
#     8   8   8   8
#     4  11  24  42  66  93 127 170 215 268 327 390
#     4  11  24  44  66  96 132 169 215 271 327 391
#     4  12  24  40  62  93 129 171 218 269 325 387
#     4  10  23  42  64  92 127 168 215 268 324 386
#
# _framework density 25.835882000000002
#
# number of rings (size 3 to 8) (size 9 to 14) (size 15 to 20)
#    0.000    1.000    0.000    6.750    0.000   10.000 
#    0.000    0.000    0.000    0.000    0.000    0.000 
#    0.000    0.000    0.000    0.000    0.000    0.000 
#
# Total GULP energy -89646.012731 kJ/mol
# GULP energy per Si atom -5602.875796 kJ/mol
# Density = 2.577708 g / cm^3
# Si number density = 25.835882 Si / 1000 Ang^3
#
#
#
# Elastic Constant Matrix: (Units=GPa)
#
#
# Indices 1 2 3 4 5 6 
#
# 1 87.0438 -6.9745 -0.2472 0.0000 -1.6345 0.0000
# 2 -6.9745 53.5820 33.7000 -0.0001 -4.2645 0.0000
# 3 -0.2472 33.7000 100.0183 -0.0001 -1.6318 0.0001
# 4 0.0000 -0.0001 -0.0001 60.0760 0.0001 -0.3660
# 5 -1.6345 -4.2645 -1.6318 0.0001 42.6021 0.0000
# 6 0.0000 0.0000 0.0001 -0.3660 0.0000 33.3140
#
#
#
# Elastic Compliance Matrix: (Units=1/GPa)
#
#
# Indices 1 2 3 4 5 6 
#
# 1 0.011655 0.001957 -0.000620 0.000000 0.000619 0.000000
# 2 0.001957 0.024193 -0.008111 0.000000 0.002186 0.000000
# 3 -0.000620 -0.008111 0.012724 0.000000 -0.000348 0.000000
# 4 0.000000 0.000000 0.000000 0.016647 0.000000 0.000183
# 5 0.000619 0.002186 -0.000348 0.000000 0.023702 0.000000
# 6 0.000000 0.000000 0.000000 0.000183 0.000000 0.030019
#
#
# Mechanical properties :
#
#
# Convention : Reuss Voigt Hill
#
# Bulk Modulus (GPa) = 28.55325 32.62230 30.58778
# Shear Modulus (GPa) = 34.68269 41.47613 38.07941
#
# Velocity S-wave (km/s) = 3.66788 4.01105 3.84330
# Velocity P-wave (km/s) = 5.38643 5.84000 5.61779
#
# Compressibility (1/GPa) = 0.03502228
#
# Stress axis : x y z
#
# Youngs Moduli (GPa) = 85.79936 41.33429 78.59248
#
# Poissons Ratio (x) = -0.08087 0.04875
# Poissons Ratio (y) = -0.16787 0.63747
# Poissons Ratio (z) = 0.05322 0.33526
#
# Static dielectric constant tensor:
#      x y z
#    x 1.993590 0.000000 0.001290 
#    y 0.000000 2.362010 0.000000 
#    z 0.001290 0.000000 2.036140 
# 
# From -- ./inp_files/203761.got.cif
#   From: 2010.05.17/outbox.cif.g08.bks.cpg/sg15_102_cif.got.tgz:203761.got - 2010.06.03 18:47:42.
