data_PCOD9295411
_publ_section_title
;
Structure prediction by ZEFSAII (Michael W. Deem and Ramdas Pophale) SiO2 
 PCOD9295411
Probable space group: C 2/C
;
_chemical_formula_sum "Si O2"
_cell_formula_units_Z 56
_cell_length_a 27.230013
_cell_length_b 5.204000
_cell_length_c 15.810237
_cell_angle_alpha 90.000000
_cell_angle_beta 89.701748
_cell_angle_gamma 90.000000
_cell_volume 2240.359085
_symmetry_space_group_name_H-M "C 2/C"
_symmetry_group_IT_number 15
_symmetry_cell_setting 'monoclinic'
loop_
_space_group_symop_operation_xyz
x,y,z
-x,y,1/2-z
-x,-y,-z
x,-y,1/2+z
1/2+x,1/2+y,z
1/2-x,1/2+y,1/2-z
1/2-x,1/2-y,-z
1/2+x,1/2-y,1/2+z
loop_
_atom_site_type_symbol
_atom_site_label
_atom_site_fract_x
_atom_site_fract_y
_atom_site_fract_z
Si Si1 0.033538 0.398548 0.922862
Si Si2 0.675385 0.679906 0.937337
Si Si3 0.781363 0.393978 0.263398
Si Si4 0.087930 0.975601 0.534406
Si Si5 0.377972 0.010782 0.181859
Si Si6 0.935637 0.529449 0.354995
Si Si7 0.280018 0.952827 0.943697
O O1 0.082436 0.549154 0.892359
O O2 0.994440 0.429747 0.848338
O O3 0.053083 0.121651 0.956596
O O4 0.000000 0.500000 0.000000
O O5 0.646289 0.726260 0.852209
O O6 0.731918 0.625125 0.922587
O O7 0.643145 0.504401 0.998300
O O8 0.679542 0.936008 0.994231
O O9 0.756229 0.112310 0.271705
O O10 0.828480 0.352590 0.201846
O O11 0.801135 0.539748 0.348462
O O12 0.079759 0.738586 0.600017
O O13 0.077778 0.233809 0.583912
O O14 0.408434 0.042688 0.266434
O O15 0.250000 0.750000 0.000000
#
# Coordination Sequence:
#
# PCOD9295411 Si02
#       7
#     8   8   8   8   8   8   8
#     4   9  21  46  74 104 140 182 235 291 349 432
#     4  10  23  44  62 101 131 188 233 284 339 424
#     4  12  27  48  69 105 147 185 239 297 352 415
#     4  10  23  42  70  99 138 179 230 276 350 420
#     4  11  23  44  70 104 143 184 234 292 361 409
#     4  11  23  44  69 105 138 178 227 293 354 411
#     4  11  24  42  72  92 141 188 242 285 347 411
#
# _framework density 24.995991
#
# number of rings (size 3 to 8) (size 9 to 14) (size 15 to 20)
#    0.000    1.429    1.429    2.571    6.000    1.143 
#    5.143   11.429    0.000    0.000    0.000    0.000 
#    0.000    0.000    0.000    0.000    0.000    0.000 
#
# Total GULP energy -156070.218516 kJ/mol
# GULP energy per Si atom -5573.936376 kJ/mol
# Density = 2.493910 g / cm^3
# Si number density = 24.995991 Si / 1000 Ang^3
#
#
#
# Elastic Constant Matrix: (Units=GPa)
#
#
# Indices 1 2 3 4 5 6 
#
# 1 156.5691 21.2106 31.8313 0.0000 -26.3683 0.0000
# 2 21.2106 99.5347 12.6478 0.0000 -4.7887 0.0000
# 3 31.8313 12.6478 99.2752 0.0000 12.0333 0.0000
# 4 0.0000 0.0000 0.0000 6.1910 0.0000 -4.3866
# 5 -26.3683 -4.7887 12.0333 0.0000 50.0302 0.0000
# 6 0.0000 0.0000 0.0000 -4.3866 0.0000 25.9385
#
#
#
# Elastic Compliance Matrix: (Units=1/GPa)
#
#
# Indices 1 2 3 4 5 6 
#
# 1 0.007952 -0.001083 -0.002995 0.000000 0.004808 0.000000
# 2 -0.001083 0.010446 -0.001067 0.000000 0.000686 0.000000
# 3 -0.002995 -0.001067 0.011714 0.000000 -0.004498 0.000000
# 4 0.000000 0.000000 0.000000 0.183513 0.000000 0.031035
# 5 0.004808 0.000686 -0.004498 0.000000 0.023669 0.000000
# 6 0.000000 0.000000 0.000000 0.031035 0.000000 0.043801
#
#
# Mechanical properties :
#
#
# Convention : Reuss Voigt Hill
#
# Bulk Modulus (GPa) = 50.44333 54.08429 52.26381
# Shear Modulus (GPa) = 16.77896 35.74457 26.26177
#
# Velocity S-wave (km/s) = 2.59369 3.78565 3.24487
# Velocity P-wave (km/s) = 5.40315 6.38689 5.91551
#
# Compressibility (1/GPa) = 0.01982422
#
# Stress axis : x y z
#
# Youngs Moduli (GPa) = 125.75229 95.73015 85.36588
#
# Poissons Ratio (x) = 0.10365 0.25563
# Poissons Ratio (y) = 0.13616 0.09107
# Poissons Ratio (z) = 0.37657 0.10212
#
# Static dielectric constant tensor:
#      x y z
#    x 2.112750 0.000000 -0.074810 
#    y 0.000000 2.044630 0.000000 
#    z -0.074810 0.000000 2.259000 
# 
# From -- ./inp_files/180120.got.cif
#   From: 2010.05.17/outbox.cif.g08.bks.cpg/sg15_91_cif.got.tgz:180120.got - 2010.06.03 18:47:42.
