data_PCOD9295828
_publ_section_title
;
Structure prediction by ZEFSAII (Michael W. Deem and Ramdas Pophale) SiO2 
 PCOD9295828
Probable space group: C 2/C
;
_chemical_formula_sum "Si O2"
_cell_formula_units_Z 48
_cell_length_a 21.019712
_cell_length_b 11.816092
_cell_length_c 9.828715
_cell_angle_alpha 90.000000
_cell_angle_beta 123.350943
_cell_angle_gamma 90.000000
_cell_volume 2039.152311
_symmetry_space_group_name_H-M "C 2/C"
_symmetry_group_IT_number 15
_symmetry_cell_setting 'monoclinic'
loop_
_space_group_symop_operation_xyz
x,y,z
-x,y,1/2-z
-x,-y,-z
x,-y,1/2+z
1/2+x,1/2+y,z
1/2-x,1/2+y,1/2-z
1/2-x,1/2-y,-z
1/2+x,1/2-y,1/2+z
loop_
_atom_site_type_symbol
_atom_site_label
_atom_site_fract_x
_atom_site_fract_y
_atom_site_fract_z
Si Si1 0.000000 0.752547 0.250000
Si Si2 0.805749 0.581661 0.574609
Si Si3 0.871567 0.730530 0.448256
Si Si4 0.215082 0.058988 0.747539
Si Si5 0.567570 0.539107 0.974383
Si Si6 0.430276 0.055981 0.341081
Si Si7 0.000000 0.849706 0.750000
O O1 0.049543 0.837550 0.398823
O O2 0.046545 0.668033 0.211806
O O3 0.821372 0.703368 0.522891
O O4 0.767878 0.582610 0.678873
O O5 0.759065 0.490574 0.428555
O O6 0.890200 0.532100 0.696739
O O7 0.834617 0.824589 0.306448
O O8 0.871587 0.608344 0.378986
O O9 0.958146 0.766282 0.593327
O O10 0.149805 0.967553 0.636152
O O11 0.565887 0.447984 0.847038
O O12 0.500000 0.500000 0.000000
O O13 0.500000 0.000000 0.500000
#
# Coordination Sequence:
#
# PCOD9295828 Si02
#       7
#     4   8   8   8   8   8   4
#     4  11  24  41  76 102 136 193 240 295 372 410
#     4  12  26  49  67 105 142 188 234 299 350 428
#     4  11  23  45  71  99 141 190 234 287 361 419
#     4  11  27  44  74 102 147 180 236 293 361 427
#     4  10  23  43  70 106 139 178 236 298 353 436
#     4  12  26  47  70 103 141 188 247 296 345 430
#     4   9  20  39  68  98 130 177 230 287 336 422
#
# _framework density 23.539193999999998
#
# number of rings (size 3 to 8) (size 9 to 14) (size 15 to 20)
#    0.000    1.000    1.667    4.500    9.333    2.000 
#    0.000    0.000    0.000    0.000    0.000    0.000 
#    0.000    0.000    0.000    0.000    0.000    0.000 
#
# Total GULP energy -133795.388441 kJ/mol
# GULP energy per Si atom -5574.807852 kJ/mol
# Density = 2.348562 g / cm^3
# Si number density = 23.539194 Si / 1000 Ang^3
#
#
#
# Elastic Constant Matrix: (Units=GPa)
#
#
# Indices 1 2 3 4 5 6 
#
# 1 44.5805 5.0606 -4.2770 0.0000 -6.8737 0.0000
# 2 5.0606 79.4522 16.2304 0.0000 12.0561 0.0000
# 3 -4.2770 16.2304 117.3991 0.0000 23.2243 0.0000
# 4 0.0000 0.0000 0.0000 43.2485 0.0000 -2.6698
# 5 -6.8737 12.0561 23.2243 0.0000 30.0091 0.0000
# 6 0.0000 0.0000 0.0000 -2.6698 0.0000 32.8127
#
#
#
# Elastic Compliance Matrix: (Units=1/GPa)
#
#
# Indices 1 2 3 4 5 6 
#
# 1 0.023705 -0.002478 -0.000077 0.000000 0.006485 0.000000
# 2 -0.002478 0.013749 -0.000928 0.000000 -0.005373 0.000000
# 3 -0.000077 -0.000928 0.010123 0.000000 -0.007479 0.000000
# 4 0.000000 0.000000 0.000000 0.023239 0.000000 0.001891
# 5 0.006485 -0.005373 -0.007479 0.000000 0.042755 0.000000
# 6 0.000000 0.000000 0.000000 0.001891 0.000000 0.030630
#
#
# Mechanical properties :
#
#
# Convention : Reuss Voigt Hill
#
# Bulk Modulus (GPa) = 24.62381 30.60665 27.61523
# Shear Modulus (GPa) = 30.35753 36.17526 33.26639
#
# Velocity S-wave (km/s) = 3.59508 3.92447 3.76338
# Velocity P-wave (km/s) = 5.26462 5.79361 5.53544
#
# Compressibility (1/GPa) = 0.04061110
#
# Stress axis : x y z
#
# Youngs Moduli (GPa) = 42.18498 72.73299 98.78505
#
# Poissons Ratio (x) = 0.18025 0.00757
# Poissons Ratio (y) = 0.10454 0.09169
# Poissons Ratio (z) = 0.00323 0.06751
#
# Static dielectric constant tensor:
#      x y z
#    x 1.929340 0.000000 -0.119830 
#    y 0.000000 1.849970 0.000000 
#    z -0.119830 0.000000 1.967330 
# 
# From -- ./inp_files/117734.got.cif
#   From: 2010.05.17/outbox.cif.g08.bks.cpg/sg15_59_cif.got.tgz:117734.got - 2010.06.03 18:47:42.
