data_PCOD9295857
_publ_section_title
;
Structure prediction by ZEFSAII (Michael W. Deem and Ramdas Pophale) SiO2 
 PCOD9295857
Probable space group: C 2/C
;
_chemical_formula_sum "Si O2"
_cell_formula_units_Z 48
_cell_length_a 11.182552
_cell_length_b 23.190003
_cell_length_c 9.309782
_cell_angle_alpha 90.000000
_cell_angle_beta 74.242995
_cell_angle_gamma 90.000000
_cell_volume 2323.522081
_symmetry_space_group_name_H-M "C 2/C"
_symmetry_group_IT_number 15
_symmetry_cell_setting 'monoclinic'
loop_
_space_group_symop_operation_xyz
x,y,z
-x,y,1/2-z
-x,-y,-z
x,-y,1/2+z
1/2+x,1/2+y,z
1/2-x,1/2+y,1/2-z
1/2-x,1/2-y,-z
1/2+x,1/2-y,1/2+z
loop_
_atom_site_type_symbol
_atom_site_label
_atom_site_fract_x
_atom_site_fract_y
_atom_site_fract_z
Si Si1 0.654908 0.047899 0.075399
Si Si2 0.888494 0.569881 0.077575
Si Si3 0.935755 0.758605 0.894436
Si Si4 0.135658 0.892623 0.171966
Si Si5 0.264330 0.157484 0.907598
Si Si6 0.103663 0.761385 0.091021
O O1 0.534660 0.082852 0.054857
O O2 0.657582 0.052909 0.247241
O O3 0.779787 0.070663 0.962369
O O4 0.627011 0.983607 0.027170
O O5 0.813833 0.620843 0.025864
O O6 0.869326 0.704823 0.840837
O O7 0.000000 0.795184 0.750000
O O8 0.845357 0.800460 0.008255
O O9 0.034320 0.737880 0.975747
O O10 0.215453 0.880075 0.290687
O O11 0.106936 0.830379 0.111195
O O12 0.000000 0.918853 0.250000
O O13 0.000000 0.742434 0.250000
O O14 0.250000 0.750000 0.000000
#
# Coordination Sequence:
#
# PCOD9295857 Si02
#       6
#     8   8   8   8   8   8
#     4  10  23  44  69 102 129 165 218 273 343 395
#     4  10  23  43  71 101 128 164 218 283 328 409
#     4  11  25  41  62  94 132 181 224 278 330 407
#     4  11  23  44  63  93 135 182 215 277 337 399
#     4  11  24  42  62  96 132 173 226 269 341 387
#     4  11  24  43  65  95 135 182 231 281 339 400
#
# _framework density 20.658293
#
# number of rings (size 3 to 8) (size 9 to 14) (size 15 to 20)
#    0.000    1.333    3.333    2.000    9.333    1.333 
#    0.000    4.167    0.000    0.000    0.000    0.000 
#    0.000    0.000    0.000    0.000    0.000    0.000 
#
# Total GULP energy -133657.591144 kJ/mol
# GULP energy per Si atom -5569.066298 kJ/mol
# Density = 2.061127 g / cm^3
# Si number density = 20.658293 Si / 1000 Ang^3
#
#
#
# Elastic Constant Matrix: (Units=GPa)
#
#
# Indices 1 2 3 4 5 6 
#
# 1 112.9086 18.2940 50.6084 0.0000 -20.8562 0.0000
# 2 18.2940 30.9709 11.7842 0.0000 4.1717 0.0000
# 3 50.6084 11.7842 122.3186 0.0000 -12.4939 0.0000
# 4 0.0000 0.0000 0.0000 28.0610 0.0000 -19.3173
# 5 -20.8562 4.1717 -12.4939 0.0000 48.5964 0.0000
# 6 0.0000 0.0000 0.0000 -19.3173 0.0000 68.8861
#
#
#
# Elastic Compliance Matrix: (Units=1/GPa)
#
#
# Indices 1 2 3 4 5 6 
#
# 1 0.012680 -0.006595 -0.004105 0.000000 0.004953 0.000000
# 2 -0.006595 0.037648 -0.001558 0.000000 -0.006463 0.000000
# 3 -0.004105 -0.001558 0.010124 0.000000 0.000975 0.000000
# 4 0.000000 0.000000 0.000000 0.044162 0.000000 0.012384
# 5 0.004953 -0.006463 0.000975 0.000000 0.023509 0.000000
# 6 0.000000 0.000000 0.000000 0.012384 0.000000 0.017989
#
#
# Mechanical properties :
#
#
# Convention : Reuss Voigt Hill
#
# Bulk Modulus (GPa) = 27.82884 47.50793 37.66838
# Shear Modulus (GPa) = 27.38130 41.47613 34.42871
#
# Velocity S-wave (km/s) = 3.64461 4.48562 4.08681
# Velocity P-wave (km/s) = 5.58669 7.06220 6.36733
#
# Compressibility (1/GPa) = 0.03593395
#
# Stress axis : x y z
#
# Youngs Moduli (GPa) = 78.86344 26.56219 98.78001
#
# Poissons Ratio (x) = 0.17518 0.40550
# Poissons Ratio (y) = 0.52012 0.15394
# Poissons Ratio (z) = 0.32374 0.04139
#
# Static dielectric constant tensor:
#      x y z
#    x 1.802530 0.000000 -0.066580 
#    y 0.000000 1.724390 0.000000 
#    z -0.066580 0.000000 1.714000 
# 
# From -- ./inp_files/32519.got.cif
#   From: 2010.05.17/outbox.cif.g08.bks.cpg/sg15_17_cif.got.tgz:32519.got - 2010.06.03 18:47:42.
