data_PCOD9295015
_publ_section_title
;
Structure prediction by ZEFSAII (Michael W. Deem and Ramdas Pophale) SiO2 
 PCOD9295015
Probable space group: C 2/C
;
_chemical_formula_sum "Si O2"
_cell_formula_units_Z 56
_cell_length_a 8.607191
_cell_length_b 19.129472
_cell_length_c 17.379155
_cell_angle_alpha 90.000000
_cell_angle_beta 106.194551
_cell_angle_gamma 90.000000
_cell_volume 2747.952052
_symmetry_space_group_name_H-M "C 2/C"
_symmetry_group_IT_number 15
_symmetry_cell_setting 'monoclinic'
loop_
_space_group_symop_operation_xyz
x,y,z
-x,y,1/2-z
-x,-y,-z
x,-y,1/2+z
1/2+x,1/2+y,z
1/2-x,1/2+y,1/2-z
1/2-x,1/2-y,-z
1/2+x,1/2-y,1/2+z
loop_
_atom_site_type_symbol
_atom_site_label
_atom_site_fract_x
_atom_site_fract_y
_atom_site_fract_z
Si Si1 0.337031 0.931064 0.275995
Si Si2 0.173443 0.215473 0.732222
Si Si3 0.830160 0.277175 0.088825
Si Si4 0.585172 0.334796 0.685960
Si Si5 0.734278 0.511537 0.977163
Si Si6 0.487060 0.912730 0.448917
Si Si7 0.608199 0.515767 0.130548
O O1 0.500000 0.923480 0.250000
O O2 0.259774 0.854557 0.275003
O O3 0.405497 0.956062 0.367154
O O4 0.209533 0.978250 0.211784
O O5 0.204955 0.210207 0.643112
O O6 0.265531 0.285922 0.770131
O O7 0.000000 0.216668 0.750000
O O8 0.954316 0.217880 0.132973
O O9 0.935044 0.344921 0.079294
O O10 0.750000 0.250000 0.000000
O O11 0.500000 0.365605 0.750000
O O12 0.624158 0.401008 0.640144
O O13 0.831206 0.585095 0.983384
O O14 0.580393 0.506009 0.900038
O O15 0.676411 0.497311 0.056143
O O16 0.867860 0.450805 0.987006
#
# Coordination Sequence:
#
# PCOD9295015 Si02
#       7
#     8   8   8   8   8   8   8
#     4  12  22  42  70  92 125 178 221 265 327 391
#     4  11  24  43  66  96 126 165 225 276 314 394
#     4  11  22  43  68  92 129 177 213 260 338 394
#     4  10  23  42  61  90 132 166 210 264 321 389
#     4  10  24  41  62  98 133 166 217 278 324 393
#     4  11  22  43  67  92 130 177 221 264 329 398
#     4  11  24  41  64  98 134 168 219 278 325 383
#
# _framework density 20.378813000000001
#
# number of rings (size 3 to 8) (size 9 to 14) (size 15 to 20)
#    0.000    1.143    4.286    1.286    4.000    2.857 
#    2.571    1.429    0.000    0.000    0.000    0.000 
#    0.000    0.000    0.000    0.000    0.000    0.000 
#
# Total GULP energy -156094.526005 kJ/mol
# GULP energy per Si atom -5574.804500 kJ/mol
# Density = 2.033243 g / cm^3
# Si number density = 20.378813 Si / 1000 Ang^3
#
#
#
# Elastic Constant Matrix: (Units=GPa)
#
#
# Indices 1 2 3 4 5 6 
#
# 1 136.1247 43.6740 50.7110 0.0000 19.9728 0.0000
# 2 43.6740 82.8436 22.0920 0.0000 6.2199 0.0000
# 3 50.7110 22.0920 100.8918 0.0000 19.7502 0.0000
# 4 0.0000 0.0000 0.0000 20.2271 0.0000 10.7316
# 5 19.9728 6.2199 19.7502 0.0000 21.2109 0.0000
# 6 0.0000 0.0000 0.0000 10.7316 0.0000 11.3104
#
#
#
# Elastic Compliance Matrix: (Units=1/GPa)
#
#
# Indices 1 2 3 4 5 6 
#
# 1 0.010859 -0.004393 -0.003359 0.000000 -0.005810 0.000000
# 2 -0.004393 0.014631 -0.001181 0.000000 0.000946 0.000000
# 3 -0.003359 -0.001181 0.013662 0.000000 -0.009212 0.000000
# 4 0.000000 0.000000 0.000000 0.099556 0.000000 -0.094461
# 5 -0.005810 0.000946 -0.009212 0.000000 0.060916 0.000000
# 6 0.000000 0.000000 0.000000 -0.094461 0.000000 0.178042
#
#
# Mechanical properties :
#
#
# Convention : Reuss Voigt Hill
#
# Bulk Modulus (GPa) = 46.97848 61.42382 54.20115
# Shear Modulus (GPa) = 12.41844 24.10854 18.26349
#
# Velocity S-wave (km/s) = 2.47124 3.44324 2.99691
# Velocity P-wave (km/s) = 5.58976 6.78338 6.21529
#
# Compressibility (1/GPa) = 0.02128634
#
# Stress axis : x y z
#
# Youngs Moduli (GPa) = 92.08608 68.34929 73.19711
#
# Poissons Ratio (x) = 0.30026 0.24587
# Poissons Ratio (y) = 0.40453 0.08643
# Poissons Ratio (z) = 0.30932 0.08070
#
# Static dielectric constant tensor:
#      x y z
#    x 1.800820 0.000000 -0.058860 
#    y 0.000000 1.719480 0.000000 
#    z -0.058860 0.000000 1.792510 
# 
# From -- ./inp_files/191016.got.cif
#   From: 2010.05.17/outbox.cif.g08.bks.cpg/sg15_96_cif.got.tgz:191016.got - 2010.06.03 18:47:42.
