data_PCOD9295271
_publ_section_title
;
Structure prediction by ZEFSAII (Michael W. Deem and Ramdas Pophale) SiO2 
 PCOD9295271
Probable space group: C 2/C
;
_chemical_formula_sum "Si O2"
_cell_formula_units_Z 32
_cell_length_a 11.159627
_cell_length_b 13.570827
_cell_length_c 11.724233
_cell_angle_alpha 90.000000
_cell_angle_beta 47.032393
_cell_angle_gamma 90.000000
_cell_volume 1299.261988
_symmetry_space_group_name_H-M "C 2/C"
_symmetry_group_IT_number 15
_symmetry_cell_setting 'monoclinic'
loop_
_space_group_symop_operation_xyz
x,y,z
-x,y,1/2-z
-x,-y,-z
x,-y,1/2+z
1/2+x,1/2+y,z
1/2-x,1/2+y,1/2-z
1/2-x,1/2-y,-z
1/2+x,1/2-y,1/2+z
loop_
_atom_site_type_symbol
_atom_site_label
_atom_site_fract_x
_atom_site_fract_y
_atom_site_fract_z
Si Si1 0.757810 0.248573 0.190108
Si Si2 0.982800 0.872920 0.409155
Si Si3 0.937030 0.610033 0.002474
Si Si4 0.384851 0.405249 0.926246
O O1 0.620637 0.325452 0.242879
O O2 0.668683 0.168466 0.331123
O O3 0.909597 0.319665 0.128447
O O4 0.821328 0.185652 0.043617
O O5 0.075258 0.865497 0.474490
O O6 0.941146 0.982576 0.404188
O O7 0.803364 0.601168 0.988498
O O8 0.000000 0.500000 0.000000
O O9 0.500000 0.362445 0.750000
#
# Coordination Sequence:
#
# PCOD9295271 Si02
#       4
#     8   8   8   8
#     4  10  23  44  69 102 134 177 234 280 340 413
#     4  10  23  42  67  98 133 175 223 282 336 409
#     4  11  24  44  69 100 140 178 229 283 341 406
#     4  11  22  41  69  97 136 175 222 277 346 397
#
# _framework density 24.629366999999998
#
# number of rings (size 3 to 8) (size 9 to 14) (size 15 to 20)
#    0.000    1.500    2.500    1.500    3.500    7.000 
#    0.000   13.750    0.000    0.000    0.000    0.000 
#    0.000    0.000    0.000    0.000    0.000    0.000 
#
# Total GULP energy -89419.942607 kJ/mol
# GULP energy per Si atom -5588.746413 kJ/mol
# Density = 2.457331 g / cm^3
# Si number density = 24.629367 Si / 1000 Ang^3
#
#
#
# Elastic Constant Matrix: (Units=GPa)
#
#
# Indices 1 2 3 4 5 6 
#
# 1 127.3339 29.0755 48.7098 0.0000 -20.8821 0.0000
# 2 29.0755 138.0495 53.3867 0.0000 -10.0462 0.0000
# 3 48.7098 53.3867 157.2279 0.0000 -21.8893 0.0000
# 4 0.0000 0.0000 0.0000 48.5668 0.0000 -13.9405
# 5 -20.8821 -10.0462 -21.8893 0.0000 30.8441 0.0000
# 6 0.0000 0.0000 0.0000 -13.9405 0.0000 29.6250
#
#
#
# Elastic Compliance Matrix: (Units=1/GPa)
#
#
# Indices 1 2 3 4 5 6 
#
# 1 0.009612 -0.000900 -0.002005 0.000000 0.004791 0.000000
# 2 -0.000900 0.008440 -0.002540 0.000000 0.000337 0.000000
# 3 -0.002005 -0.002540 0.008366 0.000000 0.003753 0.000000
# 4 0.000000 0.000000 0.000000 0.023806 0.000000 0.011202
# 5 0.004791 0.000337 0.003753 0.000000 0.038438 0.000000
# 6 0.000000 0.000000 0.000000 0.011202 0.000000 0.039027
#
#
# Mechanical properties :
#
#
# Convention : Reuss Voigt Hill
#
# Bulk Modulus (GPa) = 64.40238 76.10616 70.25427
# Shear Modulus (GPa) = 34.78149 41.23646 38.00898
#
# Velocity S-wave (km/s) = 3.76200 4.09624 3.93267
# Velocity P-wave (km/s) = 6.71383 7.30341 7.01482
#
# Compressibility (1/GPa) = 0.01552738
#
# Stress axis : x y z
#
# Youngs Moduli (GPa) = 104.04033 118.48054 119.52779
#
# Poissons Ratio (x) = 0.10667 0.23965
# Poissons Ratio (y) = 0.09367 0.30360
# Poissons Ratio (z) = 0.20860 0.30094
#
# Static dielectric constant tensor:
#      x y z
#    x 2.056540 0.000000 0.079230 
#    y 0.000000 1.935570 0.000000 
#    z 0.079230 0.000000 2.042230 
# 
# From -- ./inp_files/27853.got.cif
#   From: 2010.05.17/outbox.cif.g08.bks.cpg/sg15_14_cif.got.tgz:27853.got - 2010.06.03 18:47:42.
