data_PCOD9295260
_publ_section_title
;
Structure prediction by ZEFSAII (Michael W. Deem and Ramdas Pophale) SiO2 
 PCOD9295260
Probable space group: C 2/C
;
_chemical_formula_sum "Si O2"
_cell_formula_units_Z 44
_cell_length_a 17.894940
_cell_length_b 6.958836
_cell_length_c 12.849804
_cell_angle_alpha 90.000000
_cell_angle_beta 82.479292
_cell_angle_gamma 90.000000
_cell_volume 1586.394604
_symmetry_space_group_name_H-M "C 2/C"
_symmetry_group_IT_number 15
_symmetry_cell_setting 'monoclinic'
loop_
_space_group_symop_operation_xyz
x,y,z
-x,y,1/2-z
-x,-y,-z
x,-y,1/2+z
1/2+x,1/2+y,z
1/2-x,1/2+y,1/2-z
1/2-x,1/2-y,-z
1/2+x,1/2-y,1/2+z
loop_
_atom_site_type_symbol
_atom_site_label
_atom_site_fract_x
_atom_site_fract_y
_atom_site_fract_z
Si Si1 0.995125 0.780230 0.400363
Si Si2 0.305073 0.055712 0.035426
Si Si3 0.000000 0.433552 0.250000
Si Si4 0.162740 0.175452 0.782593
Si Si5 0.577146 0.317199 0.600753
Si Si6 0.282168 0.674191 0.112046
O O1 0.980364 0.574890 0.349788
O O2 0.074371 0.820212 0.325543
O O3 0.015819 0.772380 0.518911
O O4 0.935276 0.952016 0.392364
O O5 0.336741 0.849267 0.069978
O O6 0.299766 0.178933 0.140375
O O7 0.237333 0.966560 0.980114
O O8 0.351349 0.199396 0.954061
O O9 0.064601 0.276702 0.216209
O O10 0.202894 0.242121 0.669866
O O11 0.185835 0.961735 0.806238
#
# Coordination Sequence:
#
# PCOD9295260 Si02
#       6
#     8   8   4   8   8   8
#     4  10  24  42  65  98 138 177 232 284 339 413
#     4  10  23  42  67  96 136 172 228 279 339 406
#     4  12  22  42  66  98 130 178 230 276 350 404
#     4  11  22  42  64  98 134 176 226 277 335 406
#     4  10  23  44  66  97 133 183 225 287 348 401
#     4  11  22  41  66 101 132 180 221 276 339 410
#
# _framework density 27.735849000000002
#
# number of rings (size 3 to 8) (size 9 to 14) (size 15 to 20)
#    0.000    1.455    1.818    2.727    0.000    7.273 
#    6.545    3.636    0.000    0.000    0.000    0.000 
#    0.000    0.000    0.000    0.000    0.000    0.000 
#
# Total GULP energy -122758.119154 kJ/mol
# GULP energy per Si atom -5579.914507 kJ/mol
# Density = 2.767272 g / cm^3
# Si number density = 27.735849 Si / 1000 Ang^3
#
#
#
# Elastic Constant Matrix: (Units=GPa)
#
#
# Indices 1 2 3 4 5 6 
#
# 1 91.4312 76.4409 31.8540 0.0000 -14.6938 0.0000
# 2 76.4409 236.9792 58.9126 0.0000 -3.9799 0.0000
# 3 31.8540 58.9126 110.3715 0.0000 -19.3691 0.0000
# 4 0.0000 0.0000 0.0000 52.8988 0.0000 -18.3444
# 5 -14.6938 -3.9799 -19.3691 0.0000 28.7340 0.0000
# 6 0.0000 0.0000 0.0000 -18.3444 0.0000 36.8872
#
#
#
# Elastic Compliance Matrix: (Units=1/GPa)
#
#
# Indices 1 2 3 4 5 6 
#
# 1 0.016588 -0.005020 -0.000840 0.000000 0.007221 0.000000
# 2 -0.005020 0.006423 -0.002579 0.000000 -0.003416 0.000000
# 3 -0.000840 -0.002579 0.011956 0.000000 0.007272 0.000000
# 4 0.000000 0.000000 0.000000 0.022844 0.000000 0.011360
# 5 0.007221 -0.003416 0.007272 0.000000 0.042923 0.000000
# 6 0.000000 0.000000 0.000000 0.011360 0.000000 0.032759
#
#
# Mechanical properties :
#
#
# Convention : Reuss Voigt Hill
#
# Bulk Modulus (GPa) = 55.28936 85.91077 70.60007
# Shear Modulus (GPa) = 31.96920 41.80898 36.88909
#
# Velocity S-wave (km/s) = 3.39873 3.88673 3.65089
# Velocity P-wave (km/s) = 5.94805 7.15431 6.57889
#
# Compressibility (1/GPa) = 0.01808666
#
# Stress axis : x y z
#
# Youngs Moduli (GPa) = 60.28563 155.69255 83.64300
#
# Poissons Ratio (x) = 0.78164 0.07030
# Poissons Ratio (y) = 0.30266 0.21571
# Poissons Ratio (z) = 0.05067 0.40152
#
# Static dielectric constant tensor:
#      x y z
#    x 2.333600 0.000000 0.072600 
#    y 0.000000 2.157670 0.000000 
#    z 0.072600 0.000000 2.146230 
# 
# From -- ./inp_files/170827.got.cif
#   From: 2010.05.17/outbox.cif.g08.bks.cpg/sg15_86_cif.got.tgz:170827.got - 2010.06.03 18:47:42.
