data_PCOD9295376
_publ_section_title
;
Structure prediction by ZEFSAII (Michael W. Deem and Ramdas Pophale) SiO2 
 PCOD9295376
Probable space group: C 2/C
;
_chemical_formula_sum "Si O2"
_cell_formula_units_Z 48
_cell_length_a 24.931952
_cell_length_b 8.779141
_cell_length_c 14.082574
_cell_angle_alpha 90.000000
_cell_angle_beta 135.256793
_cell_angle_gamma 90.000000
_cell_volume 2169.802190
_symmetry_space_group_name_H-M "C 2/C"
_symmetry_group_IT_number 15
_symmetry_cell_setting 'monoclinic'
loop_
_space_group_symop_operation_xyz
x,y,z
-x,y,1/2-z
-x,-y,-z
x,-y,1/2+z
1/2+x,1/2+y,z
1/2-x,1/2+y,1/2-z
1/2-x,1/2-y,-z
1/2+x,1/2-y,1/2+z
loop_
_atom_site_type_symbol
_atom_site_label
_atom_site_fract_x
_atom_site_fract_y
_atom_site_fract_z
Si Si1 0.500000 0.265781 0.250000
Si Si2 0.187578 0.789457 0.196646
Si Si3 0.778137 0.599947 0.090619
Si Si4 0.314524 0.015313 0.438485
Si Si5 0.511783 0.013384 0.404148
Si Si6 0.382014 0.515823 0.032799
Si Si7 0.500000 0.251353 0.750000
O O1 0.472968 0.153734 0.300005
O O2 0.434306 0.369431 0.120480
O O3 0.171231 0.667286 0.259670
O O4 0.257096 0.891726 0.321324
O O5 0.205548 0.681021 0.129349
O O6 0.124752 0.910638 0.081218
O O7 0.750000 0.750000 0.000000
O O8 0.810885 0.494961 0.048095
O O9 0.703520 0.522219 0.042712
O O10 0.398818 0.974715 0.509446
O O11 0.500000 0.000000 0.500000
O O12 0.488238 0.856960 0.324686
O O13 0.425847 0.645254 0.146221
#
# Coordination Sequence:
#
# PCOD9295376 Si02
#       7
#     4   8   8   8   8   8   4
#     4  10  24  46  72  94 142 182 234 278 342 412
#     4  11  22  42  69 103 137 173 228 282 346 417
#     4  10  23  42  70 104 137 173 221 297 346 404
#     4  11  24  42  70 100 139 176 231 288 354 403
#     4  11  25  46  71  97 136 187 234 282 344 414
#     4  11  22  46  69  98 141 180 226 282 346 408
#     4  10  24  46  64 100 142 178 236 286 330 424
#
# _framework density 22.121832999999999
#
# number of rings (size 3 to 8) (size 9 to 14) (size 15 to 20)
#    0.000    1.333    3.333    2.000    0.000    7.333 
#    3.000    1.667    0.000    0.000    0.000    0.000 
#    0.000    0.000    0.000    0.000    0.000    0.000 
#
# Total GULP energy -134046.525976 kJ/mol
# GULP energy per Si atom -5585.271916 kJ/mol
# Density = 2.207148 g / cm^3
# Si number density = 22.121833 Si / 1000 Ang^3
#
#
#
# Elastic Constant Matrix: (Units=GPa)
#
#
# Indices 1 2 3 4 5 6 
#
# 1 95.4796 35.6062 50.1619 0.0000 -19.8851 0.0000
# 2 35.6062 135.2150 61.6143 0.0000 -15.5532 0.0000
# 3 50.1619 61.6143 130.8580 0.0000 -13.9310 0.0000
# 4 0.0000 0.0000 0.0000 66.0064 0.0000 -5.5643
# 5 -19.8851 -15.5532 -13.9310 0.0000 43.0009 0.0000
# 6 0.0000 0.0000 0.0000 -5.5643 0.0000 14.1680
#
#
#
# Elastic Compliance Matrix: (Units=1/GPa)
#
#
# Indices 1 2 3 4 5 6 
#
# 1 0.014203 -0.001204 -0.004376 0.000000 0.004715 0.000000
# 2 -0.001204 0.009694 -0.003924 0.000000 0.001678 0.000000
# 3 -0.004376 -0.003924 0.011186 0.000000 0.000181 0.000000
# 4 0.000000 0.000000 0.000000 0.015669 0.000000 0.006154
# 5 0.004715 0.001678 0.000181 0.000000 0.026101 0.000000
# 6 0.000000 0.000000 0.000000 0.006154 0.000000 0.072998
#
#
# Mechanical properties :
#
#
# Convention : Reuss Voigt Hill
#
# Bulk Modulus (GPa) = 62.20576 72.92415 67.56495
# Shear Modulus (GPa) = 28.69971 38.91310 33.80641
#
# Velocity S-wave (km/s) = 3.60578 4.19864 3.91345
# Velocity P-wave (km/s) = 6.74657 7.51938 7.14343
#
# Compressibility (1/GPa) = 0.01607568
#
# Stress axis : x y z
#
# Youngs Moduli (GPa) = 70.40651 103.15827 89.39581
#
# Poissons Ratio (x) = 0.12419 0.39117
# Poissons Ratio (y) = 0.08476 0.35081
# Poissons Ratio (z) = 0.30808 0.40481
#
# Static dielectric constant tensor:
#      x y z
#    x 1.549910 0.000000 -0.012420 
#    y 0.000000 1.840920 0.000000 
#    z -0.012420 0.000000 1.876610 
# 
# From -- ./inp_files/177038.got.cif
#   From: 2010.05.17/outbox.cif.g08.bks.cpg/sg15_89_cif.got.tgz:177038.got - 2010.06.03 18:47:42.
