data_PCOD9295598
_publ_section_title
;
Structure prediction by ZEFSAII (Michael W. Deem and Ramdas Pophale) SiO2 
 PCOD9295598
Probable space group: C 2/C
;
_chemical_formula_sum "Si O2"
_cell_formula_units_Z 60
_cell_length_a 20.180375
_cell_length_b 27.205892
_cell_length_c 15.134403
_cell_angle_alpha 90.000000
_cell_angle_beta 160.406598
_cell_angle_gamma 90.000000
_cell_volume 2786.421735
_symmetry_space_group_name_H-M "C 2/C"
_symmetry_group_IT_number 15
_symmetry_cell_setting 'monoclinic'
loop_
_space_group_symop_operation_xyz
x,y,z
-x,y,1/2-z
-x,-y,-z
x,-y,1/2+z
1/2+x,1/2+y,z
1/2-x,1/2+y,1/2-z
1/2-x,1/2-y,-z
1/2+x,1/2-y,1/2+z
loop_
_atom_site_type_symbol
_atom_site_label
_atom_site_fract_x
_atom_site_fract_y
_atom_site_fract_z
Si Si1 0.862063 0.202186 0.815123
Si Si2 0.601233 0.104033 0.025149
Si Si3 0.636373 0.961516 0.722738
Si Si4 0.750601 0.595368 0.478309
Si Si5 0.506734 0.866787 0.652970
Si Si6 0.123352 0.797093 0.817704
Si Si7 0.225998 0.813281 0.648983
Si Si8 0.000000 0.022721 0.250000
O O1 0.690548 0.163053 0.622211
O O2 0.769078 0.256049 0.684148
O O3 0.995477 0.209544 0.069573
O O4 0.004571 0.185367 0.912908
O O5 0.712261 0.073663 0.239611
O O6 0.664504 0.082369 0.010639
O O7 0.643178 0.160050 0.108600
O O8 0.368857 0.093006 0.720276
O O9 0.516536 0.923496 0.634267
O O10 0.500000 0.000000 0.500000
O O11 0.813269 0.988607 0.994195
O O12 0.742829 0.653509 0.453886
O O13 0.562325 0.560947 0.252145
O O14 0.500000 0.863351 0.750000
O O15 0.695094 0.841114 0.840287
O O16 0.000000 0.807868 0.750000
O O17 0.250000 0.750000 0.000000
#
# Coordination Sequence:
#
# PCOD9295598 Si02
#       8
#     8   8   8   8   8   8   8   4
#     4  12  24  45  73 108 155 207 251 306 380 452
#     4  10  23  43  66 100 146 183 238 306 363 447
#     4  11  26  48  76 105 144 188 248 323 382 454
#     4  11  23  40  67 104 139 186 242 295 368 453
#     4  11  29  49  76 110 149 195 258 324 377 460
#     4  12  26  38  65 107 152 193 242 294 369 456
#     4  11  23  44  72 107 151 200 250 300 377 449
#     4  12  26  46  76 106 138 196 252 314 394 458
#
# _framework density 21.532993000000001
#
# number of rings (size 3 to 8) (size 9 to 14) (size 15 to 20)
#    0.000    0.800    4.667    1.600    7.467    4.800 
#    0.000    0.000    0.000    0.000    0.000    0.000 
#    0.000    0.000    0.000    0.000    0.000    0.000 
#
# Total GULP energy -167103.922434 kJ/mol
# GULP energy per Si atom -5570.130748 kJ/mol
# Density = 2.148398 g / cm^3
# Si number density = 21.532993 Si / 1000 Ang^3
#
#
#
# Elastic Constant Matrix: (Units=GPa)
#
#
# Indices 1 2 3 4 5 6 
#
# 1 113.0989 16.5155 19.8125 -0.0001 2.1239 -0.0001
# 2 16.5155 123.1229 45.7672 0.0000 6.1270 0.0000
# 3 19.8125 45.7672 61.7870 -0.0001 2.7410 -0.0001
# 4 -0.0001 0.0000 -0.0001 34.9606 0.0000 9.5365
# 5 2.1239 6.1270 2.7410 0.0000 30.0156 0.0000
# 6 -0.0001 0.0000 -0.0001 9.5365 0.0000 24.4675
#
#
#
# Elastic Compliance Matrix: (Units=1/GPa)
#
#
# Indices 1 2 3 4 5 6 
#
# 1 0.009375 -0.000177 -0.002859 0.000000 -0.000366 0.000000
# 2 -0.000177 0.011282 -0.008232 0.000000 -0.001539 0.000000
# 3 -0.002859 -0.008232 0.023210 0.000000 -0.000237 0.000000
# 4 0.000000 0.000000 0.000000 0.032007 0.000000 -0.012475
# 5 -0.000366 -0.001539 -0.000237 0.000000 0.033678 0.000000
# 6 0.000000 0.000000 0.000000 -0.012475 0.000000 0.045733
#
#
# Mechanical properties :
#
#
# Convention : Reuss Voigt Hill
#
# Bulk Modulus (GPa) = 46.87923 51.35546 49.11734
# Shear Modulus (GPa) = 27.03714 32.28299 29.66006
#
# Velocity S-wave (km/s) = 3.54731 3.87619 3.71539
# Velocity P-wave (km/s) = 6.21257 6.62832 6.42381
#
# Compressibility (1/GPa) = 0.02133141
#
# Stress axis : x y z
#
# Youngs Moduli (GPa) = 106.66260 88.63443 43.08527
#
# Poissons Ratio (x) = 0.01565 0.12319
# Poissons Ratio (y) = 0.01883 0.35469
# Poissons Ratio (z) = 0.30498 0.72966
#
# Static dielectric constant tensor:
#      x y z
#    x 1.728840 0.000000 -0.027170 
#    y 0.000000 1.835330 0.000000 
#    z -0.027170 0.000000 1.877820 
# 
# From -- ./inp_files/169961.got.cif
#   From: 2010.05.17/outbox.cif.g08.bks.cpg/sg15_85_cif.got.tgz:169961.got - 2010.06.03 18:47:42.
