data_PCOD9295327
_publ_section_title
;
Structure prediction by ZEFSAII (Michael W. Deem and Ramdas Pophale) SiO2 
 PCOD9295327
Probable space group: C 2/C
;
_chemical_formula_sum "Si O2"
_cell_formula_units_Z 48
_cell_length_a 7.433307
_cell_length_b 22.026578
_cell_length_c 12.183333
_cell_angle_alpha 90.000000
_cell_angle_beta 95.461258
_cell_angle_gamma 90.000000
_cell_volume 1985.726216
_symmetry_space_group_name_H-M "C 2/C"
_symmetry_group_IT_number 15
_symmetry_cell_setting 'monoclinic'
loop_
_space_group_symop_operation_xyz
x,y,z
-x,y,1/2-z
-x,-y,-z
x,-y,1/2+z
1/2+x,1/2+y,z
1/2-x,1/2+y,1/2-z
1/2-x,1/2-y,-z
1/2+x,1/2-y,1/2+z
loop_
_atom_site_type_symbol
_atom_site_label
_atom_site_fract_x
_atom_site_fract_y
_atom_site_fract_z
Si Si1 0.564204 0.274883 0.543906
Si Si2 0.856196 0.890554 0.444761
Si Si3 0.811720 0.342163 0.704186
Si Si4 0.156220 0.948247 0.845188
Si Si5 0.200957 0.572511 0.712205
Si Si6 0.963122 0.642896 0.977104
O O1 0.750000 0.250000 0.500000
O O2 0.453364 0.326012 0.472185
O O3 0.638753 0.301735 0.662806
O O4 0.463258 0.211090 0.540906
O O5 0.936463 0.933151 0.544117
O O6 0.839531 0.912183 0.318863
O O7 0.646373 0.894058 0.472690
O O8 0.760633 0.391353 0.793111
O O9 0.870130 0.368484 0.588713
O O10 0.000000 0.309426 0.750000
O O11 0.000000 0.960210 0.750000
O O12 0.266965 0.010190 0.850246
O O13 0.183854 0.626384 0.623331
O O14 0.000000 0.568291 0.750000
#
# Coordination Sequence:
#
# PCOD9295327 Si02
#       6
#     8   8   8   8   8   8
#     4  10  23  42  68  99 137 174 232 284 345 418
#     4  11  23  45  67 102 136 184 232 276 362 404
#     4  11  22  41  66  98 128 178 228 283 350 404
#     4  12  25  42  69  98 134 183 232 293 339 423
#     4  10  26  44  67 102 138 184 232 290 350 411
#     4  10  23  43  68  99 136 180 227 290 345 417
#
# _framework density 24.172516999999999
#
# number of rings (size 3 to 8) (size 9 to 14) (size 15 to 20)
#    0.000    1.333    3.333    1.000    2.333    7.333 
#    9.000    0.000    0.000    0.000    0.000    0.000 
#    0.000    0.000    0.000    0.000    0.000    0.000 
#
# Total GULP energy -133905.060146 kJ/mol
# GULP energy per Si atom -5579.377506 kJ/mol
# Density = 2.411750 g / cm^3
# Si number density = 24.172517 Si / 1000 Ang^3
#
#
#
# Elastic Constant Matrix: (Units=GPa)
#
#
# Indices 1 2 3 4 5 6 
#
# 1 52.4565 -15.2242 27.7225 0.0000 -6.8060 0.0000
# 2 -15.2242 79.8074 46.5752 0.0000 -5.8323 0.0000
# 3 27.7225 46.5752 121.5191 0.0000 -7.6322 0.0000
# 4 0.0000 0.0000 0.0000 6.3627 0.0000 -9.7135
# 5 -6.8060 -5.8323 -7.6322 0.0000 33.0939 0.0000
# 6 0.0000 0.0000 0.0000 -9.7135 0.0000 17.0963
#
#
#
# Elastic Compliance Matrix: (Units=1/GPa)
#
#
# Indices 1 2 3 4 5 6 
#
# 1 0.029297 0.012489 -0.011115 0.000000 0.005663 0.000000
# 2 0.012489 0.021532 -0.010859 0.000000 0.003859 0.000000
# 3 -0.011115 -0.010859 0.014879 0.000000 -0.000768 0.000000
# 4 0.000000 0.000000 0.000000 1.185003 0.000000 0.673273
# 5 0.005663 0.003859 -0.000768 0.000000 0.031885 0.000000
# 6 0.000000 0.000000 0.000000 0.673273 0.000000 0.441020
#
#
# Mechanical properties :
#
#
# Convention : Reuss Voigt Hill
#
# Bulk Modulus (GPa) = 21.39627 41.32555 31.36091
# Shear Modulus (GPa) = 2.84388 24.29122 13.56755
#
# Velocity S-wave (km/s) = 1.08584 3.17347 2.37170
# Velocity P-wave (km/s) = 3.23153 5.52821 4.52791
#
# Compressibility (1/GPa) = 0.04673711
#
# Stress axis : x y z
#
# Youngs Moduli (GPa) = 34.13367 46.44228 67.21035
#
# Poissons Ratio (x) = -0.58001 0.74701
# Poissons Ratio (y) = -0.42629 0.72987
# Poissons Ratio (z) = 0.37938 0.50434
#
# Static dielectric constant tensor:
#      x y z
#    x 2.033220 0.000000 0.021430 
#    y 0.000000 2.035140 0.000000 
#    z 0.021430 0.000000 2.048870 
# 
# From -- ./inp_files/79863.got.cif
#   From: 2010.05.17/outbox.cif.g08.bks.cpg/sg15_40_cif.got.tgz:79863.got - 2010.06.03 18:47:42.
