data_PCOD9295642
_publ_section_title
;
Structure prediction by ZEFSAII (Michael W. Deem and Ramdas Pophale) SiO2 
 PCOD9295642
Probable space group: C 2/C
;
_chemical_formula_sum "Si O2"
_cell_formula_units_Z 36
_cell_length_a 6.958733
_cell_length_b 13.733192
_cell_length_c 17.529571
_cell_angle_alpha 90.000000
_cell_angle_beta 56.778118
_cell_angle_gamma 90.000000
_cell_volume 1401.417448
_symmetry_space_group_name_H-M "C 2/C"
_symmetry_group_IT_number 15
_symmetry_cell_setting 'monoclinic'
loop_
_space_group_symop_operation_xyz
x,y,z
-x,y,1/2-z
-x,-y,-z
x,-y,1/2+z
1/2+x,1/2+y,z
1/2-x,1/2+y,1/2-z
1/2-x,1/2-y,-z
1/2+x,1/2-y,1/2+z
loop_
_atom_site_type_symbol
_atom_site_label
_atom_site_fract_x
_atom_site_fract_y
_atom_site_fract_z
Si Si1 0.663691 0.844751 0.139743
Si Si2 0.859096 0.907098 0.501235
Si Si3 0.840110 0.210919 0.155926
Si Si4 0.819227 0.577553 0.613603
Si Si5 0.000000 0.083663 0.250000
O O1 0.500000 0.846072 0.250000
O O2 0.931940 0.854218 0.091157
O O3 0.234566 0.818324 0.167715
O O4 0.556388 0.929095 0.109060
O O5 0.792768 0.848622 0.590875
O O6 0.661722 0.912464 0.481058
O O7 0.000000 0.000000 0.500000
O O8 0.892966 0.244523 0.392219
O O9 0.823608 0.146168 0.235724
O O10 0.649179 0.489048 0.665872
#
# Coordination Sequence:
#
# PCOD9295642 Si02
#       5
#     8   8   8   8   4
#     4  10  23  43  67  97 134 181 227 283 346 404
#     4  12  23  42  71 100 139 182 232 284 343 420
#     4  10  23  43  67 100 136 184 229 284 351 405
#     4  10  24  41  71  95 140 178 230 285 345 409
#     4  12  20  46  74 100 142 186 232 292 352 416
#
# _framework density 25.688275999999998
#
# number of rings (size 3 to 8) (size 9 to 14) (size 15 to 20)
#    1.333    0.000    3.333    2.667    0.000    0.889 
#    0.000    2.222    4.889    0.000    0.000    0.000 
#    0.000    0.000    0.000    0.000    0.000    0.000 
#
# Total GULP energy -100376.304054 kJ/mol
# GULP energy per Si atom -5576.461336 kJ/mol
# Density = 2.562981 g / cm^3
# Si number density = 25.688276 Si / 1000 Ang^3
#
#
#
# Elastic Constant Matrix: (Units=GPa)
#
#
# Indices 1 2 3 4 5 6 
#
# 1 94.8290 3.8480 41.0451 0.0000 29.7973 0.0000
# 2 3.8480 111.2659 23.1327 0.0000 20.3269 0.0000
# 3 41.0451 23.1327 118.9719 0.0000 49.5439 0.0000
# 4 0.0000 0.0000 0.0000 28.3875 0.0000 31.5994
# 5 29.7973 20.3269 49.5439 0.0000 51.4992 0.0000
# 6 0.0000 0.0000 0.0000 31.5994 0.0000 9.9355
#
#
#
# Elastic Compliance Matrix: (Units=1/GPa)
#
#
# Indices 1 2 3 4 5 6 
#
# 1 0.013381 0.001108 -0.002379 0.000000 -0.005891 0.000000
# 2 0.001108 0.009795 -0.000684 0.000000 -0.003849 0.000000
# 3 -0.002379 -0.000684 0.014471 0.000000 -0.012275 0.000000
# 4 0.000000 0.000000 0.000000 -0.013867 0.000000 0.044104
# 5 -0.005891 -0.003849 -0.012275 0.000000 0.036155 0.000000
# 6 0.000000 0.000000 0.000000 0.044104 0.000000 -0.039621
#
#
# Mechanical properties :
#
#
# Convention : Reuss Voigt Hill
#
# Bulk Modulus (GPa) = 29.64036 51.23538 40.43787
# Shear Modulus (GPa) = 140.97418 35.10052 88.03735
#
# Velocity S-wave (km/s) = 7.41606 3.70050 5.86053
# Velocity P-wave (km/s) = 9.21380 6.18438 7.84668
#
# Compressibility (1/GPa) = 0.03373778
#
# Stress axis : x y z
#
# Youngs Moduli (GPa) = 74.73265 102.09788 69.10531
#
# Poissons Ratio (x) = -0.11313 0.16437
# Poissons Ratio (y) = -0.08281 0.04725
# Poissons Ratio (z) = 0.17775 0.06981
#
# Static dielectric constant tensor:
#      x y z
#    x 2.076350 0.000000 -0.004100 
#    y 0.000000 2.123040 0.000000 
#    z -0.004100 0.000000 2.069080 
# 
# From -- ./inp_files/187733.got.cif
#   From: 2010.05.17/outbox.cif.g08.bks.cpg/sg15_94_cif.got.tgz:187733.got - 2010.06.03 18:47:42.
