data_PCOD9295220
_publ_section_title
;
Structure prediction by ZEFSAII (Michael W. Deem and Ramdas Pophale) SiO2 
 PCOD9295220
Probable space group: C 2/C
;
_chemical_formula_sum "Si O2"
_cell_formula_units_Z 36
_cell_length_a 13.344009
_cell_length_b 16.601194
_cell_length_c 9.181269
_cell_angle_alpha 90.000000
_cell_angle_beta 131.319534
_cell_angle_gamma 90.000000
_cell_volume 1527.534034
_symmetry_space_group_name_H-M "C 2/C"
_symmetry_group_IT_number 15
_symmetry_cell_setting 'monoclinic'
loop_
_space_group_symop_operation_xyz
x,y,z
-x,y,1/2-z
-x,-y,-z
x,-y,1/2+z
1/2+x,1/2+y,z
1/2-x,1/2+y,1/2-z
1/2-x,1/2-y,-z
1/2+x,1/2-y,1/2+z
loop_
_atom_site_type_symbol
_atom_site_label
_atom_site_fract_x
_atom_site_fract_y
_atom_site_fract_z
Si Si1 0.800862 0.778667 0.707501
Si Si2 0.890109 0.355951 0.522702
Si Si3 0.749761 0.493565 0.550606
Si Si4 0.381975 0.078665 0.436546
Si Si5 0.500000 0.604477 0.250000
O O1 0.750000 0.750000 0.500000
O O2 0.676255 0.831779 0.637677
O O3 0.928467 0.836531 0.798295
O O4 0.836049 0.711513 0.860786
O O5 0.774701 0.407885 0.492360
O O6 0.000000 0.328858 0.750000
O O7 0.977279 0.417520 0.507690
O O8 0.859757 0.551289 0.579993
O O9 0.778879 0.473957 0.744289
O O10 0.615467 0.544270 0.413080
#
# Coordination Sequence:
#
# PCOD9295220 Si02
#       5
#     8   8   8   8   4
#     4  11  24  44  69 102 142 184 231 283 357 414
#     4  10  23  45  70 100 136 183 234 287 344 418
#     4  10  23  42  67 100 135 182 231 282 350 409
#     4  10  23  44  67 101 135 181 231 283 351 412
#     4  10  24  46  66 104 140 182 224 292 350 416
#
# _framework density 23.567397
#
# number of rings (size 3 to 8) (size 9 to 14) (size 15 to 20)
#    0.000    1.778    0.000    2.000    6.222    7.111 
#   10.000    0.000    0.000    0.000    0.000    0.000 
#    0.000    0.000    0.000    0.000    0.000    0.000 
#
# Total GULP energy -100545.968205 kJ/mol
# GULP energy per Si atom -5585.887123 kJ/mol
# Density = 2.351376 g / cm^3
# Si number density = 23.567397 Si / 1000 Ang^3
#
#
#
# Elastic Constant Matrix: (Units=GPa)
#
#
# Indices 1 2 3 4 5 6 
#
# 1 73.1107 10.5527 23.0649 0.0000 7.8655 0.0000
# 2 10.5527 107.0391 79.2852 0.0000 7.3526 0.0000
# 3 23.0649 79.2852 140.5263 0.0000 -11.3029 0.0000
# 4 0.0000 0.0000 0.0000 49.3280 0.0000 -6.4639
# 5 7.8655 7.3526 -11.3029 0.0000 33.3396 0.0000
# 6 0.0000 0.0000 0.0000 -6.4639 0.0000 59.0993
#
#
#
# Elastic Compliance Matrix: (Units=1/GPa)
#
#
# Indices 1 2 3 4 5 6 
#
# 1 0.015233 0.001773 -0.003928 0.000000 -0.005317 0.000000
# 2 0.001773 0.017907 -0.011047 0.000000 -0.008113 0.000000
# 3 -0.003928 -0.011047 0.014664 0.000000 0.008334 0.000000
# 4 0.000000 0.000000 0.000000 0.020567 0.000000 0.002250
# 5 -0.005317 -0.008113 0.008334 0.000000 0.035863 0.000000
# 6 0.000000 0.000000 0.000000 0.002250 0.000000 0.017167
#
#
# Mechanical properties :
#
#
# Convention : Reuss Voigt Hill
#
# Bulk Modulus (GPa) = 46.72815 60.72018 53.72416
# Shear Modulus (GPa) = 32.27057 42.20491 37.23774
#
# Velocity S-wave (km/s) = 3.70440 4.23640 3.97930
# Velocity P-wave (km/s) = 6.17797 7.05336 6.63013
#
# Compressibility (1/GPa) = 0.02140038
#
# Stress axis : x y z
#
# Youngs Moduli (GPa) = 65.64591 55.84254 68.19434
#
# Poissons Ratio (x) = -0.09902 0.26789
# Poissons Ratio (y) = -0.11640 0.75334
# Poissons Ratio (z) = 0.25788 0.61689
#
# Static dielectric constant tensor:
#      x y z
#    x 1.867650 0.000000 0.007400 
#    y 0.000000 1.947120 0.000000 
#    z 0.007400 0.000000 1.884800 
# 
# From -- ./inp_files/38899.got.cif
#   From: 2010.05.17/outbox.cif.g08.bks.cpg/sg15_20_cif.got.tgz:38899.got - 2010.06.03 18:47:42.
