data_PCOD9295328
_publ_section_title
;
Structure prediction by ZEFSAII (Michael W. Deem and Ramdas Pophale) SiO2 
 PCOD9295328
Probable space group: C 2/C
;
_chemical_formula_sum "Si O2"
_cell_formula_units_Z 44
_cell_length_a 8.664115
_cell_length_b 26.716587
_cell_length_c 9.158521
_cell_angle_alpha 90.000000
_cell_angle_beta 109.858365
_cell_angle_gamma 90.000000
_cell_volume 1993.910197
_symmetry_space_group_name_H-M "C 2/C"
_symmetry_group_IT_number 15
_symmetry_cell_setting 'monoclinic'
loop_
_space_group_symop_operation_xyz
x,y,z
-x,y,1/2-z
-x,-y,-z
x,-y,1/2+z
1/2+x,1/2+y,z
1/2-x,1/2+y,1/2-z
1/2-x,1/2-y,-z
1/2+x,1/2-y,1/2+z
loop_
_atom_site_type_symbol
_atom_site_label
_atom_site_fract_x
_atom_site_fract_y
_atom_site_fract_z
Si Si1 0.500000 0.398479 0.750000
Si Si2 0.830363 0.022673 0.391381
Si Si3 0.288426 0.689389 0.086252
Si Si4 0.676829 0.269177 0.230471
Si Si5 0.872717 0.458994 0.397101
Si Si6 0.442179 0.842660 0.393082
O O1 0.625932 0.434146 0.707590
O O2 0.609301 0.361476 0.880525
O O3 0.752880 0.045023 0.510576
O O4 0.714500 0.982169 0.273914
O O5 0.000000 0.000000 0.500000
O O6 0.303300 0.722823 0.238934
O O7 0.336539 0.713785 0.945358
O O8 0.094874 0.675898 0.036040
O O9 0.500000 0.259749 0.250000
O O10 0.772865 0.312044 0.353690
O O11 0.932457 0.402636 0.394203
O O12 0.000000 0.500000 0.500000
O O13 0.500000 0.828870 0.250000
#
# Coordination Sequence:
#
# PCOD9295328 Si02
#       6
#     4   8   8   8   8   8
#     4  12  26  44  72  96 144 178 234 282 352 410
#     4  12  26  45  67 103 139 182 232 288 348 413
#     4  10  25  44  67  98 140 178 225 289 346 403
#     4  10  24  43  70  99 134 177 231 283 346 413
#     4  12  25  44  72 101 142 185 233 289 349 417
#     4  10  23  42  68  99 137 179 233 278 349 413
#
# _framework density 22.067191000000001
#
# number of rings (size 3 to 8) (size 9 to 14) (size 15 to 20)
#    0.000    1.091    1.818    2.727   14.000    2.182 
#    0.000    0.000    0.000    0.000    0.000    0.000 
#    0.000    0.000    0.000    0.000    0.000    0.000 
#
# Total GULP energy -122759.673458 kJ/mol
# GULP energy per Si atom -5579.985157 kJ/mol
# Density = 2.201696 g / cm^3
# Si number density = 22.067191 Si / 1000 Ang^3
#
#
#
# Elastic Constant Matrix: (Units=GPa)
#
#
# Indices 1 2 3 4 5 6 
#
# 1 91.4349 13.9563 3.4505 0.0000 -10.2641 0.0000
# 2 13.9563 109.4421 13.5686 0.0000 11.1635 0.0000
# 3 3.4505 13.5686 59.8555 0.0000 10.9816 0.0000
# 4 0.0000 0.0000 0.0000 34.3751 0.0000 7.5205
# 5 -10.2641 11.1635 10.9816 0.0000 37.9370 0.0000
# 6 0.0000 0.0000 0.0000 7.5205 0.0000 35.9102
#
#
#
# Elastic Compliance Matrix: (Units=1/GPa)
#
#
# Indices 1 2 3 4 5 6 
#
# 1 0.011691 -0.001772 -0.001001 0.000000 0.003975 0.000000
# 2 -0.001772 0.009859 -0.001597 0.000000 -0.002918 0.000000
# 3 -0.001001 -0.001597 0.018049 0.000000 -0.005025 0.000000
# 4 0.000000 0.000000 0.000000 0.030488 0.000000 -0.006385
# 5 0.003975 -0.002918 -0.005025 0.000000 0.029748 0.000000
# 6 0.000000 0.000000 0.000000 -0.006385 0.000000 0.029184
#
#
# Mechanical properties :
#
#
# Convention : Reuss Voigt Hill
#
# Bulk Modulus (GPa) = 32.40752 35.85370 34.13061
# Shear Modulus (GPa) = 33.77311 36.96161 35.36736
#
# Velocity S-wave (km/s) = 3.91636 4.09706 4.00773
# Velocity P-wave (km/s) = 5.93028 6.21804 6.07587
#
# Compressibility (1/GPa) = 0.03085703
#
# Stress axis : x y z
#
# Youngs Moduli (GPa) = 85.53448 101.43074 55.40547
#
# Poissons Ratio (x) = 0.17975 0.05548
# Poissons Ratio (y) = 0.15158 0.08850
# Poissons Ratio (z) = 0.08566 0.16202
#
# Static dielectric constant tensor:
#      x y z
#    x 1.477950 0.000000 -0.088730 
#    y 0.000000 1.861470 0.000000 
#    z -0.088730 0.000000 1.802100 
# 
# From -- ./inp_files/26236.got.cif
#   From: 2010.05.17/outbox.cif.g08.bks.cpg/sg15_14_cif.got.tgz:26236.got - 2010.06.03 18:47:42.
