data_PCOD9295087
_publ_section_title
;
Structure prediction by ZEFSAII (Michael W. Deem and Ramdas Pophale) SiO2 
 PCOD9295087
Probable space group: C 2/C
;
_chemical_formula_sum "Si O2"
_cell_formula_units_Z 40
_cell_length_a 17.567905
_cell_length_b 15.537698
_cell_length_c 13.220738
_cell_angle_alpha 90.000000
_cell_angle_beta 32.088759
_cell_angle_gamma 90.000000
_cell_volume 1917.109325
_symmetry_space_group_name_H-M "C 2/C"
_symmetry_group_IT_number 15
_symmetry_cell_setting 'monoclinic'
loop_
_space_group_symop_operation_xyz
x,y,z
-x,y,1/2-z
-x,-y,-z
x,-y,1/2+z
1/2+x,1/2+y,z
1/2-x,1/2+y,1/2-z
1/2-x,1/2-y,-z
1/2+x,1/2-y,1/2+z
loop_
_atom_site_type_symbol
_atom_site_label
_atom_site_fract_x
_atom_site_fract_y
_atom_site_fract_z
Si Si1 0.357528 0.213179 0.462221
Si Si2 0.107598 0.394729 0.268118
Si Si3 0.295127 0.080672 0.070934
Si Si4 0.183287 0.081063 0.792051
Si Si5 0.417009 0.706660 0.102798
O O1 0.500000 0.178256 0.250000
O O2 0.250000 0.250000 0.500000
O O3 0.275586 0.141603 0.615933
O O4 0.408112 0.279349 0.492046
O O5 0.222831 0.435371 0.213876
O O6 0.073433 0.297903 0.348721
O O7 0.953005 0.440497 0.436470
O O8 0.176794 0.399483 0.078570
O O9 0.231214 0.165433 0.194028
O O10 0.181089 0.006847 0.230206
O O11 0.045649 0.138896 0.975439
#
# Coordination Sequence:
#
# PCOD9295087 Si02
#       5
#     8   8   8   8   8
#     4  11  23  41  65  93 126 169 214 259 318 386
#     4  10  23  42  64  93 125 173 211 260 322 389
#     4  11  24  41  65  95 128 165 214 270 323 377
#     4  11  24  41  64  96 127 165 214 271 320 378
#     4  11  23  43  64  93 129 169 216 256 322 390
#
# _framework density 20.864746
#
# number of rings (size 3 to 8) (size 9 to 14) (size 15 to 20)
#    0.000    1.200    2.000    4.200    5.600    4.000 
#    0.000    0.000    0.000    0.000    0.000    0.000 
#    0.000    0.000    0.000    0.000    0.000    0.000 
#
# Total GULP energy -111587.801649 kJ/mol
# GULP energy per Si atom -5579.390082 kJ/mol
# Density = 2.081726 g / cm^3
# Si number density = 20.864746 Si / 1000 Ang^3
#
#
#
# Elastic Constant Matrix: (Units=GPa)
#
#
# Indices 1 2 3 4 5 6 
#
# 1 108.3234 15.1291 23.9327 0.0002 18.3677 -0.0001
# 2 15.1291 43.2043 17.1547 0.0001 -3.2475 -0.0001
# 3 23.9327 17.1547 93.9996 0.0003 7.9027 -0.0002
# 4 0.0002 0.0001 0.0003 -1.1515 -0.0002 -3.2345
# 5 18.3677 -3.2475 7.9027 -0.0002 21.2190 0.0001
# 6 -0.0001 -0.0001 -0.0002 -3.2345 0.0001 17.4778
#
#
#
# Elastic Compliance Matrix: (Units=1/GPa)
#
#
# Indices 1 2 3 4 5 6 
#
# 1 0.011929 -0.004433 -0.001345 0.000002 -0.010503 0.000000
# 2 -0.004433 0.027286 -0.004671 -0.000001 0.009753 0.000000
# 3 -0.001345 -0.004671 0.012177 0.000002 -0.004085 0.000000
# 4 0.000002 -0.000001 0.000002 -0.571392 -0.000008 -0.105745
# 5 -0.010503 0.009753 -0.004085 -0.000008 0.059234 -0.000002
# 6 0.000000 0.000000 0.000000 -0.105745 -0.000002 0.037646
#
#
# Mechanical properties :
#
#
# Convention : Reuss Voigt Hill
#
# Bulk Modulus (GPa) = 32.79340 39.77338 36.28339
# Shear Modulus (GPa) = -12.75317 20.12979 3.68831
#
# Velocity S-wave (km/s) = -2.47499 3.10945 1.33100
# Velocity P-wave (km/s) = 2.75387 5.65645 4.44855
#
# Compressibility (1/GPa) = 0.03049394
#
# Stress axis : x y z
#
# Youngs Moduli (GPa) = 83.83018 36.64923 82.12384
#
# Poissons Ratio (x) = 0.16245 0.11047
# Poissons Ratio (y) = 0.37158 0.38359
# Poissons Ratio (z) = 0.11277 0.17119
#
# Static dielectric constant tensor:
#      x y z
#    x 1.810660 0.000000 -0.013260 
#    y 0.000000 1.795790 0.000000 
#    z -0.013260 0.000000 1.728340 
# 
# From -- ./inp_files/96007.got.cif
#   From: 2010.05.17/outbox.cif.g08.bks.cpg/sg15_49_cif.got.tgz:96007.got - 2010.06.03 18:47:42.
