data_PCOD9295375
_publ_section_title
;
Structure prediction by ZEFSAII (Michael W. Deem and Ramdas Pophale) SiO2 
 PCOD9295375
Probable space group: C 2/C
;
_chemical_formula_sum "Si O2"
_cell_formula_units_Z 60
_cell_length_a 14.332757
_cell_length_b 12.889286
_cell_length_c 23.763134
_cell_angle_alpha 90.000000
_cell_angle_beta 148.209032
_cell_angle_gamma 90.000000
_cell_volume 2312.736018
_symmetry_space_group_name_H-M "C 2/C"
_symmetry_group_IT_number 15
_symmetry_cell_setting 'monoclinic'
loop_
_space_group_symop_operation_xyz
x,y,z
-x,y,1/2-z
-x,-y,-z
x,-y,1/2+z
1/2+x,1/2+y,z
1/2-x,1/2+y,1/2-z
1/2-x,1/2-y,-z
1/2+x,1/2-y,1/2+z
loop_
_atom_site_type_symbol
_atom_site_label
_atom_site_fract_x
_atom_site_fract_y
_atom_site_fract_z
Si Si1 0.444435 0.873757 0.086137
Si Si2 0.500000 0.586090 0.750000
Si Si3 0.873062 0.269840 0.616067
Si Si4 0.201055 0.975421 0.517938
Si Si5 0.899003 0.765892 0.750902
Si Si6 0.323762 0.544226 0.772220
Si Si7 0.106500 0.807490 0.024672
Si Si8 0.260780 0.655039 0.296411
O O1 0.478488 0.829244 0.166276
O O2 0.646590 0.889245 0.169168
O O3 0.358515 0.785313 0.002759
O O4 0.318666 0.973602 0.027459
O O5 0.367137 0.668831 0.652066
O O6 0.397514 0.524401 0.746434
O O7 0.750000 0.250000 0.500000
O O8 0.815625 0.385464 0.605335
O O9 0.079379 0.283653 0.705775
O O10 0.011407 0.931808 0.399255
O O11 0.158271 0.075972 0.533492
O O12 0.708642 0.726746 0.632388
O O13 0.868848 0.826617 0.793034
O O14 0.000000 0.814521 0.750000
O O15 0.234427 0.466209 0.772329
O O16 0.894506 0.815412 0.914269
#
# Coordination Sequence:
#
# PCOD9295375 Si02
#       8
#     8   4   8   8   8   8   8   8
#     4  11  23  46  73 102 146 183 234 302 368 422
#     4  12  26  44  74 104 144 192 246 296 360 438
#     4  12  26  49  70  98 146 194 234 296 364 429
#     4  11  23  45  72  97 141 188 230 290 362 415
#     4  11  23  39  71 104 140 177 235 295 358 429
#     4  11  25  47  69 103 141 189 241 299 350 431
#     4  10  23  42  70 103 139 180 233 296 363 417
#     4  10  25  45  69 101 144 189 236 299 367 425
#
# _framework density 25.943297999999999
#
# number of rings (size 3 to 8) (size 9 to 14) (size 15 to 20)
#    0.000    1.067    4.000    2.000    4.667    3.200 
#    0.000    3.333    0.000    0.000    0.000    0.000 
#    0.000    0.000    0.000    0.000    0.000    0.000 
#
# Total GULP energy -167514.882688 kJ/mol
# GULP energy per Si atom -5583.829423 kJ/mol
# Density = 2.588425 g / cm^3
# Si number density = 25.943298 Si / 1000 Ang^3
#
#
#
# Elastic Constant Matrix: (Units=GPa)
#
#
# Indices 1 2 3 4 5 6 
#
# 1 83.7031 11.0239 15.4208 0.0000 23.1086 0.0000
# 2 11.0239 77.2244 20.9821 0.0000 11.2637 0.0000
# 3 15.4208 20.9821 151.1552 0.0001 6.4649 0.0000
# 4 0.0000 0.0000 0.0001 31.8564 0.0000 13.4637
# 5 23.1086 11.2637 6.4649 0.0000 48.1581 0.0000
# 6 0.0000 0.0000 0.0000 13.4637 0.0000 35.9589
#
#
#
# Elastic Compliance Matrix: (Units=1/GPa)
#
#
# Indices 1 2 3 4 5 6 
#
# 1 0.014009 -0.000782 -0.001047 0.000000 -0.006399 0.000000
# 2 -0.000782 0.013920 -0.001739 0.000000 -0.002647 0.000000
# 3 -0.001047 -0.001739 0.006965 0.000000 -0.000026 0.000000
# 4 0.000000 0.000000 0.000000 0.037292 0.000000 -0.013963
# 5 -0.006399 -0.002647 -0.000026 0.000000 0.024458 0.000000
# 6 0.000000 0.000000 0.000000 -0.013963 0.000000 0.033038
#
#
# Mechanical properties :
#
#
# Convention : Reuss Voigt Hill
#
# Bulk Modulus (GPa) = 36.02624 45.21513 40.62069
# Shear Modulus (GPa) = 34.22999 40.83842 37.53421
#
# Velocity S-wave (km/s) = 3.63632 3.97185 3.80778
# Velocity P-wave (km/s) = 5.61668 6.20487 5.91809
#
# Compressibility (1/GPa) = 0.02775754
#
# Stress axis : x y z
#
# Youngs Moduli (GPa) = 71.38017 71.84155 143.57384
#
# Poissons Ratio (x) = 0.05619 0.15032
# Poissons Ratio (y) = 0.05582 0.24970
# Poissons Ratio (z) = 0.07474 0.12495
#
# Static dielectric constant tensor:
#      x y z
#    x 2.106390 0.000000 0.023860 
#    y 0.000000 2.191990 0.000000 
#    z 0.023860 0.000000 1.996950 
# 
# From -- ./inp_files/296715.got.cif
#   From: 2010.05.17/outbox.cif.g08.bks.cpg/sg15_149_cif.got.tgz:296715.got - 2010.06.03 18:47:42.
