data_PCOD9295419
_publ_section_title
;
Structure prediction by ZEFSAII (Michael W. Deem and Ramdas Pophale) SiO2 
 PCOD9295419
Probable space group: C 2/C
;
_chemical_formula_sum "Si O2"
_cell_formula_units_Z 32
_cell_length_a 14.954755
_cell_length_b 10.382096
_cell_length_c 19.756191
_cell_angle_alpha 90.000000
_cell_angle_beta 22.015745
_cell_angle_gamma 90.000000
_cell_volume 1149.842214
_symmetry_space_group_name_H-M "C 2/C"
_symmetry_group_IT_number 15
_symmetry_cell_setting 'monoclinic'
loop_
_space_group_symop_operation_xyz
x,y,z
-x,y,1/2-z
-x,-y,-z
x,-y,1/2+z
1/2+x,1/2+y,z
1/2-x,1/2+y,1/2-z
1/2-x,1/2-y,-z
1/2+x,1/2-y,1/2+z
loop_
_atom_site_type_symbol
_atom_site_label
_atom_site_fract_x
_atom_site_fract_y
_atom_site_fract_z
Si Si1 0.322544 0.514183 0.555629
Si Si2 0.104305 0.208437 0.854664
Si Si3 0.020897 0.500992 0.881710
Si Si4 0.624617 0.350569 0.727124
O O1 0.500000 0.500000 0.500000
O O2 0.363583 0.365848 0.504183
O O3 0.067723 0.533354 0.770412
O O4 0.445632 0.602732 0.411940
O O5 0.089630 0.351907 0.836404
O O6 0.186856 0.251292 0.872585
O O7 0.308622 0.101070 0.695916
O O8 0.766703 0.532480 0.091564
O O9 0.500000 0.288932 0.750000
#
# Coordination Sequence:
#
# PCOD9295419 Si02
#       4
#     8   8   8   8
#     4  10  23  42  71 101 133 185 239 271 340 426
#     4  11  22  45  76 105 132 188 242 284 338 428
#     4  11  25  43  75 100 142 185 238 287 339 424
#     4  12  27  44  69 109 147 178 229 298 359 399
#
# _framework density 27.829906000000001
#
# number of rings (size 3 to 8) (size 9 to 14) (size 15 to 20)
#    0.000    1.000    5.000    2.250    7.000    2.000 
#    0.000    1.250    0.000    0.000    0.000    0.000 
#    0.000    0.000    0.000    0.000    0.000    0.000 
#
# Total GULP energy -89171.592447 kJ/mol
# GULP energy per Si atom -5573.224528 kJ/mol
# Density = 2.776656 g / cm^3
# Si number density = 27.829906 Si / 1000 Ang^3
#
#
#
# Elastic Constant Matrix: (Units=GPa)
#
#
# Indices 1 2 3 4 5 6 
#
# 1 126.1980 10.9322 36.0924 -0.0102 44.2834 -0.0005
# 2 10.9322 160.6393 50.1931 -0.0394 16.1021 -0.0100
# 3 36.0924 50.1931 178.6900 -0.0499 47.6857 0.0094
# 4 -0.0102 -0.0394 -0.0499 31.7910 0.0029 1.7549
# 5 44.2834 16.1021 47.6857 0.0029 41.1850 -0.0028
# 6 -0.0005 -0.0100 0.0094 1.7549 -0.0028 29.4079
#
#
#
# Elastic Compliance Matrix: (Units=1/GPa)
#
#
# Indices 1 2 3 4 5 6 
#
# 1 0.013042 0.000223 0.001546 0.000008 -0.015901 -0.000002
# 2 0.000223 0.006840 -0.001720 0.000006 -0.000922 0.000002
# 3 0.001546 -0.001720 0.008728 0.000013 -0.011096 -0.000005
# 4 0.000008 0.000006 0.000013 0.031559 -0.000029 -0.001883
# 5 -0.015901 -0.000922 -0.011096 -0.000029 0.054587 0.000010
# 6 -0.000002 0.000002 -0.000005 -0.001883 0.000010 0.034117
#
#
# Mechanical properties :
#
#
# Convention : Reuss Voigt Hill
#
# Bulk Modulus (GPa) = 34.83203 73.32920 54.08061
# Shear Modulus (GPa) = 31.57674 45.03073 38.30373
#
# Velocity S-wave (km/s) = 3.37209 4.02689 3.71395
# Velocity P-wave (km/s) = 5.26351 6.93018 6.15353
#
# Compressibility (1/GPa) = 0.02870921
#
# Stress axis : x y z
#
# Youngs Moduli (GPa) = 76.67383 146.20105 114.56973
#
# Poissons Ratio (x) = -0.03262 -0.17718
# Poissons Ratio (y) = -0.01711 0.19708
# Poissons Ratio (z) = -0.11857 0.25150
#
# Static dielectric constant tensor:
#      x y z
#    x 2.422410 0.000000 -0.073730 
#    y 0.000000 2.307320 0.000030 
#    z -0.073730 0.000030 2.457970 
# 
# From -- ./inp_files/277185.got.cif
#   From: 2010.05.17/outbox.cif.g08.bks.cpg/sg15_139_cif.got.tgz:277185.got - 2010.06.03 18:47:42.
