data_PCOD9295389
_publ_section_title
;
Structure prediction by ZEFSAII (Michael W. Deem and Ramdas Pophale) SiO2 
 PCOD9295389
Probable space group: C 2/C
;
_chemical_formula_sum "Si O2"
_cell_formula_units_Z 40
_cell_length_a 17.779944
_cell_length_b 6.824367
_cell_length_c 18.539994
_cell_angle_alpha 90.000000
_cell_angle_beta 50.262373
_cell_angle_gamma 90.000000
_cell_volume 1729.885430
_symmetry_space_group_name_H-M "C 2/C"
_symmetry_group_IT_number 15
_symmetry_cell_setting 'monoclinic'
loop_
_space_group_symop_operation_xyz
x,y,z
-x,y,1/2-z
-x,-y,-z
x,-y,1/2+z
1/2+x,1/2+y,z
1/2-x,1/2+y,1/2-z
1/2-x,1/2-y,-z
1/2+x,1/2-y,1/2+z
loop_
_atom_site_type_symbol
_atom_site_label
_atom_site_fract_x
_atom_site_fract_y
_atom_site_fract_z
Si Si1 0.830771 0.688027 0.891397
Si Si2 0.301054 0.352349 0.550458
Si Si3 0.538142 0.494942 0.148723
Si Si4 0.131942 0.104518 0.857023
Si Si5 0.225619 0.534443 0.349567
O O1 0.803515 0.464343 0.891142
O O2 0.804053 0.816720 0.837279
O O3 0.931402 0.775381 0.860130
O O4 0.750000 0.750000 0.000000
O O5 0.364204 0.388259 0.440059
O O6 0.356844 0.470101 0.579857
O O7 0.297707 0.130067 0.577649
O O8 0.500000 0.426271 0.250000
O O9 0.458124 0.454071 0.137311
O O10 0.135922 0.328928 0.880766
O O11 0.226568 0.070553 0.748250
#
# Coordination Sequence:
#
# PCOD9295389 Si02
#       5
#     8   8   8   8   8
#     4   9  21  41  66  93 127 174 221 277 355 404
#     4  10  23  42  70  94 132 185 226 279 345 422
#     4  11  22  41  67 100 139 170 227 295 344 400
#     4  11  22  40  67  98 130 185 231 282 341 412
#     4  11  21  40  68  91 133 181 233 270 343 424
#
# _framework density 23.122917000000001
#
# number of rings (size 3 to 8) (size 9 to 14) (size 15 to 20)
#    0.000    1.600    4.000    0.600    0.000    4.000 
#    0.000    2.000    0.000    0.000    0.000    0.000 
#    0.000    0.000    0.000    0.000    0.000    0.000 
#
# Total GULP energy -111781.018214 kJ/mol
# GULP energy per Si atom -5589.050911 kJ/mol
# Density = 2.307029 g / cm^3
# Si number density = 23.122917 Si / 1000 Ang^3
#
#
#
# Elastic Constant Matrix: (Units=GPa)
#
#
# Indices 1 2 3 4 5 6 
#
# 1 133.8465 97.2207 23.0237 -0.0001 12.4345 0.0001
# 2 97.2207 147.6241 33.8941 0.0000 -0.0329 -0.0009
# 3 23.0237 33.8941 113.2559 0.0000 18.5201 -0.0001
# 4 -0.0001 0.0000 0.0000 26.6267 0.0001 17.0249
# 5 12.4345 -0.0329 18.5201 0.0001 30.0488 0.0001
# 6 0.0001 -0.0009 -0.0001 17.0249 0.0001 39.7274
#
#
#
# Elastic Compliance Matrix: (Units=1/GPa)
#
#
# Indices 1 2 3 4 5 6 
#
# 1 0.015591 -0.010535 0.001157 0.000000 -0.007176 0.000000
# 2 -0.010535 0.014454 -0.003224 0.000000 0.006363 0.000000
# 3 0.001157 -0.003224 0.010718 0.000000 -0.007088 0.000000
# 4 0.000000 0.000000 0.000000 0.051731 0.000000 -0.022169
# 5 -0.007176 0.006363 -0.007088 0.000000 0.040625 0.000000
# 6 0.000000 0.000000 0.000000 -0.022169 0.000000 0.034672
#
#
# Mechanical properties :
#
#
# Convention : Reuss Voigt Hill
#
# Bulk Modulus (GPa) = 64.27482 78.11150 71.19316
# Shear Modulus (GPa) = 25.22929 35.31977 30.27453
#
# Velocity S-wave (km/s) = 3.30676 3.91254 3.62233
# Velocity P-wave (km/s) = 6.51436 7.36647 6.95348
#
# Compressibility (1/GPa) = 0.01555819
#
# Stress axis : x y z
#
# Youngs Moduli (GPa) = 64.13865 69.18605 93.29686
#
# Poissons Ratio (x) = 0.72888 -0.10793
# Poissons Ratio (y) = 0.67571 0.30082
# Poissons Ratio (z) = -0.07420 0.22308
#
# Static dielectric constant tensor:
#      x y z
#    x 1.909590 0.000000 -0.012240 
#    y 0.000000 1.883500 0.000000 
#    z -0.012240 0.000000 1.882290 
# 
# From -- ./inp_files/251008.got.cif
#   From: 2010.05.17/outbox.cif.g08.bks.cpg/sg15_126_cif.got.tgz:251008.got - 2010.06.03 18:47:42.
