data_PCOD9295151
_publ_section_title
;
Structure prediction by ZEFSAII (Michael W. Deem and Ramdas Pophale) SiO2 
 PCOD9295151
Probable space group: C 2/C
;
_chemical_formula_sum "Si O2"
_cell_formula_units_Z 52
_cell_length_a 22.909914
_cell_length_b 7.939055
_cell_length_c 13.461208
_cell_angle_alpha 90.000000
_cell_angle_beta 57.193106
_cell_angle_gamma 90.000000
_cell_volume 2057.854926
_symmetry_space_group_name_H-M "C 2/C"
_symmetry_group_IT_number 15
_symmetry_cell_setting 'monoclinic'
loop_
_space_group_symop_operation_xyz
x,y,z
-x,y,1/2-z
-x,-y,-z
x,-y,1/2+z
1/2+x,1/2+y,z
1/2-x,1/2+y,1/2-z
1/2-x,1/2-y,-z
1/2+x,1/2-y,1/2+z
loop_
_atom_site_type_symbol
_atom_site_label
_atom_site_fract_x
_atom_site_fract_y
_atom_site_fract_z
Si Si1 0.556400 0.260232 0.510420
Si Si2 0.254499 0.022427 0.592966
Si Si3 0.500000 0.145002 0.750000
Si Si4 0.780340 0.306641 0.272093
Si Si5 0.603488 0.057779 0.293739
Si Si6 0.360863 0.283313 0.402872
Si Si7 0.589349 0.618418 0.442931
O O1 0.553942 0.243010 0.630917
O O2 0.582207 0.097192 0.426476
O O3 0.600014 0.419965 0.436740
O O4 0.479119 0.316411 0.548032
O O5 0.243202 0.122794 0.707838
O O6 0.320197 0.119029 0.484068
O O7 0.192910 0.067665 0.573109
O O8 0.258776 0.825008 0.619385
O O9 0.455532 0.042576 0.710838
O O10 0.821842 0.465169 0.280283
O O11 0.844911 0.199662 0.169819
O O12 0.606449 0.230438 0.230566
O O13 0.414272 0.328858 0.438814
#
# Coordination Sequence:
#
# PCOD9295151 Si02
#       7
#     8   8   4   8   8   8   8
#     4  11  25  44  67 103 136 179 225 278 340 418
#     4  10  23  42  65  96 135 172 240 276 338 402
#     4  12  26  40  68 102 130 176 228 270 326 432
#     4  11  23  43  66  96 136 185 221 288 342 392
#     4  12  25  41  70  97 143 178 220 282 345 401
#     4  10  23  43  67 101 132 181 225 283 336 411
#     4  10  23  43  70  96 144 178 224 280 342 401
#
# _framework density 25.269031999999999
#
# number of rings (size 3 to 8) (size 9 to 14) (size 15 to 20)
#    0.000    1.231    1.538    3.231    6.462    3.077 
#    0.000    0.000    0.000    0.000    0.000    0.000 
#    0.000    0.000    0.000    0.000    0.000    0.000 
#
# Total GULP energy -145500.641540 kJ/mol
# GULP energy per Si atom -5596.178521 kJ/mol
# Density = 2.521152 g / cm^3
# Si number density = 25.269032 Si / 1000 Ang^3
#
#
#
# Elastic Constant Matrix: (Units=GPa)
#
#
# Indices 1 2 3 4 5 6 
#
# 1 18.7543 -3.2477 8.5950 0.0000 7.4149 0.0000
# 2 -3.2477 82.9898 37.4721 0.0000 12.0420 0.0000
# 3 8.5950 37.4721 112.9421 0.0000 20.4819 0.0000
# 4 0.0000 0.0000 0.0000 46.1985 0.0000 1.4492
# 5 7.4149 12.0420 20.4819 0.0000 31.2290 0.0000
# 6 0.0000 0.0000 0.0000 1.4492 0.0000 29.8368
#
#
#
# Elastic Compliance Matrix: (Units=1/GPa)
#
#
# Indices 1 2 3 4 5 6 
#
# 1 0.062092 0.006442 -0.004243 0.000000 -0.014444 0.000000
# 2 0.006442 0.015045 -0.004713 0.000000 -0.004240 0.000000
# 3 -0.004243 -0.004713 0.011609 0.000000 -0.004789 0.000000
# 4 0.000000 0.000000 0.000000 0.021679 0.000000 -0.001053
# 5 -0.014444 -0.004240 -0.004789 0.000000 0.040227 0.000000
# 6 0.000000 0.000000 0.000000 -0.001053 0.000000 0.033567
#
#
# Mechanical properties :
#
#
# Convention : Reuss Voigt Hill
#
# Bulk Modulus (GPa) = 11.94499 33.36947 22.65723
# Shear Modulus (GPa) = 23.02521 32.91065 27.96793
#
# Velocity S-wave (km/s) = 3.02189 3.61281 3.33048
# Velocity P-wave (km/s) = 4.11256 5.53512 4.87599
#
# Compressibility (1/GPa) = 0.08371708
#
# Stress axis : x y z
#
# Youngs Moduli (GPa) = 16.10517 66.46728 86.13864
#
# Poissons Ratio (x) = -0.42815 0.36549
# Poissons Ratio (y) = -0.10374 0.40597
# Poissons Ratio (z) = 0.06834 0.31326
#
# Static dielectric constant tensor:
#      x y z
#    x 1.986230 0.000000 -0.043990 
#    y 0.000000 2.042220 0.000000 
#    z -0.043990 0.000000 1.980940 
# 
# From -- ./inp_files/121808.got.cif
#   From: 2010.05.17/outbox.cif.g08.bks.cpg/sg15_61_cif.got.tgz:121808.got - 2010.06.03 18:47:42.
