data_PCOD9295584
_publ_section_title
;
Structure prediction by ZEFSAII (Michael W. Deem and Ramdas Pophale) SiO2 
 PCOD9295584
Probable space group: C 2/C
;
_chemical_formula_sum "Si O2"
_cell_formula_units_Z 48
_cell_length_a 9.143033
_cell_length_b 23.265218
_cell_length_c 14.489498
_cell_angle_alpha 90.000000
_cell_angle_beta 39.351118
_cell_angle_gamma 90.000000
_cell_volume 1954.288423
_symmetry_space_group_name_H-M "C 2/C"
_symmetry_group_IT_number 15
_symmetry_cell_setting 'monoclinic'
loop_
_space_group_symop_operation_xyz
x,y,z
-x,y,1/2-z
-x,-y,-z
x,-y,1/2+z
1/2+x,1/2+y,z
1/2-x,1/2+y,1/2-z
1/2-x,1/2-y,-z
1/2+x,1/2-y,1/2+z
loop_
_atom_site_type_symbol
_atom_site_label
_atom_site_fract_x
_atom_site_fract_y
_atom_site_fract_z
Si Si1 0.252459 0.825728 0.168369
Si Si2 0.866849 0.467290 0.645632
Si Si3 0.521212 0.654866 0.438094
Si Si4 0.727807 0.927230 0.197296
Si Si5 0.500000 0.622065 0.250000
Si Si6 0.000000 0.397218 0.750000
Si Si7 0.990618 0.742930 0.086032
O O1 0.314670 0.875416 0.209525
O O2 0.459306 0.815586 0.994518
O O3 0.000000 0.842580 0.250000
O O4 0.189533 0.764156 0.248264
O O5 0.717434 0.515098 0.773602
O O6 0.706698 0.420065 0.677206
O O7 0.000000 0.500000 0.500000
O O8 0.025350 0.436669 0.646361
O O9 0.410712 0.597340 0.535901
O O10 0.462712 0.659035 0.359703
O O11 0.788295 0.643907 0.329510
O O12 0.436227 0.709010 0.536309
O O13 0.500000 0.938376 0.250000
O O14 0.250000 0.750000 0.000000
#
# Coordination Sequence:
#
# PCOD9295584 Si02
#       7
#     8   8   8   8   4   4   8
#     4   9  20  38  62  94 119 166 210 266 321 380
#     4  11  24  39  62  93 125 171 214 261 323 380
#     4  10  23  43  65  94 130 169 212 271 325 383
#     4  11  23  42  63  88 131 170 212 266 318 385
#     4  10  24  40  60  92 128 166 210 258 320 388
#     4  10  24  40  64  94 122 172 214 268 322 372
#     4   9  19  38  64  93 125 159 215 262 325 378
#
# _framework density 24.561368000000002
#
# number of rings (size 3 to 8) (size 9 to 14) (size 15 to 20)
#    0.000    2.000    0.833    1.000    7.000    4.000 
#    7.500    1.667    0.000    0.000    0.000    0.000 
#    0.000    0.000    0.000    0.000    0.000    0.000 
#
# Total GULP energy -134202.534421 kJ/mol
# GULP energy per Si atom -5591.772268 kJ/mol
# Density = 2.450547 g / cm^3
# Si number density = 24.561368 Si / 1000 Ang^3
#
#
#
# Elastic Constant Matrix: (Units=GPa)
#
#
# Indices 1 2 3 4 5 6 
#
# 1 138.7599 38.4054 21.1380 0.0000 26.0947 0.0000
# 2 38.4054 89.5859 10.6616 0.0000 11.9615 0.0000
# 3 21.1380 10.6616 53.9598 0.0001 14.7749 0.0000
# 4 0.0000 0.0000 0.0001 49.5867 0.0000 17.7022
# 5 26.0947 11.9615 14.7749 0.0000 38.7578 0.0000
# 6 0.0000 0.0000 0.0000 17.7022 0.0000 35.3297
#
#
#
# Elastic Compliance Matrix: (Units=1/GPa)
#
#
# Indices 1 2 3 4 5 6 
#
# 1 0.009194 -0.003126 -0.001734 0.000000 -0.004565 0.000000
# 2 -0.003126 0.012810 -0.000894 0.000000 -0.001508 0.000000
# 3 -0.001734 -0.000894 0.021207 0.000000 -0.006641 0.000000
# 4 0.000000 0.000000 0.000000 0.024560 0.000000 -0.012306
# 5 -0.004565 -0.001508 -0.006641 0.000000 0.031871 0.000000
# 6 0.000000 0.000000 0.000000 -0.012306 0.000000 0.034471
#
#
# Mechanical properties :
#
#
# Convention : Reuss Voigt Hill
#
# Bulk Modulus (GPa) = 31.54200 46.96839 39.25519
# Shear Modulus (GPa) = 32.01258 38.87489 35.44374
#
# Velocity S-wave (km/s) = 3.61414 3.98271 3.80290
# Velocity P-wave (km/s) = 5.50327 6.34931 5.94137
#
# Compressibility (1/GPa) = 0.03170376
#
# Stress axis : x y z
#
# Youngs Moduli (GPa) = 108.76152 78.06264 47.15515
#
# Poissons Ratio (x) = 0.24401 0.08178
# Poissons Ratio (y) = 0.33996 0.04214
# Poissons Ratio (z) = 0.18863 0.06976
#
# Static dielectric constant tensor:
#      x y z
#    x 1.917260 0.000000 0.025230 
#    y 0.000000 1.960020 0.000000 
#    z 0.025230 0.000000 2.034880 
# 
# From -- ./inp_files/80574.got.cif
#   From: 2010.05.17/outbox.cif.g08.bks.cpg/sg15_41_cif.got.tgz:80574.got - 2010.06.03 18:47:42.
