data_PCOD9295575
_publ_section_title
;
Structure prediction by ZEFSAII (Michael W. Deem and Ramdas Pophale) SiO2 
 PCOD9295575
Probable space group: C 2/C
;
_chemical_formula_sum "Si O2"
_cell_formula_units_Z 56
_cell_length_a 19.579803
_cell_length_b 9.755533
_cell_length_c 15.058883
_cell_angle_alpha 90.000000
_cell_angle_beta 105.072074
_cell_angle_gamma 90.000000
_cell_volume 2777.468264
_symmetry_space_group_name_H-M "C 2/C"
_symmetry_group_IT_number 15
_symmetry_cell_setting 'monoclinic'
loop_
_space_group_symop_operation_xyz
x,y,z
-x,y,1/2-z
-x,-y,-z
x,-y,1/2+z
1/2+x,1/2+y,z
1/2-x,1/2+y,1/2-z
1/2-x,1/2-y,-z
1/2+x,1/2-y,1/2+z
loop_
_atom_site_type_symbol
_atom_site_label
_atom_site_fract_x
_atom_site_fract_y
_atom_site_fract_z
Si Si1 0.952274 0.427815 0.410321
Si Si2 0.418849 0.559767 0.977257
Si Si3 0.394715 0.196865 0.333679
Si Si4 0.848100 0.217488 0.457921
Si Si5 0.892337 0.940421 0.671571
Si Si6 0.000000 0.285631 0.250000
Si Si7 0.500000 0.682749 0.750000
Si Si8 0.697227 0.675863 0.853294
O O1 0.893615 0.540118 0.361720
O O2 0.914479 0.304085 0.447871
O O3 0.000000 0.500000 0.500000
O O4 0.994925 0.374774 0.338070
O O5 0.399183 0.690555 0.912295
O O6 0.366217 0.436535 0.934247
O O7 0.500000 0.500000 0.000000
O O8 0.402026 0.596223 0.072615
O O9 0.471944 0.220248 0.316335
O O10 0.338307 0.240533 0.239742
O O11 0.778225 0.280662 0.390816
O O12 0.836425 0.214061 0.560948
O O13 0.930972 0.815023 0.733473
O O14 0.939542 0.076223 0.703559
O O15 0.816682 0.011247 0.664821
#
# Coordination Sequence:
#
# PCOD9295575 Si02
#       8
#     8   8   8   8   8   4   4   8
#     4  12  27  39  62  95 135 170 211 272 345 386
#     4  11  19  35  63  94 121 157 215 263 316 379
#     4  11  22  36  59  90 125 169 211 267 317 397
#     4  10  23  43  65  92 127 169 211 271 321 398
#     4   9  18  34  61  91 117 158 209 267 313 380
#     4  11  23  40  62 100 132 166 216 284 334 370
#     4   9  17  30  56  84 116 158 202 254 318 368
#     4   9  22  42  67  87 125 171 221 256 328 388
#
# _framework density 20.162247000000001
#
# number of rings (size 3 to 8) (size 9 to 14) (size 15 to 20)
#    0.000    1.714    1.429    3.000   10.000    1.143 
#    0.000    0.000    0.000    3.429    0.000    0.000 
#    0.000    0.000    0.000    0.000    0.000    0.000 
#
# Total GULP energy -156087.539640 kJ/mol
# GULP energy per Si atom -5574.554987 kJ/mol
# Density = 2.011636 g / cm^3
# Si number density = 20.162247 Si / 1000 Ang^3
#
#
#
# Elastic Constant Matrix: (Units=GPa)
#
#
# Indices 1 2 3 4 5 6 
#
# 1 43.5221 10.5831 10.3696 0.0000 5.7744 0.0000
# 2 10.5831 88.3262 33.5794 0.0000 3.2131 0.0000
# 3 10.3696 33.5794 77.7898 0.0000 12.7388 0.0000
# 4 0.0000 0.0000 0.0000 40.6189 0.0000 21.1280
# 5 5.7744 3.2131 12.7388 0.0000 25.9595 0.0000
# 6 0.0000 0.0000 0.0000 21.1280 0.0000 67.1198
#
#
#
# Elastic Compliance Matrix: (Units=1/GPa)
#
#
# Indices 1 2 3 4 5 6 
#
# 1 0.024468 -0.002160 -0.001611 0.000000 -0.004385 0.000000
# 2 -0.002160 0.013775 -0.005935 0.000000 0.001688 0.000000
# 3 -0.001611 -0.005935 0.016803 0.000000 -0.007153 0.000000
# 4 0.000000 0.000000 0.000000 0.029439 0.000000 -0.009267
# 5 -0.004385 0.001688 -0.007153 0.000000 0.042798 0.000000
# 6 0.000000 0.000000 0.000000 -0.009267 0.000000 0.017816
#
#
# Mechanical properties :
#
#
# Convention : Reuss Voigt Hill
#
# Bulk Modulus (GPa) = 28.06272 35.41136 31.73704
# Shear Modulus (GPa) = 28.34647 37.08005 32.71326
#
# Velocity S-wave (km/s) = 3.75363 4.29311 4.03240
# Velocity P-wave (km/s) = 5.72145 6.49428 6.12007
#
# Compressibility (1/GPa) = 0.03563446
#
# Stress axis : x y z
#
# Youngs Moduli (GPa) = 40.87037 72.59361 59.51262
#
# Poissons Ratio (x) = 0.15677 0.09590
# Poissons Ratio (y) = 0.08826 0.35320
# Poissons Ratio (z) = 0.06586 0.43083
#
# Static dielectric constant tensor:
#      x y z
#    x 1.787920 0.000000 0.000630 
#    y 0.000000 1.749060 0.000000 
#    z 0.000630 0.000000 1.528150 
# 
# From -- ./inp_files/172022.got.cif
#   From: 2010.05.17/outbox.cif.g08.bks.cpg/sg15_87_cif.got.tgz:172022.got - 2010.06.03 18:47:42.
