data_PCOD9295162
_publ_section_title
;
Structure prediction by ZEFSAII (Michael W. Deem and Ramdas Pophale) SiO2 
 PCOD9295162
Probable space group: C 2/C
;
_chemical_formula_sum "Si O2"
_cell_formula_units_Z 48
_cell_length_a 20.625681
_cell_length_b 8.847699
_cell_length_c 14.030984
_cell_angle_alpha 90.000000
_cell_angle_beta 42.176155
_cell_angle_gamma 90.000000
_cell_volume 1719.158868
_symmetry_space_group_name_H-M "C 2/C"
_symmetry_group_IT_number 15
_symmetry_cell_setting 'monoclinic'
loop_
_space_group_symop_operation_xyz
x,y,z
-x,y,1/2-z
-x,-y,-z
x,-y,1/2+z
1/2+x,1/2+y,z
1/2-x,1/2+y,1/2-z
1/2-x,1/2-y,-z
1/2+x,1/2-y,1/2+z
loop_
_atom_site_type_symbol
_atom_site_label
_atom_site_fract_x
_atom_site_fract_y
_atom_site_fract_z
Si Si1 0.112374 0.578650 0.100526
Si Si2 0.176549 0.423767 0.217720
Si Si3 0.532625 0.167756 0.551393
Si Si4 0.408197 0.404562 0.421396
Si Si5 0.141699 0.067019 0.850192
Si Si6 0.872509 0.125949 0.312769
O O1 0.165792 0.536169 0.139791
O O2 0.101646 0.438690 0.039432
O O3 0.142596 0.741881 0.028230
O O4 0.000000 0.595588 0.250000
O O5 0.252911 0.449388 0.217240
O O6 0.194752 0.258723 0.152006
O O7 0.065650 0.413340 0.379069
O O8 0.597079 0.266833 0.410478
O O9 0.475870 0.292334 0.680041
O O10 0.500000 0.398792 0.250000
O O11 0.420498 0.446968 0.518374
O O12 0.357182 0.552398 0.431874
O O13 0.142237 0.013429 0.742321
#
# Coordination Sequence:
#
# PCOD9295162 Si02
#       6
#     8   8   8   8   8   8
#     4   9  19  39  60  92 137 168 219 278 332 388
#     4   9  22  39  63  93 130 179 217 280 332 402
#     4   9  20  41  66  94 128 179 216 279 333 405
#     4  11  22  37  67 100 128 178 229 278 328 402
#     4  12  23  41  71  96 136 181 227 277 341 401
#     4  10  23  42  65  99 135 172 233 277 330 408
#
# _framework density 27.920629999999999
#
# number of rings (size 3 to 8) (size 9 to 14) (size 15 to 20)
#    1.000    1.000    1.667    1.500    2.333    4.667 
#    0.000    4.167    0.000    0.000    0.000    0.000 
#    0.000    0.000    0.000    0.000    0.000    0.000 
#
# Total GULP energy -134334.330992 kJ/mol
# GULP energy per Si atom -5597.263791 kJ/mol
# Density = 2.785708 g / cm^3
# Si number density = 27.920630 Si / 1000 Ang^3
#
#
#
# Elastic Constant Matrix: (Units=GPa)
#
#
# Indices 1 2 3 4 5 6 
#
# 1 157.1019 37.0300 35.5037 0.0001 -11.1809 0.0000
# 2 37.0300 149.0404 21.6629 0.0004 -3.8206 -0.0003
# 3 35.5037 21.6629 67.0654 0.0000 -11.1141 -0.0001
# 4 0.0001 0.0004 0.0000 43.9010 -0.0001 4.1804
# 5 -11.1809 -3.8206 -11.1141 -0.0001 46.0776 0.0001
# 6 0.0000 -0.0003 -0.0001 4.1804 0.0001 31.3002
#
#
#
# Elastic Compliance Matrix: (Units=1/GPa)
#
#
# Indices 1 2 3 4 5 6 
#
# 1 0.007514 -0.001351 -0.003394 0.000000 0.000893 0.000000
# 2 -0.001351 0.007283 -0.001658 0.000000 -0.000124 0.000000
# 3 -0.003394 -0.001658 0.017795 0.000000 0.003331 0.000000
# 4 0.000000 0.000000 0.000000 0.023072 0.000000 -0.003081
# 5 0.000893 -0.000124 0.003331 0.000000 0.022712 0.000000
# 6 0.000000 0.000000 0.000000 -0.003081 0.000000 0.032360
#
#
# Mechanical properties :
#
#
# Convention : Reuss Voigt Hill
#
# Bulk Modulus (GPa) = 50.53713 62.40010 56.46862
# Shear Modulus (GPa) = 38.42096 42.85649 40.63872
#
# Velocity S-wave (km/s) = 3.71358 3.92208 3.81925
# Velocity P-wave (km/s) = 6.04377 6.55041 6.30218
#
# Compressibility (1/GPa) = 0.01978743
#
# Stress axis : x y z
#
# Youngs Moduli (GPa) = 133.08217 137.30591 56.19564
#
# Poissons Ratio (x) = 0.18547 0.19071
# Poissons Ratio (y) = 0.17977 0.09317
# Poissons Ratio (z) = 0.45163 0.22764
#
# Static dielectric constant tensor:
#      x y z
#    x 2.124710 0.000000 -0.110370 
#    y 0.000000 2.204320 0.000000 
#    z -0.110370 0.000000 2.256020 
# 
# From -- ./inp_files/213737.got.cif
#   From: 2010.05.17/outbox.cif.g08.bks.cpg/sg15_107_cif.got.tgz:213737.got - 2010.06.03 18:47:42.
