data_PCOD9295219
_publ_section_title
;
Structure prediction by ZEFSAII (Michael W. Deem and Ramdas Pophale) SiO2 
 PCOD9295219
Probable space group: C 2/C
;
_chemical_formula_sum "Si O2"
_cell_formula_units_Z 44
_cell_length_a 23.865934
_cell_length_b 8.781507
_cell_length_c 28.930180
_cell_angle_alpha 90.000000
_cell_angle_beta 20.015863
_cell_angle_gamma 90.000000
_cell_volume 2075.298253
_symmetry_space_group_name_H-M "C 2/C"
_symmetry_group_IT_number 15
_symmetry_cell_setting 'monoclinic'
loop_
_space_group_symop_operation_xyz
x,y,z
-x,y,1/2-z
-x,-y,-z
x,-y,1/2+z
1/2+x,1/2+y,z
1/2-x,1/2+y,1/2-z
1/2-x,1/2-y,-z
1/2+x,1/2-y,1/2+z
loop_
_atom_site_type_symbol
_atom_site_label
_atom_site_fract_x
_atom_site_fract_y
_atom_site_fract_z
Si Si1 0.390652 0.518028 0.489358
Si Si2 0.435195 0.130395 0.224389
Si Si3 0.756138 0.430519 0.496828
Si Si4 0.010270 0.180348 0.006866
Si Si5 0.500000 0.387423 0.250000
Si Si6 0.641121 0.730130 0.808855
O O1 0.330716 0.526308 0.483813
O O2 0.401068 0.670701 0.512096
O O3 0.566214 0.435731 0.355592
O O4 0.251191 0.416436 0.621765
O O5 0.471002 0.276478 0.228716
O O6 0.449159 0.164734 0.159124
O O7 0.562141 0.000315 0.141267
O O8 0.750000 0.250000 0.500000
O O9 0.652777 0.506876 0.618191
O O10 0.832504 0.251296 0.151934
O O11 0.099635 0.259596 0.894595
O O12 0.000000 0.000000 0.000000
#
# Coordination Sequence:
#
# PCOD9295219 Si02
#       6
#     8   8   8   8   4   8
#     4  11  23  45  71  96 145 187 235 302 357 430
#     4  12  22  43  77 102 140 191 247 295 347 448
#     4  12  28  43  68 110 150 187 230 301 382 430
#     4  10  23  42  66  99 136 177 229 300 356 406
#     4  12  24  42  72 106 136 194 250 284 354 436
#     4  11  21  42  72 101 130 186 251 293 353 425
#
# _framework density 21.201771999999998
#
# number of rings (size 3 to 8) (size 9 to 14) (size 15 to 20)
#    0.000    0.727    7.273    1.636    2.545    1.455 
#    0.000    3.636    0.000    0.000    0.000    0.000 
#    0.000    0.000    0.000    0.000    0.000    0.000 
#
# Total GULP energy -122831.583533 kJ/mol
# GULP energy per Si atom -5583.253797 kJ/mol
# Density = 2.115352 g / cm^3
# Si number density = 21.201772 Si / 1000 Ang^3
#
#
#
# Elastic Constant Matrix: (Units=GPa)
#
#
# Indices 1 2 3 4 5 6 
#
# 1 72.1794 10.1839 7.7958 -0.0009 20.6736 0.0017
# 2 10.1839 82.6296 39.8098 -0.0046 6.0329 0.0064
# 3 7.7958 39.8098 112.6895 -0.0001 16.8308 0.0048
# 4 -0.0009 -0.0046 -0.0001 1.6268 -0.0010 -1.3483
# 5 20.6736 6.0329 16.8308 -0.0010 22.3587 -0.0028
# 6 0.0017 0.0064 0.0048 -1.3483 -0.0028 32.6554
#
#
#
# Elastic Compliance Matrix: (Units=1/GPa)
#
#
# Indices 1 2 3 4 5 6 
#
# 1 0.019352 -0.002073 0.002234 -0.000008 -0.019016 -0.000003
# 2 -0.002073 0.014807 -0.005382 0.000041 0.001973 0.000000
# 3 0.002234 -0.005382 0.012069 -0.000021 -0.009698 -0.000003
# 4 -0.000008 0.000041 -0.000021 0.636483 0.000043 0.026280
# 5 -0.019016 0.001973 -0.009698 0.000043 0.069076 0.000010
# 6 -0.000003 0.000000 -0.000003 0.026280 0.000010 0.031708
#
#
# Mechanical properties :
#
#
# Convention : Reuss Voigt Hill
#
# Bulk Modulus (GPa) = 27.94436 42.56417 35.25426
# Shear Modulus (GPa) = 6.20451 25.30879 15.75665
#
# Velocity S-wave (km/s) = 1.71253 3.45876 2.72908
# Velocity P-wave (km/s) = 4.13753 6.00583 5.15700
#
# Compressibility (1/GPa) = 0.03578540
#
# Stress axis : x y z
#
# Youngs Moduli (GPa) = 51.67407 67.53741 82.85542
#
# Poissons Ratio (x) = 0.14000 -0.18507
# Poissons Ratio (y) = 0.10711 0.44593
# Poissons Ratio (z) = -0.11542 0.36349
#
# Static dielectric constant tensor:
#      x y z
#    x 1.900070 0.000080 0.045200 
#    y 0.000080 2.140130 0.000050 
#    z 0.045200 0.000050 1.757420 
# 
# From -- ./inp_files/319463.got.cif
#   From: 2010.05.17/outbox.cif.g08.bks.cpg/sg15_160_cif.got.tgz:319463.got - 2010.06.03 18:47:42.
