data_PCOD9295803
_publ_section_title
;
Structure prediction by ZEFSAII (Michael W. Deem and Ramdas Pophale) SiO2 
 PCOD9295803
Probable space group: C 2/C
;
_chemical_formula_sum "Si O2"
_cell_formula_units_Z 48
_cell_length_a 8.995859
_cell_length_b 17.960320
_cell_length_c 15.903129
_cell_angle_alpha 90.000000
_cell_angle_beta 60.888604
_cell_angle_gamma 90.000000
_cell_volume 2244.860904
_symmetry_space_group_name_H-M "C 2/C"
_symmetry_group_IT_number 15
_symmetry_cell_setting 'monoclinic'
loop_
_space_group_symop_operation_xyz
x,y,z
-x,y,1/2-z
-x,-y,-z
x,-y,1/2+z
1/2+x,1/2+y,z
1/2-x,1/2+y,1/2-z
1/2-x,1/2-y,-z
1/2+x,1/2-y,1/2+z
loop_
_atom_site_type_symbol
_atom_site_label
_atom_site_fract_x
_atom_site_fract_y
_atom_site_fract_z
Si Si1 0.174140 0.752853 0.252832
Si Si2 0.735342 0.110018 0.126256
Si Si3 0.605005 0.115485 0.864446
Si Si4 0.500000 0.013395 0.750000
Si Si5 0.342999 0.517847 0.357158
Si Si6 0.930865 0.350584 0.580968
Si Si7 0.500000 0.500000 0.500000
O O1 0.249865 0.681817 0.181168
O O2 0.296167 0.822764 0.215513
O O3 0.000000 0.770741 0.250000
O O4 0.135968 0.724279 0.356908
O O5 0.584822 0.124827 0.100619
O O6 0.664344 0.039897 0.200466
O O7 0.901685 0.081516 0.035248
O O8 0.492563 0.064955 0.833685
O O9 0.739012 0.057451 0.866564
O O10 0.503578 0.154253 0.967465
O O11 0.500000 0.524386 0.250000
O O12 0.411117 0.514315 0.432697
O O13 0.213460 0.586437 0.381103
#
# Coordination Sequence:
#
# PCOD9295803 Si02
#       7
#     8   8   8   4   8   8   4
#     4  10  23  43  69  99 139 188 231 289 359 424
#     4  11  21  44  69  96 135 187 228 280 353 430
#     4  12  24  43  70 103 140 182 239 299 349 428
#     4  12  22  44  72  98 134 190 240 282 354 428
#     4  12  24  42  72 109 140 180 241 304 346 424
#     4  11  22  47  72  91 141 197 228 277 370 428
#     4  12  24  38  68 110 130 172 242 292 340 422
#
# _framework density 21.382171
#
# number of rings (size 3 to 8) (size 9 to 14) (size 15 to 20)
#    0.000    0.667    5.833    4.000    0.000    2.667 
#   10.500    0.833    0.000    0.000    0.000    0.000 
#    0.000    0.000    0.000    0.000    0.000    0.000 
#
# Total GULP energy -133750.603063 kJ/mol
# GULP energy per Si atom -5572.941794 kJ/mol
# Density = 2.133350 g / cm^3
# Si number density = 21.382171 Si / 1000 Ang^3
#
#
#
# Elastic Constant Matrix: (Units=GPa)
#
#
# Indices 1 2 3 4 5 6 
#
# 1 59.2429 14.3756 10.4680 0.0000 18.7337 0.0000
# 2 14.3756 68.1872 13.3299 0.0000 -6.2181 0.0000
# 3 10.4680 13.3299 54.4886 0.0000 11.0081 0.0000
# 4 0.0000 0.0000 0.0000 39.8047 0.0000 -7.9784
# 5 18.7337 -6.2181 11.0081 0.0000 33.3341 0.0000
# 6 0.0000 0.0000 0.0000 -7.9784 0.0000 4.9705
#
#
#
# Elastic Compliance Matrix: (Units=1/GPa)
#
#
# Indices 1 2 3 4 5 6 
#
# 1 0.022753 -0.006046 -0.000087 0.000000 -0.013887 0.000000
# 2 -0.006046 0.017639 -0.004827 0.000000 0.008282 0.000000
# 3 -0.000087 -0.004827 0.021132 0.000000 -0.007830 0.000000
# 4 0.000000 0.000000 0.000000 0.037040 0.000000 0.059455
# 5 -0.013887 0.008282 -0.007830 0.000000 0.041934 0.000000
# 6 0.000000 0.000000 0.000000 0.059455 0.000000 0.296624
#
#
# Mechanical properties :
#
#
# Convention : Reuss Voigt Hill
#
# Bulk Modulus (GPa) = 25.24960 28.69621 26.97291
# Shear Modulus (GPa) = 10.58776 25.20487 17.89632
#
# Velocity S-wave (km/s) = 2.22765 3.43706 2.89619
# Velocity P-wave (km/s) = 4.29545 5.40379 4.88118
#
# Compressibility (1/GPa) = 0.03960459
#
# Stress axis : x y z
#
# Youngs Moduli (GPa) = 43.94953 56.69210 47.32201
#
# Poissons Ratio (x) = 0.34278 0.00410
# Poissons Ratio (y) = 0.26574 0.22842
# Poissons Ratio (z) = 0.00381 0.27364
#
# Static dielectric constant tensor:
#      x y z
#    x 1.773140 0.000000 -0.023650 
#    y 0.000000 1.734390 0.000000 
#    z -0.023650 0.000000 1.822200 
# 
# From -- ./inp_files/190280.got.cif
#   From: 2010.05.17/outbox.cif.g08.bks.cpg/sg15_96_cif.got.tgz:190280.got - 2010.06.03 18:47:42.
