data_PCOD9295792
_publ_section_title
;
Structure prediction by ZEFSAII (Michael W. Deem and Ramdas Pophale) SiO2 
 PCOD9295792
Probable space group: C 2/C
;
_chemical_formula_sum "Si O2"
_cell_formula_units_Z 52
_cell_length_a 24.062957
_cell_length_b 8.982762
_cell_length_c 17.019567
_cell_angle_alpha 90.000000
_cell_angle_beta 41.994415
_cell_angle_gamma 90.000000
_cell_volume 2461.338072
_symmetry_space_group_name_H-M "C 2/C"
_symmetry_group_IT_number 15
_symmetry_cell_setting 'monoclinic'
loop_
_space_group_symop_operation_xyz
x,y,z
-x,y,1/2-z
-x,-y,-z
x,-y,1/2+z
1/2+x,1/2+y,z
1/2-x,1/2+y,1/2-z
1/2-x,1/2-y,-z
1/2+x,1/2-y,1/2+z
loop_
_atom_site_type_symbol
_atom_site_label
_atom_site_fract_x
_atom_site_fract_y
_atom_site_fract_z
Si Si1 0.734310 0.992237 0.857096
Si Si2 0.801804 0.242929 0.866497
Si Si3 0.911592 0.665141 0.557848
Si Si4 0.434583 0.027944 0.179374
Si Si5 0.320920 0.286482 0.991067
Si Si6 0.500000 0.170022 0.750000
Si Si7 0.683777 0.437450 0.889650
O O1 0.800063 0.068536 0.847340
O O2 0.646733 0.077832 0.942536
O O3 0.777173 0.008516 0.728250
O O4 0.707522 0.828478 0.910833
O O5 0.880338 0.351224 0.784111
O O6 0.750208 0.317958 0.850439
O O7 0.750000 0.250000 0.000000
O O8 0.892789 0.592884 0.663520
O O9 0.892916 0.838189 0.561522
O O10 0.005773 0.625487 0.438588
O O11 0.482684 0.931190 0.192416
O O12 0.412919 0.254306 0.859549
O O13 0.250000 0.250000 0.000000
O O14 0.325511 0.446676 0.029276
#
# Coordination Sequence:
#
# PCOD9295792 Si02
#       7
#     8   8   8   8   8   4   8
#     4  11  22  43  71 101 132 183 235 292 351 430
#     4  11  23  41  67 101 133 180 234 287 358 423
#     4  10  23  43  69  98 133 178 238 291 348 415
#     4  11  23  44  69  99 138 185 235 296 354 428
#     4  12  26  47  71 105 149 190 230 298 369 433
#     4  12  26  44  70 102 144 190 232 288 374 436
#     4  11  24  42  69 102 135 180 243 288 350 426
#
# _framework density 21.126719999999999
#
# number of rings (size 3 to 8) (size 9 to 14) (size 15 to 20)
#    0.000    0.923    3.077    4.615    4.308    0.000 
#    5.538    1.538    0.000    0.000    0.000    0.000 
#    0.000    0.000    0.000    0.000    0.000    0.000 
#
# Total GULP energy -144876.316827 kJ/mol
# GULP energy per Si atom -5572.166032 kJ/mol
# Density = 2.107864 g / cm^3
# Si number density = 21.126720 Si / 1000 Ang^3
#
#
#
# Elastic Constant Matrix: (Units=GPa)
#
#
# Indices 1 2 3 4 5 6 
#
# 1 66.1443 24.4319 17.1169 0.0006 -5.0080 -0.0001
# 2 24.4319 99.8056 30.2665 0.0015 -10.4863 0.0000
# 3 17.1169 30.2665 106.5285 0.0006 -6.4505 0.0000
# 4 0.0006 0.0015 0.0006 35.2237 -0.0002 -0.6809
# 5 -5.0080 -10.4863 -6.4505 -0.0002 28.8413 0.0001
# 6 -0.0001 0.0000 0.0000 -0.6809 0.0001 22.4992
#
#
#
# Elastic Compliance Matrix: (Units=1/GPa)
#
#
# Indices 1 2 3 4 5 6 
#
# 1 0.016940 -0.003511 -0.001646 0.000000 0.001297 0.000000
# 2 -0.003511 0.012018 -0.002659 0.000000 0.003165 0.000000
# 3 -0.001646 -0.002659 0.010473 0.000000 0.001090 0.000000
# 4 0.000000 0.000000 0.000000 0.028407 0.000000 0.000860
# 5 0.001297 0.003165 0.001090 0.000000 0.036292 0.000000
# 6 0.000000 0.000000 0.000000 0.000860 0.000000 0.044472
#
#
# Mechanical properties :
#
#
# Convention : Reuss Voigt Hill
#
# Bulk Modulus (GPa) = 42.01867 46.23433 44.12650
# Shear Modulus (GPa) = 29.04183 30.69039 29.86611
#
# Velocity S-wave (km/s) = 3.71165 3.81554 3.76395
# Velocity P-wave (km/s) = 6.18874 6.42985 6.31045
#
# Compressibility (1/GPa) = 0.02379894
#
# Stress axis : x y z
#
# Youngs Moduli (GPa) = 59.03353 83.20955 95.48424
#
# Poissons Ratio (x) = 0.29218 0.15713
# Poissons Ratio (y) = 0.20729 0.25385
# Poissons Ratio (z) = 0.09715 0.22122
#
# Static dielectric constant tensor:
#      x y z
#    x 1.795320 0.000000 -0.056790 
#    y 0.000000 1.994010 0.000000 
#    z -0.056790 0.000000 1.706550 
# 
# From -- ./inp_files/221850.got.cif
#   From: 2010.05.17/outbox.cif.g08.bks.cpg/sg15_111_cif.got.tgz:221850.got - 2010.06.03 18:47:42.
