data_PCOD9295903
_publ_section_title
;
Structure prediction by ZEFSAII (Michael W. Deem and Ramdas Pophale) SiO2 
 PCOD9295903
Probable space group: C 2/C
;
_chemical_formula_sum "Si O2"
_cell_formula_units_Z 48
_cell_length_a 7.832484
_cell_length_b 11.914272
_cell_length_c 24.130928
_cell_angle_alpha 90.000000
_cell_angle_beta 121.697490
_cell_angle_gamma 90.000000
_cell_volume 1915.957860
_symmetry_space_group_name_H-M "C 2/C"
_symmetry_group_IT_number 15
_symmetry_cell_setting 'monoclinic'
loop_
_space_group_symop_operation_xyz
x,y,z
-x,y,1/2-z
-x,-y,-z
x,-y,1/2+z
1/2+x,1/2+y,z
1/2-x,1/2+y,1/2-z
1/2-x,1/2-y,-z
1/2+x,1/2-y,1/2+z
loop_
_atom_site_type_symbol
_atom_site_label
_atom_site_fract_x
_atom_site_fract_y
_atom_site_fract_z
Si Si1 0.121756 0.352223 0.137337
Si Si2 0.597378 0.839437 0.003118
Si Si3 0.260563 0.379310 0.831635
Si Si4 0.211550 0.778190 0.122129
Si Si5 0.834937 0.417657 0.806302
Si Si6 0.439303 0.511635 0.553605
O O1 0.089217 0.327867 0.067232
O O2 0.262996 0.252721 0.182253
O O3 0.207026 0.475259 0.162845
O O4 0.914998 0.332525 0.134992
O O5 0.704486 0.959334 0.012046
O O6 0.750000 0.750000 0.000000
O O7 0.390138 0.807009 0.939292
O O8 0.247206 0.435983 0.769498
O O9 0.468756 0.408721 0.896910
O O10 0.076415 0.412081 0.839726
O O11 0.238048 0.699079 0.179915
O O12 0.055607 0.881683 0.100893
O O13 0.500000 0.500000 0.500000
#
# Coordination Sequence:
#
# PCOD9295903 Si02
#       6
#     8   8   8   8   8   8
#     4  12  26  47  73 108 143 193 246 303 372 437
#     4  10  23  43  72 105 145 186 240 297 371 435
#     4  11  25  47  73 104 149 193 245 302 368 440
#     4  11  24  46  73 106 150 183 248 303 366 438
#     4  11  27  48  72 107 144 199 247 302 367 441
#     4  11  22  44  78 106 149 193 239 305 377 431
#
# _framework density 25.052744000000001
#
# number of rings (size 3 to 8) (size 9 to 14) (size 15 to 20)
#    0.000    1.000    1.667    5.500    4.667    1.333 
#    0.000    0.000    0.000    0.000    0.000    0.000 
#    0.000    0.000    0.000    0.000    0.000    0.000 
#
# Total GULP energy -134433.748673 kJ/mol
# GULP energy per Si atom -5601.406195 kJ/mol
# Density = 2.499572 g / cm^3
# Si number density = 25.052744 Si / 1000 Ang^3
#
#
#
# Elastic Constant Matrix: (Units=GPa)
#
#
# Indices 1 2 3 4 5 6 
#
# 1 80.6043 23.3040 13.7885 0.0000 -3.4688 0.0000
# 2 23.3040 127.2098 11.4521 0.0000 -5.9887 0.0000
# 3 13.7885 11.4521 51.5621 0.0000 -9.0819 0.0000
# 4 0.0000 0.0000 0.0000 31.8908 0.0000 -7.1060
# 5 -3.4688 -5.9887 -9.0819 0.0000 34.5800 0.0000
# 6 0.0000 0.0000 0.0000 -7.1060 0.0000 41.7944
#
#
#
# Elastic Compliance Matrix: (Units=1/GPa)
#
#
# Indices 1 2 3 4 5 6 
#
# 1 0.013582 -0.002200 -0.003115 0.000000 0.000163 0.000000
# 2 -0.002200 0.008409 -0.001113 0.000000 0.000943 0.000000
# 3 -0.003115 -0.001113 0.021374 0.000000 0.005108 0.000000
# 4 0.000000 0.000000 0.000000 0.032592 0.000000 0.005541
# 5 0.000163 0.000943 0.005108 0.000000 0.030440 0.000000
# 6 0.000000 0.000000 0.000000 0.005541 0.000000 0.024869
#
#
# Mechanical properties :
#
#
# Convention : Reuss Voigt Hill
#
# Bulk Modulus (GPa) = 32.77705 39.60726 36.19215
# Shear Modulus (GPa) = 32.40638 35.70850 34.05744
#
# Velocity S-wave (km/s) = 3.60046 3.77945 3.69104
# Velocity P-wave (km/s) = 5.51326 5.90674 5.71339
#
# Compressibility (1/GPa) = 0.03050915
#
# Stress axis : x y z
#
# Youngs Moduli (GPa) = 73.62577 118.92473 46.78581
#
# Poissons Ratio (x) = 0.26164 0.14572
# Poissons Ratio (y) = 0.16198 0.05208
# Poissons Ratio (z) = 0.22932 0.13238
#
# Static dielectric constant tensor:
#      x y z
#    x 2.010130 0.000000 0.014700 
#    y 0.000000 2.082400 0.000000 
#    z 0.014700 0.000000 1.956310 
# 
# From -- ./inp_files/287778.got.cif
#   From: 2010.05.17/outbox.cif.g08.bks.cpg/sg15_144_cif.got.tgz:287778.got - 2010.06.03 18:47:42.
