data_PCOD9295799
_publ_section_title
;
Structure prediction by ZEFSAII (Michael W. Deem and Ramdas Pophale) SiO2 
 PCOD9295799
Probable space group: C 2/C
;
_chemical_formula_sum "Si O2"
_cell_formula_units_Z 48
_cell_length_a 17.076087
_cell_length_b 21.178781
_cell_length_c 13.632601
_cell_angle_alpha 90.000000
_cell_angle_beta 155.564418
_cell_angle_gamma 90.000000
_cell_volume 2039.491828
_symmetry_space_group_name_H-M "C 2/C"
_symmetry_group_IT_number 15
_symmetry_cell_setting 'monoclinic'
loop_
_space_group_symop_operation_xyz
x,y,z
-x,y,1/2-z
-x,-y,-z
x,-y,1/2+z
1/2+x,1/2+y,z
1/2-x,1/2+y,1/2-z
1/2-x,1/2-y,-z
1/2+x,1/2-y,1/2+z
loop_
_atom_site_type_symbol
_atom_site_label
_atom_site_fract_x
_atom_site_fract_y
_atom_site_fract_z
Si Si1 0.263809 0.332492 0.709321
Si Si2 0.207917 0.020698 0.539831
Si Si3 0.500000 0.105400 0.750000
Si Si4 0.430253 0.210072 0.958202
Si Si5 0.000000 0.285149 0.750000
Si Si6 0.645258 0.593745 0.664195
Si Si7 0.292353 0.605121 0.547005
O O1 0.135350 0.353200 0.472672
O O2 0.364801 0.264848 0.810543
O O3 0.121003 0.321571 0.636844
O O4 0.428238 0.383340 0.914271
O O5 0.361332 0.063861 0.659988
O O6 0.184245 0.043227 0.624272
O O7 0.277099 0.948709 0.605945
O O8 0.000000 0.025192 0.250000
O O9 0.273790 0.155721 0.789850
O O10 0.457981 0.243741 0.096039
O O11 0.829260 0.332772 0.579954
O O12 0.696234 0.573147 0.832269
O O13 0.500000 0.623207 0.750000
#
# Coordination Sequence:
#
# PCOD9295799 Si02
#       7
#     8   8   4   8   4   8   8
#     4  12  24  43  68  98 133 176 223 270 337 391
#     4  11  23  43  68  98 130 173 223 270 338 388
#     4  12  25  42  68  98 134 174 225 280 328 394
#     4  11  24  43  67 101 132 178 223 271 333 400
#     4  10  23  46  66  96 144 170 215 280 332 394
#     4  11  23  45  67  97 140 170 219 282 324 396
#     4  10  23  43  69  99 132 175 223 269 335 391
#
# _framework density 23.535274000000001
#
# number of rings (size 3 to 8) (size 9 to 14) (size 15 to 20)
#    0.000    1.000    5.000    1.500    0.000    4.000 
#    6.000    2.500    0.000    0.000    0.000    0.000 
#    0.000    0.000    0.000    0.000    0.000    0.000 
#
# Total GULP energy -134461.654741 kJ/mol
# GULP energy per Si atom -5602.568948 kJ/mol
# Density = 2.348171 g / cm^3
# Si number density = 23.535274 Si / 1000 Ang^3
#
#
#
# Elastic Constant Matrix: (Units=GPa)
#
#
# Indices 1 2 3 4 5 6 
#
# 1 111.7534 23.4379 29.8960 0.0000 24.3174 0.0000
# 2 23.4379 73.6135 24.2360 0.0000 0.5752 0.0000
# 3 29.8960 24.2360 79.9794 0.0000 11.7089 0.0000
# 4 0.0000 0.0000 0.0000 26.9656 0.0000 -9.5938
# 5 24.3174 0.5752 11.7089 0.0000 34.5788 0.0000
# 6 0.0000 0.0000 0.0000 -9.5938 0.0000 27.1669
#
#
#
# Elastic Compliance Matrix: (Units=1/GPa)
#
#
# Indices 1 2 3 4 5 6 
#
# 1 0.011833 -0.002901 -0.002454 0.000000 -0.007442 0.000000
# 2 -0.002901 0.015863 -0.004190 0.000000 0.003195 0.000000
# 3 -0.002454 -0.004190 0.015180 0.000000 -0.003344 0.000000
# 4 0.000000 0.000000 0.000000 0.042413 0.000000 0.014978
# 5 -0.007442 0.003195 -0.003344 0.000000 0.035232 0.000000
# 6 0.000000 0.000000 0.000000 0.014978 0.000000 0.042099
#
#
# Mechanical properties :
#
#
# Convention : Reuss Voigt Hill
#
# Bulk Modulus (GPa) = 42.04519 46.72069 44.38294
# Shear Modulus (GPa) = 26.36588 30.26070 28.31329
#
# Velocity S-wave (km/s) = 3.35068 3.58964 3.47221
# Velocity P-wave (km/s) = 5.73349 6.08893 5.91388
#
# Compressibility (1/GPa) = 0.02378393
#
# Stress axis : x y z
#
# Youngs Moduli (GPa) = 84.51170 63.04074 65.87604
#
# Poissons Ratio (x) = 0.18289 0.16168
# Poissons Ratio (y) = 0.24519 0.27603
# Poissons Ratio (z) = 0.20742 0.26415
#
# Static dielectric constant tensor:
#      x y z
#    x 1.899320 0.000000 0.058080 
#    y 0.000000 1.901570 0.000000 
#    z 0.058080 0.000000 1.987680 
# 
# From -- ./inp_files/101416.got.cif
#   From: 2010.05.17/outbox.cif.g08.bks.cpg/sg15_51_cif.got.tgz:101416.got - 2010.06.03 18:47:42.
