data_PCOD9295487
_publ_section_title
;
Structure prediction by ZEFSAII (Michael W. Deem and Ramdas Pophale) SiO2 
 PCOD9295487
Probable space group: C 2/C
;
_chemical_formula_sum "Si O2"
_cell_formula_units_Z 40
_cell_length_a 11.545672
_cell_length_b 14.870950
_cell_length_c 13.554371
_cell_angle_alpha 90.000000
_cell_angle_beta 136.534030
_cell_angle_gamma 90.000000
_cell_volume 1600.949100
_symmetry_space_group_name_H-M "C 2/C"
_symmetry_group_IT_number 15
_symmetry_cell_setting 'monoclinic'
loop_
_space_group_symop_operation_xyz
x,y,z
-x,y,1/2-z
-x,-y,-z
x,-y,1/2+z
1/2+x,1/2+y,z
1/2-x,1/2+y,1/2-z
1/2-x,1/2-y,-z
1/2+x,1/2-y,1/2+z
loop_
_atom_site_type_symbol
_atom_site_label
_atom_site_fract_x
_atom_site_fract_y
_atom_site_fract_z
Si Si1 0.538802 0.565181 0.655996
Si Si2 0.189472 0.396096 0.891667
Si Si3 0.316982 0.005972 0.928257
Si Si4 0.755994 0.257724 0.279818
Si Si5 0.147444 0.684019 0.007528
O O1 0.500000 0.555617 0.750000
O O2 0.369936 0.552824 0.490009
O O3 0.697608 0.500041 0.758885
O O4 0.620166 0.662032 0.688198
O O5 0.218849 0.302122 0.853995
O O6 0.000000 0.428737 0.750000
O O7 0.187692 0.402015 0.010359
O O8 0.305041 0.918573 0.990374
O O9 0.500000 0.000000 0.000000
O O10 0.716467 0.197422 0.160279
O O11 0.947557 0.294133 0.386155
O O12 0.250000 0.750000 0.000000
#
# Coordination Sequence:
#
# PCOD9295487 Si02
#       5
#     8   8   8   8   8
#     4  10  23  42  75 108 148 194 249 308 374 449
#     4  11  25  43  75 116 145 192 255 315 374 445
#     4  11  24  49  74 108 155 199 244 313 380 458
#     4  12  24  47  75 109 149 201 255 313 379 458
#     4  12  28  49  75 107 154 201 253 315 393 457
#
# _framework density 24.98518
#
# number of rings (size 3 to 8) (size 9 to 14) (size 15 to 20)
#    0.000    0.800    4.000    2.400    2.800   10.400 
#    3.600    5.000    0.000    0.000    0.000    0.000 
#    0.000    0.000    0.000    0.000    0.000    0.000 
#
# Total GULP energy -111513.531011 kJ/mol
# GULP energy per Si atom -5575.676551 kJ/mol
# Density = 2.492831 g / cm^3
# Si number density = 24.985180 Si / 1000 Ang^3
#
#
#
# Elastic Constant Matrix: (Units=GPa)
#
#
# Indices 1 2 3 4 5 6 
#
# 1 82.0167 39.5659 50.2359 0.0000 1.4415 0.0000
# 2 39.5659 105.2248 39.3539 0.0000 -3.7543 0.0000
# 3 50.2359 39.3539 229.4086 0.0001 53.6378 0.0000
# 4 0.0000 0.0000 0.0001 19.8935 0.0000 3.7524
# 5 1.4415 -3.7543 53.6378 0.0000 46.4071 0.0000
# 6 0.0000 0.0000 0.0000 3.7524 0.0000 38.2112
#
#
#
# Elastic Compliance Matrix: (Units=1/GPa)
#
#
# Indices 1 2 3 4 5 6 
#
# 1 0.016644 -0.004806 -0.003574 0.000000 0.003225 0.000000
# 2 -0.004806 0.012081 -0.001759 0.000000 0.003159 0.000000
# 3 -0.003574 -0.001759 0.007469 0.000000 -0.008664 0.000000
# 4 0.000000 0.000000 0.000000 0.051216 0.000000 -0.005030
# 5 0.003225 0.003159 -0.008664 0.000000 0.031718 0.000000
# 6 0.000000 0.000000 0.000000 -0.005030 0.000000 0.026664
#
#
# Mechanical properties :
#
#
# Convention : Reuss Voigt Hill
#
# Bulk Modulus (GPa) = 62.83160 74.99573 68.91366
# Shear Modulus (GPa) = 29.17547 40.06866 34.62206
#
# Velocity S-wave (km/s) = 3.42089 4.00896 3.72654
# Velocity P-wave (km/s) = 6.38791 7.17707 6.79396
#
# Compressibility (1/GPa) = 0.01591556
#
# Stress axis : x y z
#
# Youngs Moduli (GPa) = 60.08197 82.77328 133.88358
#
# Poissons Ratio (x) = 0.39785 0.47854
# Poissons Ratio (y) = 0.28878 0.23545
# Poissons Ratio (z) = 0.21475 0.14557
#
# Static dielectric constant tensor:
#      x y z
#    x 2.281510 0.000000 0.358580 
#    y 0.000000 2.151400 0.000000 
#    z 0.358580 0.000000 2.477990 
# 
# From -- ./inp_files/145881.got.cif
#   From: 2010.05.17/outbox.cif.g08.bks.cpg/sg15_73_cif.got.tgz:145881.got - 2010.06.03 18:47:42.
