data_PCOD9295939
_publ_section_title
;
Structure prediction by ZEFSAII (Michael W. Deem and Ramdas Pophale) SiO2 
 PCOD9295939
Probable space group: C 2/C
;
_chemical_formula_sum "Si O2"
_cell_formula_units_Z 44
_cell_length_a 22.265060
_cell_length_b 5.262500
_cell_length_c 16.856039
_cell_angle_alpha 90.000000
_cell_angle_beta 74.536611
_cell_angle_gamma 90.000000
_cell_volume 1903.526321
_symmetry_space_group_name_H-M "C 2/C"
_symmetry_group_IT_number 15
_symmetry_cell_setting 'monoclinic'
loop_
_space_group_symop_operation_xyz
x,y,z
-x,y,1/2-z
-x,-y,-z
x,-y,1/2+z
1/2+x,1/2+y,z
1/2-x,1/2+y,1/2-z
1/2-x,1/2-y,-z
1/2+x,1/2-y,1/2+z
loop_
_atom_site_type_symbol
_atom_site_label
_atom_site_fract_x
_atom_site_fract_y
_atom_site_fract_z
Si Si1 0.884416 0.303876 0.857758
Si Si2 0.010692 0.617801 0.619087
Si Si3 0.353251 0.274258 0.549320
Si Si4 0.500000 0.510925 0.250000
Si Si5 0.262067 0.825253 0.798692
Si Si6 0.070600 0.264126 0.938319
O O1 0.921579 0.559148 0.868508
O O2 0.830667 0.336907 0.812533
O O3 0.858518 0.202081 0.951782
O O4 0.940246 0.136638 0.803082
O O5 0.976243 0.804037 0.688964
O O6 0.023529 0.740178 0.529544
O O7 0.971896 0.359750 0.619145
O O8 0.285193 0.293497 0.610808
O O9 0.392132 0.504616 0.574691
O O10 0.383190 0.002764 0.562213
O O11 0.253498 0.581152 0.744627
#
# Coordination Sequence:
#
# PCOD9295939 Si02
#       6
#     8   8   8   4   8   8
#     4  11  27  47  73 107 149 195 243 298 376 433
#     4  10  24  41  68 110 150 189 232 305 355 448
#     4  11  24  48  77 107 147 197 241 300 361 447
#     4  12  24  42  72 104 150 188 242 300 366 436
#     4  12  30  50  75 108 144 194 253 314 359 426
#     4  10  23  43  74 108 147 186 243 286 374 428
#
# _framework density 23.114995
#
# number of rings (size 3 to 8) (size 9 to 14) (size 15 to 20)
#    0.000    1.091    1.818    2.182    7.636    5.091 
#    0.000    4.545    0.000    0.000    0.000    0.000 
#    0.000    0.000    0.000    0.000    0.000    0.000 
#
# Total GULP energy -123192.352422 kJ/mol
# GULP energy per Si atom -5599.652383 kJ/mol
# Density = 2.306238 g / cm^3
# Si number density = 23.114995 Si / 1000 Ang^3
#
#
#
# Elastic Constant Matrix: (Units=GPa)
#
#
# Indices 1 2 3 4 5 6 
#
# 1 139.2265 40.6910 57.9580 0.0000 33.5150 0.0000
# 2 40.6910 114.1096 36.4229 0.0000 15.5288 0.0000
# 3 57.9580 36.4229 124.0111 0.0000 -8.2954 0.0000
# 4 0.0000 0.0000 0.0000 31.2308 0.0000 -3.3167
# 5 33.5150 15.5288 -8.2954 0.0000 46.8718 0.0000
# 6 0.0000 0.0000 0.0000 -3.3167 0.0000 24.5818
#
#
#
# Elastic Compliance Matrix: (Units=1/GPa)
#
#
# Indices 1 2 3 4 5 6 
#
# 1 0.012333 -0.001172 -0.006055 0.000000 -0.009502 0.000000
# 2 -0.001172 0.010480 -0.002739 0.000000 -0.003119 0.000000
# 3 -0.006055 -0.002739 0.012193 0.000000 0.007395 0.000000
# 4 0.000000 0.000000 0.000000 0.032485 0.000000 0.004383
# 5 -0.009502 -0.003119 0.007395 0.000000 0.030471 0.000000
# 6 0.000000 0.000000 0.000000 0.004383 0.000000 0.041272
#
#
# Mechanical properties :
#
#
# Convention : Reuss Voigt Hill
#
# Bulk Modulus (GPa) = 66.34153 71.94344 69.14248
# Shear Modulus (GPa) = 30.45214 36.68857 33.57036
#
# Velocity S-wave (km/s) = 3.63356 3.98831 3.81507
# Velocity P-wave (km/s) = 6.80931 7.23882 7.02735
#
# Compressibility (1/GPa) = 0.01507351
#
# Stress axis : x y z
#
# Youngs Moduli (GPa) = 81.08150 95.41880 82.01413
#
# Poissons Ratio (x) = 0.11183 0.49663
# Poissons Ratio (y) = 0.09503 0.22463
# Poissons Ratio (z) = 0.49099 0.26135
#
# Static dielectric constant tensor:
#      x y z
#    x 1.854870 0.000000 0.018260 
#    y 0.000000 1.886620 0.000000 
#    z 0.018260 0.000000 1.903930 
# 
# From -- ./inp_files/212888.got.cif
#   From: 2010.05.17/outbox.cif.g08.bks.cpg/sg15_107_cif.got.tgz:212888.got - 2010.06.03 18:47:42.
