data_PCOD9295146
_publ_section_title
;
Structure prediction by ZEFSAII (Michael W. Deem and Ramdas Pophale) SiO2 
 PCOD9295146
Probable space group: C 2/C
;
_chemical_formula_sum "Si O2"
_cell_formula_units_Z 48
_cell_length_a 9.334977
_cell_length_b 15.229249
_cell_length_c 14.216986
_cell_angle_alpha 90.000000
_cell_angle_beta 90.355711
_cell_angle_gamma 90.000000
_cell_volume 2021.114444
_symmetry_space_group_name_H-M "C 2/C"
_symmetry_group_IT_number 15
_symmetry_cell_setting 'monoclinic'
loop_
_space_group_symop_operation_xyz
x,y,z
-x,y,1/2-z
-x,-y,-z
x,-y,1/2+z
1/2+x,1/2+y,z
1/2-x,1/2+y,1/2-z
1/2-x,1/2-y,-z
1/2+x,1/2-y,1/2+z
loop_
_atom_site_type_symbol
_atom_site_label
_atom_site_fract_x
_atom_site_fract_y
_atom_site_fract_z
Si Si1 0.500000 0.550933 0.750000
Si Si2 0.099463 0.672463 0.460626
Si Si3 0.000000 0.708095 0.750000
Si Si4 0.742037 0.891165 0.145647
Si Si5 0.689572 0.440121 0.620199
Si Si6 0.446353 0.680234 0.059550
Si Si7 0.819222 0.562746 0.465721
O O1 0.593027 0.608441 0.822333
O O2 0.621600 0.487423 0.708378
O O3 0.204322 0.664635 0.551706
O O4 0.200192 0.642466 0.374081
O O5 0.005791 0.758664 0.476578
O O6 0.979296 0.597386 0.470588
O O7 0.136039 0.647825 0.723733
O O8 0.035353 0.767115 0.841733
O O9 0.701403 0.990271 0.115439
O O10 0.550316 0.403612 0.565976
O O11 0.768387 0.513920 0.559813
O O12 0.287394 0.644358 0.048455
#
# Coordination Sequence:
#
# PCOD9295146 Si02
#       7
#     4   8   4   8   8   8   8
#     4  12  25  38  70  97 128 174 230 284 323 386
#     4  10  24  43  67  99 133 175 217 277 339 393
#     4  10  25  44  66  95 144 176 216 282 345 388
#     4  10  23  42  65  96 128 177 221 273 330 393
#     4  11  23  42  66  97 131 175 229 266 331 401
#     4  11  22  42  66 100 138 175 213 277 339 395
#     4  11  23  43  72 100 128 177 230 272 324 408
#
# _framework density 23.749275000000001
#
# number of rings (size 3 to 8) (size 9 to 14) (size 15 to 20)
#    0.000    1.333    1.667    4.000    9.333    0.000 
#    0.000    0.000    0.000    0.000    0.000    0.000 
#    0.000    0.000    0.000    0.000    0.000    0.000 
#
# Total GULP energy -134201.220192 kJ/mol
# GULP energy per Si atom -5591.717508 kJ/mol
# Density = 2.369522 g / cm^3
# Si number density = 23.749275 Si / 1000 Ang^3
#
#
#
# Elastic Constant Matrix: (Units=GPa)
#
#
# Indices 1 2 3 4 5 6 
#
# 1 124.3859 35.2794 44.5309 0.0000 -14.2693 0.0000
# 2 35.2794 96.7913 40.7045 0.0000 -8.9155 0.0000
# 3 44.5309 40.7045 69.0820 0.0000 -21.9236 0.0000
# 4 0.0000 0.0000 0.0000 31.7451 0.0000 -13.3458
# 5 -14.2693 -8.9155 -21.9236 0.0000 38.4417 0.0000
# 6 0.0000 0.0000 0.0000 -13.3458 0.0000 42.4051
#
#
#
# Elastic Compliance Matrix: (Units=1/GPa)
#
#
# Indices 1 2 3 4 5 6 
#
# 1 0.010577 -0.001325 -0.005969 0.000000 0.000215 0.000000
# 2 -0.001325 0.013998 -0.007960 0.000000 -0.001785 0.000000
# 3 -0.005969 -0.007960 0.026525 0.000000 0.011066 0.000000
# 4 0.000000 0.000000 0.000000 0.036304 0.000000 0.011426
# 5 0.000215 -0.001785 0.011066 0.000000 0.031990 0.000000
# 6 0.000000 0.000000 0.000000 0.011426 0.000000 0.027178
#
#
# Mechanical properties :
#
#
# Convention : Reuss Voigt Hill
#
# Bulk Modulus (GPa) = 48.56419 59.03207 53.79813
# Shear Modulus (GPa) = 27.18216 33.83468 30.50842
#
# Velocity S-wave (km/s) = 3.38679 3.77856 3.58803
# Velocity P-wave (km/s) = 5.98221 6.62926 6.31403
#
# Compressibility (1/GPa) = 0.02059130
#
# Stress axis : x y z
#
# Youngs Moduli (GPa) = 94.54536 71.44105 37.69995
#
# Poissons Ratio (x) = 0.09467 0.22503
# Poissons Ratio (y) = 0.12529 0.30009
# Poissons Ratio (z) = 0.56435 0.56867
#
# Static dielectric constant tensor:
#      x y z
#    x 1.847620 0.000000 -0.010900 
#    y 0.000000 1.996220 0.000000 
#    z -0.010900 0.000000 1.964610 
# 
# From -- ./inp_files/189295.got.cif
#   From: 2010.05.17/outbox.cif.g08.bks.cpg/sg15_95_cif.got.tgz:189295.got - 2010.06.03 18:47:42.
