data_PCOD9295401
_publ_section_title
;
Structure prediction by ZEFSAII (Michael W. Deem and Ramdas Pophale) SiO2 
 PCOD9295401
Probable space group: C 2/C
;
_chemical_formula_sum "Si O2"
_cell_formula_units_Z 52
_cell_length_a 26.393137
_cell_length_b 6.644127
_cell_length_c 16.553336
_cell_angle_alpha 90.000000
_cell_angle_beta 53.661665
_cell_angle_gamma 90.000000
_cell_volume 2338.284047
_symmetry_space_group_name_H-M "C 2/C"
_symmetry_group_IT_number 15
_symmetry_cell_setting 'monoclinic'
loop_
_space_group_symop_operation_xyz
x,y,z
-x,y,1/2-z
-x,-y,-z
x,-y,1/2+z
1/2+x,1/2+y,z
1/2-x,1/2+y,1/2-z
1/2-x,1/2-y,-z
1/2+x,1/2-y,1/2+z
loop_
_atom_site_type_symbol
_atom_site_label
_atom_site_fract_x
_atom_site_fract_y
_atom_site_fract_z
Si Si1 0.681012 0.865074 0.966473
Si Si2 0.105180 0.722675 0.685606
Si Si3 0.970317 0.939474 0.156680
Si Si4 0.092695 0.103452 0.955020
Si Si5 0.000000 0.593761 0.250000
Si Si6 0.801435 0.769247 0.608418
Si Si7 0.206996 0.610324 0.706164
O O1 0.628521 0.802764 0.949996
O O2 0.747462 0.780548 0.874204
O O3 0.684152 0.104475 0.972812
O O4 0.658957 0.751603 0.067875
O O5 0.067698 0.922950 0.744125
O O6 0.138416 0.639855 0.734634
O O7 0.059236 0.554364 0.693311
O O8 0.926741 0.894415 0.120183
O O9 0.993817 0.738941 0.178581
O O10 0.029927 0.063320 0.066082
O O11 0.142057 0.924554 0.927743
O O12 0.791615 0.642460 0.699612
O O13 0.739318 0.900308 0.652597
#
# Coordination Sequence:
#
# PCOD9295401 Si02
#       7
#     8   8   8   8   4   8   8
#     4  11  24  42  67  98 137 173 222 275 335 402
#     4  12  26  45  66  99 138 179 216 282 341 398
#     4  11  24  44  68  96 134 175 228 278 334 395
#     4  10  23  42  70  98 127 179 223 278 331 398
#     4  12  26  40  66  96 134 176 222 274 334 400
#     4  11  22  42  68 101 134 172 229 277 326 405
#     4  11  24  41  68  97 132 180 222 277 336 393
#
# _framework density 22.238531999999999
#
# number of rings (size 3 to 8) (size 9 to 14) (size 15 to 20)
#    0.000    0.923    3.077    3.692    2.154    3.077 
#    0.000    3.846    0.000    0.000    0.000    0.000 
#    0.000    0.000    0.000    0.000    0.000    0.000 
#
# Total GULP energy -145544.127016 kJ/mol
# GULP energy per Si atom -5597.851039 kJ/mol
# Density = 2.218792 g / cm^3
# Si number density = 22.238532 Si / 1000 Ang^3
#
#
#
# Elastic Constant Matrix: (Units=GPa)
#
#
# Indices 1 2 3 4 5 6 
#
# 1 70.0527 13.5524 -11.7164 0.0000 1.5998 -0.0001
# 2 13.5524 66.7880 -11.6954 0.0005 5.7291 0.0007
# 3 -11.7164 -11.6954 48.5405 -0.0004 4.5245 0.0002
# 4 0.0000 0.0005 -0.0004 30.8733 -0.0001 -7.6499
# 5 1.5998 5.7291 4.5245 -0.0001 25.0033 0.0002
# 6 -0.0001 0.0007 0.0002 -7.6499 0.0002 26.6589
#
#
#
# Elastic Compliance Matrix: (Units=1/GPa)
#
#
# Indices 1 2 3 4 5 6 
#
# 1 0.015308 -0.002462 0.003194 0.000000 -0.000993 0.000000
# 2 -0.002462 0.016505 0.003784 0.000000 -0.004309 -0.000001
# 3 0.003194 0.003784 0.022768 0.000000 -0.005192 0.000000
# 4 0.000000 0.000000 0.000000 0.034870 0.000000 0.010006
# 5 -0.000993 -0.004309 -0.005192 0.000000 0.041985 0.000000
# 6 0.000000 -0.000001 0.000000 0.010006 0.000000 0.040382
#
#
# Mechanical properties :
#
#
# Convention : Reuss Voigt Hill
#
# Bulk Modulus (GPa) = 15.71969 18.40695 17.06332
# Shear Modulus (GPa) = 27.17555 29.52314 28.34934
#
# Velocity S-wave (km/s) = 3.49951 3.64753 3.57429
# Velocity P-wave (km/s) = 4.83867 5.10239 4.97228
#
# Compressibility (1/GPa) = 0.06361448
#
# Stress axis : x y z
#
# Youngs Moduli (GPa) = 65.32459 60.58938 43.92122
#
# Poissons Ratio (x) = 0.14915 -0.14030
# Poissons Ratio (y) = 0.16081 -0.16620
# Poissons Ratio (z) = -0.20868 -0.22928
#
# Static dielectric constant tensor:
#      x y z
#    x 1.823370 0.000000 0.027540 
#    y 0.000000 1.797820 0.000000 
#    z 0.027540 0.000000 1.837710 
# 
# From -- ./inp_files/221160.got.cif
#   From: 2010.05.17/outbox.cif.g08.bks.cpg/sg15_111_cif.got.tgz:221160.got - 2010.06.03 18:47:42.
