data_PCOD9295752
_publ_section_title
;
Structure prediction by ZEFSAII (Michael W. Deem and Ramdas Pophale) SiO2 
 PCOD9295752
Probable space group: C 2/C
;
_chemical_formula_sum "Si O2"
_cell_formula_units_Z 64
_cell_length_a 13.783506
_cell_length_b 28.413186
_cell_length_c 9.109146
_cell_angle_alpha 90.000000
_cell_angle_beta 49.401661
_cell_angle_gamma 90.000000
_cell_volume 2708.725997
_symmetry_space_group_name_H-M "C 2/C"
_symmetry_group_IT_number 15
_symmetry_cell_setting 'monoclinic'
loop_
_space_group_symop_operation_xyz
x,y,z
-x,y,1/2-z
-x,-y,-z
x,-y,1/2+z
1/2+x,1/2+y,z
1/2-x,1/2+y,1/2-z
1/2-x,1/2-y,-z
1/2+x,1/2-y,1/2+z
loop_
_atom_site_type_symbol
_atom_site_label
_atom_site_fract_x
_atom_site_fract_y
_atom_site_fract_z
Si Si1 0.506219 0.108576 0.916621
Si Si2 0.229234 0.589369 0.880458
Si Si3 0.578105 0.217489 0.827205
Si Si4 0.630141 0.586651 0.034200
Si Si5 0.774035 0.173306 0.034320
Si Si6 0.220775 0.898852 0.743320
Si Si7 0.866149 0.024793 0.963122
Si Si8 0.647789 0.737393 0.800224
O O1 0.500000 0.098693 0.750000
O O2 0.612999 0.077799 0.889837
O O3 0.549166 0.163048 0.894178
O O4 0.371083 0.099526 0.125195
O O5 0.343122 0.604083 0.655256
O O6 0.202369 0.633495 0.010543
O O7 0.265725 0.546725 0.949239
O O8 0.500000 0.222392 0.750000
O O9 0.731378 0.225668 0.706409
O O10 0.495604 0.255036 0.001213
O O11 0.500000 0.595685 0.250000
O O12 0.721137 0.608539 0.068224
O O13 0.646477 0.530522 0.004407
O O14 0.851598 0.201161 0.834624
O O15 0.838010 0.143125 0.101915
O O16 0.686112 0.211879 0.196921
O O17 0.150716 0.946269 0.868380
O O18 0.000000 0.034243 0.750000
#
# Coordination Sequence:
#
# PCOD9295752 Si02
#       8
#     8   8   8   8   8   8   8   8
#     4  11  22  42  69  94 137 178 224 274 339 397
#     4  11  22  42  67  98 130 178 225 270 340 404
#     4  11  24  44  72  97 137 182 225 278 343 396
#     4  11  23  44  69  95 132 177 222 280 344 399
#     4  10  24  41  65  96 133 172 223 273 333 400
#     4  11  22  42  67  98 130 178 225 270 340 404
#     4  10  23  43  68  99 137 173 219 281 341 414
#     4  11  23  46  66  99 136 181 224 279 336 405
#
# _framework density 23.627344999999998
#
# number of rings (size 3 to 8) (size 9 to 14) (size 15 to 20)
#    0.000    1.250    3.750    1.875    0.000    7.000 
#   15.750    3.750    0.000    0.000    0.000    0.000 
#    0.000    0.000    0.000    0.000    0.000    0.000 
#
# Total GULP energy -178654.459146 kJ/mol
# GULP energy per Si atom -5582.951848 kJ/mol
# Density = 2.357357 g / cm^3
# Si number density = 23.627345 Si / 1000 Ang^3
#
#
#
# Elastic Constant Matrix: (Units=GPa)
#
#
# Indices 1 2 3 4 5 6 
#
# 1 84.9454 13.4041 16.4611 0.0000 -2.4597 0.0000
# 2 13.4041 34.3935 3.0746 0.0000 1.3298 0.0000
# 3 16.4611 3.0746 52.1976 0.0000 14.7070 0.0000
# 4 0.0000 0.0000 0.0000 29.8388 0.0000 7.9041
# 5 -2.4597 1.3298 14.7070 0.0000 40.3146 0.0000
# 6 0.0000 0.0000 0.0000 7.9041 0.0000 16.8714
#
#
#
# Elastic Compliance Matrix: (Units=1/GPa)
#
#
# Indices 1 2 3 4 5 6 
#
# 1 0.013555 -0.004963 -0.004750 0.000000 0.002723 0.000000
# 2 -0.004963 0.031052 0.000123 0.000000 -0.001372 0.000000
# 3 -0.004750 0.000123 0.023106 0.000000 -0.008723 0.000000
# 4 0.000000 0.000000 0.000000 0.038262 0.000000 -0.017925
# 5 0.002723 -0.001372 -0.008723 0.000000 0.028199 0.000000
# 6 0.000000 0.000000 0.000000 -0.017925 0.000000 0.067670
#
#
# Mechanical properties :
#
#
# Convention : Reuss Voigt Hill
#
# Bulk Modulus (GPa) = 20.60479 26.37956 23.49218
# Shear Modulus (GPa) = 21.07920 26.64473 23.86196
#
# Velocity S-wave (km/s) = 2.99013 3.36178 3.18139
# Velocity P-wave (km/s) = 4.54542 5.12424 4.84348
#
# Compressibility (1/GPa) = 0.04853240
#
# Stress axis : x y z
#
# Youngs Moduli (GPa) = 73.77493 32.20431 43.27801
#
# Poissons Ratio (x) = 0.15984 0.20555
# Poissons Ratio (y) = 0.36617 -0.00531
# Poissons Ratio (z) = 0.35040 -0.00395
#
# Static dielectric constant tensor:
#      x y z
#    x 2.064070 0.000000 -0.003920 
#    y 0.000000 1.868070 0.000000 
#    z -0.003920 0.000000 1.954310 
# 
# From -- ./inp_files/44841.got.cif
#   From: 2010.05.17/outbox.cif.g08.bks.cpg/sg15_23_cif.got.tgz:44841.got - 2010.06.03 18:47:42.
