data_PCOD9295324
_publ_section_title
;
Structure prediction by ZEFSAII (Michael W. Deem and Ramdas Pophale) SiO2 
 PCOD9295324
Probable space group: C 2/C
;
_chemical_formula_sum "Si O2"
_cell_formula_units_Z 32
_cell_length_a 7.419427
_cell_length_b 18.255786
_cell_length_c 14.229797
_cell_angle_alpha 90.000000
_cell_angle_beta 40.820797
_cell_angle_gamma 90.000000
_cell_volume 1259.925862
_symmetry_space_group_name_H-M "C 2/C"
_symmetry_group_IT_number 15
_symmetry_cell_setting 'monoclinic'
loop_
_space_group_symop_operation_xyz
x,y,z
-x,y,1/2-z
-x,-y,-z
x,-y,1/2+z
1/2+x,1/2+y,z
1/2-x,1/2+y,1/2-z
1/2-x,1/2-y,-z
1/2+x,1/2-y,1/2+z
loop_
_atom_site_type_symbol
_atom_site_label
_atom_site_fract_x
_atom_site_fract_y
_atom_site_fract_z
Si Si1 0.458085 0.940668 0.867275
Si Si2 0.223664 0.721911 0.407545
Si Si3 0.000000 0.919625 0.750000
Si Si4 0.009318 0.834893 0.133713
Si Si5 0.500000 0.922975 0.250000
O O1 0.500000 0.900042 0.750000
O O2 0.769680 0.958901 0.779898
O O3 0.346303 0.020441 0.882408
O O4 0.259577 0.890581 0.008327
O O5 0.500000 0.747014 0.250000
O O6 0.250000 0.750000 0.500000
O O7 0.286378 0.635344 0.387187
O O8 0.001664 0.763176 0.431170
O O9 0.731842 0.878614 0.213986
O O10 0.000000 0.818574 0.250000
#
# Coordination Sequence:
#
# PCOD9295324 Si02
#       5
#     8   8   4   8   4
#     4  10  25  42  69  99 141 190 232 284 357 419
#     4  10  24  45  71  97 147 179 229 301 350 415
#     4  10  23  42  68  98 137 180 238 286 350 412
#     4  12  26  45  74 108 138 190 242 292 354 418
#     4  10  25  48  70 100 149 182 242 294 346 420
#
# _framework density 25.398319999999998
#
# number of rings (size 3 to 8) (size 9 to 14) (size 15 to 20)
#    1.500    0.000    1.250    2.250    5.250    5.000 
#    0.000    0.000    0.000    0.000    0.000    0.000 
#    0.000    0.000    0.000    0.000    0.000    0.000 
#
# Total GULP energy -89085.975362 kJ/mol
# GULP energy per Si atom -5567.873460 kJ/mol
# Density = 2.534051 g / cm^3
# Si number density = 25.398320 Si / 1000 Ang^3
#
#
#
# Elastic Constant Matrix: (Units=GPa)
#
#
# Indices 1 2 3 4 5 6 
#
# 1 201.6916 18.2281 48.8341 -0.0006 2.1440 -0.0001
# 2 18.2281 59.1138 -10.6390 -0.0002 17.6303 0.0000
# 3 48.8341 -10.6390 102.1458 0.0010 23.2227 0.0000
# 4 -0.0006 -0.0002 0.0010 -562.1140 -0.0005 -22.1659
# 5 2.1440 17.6303 23.2227 -0.0005 54.2054 0.0000
# 6 -0.0001 0.0000 0.0000 -22.1659 0.0000 41.6139
#
#
#
# Elastic Compliance Matrix: (Units=1/GPa)
#
#
# Indices 1 2 3 4 5 6 
#
# 1 0.006170 -0.003344 -0.003866 0.000000 0.002500 0.000000
# 2 -0.003344 0.021897 0.006059 0.000000 -0.009585 0.000000
# 3 -0.003866 0.006059 0.014051 0.000000 -0.007837 0.000000
# 4 0.000000 0.000000 0.000000 -0.001742 0.000000 -0.000928
# 5 0.002500 -0.009585 -0.007837 0.000000 0.024825 0.000000
# 6 0.000000 0.000000 0.000000 -0.000928 0.000000 0.023536
#
#
# Mechanical properties :
#
#
# Convention : Reuss Voigt Hill
#
# Bulk Modulus (GPa) = 25.11659 52.86642 38.99151
# Shear Modulus (GPa) = 47.93345 -72.82373 -12.44514
#
# Velocity S-wave (km/s) = 4.34898 -5.36049 -2.21599
# Velocity P-wave (km/s) = 5.92695 4.17769 2.97285
#
# Compressibility (1/GPa) = 0.03981432
#
# Stress axis : x y z
#
# Youngs Moduli (GPa) = 162.07890 45.66881 71.16815
#
# Poissons Ratio (x) = 0.15271 0.27516
# Poissons Ratio (y) = 0.54199 -0.43118
# Poissons Ratio (z) = 0.62665 -0.27669
#
# Static dielectric constant tensor:
#      x y z
#    x 2.140300 0.000000 0.008740 
#    y 0.000000 2.136980 0.000000 
#    z 0.008740 0.000000 2.050370 
# 
# From -- ./inp_files/135300.got.cif
#   From: 2010.05.17/outbox.cif.g08.bks.cpg/sg15_68_cif.got.tgz:135300.got - 2010.06.03 18:47:42.
