data_PCOD9295696
_publ_section_title
;
Structure prediction by ZEFSAII (Michael W. Deem and Ramdas Pophale) SiO2 
 PCOD9295696
Probable space group: C 2/C
;
_chemical_formula_sum "Si O2"
_cell_formula_units_Z 60
_cell_length_a 16.830552
_cell_length_b 19.685322
_cell_length_c 17.269741
_cell_angle_alpha 90.000000
_cell_angle_beta 29.419661
_cell_angle_gamma 90.000000
_cell_volume 2810.524891
_symmetry_space_group_name_H-M "C 2/C"
_symmetry_group_IT_number 15
_symmetry_cell_setting 'monoclinic'
loop_
_space_group_symop_operation_xyz
x,y,z
-x,y,1/2-z
-x,-y,-z
x,-y,1/2+z
1/2+x,1/2+y,z
1/2-x,1/2+y,1/2-z
1/2-x,1/2-y,-z
1/2+x,1/2-y,1/2+z
loop_
_atom_site_type_symbol
_atom_site_label
_atom_site_fract_x
_atom_site_fract_y
_atom_site_fract_z
Si Si1 0.333429 0.220202 0.198097
Si Si2 0.830983 0.956915 0.853727
Si Si3 0.188345 0.421330 0.565405
Si Si4 0.311890 0.185332 0.044866
Si Si5 0.321817 0.155999 0.582505
Si Si6 0.849182 0.091102 0.092106
Si Si7 0.694723 0.537070 0.778562
Si Si8 0.000000 0.737800 0.750000
O O1 0.342184 0.226055 0.097990
O O2 0.290301 0.287342 0.282342
O O3 0.201732 0.161607 0.326391
O O4 0.504325 0.189209 0.077232
O O5 0.728146 0.893451 0.911047
O O6 0.000000 0.936822 0.750000
O O7 0.867456 0.001881 0.747486
O O8 0.730421 0.003392 0.998651
O O9 0.228800 0.372526 0.458271
O O10 0.298847 0.404760 0.545316
O O11 0.000000 0.415535 0.750000
O O12 0.152575 0.216351 0.140947
O O13 0.457011 0.194202 0.861678
O O14 0.325130 0.092048 0.639270
O O15 0.758372 0.024884 0.205248
O O16 0.038466 0.076168 0.944299
#
# Coordination Sequence:
#
# PCOD9295696 Si02
#       8
#     8   8   8   8   8   8   8   4
#     4  12  24  44  67  99 134 179 225 282 330 407
#     4  11  21  40  66  94 131 173 218 276 335 399
#     4  11  24  43  64  98 134 173 225 279 331 398
#     4  11  23  43  65  96 132 177 221 272 340 404
#     4  11  26  44  67  96 137 177 228 275 343 390
#     4  11  22  42  69  97 135 172 227 274 340 393
#     4  10  23  43  67  99 129 180 219 281 334 402
#     4  10  24  42  62  92 138 174 220 272 332 414
#
# _framework density 21.348326
#
# number of rings (size 3 to 8) (size 9 to 14) (size 15 to 20)
#    0.000    1.067    4.667    1.600    0.933    2.133 
#    4.800    0.000    0.000    0.000    0.000    0.000 
#    0.000    0.000    0.000    0.000    0.000    0.000 
#
# Total GULP energy -167664.204628 kJ/mol
# GULP energy per Si atom -5588.806821 kJ/mol
# Density = 2.129974 g / cm^3
# Si number density = 21.348326 Si / 1000 Ang^3
#
#
#
# Elastic Constant Matrix: (Units=GPa)
#
#
# Indices 1 2 3 4 5 6 
#
# 1 70.7482 15.1296 8.3856 0.0056 26.2022 0.0054
# 2 15.1296 93.0619 39.3990 0.0127 15.8060 -0.0016
# 3 8.3856 39.3990 82.2176 0.0146 26.5830 -0.0037
# 4 0.0056 0.0127 0.0146 -13.5549 -0.0110 23.9252
# 5 26.2022 15.8060 26.5830 -0.0110 31.5098 -0.0029
# 6 0.0054 -0.0016 -0.0037 23.9252 -0.0029 19.0997
#
#
#
# Elastic Compliance Matrix: (Units=1/GPa)
#
#
# Indices 1 2 3 4 5 6 
#
# 1 0.022246 -0.002402 0.006152 0.000005 -0.022484 -0.000015
# 2 -0.002402 0.013815 -0.006573 0.000002 0.000614 -0.000001
# 3 0.006152 -0.006573 0.021002 0.000010 -0.019537 -0.000014
# 4 0.000005 0.000002 0.000010 -0.022975 -0.000019 0.028780
# 5 -0.022484 0.000614 -0.019537 -0.000019 0.066607 0.000037
# 6 -0.000015 -0.000001 -0.000014 0.028780 0.000037 0.016306
#
#
# Mechanical properties :
#
#
# Convention : Reuss Voigt Hill
#
# Bulk Modulus (GPa) = 19.44941 41.31733 30.38337
# Shear Modulus (GPa) = 35.76870 19.61848 27.69359
#
# Velocity S-wave (km/s) = 4.09770 3.03474 3.60561
# Velocity P-wave (km/s) = 5.61414 5.62809 5.62112
#
# Compressibility (1/GPa) = 0.05141544
#
# Stress axis : x y z
#
# Youngs Moduli (GPa) = 44.95107 72.38579 47.61433
#
# Poissons Ratio (x) = 0.17390 -0.29292
# Poissons Ratio (y) = 0.10799 0.31299
# Poissons Ratio (z) = -0.27654 0.47583
#
# Static dielectric constant tensor:
#      x y z
#    x 1.749520 -0.000010 0.012640 
#    y -0.000010 1.783100 0.000010 
#    z 0.012640 0.000010 1.804530 
# 
# From -- ./inp_files/211718.got.cif
#   From: 2010.05.17/outbox.cif.g08.bks.cpg/sg15_106_cif.got.tgz:211718.got - 2010.06.03 18:47:42.
