data_PCOD9295115
_publ_section_title
;
Structure prediction by ZEFSAII (Michael W. Deem and Ramdas Pophale) SiO2 
 PCOD9295115
Probable space group: C 2/C
;
_chemical_formula_sum "Si O2"
_cell_formula_units_Z 36
_cell_length_a 9.430068
_cell_length_b 20.314812
_cell_length_c 13.286955
_cell_angle_alpha 90.000000
_cell_angle_beta 142.868923
_cell_angle_gamma 90.000000
_cell_volume 1536.496128
_symmetry_space_group_name_H-M "C 2/C"
_symmetry_group_IT_number 15
_symmetry_cell_setting 'monoclinic'
loop_
_space_group_symop_operation_xyz
x,y,z
-x,y,1/2-z
-x,-y,-z
x,-y,1/2+z
1/2+x,1/2+y,z
1/2-x,1/2+y,1/2-z
1/2-x,1/2-y,-z
1/2+x,1/2-y,1/2+z
loop_
_atom_site_type_symbol
_atom_site_label
_atom_site_fract_x
_atom_site_fract_y
_atom_site_fract_z
Si Si1 0.372954 0.779581 0.271817
Si Si2 0.966660 0.324420 0.939905
Si Si3 0.000000 0.865050 0.250000
Si Si4 0.844620 0.046465 0.264933
Si Si5 0.843326 0.921076 0.364123
O O1 0.500000 0.747278 0.250000
O O2 0.170225 0.731398 0.199302
O O3 0.557236 0.796727 0.461284
O O4 0.277411 0.851122 0.186066
O O5 0.837515 0.393713 0.852320
O O6 0.248477 0.329638 0.094394
O O7 0.001178 0.905949 0.146848
O O8 0.025085 0.061858 0.458621
O O9 0.000000 0.038437 0.250000
O O10 0.707091 0.983310 0.237037
#
# Coordination Sequence:
#
# PCOD9295115 Si02
#       5
#     8   8   4   8   8
#     4  11  22  41  66 101 133 177 230 281 342 400
#     4  11  24  40  69  96 138 178 225 287 334 403
#     4  10  24  44  62 102 138 182 228 266 346 412
#     4  11  22  43  70 100 134 178 228 281 339 405
#     4  10  23  42  65 100 139 176 224 277 344 407
#
# _framework density 23.429932999999998
#
# number of rings (size 3 to 8) (size 9 to 14) (size 15 to 20)
#    0.000    1.333    1.111    4.000    0.000    8.000 
#    8.000    0.000    0.000    0.000    0.000    0.000 
#    0.000    0.000    0.000    0.000    0.000    0.000 
#
# Total GULP energy -100218.121264 kJ/mol
# GULP energy per Si atom -5567.673404 kJ/mol
# Density = 2.337661 g / cm^3
# Si number density = 23.429933 Si / 1000 Ang^3
#
#
#
# Elastic Constant Matrix: (Units=GPa)
#
#
# Indices 1 2 3 4 5 6 
#
# 1 100.2148 26.0526 56.6099 -0.0003 -9.9214 -0.0005
# 2 26.0526 122.5745 68.7309 -0.0001 40.2411 -0.0002
# 3 56.6099 68.7309 120.2689 -0.0003 -2.4760 -0.0006
# 4 -0.0003 -0.0001 -0.0003 46.1364 -0.0003 -16.2108
# 5 -9.9214 40.2411 -2.4760 -0.0003 36.4398 -0.0006
# 6 -0.0005 -0.0002 -0.0006 -16.2108 -0.0006 -26.7715
#
#
#
# Elastic Compliance Matrix: (Units=1/GPa)
#
#
# Indices 1 2 3 4 5 6 
#
# 1 0.014070 -0.001472 -0.005677 0.000000 0.005070 0.000000
# 2 -0.001472 0.028236 -0.016116 0.000000 -0.032677 0.000001
# 3 -0.005677 -0.016116 0.020560 0.000000 0.017648 -0.000001
# 4 0.000000 0.000000 0.000000 0.017872 0.000000 -0.010822
# 5 0.005070 -0.032677 0.017648 0.000000 0.066108 -0.000002
# 6 0.000000 0.000001 -0.000001 -0.010822 -0.000002 -0.030800
#
#
# Mechanical properties :
#
#
# Convention : Reuss Voigt Hill
#
# Bulk Modulus (GPa) = 61.21474 71.76056 66.48765
# Shear Modulus (GPa) = 29.75820 23.93862 26.84841
#
# Velocity S-wave (km/s) = 3.56770 3.19989 3.38879
# Velocity P-wave (km/s) = 6.56923 6.65932 6.61443
#
# Compressibility (1/GPa) = 0.01633593
#
# Stress axis : x y z
#
# Youngs Moduli (GPa) = 71.07234 35.41640 48.63761
#
# Poissons Ratio (x) = 0.05212 0.27613
# Poissons Ratio (y) = 0.10460 0.78384
# Poissons Ratio (z) = 0.40350 0.57077
#
# Static dielectric constant tensor:
#      x y z
#    x 1.949910 0.000000 0.044790 
#    y 0.000000 2.044950 0.000000 
#    z 0.044790 0.000000 2.132530 
# 
# From -- ./inp_files/147317.got.cif
#   From: 2010.05.17/outbox.cif.g08.bks.cpg/sg15_74_cif.got.tgz:147317.got - 2010.06.03 18:47:42.
