data_PCOD9295608
_publ_section_title
;
Structure prediction by ZEFSAII (Michael W. Deem and Ramdas Pophale) SiO2 
 PCOD9295608
Probable space group: C 2/C
;
_chemical_formula_sum "Si O2"
_cell_formula_units_Z 24
_cell_length_a 14.292235
_cell_length_b 14.330032
_cell_length_c 5.159012
_cell_angle_alpha 90.000000
_cell_angle_beta 111.159649
_cell_angle_gamma 90.000000
_cell_volume 985.369528
_symmetry_space_group_name_H-M "C 2/C"
_symmetry_group_IT_number 15
_symmetry_cell_setting 'monoclinic'
loop_
_space_group_symop_operation_xyz
x,y,z
-x,y,1/2-z
-x,-y,-z
x,-y,1/2+z
1/2+x,1/2+y,z
1/2-x,1/2+y,1/2-z
1/2-x,1/2-y,-z
1/2+x,1/2-y,1/2+z
loop_
_atom_site_type_symbol
_atom_site_label
_atom_site_fract_x
_atom_site_fract_y
_atom_site_fract_z
Si Si1 0.000000 0.565793 0.250000
Si Si2 0.500000 0.434207 0.750000
Si Si3 0.204596 0.640956 0.642185
Si Si4 0.704596 0.640956 0.267007
O O1 0.098656 0.627780 0.395468
O O2 0.000000 0.500000 0.500000
O O3 0.500000 0.500000 0.500000
O O4 0.401345 0.372220 0.698158
O O5 0.284128 0.600865 0.512504
O O6 0.221314 0.750000 0.721314
O O7 0.215873 0.600865 0.944250
#
# Coordination Sequence:
#
# PCOD9295608 Si02
#       4
#     4   4   8   8
#     4  12  26  40  64 100 134 170 212 274 344 396
#     4  12  26  40  64 100 134 170 212 274 344 396
#     4  10  23  43  66  91 124 171 221 266 317 387
#     4  10  23  43  66  91 124 171 221 266 317 387
#
# _framework density 24.356347
#
# number of rings (size 3 to 8) (size 9 to 14) (size 15 to 20)
#    0.000    1.333    0.000    4.000    0.000   18.667 
#    0.000    0.000    0.000    0.000    0.000    0.000 
#    0.000    0.000    0.000    0.000    0.000    0.000 
#
# Total GULP energy -67021.085443 kJ/mol
# GULP energy per Si atom -5585.090454 kJ/mol
# Density = 2.430091 g / cm^3
# Si number density = 24.356347 Si / 1000 Ang^3
#
#
#
# Elastic Constant Matrix: (Units=GPa)
#
#
# Indices 1 2 3 4 5 6 
#
# 1 135.5359 -1.2793 78.6172 0.0000 -9.9698 0.0000
# 2 -1.2793 65.7437 35.9090 0.0000 -11.9823 0.0000
# 3 78.6172 35.9090 252.0692 0.0000 -27.5792 0.0000
# 4 0.0000 0.0000 0.0000 29.8342 0.0000 1.8870
# 5 -9.9698 -11.9823 -27.5792 0.0000 49.6035 0.0000
# 6 0.0000 0.0000 0.0000 1.8870 0.0000 35.6900
#
#
#
# Elastic Compliance Matrix: (Units=1/GPa)
#
#
# Indices 1 2 3 4 5 6 
#
# 1 0.009238 0.001983 -0.003097 0.000000 0.000614 0.000000
# 2 0.001983 0.017307 -0.002750 0.000000 0.003050 0.000000
# 3 -0.003097 -0.002750 0.005520 0.000000 0.001782 0.000000
# 4 0.000000 0.000000 0.000000 0.033631 0.000000 -0.001778
# 5 0.000614 0.003050 0.001782 0.000000 0.022011 0.000000
# 6 0.000000 0.000000 0.000000 -0.001778 0.000000 0.028113
#
#
# Mechanical properties :
#
#
# Convention : Reuss Voigt Hill
#
# Bulk Modulus (GPa) = 41.08879 75.53804 58.31342
# Shear Modulus (GPa) = 37.97646 45.69901 41.83774
#
# Velocity S-wave (km/s) = 3.95296 4.33629 4.14905
# Velocity P-wave (km/s) = 6.14337 7.49348 6.85176
#
# Compressibility (1/GPa) = 0.02433754
#
# Stress axis : x y z
#
# Youngs Moduli (GPa) = 108.24660 57.77907 181.16810
#
# Poissons Ratio (x) = -0.11458 0.56100
# Poissons Ratio (y) = -0.21466 0.49827
# Poissons Ratio (z) = 0.33519 0.15891
#
# Static dielectric constant tensor:
#      x y z
#    x 6.647600 0.000000 1.384240 
#    y 0.000000 1.975470 0.000000 
#    z 1.384240 0.000000 2.352560 
# 
# From -- ./inp_files/6138.got.cif
#   From: 2010.05.17/outbox.cif.g08.bks.cpg/sg15_4_cif.got.tgz:6138.got - 2010.06.03 18:47:42.
