data_PCOD9295391
_publ_section_title
;
Structure prediction by ZEFSAII (Michael W. Deem and Ramdas Pophale) SiO2 
 PCOD9295391
Probable space group: C 2/C
;
_chemical_formula_sum "Si O2"
_cell_formula_units_Z 44
_cell_length_a 11.157531
_cell_length_b 16.451924
_cell_length_c 12.717541
_cell_angle_alpha 90.000000
_cell_angle_beta 63.013459
_cell_angle_gamma 90.000000
_cell_volume 2080.275205
_symmetry_space_group_name_H-M "C 2/C"
_symmetry_group_IT_number 15
_symmetry_cell_setting 'monoclinic'
loop_
_space_group_symop_operation_xyz
x,y,z
-x,y,1/2-z
-x,-y,-z
x,-y,1/2+z
1/2+x,1/2+y,z
1/2-x,1/2+y,1/2-z
1/2-x,1/2-y,-z
1/2+x,1/2-y,1/2+z
loop_
_atom_site_type_symbol
_atom_site_label
_atom_site_fract_x
_atom_site_fract_y
_atom_site_fract_z
Si Si1 0.470594 0.705075 0.062191
Si Si2 0.230693 0.933390 0.851863
Si Si3 0.931399 0.306397 0.883812
Si Si4 0.730507 0.398242 0.441992
Si Si5 0.000000 0.322852 0.250000
Si Si6 0.886698 0.562485 0.086004
O O1 0.385530 0.627933 0.135218
O O2 0.477915 0.769031 0.154103
O O3 0.396657 0.739844 0.986335
O O4 0.618833 0.671360 0.976248
O O5 0.329569 0.877159 0.884481
O O6 0.312260 0.966877 0.719668
O O7 0.177607 0.013580 0.929053
O O8 0.000000 0.271618 0.750000
O O9 0.042592 0.355783 0.904114
O O10 0.781299 0.412789 0.539766
O O11 0.865687 0.374420 0.324982
O O12 0.000000 0.500000 0.000000
#
# Coordination Sequence:
#
# PCOD9295391 Si02
#       6
#     8   8   8   8   4   8
#     4  12  26  45  66 103 141 169 223 285 347 399
#     4  11  25  43  69  97 136 180 224 272 345 403
#     4  10  23  42  70  94 135 178 223 274 335 403
#     4  12  25  44  69 100 132 178 225 282 336 397
#     4  12  26  42  72  98 130 182 224 276 334 402
#     4  11  21  42  68  99 130 176 232 276 315 409
#
# _framework density 21.151047999999999
#
# number of rings (size 3 to 8) (size 9 to 14) (size 15 to 20)
#    0.000    0.727    3.636    3.818    6.364    0.000 
#    3.273    0.000    0.000    0.000    0.000    0.000 
#    0.000    0.000    0.000    0.000    0.000    0.000 
#
# Total GULP energy -122855.972539 kJ/mol
# GULP energy per Si atom -5584.362388 kJ/mol
# Density = 2.110291 g / cm^3
# Si number density = 21.151048 Si / 1000 Ang^3
#
#
#
# Elastic Constant Matrix: (Units=GPa)
#
#
# Indices 1 2 3 4 5 6 
#
# 1 67.7227 28.1617 29.2650 0.0000 7.1165 0.0000
# 2 28.1617 80.5437 47.1928 0.0000 13.5694 0.0000
# 3 29.2650 47.1928 110.7369 0.0000 22.2809 0.0000
# 4 0.0000 0.0000 0.0000 36.5784 0.0000 -16.2946
# 5 7.1165 13.5694 22.2809 0.0000 18.5758 0.0000
# 6 0.0000 0.0000 0.0000 -16.2946 0.0000 36.4550
#
#
#
# Elastic Compliance Matrix: (Units=1/GPa)
#
#
# Indices 1 2 3 4 5 6 
#
# 1 0.017885 -0.004629 -0.002710 0.000000 -0.000221 0.000000
# 2 -0.004629 0.018074 -0.005509 0.000000 -0.004822 0.000000
# 3 -0.002710 -0.005509 0.014599 0.000000 -0.012448 0.000000
# 4 0.000000 0.000000 0.000000 0.034135 0.000000 0.015258
# 5 -0.000221 -0.004822 -0.012448 0.000000 0.072371 0.000000
# 6 0.000000 0.000000 0.000000 0.015258 0.000000 0.034251
#
#
# Mechanical properties :
#
#
# Convention : Reuss Voigt Hill
#
# Bulk Modulus (GPa) = 40.21993 52.02693 46.12343
# Shear Modulus (GPa) = 22.19270 28.61409 25.40340
#
# Velocity S-wave (km/s) = 3.24272 3.68209 3.46937
# Velocity P-wave (km/s) = 5.75128 6.53669 6.15652
#
# Compressibility (1/GPa) = 0.02486330
#
# Stress axis : x y z
#
# Youngs Moduli (GPa) = 55.91306 55.32684 68.49724
#
# Poissons Ratio (x) = 0.25609 0.18560
# Poissons Ratio (y) = 0.25880 0.37738
# Poissons Ratio (z) = 0.15150 0.30482
#
# Static dielectric constant tensor:
#      x y z
#    x 1.753050 0.000000 -0.024880 
#    y 0.000000 1.790950 0.000000 
#    z -0.024880 0.000000 1.861440 
# 
# From -- ./inp_files/87708.got.cif
#   From: 2010.05.17/outbox.cif.g08.bks.cpg/sg15_44_cif.got.tgz:87708.got - 2010.06.03 18:47:42.
