data_PCOD9295833
_publ_section_title
;
Structure prediction by ZEFSAII (Michael W. Deem and Ramdas Pophale) SiO2 
 PCOD9295833
Probable space group: C 2/C
;
_chemical_formula_sum "Si O2"
_cell_formula_units_Z 32
_cell_length_a 13.094484
_cell_length_b 21.943499
_cell_length_c 4.901556
_cell_angle_alpha 90.000000
_cell_angle_beta 102.717648
_cell_angle_gamma 90.000000
_cell_volume 1373.854441
_symmetry_space_group_name_H-M "C 2/C"
_symmetry_group_IT_number 15
_symmetry_cell_setting 'monoclinic'
loop_
_space_group_symop_operation_xyz
x,y,z
-x,y,1/2-z
-x,-y,-z
x,-y,1/2+z
1/2+x,1/2+y,z
1/2-x,1/2+y,1/2-z
1/2-x,1/2-y,-z
1/2+x,1/2-y,1/2+z
loop_
_atom_site_type_symbol
_atom_site_label
_atom_site_fract_x
_atom_site_fract_y
_atom_site_fract_z
Si Si1 0.102723 0.861084 0.135338
Si Si2 0.347220 0.226253 0.243937
Si Si3 0.500000 0.044724 0.750000
Si Si4 0.500000 0.546798 0.250000
Si Si5 0.665755 0.854685 0.230648
O O1 0.096997 0.787413 0.113241
O O2 0.219484 0.873006 0.313653
O O3 0.000000 0.877555 0.250000
O O4 0.092574 0.904139 0.864036
O O5 0.317498 0.187879 0.493438
O O6 0.250000 0.250000 0.000000
O O7 0.396477 0.181848 0.043179
O O8 0.400209 0.088359 0.711910
O O9 0.500000 0.000000 0.500000
O O10 0.500000 0.500000 0.500000
#
# Coordination Sequence:
#
# PCOD9295833 Si02
#       5
#     8   8   4   4   8
#     4  11  26  43  75 106 145 180 233 288 369 420
#     4  10  23  43  70 111 143 182 226 288 368 428
#     4  12  28  51  74 101 136 200 254 286 342 408
#     4  12  28  45  62  99 140 194 238 272 342 420
#     4  11  26  46  73 105 146 181 237 296 354 418
#
# _framework density 23.292133
#
# number of rings (size 3 to 8) (size 9 to 14) (size 15 to 20)
#    0.000    1.000    1.250    4.500   14.000    2.000 
#    0.000    0.000    0.000    0.000    0.000    0.000 
#    0.000    0.000    0.000    0.000    0.000    0.000 
#
# Total GULP energy -89257.761424 kJ/mol
# GULP energy per Si atom -5578.610089 kJ/mol
# Density = 2.323912 g / cm^3
# Si number density = 23.292133 Si / 1000 Ang^3
#
#
#
# Elastic Constant Matrix: (Units=GPa)
#
#
# Indices 1 2 3 4 5 6 
#
# 1 131.1390 70.4981 39.1636 0.0000 -3.4685 0.0000
# 2 70.4981 185.3909 80.6421 0.0000 -0.6370 0.0000
# 3 39.1636 80.6421 169.5996 0.0000 -16.8657 0.0000
# 4 0.0000 0.0000 0.0000 64.2919 0.0000 6.2516
# 5 -3.4685 -0.6370 -16.8657 0.0000 38.6266 0.0000
# 6 0.0000 0.0000 0.0000 6.2516 0.0000 10.5334
#
#
#
# Elastic Compliance Matrix: (Units=1/GPa)
#
#
# Indices 1 2 3 4 5 6 
#
# 1 0.009647 -0.003432 -0.000539 0.000000 0.000574 0.000000
# 2 -0.003432 0.008090 -0.003211 0.000000 -0.001577 0.000000
# 3 -0.000539 -0.003211 0.007880 0.000000 0.003339 0.000000
# 4 0.000000 0.000000 0.000000 0.016507 0.000000 -0.009797
# 5 0.000574 -0.001577 0.003339 0.000000 0.027372 0.000000
# 6 0.000000 0.000000 0.000000 -0.009797 0.000000 0.100751
#
#
# Mechanical properties :
#
#
# Convention : Reuss Voigt Hill
#
# Bulk Modulus (GPa) = 88.86520 96.30414 92.58467
# Shear Modulus (GPa) = 26.54479 42.41210 34.47845
#
# Velocity S-wave (km/s) = 3.37953 4.27180 3.85159
# Velocity P-wave (km/s) = 7.31188 8.10969 7.72109
#
# Compressibility (1/GPa) = 0.01125300
#
# Stress axis : x y z
#
# Youngs Moduli (GPa) = 103.66432 123.60179 126.91083
#
# Poissons Ratio (x) = 0.42420 0.06835
# Poissons Ratio (y) = 0.35578 0.40754
# Poissons Ratio (z) = 0.05583 0.39691
#
# Static dielectric constant tensor:
#      x y z
#    x 1.977060 0.000000 0.007430 
#    y 0.000000 1.862090 0.000000 
#    z 0.007430 0.000000 1.979060 
# 
# From -- ./inp_files/6952.got.cif
#   From: 2010.05.17/outbox.cif.g08.bks.cpg/sg15_4_cif.got.tgz:6952.got - 2010.06.03 18:47:42.
