data_PCOD9295321
_publ_section_title
;
Structure prediction by ZEFSAII (Michael W. Deem and Ramdas Pophale) SiO2 
 PCOD9295321
Probable space group: C 2/C
;
_chemical_formula_sum "Si O2"
_cell_formula_units_Z 40
_cell_length_a 12.662143
_cell_length_b 17.971536
_cell_length_c 9.162893
_cell_angle_alpha 90.000000
_cell_angle_beta 116.812714
_cell_angle_gamma 90.000000
_cell_volume 1860.914051
_symmetry_space_group_name_H-M "C 2/C"
_symmetry_group_IT_number 15
_symmetry_cell_setting 'monoclinic'
loop_
_space_group_symop_operation_xyz
x,y,z
-x,y,1/2-z
-x,-y,-z
x,-y,1/2+z
1/2+x,1/2+y,z
1/2-x,1/2+y,1/2-z
1/2-x,1/2-y,-z
1/2+x,1/2-y,1/2+z
loop_
_atom_site_type_symbol
_atom_site_label
_atom_site_fract_x
_atom_site_fract_y
_atom_site_fract_z
Si Si1 0.012592 0.578638 0.427751
Si Si2 0.256133 0.333465 0.065509
Si Si3 0.614169 0.838803 0.423101
Si Si4 0.143124 0.174680 0.548680
Si Si5 0.543978 0.574802 0.946595
O O1 0.132284 0.626307 0.523699
O O2 0.000000 0.565902 0.250000
O O3 0.000000 0.500000 0.500000
O O4 0.910253 0.628661 0.433285
O O5 0.322084 0.318906 0.259672
O O6 0.325911 0.390855 0.002360
O O7 0.250000 0.250000 0.000000
O O8 0.500000 0.857003 0.250000
O O9 0.741431 0.866323 0.445452
O O10 0.624407 0.750308 0.448712
O O11 0.019470 0.133792 0.486657
O O12 0.500000 0.569401 0.750000
O O13 0.500000 0.500000 0.000000
#
# Coordination Sequence:
#
# PCOD9295321 Si02
#       5
#     8   8   8   8   8
#     4  12  27  43  68  99 138 178 227 280 344 400
#     4  11  23  44  71  96 135 178 225 278 338 401
#     4  11  22  43  70 100 134 173 225 281 339 405
#     4  10  23  42  68  97 135 174 223 280 333 409
#     4  10  24  43  64  92 131 172 221 269 331 397
#
# _framework density 21.494812
#
# number of rings (size 3 to 8) (size 9 to 14) (size 15 to 20)
#    0.000    1.200    2.000    3.000    2.800    4.000 
#    3.600    0.000    0.000    0.000    0.000    0.000 
#    0.000    0.000    0.000    0.000    0.000    0.000 
#
# Total GULP energy -111456.197233 kJ/mol
# GULP energy per Si atom -5572.809862 kJ/mol
# Density = 2.144589 g / cm^3
# Si number density = 21.494812 Si / 1000 Ang^3
#
#
#
# Elastic Constant Matrix: (Units=GPa)
#
#
# Indices 1 2 3 4 5 6 
#
# 1 135.5797 24.0865 9.3509 0.0000 -42.3047 0.0000
# 2 24.0865 60.2082 -1.6906 0.0000 -9.1238 0.0000
# 3 9.3509 -1.6906 52.0033 0.0000 -20.1723 0.0000
# 4 0.0000 0.0000 0.0000 -1.0894 0.0000 -23.6071
# 5 -42.3047 -9.1238 -20.1723 0.0000 30.4882 0.0000
# 6 0.0000 0.0000 0.0000 -23.6071 0.0000 34.9425
#
#
#
# Elastic Compliance Matrix: (Units=1/GPa)
#
#
# Indices 1 2 3 4 5 6 
#
# 1 0.014963 -0.002060 0.006803 0.000000 0.024647 0.000000
# 2 -0.002060 0.018162 0.002637 0.000000 0.004322 0.000000
# 3 0.006803 0.002637 0.029677 0.000000 0.029865 0.000000
# 4 0.000000 0.000000 0.000000 -0.058691 0.000000 -0.039652
# 5 0.024647 0.004322 0.029865 0.000000 0.088053 0.000000
# 6 0.000000 0.000000 0.000000 -0.039652 0.000000 0.001830
#
#
# Mechanical properties :
#
#
# Convention : Reuss Voigt Hill
#
# Bulk Modulus (GPa) = 12.89279 34.58720 23.73999
# Shear Modulus (GPa) = 47.57992 27.27122 37.42557
#
# Velocity S-wave (km/s) = 4.70995 3.56580 4.17723
# Velocity P-wave (km/s) = 5.96567 5.75144 5.85954
#
# Compressibility (1/GPa) = 0.07756275
#
# Stress axis : x y z
#
# Youngs Moduli (GPa) = 66.83073 55.05971 33.69660
#
# Poissons Ratio (x) = 0.11343 -0.22925
# Poissons Ratio (y) = 0.13768 -0.08886
# Poissons Ratio (z) = -0.45467 -0.14520
#
# Static dielectric constant tensor:
#      x y z
#    x 1.555490 0.000000 0.036240 
#    y 0.000000 1.556960 0.000000 
#    z 0.036240 0.000000 1.790220 
# 
# From -- ./inp_files/29094.got.cif
#   From: 2010.05.17/outbox.cif.g08.bks.cpg/sg15_15_cif.got.tgz:29094.got - 2010.06.03 18:47:42.
