data_PCOD9295399
_publ_section_title
;
Structure prediction by ZEFSAII (Michael W. Deem and Ramdas Pophale) SiO2 
 PCOD9295399
Probable space group: C 2/C
;
_chemical_formula_sum "Si O2"
_cell_formula_units_Z 48
_cell_length_a 27.680305
_cell_length_b 11.337070
_cell_length_c 19.387091
_cell_angle_alpha 90.000000
_cell_angle_beta 161.004326
_cell_angle_gamma 90.000000
_cell_volume 1980.300165
_symmetry_space_group_name_H-M "C 2/C"
_symmetry_group_IT_number 15
_symmetry_cell_setting 'monoclinic'
loop_
_space_group_symop_operation_xyz
x,y,z
-x,y,1/2-z
-x,-y,-z
x,-y,1/2+z
1/2+x,1/2+y,z
1/2-x,1/2+y,1/2-z
1/2-x,1/2-y,-z
1/2+x,1/2-y,1/2+z
loop_
_atom_site_type_symbol
_atom_site_label
_atom_site_fract_x
_atom_site_fract_y
_atom_site_fract_z
Si Si1 0.702365 0.208300 0.595208
Si Si2 0.166350 0.921790 0.112525
Si Si3 0.345883 0.522200 0.692271
Si Si4 0.225566 0.045486 0.065834
Si Si5 0.468873 0.015347 0.073404
Si Si6 0.369615 0.824758 0.119102
O O1 0.804992 0.139839 0.678370
O O2 0.664058 0.337810 0.519221
O O3 0.557692 0.126078 0.410952
O O4 0.789809 0.196222 0.786661
O O5 0.176706 0.932116 0.044194
O O6 0.305431 0.002954 0.323352
O O7 0.010159 0.972909 0.925531
O O8 0.323004 0.539205 0.579215
O O9 0.228300 0.420620 0.554963
O O10 0.404140 0.055766 0.307744
O O11 0.538243 0.902373 0.202094
O O12 0.500000 0.768075 0.250000
O O13 0.250000 0.750000 0.000000
#
# Coordination Sequence:
#
# PCOD9295399 Si02
#       6
#     8   8   8   8   8   8
#     4  10  23  42  70  97 143 190 240 296 373 433
#     4  10  23  43  64 102 146 188 235 304 358 456
#     4  11  23  44  68 102 149 180 251 309 366 442
#     4  11  23  41  71 107 136 195 246 302 377 439
#     4   9  23  44  69  98 146 181 251 298 365 445
#     4  11  23  44  70 100 139 194 247 306 374 439
#
# _framework density 24.23875
#
# number of rings (size 3 to 8) (size 9 to 14) (size 15 to 20)
#    1.000    0.667    1.667    2.000    2.333    4.000 
#    6.000    5.000    0.000    0.000    0.000    0.000 
#    0.000    0.000    0.000    0.000    0.000    0.000 
#
# Total GULP energy -134060.970399 kJ/mol
# GULP energy per Si atom -5585.873767 kJ/mol
# Density = 2.418358 g / cm^3
# Si number density = 24.238750 Si / 1000 Ang^3
#
#
#
# Elastic Constant Matrix: (Units=GPa)
#
#
# Indices 1 2 3 4 5 6 
#
# 1 130.7807 42.1500 25.4355 0.0000 10.0914 0.0000
# 2 42.1500 87.5754 42.6402 0.0000 -0.3006 0.0000
# 3 25.4355 42.6402 139.3104 0.0000 24.9637 0.0000
# 4 0.0000 0.0000 0.0000 33.6823 0.0000 4.8842
# 5 10.0914 -0.3006 24.9637 0.0000 34.0174 0.0000
# 6 0.0000 0.0000 0.0000 4.8842 0.0000 26.0942
#
#
#
# Elastic Compliance Matrix: (Units=1/GPa)
#
#
# Indices 1 2 3 4 5 6 
#
# 1 0.009316 -0.004614 0.000246 0.000000 -0.002985 0.000000
# 2 -0.004614 0.016099 -0.005016 0.000000 0.005192 0.000000
# 3 0.000246 -0.005016 0.010005 0.000000 -0.007460 0.000000
# 4 0.000000 0.000000 0.000000 0.030518 0.000000 -0.005712
# 5 -0.002985 0.005192 -0.007460 0.000000 0.035802 0.000000
# 6 0.000000 0.000000 0.000000 -0.005712 0.000000 0.039392
#
#
# Mechanical properties :
#
#
# Convention : Reuss Voigt Hill
#
# Bulk Modulus (GPa) = 60.04618 64.23532 62.14075
# Shear Modulus (GPa) = 30.22067 35.25485 32.73776
#
# Velocity S-wave (km/s) = 3.53482 3.81791 3.67909
# Velocity P-wave (km/s) = 6.44101 6.78187 6.61364
#
# Compressibility (1/GPa) = 0.01665385
#
# Stress axis : x y z
#
# Youngs Moduli (GPa) = 107.34387 62.11473 99.94844
#
# Poissons Ratio (x) = 0.28659 -0.02461
# Poissons Ratio (y) = 0.49527 0.50130
# Poissons Ratio (z) = -0.02643 0.31154
#
# Static dielectric constant tensor:
#      x y z
#    x 2.048610 0.000000 -0.019940 
#    y 0.000000 1.943130 0.000000 
#    z -0.019940 0.000000 1.950290 
# 
# From -- ./inp_files/259242.got.cif
#   From: 2010.05.17/outbox.cif.g08.bks.cpg/sg15_130_cif.got.tgz:259242.got - 2010.06.03 18:47:42.
