data_PCOD9295225
_publ_section_title
;
Structure prediction by ZEFSAII (Michael W. Deem and Ramdas Pophale) SiO2 
 PCOD9295225
Probable space group: C 2/C
;
_chemical_formula_sum "Si O2"
_cell_formula_units_Z 48
_cell_length_a 12.108055
_cell_length_b 29.207370
_cell_length_c 7.423020
_cell_angle_alpha 90.000000
_cell_angle_beta 131.272565
_cell_angle_gamma 90.000000
_cell_volume 1972.980201
_symmetry_space_group_name_H-M "C 2/C"
_symmetry_group_IT_number 15
_symmetry_cell_setting 'monoclinic'
loop_
_space_group_symop_operation_xyz
x,y,z
-x,y,1/2-z
-x,-y,-z
x,-y,1/2+z
1/2+x,1/2+y,z
1/2-x,1/2+y,1/2-z
1/2-x,1/2-y,-z
1/2+x,1/2-y,1/2+z
loop_
_atom_site_type_symbol
_atom_site_label
_atom_site_fract_x
_atom_site_fract_y
_atom_site_fract_z
Si Si1 0.473227 0.264355 0.434335
Si Si2 0.433486 0.952077 0.993266
Si Si3 0.331838 0.816630 0.303462
Si Si4 0.500000 0.881245 0.750000
Si Si5 0.360752 0.347501 0.720655
Si Si6 0.126873 0.939152 0.600476
Si Si7 0.500000 0.493957 0.750000
O O1 0.500000 0.262516 0.250000
O O2 0.523609 0.215097 0.563444
O O3 0.310501 0.284360 0.300510
O O4 0.590617 0.299305 0.646275
O O5 0.500000 0.935171 0.250000
O O6 0.443561 0.914739 0.846531
O O7 0.263978 0.957885 0.857488
O O8 0.500000 0.000000 0.000000
O O9 0.376700 0.850030 0.517107
O O10 0.276432 0.842333 0.062619
O O11 0.500000 0.362153 0.750000
O O12 0.359022 0.385069 0.876618
O O13 0.126471 0.967476 0.417181
O O14 0.994002 0.959583 0.575126
#
# Coordination Sequence:
#
# PCOD9295225 Si02
#       7
#     8   8   8   4   8   8   4
#     4  11  24  43  72 100 137 180 234 291 368 429
#     4  12  26  47  71 103 141 197 244 298 359 423
#     4  11  25  46  70 102 141 186 232 302 358 435
#     4  12  28  46  73 108 148 189 250 300 356 440
#     4  10  23  42  67 103 139 179 236 296 357 436
#     4  11  23  43  67 100 139 182 234 294 356 429
#     4  10  24  40  69 100 136 183 234 292 362 422
#
# _framework density 24.328678
#
# number of rings (size 3 to 8) (size 9 to 14) (size 15 to 20)
#    0.000    1.000    2.500    3.000    3.500    1.333 
#    0.000    4.167    0.000    0.000    0.000    0.000 
#    0.000    0.000    0.000    0.000    0.000    0.000 
#
# Total GULP energy -133909.892449 kJ/mol
# GULP energy per Si atom -5579.578852 kJ/mol
# Density = 2.427331 g / cm^3
# Si number density = 24.328678 Si / 1000 Ang^3
#
#
#
# Elastic Constant Matrix: (Units=GPa)
#
#
# Indices 1 2 3 4 5 6 
#
# 1 48.3208 30.4467 15.9338 0.0000 -17.4974 0.0000
# 2 30.4467 151.6471 54.4348 0.0000 -11.0404 0.0000
# 3 15.9338 54.4348 165.5804 0.0000 -19.3472 0.0000
# 4 0.0000 0.0000 0.0000 43.1854 0.0000 -10.7883
# 5 -17.4974 -11.0404 -19.3472 0.0000 35.8662 0.0000
# 6 0.0000 0.0000 0.0000 -10.7883 0.0000 28.4229
#
#
#
# Elastic Compliance Matrix: (Units=1/GPa)
#
#
# Indices 1 2 3 4 5 6 
#
# 1 0.028147 -0.004870 0.000344 0.000000 0.012418 0.000000
# 2 -0.004870 0.008356 -0.002407 0.000000 -0.001102 0.000000
# 3 0.000344 -0.002407 0.007183 0.000000 0.003302 0.000000
# 4 0.000000 0.000000 0.000000 0.025582 0.000000 0.009710
# 5 0.012418 -0.001102 0.003302 0.000000 0.035381 0.000000
# 6 0.000000 0.000000 0.000000 0.009710 0.000000 0.038868
#
#
# Mechanical properties :
#
#
# Convention : Reuss Voigt Hill
#
# Bulk Modulus (GPa) = 33.53641 63.01987 48.27814
# Shear Modulus (GPa) = 29.88194 39.14379 34.51286
#
# Velocity S-wave (km/s) = 3.50846 4.01553 3.77053
# Velocity P-wave (km/s) = 5.49791 6.88906 6.23242
#
# Compressibility (1/GPa) = 0.02981834
#
# Stress axis : x y z
#
# Youngs Moduli (GPa) = 35.52757 119.67566 139.20933
#
# Poissons Ratio (x) = 0.58288 -0.04782
# Poissons Ratio (y) = 0.17304 0.33510
# Poissons Ratio (z) = -0.01220 0.28808
#
# Static dielectric constant tensor:
#      x y z
#    x 1.281410 0.000000 0.063370 
#    y 0.000000 1.984920 0.000000 
#    z 0.063370 0.000000 1.858100 
# 
# From -- ./inp_files/43977.got.cif
#   From: 2010.05.17/outbox.cif.g08.bks.cpg/sg15_22_cif.got.tgz:43977.got - 2010.06.03 18:47:42.
