data_PCOD9295026
_publ_section_title
;
Structure prediction by ZEFSAII (Michael W. Deem and Ramdas Pophale) SiO2 
 PCOD9295026
Probable space group: C 2/C
;
_chemical_formula_sum "Si O2"
_cell_formula_units_Z 48
_cell_length_a 26.700434
_cell_length_b 22.040700
_cell_length_c 12.380327
_cell_angle_alpha 90.000000
_cell_angle_beta 19.236249
_cell_angle_gamma 90.000000
_cell_volume 2400.401326
_symmetry_space_group_name_H-M "C 2/C"
_symmetry_group_IT_number 15
_symmetry_cell_setting 'monoclinic'
loop_
_space_group_symop_operation_xyz
x,y,z
-x,y,1/2-z
-x,-y,-z
x,-y,1/2+z
1/2+x,1/2+y,z
1/2-x,1/2+y,1/2-z
1/2-x,1/2-y,-z
1/2+x,1/2-y,1/2+z
loop_
_atom_site_type_symbol
_atom_site_label
_atom_site_fract_x
_atom_site_fract_y
_atom_site_fract_z
Si Si1 0.343877 0.478829 0.872845
Si Si2 0.616798 0.092919 0.683953
Si Si3 0.590480 0.652381 0.172843
Si Si4 0.862854 0.708253 0.700506
Si Si5 0.122496 0.792140 0.205081
Si Si6 0.782271 0.404436 0.761618
O O1 0.500000 0.500000 0.500000
O O2 0.377869 0.417578 0.868069
O O3 0.208733 0.459520 0.062909
O O4 0.300677 0.533374 0.039745
O O5 0.604994 0.150350 0.788301
O O6 0.707535 0.105156 0.387887
O O7 0.446841 0.084847 0.983390
O O8 0.500000 0.662633 0.250000
O O9 0.487115 0.677696 0.481208
O O10 0.753657 0.684548 0.829608
O O11 0.009809 0.746619 0.371632
O O12 0.750000 0.750000 0.000000
O O13 0.250000 0.750000 0.000000
O O14 0.200564 0.846008 0.979605
#
# Coordination Sequence:
#
# PCOD9295026 Si02
#       6
#     8   8   8   8   8   8
#     4  11  23  41  64  91 129 162 212 273 318 376
#     4  10  23  42  64  93 129 171 211 265 325 387
#     4  10  23  42  62  89 126 170 206 263 322 372
#     4   9  20  41  61  88 128 166 205 259 319 368
#     4  11  21  39  67  93 128 165 212 262 313 390
#     4  11  23  40  68  97 125 170 215 259 329 391
#
# _framework density 19.996655000000001
#
# number of rings (size 3 to 8) (size 9 to 14) (size 15 to 20)
#    0.000    1.667    3.333    0.500    2.333    2.667 
#    0.000    5.833    0.000    0.000    0.000    0.000 
#    0.000    0.000    0.000    0.000    0.000    0.000 
#
# Total GULP energy -133879.831855 kJ/mol
# GULP energy per Si atom -5578.326327 kJ/mol
# Density = 1.995114 g / cm^3
# Si number density = 19.996655 Si / 1000 Ang^3
#
#
#
# Elastic Constant Matrix: (Units=GPa)
#
#
# Indices 1 2 3 4 5 6 
#
# 1 96.6956 31.6791 28.7943 0.0010 -8.4377 -0.0007
# 2 31.6791 126.4382 52.9426 0.0010 -6.3653 -0.0010
# 3 28.7943 52.9426 97.1010 0.0018 -7.5710 -0.0004
# 4 0.0010 0.0010 0.0018 31.9761 -0.0004 -19.1857
# 5 -8.4377 -6.3653 -7.5710 -0.0004 30.2230 0.0003
# 6 -0.0007 -0.0010 -0.0004 -19.1857 0.0003 7.9640
#
#
#
# Elastic Compliance Matrix: (Units=1/GPa)
#
#
# Indices 1 2 3 4 5 6 
#
# 1 0.011849 -0.001887 -0.002303 0.000000 0.002334 0.000000
# 2 -0.001887 0.010567 -0.005170 -0.000001 0.000403 -0.000002
# 3 -0.002303 -0.005170 0.013938 0.000002 0.001760 0.000003
# 4 0.000000 -0.000001 0.000002 -0.070208 0.000001 -0.169136
# 5 0.002334 0.000403 0.001760 0.000001 0.034265 0.000001
# 6 0.000000 -0.000002 0.000003 -0.169136 0.000001 -0.281892
#
#
# Mechanical properties :
#
#
# Convention : Reuss Voigt Hill
#
# Bulk Modulus (GPa) = 56.71098 60.78521 58.74809
# Shear Modulus (GPa) = -19.46417 27.82054 4.17818
#
# Velocity S-wave (km/s) = -3.12327 3.73401 1.44706
# Velocity P-wave (km/s) = 3.92624 7.00386 5.67756
#
# Compressibility (1/GPa) = 0.01763327
#
# Stress axis : x y z
#
# Youngs Moduli (GPa) = 84.39242 94.63310 71.74741
#
# Poissons Ratio (x) = 0.17858 0.16523
# Poissons Ratio (y) = 0.15926 0.37097
# Poissons Ratio (z) = 0.19435 0.48930
#
# Static dielectric constant tensor:
#      x y z
#    x 1.704840 0.000000 -0.034360 
#    y 0.000000 1.702590 0.000000 
#    z -0.034360 0.000000 1.748490 
# 
# From -- ./inp_files/124325.got.cif
#   From: 2010.05.17/outbox.cif.g08.bks.cpg/sg15_63_cif.got.tgz:124325.got - 2010.06.03 18:47:42.
