data_PCOD9295619
_publ_section_title
;
Structure prediction by ZEFSAII (Michael W. Deem and Ramdas Pophale) SiO2 
 PCOD9295619
Probable space group: C 2/C
;
_chemical_formula_sum "Si O2"
_cell_formula_units_Z 60
_cell_length_a 20.414579
_cell_length_b 8.436233
_cell_length_c 19.021409
_cell_angle_alpha 90.000000
_cell_angle_beta 119.165667
_cell_angle_gamma 90.000000
_cell_volume 2860.569450
_symmetry_space_group_name_H-M "C 2/C"
_symmetry_group_IT_number 15
_symmetry_cell_setting 'monoclinic'
loop_
_space_group_symop_operation_xyz
x,y,z
-x,y,1/2-z
-x,-y,-z
x,-y,1/2+z
1/2+x,1/2+y,z
1/2-x,1/2+y,1/2-z
1/2-x,1/2-y,-z
1/2+x,1/2-y,1/2+z
loop_
_atom_site_type_symbol
_atom_site_label
_atom_site_fract_x
_atom_site_fract_y
_atom_site_fract_z
Si Si1 0.325579 0.338661 0.321673
Si Si2 0.500000 0.911368 0.750000
Si Si3 0.674498 0.716258 0.188415
Si Si4 0.432664 0.636258 0.094595
Si Si5 0.627091 0.151009 0.810186
Si Si6 0.032404 0.327203 0.035636
Si Si7 0.494656 0.686493 0.869971
Si Si8 0.780706 0.849959 0.449251
O O1 0.325881 0.530225 0.330326
O O2 0.258561 0.284928 0.235666
O O3 0.405771 0.291330 0.333383
O O4 0.310857 0.268347 0.392552
O O5 0.525720 0.803735 0.827740
O O6 0.567188 0.020274 0.758601
O O7 0.646144 0.741841 0.253388
O O8 0.616358 0.814834 0.110345
O O9 0.408890 0.741429 0.148113
O O10 0.477173 0.746087 0.063184
O O11 0.486002 0.491527 0.141246
O O12 0.355664 0.570452 0.019013
O O13 0.703981 0.072818 0.880014
O O14 0.000000 0.500000 0.000000
O O15 0.029397 0.223468 0.963673
O O16 0.750000 0.750000 0.500000
#
# Coordination Sequence:
#
# PCOD9295619 Si02
#       8
#     8   4   8   8   8   8   8   8
#     4  11  24  42  69 100 137 177 233 281 342 410
#     4  12  28  44  64  96 140 180 226 282 336 420
#     4  11  25  42  70 103 135 179 227 283 342 410
#     4  11  21  42  69  97 131 174 229 278 344 405
#     4  10  23  43  66  95 133 179 222 276 345 405
#     4  12  24  40  68 100 135 177 225 280 340 405
#     4  12  26  43  67  98 135 180 229 288 337 408
#     4   9  20  40  68  96 129 171 217 279 339 401
#
# _framework density 20.974844000000001
#
# number of rings (size 3 to 8) (size 9 to 14) (size 15 to 20)
#    0.000    1.067    2.667    3.600    7.467    0.000 
#    0.000    2.000    0.000    0.000    0.000    0.000 
#    0.000    0.000    0.000    0.000    0.000    0.000 
#
# Total GULP energy -167551.790152 kJ/mol
# GULP energy per Si atom -5585.059672 kJ/mol
# Density = 2.092710 g / cm^3
# Si number density = 20.974844 Si / 1000 Ang^3
#
#
#
# Elastic Constant Matrix: (Units=GPa)
#
#
# Indices 1 2 3 4 5 6 
#
# 1 82.8385 5.0295 27.4792 0.0000 1.1175 0.0000
# 2 5.0295 59.6129 9.6858 0.0000 -10.2023 0.0000
# 3 27.4792 9.6858 92.3120 0.0000 8.3351 0.0000
# 4 0.0000 0.0000 0.0000 36.3266 0.0000 1.4141
# 5 1.1175 -10.2023 8.3351 0.0000 41.7450 0.0000
# 6 0.0000 0.0000 0.0000 1.4141 0.0000 23.8704
#
#
#
# Elastic Compliance Matrix: (Units=1/GPa)
#
#
# Indices 1 2 3 4 5 6 
#
# 1 0.013413 -0.000429 -0.003977 0.000000 0.000330 0.000000
# 2 -0.000429 0.017998 -0.002199 0.000000 0.004849 0.000000
# 3 -0.003977 -0.002199 0.012512 0.000000 -0.002929 0.000000
# 4 0.000000 0.000000 0.000000 0.027592 0.000000 -0.001635
# 5 0.000330 0.004849 -0.002929 0.000000 0.025716 0.000000
# 6 0.000000 0.000000 0.000000 -0.001635 0.000000 0.041990
#
#
# Mechanical properties :
#
#
# Convention : Reuss Voigt Hill
#
# Bulk Modulus (GPa) = 32.55953 35.46136 34.01045
# Shear Modulus (GPa) = 30.73748 33.22633 31.98191
#
# Velocity S-wave (km/s) = 3.83227 3.98440 3.90907
# Velocity P-wave (km/s) = 5.92778 6.17337 6.05182
#
# Compressibility (1/GPa) = 0.03071297
#
# Stress axis : x y z
#
# Youngs Moduli (GPa) = 74.55631 55.56114 79.92328
#
# Poissons Ratio (x) = 0.02383 0.31789
# Poissons Ratio (y) = 0.03197 0.17572
# Poissons Ratio (z) = 0.29655 0.12216
#
# Static dielectric constant tensor:
#      x y z
#    x 1.756580 0.000000 0.032810 
#    y 0.000000 1.730330 0.000000 
#    z 0.032810 0.000000 1.764250 
# 
# From -- ./inp_files/213983.got.cif
#   From: 2010.05.17/outbox.cif.g08.bks.cpg/sg15_107_cif.got.tgz:213983.got - 2010.06.03 18:47:42.
