data_PCOD9295723
_publ_section_title
;
Structure prediction by ZEFSAII (Michael W. Deem and Ramdas Pophale) SiO2 
 PCOD9295723
Probable space group: C 2/C
;
_chemical_formula_sum "Si O2"
_cell_formula_units_Z 52
_cell_length_a 8.067679
_cell_length_b 26.874495
_cell_length_c 11.462922
_cell_angle_alpha 90.000000
_cell_angle_beta 62.618622
_cell_angle_gamma 90.000000
_cell_volume 2206.886833
_symmetry_space_group_name_H-M "C 2/C"
_symmetry_group_IT_number 15
_symmetry_cell_setting 'monoclinic'
loop_
_space_group_symop_operation_xyz
x,y,z
-x,y,1/2-z
-x,-y,-z
x,-y,1/2+z
1/2+x,1/2+y,z
1/2-x,1/2+y,1/2-z
1/2-x,1/2-y,-z
1/2+x,1/2-y,1/2+z
loop_
_atom_site_type_symbol
_atom_site_label
_atom_site_fract_x
_atom_site_fract_y
_atom_site_fract_z
Si Si1 0.000000 0.954347 0.750000
Si Si2 0.192588 0.773594 0.254087
Si Si3 0.294152 0.185986 0.086708
Si Si4 0.196015 0.471799 0.446557
Si Si5 0.601441 0.126440 0.837568
Si Si6 0.278547 0.905403 0.845610
Si Si7 0.388129 0.683747 0.115084
O O1 0.870331 0.922038 0.705696
O O2 0.857456 0.989994 0.863016
O O3 0.188037 0.744501 0.380107
O O4 0.254125 0.829946 0.243528
O O5 0.336839 0.741585 0.127872
O O6 0.000000 0.768812 0.250000
O O7 0.250142 0.167442 0.232309
O O8 0.100606 0.178329 0.081536
O O9 0.454432 0.155197 0.971382
O O10 0.184571 0.422691 0.368641
O O11 0.223430 0.451952 0.566854
O O12 0.000000 0.500000 0.500000
O O13 0.500000 0.112453 0.750000
O O14 0.500000 0.898913 0.750000
O O15 0.189148 0.857503 0.946248
#
# Coordination Sequence:
#
# PCOD9295723 Si02
#       7
#     4   8   8   8   8   8   8
#     4  12  28  50  80 110 152 200 260 326 398 460
#     4  10  23  43  68 106 153 192 244 301 380 459
#     4   9  21  44  68 102 146 189 246 294 377 448
#     4  12  30  50  76 111 153 204 261 329 392 449
#     4  12  28  46  74 108 154 202 251 317 380 459
#     4  12  24  47  81 112 149 193 259 323 389 466
#     4   9  20  41  73 107 137 190 245 305 369 460
#
# _framework density 23.562604
#
# number of rings (size 3 to 8) (size 9 to 14) (size 15 to 20)
#    0.923    0.308    1.538    3.692    7.538    4.308 
#    0.000    0.000    0.000    0.000    0.000    0.000 
#    0.000    0.000    0.000    0.000    0.000    0.000 
#
# Total GULP energy -145131.306453 kJ/mol
# GULP energy per Si atom -5581.973325 kJ/mol
# Density = 2.350897 g / cm^3
# Si number density = 23.562604 Si / 1000 Ang^3
#
#
#
# Elastic Constant Matrix: (Units=GPa)
#
#
# Indices 1 2 3 4 5 6 
#
# 1 144.0718 49.5017 29.6656 0.0000 4.6101 0.0000
# 2 49.5017 134.5890 15.3667 0.0000 9.2199 0.0000
# 3 29.6656 15.3667 46.2582 0.0000 -7.2584 0.0000
# 4 0.0000 0.0000 0.0000 7.5092 0.0000 49.8711
# 5 4.6101 9.2199 -7.2584 0.0000 28.3470 0.0000
# 6 0.0000 0.0000 0.0000 49.8711 0.0000 -76.8150
#
#
#
# Elastic Compliance Matrix: (Units=1/GPa)
#
#
# Indices 1 2 3 4 5 6 
#
# 1 0.008955 -0.002567 -0.005197 0.000000 -0.001952 0.000000
# 2 -0.002567 0.008767 -0.001717 0.000000 -0.002874 0.000000
# 3 -0.005197 -0.001717 0.026819 0.000000 0.008271 0.000000
# 4 0.000000 0.000000 0.000000 0.025071 0.000000 0.016277
# 5 -0.001952 -0.002874 0.008271 0.000000 0.038647 0.000000
# 6 0.000000 0.000000 0.000000 0.016277 0.000000 -0.002451
#
#
# Mechanical properties :
#
#
# Convention : Reuss Voigt Hill
#
# Bulk Modulus (GPa) = 39.09362 57.10969 48.10166
# Shear Modulus (GPa) = 37.51048 7.16724 22.33886
#
# Velocity S-wave (km/s) = 3.99425 1.74596 3.08241
# Velocity P-wave (km/s) = 6.15626 5.32490 5.75561
#
# Compressibility (1/GPa) = 0.02557962
#
# Stress axis : x y z
#
# Youngs Moduli (GPa) = 111.66417 114.06424 37.28735
#
# Poissons Ratio (x) = 0.29277 0.19378
# Poissons Ratio (y) = 0.28661 0.06403
# Poissons Ratio (z) = 0.58030 0.19587
#
# Static dielectric constant tensor:
#      x y z
#    x 1.920270 0.000000 0.036630 
#    y 0.000000 2.035320 0.000000 
#    z 0.036630 0.000000 2.038500 
# 
# From -- ./inp_files/81154.got.cif
#   From: 2010.05.17/outbox.cif.g08.bks.cpg/sg15_41_cif.got.tgz:81154.got - 2010.06.03 18:47:42.
