data_PCOD9295654
_publ_section_title
;
Structure prediction by ZEFSAII (Michael W. Deem and Ramdas Pophale) SiO2 
 PCOD9295654
Probable space group: C 2/C
;
_chemical_formula_sum "Si O2"
_cell_formula_units_Z 40
_cell_length_a 17.163684
_cell_length_b 17.702720
_cell_length_c 5.413674
_cell_angle_alpha 90.000000
_cell_angle_beta 90.634357
_cell_angle_gamma 90.000000
_cell_volume 1644.810962
_symmetry_space_group_name_H-M "C 2/C"
_symmetry_group_IT_number 15
_symmetry_cell_setting 'monoclinic'
loop_
_space_group_symop_operation_xyz
x,y,z
-x,y,1/2-z
-x,-y,-z
x,-y,1/2+z
1/2+x,1/2+y,z
1/2-x,1/2+y,1/2-z
1/2-x,1/2-y,-z
1/2+x,1/2-y,1/2+z
loop_
_atom_site_type_symbol
_atom_site_label
_atom_site_fract_x
_atom_site_fract_y
_atom_site_fract_z
Si Si1 0.911847 0.967268 0.982049
Si Si2 0.784351 0.304884 0.200056
Si Si3 0.500000 0.193179 0.250000
Si Si4 0.125135 0.203341 0.965849
Si Si5 0.669348 0.966497 0.297998
Si Si6 0.000000 0.591684 0.750000
O O1 0.874681 0.004633 0.737810
O O2 0.913104 0.876609 0.966706
O O3 0.000000 0.000000 0.000000
O O4 0.858859 0.263905 0.319321
O O5 0.712695 0.316444 0.385189
O O6 0.805827 0.385531 0.098134
O O7 0.750000 0.250000 0.000000
O O8 0.426100 0.250295 0.232409
O O9 0.500870 0.142367 0.498271
O O10 0.576215 0.960262 0.270047
O O11 0.695117 0.023150 0.514477
#
# Coordination Sequence:
#
# PCOD9295654 Si02
#       6
#     8   8   4   8   8   4
#     4  10  23  43  67 103 148 185 237 299 364 426
#     4  11  27  50  73 107 150 198 249 299 369 450
#     4  12  24  43  78 113 134 196 242 304 366 427
#     4  11  26  45  76 105 150 193 246 307 364 445
#     4  12  27  48  75 107 147 193 243 306 373 435
#     4  12  24  45  72 107 150 178 246 306 366 435
#
# _framework density 24.318902000000001
#
# number of rings (size 3 to 8) (size 9 to 14) (size 15 to 20)
#    0.000    0.800    2.000    4.200    8.400    3.200 
#    0.000    0.000    0.000    0.000    0.000    0.000 
#    0.000    0.000    0.000    0.000    0.000    0.000 
#
# Total GULP energy -111866.122380 kJ/mol
# GULP energy per Si atom -5593.306119 kJ/mol
# Density = 2.426355 g / cm^3
# Si number density = 24.318902 Si / 1000 Ang^3
#
#
#
# Elastic Constant Matrix: (Units=GPa)
#
#
# Indices 1 2 3 4 5 6 
#
# 1 50.7210 13.0034 22.6154 0.0000 19.1275 0.0000
# 2 13.0034 106.7688 40.1311 0.0000 16.5328 0.0000
# 3 22.6154 40.1311 154.8254 0.0000 12.3103 0.0000
# 4 0.0000 0.0000 0.0000 45.3941 0.0000 -0.2284
# 5 19.1275 16.5328 12.3103 0.0000 32.9701 0.0000
# 6 0.0000 0.0000 0.0000 -0.2284 0.0000 33.4042
#
#
#
# Elastic Compliance Matrix: (Units=1/GPa)
#
#
# Indices 1 2 3 4 5 6 
#
# 1 0.026295 0.000025 -0.002714 0.000000 -0.014254 0.000000
# 2 0.000025 0.011013 -0.002492 0.000000 -0.004606 0.000000
# 3 -0.002714 -0.002492 0.007499 0.000000 0.000024 0.000000
# 4 0.000000 0.000000 0.000000 0.022030 0.000000 0.000151
# 5 -0.014254 -0.004606 0.000024 0.000000 0.040901 0.000000
# 6 0.000000 0.000000 0.000000 0.000151 0.000000 0.029937
#
#
# Mechanical properties :
#
#
# Convention : Reuss Voigt Hill
#
# Bulk Modulus (GPa) = 29.03195 51.53500 40.28348
# Shear Modulus (GPa) = 31.34424 38.12471 34.73447
#
# Velocity S-wave (km/s) = 3.59400 3.96371 3.78337
# Velocity P-wave (km/s) = 5.40244 6.49503 5.97376
#
# Compressibility (1/GPa) = 0.03444481
#
# Stress axis : x y z
#
# Youngs Moduli (GPa) = 38.03043 90.80229 133.34524
#
# Poissons Ratio (x) = -0.00225 0.36190
# Poissons Ratio (y) = -0.00094 0.33229
# Poissons Ratio (z) = 0.10321 0.22627
#
# Static dielectric constant tensor:
#      x y z
#    x 1.900130 0.000000 0.017110 
#    y 0.000000 1.913090 0.000000 
#    z 0.017110 0.000000 1.758920 
# 
# From -- ./inp_files/9928.got.cif
#   From: 2010.05.17/outbox.cif.g08.bks.cpg/sg15_5_cif.got.tgz:9928.got - 2010.06.03 18:47:42.
