data_PCOD9295514
_publ_section_title
;
Structure prediction by ZEFSAII (Michael W. Deem and Ramdas Pophale) SiO2 
 PCOD9295514
Probable space group: C 2/C
;
_chemical_formula_sum "Si O2"
_cell_formula_units_Z 64
_cell_length_a 7.606337
_cell_length_b 30.770965
_cell_length_c 16.402444
_cell_angle_alpha 90.000000
_cell_angle_beta 136.394110
_cell_angle_gamma 90.000000
_cell_volume 2647.778682
_symmetry_space_group_name_H-M "C 2/C"
_symmetry_group_IT_number 15
_symmetry_cell_setting 'monoclinic'
loop_
_space_group_symop_operation_xyz
x,y,z
-x,y,1/2-z
-x,-y,-z
x,-y,1/2+z
1/2+x,1/2+y,z
1/2-x,1/2+y,1/2-z
1/2-x,1/2-y,-z
1/2+x,1/2-y,1/2+z
loop_
_atom_site_type_symbol
_atom_site_label
_atom_site_fract_x
_atom_site_fract_y
_atom_site_fract_z
Si Si1 0.351085 0.424015 0.881620
Si Si2 0.827467 0.854025 0.111418
Si Si3 0.242281 0.833976 0.713453
Si Si4 0.941676 0.435992 0.552337
Si Si5 0.997072 0.722322 0.435012
Si Si6 0.711402 0.292251 0.042184
Si Si7 0.741978 0.878181 0.376626
Si Si8 0.394434 0.489919 0.635406
O O1 0.332400 0.384294 0.810945
O O2 0.132917 0.424864 0.878487
O O3 0.389447 0.468606 0.847561
O O4 0.610632 0.412417 0.018116
O O5 0.000000 0.854593 0.250000
O O6 0.035305 0.858099 0.106893
O O7 0.650920 0.895929 0.034472
O O8 0.635978 0.812607 0.042140
O O9 0.500000 0.831699 0.750000
O O10 0.320321 0.809427 0.821436
O O11 0.037771 0.811091 0.586923
O O12 0.768996 0.477700 0.473302
O O13 0.219083 0.451853 0.616253
O O14 0.250000 0.750000 0.500000
O O15 0.817751 0.764543 0.385988
O O16 0.750000 0.250000 0.000000
O O17 0.864513 0.336027 0.110464
O O18 0.500000 0.897818 0.250000
O O19 0.500000 0.514663 0.750000
#
# Coordination Sequence:
#
# PCOD9295514 Si02
#       8
#     8   8   8   8   8   8   8   8
#     4  10  24  46  71 102 138 190 224 282 358 413
#     4  11  25  41  70  94 128 178 225 281 346 402
#     4  11  23  43  67  92 135 177 231 285 340 423
#     4  10  24  49  69 103 144 180 226 285 349 418
#     4  12  24  41  64  94 126 175 232 277 332 409
#     4  11  26  40  60  91 130 173 224 288 345 396
#     4  10  23  43  62  93 131 175 232 277 330 416
#     4  11  25  43  75 110 142 174 232 285 342 434
#
# _framework density 24.171203999999999
#
# number of rings (size 3 to 8) (size 9 to 14) (size 15 to 20)
#    0.000    1.250    2.500    2.250   10.500    1.000 
#    2.250    0.000    0.000    0.000    0.000    0.000 
#    0.000    0.000    0.000    0.000    0.000    0.000 
#
# Total GULP energy -178355.421538 kJ/mol
# GULP energy per Si atom -5573.606923 kJ/mol
# Density = 2.411619 g / cm^3
# Si number density = 24.171204 Si / 1000 Ang^3
#
#
#
# Elastic Constant Matrix: (Units=GPa)
#
#
# Indices 1 2 3 4 5 6 
#
# 1 16.6664 8.0284 3.9768 0.0000 -4.4538 0.0000
# 2 8.0284 81.7341 15.3718 0.0000 -5.1588 0.0000
# 3 3.9768 15.3718 104.9847 0.0000 -8.3169 0.0000
# 4 0.0000 0.0000 0.0000 38.3842 0.0000 -0.1939
# 5 -4.4538 -5.1588 -8.3169 0.0000 34.2102 0.0000
# 6 0.0000 0.0000 0.0000 -0.1939 0.0000 32.5254
#
#
#
# Elastic Compliance Matrix: (Units=1/GPa)
#
#
# Indices 1 2 3 4 5 6 
#
# 1 0.064968 -0.005722 -0.001041 0.000000 0.007342 0.000000
# 2 -0.005722 0.013159 -0.001643 0.000000 0.000840 0.000000
# 3 -0.001041 -0.001643 0.009967 0.000000 0.002040 0.000000
# 4 0.000000 0.000000 0.000000 0.026053 0.000000 0.000155
# 5 0.007342 0.000840 0.002040 0.000000 0.030809 0.000000
# 6 0.000000 0.000000 0.000000 0.000155 0.000000 0.030746
#
#
# Mechanical properties :
#
#
# Convention : Reuss Voigt Hill
#
# Bulk Modulus (GPa) = 14.02929 28.68215 21.35572
# Shear Modulus (GPa) = 23.11852 32.75783 27.93818
#
# Velocity S-wave (km/s) = 3.09601 3.68535 3.40346
# Velocity P-wave (km/s) = 4.31243 5.47733 4.92941
#
# Compressibility (1/GPa) = 0.07127944
#
# Stress axis : x y z
#
# Youngs Moduli (GPa) = 15.39219 75.99386 100.33250
#
# Poissons Ratio (x) = 0.43486 0.10449
# Poissons Ratio (y) = 0.08808 0.16489
# Poissons Ratio (z) = 0.01603 0.12489
#
# Static dielectric constant tensor:
#      x y z
#    x 2.112810 0.000000 -0.078500 
#    y 0.000000 1.836240 0.000000 
#    z -0.078500 0.000000 1.880230 
# 
# From -- ./inp_files/194252.got.cif
#   From: 2010.05.17/outbox.cif.g08.bks.cpg/sg15_98_cif.got.tgz:194252.got - 2010.06.03 18:47:42.
