data_PCOD9295508
_publ_section_title
;
Structure prediction by ZEFSAII (Michael W. Deem and Ramdas Pophale) SiO2 
 PCOD9295508
Probable space group: C 2/C
;
_chemical_formula_sum "Si O2"
_cell_formula_units_Z 44
_cell_length_a 18.390205
_cell_length_b 12.045322
_cell_length_c 9.807628
_cell_angle_alpha 90.000000
_cell_angle_beta 80.771582
_cell_angle_gamma 90.000000
_cell_volume 2144.426344
_symmetry_space_group_name_H-M "C 2/C"
_symmetry_group_IT_number 15
_symmetry_cell_setting 'monoclinic'
loop_
_space_group_symop_operation_xyz
x,y,z
-x,y,1/2-z
-x,-y,-z
x,-y,1/2+z
1/2+x,1/2+y,z
1/2-x,1/2+y,1/2-z
1/2-x,1/2-y,-z
1/2+x,1/2-y,1/2+z
loop_
_atom_site_type_symbol
_atom_site_label
_atom_site_fract_x
_atom_site_fract_y
_atom_site_fract_z
Si Si1 0.784822 0.581651 0.573654
Si Si2 0.016205 0.627928 0.527842
Si Si3 0.000000 0.250416 0.750000
Si Si4 0.881382 0.685840 0.761209
Si Si5 0.744431 0.668855 0.128743
Si Si6 0.841393 0.252576 0.850328
O O1 0.822248 0.603390 0.709539
O O2 0.760384 0.455356 0.576014
O O3 0.840383 0.638089 0.447693
O O4 0.713034 0.658357 0.578166
O O5 0.087400 0.645257 0.602869
O O6 0.000000 0.500000 0.500000
O O7 0.021856 0.681546 0.378211
O O8 0.950468 0.682574 0.637062
O O9 0.078292 0.198477 0.687984
O O10 0.836908 0.801895 0.786040
O O11 0.804523 0.705031 0.222178
O O12 0.750000 0.750000 0.000000
#
# Coordination Sequence:
#
# PCOD9295508 Si02
#       6
#     8   8   4   8   8   8
#     4  10  23  44  66  93 134 176 223 276 333 395
#     4  11  24  37  64  94 137 176 215 281 338 384
#     4  12  22  38  62  98 134 166 226 272 334 400
#     4  10  23  43  61  98 133 174 223 272 338 399
#     4  11  25  40  68  94 131 176 225 275 338 404
#     4  10  24  41  65  96 130 175 223 278 331 400
#
# _framework density 20.518308000000001
#
# number of rings (size 3 to 8) (size 9 to 14) (size 15 to 20)
#    0.000    1.455    1.818    2.182   12.727    0.000 
#    0.000    1.818    0.000    3.273    0.000    0.000 
#    0.000    0.000    0.000    0.000    0.000    0.000 
#
# Total GULP energy -122763.418863 kJ/mol
# GULP energy per Si atom -5580.155403 kJ/mol
# Density = 2.047161 g / cm^3
# Si number density = 20.518308 Si / 1000 Ang^3
#
#
#
# Elastic Constant Matrix: (Units=GPa)
#
#
# Indices 1 2 3 4 5 6 
#
# 1 137.8743 31.6297 30.6756 0.0000 -0.3106 0.0000
# 2 31.6297 106.2008 22.2626 0.0000 2.1257 0.0000
# 3 30.6756 22.2626 109.0294 0.0000 24.9245 0.0000
# 4 0.0000 0.0000 0.0000 16.4348 0.0000 4.2129
# 5 -0.3106 2.1257 24.9245 0.0000 52.5599 0.0000
# 6 0.0000 0.0000 0.0000 4.2129 0.0000 12.4567
#
#
#
# Elastic Compliance Matrix: (Units=1/GPa)
#
#
# Indices 1 2 3 4 5 6 
#
# 1 0.008198 -0.002012 -0.002159 0.000000 0.001154 0.000000
# 2 -0.002012 0.010349 -0.001625 0.000000 0.000340 0.000000
# 3 -0.002159 -0.001625 0.011327 0.000000 -0.005318 0.000000
# 4 0.000000 0.000000 0.000000 0.066622 0.000000 -0.022532
# 5 0.001154 0.000340 -0.005318 0.000000 0.021541 0.000000
# 6 0.000000 0.000000 0.000000 -0.022532 0.000000 0.087898
#
#
# Mechanical properties :
#
#
# Convention : Reuss Voigt Hill
#
# Bulk Modulus (GPa) = 54.70039 58.02670 56.36355
# Shear Modulus (GPa) = 22.35923 34.19273 28.27598
#
# Velocity S-wave (km/s) = 3.30467 4.08665 3.71628
# Velocity P-wave (km/s) = 6.42482 7.11403 6.77819
#
# Compressibility (1/GPa) = 0.01828141
#
# Stress axis : x y z
#
# Youngs Moduli (GPa) = 121.98748 96.62637 88.28490
#
# Poissons Ratio (x) = 0.19440 0.19064
# Poissons Ratio (y) = 0.24543 0.14345
# Poissons Ratio (z) = 0.26341 0.15701
#
# Static dielectric constant tensor:
#      x y z
#    x 1.806870 0.000000 -0.052210 
#    y 0.000000 1.690730 0.000000 
#    z -0.052210 0.000000 1.802210 
# 
# From -- ./inp_files/54409.got.cif
#   From: 2010.05.17/outbox.cif.g08.bks.cpg/sg15_28_cif.got.tgz:54409.got - 2010.06.03 18:47:42.
