data_PCOD9295519
_publ_section_title
;
Structure prediction by ZEFSAII (Michael W. Deem and Ramdas Pophale) SiO2 
 PCOD9295519
Probable space group: C 2/C
;
_chemical_formula_sum "Si O2"
_cell_formula_units_Z 52
_cell_length_a 25.206742
_cell_length_b 10.708618
_cell_length_c 12.983032
_cell_angle_alpha 90.000000
_cell_angle_beta 46.012887
_cell_angle_gamma 90.000000
_cell_volume 2521.475016
_symmetry_space_group_name_H-M "C 2/C"
_symmetry_group_IT_number 15
_symmetry_cell_setting 'monoclinic'
loop_
_space_group_symop_operation_xyz
x,y,z
-x,y,1/2-z
-x,-y,-z
x,-y,1/2+z
1/2+x,1/2+y,z
1/2-x,1/2+y,1/2-z
1/2-x,1/2-y,-z
1/2+x,1/2-y,1/2+z
loop_
_atom_site_type_symbol
_atom_site_label
_atom_site_fract_x
_atom_site_fract_y
_atom_site_fract_z
Si Si1 0.804223 0.893629 0.245880
Si Si2 0.486671 0.136697 0.644541
Si Si3 0.863338 0.198985 0.863126
Si Si4 0.114712 0.566497 0.306618
Si Si5 0.500000 0.442337 0.250000
Si Si6 0.769444 0.148568 0.189410
Si Si7 0.033076 0.102356 0.030692
O O1 0.801777 0.863810 0.371111
O O2 0.756483 0.790677 0.247810
O O3 0.796082 0.039994 0.231514
O O4 0.888320 0.853044 0.113093
O O5 0.500000 0.122549 0.750000
O O6 0.556244 0.092129 0.479328
O O7 0.480089 0.282424 0.624741
O O8 0.415533 0.060570 0.702780
O O9 0.881708 0.334810 0.792943
O O10 0.943629 0.135246 0.758003
O O11 0.830770 0.179984 0.020783
O O12 0.196468 0.581033 0.241767
O O13 0.548816 0.531947 0.115060
O O14 0.000000 0.000000 0.000000
#
# Coordination Sequence:
#
# PCOD9295519 Si02
#       7
#     8   8   8   8   4   8   8
#     4  11  23  43  63  97 133 175 223 275 326 407
#     4  11  23  40  68  96 133 169 216 281 339 389
#     4  11  23  43  68  95 132 177 226 272 338 407
#     4  10  23  43  62  99 134 170 222 272 332 407
#     4  12  22  38  66  94 122 172 230 260 334 394
#     4  11  24  44  67  94 138 181 222 276 340 400
#     4  12  22  41  65  90 134 171 217 282 324 397
#
# _framework density 20.62285
#
# number of rings (size 3 to 8) (size 9 to 14) (size 15 to 20)
#    0.000    0.923    6.923    1.846    1.077    3.692 
#    2.769    0.769    0.000    0.000    0.000    0.000 
#    0.000    0.000    0.000    0.000    0.000    0.000 
#
# Total GULP energy -144748.711123 kJ/mol
# GULP energy per Si atom -5567.258120 kJ/mol
# Density = 2.057591 g / cm^3
# Si number density = 20.622850 Si / 1000 Ang^3
#
#
#
# Elastic Constant Matrix: (Units=GPa)
#
#
# Indices 1 2 3 4 5 6 
#
# 1 31.4906 32.6658 4.0728 0.0000 8.0965 0.0000
# 2 32.6658 113.2233 19.4311 0.0000 9.6101 0.0000
# 3 4.0728 19.4311 72.6786 0.0000 -1.7051 0.0000
# 4 0.0000 0.0000 0.0000 26.7175 0.0000 -8.1418
# 5 8.0965 9.6101 -1.7051 0.0000 24.8087 0.0000
# 6 0.0000 0.0000 0.0000 -8.1418 0.0000 42.8355
#
#
#
# Elastic Compliance Matrix: (Units=1/GPa)
#
#
# Indices 1 2 3 4 5 6 
#
# 1 0.047902 -0.013019 0.000549 0.000000 -0.010553 0.000000
# 2 -0.013019 0.013159 -0.002813 0.000000 -0.001042 0.000000
# 3 0.000549 -0.002813 0.014525 0.000000 0.001909 0.000000
# 4 0.000000 0.000000 0.000000 0.039730 0.000000 0.007551
# 5 -0.010553 -0.001042 0.001909 0.000000 0.044287 0.000000
# 6 0.000000 0.000000 0.000000 0.007551 0.000000 0.024780
#
#
# Mechanical properties :
#
#
# Convention : Reuss Voigt Hill
#
# Bulk Modulus (GPa) = 22.21204 36.63688 29.42446
# Shear Modulus (GPa) = 21.74315 29.62053 25.68184
#
# Velocity S-wave (km/s) = 3.25056 3.79396 3.53272
# Velocity P-wave (km/s) = 4.98820 6.08243 5.56229
#
# Compressibility (1/GPa) = 0.04502064
#
# Stress axis : x y z
#
# Youngs Moduli (GPa) = 20.87588 75.99182 68.84508
#
# Poissons Ratio (x) = 0.98931 -0.03777
# Poissons Ratio (y) = 0.27178 0.19367
# Poissons Ratio (z) = -0.01145 0.21377
#
# Static dielectric constant tensor:
#      x y z
#    x 1.763020 0.000000 0.047680 
#    y 0.000000 1.846460 0.000000 
#    z 0.047680 0.000000 1.845850 
# 
# From -- ./inp_files/177335.got.cif
#   From: 2010.05.17/outbox.cif.g08.bks.cpg/sg15_89_cif.got.tgz:177335.got - 2010.06.03 18:47:42.
