data_PCOD9295206
_publ_section_title
;
Structure prediction by ZEFSAII (Michael W. Deem and Ramdas Pophale) SiO2 
 PCOD9295206
Probable space group: C 2/C
;
_chemical_formula_sum "Si O2"
_cell_formula_units_Z 40
_cell_length_a 10.567727
_cell_length_b 11.960865
_cell_length_c 16.562515
_cell_angle_alpha 90.000000
_cell_angle_beta 55.788452
_cell_angle_gamma 90.000000
_cell_volume 1731.245986
_symmetry_space_group_name_H-M "C 2/C"
_symmetry_group_IT_number 15
_symmetry_cell_setting 'monoclinic'
loop_
_space_group_symop_operation_xyz
x,y,z
-x,y,1/2-z
-x,-y,-z
x,-y,1/2+z
1/2+x,1/2+y,z
1/2-x,1/2+y,1/2-z
1/2-x,1/2-y,-z
1/2+x,1/2-y,1/2+z
loop_
_atom_site_type_symbol
_atom_site_label
_atom_site_fract_x
_atom_site_fract_y
_atom_site_fract_z
Si Si1 0.854699 0.714236 0.174305
Si Si2 0.855555 0.594499 0.462749
Si Si3 0.970667 0.833128 0.670009
Si Si4 0.076740 0.355220 0.019167
Si Si5 0.515480 0.437041 0.079697
O O1 0.710873 0.685652 0.280299
O O2 0.821281 0.661964 0.097172
O O3 0.017294 0.656293 0.136934
O O4 0.889734 0.844407 0.146567
O O5 0.871233 0.460586 0.447645
O O6 0.679590 0.624149 0.516920
O O7 0.914332 0.616908 0.533595
O O8 0.000000 0.792560 0.750000
O O9 0.061109 0.757040 0.574521
O O10 0.011235 0.962596 0.645047
O O11 0.500000 0.500000 0.000000
#
# Coordination Sequence:
#
# PCOD9295206 Si02
#       5
#     8   8   8   8   8
#     4  10  23  42  66  96 135 177 231 275 346 406
#     4   9  21  43  72  90 131 182 221 275 348 398
#     4  12  27  40  68 104 136 180 234 283 345 415
#     4   9  21  44  67  93 136 172 221 282 349 391
#     4  12  24  43  70  98 141 182 233 281 349 408
#
# _framework density 23.104745999999999
#
# number of rings (size 3 to 8) (size 9 to 14) (size 15 to 20)
#    1.200    0.400    2.000    1.800    5.600    1.600 
#    0.000    3.000    0.000    0.000    0.000    0.000 
#    0.000    0.000    0.000    0.000    0.000    0.000 
#
# Total GULP energy -111694.429672 kJ/mol
# GULP energy per Si atom -5584.721484 kJ/mol
# Density = 2.305216 g / cm^3
# Si number density = 23.104746 Si / 1000 Ang^3
#
#
#
# Elastic Constant Matrix: (Units=GPa)
#
#
# Indices 1 2 3 4 5 6 
#
# 1 68.6855 -12.8379 4.9548 0.0000 -23.1802 0.0000
# 2 -12.8379 102.9762 -0.3488 0.0000 -5.9780 0.0000
# 3 4.9548 -0.3488 54.8155 0.0000 -18.4841 0.0000
# 4 0.0000 0.0000 0.0000 21.7718 0.0000 -6.2077
# 5 -23.1802 -5.9780 -18.4841 0.0000 35.5539 0.0000
# 6 0.0000 0.0000 0.0000 -6.2077 0.0000 24.6045
#
#
#
# Elastic Compliance Matrix: (Units=1/GPa)
#
#
# Indices 1 2 3 4 5 6 
#
# 1 0.020192 0.003430 0.003432 0.000000 0.015526 0.000000
# 2 0.003430 0.010415 0.001335 0.000000 0.004682 0.000000
# 3 0.003432 0.001335 0.022762 0.000000 0.014296 0.000000
# 4 0.000000 0.000000 0.000000 0.049491 0.000000 0.012487
# 5 0.015526 0.004682 0.014296 0.000000 0.046468 0.000000
# 6 0.000000 0.000000 0.000000 0.012487 0.000000 0.043793
#
#
# Mechanical properties :
#
#
# Convention : Reuss Voigt Hill
#
# Bulk Modulus (GPa) = 14.33406 23.33482 18.83444
# Shear Modulus (GPa) = 25.00222 32.03330 28.51776
#
# Velocity S-wave (km/s) = 3.29314 3.72753 3.51705
# Velocity P-wave (km/s) = 4.54720 5.35233 4.96611
#
# Compressibility (1/GPa) = 0.06976390
#
# Stress axis : x y z
#
# Youngs Moduli (GPa) = 49.52342 96.01595 43.93306
#
# Poissons Ratio (x) = -0.32937 -0.15078
# Poissons Ratio (y) = -0.16988 -0.05865
# Poissons Ratio (z) = -0.16997 -0.12817
#
# Static dielectric constant tensor:
#      x y z
#    x 1.976330 0.000000 -0.021630 
#    y 0.000000 1.859360 0.000000 
#    z -0.021630 0.000000 1.834450 
# 
# From -- ./inp_files/195900.got.cif
#   From: 2010.05.17/outbox.cif.g08.bks.cpg/sg15_98_cif.got.tgz:195900.got - 2010.06.03 18:47:42.
