data_PCOD9295177
_publ_section_title
;
Structure prediction by ZEFSAII (Michael W. Deem and Ramdas Pophale) SiO2 
 PCOD9295177
Probable space group: C 2/C
;
_chemical_formula_sum "Si O2"
_cell_formula_units_Z 48
_cell_length_a 8.601980
_cell_length_b 20.523748
_cell_length_c 18.526275
_cell_angle_alpha 90.000000
_cell_angle_beta 135.159183
_cell_angle_gamma 90.000000
_cell_volume 2306.313100
_symmetry_space_group_name_H-M "C 2/C"
_symmetry_group_IT_number 15
_symmetry_cell_setting 'monoclinic'
loop_
_space_group_symop_operation_xyz
x,y,z
-x,y,1/2-z
-x,-y,-z
x,-y,1/2+z
1/2+x,1/2+y,z
1/2-x,1/2+y,1/2-z
1/2-x,1/2-y,-z
1/2+x,1/2-y,1/2+z
loop_
_atom_site_type_symbol
_atom_site_label
_atom_site_fract_x
_atom_site_fract_y
_atom_site_fract_z
Si Si1 0.137929 0.426317 0.689497
Si Si2 0.599038 0.443959 0.202405
Si Si3 0.361844 0.105026 0.480768
Si Si4 0.242410 0.676235 0.684927
Si Si5 0.705592 0.481316 0.519205
Si Si6 0.946727 0.808886 0.817163
O O1 0.270865 0.488698 0.761826
O O2 0.151194 0.422097 0.605623
O O3 0.248821 0.361206 0.754620
O O4 0.883210 0.439203 0.620544
O O5 0.500000 0.445924 0.250000
O O6 0.744959 0.379032 0.248323
O O7 0.401342 0.441925 0.081526
O O8 0.588462 0.142177 0.573698
O O9 0.160335 0.155949 0.421351
O O10 0.322963 0.044776 0.522628
O O11 0.500000 0.689095 0.750000
O O12 0.125944 0.742142 0.670617
O O13 0.500000 0.500000 0.500000
O O14 0.000000 0.798071 0.750000
#
# Coordination Sequence:
#
# PCOD9295177 Si02
#       6
#     8   8   8   8   8   8
#     4  11  20  42  70  89 126 175 223 254 316 401
#     4  11  20  40  67  92 125 168 220 258 313 394
#     4  11  21  43  69  92 124 174 224 261 311 402
#     4  11  24  39  63  96 129 166 211 266 323 378
#     4  12  25  37  61 106 130 157 210 284 331 358
#     4  10  23  42  66  91 125 177 218 259 319 386
#
# _framework density 20.812438
#
# number of rings (size 3 to 8) (size 9 to 14) (size 15 to 20)
#    0.000    1.000    5.000    3.500    0.000    3.333 
#    0.000    7.500    0.000    0.000    0.000    0.000 
#    0.000    0.000    0.000    0.000    0.000    0.000 
#
# Total GULP energy -134143.418851 kJ/mol
# GULP energy per Si atom -5589.309119 kJ/mol
# Density = 2.076507 g / cm^3
# Si number density = 20.812438 Si / 1000 Ang^3
#
#
#
# Elastic Constant Matrix: (Units=GPa)
#
#
# Indices 1 2 3 4 5 6 
#
# 1 62.4965 30.2510 20.8119 0.0000 16.3617 0.0000
# 2 30.2510 139.4530 46.5385 0.0000 15.0669 0.0000
# 3 20.8119 46.5385 120.9688 0.0000 31.0153 0.0000
# 4 0.0000 0.0000 0.0000 27.3634 0.0000 7.3095
# 5 16.3617 15.0669 31.0153 0.0000 25.7734 0.0000
# 6 0.0000 0.0000 0.0000 7.3095 0.0000 29.0552
#
#
#
# Elastic Compliance Matrix: (Units=1/GPa)
#
#
# Indices 1 2 3 4 5 6 
#
# 1 0.020539 -0.003447 0.000895 0.000000 -0.012101 0.000000
# 2 -0.003447 0.008843 -0.002957 0.000000 0.000577 0.000000
# 3 0.000895 -0.002957 0.012947 0.000000 -0.014420 0.000000
# 4 0.000000 0.000000 0.000000 0.039178 0.000000 -0.009856
# 5 -0.012101 0.000577 -0.014420 0.000000 0.063498 0.000000
# 6 0.000000 0.000000 0.000000 -0.009856 0.000000 0.036897
#
#
# Mechanical properties :
#
#
# Convention : Reuss Voigt Hill
#
# Bulk Modulus (GPa) = 31.93641 57.56903 44.75272
# Shear Modulus (GPa) = 24.58727 31.45952 28.02340
#
# Velocity S-wave (km/s) = 3.44084 3.89211 3.67341
# Velocity P-wave (km/s) = 5.58248 6.92235 6.28820
#
# Compressibility (1/GPa) = 0.03131222
#
# Stress axis : x y z
#
# Youngs Moduli (GPa) = 48.68713 113.08328 77.23527
#
# Poissons Ratio (x) = 0.38977 -0.06912
# Poissons Ratio (y) = 0.16781 0.22838
# Poissons Ratio (z) = -0.04357 0.33438
#
# Static dielectric constant tensor:
#      x y z
#    x 1.796960 0.000000 0.005560 
#    y 0.000000 1.737840 0.000000 
#    z 0.005560 0.000000 1.759480 
# 
# From -- ./inp_files/191934.got.cif
#   From: 2010.05.17/outbox.cif.g08.bks.cpg/sg15_96_cif.got.tgz:191934.got - 2010.06.03 18:47:42.
