data_PCOD9295043
_publ_section_title
;
Structure prediction by ZEFSAII (Michael W. Deem and Ramdas Pophale) SiO2 
 PCOD9295043
Probable space group: C 2/C
;
_chemical_formula_sum "Si O2"
_cell_formula_units_Z 40
_cell_length_a 10.795445
_cell_length_b 20.239211
_cell_length_c 9.734547
_cell_angle_alpha 90.000000
_cell_angle_beta 133.095670
_cell_angle_gamma 90.000000
_cell_volume 1553.101989
_symmetry_space_group_name_H-M "C 2/C"
_symmetry_group_IT_number 15
_symmetry_cell_setting 'monoclinic'
loop_
_space_group_symop_operation_xyz
x,y,z
-x,y,1/2-z
-x,-y,-z
x,-y,1/2+z
1/2+x,1/2+y,z
1/2-x,1/2+y,1/2-z
1/2-x,1/2-y,-z
1/2+x,1/2-y,1/2+z
loop_
_atom_site_type_symbol
_atom_site_label
_atom_site_fract_x
_atom_site_fract_y
_atom_site_fract_z
Si Si1 0.780107 0.212607 0.331243
Si Si2 0.000000 0.045254 0.750000
Si Si3 0.500000 0.881126 0.750000
Si Si4 0.843797 0.493017 0.041913
Si Si5 0.849591 0.155365 0.825273
Si Si6 0.702933 0.365501 0.908831
O O1 0.646764 0.164987 0.303490
O O2 0.752406 0.289650 0.336583
O O3 0.754302 0.197829 0.149469
O O4 0.969000 0.190458 0.510138
O O5 0.100129 0.089873 0.717241
O O6 0.849075 0.008082 0.553683
O O7 0.578468 0.933585 0.920844
O O8 0.000000 0.465994 0.250000
O O9 0.792948 0.430133 0.910971
O O10 0.759356 0.141050 0.901496
O O11 0.500000 0.374600 0.750000
#
# Coordination Sequence:
#
# PCOD9295043 Si02
#       6
#     8   4   4   8   8   8
#     4  11  24  42  65  94 131 171 217 269 321 386
#     4  12  23  44  68  96 133 170 214 274 326 382
#     4  10  23  42  62  98 127 160 222 262 318 386
#     4  10  23  42  67 100 129 170 217 268 325 390
#     4  11  25  41  66  95 127 175 216 265 329 380
#     4  10  23  44  65  93 133 172 214 267 325 386
#
# _framework density 25.754909999999999
#
# number of rings (size 3 to 8) (size 9 to 14) (size 15 to 20)
#    0.600    0.800    3.000    1.200    2.800    6.400 
#    0.000    0.000    0.000    0.000    0.000    0.000 
#    0.000    0.000    0.000    0.000    0.000    0.000 
#
# Total GULP energy -111592.983594 kJ/mol
# GULP energy per Si atom -5579.649180 kJ/mol
# Density = 2.569629 g / cm^3
# Si number density = 25.754910 Si / 1000 Ang^3
#
#
#
# Elastic Constant Matrix: (Units=GPa)
#
#
# Indices 1 2 3 4 5 6 
#
# 1 109.3476 33.6596 37.4871 0.0000 13.6069 0.0000
# 2 33.6596 107.8801 28.0660 0.0000 9.8331 0.0000
# 3 37.4871 28.0660 93.0291 0.0000 29.6712 0.0000
# 4 0.0000 0.0000 0.0000 -486.0986 0.0000 -231.8191
# 5 13.6069 9.8331 29.6712 0.0000 35.4297 0.0000
# 6 0.0000 0.0000 0.0000 -231.8191 0.0000 -108.8262
#
#
#
# Elastic Compliance Matrix: (Units=1/GPa)
#
#
# Indices 1 2 3 4 5 6 
#
# 1 0.011219 -0.002517 -0.003561 0.000000 -0.000628 0.000000
# 2 -0.002517 0.010627 -0.002128 0.000000 -0.000201 0.000000
# 3 -0.003561 -0.002128 0.016649 0.000000 -0.011984 0.000000
# 4 0.000000 0.000000 0.000000 0.129583 0.000000 -0.276034
# 5 -0.000628 -0.000201 -0.011984 0.000000 0.038558 0.000000
# 6 0.000000 0.000000 0.000000 -0.276034 0.000000 0.578812
#
#
# Mechanical properties :
#
#
# Convention : Reuss Voigt Hill
#
# Bulk Modulus (GPa) = 45.28433 56.52022 50.90228
# Shear Modulus (GPa) = 6.17880 -97.82942 -45.82531
#
# Velocity S-wave (km/s) = 1.55058 -6.16986 -4.22273
# Velocity P-wave (km/s) = 4.56363 5.36314 1.99205
#
# Compressibility (1/GPa) = 0.02208269
#
# Stress axis : x y z
#
# Youngs Moduli (GPa) = 89.13576 94.10309 60.06472
#
# Poissons Ratio (x) = 0.23683 0.21391
# Poissons Ratio (y) = 0.22432 0.12781
# Poissons Ratio (z) = 0.31744 0.20023
#
# Static dielectric constant tensor:
#      x y z
#    x 2.018410 0.000000 -0.083800 
#    y 0.000000 1.992140 0.000000 
#    z -0.083800 0.000000 2.055080 
# 
# From -- ./inp_files/89899.got.cif
#   From: 2010.05.17/outbox.cif.g08.bks.cpg/sg15_45_cif.got.tgz:89899.got - 2010.06.03 18:47:42.
