data_PCOD9295764
_publ_section_title
;
Structure prediction by ZEFSAII (Michael W. Deem and Ramdas Pophale) SiO2 
 PCOD9295764
Probable space group: C 2/C
;
_chemical_formula_sum "Si O2"
_cell_formula_units_Z 40
_cell_length_a 19.994348
_cell_length_b 9.297546
_cell_length_c 10.380190
_cell_angle_alpha 90.000000
_cell_angle_beta 100.821700
_cell_angle_gamma 90.000000
_cell_volume 1895.343733
_symmetry_space_group_name_H-M "C 2/C"
_symmetry_group_IT_number 15
_symmetry_cell_setting 'monoclinic'
loop_
_space_group_symop_operation_xyz
x,y,z
-x,y,1/2-z
-x,-y,-z
x,-y,1/2+z
1/2+x,1/2+y,z
1/2-x,1/2+y,1/2-z
1/2-x,1/2-y,-z
1/2+x,1/2-y,1/2+z
loop_
_atom_site_type_symbol
_atom_site_label
_atom_site_fract_x
_atom_site_fract_y
_atom_site_fract_z
Si Si1 0.039072 0.323245 0.393683
Si Si2 0.954798 0.670287 0.111572
Si Si3 0.319408 0.661601 0.058972
Si Si4 0.802749 0.718770 0.132732
Si Si5 0.712331 0.492645 0.197516
O O1 0.046304 0.496312 0.395780
O O2 0.113984 0.258006 0.430820
O O3 0.000000 0.280164 0.250000
O O4 0.992148 0.278779 0.496621
O O5 0.878574 0.722350 0.106958
O O6 0.000000 0.712759 0.250000
O O7 0.317043 0.597749 0.202749
O O8 0.250000 0.750000 0.000000
O O9 0.288541 0.661394 0.734705
O O10 0.784960 0.563099 0.187258
O O11 0.750000 0.750000 0.000000
O O12 0.823191 0.034903 0.952958
#
# Coordination Sequence:
#
# PCOD9295764 Si02
#       5
#     8   8   8   8   8
#     4  10  24  44  72 102 139 187 235 287 350 419
#     4  10  23  43  69 102 139 183 234 289 349 416
#     4  12  25  45  71 105 142 182 236 291 349 417
#     4  12  26  43  72 105 141 182 237 291 345 418
#     4  12  26  43  71 105 140 184 234 287 358 402
#
# _framework density 21.104351999999999
#
# number of rings (size 3 to 8) (size 9 to 14) (size 15 to 20)
#    0.000    0.800    4.000    2.400    2.800    1.600 
#    0.000    5.000    0.000    0.000    0.000    0.000 
#    0.000    0.000    0.000    0.000    0.000    0.000 
#
# Total GULP energy -111795.252153 kJ/mol
# GULP energy per Si atom -5589.762608 kJ/mol
# Density = 2.105632 g / cm^3
# Si number density = 21.104352 Si / 1000 Ang^3
#
#
#
# Elastic Constant Matrix: (Units=GPa)
#
#
# Indices 1 2 3 4 5 6 
#
# 1 204.3600 52.4722 102.5181 0.0000 0.4224 0.0000
# 2 52.4722 45.4853 31.3887 0.0000 -4.5281 0.0000
# 3 102.5181 31.3887 153.2573 0.0000 -24.7815 0.0000
# 4 0.0000 0.0000 0.0000 18.0999 0.0000 -2.8907
# 5 0.4224 -4.5281 -24.7815 0.0000 32.2828 0.0000
# 6 0.0000 0.0000 0.0000 -2.8907 0.0000 40.2722
#
#
#
# Elastic Compliance Matrix: (Units=1/GPa)
#
#
# Indices 1 2 3 4 5 6 
#
# 1 0.009929 -0.007920 -0.005960 0.000000 -0.005816 0.000000
# 2 -0.007920 0.031928 -0.000571 0.000000 0.004143 0.000000
# 3 -0.005960 -0.000571 0.012135 0.000000 0.009313 0.000000
# 4 0.000000 0.000000 0.000000 0.055890 0.000000 0.004012
# 5 -0.005816 0.004143 0.009313 0.000000 0.038782 0.000000
# 6 0.000000 0.000000 0.000000 0.004012 0.000000 0.025119
#
#
# Mechanical properties :
#
#
# Convention : Reuss Voigt Hill
#
# Bulk Modulus (GPa) = 39.85777 86.20674 63.03226
# Shear Modulus (GPa) = 23.69123 32.57921 28.13522
#
# Velocity S-wave (km/s) = 3.35412 3.93328 3.65519
# Velocity P-wave (km/s) = 5.82471 7.84628 6.90982
#
# Compressibility (1/GPa) = 0.02508921
#
# Stress axis : x y z
#
# Youngs Moduli (GPa) = 100.71771 31.32004 82.40871
#
# Poissons Ratio (x) = 0.24805 0.49115
# Poissons Ratio (y) = 0.79768 0.04709
# Poissons Ratio (z) = 0.60027 0.01790
#
# Static dielectric constant tensor:
#      x y z
#    x 1.696950 0.000000 -0.017890 
#    y 0.000000 1.796750 0.000000 
#    z -0.017890 0.000000 1.752870 
# 
# From -- ./inp_files/54735.got.cif
#   From: 2010.05.17/outbox.cif.g08.bks.cpg/sg15_28_cif.got.tgz:54735.got - 2010.06.03 18:47:42.
