data_PCOD9295167
_publ_section_title
;
Structure prediction by ZEFSAII (Michael W. Deem and Ramdas Pophale) SiO2 
 PCOD9295167
Probable space group: C 2/C
;
_chemical_formula_sum "Si O2"
_cell_formula_units_Z 60
_cell_length_a 18.026176
_cell_length_b 20.095811
_cell_length_c 11.870843
_cell_angle_alpha 90.000000
_cell_angle_beta 145.024511
_cell_angle_gamma 90.000000
_cell_volume 2464.997882
_symmetry_space_group_name_H-M "C 2/C"
_symmetry_group_IT_number 15
_symmetry_cell_setting 'monoclinic'
loop_
_space_group_symop_operation_xyz
x,y,z
-x,y,1/2-z
-x,-y,-z
x,-y,1/2+z
1/2+x,1/2+y,z
1/2-x,1/2+y,1/2-z
1/2-x,1/2-y,-z
1/2+x,1/2-y,1/2+z
loop_
_atom_site_type_symbol
_atom_site_label
_atom_site_fract_x
_atom_site_fract_y
_atom_site_fract_z
Si Si1 0.814889 0.604864 0.137324
Si Si2 0.570659 0.265268 0.684489
Si Si3 0.518263 0.408771 0.594174
Si Si4 0.234466 0.378137 0.166357
Si Si5 0.411633 0.544611 0.546669
Si Si6 0.000000 0.654825 0.750000
Si Si7 0.226067 0.731215 0.267857
Si Si8 0.529258 0.923394 0.061595
O O1 0.752034 0.671565 0.115827
O O2 0.953187 0.611056 0.365014
O O3 0.821658 0.589199 0.014725
O O4 0.730708 0.543436 0.079753
O O5 0.556440 0.341907 0.705963
O O6 0.597616 0.209202 0.813158
O O7 0.680725 0.271625 0.726096
O O8 0.426830 0.242308 0.457676
O O9 0.384476 0.394329 0.363472
O O10 0.489395 0.476519 0.622765
O O11 0.610802 0.424451 0.604608
O O12 0.226877 0.301056 0.124971
O O13 0.173074 0.399988 0.208525
O O14 0.500000 0.582219 0.750000
O O15 0.022261 0.605193 0.883815
O O16 0.500000 0.000000 0.000000
#
# Coordination Sequence:
#
# PCOD9295167 Si02
#       8
#     8   8   8   8   8   4   8   8
#     4  12  23  43  71 104 139 193 235 298 361 432
#     4  11  24  45  72 103 142 188 238 304 360 434
#     4  10  23  42  66 100 142 181 233 293 351 434
#     4  11  23  44  68 102 140 182 239 298 361 431
#     4  11  22  42  65 100 143 185 236 283 358 423
#     4  12  26  50  72 104 142 192 244 310 358 442
#     4  11  22  45  68 108 143 182 246 296 364 438
#     4  12  28  49  69 103 143 191 248 300 369 443
#
# _framework density 24.340793000000001
#
# number of rings (size 3 to 8) (size 9 to 14) (size 15 to 20)
#    0.000    0.800    5.333    1.600    2.800    0.533 
#    0.000    2.667    0.000    0.000    0.000    0.000 
#    0.000    0.000    0.000    0.000    0.000    0.000 
#
# Total GULP energy -167154.369855 kJ/mol
# GULP energy per Si atom -5571.812329 kJ/mol
# Density = 2.428539 g / cm^3
# Si number density = 24.340793 Si / 1000 Ang^3
#
#
#
# Elastic Constant Matrix: (Units=GPa)
#
#
# Indices 1 2 3 4 5 6 
#
# 1 145.0464 28.4621 26.4437 0.0000 -16.4251 0.0000
# 2 28.4621 109.7646 -9.1605 0.0000 -6.5252 0.0000
# 3 26.4437 -9.1605 32.7028 0.0000 -5.9262 0.0000
# 4 0.0000 0.0000 0.0000 23.1625 0.0000 -4.4263
# 5 -16.4251 -6.5252 -5.9262 0.0000 35.5684 0.0000
# 6 0.0000 0.0000 0.0000 -4.4263 0.0000 27.5869
#
#
#
# Elastic Compliance Matrix: (Units=1/GPa)
#
#
# Indices 1 2 3 4 5 6 
#
# 1 0.009147 -0.002877 -0.007767 0.000000 0.002402 0.000000
# 2 -0.002877 0.010406 0.005513 0.000000 0.001499 0.000000
# 3 -0.007767 0.005513 0.039117 0.000000 0.003942 0.000000
# 4 0.000000 0.000000 0.000000 0.044539 0.000000 0.007146
# 5 0.002402 0.001499 0.003942 0.000000 0.030156 0.000000
# 6 0.000000 0.000000 0.000000 0.007146 0.000000 0.037396
#
#
# Mechanical properties :
#
#
# Convention : Reuss Voigt Hill
#
# Bulk Modulus (GPa) = 20.65793 42.11160 31.38477
# Shear Modulus (GPa) = 25.36024 33.38146 29.37085
#
# Velocity S-wave (km/s) = 3.23132 3.70729 3.47746
# Velocity P-wave (km/s) = 4.73575 5.97191 5.38939
#
# Compressibility (1/GPa) = 0.04840756
#
# Stress axis : x y z
#
# Youngs Moduli (GPa) = 109.32597 96.10156 25.56402
#
# Poissons Ratio (x) = 0.27651 0.19855
# Poissons Ratio (y) = 0.31456 -0.14093
# Poissons Ratio (z) = 0.84913 -0.52980
#
# Static dielectric constant tensor:
#      x y z
#    x 1.952330 0.000000 0.017120 
#    y 0.000000 2.042410 0.000000 
#    z 0.017120 0.000000 2.018810 
# 
# From -- ./inp_files/107649.got.cif
#   From: 2010.05.17/outbox.cif.g08.bks.cpg/sg15_54_cif.got.tgz:107649.got - 2010.06.03 18:47:42.
