data_PCOD9295204
_publ_section_title
;
Structure prediction by ZEFSAII (Michael W. Deem and Ramdas Pophale) SiO2 
 PCOD9295204
Probable space group: C 2/C
;
_chemical_formula_sum "Si O2"
_cell_formula_units_Z 60
_cell_length_a 13.208180
_cell_length_b 14.525164
_cell_length_c 15.181364
_cell_angle_alpha 90.000000
_cell_angle_beta 79.820715
_cell_angle_gamma 90.000000
_cell_volume 2866.714624
_symmetry_space_group_name_H-M "C 2/C"
_symmetry_group_IT_number 15
_symmetry_cell_setting 'monoclinic'
loop_
_space_group_symop_operation_xyz
x,y,z
-x,y,1/2-z
-x,-y,-z
x,-y,1/2+z
1/2+x,1/2+y,z
1/2-x,1/2+y,1/2-z
1/2-x,1/2-y,-z
1/2+x,1/2-y,1/2+z
loop_
_atom_site_type_symbol
_atom_site_label
_atom_site_fract_x
_atom_site_fract_y
_atom_site_fract_z
Si Si1 0.074743 0.278132 0.417565
Si Si2 0.500000 0.144677 0.750000
Si Si3 0.370049 0.426016 0.581504
Si Si4 0.387049 0.962611 0.999700
Si Si5 0.356045 0.268542 0.036619
Si Si6 0.336423 0.987757 0.813095
Si Si7 0.605172 0.553389 0.070210
Si Si8 0.789260 0.606405 0.141217
O O1 0.139315 0.184517 0.414008
O O2 0.130900 0.369189 0.444034
O O3 0.041044 0.295091 0.323095
O O4 0.965257 0.271367 0.485989
O O5 0.404338 0.079990 0.794933
O O6 0.284982 0.482540 0.648145
O O7 0.365862 0.456839 0.479496
O O8 0.483294 0.446027 0.601698
O O9 0.376640 0.943334 0.897814
O O10 0.500000 0.000000 0.000000
O O11 0.322229 0.047639 0.049189
O O12 0.327527 0.211436 0.128218
O O13 0.250000 0.250000 0.000000
O O14 0.374297 0.375474 0.014380
O O15 0.341799 0.938074 0.718074
O O16 0.666805 0.591144 0.145744
#
# Coordination Sequence:
#
# PCOD9295204 Si02
#       8
#     8   4   8   8   8   8   8   8
#     4  11  23  40  65  96 130 173 220 275 333 395
#     4  12  24  40  68 102 132 174 232 274 326 406
#     4  10  23  42  66  96 130 177 221 272 335 396
#     4  12  21  40  65  93 135 170 216 276 332 388
#     4   9  19  35  64  95 126 172 218 268 331 392
#     4  12  24  40  66 100 131 175 221 275 338 392
#     4   9  20  42  67  90 134 175 220 267 335 399
#     4  11  20  38  65 100 129 169 221 277 327 396
#
# _framework density 20.929883
#
# number of rings (size 3 to 8) (size 9 to 14) (size 15 to 20)
#    0.000    1.333    5.333    0.000    1.867    4.267 
#    0.000    0.000    0.000    0.000    0.000    0.000 
#    0.000    0.000    0.000    0.000    0.000    0.000 
#
# Total GULP energy -167062.275355 kJ/mol
# GULP energy per Si atom -5568.742512 kJ/mol
# Density = 2.088225 g / cm^3
# Si number density = 20.929883 Si / 1000 Ang^3
#
#
#
# Elastic Constant Matrix: (Units=GPa)
#
#
# Indices 1 2 3 4 5 6 
#
# 1 91.0100 16.1857 10.1941 0.0000 -7.2345 0.0000
# 2 16.1857 92.9791 19.1807 0.0000 4.8781 0.0000
# 3 10.1941 19.1807 62.7557 0.0000 29.5790 0.0000
# 4 0.0000 0.0000 0.0000 6.1564 0.0000 16.2568
# 5 -7.2345 4.8781 29.5790 0.0000 39.0107 0.0000
# 6 0.0000 0.0000 0.0000 16.2568 0.0000 10.7604
#
#
#
# Elastic Compliance Matrix: (Units=1/GPa)
#
#
# Indices 1 2 3 4 5 6 
#
# 1 0.012172 -0.001559 -0.004134 0.000000 0.005587 0.000000
# 2 -0.001559 0.011770 -0.003912 0.000000 0.001206 0.000000
# 3 -0.004134 -0.003912 0.027906 0.000000 -0.021436 0.000000
# 4 0.000000 0.000000 0.000000 -0.054335 0.000000 0.082089
# 5 0.005587 0.001206 -0.021436 0.000000 0.042773 0.000000
# 6 0.000000 0.000000 0.000000 0.082089 0.000000 -0.031087
#
#
# Mechanical properties :
#
#
# Convention : Reuss Voigt Hill
#
# Bulk Modulus (GPa) = 30.63981 37.54063 34.09022
# Shear Modulus (GPa) = 127.25819 24.59779 75.92799
#
# Velocity S-wave (km/s) = 7.80603 3.43191 6.02960
# Velocity P-wave (km/s) = 9.79370 5.80339 8.04972
#
# Compressibility (1/GPa) = 0.03263728
#
# Stress axis : x y z
#
# Youngs Moduli (GPa) = 82.15402 84.95901 35.83473
#
# Poissons Ratio (x) = 0.13247 0.14814
# Poissons Ratio (y) = 0.12810 0.14020
# Poissons Ratio (z) = 0.33962 0.33240
#
# Static dielectric constant tensor:
#      x y z
#    x 1.699450 0.000000 -0.080000 
#    y 0.000000 1.803970 0.000000 
#    z -0.080000 0.000000 1.770740 
# 
# From -- ./inp_files/153944.got.cif
#   From: 2010.05.17/outbox.cif.g08.bks.cpg/sg15_77_cif.got.tgz:153944.got - 2010.06.03 18:47:42.
