data_PCOD9295585
_publ_section_title
;
Structure prediction by ZEFSAII (Michael W. Deem and Ramdas Pophale) SiO2 
 PCOD9295585
Probable space group: C 2/C
;
_chemical_formula_sum "Si O2"
_cell_formula_units_Z 56
_cell_length_a 17.419142
_cell_length_b 6.679964
_cell_length_c 26.732702
_cell_angle_alpha 90.000000
_cell_angle_beta 121.907009
_cell_angle_gamma 90.000000
_cell_volume 2640.607622
_symmetry_space_group_name_H-M "C 2/C"
_symmetry_group_IT_number 15
_symmetry_cell_setting 'monoclinic'
loop_
_space_group_symop_operation_xyz
x,y,z
-x,y,1/2-z
-x,-y,-z
x,-y,1/2+z
1/2+x,1/2+y,z
1/2-x,1/2+y,1/2-z
1/2-x,1/2-y,-z
1/2+x,1/2-y,1/2+z
loop_
_atom_site_type_symbol
_atom_site_label
_atom_site_fract_x
_atom_site_fract_y
_atom_site_fract_z
Si Si1 0.401836 0.514684 0.236030
Si Si2 0.674333 0.790675 0.363145
Si Si3 0.532655 0.810676 0.977523
Si Si4 0.171459 0.400873 0.774630
Si Si5 0.641916 0.779305 0.183010
Si Si6 0.625365 0.580369 0.538415
Si Si7 0.556692 0.839966 0.421062
O O1 0.500000 0.573343 0.250000
O O2 0.332542 0.579820 0.168309
O O3 0.379736 0.628819 0.279187
O O4 0.396418 0.282285 0.246161
O O5 0.648604 0.947096 0.310893
O O6 0.773939 0.852185 0.414931
O O7 0.606537 0.798956 0.386214
O O8 0.443543 0.670675 0.943685
O O9 0.568779 0.927965 0.941733
O O10 0.606049 0.655892 0.024992
O O11 0.500000 0.000000 0.000000
O O12 0.272063 0.310528 0.815619
O O13 0.167646 0.514822 0.720266
O O14 0.550651 0.806740 0.120789
O O15 0.596214 0.690940 0.476726
#
# Coordination Sequence:
#
# PCOD9295585 Si02
#       7
#     8   8   8   8   8   8   8
#     4  11  24  45  67  95 134 168 212 268 331 385
#     4  11  26  42  66  97 131 166 218 273 322 389
#     4   9  22  40  64  93 125 167 213 263 309 385
#     4  11  26  40  68  95 129 171 216 267 326 392
#     4  11  24  44  64 100 128 168 218 267 320 395
#     4  10  23  43  65  94 130 174 217 264 329 378
#     4  11  24  41  67  94 134 167 216 269 323 389
#
# _framework density 21.207242000000001
#
# number of rings (size 3 to 8) (size 9 to 14) (size 15 to 20)
#    0.000    1.429    2.857    0.429   10.000    4.000 
#    0.000    0.000    0.000    0.000    0.000    0.000 
#    0.000    0.000    0.000    0.000    0.000    0.000 
#
# Total GULP energy -156427.154643 kJ/mol
# GULP energy per Si atom -5586.684094 kJ/mol
# Density = 2.115897 g / cm^3
# Si number density = 21.207242 Si / 1000 Ang^3
#
#
#
# Elastic Constant Matrix: (Units=GPa)
#
#
# Indices 1 2 3 4 5 6 
#
# 1 56.8566 5.9339 0.3322 0.0000 -4.3109 0.0000
# 2 5.9339 98.1305 23.6780 0.0000 -8.6255 0.0000
# 3 0.3322 23.6780 72.4801 0.0000 11.1856 0.0000
# 4 0.0000 0.0000 0.0000 14.1945 0.0000 -0.0165
# 5 -4.3109 -8.6255 11.1856 0.0000 39.1046 0.0000
# 6 0.0000 0.0000 0.0000 -0.0165 0.0000 25.8481
#
#
#
# Elastic Compliance Matrix: (Units=1/GPa)
#
#
# Indices 1 2 3 4 5 6 
#
# 1 0.017818 -0.000906 -0.000061 0.000000 0.001782 0.000000
# 2 -0.000906 0.011625 -0.004367 0.000000 0.003713 0.000000
# 3 -0.000061 -0.004367 0.016083 0.000000 -0.005570 0.000000
# 4 0.000000 0.000000 0.000000 0.070450 0.000000 0.000045
# 5 0.001782 0.003713 -0.005570 0.000000 0.028181 0.000000
# 6 0.000000 0.000000 0.000000 0.000045 0.000000 0.038688
#
#
# Mechanical properties :
#
#
# Convention : Reuss Voigt Hill
#
# Bulk Modulus (GPa) = 28.68636 31.92838 30.30737
# Shear Modulus (GPa) = 24.37447 28.99764 26.68606
#
# Velocity S-wave (km/s) = 3.39388 3.70178 3.55117
# Velocity P-wave (km/s) = 5.37717 5.77572 5.58000
#
# Compressibility (1/GPa) = 0.03485977
#
# Stress axis : x y z
#
# Youngs Moduli (GPa) = 56.12256 86.01878 62.17605
#
# Poissons Ratio (x) = 0.07795 0.00377
# Poissons Ratio (y) = 0.05086 0.27151
# Poissons Ratio (z) = 0.00340 0.37562
#
# Static dielectric constant tensor:
#      x y z
#    x 1.758600 0.000000 -0.008870 
#    y 0.000000 1.784100 0.000000 
#    z -0.008870 0.000000 1.780780 
# 
# From -- ./inp_files/315137.got.cif
#   From: 2010.05.17/outbox.cif.g08.bks.cpg/sg15_158_cif.got.tgz:315137.got - 2010.06.03 18:47:42.
