data_PCOD9295237
_publ_section_title
;
Structure prediction by ZEFSAII (Michael W. Deem and Ramdas Pophale) SiO2 
 PCOD9295237
Probable space group: C 2/C
;
_chemical_formula_sum "Si O2"
_cell_formula_units_Z 48
_cell_length_a 28.465833
_cell_length_b 10.967813
_cell_length_c 16.272854
_cell_angle_alpha 90.000000
_cell_angle_beta 27.091566
_cell_angle_gamma 90.000000
_cell_volume 2313.736554
_symmetry_space_group_name_H-M "C 2/C"
_symmetry_group_IT_number 15
_symmetry_cell_setting 'monoclinic'
loop_
_space_group_symop_operation_xyz
x,y,z
-x,y,1/2-z
-x,-y,-z
x,-y,1/2+z
1/2+x,1/2+y,z
1/2-x,1/2+y,1/2-z
1/2-x,1/2-y,-z
1/2+x,1/2-y,1/2+z
loop_
_atom_site_type_symbol
_atom_site_label
_atom_site_fract_x
_atom_site_fract_y
_atom_site_fract_z
Si Si1 0.452936 0.596208 0.008116
Si Si2 0.721273 0.214824 0.675296
Si Si3 0.275178 0.436852 0.248212
Si Si4 0.114477 0.413291 0.097284
Si Si5 0.892568 0.485244 0.713710
Si Si6 0.156992 0.779747 0.203593
O O1 0.377820 0.695931 0.167060
O O2 0.373934 0.522364 0.072395
O O3 0.500000 0.500000 0.000000
O O4 0.554003 0.668209 0.819985
O O5 0.751122 0.165677 0.719184
O O6 0.814931 0.294850 0.493649
O O7 0.688195 0.090685 0.682842
O O8 0.176287 0.518310 0.427531
O O9 0.308149 0.372947 0.281435
O O10 0.101546 0.501679 0.196506
O O11 0.000000 0.376008 0.250000
O O12 0.863033 0.352406 0.728285
O O13 0.000000 0.500000 0.500000
O O14 0.250000 0.750000 0.000000
#
# Coordination Sequence:
#
# PCOD9295237 Si02
#       6
#     8   8   8   8   8   8
#     4   9  21  41  64  91 129 173 213 267 330 385
#     4  11  24  42  68  95 132 177 218 275 331 401
#     4  10  23  42  67  92 133 172 221 273 336 394
#     4  11  25  43  64  97 133 171 224 276 325 398
#     4  12  24  42  69  97 131 178 223 266 334 391
#     4  11  22  42  66  96 128 173 223 272 327 397
#
# _framework density 20.745663
#
# number of rings (size 3 to 8) (size 9 to 14) (size 15 to 20)
#    0.000    1.333    3.333    1.500    7.000    0.000 
#    3.000    0.000    0.000    0.000    0.000    0.000 
#    0.000    0.000    0.000    0.000    0.000    0.000 
#
# Total GULP energy -133840.905197 kJ/mol
# GULP energy per Si atom -5576.704383 kJ/mol
# Density = 2.069845 g / cm^3
# Si number density = 20.745663 Si / 1000 Ang^3
#
#
#
# Elastic Constant Matrix: (Units=GPa)
#
#
# Indices 1 2 3 4 5 6 
#
# 1 43.9135 1.6975 37.6659 0.0000 -15.9944 0.0000
# 2 1.6975 96.8138 42.7975 0.0000 -25.8403 0.0000
# 3 37.6659 42.7975 131.5313 0.0000 -34.4284 0.0000
# 4 0.0000 0.0000 0.0000 44.3069 0.0000 -8.3105
# 5 -15.9944 -25.8403 -34.4284 0.0000 32.7109 0.0000
# 6 0.0000 0.0000 0.0000 -8.3105 0.0000 39.8711
#
#
#
# Elastic Compliance Matrix: (Units=1/GPa)
#
#
# Indices 1 2 3 4 5 6 
#
# 1 0.034781 0.006758 -0.008709 0.000000 0.013178 0.000000
# 2 0.006758 0.014854 -0.003909 0.000000 0.010924 0.000000
# 3 -0.008709 -0.003909 0.013038 0.000000 0.006376 0.000000
# 4 0.000000 0.000000 0.000000 0.023488 0.000000 0.004896
# 5 0.013178 0.010924 0.006376 0.000000 0.052355 0.000000
# 6 0.000000 0.000000 0.000000 0.004896 0.000000 0.026101
#
#
# Mechanical properties :
#
#
# Convention : Reuss Voigt Hill
#
# Bulk Modulus (GPa) = 19.62656 48.50894 34.06775
# Shear Modulus (GPa) = 25.86352 36.05095 30.95723
#
# Velocity S-wave (km/s) = 3.53469 4.17317 3.86713
# Velocity P-wave (km/s) = 5.11271 6.83036 6.03298
#
# Compressibility (1/GPa) = 0.05095136
#
# Stress axis : x y z
#
# Youngs Moduli (GPa) = 28.75130 67.31987 76.70156
#
# Poissons Ratio (x) = -0.45492 0.66803
# Poissons Ratio (y) = -0.19429 0.29983
# Poissons Ratio (z) = 0.25041 0.26315
#
# Static dielectric constant tensor:
#      x y z
#    x 1.756020 0.000000 -0.012990 
#    y 0.000000 1.696630 0.000000 
#    z -0.012990 0.000000 1.679590 
# 
# From -- ./inp_files/177740.got.cif
#   From: 2010.05.17/outbox.cif.g08.bks.cpg/sg15_89_cif.got.tgz:177740.got - 2010.06.03 18:47:42.
