data_PCOD9295689
_publ_section_title
;
Structure prediction by ZEFSAII (Michael W. Deem and Ramdas Pophale) SiO2 
 PCOD9295689
Probable space group: C 2/C
;
_chemical_formula_sum "Si O2"
_cell_formula_units_Z 48
_cell_length_a 25.199395
_cell_length_b 4.967496
_cell_length_c 17.372411
_cell_angle_alpha 90.000000
_cell_angle_beta 62.812258
_cell_angle_gamma 90.000000
_cell_volume 1934.374661
_symmetry_space_group_name_H-M "C 2/C"
_symmetry_group_IT_number 15
_symmetry_cell_setting 'monoclinic'
loop_
_space_group_symop_operation_xyz
x,y,z
-x,y,1/2-z
-x,-y,-z
x,-y,1/2+z
1/2+x,1/2+y,z
1/2-x,1/2+y,1/2-z
1/2-x,1/2-y,-z
1/2+x,1/2-y,1/2+z
loop_
_atom_site_type_symbol
_atom_site_label
_atom_site_fract_x
_atom_site_fract_y
_atom_site_fract_z
Si Si1 0.731309 0.093419 0.661956
Si Si2 0.434946 0.178711 0.268492
Si Si3 0.130745 0.182466 0.126279
Si Si4 0.530059 0.801832 0.918834
Si Si5 0.405918 0.444913 0.506850
Si Si6 0.808401 0.590535 0.640395
O O1 0.691960 0.191535 0.616942
O O2 0.757133 0.793395 0.642354
O O3 0.693093 0.123150 0.766139
O O4 0.786984 0.292326 0.636225
O O5 0.500000 0.276133 0.250000
O O6 0.389327 0.425007 0.309524
O O7 0.441216 0.080133 0.176664
O O8 0.415690 0.926866 0.332821
O O9 0.128604 0.080212 0.040656
O O10 0.472610 0.623426 0.933007
O O11 0.579603 0.627315 0.929175
O O12 0.500000 0.000000 0.000000
O O13 0.368883 0.189077 0.561041
#
# Coordination Sequence:
#
# PCOD9295689 Si02
#       6
#     8   8   8   8   8   8
#     4  10  23  43  67  98 130 181 229 278 345 400
#     4  12  25  44  69  98 141 181 222 276 338 410
#     4  12  26  44  70 103 139 179 225 283 342 400
#     4  11  26  44  68 101 139 184 227 275 341 410
#     4  11  26  43  68 104 138 181 229 284 339 403
#     4  10  23  43  68  95 134 177 232 280 336 408
#
# _framework density 24.814222000000001
#
# number of rings (size 3 to 8) (size 9 to 14) (size 15 to 20)
#    0.000    1.000    1.667    3.500    9.333    2.667 
#    0.000    0.000    0.000    0.000    0.000    0.000 
#    0.000    0.000    0.000    0.000    0.000    0.000 
#
# Total GULP energy -134557.686350 kJ/mol
# GULP energy per Si atom -5606.570265 kJ/mol
# Density = 2.475774 g / cm^3
# Si number density = 24.814222 Si / 1000 Ang^3
#
#
#
# Elastic Constant Matrix: (Units=GPa)
#
#
# Indices 1 2 3 4 5 6 
#
# 1 109.4858 -16.2494 30.2256 -0.0020 -1.7963 -0.0151
# 2 -16.2494 56.9300 5.8450 -0.0273 -8.5651 0.0154
# 3 30.2256 5.8450 97.5018 0.0411 5.0078 0.0620
# 4 -0.0020 -0.0273 0.0411 34.0271 -0.0017 -12.6285
# 5 -1.7963 -8.5651 5.0078 -0.0017 30.3598 -0.0024
# 6 -0.0151 0.0154 0.0620 -12.6285 -0.0024 39.2547
#
#
#
# Elastic Compliance Matrix: (Units=1/GPa)
#
#
# Indices 1 2 3 4 5 6 
#
# 1 0.010750 0.003794 -0.003679 0.000013 0.002313 0.000013
# 2 0.003794 0.019868 -0.002689 0.000022 0.006273 0.000005
# 3 -0.003679 -0.002689 0.011707 -0.000027 -0.002907 -0.000028
# 4 0.000013 0.000022 -0.000027 0.033373 0.000014 0.010736
# 5 0.002313 0.006273 -0.002907 0.000014 0.035325 0.000010
# 6 0.000013 0.000005 -0.000028 0.010736 0.000010 0.028929
#
#
# Mechanical properties :
#
#
# Convention : Reuss Voigt Hill
#
# Bulk Modulus (GPa) = 26.89794 33.72889 30.31342
# Shear Modulus (GPa) = 31.74747 37.00142 34.37444
#
# Velocity S-wave (km/s) = 3.58076 3.86571 3.72596
# Velocity P-wave (km/s) = 5.28763 5.79198 5.54554
#
# Compressibility (1/GPa) = 0.03717756
#
# Stress axis : x y z
#
# Youngs Moduli (GPa) = 93.02071 50.33134 85.41713
#
# Poissons Ratio (x) = -0.19097 0.31424
# Poissons Ratio (y) = -0.35294 0.22973
# Poissons Ratio (z) = 0.34221 0.13536
#
# Static dielectric constant tensor:
#      x y z
#    x 1.974900 -0.000020 -0.008460 
#    y -0.000020 1.947340 -0.000030 
#    z -0.008460 -0.000030 1.938960 
# 
# From -- ./inp_files/220832.got.cif
#   From: 2010.05.17/outbox.cif.g08.bks.cpg/sg15_111_cif.got.tgz:220832.got - 2010.06.03 18:47:42.
