data_PCOD9295130
_publ_section_title
;
Structure prediction by ZEFSAII (Michael W. Deem and Ramdas Pophale) SiO2 
 PCOD9295130
Probable space group: C 2/C
;
_chemical_formula_sum "Si O2"
_cell_formula_units_Z 44
_cell_length_a 22.464883
_cell_length_b 18.067854
_cell_length_c 13.465533
_cell_angle_alpha 90.000000
_cell_angle_beta 159.103796
_cell_angle_gamma 90.000000
_cell_volume 1949.432928
_symmetry_space_group_name_H-M "C 2/C"
_symmetry_group_IT_number 15
_symmetry_cell_setting 'monoclinic'
loop_
_space_group_symop_operation_xyz
x,y,z
-x,y,1/2-z
-x,-y,-z
x,-y,1/2+z
1/2+x,1/2+y,z
1/2-x,1/2+y,1/2-z
1/2-x,1/2-y,-z
1/2+x,1/2-y,1/2+z
loop_
_atom_site_type_symbol
_atom_site_label
_atom_site_fract_x
_atom_site_fract_y
_atom_site_fract_z
Si Si1 0.144430 0.448529 0.687350
Si Si2 0.500000 0.637997 0.250000
Si Si3 0.771746 0.242514 0.209593
Si Si4 0.736415 0.575015 0.331457
Si Si5 0.650497 0.778163 0.748016
Si Si6 0.427425 0.502037 0.255711
O O1 0.139408 0.448490 0.561065
O O2 0.136926 0.366714 0.719834
O O3 0.000000 0.500000 0.500000
O O4 0.328147 0.476185 0.004549
O O5 0.658663 0.691502 0.490957
O O6 0.507886 0.582325 0.356374
O O7 0.726884 0.161356 0.097180
O O8 0.734693 0.242872 0.271965
O O9 0.962045 0.251600 0.472670
O O10 0.724085 0.522731 0.406165
O O11 0.549189 0.558521 0.993763
O O12 0.750000 0.750000 0.000000
#
# Coordination Sequence:
#
# PCOD9295130 Si02
#       6
#     8   4   8   8   8   8
#     4  11  23  41  63  94 133 167 221 276 325 393
#     4  12  24  40  72 102 140 174 230 286 338 412
#     4  11  25  44  67 101 138 178 228 281 350 403
#     4  10  23  42  65  89 130 178 216 266 340 400
#     4  11  24  44  68  97 137 180 227 280 338 408
#     4  11  22  42  67  93 129 179 222 266 339 402
#
# _framework density 22.570665999999999
#
# number of rings (size 3 to 8) (size 9 to 14) (size 15 to 20)
#    0.000    1.091    1.818    3.818    0.000   10.909 
#    3.273    0.000    0.000    0.000    0.000    0.000 
#    0.000    0.000    0.000    0.000    0.000    0.000 
#
# Total GULP energy -122870.297572 kJ/mol
# GULP energy per Si atom -5585.013526 kJ/mol
# Density = 2.251929 g / cm^3
# Si number density = 22.570666 Si / 1000 Ang^3
#
#
#
# Elastic Constant Matrix: (Units=GPa)
#
#
# Indices 1 2 3 4 5 6 
#
# 1 76.5385 23.9312 -12.2200 0.0000 11.4721 0.0000
# 2 23.9312 104.1633 7.1881 0.0000 10.5911 0.0000
# 3 -12.2200 7.1881 56.3400 0.0000 13.4801 0.0000
# 4 0.0000 0.0000 0.0000 43.0818 0.0000 14.5718
# 5 11.4721 10.5911 13.4801 0.0000 39.5411 0.0000
# 6 0.0000 0.0000 0.0000 14.5718 0.0000 29.4674
#
#
#
# Elastic Compliance Matrix: (Units=1/GPa)
#
#
# Indices 1 2 3 4 5 6 
#
# 1 0.015772 -0.003429 0.005154 0.000000 -0.005415 0.000000
# 2 -0.003429 0.010639 -0.001804 0.000000 -0.001240 0.000000
# 3 0.005154 -0.001804 0.021057 0.000000 -0.008191 0.000000
# 4 0.000000 0.000000 0.000000 0.027874 0.000000 -0.013784
# 5 -0.005415 -0.001240 -0.008191 0.000000 0.029985 0.000000
# 6 0.000000 0.000000 0.000000 -0.013784 0.000000 0.040752
#
#
# Mechanical properties :
#
#
# Convention : Reuss Voigt Hill
#
# Bulk Modulus (GPa) = 21.13758 30.53780 25.83769
# Shear Modulus (GPa) = 30.86290 36.96088 33.91189
#
# Velocity S-wave (km/s) = 3.70184 4.05107 3.88038
# Velocity P-wave (km/s) = 5.25898 5.95322 5.61683
#
# Compressibility (1/GPa) = 0.04730911
#
# Stress axis : x y z
#
# Youngs Moduli (GPa) = 63.40446 93.99740 47.48978
#
# Poissons Ratio (x) = 0.32228 -0.24475
# Poissons Ratio (y) = 0.21739 0.08569
# Poissons Ratio (z) = -0.32677 0.16961
#
# Static dielectric constant tensor:
#      x y z
#    x 1.965690 0.000000 0.009480 
#    y 0.000000 1.854610 0.000000 
#    z 0.009480 0.000000 1.859300 
# 
# From -- ./inp_files/174274.got.cif
#   From: 2010.05.17/outbox.cif.g08.bks.cpg/sg15_88_cif.got.tgz:174274.got - 2010.06.03 18:47:42.
