data_PCOD9295869
_publ_section_title
;
Structure prediction by ZEFSAII (Michael W. Deem and Ramdas Pophale) SiO2 
 PCOD9295869
Probable space group: C 2/C
;
_chemical_formula_sum "Si O2"
_cell_formula_units_Z 44
_cell_length_a 18.501690
_cell_length_b 6.820243
_cell_length_c 20.754605
_cell_angle_alpha 90.000000
_cell_angle_beta 129.307834
_cell_angle_gamma 90.000000
_cell_volume 2026.415058
_symmetry_space_group_name_H-M "C 2/C"
_symmetry_group_IT_number 15
_symmetry_cell_setting 'monoclinic'
loop_
_space_group_symop_operation_xyz
x,y,z
-x,y,1/2-z
-x,-y,-z
x,-y,1/2+z
1/2+x,1/2+y,z
1/2-x,1/2+y,1/2-z
1/2-x,1/2-y,-z
1/2+x,1/2-y,1/2+z
loop_
_atom_site_type_symbol
_atom_site_label
_atom_site_fract_x
_atom_site_fract_y
_atom_site_fract_z
Si Si1 0.317718 0.756421 0.598644
Si Si2 0.643374 0.603253 0.195154
Si Si3 0.197617 0.435445 0.139162
Si Si4 0.597924 0.069270 0.771425
Si Si5 0.000000 0.500000 0.500000
Si Si6 0.005821 0.249572 0.630519
O O1 0.250000 0.750000 0.500000
O O2 0.272091 0.616945 0.626583
O O3 0.331109 0.972821 0.637589
O O4 0.419685 0.700067 0.629372
O O5 0.742880 0.505192 0.265656
O O6 0.644500 0.738445 0.132804
O O7 0.562275 0.444605 0.144942
O O8 0.628726 0.746081 0.247722
O O9 0.111244 0.570919 0.071160
O O10 0.500000 0.118746 0.750000
O O11 0.573653 0.891812 0.709213
O O12 0.027340 0.625374 0.449675
#
# Coordination Sequence:
#
# PCOD9295869 Si02
#       6
#     8   8   8   8   4   8
#     4  11  23  46  70 104 141 185 228 307 354 425
#     4  12  25  47  75 104 135 205 233 295 360 441
#     4  12  25  43  72  99 145 177 246 289 360 425
#     4  10  23  43  71 104 140 182 239 292 354 435
#     4  12  24  46  64 110 138 180 232 310 340 432
#     4  11  24  46  74  98 148 179 240 294 358 427
#
# _framework density 21.713221999999998
#
# number of rings (size 3 to 8) (size 9 to 14) (size 15 to 20)
#    0.000    0.727    5.455    2.182    2.545    0.727 
#    3.273    0.909    0.000    0.000    0.000    0.000 
#    0.000    0.000    0.000    0.000    0.000    0.000 
#
# Total GULP energy -122487.363545 kJ/mol
# GULP energy per Si atom -5567.607434 kJ/mol
# Density = 2.166380 g / cm^3
# Si number density = 21.713222 Si / 1000 Ang^3
#
#
#
# Elastic Constant Matrix: (Units=GPa)
#
#
# Indices 1 2 3 4 5 6 
#
# 1 120.7101 25.5755 -8.8319 0.0000 -8.3800 0.0000
# 2 25.5755 55.5803 5.1681 0.0000 -9.7169 0.0000
# 3 -8.8319 5.1681 73.2300 0.0000 -13.0172 0.0000
# 4 0.0000 0.0000 0.0000 18.4170 0.0000 -6.1285
# 5 -8.3800 -9.7169 -13.0172 0.0000 30.7562 0.0000
# 6 0.0000 0.0000 0.0000 -6.1285 0.0000 44.2485
#
#
#
# Elastic Compliance Matrix: (Units=1/GPa)
#
#
# Indices 1 2 3 4 5 6 
#
# 1 0.009436 -0.004156 0.001790 0.000000 0.002015 0.000000
# 2 -0.004156 0.020880 -0.001085 0.000000 0.005005 0.000000
# 3 0.001790 -0.001085 0.015111 0.000000 0.006540 0.000000
# 4 0.000000 0.000000 0.000000 0.056921 0.000000 0.007884
# 5 0.002015 0.005005 0.006540 0.000000 0.037412 0.000000
# 6 0.000000 0.000000 0.000000 0.007884 0.000000 0.023692
#
#
# Mechanical properties :
#
#
# Convention : Reuss Voigt Hill
#
# Bulk Modulus (GPa) = 25.95820 32.59376 29.27598
# Shear Modulus (GPa) = 27.29326 33.85827 30.57576
#
# Velocity S-wave (km/s) = 3.54925 3.95313 3.75662
# Velocity P-wave (km/s) = 5.36444 5.98999 5.68582
#
# Compressibility (1/GPa) = 0.03852347
#
# Stress axis : x y z
#
# Youngs Moduli (GPa) = 105.98055 47.89200 66.17886
#
# Poissons Ratio (x) = 0.19904 -0.11843
# Poissons Ratio (y) = 0.44045 0.07181
# Poissons Ratio (z) = -0.18965 0.05197
#
# Static dielectric constant tensor:
#      x y z
#    x 1.801290 0.000000 0.064360 
#    y 0.000000 1.778690 0.000000 
#    z 0.064360 0.000000 1.785370 
# 
# From -- ./inp_files/275916.got.cif
#   From: 2010.05.17/outbox.cif.g08.bks.cpg/sg15_138_cif.got.tgz:275916.got - 2010.06.03 18:47:42.
