data_PCOD9295952
_publ_section_title
;
Structure prediction by ZEFSAII (Michael W. Deem and Ramdas Pophale) SiO2 
 PCOD9295952
Probable space group: C 2/C
;
_chemical_formula_sum "Si O2"
_cell_formula_units_Z 40
_cell_length_a 9.242905
_cell_length_b 13.771701
_cell_length_c 14.700270
_cell_angle_alpha 90.000000
_cell_angle_beta 113.685585
_cell_angle_gamma 90.000000
_cell_volume 1713.581661
_symmetry_space_group_name_H-M "C 2/C"
_symmetry_group_IT_number 15
_symmetry_cell_setting 'monoclinic'
loop_
_space_group_symop_operation_xyz
x,y,z
-x,y,1/2-z
-x,-y,-z
x,-y,1/2+z
1/2+x,1/2+y,z
1/2-x,1/2+y,1/2-z
1/2-x,1/2-y,-z
1/2+x,1/2-y,1/2+z
loop_
_atom_site_type_symbol
_atom_site_label
_atom_site_fract_x
_atom_site_fract_y
_atom_site_fract_z
Si Si1 0.698999 0.015543 0.059817
Si Si2 0.335166 0.903419 0.264107
Si Si3 0.514066 0.130153 0.396147
Si Si4 0.226912 0.699692 0.311647
Si Si5 0.948755 0.029919 0.387530
O O1 0.641327 0.954486 0.132607
O O2 0.884644 0.025235 0.121804
O O3 0.605504 0.118003 0.048142
O O4 0.643417 0.952884 0.958097
O O5 0.500000 0.904455 0.250000
O O6 0.272057 0.796426 0.271256
O O7 0.190137 0.958718 0.179446
O O8 0.628899 0.212659 0.381510
O O9 0.383106 0.133166 0.281949
O O10 0.382034 0.638132 0.369258
O O11 0.000000 0.000000 0.500000
#
# Coordination Sequence:
#
# PCOD9295952 Si02
#       5
#     8   8   8   8   8
#     4  11  24  44  74 105 140 188 244 299 369 439
#     4  12  29  46  70 107 146 193 250 303 367 438
#     4  10  23  43  75  98 140 188 237 292 373 427
#     4  11  25  47  71 102 147 193 237 302 366 432
#     4  12  26  47  74 107 143 189 247 303 369 439
#
# _framework density 23.342919999999999
#
# number of rings (size 3 to 8) (size 9 to 14) (size 15 to 20)
#    0.000    0.800    4.000    1.800   11.200    2.400 
#    0.000    2.000    0.000    0.000    0.000    0.000 
#    0.000    0.000    0.000    0.000    0.000    0.000 
#
# Total GULP energy -111365.423254 kJ/mol
# GULP energy per Si atom -5568.271163 kJ/mol
# Density = 2.328979 g / cm^3
# Si number density = 23.342920 Si / 1000 Ang^3
#
#
#
# Elastic Constant Matrix: (Units=GPa)
#
#
# Indices 1 2 3 4 5 6 
#
# 1 211.2714 50.5218 31.1836 0.0000 22.8286 0.0000
# 2 50.5218 84.6966 27.4064 0.0000 6.8066 0.0000
# 3 31.1836 27.4064 106.0773 0.0000 21.3228 0.0000
# 4 0.0000 0.0000 0.0000 14.7679 0.0000 -8.8116
# 5 22.8286 6.8066 21.3228 0.0000 46.3845 0.0000
# 6 0.0000 0.0000 0.0000 -8.8116 0.0000 33.1124
#
#
#
# Elastic Compliance Matrix: (Units=1/GPa)
#
#
# Indices 1 2 3 4 5 6 
#
# 1 0.005784 -0.003128 -0.000454 0.000000 -0.002179 0.000000
# 2 -0.003128 0.014582 -0.003005 0.000000 0.000781 0.000000
# 3 -0.000454 -0.003005 0.011242 0.000000 -0.004504 0.000000
# 4 0.000000 0.000000 0.000000 0.080496 0.000000 0.021421
# 5 -0.002179 0.000781 -0.004504 0.000000 0.024587 0.000000
# 6 0.000000 0.000000 0.000000 0.021421 0.000000 0.035901
#
#
# Mechanical properties :
#
#
# Convention : Reuss Voigt Hill
#
# Bulk Modulus (GPa) = 54.24740 68.91879 61.58310
# Shear Modulus (GPa) = 26.05385 38.38184 32.21785
#
# Velocity S-wave (km/s) = 3.34448 4.05935 3.71913
# Velocity P-wave (km/s) = 6.18093 7.18051 6.69939
#
# Compressibility (1/GPa) = 0.01843406
#
# Stress axis : x y z
#
# Youngs Moduli (GPa) = 172.89990 68.57635 88.95030
#
# Poissons Ratio (x) = 0.21450 0.04040
# Poissons Ratio (y) = 0.54082 0.26729
# Poissons Ratio (z) = 0.07852 0.20607
#
# Static dielectric constant tensor:
#      x y z
#    x 2.046410 0.000000 -0.016670 
#    y 0.000000 2.002560 0.000000 
#    z -0.016670 0.000000 1.885160 
# 
# From -- ./inp_files/133086.got.cif
#   From: 2010.05.17/outbox.cif.g08.bks.cpg/sg15_67_cif.got.tgz:133086.got - 2010.06.03 18:47:42.
