data_PCOD9295498
_publ_section_title
;
Structure prediction by ZEFSAII (Michael W. Deem and Ramdas Pophale) SiO2 
 PCOD9295498
Probable space group: C 2/C
;
_chemical_formula_sum "Si O2"
_cell_formula_units_Z 44
_cell_length_a 9.240842
_cell_length_b 13.122326
_cell_length_c 23.273325
_cell_angle_alpha 90.000000
_cell_angle_beta 130.660825
_cell_angle_gamma 90.000000
_cell_volume 2140.830096
_symmetry_space_group_name_H-M "C 2/C"
_symmetry_group_IT_number 15
_symmetry_cell_setting 'monoclinic'
loop_
_space_group_symop_operation_xyz
x,y,z
-x,y,1/2-z
-x,-y,-z
x,-y,1/2+z
1/2+x,1/2+y,z
1/2-x,1/2+y,1/2-z
1/2-x,1/2-y,-z
1/2+x,1/2-y,1/2+z
loop_
_atom_site_type_symbol
_atom_site_label
_atom_site_fract_x
_atom_site_fract_y
_atom_site_fract_z
Si Si1 0.466494 0.956490 0.852035
Si Si2 0.710955 0.291832 0.815812
Si Si3 0.500000 0.906452 0.250000
Si Si4 0.328512 0.633600 0.509354
Si Si5 0.607738 0.246554 0.016185
Si Si6 0.662599 0.933366 0.073883
O O1 0.360661 0.849289 0.814753
O O2 0.666694 0.927930 0.933417
O O3 0.498977 0.024550 0.805507
O O4 0.329712 0.016952 0.861692
O O5 0.500000 0.335707 0.750000
O O6 0.677990 0.172294 0.795607
O O7 0.785845 0.301784 0.900673
O O8 0.250000 0.750000 0.500000
O O9 0.514638 0.650922 0.518547
O O10 0.336939 0.580101 0.574293
O O11 0.750000 0.250000 0.000000
O O12 0.435197 0.177196 0.948469
O O13 0.500000 0.000000 0.000000
#
# Coordination Sequence:
#
# PCOD9295498 Si02
#       6
#     8   8   4   8   8   8
#     4  11  20  45  65  89 132 178 214 276 336 382
#     4  10  23  43  59  88 140 170 210 270 324 399
#     4  10  26  42  60  94 138 178 216 268 320 408
#     4   9  18  36  67  94 121 163 217 279 327 385
#     4  11  20  37  64  96 126 161 213 282 331 374
#     4   9  17  35  65  87 121 156 209 278 315 370
#
# _framework density 20.552776000000001
#
# number of rings (size 3 to 8) (size 9 to 14) (size 15 to 20)
#    0.545    1.455    5.455    1.091    0.000    1.455 
#    6.545    8.182    0.000    0.000    0.000    0.000 
#    0.000    0.000    0.000    0.000    0.000    0.000 
#
# Total GULP energy -122480.398740 kJ/mol
# GULP energy per Si atom -5567.290852 kJ/mol
# Density = 2.050600 g / cm^3
# Si number density = 20.552776 Si / 1000 Ang^3
#
#
#
# Elastic Constant Matrix: (Units=GPa)
#
#
# Indices 1 2 3 4 5 6 
#
# 1 128.7863 50.9430 23.1358 0.0000 -19.0505 0.0000
# 2 50.9430 89.5706 41.2013 0.0000 -25.0973 0.0000
# 3 23.1358 41.2013 67.0946 0.0000 -7.1931 0.0000
# 4 0.0000 0.0000 0.0000 29.1674 0.0000 4.2187
# 5 -19.0505 -25.0973 -7.1931 0.0000 29.7084 0.0000
# 6 0.0000 0.0000 0.0000 4.2187 0.0000 29.8081
#
#
#
# Elastic Compliance Matrix: (Units=1/GPa)
#
#
# Indices 1 2 3 4 5 6 
#
# 1 0.010122 -0.005091 -0.000132 0.000000 0.002157 0.000000
# 2 -0.005091 0.022767 -0.010793 0.000000 0.013355 0.000000
# 3 -0.000132 -0.010793 0.021140 0.000000 -0.004084 0.000000
# 4 0.000000 0.000000 0.000000 0.035001 0.000000 -0.004954
# 5 0.002157 0.013355 -0.004084 0.000000 0.045337 0.000000
# 6 0.000000 0.000000 0.000000 -0.004954 0.000000 0.034249
#
#
# Mechanical properties :
#
#
# Convention : Reuss Voigt Hill
#
# Bulk Modulus (GPa) = 45.46579 57.33465 51.40022
# Shear Modulus (GPa) = 24.04065 29.08155 26.56110
#
# Velocity S-wave (km/s) = 3.42380 3.76569 3.59881
# Velocity P-wave (km/s) = 6.14812 6.84573 6.50628
#
# Compressibility (1/GPa) = 0.02199456
#
# Stress axis : x y z
#
# Youngs Moduli (GPa) = 98.79835 43.92375 47.30371
#
# Poissons Ratio (x) = 0.22362 0.00627
# Poissons Ratio (y) = 0.50300 0.51056
# Poissons Ratio (z) = 0.01309 0.47408
#
# Static dielectric constant tensor:
#      x y z
#    x 1.854080 0.000000 0.012640 
#    y 0.000000 1.825910 0.000000 
#    z 0.012640 0.000000 1.729000 
# 
# From -- ./inp_files/231431.got.cif
#   From: 2010.05.17/outbox.cif.g08.bks.cpg/sg15_116_cif.got.tgz:231431.got - 2010.06.03 18:47:42.
