data_PCOD9295665
_publ_section_title
;
Structure prediction by ZEFSAII (Michael W. Deem and Ramdas Pophale) SiO2 
 PCOD9295665
Probable space group: C 2/C
;
_chemical_formula_sum "Si O2"
_cell_formula_units_Z 40
_cell_length_a 7.384953
_cell_length_b 14.754614
_cell_length_c 27.167442
_cell_angle_alpha 90.000000
_cell_angle_beta 144.131019
_cell_angle_gamma 90.000000
_cell_volume 1734.494129
_symmetry_space_group_name_H-M "C 2/C"
_symmetry_group_IT_number 15
_symmetry_cell_setting 'monoclinic'
loop_
_space_group_symop_operation_xyz
x,y,z
-x,y,1/2-z
-x,-y,-z
x,-y,1/2+z
1/2+x,1/2+y,z
1/2-x,1/2+y,1/2-z
1/2-x,1/2-y,-z
1/2+x,1/2-y,1/2+z
loop_
_atom_site_type_symbol
_atom_site_label
_atom_site_fract_x
_atom_site_fract_y
_atom_site_fract_z
Si Si1 0.580181 0.916691 0.873026
Si Si2 0.061083 0.588621 0.814856
Si Si3 0.237946 0.355868 0.013858
Si Si4 0.681787 0.661117 0.452007
Si Si5 0.722060 0.278448 0.726921
O O1 0.617943 0.905101 0.938874
O O2 0.342897 0.845510 0.795967
O O3 0.916988 0.896093 0.921628
O O4 0.478585 0.018104 0.838707
O O5 0.000000 0.538534 0.750000
O O6 0.869672 0.680842 0.773023
O O7 0.416722 0.614409 0.898447
O O8 0.018154 0.376060 0.011904
O O9 0.250000 0.250000 0.000000
O O10 0.750000 0.750000 0.500000
O O11 0.548083 0.685610 0.368316
O O12 0.000000 0.266808 0.750000
#
# Coordination Sequence:
#
# PCOD9295665 Si02
#       5
#     8   8   8   8   8
#     4  11  25  47  68 100 143 180 236 288 342 418
#     4  12  25  44  67 102 140 180 237 291 345 417
#     4  12  23  43  73 102 135 186 229 286 349 415
#     4  11  22  41  71 100 134 183 228 277 356 413
#     4  10  23  43  67  93 138 183 226 289 348 412
#
# _framework density 23.061478999999999
#
# number of rings (size 3 to 8) (size 9 to 14) (size 15 to 20)
#    0.000    0.800    4.000    3.600    2.800    0.800 
#    7.200    0.000    0.000    0.000    0.000    0.000 
#    0.000    0.000    0.000    0.000    0.000    0.000 
#
# Total GULP energy -111983.703855 kJ/mol
# GULP energy per Si atom -5599.185193 kJ/mol
# Density = 2.300899 g / cm^3
# Si number density = 23.061479 Si / 1000 Ang^3
#
#
#
# Elastic Constant Matrix: (Units=GPa)
#
#
# Indices 1 2 3 4 5 6 
#
# 1 80.2335 20.9431 21.0410 -0.0001 -4.9762 0.0001
# 2 20.9431 91.1239 35.5845 0.0001 13.6430 0.0001
# 3 21.0410 35.5845 121.5677 0.0002 -8.2214 0.0004
# 4 -0.0001 0.0001 0.0002 17.8024 0.0000 -9.4807
# 5 -4.9762 13.6430 -8.2214 0.0000 33.3612 0.0002
# 6 0.0001 0.0001 0.0004 -9.4807 0.0002 13.7824
#
#
#
# Elastic Compliance Matrix: (Units=1/GPa)
#
#
# Indices 1 2 3 4 5 6 
#
# 1 0.013801 -0.003130 -0.001268 0.000000 0.003026 0.000000
# 2 -0.003130 0.014436 -0.004184 0.000000 -0.007401 0.000000
# 3 -0.001268 -0.004184 0.009939 0.000000 0.003971 -0.000001
# 4 0.000000 0.000000 0.000000 0.088646 0.000000 0.060978
# 5 0.003026 -0.007401 0.003971 0.000000 0.034432 -0.000001
# 6 0.000000 0.000000 -0.000001 0.060978 -0.000001 0.114502
#
#
# Mechanical properties :
#
#
# Convention : Reuss Voigt Hill
#
# Bulk Modulus (GPa) = 47.59401 49.78469 48.68935
# Shear Modulus (GPa) = 16.67098 27.34632 22.00865
#
# Velocity S-wave (km/s) = 2.69158 3.44728 3.09260
# Velocity P-wave (km/s) = 5.50837 6.12206 5.82331
#
# Compressibility (1/GPa) = 0.02101105
#
# Stress axis : x y z
#
# Youngs Moduli (GPa) = 72.45983 69.27364 100.61700
#
# Poissons Ratio (x) = 0.21681 0.12757
# Poissons Ratio (y) = 0.22678 0.42101
# Poissons Ratio (z) = 0.09187 0.28986
#
# Static dielectric constant tensor:
#      x y z
#    x 1.851750 0.000000 0.061200 
#    y 0.000000 1.877410 0.000000 
#    z 0.061200 0.000000 1.904050 
# 
# From -- ./inp_files/264526.got.cif
#   From: 2010.05.17/outbox.cif.g08.bks.cpg/sg15_133_cif.got.tgz:264526.got - 2010.06.03 18:47:42.
