data_PCOD9295390
_publ_section_title
;
Structure prediction by ZEFSAII (Michael W. Deem and Ramdas Pophale) SiO2 
 PCOD9295390
Probable space group: C 2/C
;
_chemical_formula_sum "Si O2"
_cell_formula_units_Z 48
_cell_length_a 29.961250
_cell_length_b 9.168247
_cell_length_c 16.766397
_cell_angle_alpha 90.000000
_cell_angle_beta 154.277046
_cell_angle_gamma 90.000000
_cell_volume 1998.921611
_symmetry_space_group_name_H-M "C 2/C"
_symmetry_group_IT_number 15
_symmetry_cell_setting 'monoclinic'
loop_
_space_group_symop_operation_xyz
x,y,z
-x,y,1/2-z
-x,-y,-z
x,-y,1/2+z
1/2+x,1/2+y,z
1/2-x,1/2+y,1/2-z
1/2-x,1/2-y,-z
1/2+x,1/2-y,1/2+z
loop_
_atom_site_type_symbol
_atom_site_label
_atom_site_fract_x
_atom_site_fract_y
_atom_site_fract_z
Si Si1 0.701881 0.391679 0.764359
Si Si2 0.311178 0.897198 0.354256
Si Si3 0.171651 0.027425 0.877649
Si Si4 0.124304 0.670236 0.362431
Si Si5 0.096362 0.760358 0.846592
Si Si6 0.480794 0.950789 0.058043
O O1 0.673923 0.238793 0.680143
O O2 0.702914 0.526696 0.704039
O O3 0.644533 0.450146 0.750250
O O4 0.819906 0.354318 0.984393
O O5 0.344703 0.836805 0.495475
O O6 0.363121 0.037346 0.393547
O O7 0.108421 0.167992 0.803341
O O8 0.159389 0.903443 0.924118
O O9 0.285751 0.093173 0.045881
O O10 0.024781 0.574683 0.187693
O O11 0.042701 0.691782 0.681918
O O12 0.000000 0.783074 0.750000
O O13 0.500000 0.000000 0.000000
#
# Coordination Sequence:
#
# PCOD9295390 Si02
#       6
#     8   8   8   8   8   8
#     4  11  24  43  69 100 135 177 238 276 349 419
#     4  11  24  43  69  99 142 183 231 285 353 412
#     4  10  23  42  70  94 134 178 227 284 348 400
#     4  10  23  45  66  97 142 184 229 283 349 414
#     4  12  23  45  67 102 136 174 229 288 336 417
#     4  12  24  42  69  99 136 187 229 282 345 413
#
# _framework density 24.012948000000002
#
# number of rings (size 3 to 8) (size 9 to 14) (size 15 to 20)
#    0.000    1.000    5.000    2.000    4.667    4.000 
#    0.000    1.667    0.000    0.000    0.000    0.000 
#    0.000    0.000    0.000    0.000    0.000    0.000 
#
# Total GULP energy -133979.099034 kJ/mol
# GULP energy per Si atom -5582.462460 kJ/mol
# Density = 2.395829 g / cm^3
# Si number density = 24.012948 Si / 1000 Ang^3
#
#
#
# Elastic Constant Matrix: (Units=GPa)
#
#
# Indices 1 2 3 4 5 6 
#
# 1 98.4745 34.1827 10.4248 0.0000 -2.0049 0.0000
# 2 34.1827 134.2324 -0.6940 0.0000 -7.6827 0.0000
# 3 10.4248 -0.6940 27.4794 0.0000 -8.7423 0.0000
# 4 0.0000 0.0000 0.0000 23.1619 0.0000 -4.5220
# 5 -2.0049 -7.6827 -8.7423 0.0000 20.0643 0.0000
# 6 0.0000 0.0000 0.0000 -4.5220 0.0000 45.7271
#
#
#
# Elastic Compliance Matrix: (Units=1/GPa)
#
#
# Indices 1 2 3 4 5 6 
#
# 1 0.011763 -0.003156 -0.005285 0.000000 -0.002336 0.000000
# 2 -0.003156 0.008504 0.002726 0.000000 0.004128 0.000000
# 3 -0.005285 0.002726 0.044845 0.000000 0.020055 0.000000
# 4 0.000000 0.000000 0.000000 0.044024 0.000000 0.004354
# 5 -0.002336 0.004128 0.020055 0.000000 0.059925 0.000000
# 6 0.000000 0.000000 0.000000 0.004354 0.000000 0.022299
#
#
# Mechanical properties :
#
#
# Convention : Reuss Voigt Hill
#
# Bulk Modulus (GPa) = 18.62908 38.66814 28.64861
# Shear Modulus (GPa) = 22.65664 32.20885 27.43275
#
# Velocity S-wave (km/s) = 3.07501 3.66637 3.38363
# Velocity P-wave (km/s) = 4.51468 5.83618 5.21744
#
# Compressibility (1/GPa) = 0.05367950
#
# Stress axis : x y z
#
# Youngs Moduli (GPa) = 85.01583 117.59273 22.29899
#
# Poissons Ratio (x) = 0.37117 0.11786
# Poissons Ratio (y) = 0.26834 -0.06078
# Poissons Ratio (z) = 0.44933 -0.32051
#
# Static dielectric constant tensor:
#      x y z
#    x 1.897460 0.000000 0.007270 
#    y 0.000000 1.937530 0.000000 
#    z 0.007270 0.000000 2.035400 
# 
# From -- ./inp_files/224704.got.cif
#   From: 2010.05.17/outbox.cif.g08.bks.cpg/sg15_113_cif.got.tgz:224704.got - 2010.06.03 18:47:42.
