data_PCOD9295819
_publ_section_title
;
Structure prediction by ZEFSAII (Michael W. Deem and Ramdas Pophale) SiO2 
 PCOD9295819
Probable space group: C 2/C
;
_chemical_formula_sum "Si O2"
_cell_formula_units_Z 52
_cell_length_a 16.654599
_cell_length_b 10.448806
_cell_length_c 25.051257
_cell_angle_alpha 90.000000
_cell_angle_beta 150.342830
_cell_angle_gamma 90.000000
_cell_volume 2157.089379
_symmetry_space_group_name_H-M "C 2/C"
_symmetry_group_IT_number 15
_symmetry_cell_setting 'monoclinic'
loop_
_space_group_symop_operation_xyz
x,y,z
-x,y,1/2-z
-x,-y,-z
x,-y,1/2+z
1/2+x,1/2+y,z
1/2-x,1/2+y,1/2-z
1/2-x,1/2-y,-z
1/2+x,1/2-y,1/2+z
loop_
_atom_site_type_symbol
_atom_site_label
_atom_site_fract_x
_atom_site_fract_y
_atom_site_fract_z
Si Si1 0.060914 0.568595 0.431237
Si Si2 0.477688 0.185965 0.629780
Si Si3 0.500000 0.339067 0.750000
Si Si4 0.190630 0.786043 0.355962
Si Si5 0.675017 0.302596 0.225076
Si Si6 0.526899 0.620942 0.979642
Si Si7 0.132482 0.346338 0.541782
O O1 0.221827 0.640751 0.544308
O O2 0.030472 0.471866 0.463862
O O3 0.076555 0.461878 0.394846
O O4 0.920223 0.666716 0.334154
O O5 0.469355 0.260071 0.679096
O O6 0.663119 0.194366 0.716352
O O7 0.377992 0.233429 0.520378
O O8 0.318354 0.394870 0.656648
O O9 0.216423 0.832312 0.309920
O O10 0.283970 0.651900 0.412670
O O11 0.000000 0.781369 0.250000
O O12 0.550620 0.396824 0.123312
O O13 0.441479 0.750001 0.956740
O O14 0.500000 0.500000 0.000000
#
# Coordination Sequence:
#
# PCOD9295819 Si02
#       7
#     8   8   4   8   8   8   8
#     4   9  25  45  69 107 139 187 236 300 356 427
#     4  10  23  43  70 103 142 185 231 297 354 427
#     4  12  22  44  68 108 144 180 238 290 362 428
#     4  11  25  49  74 104 142 190 244 296 355 434
#     4  11  23  45  70 100 137 189 238 284 364 420
#     4  11  25  47  68 105 143 186 240 293 361 424
#     4  10  23  45  67 104 142 183 238 290 352 433
#
# _framework density 24.106556999999999
#
# number of rings (size 3 to 8) (size 9 to 14) (size 15 to 20)
#    0.923    0.615    3.077    0.462    3.231    8.000 
#   11.077    0.000    0.000    0.000    0.000    0.000 
#    0.000    0.000    0.000    0.000    0.000    0.000 
#
# Total GULP energy -144902.610803 kJ/mol
# GULP energy per Si atom -5573.177339 kJ/mol
# Density = 2.405169 g / cm^3
# Si number density = 24.106557 Si / 1000 Ang^3
#
#
#
# Elastic Constant Matrix: (Units=GPa)
#
#
# Indices 1 2 3 4 5 6 
#
# 1 49.2476 -19.1696 15.0073 0.0000 7.8696 0.0000
# 2 -19.1696 55.1475 13.6242 -0.0001 17.7642 0.0000
# 3 15.0073 13.6242 157.6633 0.0001 16.2593 0.0002
# 4 0.0000 -0.0001 0.0001 18.7182 0.0001 -15.6527
# 5 7.8696 17.7642 16.2593 0.0001 47.8079 0.0000
# 6 0.0000 0.0000 0.0002 -15.6527 0.0000 -76.9414
#
#
#
# Elastic Compliance Matrix: (Units=1/GPa)
#
#
# Indices 1 2 3 4 5 6 
#
# 1 0.027588 0.013006 -0.002884 0.000000 -0.008393 0.000000
# 2 0.013006 0.026892 -0.002395 0.000000 -0.011319 0.000000
# 3 -0.002884 -0.002395 0.006926 0.000000 -0.000991 0.000000
# 4 0.000000 0.000000 0.000000 0.045657 0.000000 -0.009288
# 5 -0.008393 -0.011319 -0.000991 0.000000 0.026841 0.000000
# 6 0.000000 0.000000 0.000000 -0.009288 0.000000 -0.011107
#
#
# Mechanical properties :
#
#
# Convention : Reuss Voigt Hill
#
# Bulk Modulus (GPa) = 13.01058 31.22026 22.11542
# Shear Modulus (GPa) = 37.60440 14.75671 26.18056
#
# Velocity S-wave (km/s) = 3.95387 2.47684 3.29908
# Velocity P-wave (km/s) = 5.12377 4.59986 4.86886
#
# Compressibility (1/GPa) = 0.07686054
#
# Stress axis : x y z
#
# Youngs Moduli (GPa) = 36.24729 37.18613 144.37713
#
# Poissons Ratio (x) = -0.48364 0.41643
# Poissons Ratio (y) = -0.47143 0.34571
# Poissons Ratio (z) = 0.10455 0.08904
#
# Static dielectric constant tensor:
#      x y z
#    x 2.014490 0.000000 0.046560 
#    y 0.000000 1.988750 0.000000 
#    z 0.046560 0.000000 1.964050 
# 
# From -- ./inp_files/298907.got.cif
#   From: 2010.05.17/outbox.cif.g08.bks.cpg/sg15_150_cif.got.tgz:298907.got - 2010.06.03 18:47:42.
