data_PCOD9295531
_publ_section_title
;
Structure prediction by ZEFSAII (Michael W. Deem and Ramdas Pophale) SiO2 
 PCOD9295531
Probable space group: C 2/C
;
_chemical_formula_sum "Si O2"
_cell_formula_units_Z 52
_cell_length_a 11.042569
_cell_length_b 9.982667
_cell_length_c 24.546608
_cell_angle_alpha 90.000000
_cell_angle_beta 106.228327
_cell_angle_gamma 90.000000
_cell_volume 2598.063899
_symmetry_space_group_name_H-M "C 2/C"
_symmetry_group_IT_number 15
_symmetry_cell_setting 'monoclinic'
loop_
_space_group_symop_operation_xyz
x,y,z
-x,y,1/2-z
-x,-y,-z
x,-y,1/2+z
1/2+x,1/2+y,z
1/2-x,1/2+y,1/2-z
1/2-x,1/2-y,-z
1/2+x,1/2-y,1/2+z
loop_
_atom_site_type_symbol
_atom_site_label
_atom_site_fract_x
_atom_site_fract_y
_atom_site_fract_z
Si Si1 0.178129 0.032951 0.884981
Si Si2 0.000000 0.714954 0.750000
Si Si3 0.061143 0.135302 0.982640
Si Si4 0.075038 0.932105 0.682108
Si Si5 0.299681 0.237145 0.444369
Si Si6 0.700182 0.298384 0.605299
Si Si7 0.699670 0.055135 0.842621
O O1 0.116016 0.097863 0.931144
O O2 0.267492 0.148910 0.873940
O O3 0.252871 0.901310 0.912505
O O4 0.062425 0.996214 0.830990
O O5 0.909168 0.816867 0.771452
O O6 0.920269 0.623412 0.699207
O O7 0.949904 0.243425 0.964131
O O8 0.165308 0.185354 0.038191
O O9 0.000000 0.000000 0.000000
O O10 0.081285 0.854380 0.624659
O O11 0.187979 0.037697 0.688310
O O12 0.250000 0.250000 0.500000
O O13 0.247302 0.355200 0.398904
O O14 0.809972 0.402856 0.636320
#
# Coordination Sequence:
#
# PCOD9295531 Si02
#       7
#     8   4   8   8   8   8   8
#     4  12  22  40  66  97 132 178 210 261 330 386
#     4  12  24  46  72  88 124 176 222 272 338 382
#     4  12  19  39  65  94 141 170 209 264 315 388
#     4  10  23  45  65  90 129 167 215 281 319 375
#     4  12  21  36  73  98 131 182 213 257 334 395
#     4  10  23  43  63  98 135 164 216 269 317 389
#     4  10  23  46  64  97 128 168 219 273 322 390
#
# _framework density 20.014904999999999
#
# number of rings (size 3 to 8) (size 9 to 14) (size 15 to 20)
#    0.923    0.000    7.692    0.462    0.000    1.846 
#    5.538    0.000    0.000    0.000    0.000    0.000 
#    0.000    0.000    0.000    0.000    0.000    0.000 
#
# Total GULP energy -145029.836431 kJ/mol
# GULP energy per Si atom -5578.070632 kJ/mol
# Density = 1.996935 g / cm^3
# Si number density = 20.014905 Si / 1000 Ang^3
#
#
#
# Elastic Constant Matrix: (Units=GPa)
#
#
# Indices 1 2 3 4 5 6 
#
# 1 43.1691 21.1269 3.2242 0.0000 6.6498 0.0000
# 2 21.1269 102.0126 0.3915 0.0000 7.6503 0.0000
# 3 3.2242 0.3915 43.6483 0.0000 8.4503 0.0000
# 4 0.0000 0.0000 0.0000 15.5793 0.0000 6.0511
# 5 6.6498 7.6503 8.4503 0.0000 22.1124 0.0000
# 6 0.0000 0.0000 0.0000 6.0511 0.0000 42.4297
#
#
#
# Elastic Compliance Matrix: (Units=1/GPa)
#
#
# Indices 1 2 3 4 5 6 
#
# 1 0.026618 -0.005063 -0.000767 0.000000 -0.005960 0.000000
# 2 -0.005063 0.011043 0.000777 0.000000 -0.002595 0.000000
# 3 -0.000767 0.000777 0.024802 0.000000 -0.009517 0.000000
# 4 0.000000 0.000000 0.000000 0.067952 0.000000 -0.009691
# 5 -0.005960 -0.002595 -0.009517 0.000000 0.051551 0.000000
# 6 0.000000 0.000000 0.000000 -0.009691 0.000000 0.024950
#
#
# Mechanical properties :
#
#
# Convention : Reuss Voigt Hill
#
# Bulk Modulus (GPa) = 19.09906 26.47947 22.78926
# Shear Modulus (GPa) = 21.32439 26.96343 24.14391
#
# Velocity S-wave (km/s) = 3.26763 3.67436 3.47695
# Velocity P-wave (km/s) = 4.87849 5.59105 5.24688
#
# Compressibility (1/GPa) = 0.05235860
#
# Stress axis : x y z
#
# Youngs Moduli (GPa) = 37.56896 90.55656 40.31854
#
# Poissons Ratio (x) = 0.45846 0.03092
# Poissons Ratio (y) = 0.19020 -0.03134
# Poissons Ratio (z) = 0.02881 -0.07039
#
# Static dielectric constant tensor:
#      x y z
#    x 1.726490 0.000000 -0.030410 
#    y 0.000000 1.711790 0.000000 
#    z -0.030410 0.000000 1.713400 
# 
# From -- ./inp_files/291223.got.cif
#   From: 2010.05.17/outbox.cif.g08.bks.cpg/sg15_146_cif.got.tgz:291223.got - 2010.06.03 18:47:42.
