data_PCOD9295037
_publ_section_title
;
Structure prediction by ZEFSAII (Michael W. Deem and Ramdas Pophale) SiO2 
 PCOD9295037
Probable space group: C 2/C
;
_chemical_formula_sum "Si O2"
_cell_formula_units_Z 56
_cell_length_a 8.513421
_cell_length_b 17.361800
_cell_length_c 22.366673
_cell_angle_alpha 90.000000
_cell_angle_beta 125.341614
_cell_angle_gamma 90.000000
_cell_volume 2696.746484
_symmetry_space_group_name_H-M "C 2/C"
_symmetry_group_IT_number 15
_symmetry_cell_setting 'monoclinic'
loop_
_space_group_symop_operation_xyz
x,y,z
-x,y,1/2-z
-x,-y,-z
x,-y,1/2+z
1/2+x,1/2+y,z
1/2-x,1/2+y,1/2-z
1/2-x,1/2-y,-z
1/2+x,1/2-y,1/2+z
loop_
_atom_site_type_symbol
_atom_site_label
_atom_site_fract_x
_atom_site_fract_y
_atom_site_fract_z
Si Si1 0.073778 0.192818 0.595791
Si Si2 0.648529 0.260201 0.335703
Si Si3 0.302347 0.649911 0.170779
Si Si4 0.365194 0.925245 0.974480
Si Si5 0.960113 0.585959 0.175411
Si Si6 0.471237 0.231467 0.530059
Si Si7 0.192919 0.042647 0.562492
O O1 0.226779 0.263636 0.637662
O O2 0.973853 0.207194 0.509140
O O3 0.162283 0.108123 0.605994
O O4 0.934270 0.202174 0.621728
O O5 0.500000 0.281832 0.250000
O O6 0.643652 0.167816 0.339047
O O7 0.877110 0.275687 0.382586
O O8 0.500000 0.655064 0.250000
O O9 0.295433 0.593588 0.111177
O O10 0.149450 0.609989 0.181145
O O11 0.492884 0.848839 0.999523
O O12 0.275048 0.921039 0.020043
O O13 0.500000 0.000000 0.000000
O O14 0.839074 0.523171 0.114435
O O15 0.000000 0.555029 0.250000
O O16 0.250000 0.250000 0.500000
O O17 0.000000 0.000000 0.500000
#
# Coordination Sequence:
#
# PCOD9295037 Si02
#       7
#     8   8   8   8   8   8   8
#     4  10  23  42  64 101 128 174 227 279 332 410
#     4  10  23  44  68  94 133 176 225 277 340 405
#     4  10  23  43  72  94 130 178 223 281 342 402
#     4  11  24  43  64  94 133 171 224 275 330 407
#     4  10  23  42  62  95 132 173 219 270 338 409
#     4  11  22  40  68  96 126 174 226 280 333 399
#     4  12  25  41  67  98 133 177 218 278 340 403
#
# _framework density 20.765763
#
# number of rings (size 3 to 8) (size 9 to 14) (size 15 to 20)
#    0.000    1.429    2.857    1.286    4.000    6.286 
#    2.571    0.714    0.000    0.000    0.000    0.000 
#    0.000    0.000    0.000    0.000    0.000    0.000 
#
# Total GULP energy -156157.199543 kJ/mol
# GULP energy per Si atom -5577.042841 kJ/mol
# Density = 2.071850 g / cm^3
# Si number density = 20.765763 Si / 1000 Ang^3
#
#
#
# Elastic Constant Matrix: (Units=GPa)
#
#
# Indices 1 2 3 4 5 6 
#
# 1 66.2974 29.6145 48.1901 0.0000 3.5059 0.0000
# 2 29.6145 100.5873 35.1813 0.0000 16.9536 0.0000
# 3 48.1901 35.1813 156.5378 0.0000 20.0904 0.0000
# 4 0.0000 0.0000 0.0000 13.7453 0.0000 -34.7611
# 5 3.5059 16.9536 20.0904 0.0000 38.4624 0.0000
# 6 0.0000 0.0000 0.0000 -34.7611 0.0000 -31.5864
#
#
#
# Elastic Compliance Matrix: (Units=1/GPa)
#
#
# Indices 1 2 3 4 5 6 
#
# 1 0.021338 -0.004760 -0.005915 0.000000 0.003243 0.000000
# 2 -0.004760 0.012378 -0.000720 0.000000 -0.004646 0.000000
# 3 -0.005915 -0.000720 0.008855 0.000000 -0.003769 0.000000
# 4 0.000000 0.000000 0.000000 0.019231 0.000000 -0.021164
# 5 0.003243 -0.004646 -0.003769 0.000000 0.029720 0.000000
# 6 0.000000 0.000000 0.000000 -0.021164 0.000000 -0.008369
#
#
# Mechanical properties :
#
#
# Convention : Reuss Voigt Hill
#
# Bulk Modulus (GPa) = 50.55680 61.04381 55.80030
# Shear Modulus (GPa) = 44.42971 18.15337 31.29154
#
# Velocity S-wave (km/s) = 4.63056 2.95989 3.88607
# Velocity P-wave (km/s) = 7.27932 6.41416 6.86039
#
# Compressibility (1/GPa) = 0.01977973
#
# Stress axis : x y z
#
# Youngs Moduli (GPa) = 46.86476 80.78864 112.93291
#
# Poissons Ratio (x) = 0.38454 0.66804
# Poissons Ratio (y) = 0.22307 0.08135
# Poissons Ratio (z) = 0.27722 0.05819
#
# Static dielectric constant tensor:
#      x y z
#    x 1.728440 0.000000 0.011180 
#    y 0.000000 1.782680 0.000000 
#    z 0.011180 0.000000 1.800840 
# 
# From -- ./inp_files/265603.got.cif
#   From: 2010.05.17/outbox.cif.g08.bks.cpg/sg15_133_cif.got.tgz:265603.got - 2010.06.03 18:47:42.
