data_PCOD9295302
_publ_section_title
;
Structure prediction by ZEFSAII (Michael W. Deem and Ramdas Pophale) SiO2 
 PCOD9295302
Probable space group: C 2/C
;
_chemical_formula_sum "Si O2"
_cell_formula_units_Z 56
_cell_length_a 13.348333
_cell_length_b 15.557360
_cell_length_c 21.442416
_cell_angle_alpha 90.000000
_cell_angle_beta 31.439123
_cell_angle_gamma 90.000000
_cell_volume 2322.564871
_symmetry_space_group_name_H-M "C 2/C"
_symmetry_group_IT_number 15
_symmetry_cell_setting 'monoclinic'
loop_
_space_group_symop_operation_xyz
x,y,z
-x,y,1/2-z
-x,-y,-z
x,-y,1/2+z
1/2+x,1/2+y,z
1/2-x,1/2+y,1/2-z
1/2-x,1/2-y,-z
1/2+x,1/2-y,1/2+z
loop_
_atom_site_type_symbol
_atom_site_label
_atom_site_fract_x
_atom_site_fract_y
_atom_site_fract_z
Si Si1 0.218230 0.406101 0.610740
Si Si2 0.875527 0.742831 0.574050
Si Si3 0.275207 0.714297 0.388193
Si Si4 0.744522 0.123741 0.756158
Si Si5 0.228917 0.600228 0.621157
Si Si6 0.834392 0.128998 0.915709
Si Si7 0.397829 0.035431 0.992077
O O1 0.334770 0.343962 0.595185
O O2 0.292168 0.504881 0.566765
O O3 0.236184 0.357126 0.535209
O O4 0.000000 0.407436 0.750000
O O5 0.849840 0.705284 0.657772
O O6 0.730650 0.694983 0.603305
O O7 0.090736 0.715580 0.438319
O O8 0.500000 0.712989 0.250000
O O9 0.242368 0.811161 0.433331
O O10 0.224217 0.623282 0.445279
O O11 0.792736 0.121197 0.658003
O O12 0.941791 0.117463 0.689235
O O13 0.582039 0.050646 0.850234
O O14 0.000000 0.593533 0.750000
O O15 0.751052 0.037721 0.942469
O O16 0.500000 0.000000 0.000000
#
# Coordination Sequence:
#
# PCOD9295302 Si02
#       7
#     8   8   8   8   8   8   8
#     4  11  24  44  72 101 139 186 236 289 353 420
#     4  11  24  43  67 108 141 177 238 292 363 417
#     4  10  23  42  68  92 135 187 228 284 342 414
#     4  11  24  44  69 101 144 182 230 303 348 418
#     4  10  23  48  67  96 143 184 239 285 349 420
#     4  12  24  42  72 105 143 179 231 299 355 414
#     4  11  23  41  67  99 140 181 229 282 348 420
#
# _framework density 24.111274999999999
#
# number of rings (size 3 to 8) (size 9 to 14) (size 15 to 20)
#    0.000    1.143    2.857    4.286    2.000    3.429 
#    2.571   17.857    0.000    1.714    0.000    0.000 
#    0.000    0.000    0.000    0.000    0.000    0.000 
#
# Total GULP energy -156043.767218 kJ/mol
# GULP energy per Si atom -5572.991686 kJ/mol
# Density = 2.405640 g / cm^3
# Si number density = 24.111275 Si / 1000 Ang^3
#
#
#
# Elastic Constant Matrix: (Units=GPa)
#
#
# Indices 1 2 3 4 5 6 
#
# 1 90.5369 31.1692 26.2660 0.0011 -16.9289 -0.0031
# 2 31.1692 166.0336 31.2087 0.0011 -4.9717 -0.0054
# 3 26.2660 31.2087 110.7486 -0.0030 -28.1713 -0.0383
# 4 0.0011 0.0011 -0.0030 33.4188 0.0025 0.8685
# 5 -16.9289 -4.9717 -28.1713 0.0025 56.8367 0.0109
# 6 -0.0031 -0.0054 -0.0383 0.8685 0.0109 48.2561
#
#
#
# Elastic Compliance Matrix: (Units=1/GPa)
#
#
# Indices 1 2 3 4 5 6 
#
# 1 0.012754 -0.001980 -0.001768 -0.000001 0.002749 -0.000001
# 2 -0.001980 0.006674 -0.001617 0.000000 -0.000807 0.000000
# 3 -0.001768 -0.001617 0.011139 0.000001 0.004853 0.000007
# 4 -0.000001 0.000000 0.000001 0.029937 -0.000001 -0.000539
# 5 0.002749 -0.000807 0.004853 -0.000001 0.020748 -0.000001
# 6 -0.000001 0.000000 0.000007 -0.000539 -0.000001 0.020732
#
#
# Mechanical properties :
#
#
# Convention : Reuss Voigt Hill
#
# Bulk Modulus (GPa) = 50.40556 60.51187 55.45871
# Shear Modulus (GPa) = 41.90245 46.28068 44.09156
#
# Velocity S-wave (km/s) = 4.17331 4.38592 4.28093
# Velocity P-wave (km/s) = 6.64626 7.12740 6.89103
#
# Compressibility (1/GPa) = 0.01983908
#
# Stress axis : x y z
#
# Youngs Moduli (GPa) = 78.40895 149.83050 89.77723
#
# Poissons Ratio (x) = 0.29661 0.15868
# Poissons Ratio (y) = 0.15522 0.14513
# Poissons Ratio (z) = 0.13859 0.24221
#
# Static dielectric constant tensor:
#      x y z
#    x 2.219000 0.000010 -0.103580 
#    y 0.000010 2.111370 -0.000010 
#    z -0.103580 -0.000010 2.050110 
# 
# From -- ./inp_files/274451.got.cif
#   From: 2010.05.17/outbox.cif.g08.bks.cpg/sg15_138_cif.got.tgz:274451.got - 2010.06.03 18:47:42.
