data_PCOD9295583
_publ_section_title
;
Structure prediction by ZEFSAII (Michael W. Deem and Ramdas Pophale) SiO2 
 PCOD9295583
Probable space group: C 2/C
;
_chemical_formula_sum "Si O2"
_cell_formula_units_Z 56
_cell_length_a 17.720237
_cell_length_b 8.303706
_cell_length_c 25.491844
_cell_angle_alpha 90.000000
_cell_angle_beta 45.962131
_cell_angle_gamma 90.000000
_cell_volume 2696.493984
_symmetry_space_group_name_H-M "C 2/C"
_symmetry_group_IT_number 15
_symmetry_cell_setting 'monoclinic'
loop_
_space_group_symop_operation_xyz
x,y,z
-x,y,1/2-z
-x,-y,-z
x,-y,1/2+z
1/2+x,1/2+y,z
1/2-x,1/2+y,1/2-z
1/2-x,1/2-y,-z
1/2+x,1/2-y,1/2+z
loop_
_atom_site_type_symbol
_atom_site_label
_atom_site_fract_x
_atom_site_fract_y
_atom_site_fract_z
Si Si1 0.500000 0.745078 0.250000
Si Si2 0.871935 0.000000 0.378065
Si Si3 0.349368 0.506868 0.595490
Si Si4 0.371464 0.000001 0.250000
Si Si5 0.349508 0.862349 0.547811
Si Si6 0.540348 0.006869 0.404510
Si Si7 0.000000 0.754923 0.250000
Si Si8 0.054870 0.137651 0.547811
O O1 0.449468 0.641263 0.321040
O O2 0.410215 0.853586 0.267551
O O3 0.908452 0.858738 0.321040
O O4 0.892044 0.938093 0.426877
O O5 0.754201 0.061907 0.426878
O O6 0.248684 0.466456 0.678507
O O7 0.333347 0.678733 0.573720
O O8 0.451124 0.535904 0.582367
O O9 0.372771 0.378183 0.538720
O O10 0.394303 0.966457 0.178507
O O11 0.445318 0.146416 0.232449
O O12 0.384143 0.964096 0.582367
O O13 0.450212 0.878183 0.461279
O O14 0.480786 0.178733 0.426280
#
# Coordination Sequence:
#
# PCOD9295583 Si02
#       8
#     4   8   8   8   8   8   4   8
#     4  10  24  38  62  98 132 156 220 270 318 388
#     4  11  22  42  62  95 128 172 206 273 322 382
#     4  10  23  44  65  95 128 170 217 264 318 394
#     4  11  22  44  64  91 128 174 206 271 322 382
#     4  10  23  43  65  94 129 166 221 261 320 393
#     4  10  23  44  65  95 128 170 217 264 318 394
#     4  10  24  38  62  98 132 156 220 270 318 388
#     4  10  23  43  65  94 129 166 221 261 320 393
#
# _framework density 20.767707999999999
#
# number of rings (size 3 to 8) (size 9 to 14) (size 15 to 20)
#    0.000    1.714    2.857    0.000    4.000    5.714 
#    0.000    0.000    0.000    0.000    0.000    0.000 
#    0.000    0.000    0.000    0.000    0.000    0.000 
#
# Total GULP energy -156538.950700 kJ/mol
# GULP energy per Si atom -5590.676811 kJ/mol
# Density = 2.072044 g / cm^3
# Si number density = 20.767708 Si / 1000 Ang^3
#
#
#
# Elastic Constant Matrix: (Units=GPa)
#
#
# Indices 1 2 3 4 5 6 
#
# 1 97.8771 8.7323 28.5670 0.0000 0.8336 0.0004
# 2 8.7323 44.4540 -3.4984 0.0001 0.8547 0.0011
# 3 28.5670 -3.4984 128.0146 0.0000 -2.9397 0.0001
# 4 0.0000 0.0001 0.0000 19.1555 0.0000 -0.5359
# 5 0.8336 0.8547 -2.9397 0.0000 28.9546 0.0001
# 6 0.0004 0.0011 0.0001 -0.5359 0.0001 11.4863
#
#
#
# Elastic Compliance Matrix: (Units=1/GPa)
#
#
# Indices 1 2 3 4 5 6 
#
# 1 0.011185 -0.002390 -0.002573 0.000000 -0.000513 0.000000
# 2 -0.002390 0.023065 0.001152 0.000000 -0.000495 -0.000002
# 3 -0.002573 0.001152 0.008438 0.000000 0.000897 0.000000
# 4 0.000000 0.000000 0.000000 0.052273 0.000000 0.002439
# 5 -0.000513 -0.000495 0.000897 0.000000 0.034657 0.000000
# 6 0.000000 -0.000002 0.000000 0.002439 0.000000 0.087174
#
#
# Mechanical properties :
#
#
# Convention : Reuss Voigt Hill
#
# Bulk Modulus (GPa) = 28.51713 37.54972 33.03342
# Shear Modulus (GPa) = 21.17726 27.68894 24.43310
#
# Velocity S-wave (km/s) = 3.19677 3.65536 3.43373
# Velocity P-wave (km/s) = 5.23327 5.99463 5.62684
#
# Compressibility (1/GPa) = 0.03506665
#
# Stress axis : x y z
#
# Youngs Moduli (GPa) = 89.40149 43.35612 118.51287
#
# Poissons Ratio (x) = 0.10361 0.30495
# Poissons Ratio (y) = 0.21366 -0.13656
# Poissons Ratio (z) = 0.23005 -0.04996
#
# Static dielectric constant tensor:
#      x y z
#    x 1.708290 0.000000 0.006250 
#    y 0.000000 1.772580 0.000000 
#    z 0.006250 0.000000 1.618940 
# 
# From -- ./inp_files/276543.got.cif
#   From: 2010.05.17/outbox.cif.g08.bks.cpg/sg15_139_cif.got.tgz:276543.got - 2010.06.03 18:47:42.
