data_PCOD9295402
_publ_section_title
;
Structure prediction by ZEFSAII (Michael W. Deem and Ramdas Pophale) SiO2 
 PCOD9295402
Probable space group: C 2/C
;
_chemical_formula_sum "Si O2"
_cell_formula_units_Z 28
_cell_length_a 19.147149
_cell_length_b 7.611000
_cell_length_c 15.217057
_cell_angle_alpha 90.000000
_cell_angle_beta 147.879448
_cell_angle_gamma 90.000000
_cell_volume 1179.085052
_symmetry_space_group_name_H-M "C 2/C"
_symmetry_group_IT_number 15
_symmetry_cell_setting 'monoclinic'
loop_
_space_group_symop_operation_xyz
x,y,z
-x,y,1/2-z
-x,-y,-z
x,-y,1/2+z
1/2+x,1/2+y,z
1/2-x,1/2+y,1/2-z
1/2-x,1/2-y,-z
1/2+x,1/2-y,1/2+z
loop_
_atom_site_type_symbol
_atom_site_label
_atom_site_fract_x
_atom_site_fract_y
_atom_site_fract_z
Si Si1 0.375434 0.659690 0.445758
Si Si2 0.364007 0.859051 0.078938
Si Si3 0.000000 0.695260 0.250000
Si Si4 0.890575 0.249794 0.914878
O O1 0.451241 0.694166 0.616639
O O2 0.224333 0.715574 0.277506
O O3 0.462910 0.767502 0.467354
O O4 0.380499 0.453619 0.431283
O O5 0.500000 0.765994 0.250000
O O6 0.381745 0.053410 0.138457
O O7 0.250000 0.750000 0.000000
O O8 0.360712 0.864169 0.969918
#
# Coordination Sequence:
#
# PCOD9295402 Si02
#       4
#     8   8   4   8
#     4  11  26  45  71 102 135 181 229 279 337 403
#     4  10  23  42  70  98 132 177 221 277 336 398
#     4  10  26  44  70 100 138 178 224 282 340 398
#     4  11  25  46  71  99 137 181 229 277 339 404
#
# _framework density 23.747228
#
# number of rings (size 3 to 8) (size 9 to 14) (size 15 to 20)
#    0.857    0.571    0.000    3.429    6.000    5.714 
#    0.000    0.000    0.000    0.000    0.000    0.000 
#    0.000    0.000    0.000    0.000    0.000    0.000 
#
# Total GULP energy -78295.313300 kJ/mol
# GULP energy per Si atom -5592.522379 kJ/mol
# Density = 2.369318 g / cm^3
# Si number density = 23.747228 Si / 1000 Ang^3
#
#
#
# Elastic Constant Matrix: (Units=GPa)
#
#
# Indices 1 2 3 4 5 6 
#
# 1 53.4957 3.7927 30.6529 0.0000 3.5169 0.0000
# 2 3.7927 54.6272 21.5833 0.0000 -4.3173 0.0000
# 3 30.6529 21.5833 119.1933 0.0000 -15.1026 0.0000
# 4 0.0000 0.0000 0.0000 32.7670 0.0000 -13.4876
# 5 3.5169 -4.3173 -15.1026 0.0000 47.0157 0.0000
# 6 0.0000 0.0000 0.0000 -13.4876 0.0000 9.1914
#
#
#
# Elastic Compliance Matrix: (Units=1/GPa)
#
#
# Indices 1 2 3 4 5 6 
#
# 1 0.022546 0.000667 -0.006385 0.000000 -0.003676 0.000000
# 2 0.000667 0.019758 -0.003675 0.000000 0.000584 0.000000
# 3 -0.006385 -0.003675 0.011170 0.000000 0.003728 0.000000
# 4 0.000000 0.000000 0.000000 0.077070 0.000000 0.113093
# 5 -0.003676 0.000584 0.003728 0.000000 0.022796 0.000000
# 6 0.000000 0.000000 0.000000 0.113093 0.000000 0.274751
#
#
# Mechanical properties :
#
#
# Convention : Reuss Voigt Hill
#
# Bulk Modulus (GPa) = 28.82925 37.70824 33.26874
# Shear Modulus (GPa) = 10.90658 29.21397 20.06027
#
# Velocity S-wave (km/s) = 2.14540 3.51123 2.90960
# Velocity P-wave (km/s) = 4.27825 5.68787 5.03265
#
# Compressibility (1/GPa) = 0.03468700
#
# Stress axis : x y z
#
# Youngs Moduli (GPa) = 44.35399 50.61286 89.52917
#
# Poissons Ratio (x) = -0.03374 0.57161
# Poissons Ratio (y) = -0.02957 0.32904
# Poissons Ratio (z) = 0.28318 0.18601
#
# Static dielectric constant tensor:
#      x y z
#    x 1.924450 0.000000 -0.034110 
#    y 0.000000 1.890530 0.000000 
#    z -0.034110 0.000000 1.875550 
# 
# From -- ./inp_files/53571.got.cif
#   From: 2010.05.17/outbox.cif.g08.bks.cpg/sg15_27_cif.got.tgz:53571.got - 2010.06.03 18:47:42.
