data_PCOD9295404
_publ_section_title
;
Structure prediction by ZEFSAII (Michael W. Deem and Ramdas Pophale) SiO2 
 PCOD9295404
Probable space group: C 2/C
;
_chemical_formula_sum "Si O2"
_cell_formula_units_Z 64
_cell_length_a 23.701916
_cell_length_b 17.093992
_cell_length_c 18.993191
_cell_angle_alpha 90.000000
_cell_angle_beta 157.407057
_cell_angle_gamma 90.000000
_cell_volume 2956.388190
_symmetry_space_group_name_H-M "C 2/C"
_symmetry_group_IT_number 15
_symmetry_cell_setting 'monoclinic'
loop_
_space_group_symop_operation_xyz
x,y,z
-x,y,1/2-z
-x,-y,-z
x,-y,1/2+z
1/2+x,1/2+y,z
1/2-x,1/2+y,1/2-z
1/2-x,1/2-y,-z
1/2+x,1/2-y,1/2+z
loop_
_atom_site_type_symbol
_atom_site_label
_atom_site_fract_x
_atom_site_fract_y
_atom_site_fract_z
Si Si1 0.281580 0.880684 0.222085
Si Si2 0.818208 0.360975 0.906512
Si Si3 0.157487 0.219400 0.459156
Si Si4 0.536485 0.830842 0.950981
Si Si5 0.768526 0.807269 0.852005
Si Si6 0.004564 0.062165 0.068412
Si Si7 0.618427 0.461320 0.445636
Si Si8 0.936158 0.504051 0.819208
O O1 0.401222 0.828457 0.397709
O O2 0.357130 0.966289 0.301076
O O3 0.242748 0.846405 0.101426
O O4 0.135515 0.880229 0.101425
O O5 0.783491 0.328342 0.787867
O O6 0.662315 0.397401 0.752053
O O7 0.862800 0.290152 0.008948
O O8 0.946836 0.426726 0.059484
O O9 0.250000 0.250000 0.500000
O O10 0.000000 0.191183 0.250000
O O11 0.640318 0.771059 0.032169
O O12 0.374081 0.799542 0.764724
O O13 0.523330 0.922472 0.917288
O O14 0.852647 0.883695 0.975835
O O15 0.955783 0.022666 0.085685
O O16 0.000000 0.000000 0.000000
O O17 0.500000 0.446691 0.250000
O O18 0.778778 0.487938 0.598983
#
# Coordination Sequence:
#
# PCOD9295404 Si02
#       8
#     8   8   8   8   8   8   8   8
#     4  11  22  40  66  89 139 180 228 277 346 398
#     4  12  23  41  67 100 141 181 235 282 336 408
#     4  12  27  42  60  96 144 187 223 270 340 419
#     4  11  23  39  67 100 127 174 230 290 344 396
#     4  11  24  40  69  98 132 176 227 294 343 412
#     4  11  23  37  67 103 132 172 234 291 336 412
#     4  10  24  47  69  97 137 182 229 287 365 414
#     4  10  23  42  70  98 134 182 228 284 345 412
#
# _framework density 21.648036999999999
#
# number of rings (size 3 to 8) (size 9 to 14) (size 15 to 20)
#    0.000    1.000    3.750    2.625    3.500    6.000 
#    0.000    2.500    0.000    2.250    0.000    0.000 
#    0.000    0.000    0.000    0.000    0.000    0.000 
#
# Total GULP energy -178546.160019 kJ/mol
# GULP energy per Si atom -5579.567501 kJ/mol
# Density = 2.159877 g / cm^3
# Si number density = 21.648037 Si / 1000 Ang^3
#
#
#
# Elastic Constant Matrix: (Units=GPa)
#
#
# Indices 1 2 3 4 5 6 
#
# 1 45.9111 17.9896 14.5975 0.0004 -0.7398 0.0001
# 2 17.9896 119.9435 43.2443 0.0007 9.4639 0.0005
# 3 14.5975 43.2443 111.7112 0.0012 6.4189 0.0009
# 4 0.0004 0.0007 0.0012 38.3348 0.0007 15.2488
# 5 -0.7398 9.4639 6.4189 0.0007 35.4546 0.0006
# 6 0.0001 0.0005 0.0009 15.2488 0.0006 34.6253
#
#
#
# Elastic Compliance Matrix: (Units=1/GPa)
#
#
# Indices 1 2 3 4 5 6 
#
# 1 0.023607 -0.002934 -0.002044 0.000000 0.001646 0.000000
# 2 -0.002934 0.010186 -0.003436 0.000000 -0.002158 0.000000
# 3 -0.002044 -0.003436 0.010609 0.000000 -0.001046 0.000000
# 4 0.000000 0.000000 0.000000 0.031626 0.000000 -0.013928
# 5 0.001646 -0.002158 -0.001046 0.000000 0.029005 0.000000
# 6 0.000000 0.000000 0.000000 -0.013928 0.000000 0.035014
#
#
# Mechanical properties :
#
#
# Convention : Reuss Voigt Hill
#
# Bulk Modulus (GPa) = 36.26368 47.69205 41.97786
# Shear Modulus (GPa) = 30.10846 35.13191 32.62018
#
# Velocity S-wave (km/s) = 3.73341 4.03285 3.88602
# Velocity P-wave (km/s) = 5.94747 6.61541 6.29031
#
# Compressibility (1/GPa) = 0.02757580
#
# Stress axis : x y z
#
# Youngs Moduli (GPa) = 42.36022 98.17093 94.26079
#
# Poissons Ratio (x) = 0.28800 0.19264
# Poissons Ratio (y) = 0.12427 0.32387
# Poissons Ratio (z) = 0.08657 0.33730
#
# Static dielectric constant tensor:
#      x y z
#    x 1.793770 0.000000 -0.006030 
#    y 0.000000 1.858350 0.000000 
#    z -0.006030 0.000000 1.856670 
# 
# From -- ./inp_files/256025.got.cif
#   From: 2010.05.17/outbox.cif.g08.bks.cpg/sg15_129_cif.got.tgz:256025.got - 2010.06.03 18:47:42.
