data_PCOD9295565
_publ_section_title
;
Structure prediction by ZEFSAII (Michael W. Deem and Ramdas Pophale) SiO2 
 PCOD9295565
Probable space group: C 2/C
;
_chemical_formula_sum "Si O2"
_cell_formula_units_Z 56
_cell_length_a 27.216316
_cell_length_b 12.114860
_cell_length_c 15.083523
_cell_angle_alpha 90.000000
_cell_angle_beta 29.635070
_cell_angle_gamma 90.000000
_cell_volume 2459.200691
_symmetry_space_group_name_H-M "C 2/C"
_symmetry_group_IT_number 15
_symmetry_cell_setting 'monoclinic'
loop_
_space_group_symop_operation_xyz
x,y,z
-x,y,1/2-z
-x,-y,-z
x,-y,1/2+z
1/2+x,1/2+y,z
1/2-x,1/2+y,1/2-z
1/2-x,1/2-y,-z
1/2+x,1/2-y,1/2+z
loop_
_atom_site_type_symbol
_atom_site_label
_atom_site_fract_x
_atom_site_fract_y
_atom_site_fract_z
Si Si1 0.240796 0.570965 0.365214
Si Si2 0.914133 0.547331 0.262333
Si Si3 0.402468 0.384522 0.085575
Si Si4 0.366061 0.719486 0.822532
Si Si5 0.579032 0.477113 0.706017
Si Si6 0.870579 0.508597 0.128034
Si Si7 0.227980 0.821328 0.378698
O O1 0.158399 0.516360 0.557933
O O2 0.334823 0.489729 0.219305
O O3 0.203895 0.570202 0.320843
O O4 0.251083 0.698452 0.372926
O O5 0.919089 0.675301 0.282648
O O6 0.873985 0.547835 0.223909
O O7 0.020978 0.490636 0.085738
O O8 0.405403 0.300106 0.161542
O O9 0.345395 0.328924 0.091714
O O10 0.510888 0.427353 0.890136
O O11 0.383000 0.601254 0.840923
O O12 0.250000 0.750000 0.000000
O O13 0.500000 0.479106 0.750000
O O14 0.669592 0.395876 0.541848
O O15 0.829082 0.383920 0.195918
#
# Coordination Sequence:
#
# PCOD9295565 Si02
#       7
#     8   8   8   8   8   8   8
#     4  11  23  43  69  96 130 171 221 267 329 388
#     4  11  24  41  65  97 130 176 214 269 330 386
#     4  10  23  43  64  98 125 173 217 266 325 381
#     4  12  23  42  66  92 136 167 216 268 323 390
#     4  10  24  42  65  96 127 173 220 264 325 383
#     4  10  24  43  62  99 132 168 222 268 328 388
#     4  10  23  43  68  91 131 171 217 271 320 383
#
# _framework density 22.771626000000001
#
# number of rings (size 3 to 8) (size 9 to 14) (size 15 to 20)
#    0.000    1.429    1.429    2.571    2.000    9.714 
#    0.000    0.000    0.000    0.000    0.000    0.000 
#    0.000    0.000    0.000    0.000    0.000    0.000 
#
# Total GULP energy -156712.512160 kJ/mol
# GULP energy per Si atom -5596.875434 kJ/mol
# Density = 2.271980 g / cm^3
# Si number density = 22.771626 Si / 1000 Ang^3
#
#
#
# Elastic Constant Matrix: (Units=GPa)
#
#
# Indices 1 2 3 4 5 6 
#
# 1 52.4527 -7.8894 -7.9185 0.0000 2.0233 0.0000
# 2 -7.8894 132.5711 7.9799 0.0000 12.8393 0.0000
# 3 -7.9185 7.9799 96.0144 0.0000 8.1883 0.0000
# 4 0.0000 0.0000 0.0000 28.7780 0.0000 5.7239
# 5 2.0233 12.8393 8.1883 0.0000 22.4059 0.0000
# 6 0.0000 0.0000 0.0000 5.7239 0.0000 11.5410
#
#
#
# Elastic Compliance Matrix: (Units=1/GPa)
#
#
# Indices 1 2 3 4 5 6 
#
# 1 0.019664 0.001374 0.001782 0.000000 -0.003214 0.000000
# 2 0.001374 0.008090 -0.000158 0.000000 -0.004702 0.000000
# 3 0.001782 -0.000158 0.010922 0.000000 -0.004062 0.000000
# 4 0.000000 0.000000 0.000000 0.038552 0.000000 -0.019120
# 5 -0.003214 -0.004702 -0.004062 0.000000 0.049100 0.000000
# 6 0.000000 0.000000 0.000000 -0.019120 0.000000 0.096130
#
#
# Mechanical properties :
#
#
# Convention : Reuss Voigt Hill
#
# Bulk Modulus (GPa) = 22.38551 29.48691 25.93621
# Shear Modulus (GPa) = 21.61205 31.80275 26.70740
#
# Velocity S-wave (km/s) = 3.08405 3.74116 3.42839
# Velocity P-wave (km/s) = 4.74696 5.62484 5.20444
#
# Compressibility (1/GPa) = 0.04467174
#
# Stress axis : x y z
#
# Youngs Moduli (GPa) = 50.85321 123.61239 91.56201
#
# Poissons Ratio (x) = -0.16988 -0.16313
# Poissons Ratio (y) = -0.06989 0.01447
# Poissons Ratio (z) = -0.09060 0.01953
#
# Static dielectric constant tensor:
#      x y z
#    x 1.886160 0.000000 0.034570 
#    y 0.000000 1.812140 0.000000 
#    z 0.034570 0.000000 1.821660 
# 
# From -- ./inp_files/181929.got.cif
#   From: 2010.05.17/outbox.cif.g08.bks.cpg/sg15_91_cif.got.tgz:181929.got - 2010.06.03 18:47:42.
