data_PCOD9295071
_publ_section_title
;
Structure prediction by ZEFSAII (Michael W. Deem and Ramdas Pophale) SiO2 
 PCOD9295071
Probable space group: C 2/C
;
_chemical_formula_sum "Si O2"
_cell_formula_units_Z 36
_cell_length_a 19.479782
_cell_length_b 6.043102
_cell_length_c 12.987034
_cell_angle_alpha 90.000000
_cell_angle_beta 89.815791
_cell_angle_gamma 90.000000
_cell_volume 1528.803787
_symmetry_space_group_name_H-M "C 2/C"
_symmetry_group_IT_number 15
_symmetry_cell_setting 'monoclinic'
loop_
_space_group_symop_operation_xyz
x,y,z
-x,y,1/2-z
-x,-y,-z
x,-y,1/2+z
1/2+x,1/2+y,z
1/2-x,1/2+y,1/2-z
1/2-x,1/2-y,-z
1/2+x,1/2-y,1/2+z
loop_
_atom_site_type_symbol
_atom_site_label
_atom_site_fract_x
_atom_site_fract_y
_atom_site_fract_z
Si Si1 0.386696 0.142974 0.725796
Si Si2 0.500000 0.513031 0.750000
Si Si3 0.470583 0.817245 0.578804
Si Si4 0.735106 0.937254 0.417645
Si Si5 0.854904 0.757996 0.941204
O O1 0.435229 0.359146 0.721512
O O2 0.311768 0.156069 0.673835
O O3 0.377716 0.102496 0.847027
O O4 0.427031 0.955039 0.663480
O O5 0.516453 0.661728 0.650096
O O6 0.420244 0.670671 0.507613
O O7 0.500000 0.000000 0.500000
O O8 0.750000 0.750000 0.500000
O O9 0.807472 0.052461 0.392178
O O10 0.690087 0.120487 0.477476
#
# Coordination Sequence:
#
# PCOD9295071 Si02
#       5
#     8   4   8   8   8
#     4  11  25  41  67 103 131 177 229 277 339 409
#     4  12  24  42  70  96 132 182 222 274 356 402
#     4  11  24  44  67  99 142 173 226 284 340 413
#     4  10  23  42  65  92 133 176 223 274 333 395
#     4  10  23  42  63  96 134 173 223 277 332 393
#
# _framework density 23.547823000000001
#
# number of rings (size 3 to 8) (size 9 to 14) (size 15 to 20)
#    0.000    1.333    0.000    4.667    3.111    8.889 
#    0.000    0.000    0.000    0.000    0.000    0.000 
#    0.000    0.000    0.000    0.000    0.000    0.000 
#
# Total GULP energy -100613.565246 kJ/mol
# GULP energy per Si atom -5589.642514 kJ/mol
# Density = 2.349423 g / cm^3
# Si number density = 23.547823 Si / 1000 Ang^3
#
#
#
# Elastic Constant Matrix: (Units=GPa)
#
#
# Indices 1 2 3 4 5 6 
#
# 1 90.8877 48.3784 57.9622 0.0000 28.9753 0.0000
# 2 48.3784 74.3876 33.8914 0.0000 26.1915 0.0000
# 3 57.9622 33.8914 148.5837 0.0000 30.4831 0.0000
# 4 0.0000 0.0000 0.0000 50.6751 0.0000 9.5886
# 5 28.9753 26.1915 30.4831 0.0000 53.5165 0.0000
# 6 0.0000 0.0000 0.0000 9.5886 0.0000 23.6661
#
#
#
# Elastic Compliance Matrix: (Units=1/GPa)
#
#
# Indices 1 2 3 4 5 6 
#
# 1 0.020585 -0.009869 -0.005077 0.000000 -0.003423 0.000000
# 2 -0.009869 0.021731 -0.000024 0.000000 -0.005278 0.000000
# 3 -0.005077 -0.000024 0.009228 0.000000 -0.002496 0.000000
# 4 0.000000 0.000000 0.000000 0.021372 0.000000 -0.008659
# 5 -0.003423 -0.005278 -0.002496 0.000000 0.024544 0.000000
# 6 0.000000 0.000000 0.000000 -0.008659 0.000000 0.045763
#
#
# Mechanical properties :
#
#
# Convention : Reuss Voigt Hill
#
# Bulk Modulus (GPa) = 46.28674 66.03590 56.16132
# Shear Modulus (GPa) = 27.72176 37.14667 32.43421
#
# Velocity S-wave (km/s) = 3.43484 3.97608 3.71533
# Velocity P-wave (km/s) = 5.95231 7.01307 6.50435
#
# Compressibility (1/GPa) = 0.02160446
#
# Stress axis : x y z
#
# Youngs Moduli (GPa) = 48.57971 46.01745 108.36432
#
# Poissons Ratio (x) = 0.45415 0.55012
# Poissons Ratio (y) = 0.47944 0.00259
# Poissons Ratio (z) = 0.24662 0.00110
#
# Static dielectric constant tensor:
#      x y z
#    x 1.981520 0.000000 0.001110 
#    y 0.000000 1.896840 0.000000 
#    z 0.001110 0.000000 1.848630 
# 
# From -- ./inp_files/115605.got.cif
#   From: 2010.05.17/outbox.cif.g08.bks.cpg/sg15_58_cif.got.tgz:115605.got - 2010.06.03 18:47:42.
