data_PCOD9295850
_publ_section_title
;
Structure prediction by ZEFSAII (Michael W. Deem and Ramdas Pophale) SiO2 
 PCOD9295850
Probable space group: C 2/C
;
_chemical_formula_sum "Si O2"
_cell_formula_units_Z 56
_cell_length_a 21.594746
_cell_length_b 11.242521
_cell_length_c 10.984175
_cell_angle_alpha 90.000000
_cell_angle_beta 104.106491
_cell_angle_gamma 90.000000
_cell_volume 2586.314401
_symmetry_space_group_name_H-M "C 2/C"
_symmetry_group_IT_number 15
_symmetry_cell_setting 'monoclinic'
loop_
_space_group_symop_operation_xyz
x,y,z
-x,y,1/2-z
-x,-y,-z
x,-y,1/2+z
1/2+x,1/2+y,z
1/2-x,1/2+y,1/2-z
1/2-x,1/2-y,-z
1/2+x,1/2-y,1/2+z
loop_
_atom_site_type_symbol
_atom_site_label
_atom_site_fract_x
_atom_site_fract_y
_atom_site_fract_z
Si Si1 0.433819 0.380223 0.154679
Si Si2 0.431425 0.856196 0.991075
Si Si3 0.838521 0.449584 0.495981
Si Si4 0.595630 0.651438 0.338586
Si Si5 0.743696 0.341912 0.885695
Si Si6 0.570388 0.218907 0.582957
Si Si7 0.342636 0.206347 0.234214
O O1 0.500000 0.342280 0.250000
O O2 0.431857 0.521759 0.149832
O O3 0.374736 0.327660 0.203458
O O4 0.429566 0.320403 0.020405
O O5 0.411369 0.732336 0.045354
O O6 0.507287 0.859145 0.028061
O O7 0.396898 0.959576 0.049921
O O8 0.397473 0.856385 0.843218
O O9 0.780234 0.534207 0.431029
O O10 0.866692 0.361374 0.406492
O O11 0.825970 0.372264 0.609071
O O12 0.669210 0.637204 0.334752
O O13 0.564787 0.721483 0.211227
O O14 0.780767 0.285120 0.789276
O O15 0.750000 0.250000 0.000000
#
# Coordination Sequence:
#
# PCOD9295850 Si02
#       7
#     8   8   8   8   8   8   8
#     4  11  24  44  69  98 140 181 229 285 353 413
#     4  11  22  43  69 100 140 176 227 286 359 407
#     4  10  24  42  71 102 132 180 233 291 347 407
#     4  12  27  41  68 101 138 187 230 285 337 423
#     4  11  24  46  67  94 139 182 230 274 345 411
#     4  11  25  44  67 106 138 178 233 286 353 416
#     4  10  23  43  70  99 132 183 228 288 342 410
#
# _framework density 21.652432000000001
#
# number of rings (size 3 to 8) (size 9 to 14) (size 15 to 20)
#    0.000    1.143    4.286    1.714    6.000    4.571 
#    2.571    2.857    0.000    0.000    0.000    0.000 
#    0.000    0.000    0.000    0.000    0.000    0.000 
#
# Total GULP energy -156611.688898 kJ/mol
# GULP energy per Si atom -5593.274604 kJ/mol
# Density = 2.160315 g / cm^3
# Si number density = 21.652432 Si / 1000 Ang^3
#
#
#
# Elastic Constant Matrix: (Units=GPa)
#
#
# Indices 1 2 3 4 5 6 
#
# 1 97.6201 8.0979 5.3840 0.0000 -4.9477 0.0000
# 2 8.0979 96.9000 12.4619 0.0000 -13.0909 0.0000
# 3 5.3840 12.4619 43.7276 0.0000 -12.6957 0.0000
# 4 0.0000 0.0000 0.0000 21.6348 0.0000 3.4049
# 5 -4.9477 -13.0909 -12.6957 0.0000 35.3337 0.0000
# 6 0.0000 0.0000 0.0000 3.4049 0.0000 29.7833
#
#
#
# Elastic Compliance Matrix: (Units=1/GPa)
#
#
# Indices 1 2 3 4 5 6 
#
# 1 0.010389 -0.000637 -0.000830 0.000000 0.000920 0.000000
# 2 -0.000637 0.011087 -0.002138 0.000000 0.003250 0.000000
# 3 -0.000830 -0.002138 0.026032 0.000000 0.008445 0.000000
# 4 0.000000 0.000000 0.000000 0.047069 0.000000 -0.005381
# 5 0.000920 0.003250 0.008445 0.000000 0.032669 0.000000
# 6 0.000000 0.000000 0.000000 -0.005381 0.000000 0.034191
#
#
# Mechanical properties :
#
#
# Convention : Reuss Voigt Hill
#
# Bulk Modulus (GPa) = 24.81484 32.23726 28.52605
# Shear Modulus (GPa) = 27.46038 31.50394 29.48216
#
# Velocity S-wave (km/s) = 3.56509 3.81856 3.69400
# Velocity P-wave (km/s) = 5.33216 5.86197 5.60333
#
# Compressibility (1/GPa) = 0.04029847
#
# Stress axis : x y z
#
# Youngs Moduli (GPa) = 96.25486 90.19413 38.41382
#
# Poissons Ratio (x) = 0.05746 0.03190
# Poissons Ratio (y) = 0.06132 0.08211
# Poissons Ratio (z) = 0.07993 0.19280
#
# Static dielectric constant tensor:
#      x y z
#    x 1.799860 0.000000 0.007620 
#    y 0.000000 1.772930 0.000000 
#    z 0.007620 0.000000 1.755270 
# 
# From -- ./inp_files/111139.got.cif
#   From: 2010.05.17/outbox.cif.g08.bks.cpg/sg15_56_cif.got.tgz:111139.got - 2010.06.03 18:47:42.
