data_PCOD9295261
_publ_section_title
;
Structure prediction by ZEFSAII (Michael W. Deem and Ramdas Pophale) SiO2 
 PCOD9295261
Probable space group: C 2/C
;
_chemical_formula_sum "Si O2"
_cell_formula_units_Z 36
_cell_length_a 13.275100
_cell_length_b 13.356590
_cell_length_c 8.085578
_cell_angle_alpha 90.000000
_cell_angle_beta 115.749504
_cell_angle_gamma 90.000000
_cell_volume 1291.295372
_symmetry_space_group_name_H-M "C 2/C"
_symmetry_group_IT_number 15
_symmetry_cell_setting 'monoclinic'
loop_
_space_group_symop_operation_xyz
x,y,z
-x,y,1/2-z
-x,-y,-z
x,-y,1/2+z
1/2+x,1/2+y,z
1/2-x,1/2+y,1/2-z
1/2-x,1/2-y,-z
1/2+x,1/2-y,1/2+z
loop_
_atom_site_type_symbol
_atom_site_label
_atom_site_fract_x
_atom_site_fract_y
_atom_site_fract_z
Si Si1 0.150166 0.959131 0.894280
Si Si2 0.894257 0.840732 0.953278
Si Si3 0.748865 0.190851 0.828161
Si Si4 0.000000 0.313414 0.750000
Si Si5 0.881115 0.543122 0.960487
O O1 0.086517 0.902534 0.701568
O O2 0.277958 0.970207 0.917430
O O3 0.154992 0.891212 0.063641
O O4 0.120225 0.072636 0.920907
O O5 0.781497 0.774540 0.831900
O O6 0.986991 0.761712 0.085382
O O7 0.648942 0.115523 0.712982
O O8 0.750000 0.250000 0.000000
O O9 0.899541 0.389613 0.638284
O O10 0.000000 0.500000 0.000000
#
# Coordination Sequence:
#
# PCOD9295261 Si02
#       5
#     8   8   8   4   8
#     4  11  21  43  69  97 132 181 220 272 335 397
#     4  10  23  42  67  96 136 173 224 268 335 401
#     4   9  20  39  62  94 133 168 217 268 326 392
#     4  10  24  40  62 102 138 166 222 276 332 390
#     4  11  22  41  66  98 133 171 226 281 325 378
#
# _framework density 27.878982000000001
#
# number of rings (size 3 to 8) (size 9 to 14) (size 15 to 20)
#    0.000    1.778    2.222    1.333    0.000    4.444 
#    4.000    0.000    0.000    0.000    0.000    0.000 
#    0.000    0.000    0.000    0.000    0.000    0.000 
#
# Total GULP energy -100453.519956 kJ/mol
# GULP energy per Si atom -5580.751109 kJ/mol
# Density = 2.781553 g / cm^3
# Si number density = 27.878982 Si / 1000 Ang^3
#
#
#
# Elastic Constant Matrix: (Units=GPa)
#
#
# Indices 1 2 3 4 5 6 
#
# 1 107.9488 36.5977 37.8790 0.0000 1.2455 0.0000
# 2 36.5977 164.7551 80.7470 0.0000 11.8743 0.0000
# 3 37.8790 80.7470 236.2610 0.0000 13.6262 0.0000
# 4 0.0000 0.0000 0.0000 95.4046 0.0000 39.7888
# 5 1.2455 11.8743 13.6262 0.0000 33.4323 0.0000
# 6 0.0000 0.0000 0.0000 39.7888 0.0000 8.1390
#
#
#
# Elastic Compliance Matrix: (Units=1/GPa)
#
#
# Indices 1 2 3 4 5 6 
#
# 1 0.010241 -0.001802 -0.001066 0.000000 0.000693 0.000000
# 2 -0.001802 0.007694 -0.002239 0.000000 -0.001753 0.000000
# 3 -0.001066 -0.002239 0.005244 0.000000 -0.001302 0.000000
# 4 0.000000 0.000000 0.000000 -0.010090 0.000000 0.049326
# 5 0.000693 -0.001753 -0.001302 0.000000 0.031039 0.000000
# 6 0.000000 0.000000 0.000000 0.049326 0.000000 -0.118273
#
#
# Mechanical properties :
#
#
# Convention : Reuss Voigt Hill
#
# Bulk Modulus (GPa) = 77.14155 91.04578 84.09367
# Shear Modulus (GPa) = -83.87981 50.97793 -16.45094
#
# Velocity S-wave (km/s) = -5.49112 4.28079 -2.43180
# Velocity P-wave (km/s) = 3.53172 7.56055 4.72699
#
# Compressibility (1/GPa) = 0.01296318
#
# Stress axis : x y z
#
# Youngs Moduli (GPa) = 97.64944 129.97323 190.69484
#
# Poissons Ratio (x) = 0.23426 0.20325
# Poissons Ratio (y) = 0.17600 0.42706
# Poissons Ratio (z) = 0.10408 0.29107
#
# Static dielectric constant tensor:
#      x y z
#    x 2.255750 0.000000 -0.027570 
#    y 0.000000 2.216050 0.000000 
#    z -0.027570 0.000000 2.177840 
# 
# From -- ./inp_files/47314.got.cif
#   From: 2010.05.17/outbox.cif.g08.bks.cpg/sg15_24_cif.got.tgz:47314.got - 2010.06.03 18:47:42.
