data_PCOD9295770
_publ_section_title
;
Structure prediction by ZEFSAII (Michael W. Deem and Ramdas Pophale) SiO2 
 PCOD9295770
Probable space group: C 2/C
;
_chemical_formula_sum "Si O2"
_cell_formula_units_Z 32
_cell_length_a 14.116267
_cell_length_b 11.848424
_cell_length_c 10.653537
_cell_angle_alpha 90.000000
_cell_angle_beta 135.272300
_cell_angle_gamma 90.000000
_cell_volume 1253.965053
_symmetry_space_group_name_H-M "C 2/C"
_symmetry_group_IT_number 15
_symmetry_cell_setting 'monoclinic'
loop_
_space_group_symop_operation_xyz
x,y,z
-x,y,1/2-z
-x,-y,-z
x,-y,1/2+z
1/2+x,1/2+y,z
1/2-x,1/2+y,1/2-z
1/2-x,1/2-y,-z
1/2+x,1/2-y,1/2+z
loop_
_atom_site_type_symbol
_atom_site_label
_atom_site_fract_x
_atom_site_fract_y
_atom_site_fract_z
Si Si1 0.633296 0.345488 0.622815
Si Si2 0.370861 0.585398 0.779264
Si Si3 0.794104 0.341124 0.144391
Si Si4 0.849011 0.595099 0.135179
O O1 0.624579 0.449440 0.712223
O O2 0.521877 0.369803 0.412307
O O3 0.609608 0.229086 0.671756
O O4 0.780062 0.356503 0.696322
O O5 0.327047 0.621780 0.878323
O O6 0.255579 0.621503 0.574831
O O7 0.851300 0.458613 0.149098
O O8 0.750000 0.250000 0.000000
O O9 0.000000 0.633543 0.250000
#
# Coordination Sequence:
#
# PCOD9295770 Si02
#       4
#     8   8   8   8
#     4  10  23  43  70 102 145 185 232 287 354 421
#     4  10  23  43  69 103 141 188 233 288 349 422
#     4  11  24  42  71 108 140 183 235 290 351 419
#     4  11  25  45  72 103 145 180 234 297 351 405
#
# _framework density 25.519053
#
# number of rings (size 3 to 8) (size 9 to 14) (size 15 to 20)
#    0.000    1.500    2.500    0.750    3.500    7.000 
#    0.000    0.000    0.000    0.000    0.000    0.000 
#    0.000    0.000    0.000    0.000    0.000    0.000 
#
# Total GULP energy -89605.610111 kJ/mol
# GULP energy per Si atom -5600.350632 kJ/mol
# Density = 2.546097 g / cm^3
# Si number density = 25.519053 Si / 1000 Ang^3
#
#
#
# Elastic Constant Matrix: (Units=GPa)
#
#
# Indices 1 2 3 4 5 6 
#
# 1 82.3029 3.9748 34.4532 0.0000 26.5097 0.0000
# 2 3.9748 151.3776 13.3430 0.0000 -7.9307 0.0000
# 3 34.4532 13.3430 127.7645 0.0000 23.2761 0.0000
# 4 0.0000 0.0000 0.0000 33.2722 0.0000 -20.6903
# 5 26.5097 -7.9307 23.2761 0.0000 44.6382 0.0000
# 6 0.0000 0.0000 0.0000 -20.6903 0.0000 35.4434
#
#
#
# Elastic Compliance Matrix: (Units=1/GPa)
#
#
# Indices 1 2 3 4 5 6 
#
# 1 0.015957 -0.000603 -0.002756 0.000000 -0.008147 0.000000
# 2 -0.000603 0.006810 -0.000922 0.000000 0.002049 0.000000
# 3 -0.002756 -0.000922 0.009280 0.000000 -0.003366 0.000000
# 4 0.000000 0.000000 0.000000 0.047183 0.000000 0.027543
# 5 -0.008147 0.002049 -0.003366 0.000000 0.029360 0.000000
# 6 0.000000 0.000000 0.000000 0.027543 0.000000 0.044293
#
#
# Mechanical properties :
#
#
# Convention : Reuss Voigt Hill
#
# Bulk Modulus (GPa) = 42.57921 51.66522 47.12222
# Shear Modulus (GPa) = 29.53826 43.31568 36.42697
#
# Velocity S-wave (km/s) = 3.40589 4.12440 3.78225
# Velocity P-wave (km/s) = 5.67347 6.55520 6.13021
#
# Compressibility (1/GPa) = 0.02348564
#
# Stress axis : x y z
#
# Youngs Moduli (GPa) = 62.66827 146.83379 107.76410
#
# Poissons Ratio (x) = 0.08852 0.29699
# Poissons Ratio (y) = 0.03778 0.09935
# Poissons Ratio (z) = 0.17271 0.13537
#
# Static dielectric constant tensor:
#      x y z
#    x 2.038600 0.000000 -0.004660 
#    y 0.000000 2.020050 0.000000 
#    z -0.004660 0.000000 1.990780 
# 
# From -- ./inp_files/37694.got.cif
#   From: 2010.05.17/outbox.cif.g08.bks.cpg/sg15_19_cif.got.tgz:37694.got - 2010.06.03 18:47:42.
