data_PCOD9295097
_publ_section_title
;
Structure prediction by ZEFSAII (Michael W. Deem and Ramdas Pophale) SiO2 
 PCOD9295097
Probable space group: C 2/C
;
_chemical_formula_sum "Si O2"
_cell_formula_units_Z 44
_cell_length_a 11.519037
_cell_length_b 8.757439
_cell_length_c 19.661233
_cell_angle_alpha 90.000000
_cell_angle_beta 114.400997
_cell_angle_gamma 90.000000
_cell_volume 1806.209660
_symmetry_space_group_name_H-M "C 2/C"
_symmetry_group_IT_number 15
_symmetry_cell_setting 'monoclinic'
loop_
_space_group_symop_operation_xyz
x,y,z
-x,y,1/2-z
-x,-y,-z
x,-y,1/2+z
1/2+x,1/2+y,z
1/2-x,1/2+y,1/2-z
1/2-x,1/2-y,-z
1/2+x,1/2-y,1/2+z
loop_
_atom_site_type_symbol
_atom_site_label
_atom_site_fract_x
_atom_site_fract_y
_atom_site_fract_z
Si Si1 0.062055 0.711659 0.119716
Si Si2 0.134753 0.299231 0.046543
Si Si3 0.189683 0.015254 0.343379
Si Si4 0.000000 0.209032 0.750000
Si Si5 0.187355 0.942885 0.058061
Si Si6 0.429479 0.747943 0.097195
O O1 0.192035 0.615355 0.152205
O O2 0.998899 0.706415 0.178089
O O3 0.109063 0.879115 0.104547
O O4 0.963266 0.659354 0.037227
O O5 0.251317 0.415269 0.080354
O O6 0.062611 0.308264 0.101951
O O7 0.175386 0.123440 0.049144
O O8 0.125915 0.895706 0.278053
O O9 0.080201 0.127349 0.344605
O O10 0.331468 0.881615 0.092725
O O11 0.124188 0.847093 0.980891
#
# Coordination Sequence:
#
# PCOD9295097 Si02
#       6
#     8   8   8   4   8   8
#     4  10  23  42  64  95 128 163 212 258 311 382
#     4  11  21  39  69  98 122 158 212 270 318 366
#     4  11  25  42  64  92 123 164 213 262 317 377
#     4  12  26  42  60  86 132 174 204 252 314 382
#     4   9  18  35  63  95 125 159 200 252 315 368
#     4   9  19  37  59  90 128 157 196 258 311 361
#
# _framework density 24.360406999999999
#
# number of rings (size 3 to 8) (size 9 to 14) (size 15 to 20)
#    0.000    1.818    0.000    6.000    0.000    7.273 
#    0.000    3.636    0.000    5.455    0.000    0.000 
#    0.000    0.000    0.000    0.000    0.000    0.000 
#
# Total GULP energy -123132.793742 kJ/mol
# GULP energy per Si atom -5596.945170 kJ/mol
# Density = 2.430496 g / cm^3
# Si number density = 24.360407 Si / 1000 Ang^3
#
#
#
# Elastic Constant Matrix: (Units=GPa)
#
#
# Indices 1 2 3 4 5 6 
#
# 1 86.9436 33.8024 25.8212 0.0000 -9.3528 0.0000
# 2 33.8024 74.8072 3.9918 0.0000 -6.0616 0.0000
# 3 25.8212 3.9918 69.8277 0.0000 -7.2741 0.0000
# 4 0.0000 0.0000 0.0000 21.4128 0.0000 7.8016
# 5 -9.3528 -6.0616 -7.2741 0.0000 36.7134 0.0000
# 6 0.0000 0.0000 0.0000 7.8016 0.0000 40.7366
#
#
#
# Elastic Compliance Matrix: (Units=1/GPa)
#
#
# Indices 1 2 3 4 5 6 
#
# 1 0.015902 -0.006750 -0.005298 0.000000 0.001887 0.000000
# 2 -0.006750 0.016435 0.001695 0.000000 0.001330 0.000000
# 3 -0.005298 0.001695 0.016410 0.000000 0.002182 0.000000
# 4 0.000000 0.000000 0.000000 0.050204 0.000000 -0.009615
# 5 0.001887 0.001330 0.002182 0.000000 0.028371 0.000000
# 6 0.000000 0.000000 0.000000 -0.009615 0.000000 0.026389
#
#
# Mechanical properties :
#
#
# Convention : Reuss Voigt Hill
#
# Bulk Modulus (GPa) = 35.66090 39.86770 37.76430
# Shear Modulus (GPa) = 27.20858 30.97008 29.08933
#
# Velocity S-wave (km/s) = 3.34566 3.56944 3.45936
# Velocity P-wave (km/s) = 5.44015 5.77833 5.61179
#
# Compressibility (1/GPa) = 0.02804192
#
# Stress axis : x y z
#
# Youngs Moduli (GPa) = 62.88321 60.84534 60.93679
#
# Poissons Ratio (x) = 0.41071 0.32284
# Poissons Ratio (y) = 0.42447 -0.10329
# Poissons Ratio (z) = 0.33316 -0.10314
#
# Static dielectric constant tensor:
#      x y z
#    x 1.979130 0.000000 -0.022190 
#    y 0.000000 1.946220 0.000000 
#    z -0.022190 0.000000 1.961820 
# 
# From -- ./inp_files/236063.got.cif
#   From: 2010.05.17/outbox.cif.g08.bks.cpg/sg15_119_cif.got.tgz:236063.got - 2010.06.03 18:47:42.
