data_PCOD9295231
_publ_section_title
;
Structure prediction by ZEFSAII (Michael W. Deem and Ramdas Pophale) SiO2 
 PCOD9295231
Probable space group: C 2/C
;
_chemical_formula_sum "Si O2"
_cell_formula_units_Z 48
_cell_length_a 19.312507
_cell_length_b 11.075344
_cell_length_c 12.174890
_cell_angle_alpha 90.000000
_cell_angle_beta 127.840988
_cell_angle_gamma 90.000000
_cell_volume 2056.515821
_symmetry_space_group_name_H-M "C 2/C"
_symmetry_group_IT_number 15
_symmetry_cell_setting 'monoclinic'
loop_
_space_group_symop_operation_xyz
x,y,z
-x,y,1/2-z
-x,-y,-z
x,-y,1/2+z
1/2+x,1/2+y,z
1/2-x,1/2+y,1/2-z
1/2-x,1/2-y,-z
1/2+x,1/2-y,1/2+z
loop_
_atom_site_type_symbol
_atom_site_label
_atom_site_fract_x
_atom_site_fract_y
_atom_site_fract_z
Si Si1 0.273930 0.079263 0.060359
Si Si2 0.588970 0.417889 0.269788
Si Si3 0.128781 0.779650 0.110412
Si Si4 0.202218 0.270951 0.133197
Si Si5 0.159055 0.323729 0.421209
Si Si6 0.440888 0.330914 0.851584
O O1 0.172546 0.061297 0.927493
O O2 0.309862 0.159403 0.992899
O O3 0.261168 0.153016 0.159901
O O4 0.327337 0.956620 0.113460
O O5 0.500000 0.419319 0.250000
O O6 0.596739 0.296424 0.205453
O O7 0.591629 0.532898 0.192548
O O8 0.227276 0.836219 0.217712
O O9 0.139511 0.670864 0.033063
O O10 0.044618 0.840643 0.969731
O O11 0.112407 0.233463 0.101943
O O12 0.250000 0.250000 0.500000
O O13 0.089287 0.247393 0.282952
#
# Coordination Sequence:
#
# PCOD9295231 Si02
#       6
#     8   8   8   8   8   8
#     4  10  23  42  67  90 130 170 219 259 327 376
#     4  11  22  38  66  99 128 162 214 279 328 374
#     4  11  24  41  62  97 129 169 215 259 325 382
#     4  10  23  44  65  94 125 176 213 269 313 387
#     4  12  23  41  62  94 131 170 207 260 320 384
#     4  12  24  38  66  94 134 166 218 265 327 380
#
# _framework density 23.340447000000001
#
# number of rings (size 3 to 8) (size 9 to 14) (size 15 to 20)
#    0.000    1.000    3.333    3.000    2.333    1.333 
#    0.000    5.000    0.000    0.000    0.000    0.000 
#    0.000    0.000    0.000    0.000    0.000    0.000 
#
# Total GULP energy -133802.727441 kJ/mol
# GULP energy per Si atom -5575.113643 kJ/mol
# Density = 2.328732 g / cm^3
# Si number density = 23.340447 Si / 1000 Ang^3
#
#
#
# Elastic Constant Matrix: (Units=GPa)
#
#
# Indices 1 2 3 4 5 6 
#
# 1 100.1593 30.3021 11.8236 0.0000 -17.1664 0.0000
# 2 30.3021 73.8317 10.8772 0.0000 -4.0395 0.0000
# 3 11.8236 10.8772 92.7826 0.0000 -2.2840 0.0000
# 4 0.0000 0.0000 0.0000 20.1191 0.0000 -1.9504
# 5 -17.1664 -4.0395 -2.2840 0.0000 26.1687 0.0000
# 6 0.0000 0.0000 0.0000 -1.9504 0.0000 28.7119
#
#
#
# Elastic Compliance Matrix: (Units=1/GPa)
#
#
# Indices 1 2 3 4 5 6 
#
# 1 0.012819 -0.004713 -0.000894 0.000000 0.007603 0.000000
# 2 -0.004713 0.015620 -0.001250 0.000000 -0.000790 0.000000
# 3 -0.000894 -0.001250 0.011043 0.000000 0.000185 0.000000
# 4 0.000000 0.000000 0.000000 0.050033 0.000000 0.003399
# 5 0.007603 -0.000790 0.000185 0.000000 0.043095 0.000000
# 6 0.000000 0.000000 0.000000 0.003399 0.000000 0.035060
#
#
# Mechanical properties :
#
#
# Convention : Reuss Voigt Hill
#
# Bulk Modulus (GPa) = 38.80927 41.41992 40.11460
# Shear Modulus (GPa) = 26.31951 29.25133 27.78542
#
# Velocity S-wave (km/s) = 3.36167 3.54396 3.45402
# Velocity P-wave (km/s) = 5.63306 5.87629 5.75596
#
# Compressibility (1/GPa) = 0.02576704
#
# Stress axis : x y z
#
# Youngs Moduli (GPa) = 78.01077 64.02159 90.55623
#
# Poissons Ratio (x) = 0.30176 0.08094
# Poissons Ratio (y) = 0.36770 0.11319
# Poissons Ratio (z) = 0.06973 0.08002
#
# Static dielectric constant tensor:
#      x y z
#    x 1.896800 0.000000 -0.034870 
#    y 0.000000 1.910210 0.000000 
#    z -0.034870 0.000000 1.950100 
# 
# From -- ./inp_files/111808.got.cif
#   From: 2010.05.17/outbox.cif.g08.bks.cpg/sg15_56_cif.got.tgz:111808.got - 2010.06.03 18:47:42.
