data_PCOD9295629
_publ_section_title
;
Structure prediction by ZEFSAII (Michael W. Deem and Ramdas Pophale) SiO2 
 PCOD9295629
Probable space group: C 2/C
;
_chemical_formula_sum "Si O2"
_cell_formula_units_Z 64
_cell_length_a 29.999137
_cell_length_b 9.241279
_cell_length_c 18.581586
_cell_angle_alpha 90.000000
_cell_angle_beta 142.807528
_cell_angle_gamma 90.000000
_cell_volume 3113.980900
_symmetry_space_group_name_H-M "C 2/C"
_symmetry_group_IT_number 15
_symmetry_cell_setting 'monoclinic'
loop_
_space_group_symop_operation_xyz
x,y,z
-x,y,1/2-z
-x,-y,-z
x,-y,1/2+z
1/2+x,1/2+y,z
1/2-x,1/2+y,1/2-z
1/2-x,1/2-y,-z
1/2+x,1/2-y,1/2+z
loop_
_atom_site_type_symbol
_atom_site_label
_atom_site_fract_x
_atom_site_fract_y
_atom_site_fract_z
Si Si1 0.307343 0.956679 0.170637
Si Si2 0.210939 0.519557 0.013696
Si Si3 0.341747 0.292096 0.197086
Si Si4 0.587565 0.206745 0.359901
Si Si5 0.231761 0.260345 0.671021
Si Si6 0.958079 0.351485 0.428448
Si Si7 0.089051 0.847061 0.064894
Si Si8 0.120684 0.166272 0.054583
O O1 0.254426 0.892187 0.163597
O O2 0.386903 0.887354 0.289360
O O3 0.316620 0.129273 0.184208
O O4 0.282710 0.917193 0.058355
O O5 0.270423 0.391050 0.095673
O O6 0.225535 0.628579 0.097104
O O7 0.130810 0.445696 0.917750
O O8 0.387169 0.281006 0.181803
O O9 0.390664 0.353825 0.324619
O O10 0.500000 0.189751 0.250000
O O11 0.614792 0.297962 0.463362
O O12 0.155104 0.242874 0.613168
O O13 0.297098 0.310146 0.808085
O O14 0.929164 0.279910 0.464946
O O15 0.000000 0.500000 0.500000
O O16 0.013015 0.239055 0.461268
O O17 0.091591 0.006723 0.035562
#
# Coordination Sequence:
#
# PCOD9295629 Si02
#       8
#     8   8   8   8   8   8   8   8
#     4  10  23  43  66  97 135 179 215 278 336 401
#     4  11  24  43  69  99 137 176 222 279 335 401
#     4  11  23  43  71  96 132 179 226 271 334 399
#     4  11  25  42  69 100 131 176 226 276 329 402
#     4  11  26  40  69 101 135 173 224 285 329 394
#     4  11  24  43  69  97 134 179 220 269 334 403
#     4  12  25  42  71  99 134 176 226 277 333 392
#     4  11  26  45  67 100 139 174 225 275 333 397
#
# _framework density 20.552471000000001
#
# number of rings (size 3 to 8) (size 9 to 14) (size 15 to 20)
#    0.000    1.000    2.500    3.750    8.750    0.000 
#    0.000    0.000    0.000    0.000    0.000    0.000 
#    0.000    0.000    0.000    0.000    0.000    0.000 
#
# Total GULP energy -179165.692487 kJ/mol
# GULP energy per Si atom -5598.927890 kJ/mol
# Density = 2.050569 g / cm^3
# Si number density = 20.552471 Si / 1000 Ang^3
#
#
#
# Elastic Constant Matrix: (Units=GPa)
#
#
# Indices 1 2 3 4 5 6 
#
# 1 108.8336 34.3646 30.8356 0.0000 0.3436 0.0000
# 2 34.3646 64.0897 4.0366 0.0000 -7.3371 0.0000
# 3 30.8356 4.0366 76.8562 0.0000 -4.7103 0.0000
# 4 0.0000 0.0000 0.0000 21.6542 0.0000 -3.0493
# 5 0.3436 -7.3371 -4.7103 0.0000 25.3649 0.0000
# 6 0.0000 0.0000 0.0000 -3.0493 0.0000 25.0206
#
#
#
# Elastic Compliance Matrix: (Units=1/GPa)
#
#
# Indices 1 2 3 4 5 6 
#
# 1 0.012778 -0.006893 -0.004954 0.000000 -0.003087 0.000000
# 2 -0.006893 0.019880 0.002104 0.000000 0.006235 0.000000
# 3 -0.004954 0.002104 0.015102 0.000000 0.003480 0.000000
# 4 0.000000 0.000000 0.000000 0.046987 0.000000 0.005726
# 5 -0.003087 0.006235 0.003480 0.000000 0.041916 0.000000
# 6 0.000000 0.000000 0.000000 0.005726 0.000000 0.040665
#
#
# Mechanical properties :
#
#
# Convention : Reuss Voigt Hill
#
# Bulk Modulus (GPa) = 35.36885 43.13924 39.25404
# Shear Modulus (GPa) = 24.24369 26.44412 25.34390
#
# Velocity S-wave (km/s) = 3.43826 3.59090 3.51541
# Velocity P-wave (km/s) = 5.74531 6.18289 5.96811
#
# Compressibility (1/GPa) = 0.02827347
#
# Stress axis : x y z
#
# Youngs Moduli (GPa) = 78.25864 50.30083 66.21788
#
# Poissons Ratio (x) = 0.34672 0.32804
# Poissons Ratio (y) = 0.53943 -0.13929
# Poissons Ratio (z) = 0.38769 -0.10581
#
# Static dielectric constant tensor:
#      x y z
#    x 1.725920 0.000000 0.007010 
#    y 0.000000 1.726990 0.000000 
#    z 0.007010 0.000000 1.723160 
# 
# From -- ./inp_files/224619.got.cif
#   From: 2010.05.17/outbox.cif.g08.bks.cpg/sg15_113_cif.got.tgz:224619.got - 2010.06.03 18:47:42.
