data_PCOD9295625
_publ_section_title
;
Structure prediction by ZEFSAII (Michael W. Deem and Ramdas Pophale) SiO2 
 PCOD9295625
Probable space group: C 2/C
;
_chemical_formula_sum "Si O2"
_cell_formula_units_Z 48
_cell_length_a 12.425791
_cell_length_b 22.298178
_cell_length_c 9.395634
_cell_angle_alpha 90.000000
_cell_angle_beta 60.014812
_cell_angle_gamma 90.000000
_cell_volume 2254.835930
_symmetry_space_group_name_H-M "C 2/C"
_symmetry_group_IT_number 15
_symmetry_cell_setting 'monoclinic'
loop_
_space_group_symop_operation_xyz
x,y,z
-x,y,1/2-z
-x,-y,-z
x,-y,1/2+z
1/2+x,1/2+y,z
1/2-x,1/2+y,1/2-z
1/2-x,1/2-y,-z
1/2+x,1/2-y,1/2+z
loop_
_atom_site_type_symbol
_atom_site_label
_atom_site_fract_x
_atom_site_fract_y
_atom_site_fract_z
Si Si1 0.541940 0.621330 0.882400
Si Si2 0.390941 0.819724 0.717244
Si Si3 0.769467 0.783434 0.137868
Si Si4 0.555141 0.123268 0.863058
Si Si5 0.253882 0.970582 0.147573
Si Si6 0.219618 0.073063 0.370647
O O1 0.500000 0.641776 0.750000
O O2 0.611810 0.672284 0.926362
O O3 0.638242 0.566965 0.790243
O O4 0.419574 0.597804 0.041252
O O5 0.500000 0.799438 0.750000
O O6 0.297683 0.767604 0.734697
O O7 0.454507 0.847239 0.534031
O O8 0.311967 0.872441 0.840471
O O9 0.653160 0.824373 0.257889
O O10 0.750000 0.750000 0.000000
O O11 0.500000 0.101820 0.750000
O O12 0.625902 0.068588 0.892165
O O13 0.257217 0.036739 0.207315
O O14 0.232159 0.971723 0.994385
#
# Coordination Sequence:
#
# PCOD9295625 Si02
#       6
#     8   8   8   8   8   8
#     4   9  21  44  66  97 131 175 220 275 327 390
#     4  12  26  43  65 100 132 177 221 267 331 398
#     4  11  24  42  68  96 133 171 222 277 329 386
#     4  11  24  44  65  95 137 171 216 275 333 390
#     4  10  23  43  66  96 133 172 222 273 328 391
#     4  11  24  41  69  98 130 175 223 270 330 391
#
# _framework density 21.287579999999998
#
# number of rings (size 3 to 8) (size 9 to 14) (size 15 to 20)
#    0.000    1.333    3.333    1.000    4.667    2.000 
#    0.000    1.667    0.000    0.000    0.000    0.000 
#    0.000    0.000    0.000    0.000    0.000    0.000 
#
# Total GULP energy -134243.269944 kJ/mol
# GULP energy per Si atom -5593.469581 kJ/mol
# Density = 2.123913 g / cm^3
# Si number density = 21.287580 Si / 1000 Ang^3
#
#
#
# Elastic Constant Matrix: (Units=GPa)
#
#
# Indices 1 2 3 4 5 6 
#
# 1 76.1545 10.3246 -7.0096 0.0000 13.9204 0.0000
# 2 10.3246 44.2285 -14.1470 0.0000 9.9514 0.0000
# 3 -7.0096 -14.1470 15.2110 0.0000 7.9859 0.0000
# 4 0.0000 0.0000 0.0000 22.8135 0.0000 12.9699
# 5 13.9204 9.9514 7.9859 0.0000 31.8715 0.0000
# 6 0.0000 0.0000 0.0000 12.9699 0.0000 18.4199
#
#
#
# Elastic Compliance Matrix: (Units=1/GPa)
#
#
# Indices 1 2 3 4 5 6 
#
# 1 0.016912 0.006078 0.021096 0.000000 -0.014571 0.000000
# 2 0.006078 0.051789 0.070068 0.000000 -0.036382 0.000000
# 3 0.021096 0.070068 0.180728 0.000000 -0.076376 0.000000
# 4 0.000000 0.000000 0.000000 0.073094 0.000000 -0.051468
# 5 -0.014571 -0.036382 -0.076376 0.000000 0.068237 0.000000
# 6 0.000000 0.000000 0.000000 -0.051468 0.000000 0.090529
#
#
# Mechanical properties :
#
#
# Convention : Reuss Voigt Hill
#
# Bulk Modulus (GPa) = 2.25269 12.65891 7.45580
# Shear Modulus (GPa) = 11.50019 24.38270 17.94145
#
# Velocity S-wave (km/s) = 2.32681 3.38804 2.90627
# Velocity P-wave (km/s) = 2.87736 4.61136 3.84343
#
# Compressibility (1/GPa) = 0.44391339
#
# Stress axis : x y z
#
# Youngs Moduli (GPa) = 59.12851 19.30927 5.53318
#
# Poissons Ratio (x) = -0.11737 -0.11673
# Poissons Ratio (y) = -0.35940 -0.38770
# Poissons Ratio (z) = -1.24740 -1.35295
#
# Static dielectric constant tensor:
#      x y z
#    x 1.752900 0.000000 0.005330 
#    y 0.000000 1.742620 0.000000 
#    z 0.005330 0.000000 1.750620 
# 
# From -- ./inp_files/32490.got.cif
#   From: 2010.05.17/outbox.cif.g08.bks.cpg/sg15_17_cif.got.tgz:32490.got - 2010.06.03 18:47:42.
