data_PCOD9295745
_publ_section_title
;
Structure prediction by ZEFSAII (Michael W. Deem and Ramdas Pophale) SiO2 
 PCOD9295745
Probable space group: C 2/C
;
_chemical_formula_sum "Si O2"
_cell_formula_units_Z 44
_cell_length_a 26.684860
_cell_length_b 15.007719
_cell_length_c 13.419163
_cell_angle_alpha 90.000000
_cell_angle_beta 156.694507
_cell_angle_gamma 90.000000
_cell_volume 2126.170865
_symmetry_space_group_name_H-M "C 2/C"
_symmetry_group_IT_number 15
_symmetry_cell_setting 'monoclinic'
loop_
_space_group_symop_operation_xyz
x,y,z
-x,y,1/2-z
-x,-y,-z
x,-y,1/2+z
1/2+x,1/2+y,z
1/2-x,1/2+y,1/2-z
1/2-x,1/2-y,-z
1/2+x,1/2-y,1/2+z
loop_
_atom_site_type_symbol
_atom_site_label
_atom_site_fract_x
_atom_site_fract_y
_atom_site_fract_z
Si Si1 0.543150 0.097229 0.045324
Si Si2 0.710430 0.832370 0.499083
Si Si3 0.893397 0.759178 0.222514
Si Si4 0.206268 0.873787 0.629092
Si Si5 0.549770 0.407337 0.630672
Si Si6 0.500000 0.471933 0.750000
O O1 0.552100 0.161232 0.158798
O O2 0.673624 0.099779 0.220807
O O3 0.434374 0.142000 0.779069
O O4 0.500000 0.000000 0.000000
O O5 0.750000 0.750000 0.500000
O O6 0.748532 0.830026 0.684701
O O7 0.801727 0.907548 0.620612
O O8 0.977348 0.828034 0.441184
O O9 0.750000 0.750000 0.000000
O O10 0.876362 0.802452 0.083713
O O11 0.118741 0.961167 0.485043
O O12 0.500000 0.500000 0.500000
O O13 0.524507 0.409037 0.701079
#
# Coordination Sequence:
#
# PCOD9295745 Si02
#       6
#     8   8   8   8   8   4
#     4  11  25  46  71 102 145 183 230 297 357 418
#     4  12  25  45  70 103 146 183 237 296 347 425
#     4  10  23  43  68  98 137 179 230 285 344 418
#     4  11  23  44  72 101 142 188 233 291 357 415
#     4  12  23  43  71 103 136 182 234 286 346 417
#     4  12  24  40  80 102 136 188 240 286 348 424
#
# _framework density 20.694479999999999
#
# number of rings (size 3 to 8) (size 9 to 14) (size 15 to 20)
#    0.000    0.727    5.455    1.636    2.545    2.909 
#    0.000    3.636    0.000    0.000    0.000    0.000 
#    0.000    0.000    0.000    0.000    0.000    0.000 
#
# Total GULP energy -122873.375812 kJ/mol
# GULP energy per Si atom -5585.153446 kJ/mol
# Density = 2.064738 g / cm^3
# Si number density = 20.694480 Si / 1000 Ang^3
#
#
#
# Elastic Constant Matrix: (Units=GPa)
#
#
# Indices 1 2 3 4 5 6 
#
# 1 128.2572 26.5416 39.9096 0.0000 -18.1681 0.0000
# 2 26.5416 112.3267 29.2933 0.0000 -9.2782 0.0000
# 3 39.9096 29.2933 110.9092 0.0000 -2.7390 0.0000
# 4 0.0000 0.0000 0.0000 34.7562 0.0000 2.0458
# 5 -18.1681 -9.2782 -2.7390 0.0000 53.1123 0.0000
# 6 0.0000 0.0000 0.0000 2.0458 0.0000 22.7887
#
#
#
# Elastic Compliance Matrix: (Units=1/GPa)
#
#
# Indices 1 2 3 4 5 6 
#
# 1 0.009378 -0.001202 -0.002987 0.000000 0.002844 0.000000
# 2 -0.001202 0.009843 -0.002138 0.000000 0.001198 0.000000
# 3 -0.002987 -0.002138 0.010635 0.000000 -0.000847 0.000000
# 4 0.000000 0.000000 0.000000 0.028925 0.000000 -0.002597
# 5 0.002844 0.001198 -0.000847 0.000000 0.019966 0.000000
# 6 0.000000 0.000000 0.000000 -0.002597 0.000000 0.044114
#
#
# Mechanical properties :
#
#
# Convention : Reuss Voigt Hill
#
# Bulk Modulus (GPa) = 58.13013 60.33133 59.23073
# Shear Modulus (GPa) = 35.39858 39.18133 37.28996
#
# Velocity S-wave (km/s) = 4.14035 4.35595 4.24952
# Velocity P-wave (km/s) = 7.14194 7.38348 7.26371
#
# Compressibility (1/GPa) = 0.01720278
#
# Stress axis : x y z
#
# Youngs Moduli (GPa) = 106.63449 101.59445 94.03063
#
# Poissons Ratio (x) = 0.12212 0.28085
# Poissons Ratio (y) = 0.12818 0.20100
# Poissons Ratio (z) = 0.31850 0.21717
#
# Static dielectric constant tensor:
#      x y z
#    x 1.735870 0.000000 0.081910 
#    y 0.000000 1.740000 0.000000 
#    z 0.081910 0.000000 1.526520 
# 
# From -- ./inp_files/182391.got.cif
#   From: 2010.05.17/outbox.cif.g08.bks.cpg/sg15_92_cif.got.tgz:182391.got - 2010.06.03 18:47:42.
