data_PCOD9295563
_publ_section_title
;
Structure prediction by ZEFSAII (Michael W. Deem and Ramdas Pophale) SiO2 
 PCOD9295563
Probable space group: C 2/C
;
_chemical_formula_sum "Si O2"
_cell_formula_units_Z 64
_cell_length_a 16.204605
_cell_length_b 15.129208
_cell_length_c 16.843110
_cell_angle_alpha 90.000000
_cell_angle_beta 49.114696
_cell_angle_gamma 90.000000
_cell_volume 3121.842624
_symmetry_space_group_name_H-M "C 2/C"
_symmetry_group_IT_number 15
_symmetry_cell_setting 'monoclinic'
loop_
_space_group_symop_operation_xyz
x,y,z
-x,y,1/2-z
-x,-y,-z
x,-y,1/2+z
1/2+x,1/2+y,z
1/2-x,1/2+y,1/2-z
1/2-x,1/2-y,-z
1/2+x,1/2-y,1/2+z
loop_
_atom_site_type_symbol
_atom_site_label
_atom_site_fract_x
_atom_site_fract_y
_atom_site_fract_z
Si Si1 0.356766 0.789442 0.894386
Si Si2 0.694282 0.809186 0.879479
Si Si3 0.609671 0.376662 0.836047
Si Si4 0.071813 0.774510 0.316083
Si Si5 0.489986 0.188711 0.886920
Si Si6 0.267569 0.449206 0.583180
Si Si7 0.327892 0.145064 0.842502
Si Si8 0.981548 0.958571 0.355576
O O1 0.385101 0.730640 0.800300
O O2 0.458641 0.779499 0.888286
O O3 0.333206 0.886978 0.877506
O O4 0.250000 0.750000 0.000000
O O5 0.798777 0.868924 0.791792
O O6 0.655980 0.771689 0.819615
O O7 0.738508 0.722579 0.896594
O O8 0.587954 0.844700 0.992556
O O9 0.539214 0.285401 0.880354
O O10 0.672561 0.406153 0.877156
O O11 0.525944 0.453277 0.867114
O O12 0.046101 0.875338 0.351710
O O13 0.407948 0.176090 0.863474
O O14 0.599692 0.142957 0.784017
O O15 0.227092 0.549538 0.616011
O O16 0.356178 0.445893 0.457296
O O17 0.000000 0.960993 0.250000
#
# Coordination Sequence:
#
# PCOD9295563 Si02
#       8
#     8   8   8   8   8   8   8   8
#     4  11  22  41  65  90 127 171 216 261 332 388
#     4  11  22  41  69  95 133 173 218 271 327 396
#     4  11  25  40  67  98 130 174 221 271 325 396
#     4  11  22  41  62  97 125 166 216 272 322 395
#     4  10  23  43  64  97 134 177 220 266 334 401
#     4  12  23  45  67  94 131 175 216 276 334 390
#     4  10  24  41  67  96 133 175 220 268 336 397
#     4  12  24  38  66  98 130 161 221 275 321 382
#
# _framework density 20.500713000000001
#
# number of rings (size 3 to 8) (size 9 to 14) (size 15 to 20)
#    0.000    1.000    3.750    3.000    5.250    2.000 
#    0.000    1.875    0.000    0.000    0.000    0.000 
#    0.000    0.000    0.000    0.000    0.000    0.000 
#
# Total GULP energy -178565.620245 kJ/mol
# GULP energy per Si atom -5580.175633 kJ/mol
# Density = 2.045405 g / cm^3
# Si number density = 20.500713 Si / 1000 Ang^3
#
#
#
# Elastic Constant Matrix: (Units=GPa)
#
#
# Indices 1 2 3 4 5 6 
#
# 1 58.2126 19.7384 -9.8160 0.0000 0.4215 0.0000
# 2 19.7384 72.6864 4.3532 0.0000 -0.6947 0.0000
# 3 -9.8160 4.3532 105.7619 0.0000 -8.2223 0.0000
# 4 0.0000 0.0000 0.0000 25.6894 0.0000 -10.1603
# 5 0.4215 -0.6947 -8.2223 0.0000 24.0034 0.0000
# 6 0.0000 0.0000 0.0000 -10.1603 0.0000 21.2334
#
#
#
# Elastic Compliance Matrix: (Units=1/GPa)
#
#
# Indices 1 2 3 4 5 6 
#
# 1 0.019341 -0.005372 0.002032 0.000000 0.000201 0.000000
# 2 -0.005372 0.015285 -0.001116 0.000000 0.000154 0.000000
# 3 0.002032 -0.001116 0.009949 0.000000 0.003340 0.000000
# 4 0.000000 0.000000 0.000000 0.048013 0.000000 0.022974
# 5 0.000201 0.000154 0.003340 0.000000 0.042806 0.000000
# 6 0.000000 0.000000 0.000000 0.022974 0.000000 0.058089
#
#
# Mechanical properties :
#
#
# Convention : Reuss Voigt Hill
#
# Bulk Modulus (GPa) = 28.03981 29.46802 28.75392
# Shear Modulus (GPa) = 23.33369 29.01094 26.17231
#
# Velocity S-wave (km/s) = 3.37737 3.76589 3.57691
# Velocity P-wave (km/s) = 5.37736 5.77188 5.57811
#
# Compressibility (1/GPa) = 0.03566358
#
# Stress axis : x y z
#
# Youngs Moduli (GPa) = 51.70349 65.42444 100.50882
#
# Poissons Ratio (x) = 0.35146 -0.20422
# Poissons Ratio (y) = 0.27775 0.11214
# Poissons Ratio (z) = -0.10505 0.07299
#
# Static dielectric constant tensor:
#      x y z
#    x 1.823950 0.000000 0.014700 
#    y 0.000000 1.707540 0.000000 
#    z 0.014700 0.000000 1.766920 
# 
# From -- ./inp_files/211390.got.cif
#   From: 2010.05.17/outbox.cif.g08.bks.cpg/sg15_106_cif.got.tgz:211390.got - 2010.06.03 18:47:42.
