data_PCOD9295953
_publ_section_title
;
Structure prediction by ZEFSAII (Michael W. Deem and Ramdas Pophale) SiO2 
 PCOD9295953
Probable space group: C 2/C
;
_chemical_formula_sum "Si O2"
_cell_formula_units_Z 48
_cell_length_a 11.827359
_cell_length_b 15.092114
_cell_length_c 11.035188
_cell_angle_alpha 90.000000
_cell_angle_beta 112.158860
_cell_angle_gamma 90.000000
_cell_volume 1824.294743
_symmetry_space_group_name_H-M "C 2/C"
_symmetry_group_IT_number 15
_symmetry_cell_setting 'monoclinic'
loop_
_space_group_symop_operation_xyz
x,y,z
-x,y,1/2-z
-x,-y,-z
x,-y,1/2+z
1/2+x,1/2+y,z
1/2-x,1/2+y,1/2-z
1/2-x,1/2-y,-z
1/2+x,1/2-y,1/2+z
loop_
_atom_site_type_symbol
_atom_site_label
_atom_site_fract_x
_atom_site_fract_y
_atom_site_fract_z
Si Si1 0.000000 0.566159 0.750000
Si Si2 0.308733 0.143899 0.850481
Si Si3 0.090218 0.206405 0.976428
Si Si4 0.314739 0.229032 0.398807
Si Si5 0.716283 0.039376 0.023752
Si Si6 0.497951 0.423749 0.616394
Si Si7 0.000000 0.906153 0.250000
O O1 0.932651 0.621727 0.825913
O O2 0.885286 0.524809 0.624054
O O3 0.250221 0.213555 0.731042
O O4 0.273626 0.046772 0.887284
O O5 0.338447 0.204161 0.978411
O O6 0.951095 0.234687 0.946508
O O7 0.095176 0.160460 0.848100
O O8 0.096798 0.126790 0.075964
O O9 0.250000 0.250000 0.500000
O O10 0.317775 0.122278 0.402609
O O11 0.853013 0.064115 0.029949
O O12 0.500000 0.378473 0.750000
O O13 0.538657 0.525410 0.661300
#
# Coordination Sequence:
#
# PCOD9295953 Si02
#       7
#     4   8   8   8   8   8   4
#     4  12  24  44  72 102 158 202 252 302 388 472
#     4  12  26  45  73 113 150 198 259 315 389 452
#     4  12  23  45  71 105 148 194 249 313 381 453
#     4  12  23  45  76 103 142 194 260 310 360 466
#     4  12  25  46  73 116 144 199 253 325 376 446
#     4  10  23  43  76 101 146 193 269 310 373 446
#     4  10  26  44  68 106 146 196 246 320 388 440
#
# _framework density 26.311537999999999
#
# number of rings (size 3 to 8) (size 9 to 14) (size 15 to 20)
#    0.500    0.000    5.000    3.000    1.167    0.667 
#    6.000    1.667    0.000    0.000    0.000    0.000 
#    0.000    0.000    0.000    0.000    0.000    0.000 
#
# Total GULP energy -133975.332433 kJ/mol
# GULP energy per Si atom -5582.305518 kJ/mol
# Density = 2.625165 g / cm^3
# Si number density = 26.311538 Si / 1000 Ang^3
#
#
#
# Elastic Constant Matrix: (Units=GPa)
#
#
# Indices 1 2 3 4 5 6 
#
# 1 56.5660 29.8455 13.0347 0.0000 9.8659 0.0000
# 2 29.8455 206.5332 57.8386 0.0000 -2.8249 0.0000
# 3 13.0347 57.8386 102.3975 0.0000 21.9813 0.0000
# 4 0.0000 0.0000 0.0000 -49.6855 0.0000 14.8078
# 5 9.8659 -2.8249 21.9813 0.0000 55.9991 0.0000
# 6 0.0000 0.0000 0.0000 14.8078 0.0000 41.8490
#
#
#
# Elastic Compliance Matrix: (Units=1/GPa)
#
#
# Indices 1 2 3 4 5 6 
#
# 1 0.019856 -0.002883 -0.000128 0.000000 -0.003593 0.000000
# 2 -0.002883 0.006324 -0.003694 0.000000 0.002277 0.000000
# 3 -0.000128 -0.003694 0.012999 0.000000 -0.005266 0.000000
# 4 0.000000 0.000000 0.000000 -0.018207 0.000000 0.006442
# 5 -0.003593 0.002277 -0.005266 0.000000 0.020673 0.000000
# 6 0.000000 0.000000 0.000000 0.006442 0.000000 0.021616
#
#
# Mechanical properties :
#
#
# Convention : Reuss Voigt Hill
#
# Bulk Modulus (GPa) = 38.80500 62.99269 50.89884
# Shear Modulus (GPa) = 58.64461 27.28439 42.96450
#
# Velocity S-wave (km/s) = 4.72620 3.22370 4.04532
# Velocity P-wave (km/s) = 6.67554 6.15219 6.41920
#
# Compressibility (1/GPa) = 0.02576988
#
# Stress axis : x y z
#
# Youngs Moduli (GPa) = 50.36368 158.12813 76.92823
#
# Poissons Ratio (x) = 0.45582 0.00984
# Poissons Ratio (y) = 0.14518 0.28416
# Poissons Ratio (z) = 0.00644 0.58411
#
# Static dielectric constant tensor:
#      x y z
#    x 2.434290 0.000000 0.001000 
#    y 0.000000 2.083380 0.000000 
#    z 0.001000 0.000000 2.273180 
# 
# From -- ./inp_files/97234.got.cif
#   From: 2010.05.17/outbox.cif.g08.bks.cpg/sg15_49_cif.got.tgz:97234.got - 2010.06.03 18:47:42.
