data_PCOD9295695
_publ_section_title
;
Structure prediction by ZEFSAII (Michael W. Deem and Ramdas Pophale) SiO2 
 PCOD9295695
Probable space group: C 2/C
;
_chemical_formula_sum "Si O2"
_cell_formula_units_Z 52
_cell_length_a 21.446797
_cell_length_b 20.781072
_cell_length_c 5.698374
_cell_angle_alpha 90.000000
_cell_angle_beta 58.490702
_cell_angle_gamma 90.000000
_cell_volume 2165.229462
_symmetry_space_group_name_H-M "C 2/C"
_symmetry_group_IT_number 15
_symmetry_cell_setting 'monoclinic'
loop_
_space_group_symop_operation_xyz
x,y,z
-x,y,1/2-z
-x,-y,-z
x,-y,1/2+z
1/2+x,1/2+y,z
1/2-x,1/2+y,1/2-z
1/2-x,1/2-y,-z
1/2+x,1/2-y,1/2+z
loop_
_atom_site_type_symbol
_atom_site_label
_atom_site_fract_x
_atom_site_fract_y
_atom_site_fract_z
Si Si1 0.928986 0.655065 0.521104
Si Si2 0.500000 0.539087 0.750000
Si Si3 0.926544 0.223102 0.300274
Si Si4 0.834511 0.734832 0.376019
Si Si5 0.731953 0.475304 0.708285
Si Si6 0.596472 0.973868 0.174417
Si Si7 0.636046 0.634902 0.425655
O O1 0.956572 0.723881 0.560629
O O2 0.859871 0.676429 0.494239
O O3 0.909091 0.600994 0.747836
O O4 0.000000 0.627700 0.250000
O O5 0.500000 0.500000 0.500000
O O6 0.571670 0.584850 0.605276
O O7 0.876510 0.270027 0.551317
O O8 0.876565 0.166527 0.302459
O O9 0.000000 0.191789 0.250000
O O10 0.750000 0.750000 0.500000
O O11 0.866596 0.802484 0.408461
O O12 0.701411 0.491185 0.506591
O O13 0.817207 0.490817 0.519730
O O14 0.712892 0.401008 0.789603
O O15 0.568995 0.011033 0.464594
#
# Coordination Sequence:
#
# PCOD9295695 Si02
#       7
#     8   4   8   8   8   8   8
#     4  11  25  45  70 104 139 182 239 294 360 437
#     4  12  28  46  74 110 146 198 258 304 368 446
#     4  11  24  44  71  99 143 187 235 297 369 425
#     4  11  27  43  72 107 142 190 244 304 371 435
#     4  10  23  43  67  98 139 186 234 289 359 424
#     4  10  25  44  71 103 138 181 231 290 355 425
#     4  11  26  42  69 101 143 187 244 305 361 436
#
# _framework density 24.015930999999998
#
# number of rings (size 3 to 8) (size 9 to 14) (size 15 to 20)
#    0.000    1.231    1.538    1.846   14.000    3.077 
#    0.000    0.000    0.000    0.000    0.000    0.000 
#    0.000    0.000    0.000    0.000    0.000    0.000 
#
# Total GULP energy -145086.333247 kJ/mol
# GULP energy per Si atom -5580.243586 kJ/mol
# Density = 2.396127 g / cm^3
# Si number density = 24.015931 Si / 1000 Ang^3
#
#
#
# Elastic Constant Matrix: (Units=GPa)
#
#
# Indices 1 2 3 4 5 6 
#
# 1 87.9346 21.9621 34.7443 0.0000 1.4229 0.0000
# 2 21.9621 110.3699 40.0201 0.0000 24.6988 0.0000
# 3 34.7443 40.0201 120.6265 0.0000 17.2863 0.0000
# 4 0.0000 0.0000 0.0000 36.2383 0.0000 1.3372
# 5 1.4229 24.6988 17.2863 0.0000 20.2705 0.0000
# 6 0.0000 0.0000 0.0000 1.3372 0.0000 28.2618
#
#
#
# Elastic Compliance Matrix: (Units=1/GPa)
#
#
# Indices 1 2 3 4 5 6 
#
# 1 0.013408 -0.002481 -0.003802 0.000000 0.005324 0.000000
# 2 -0.002481 0.013466 -0.001625 0.000000 -0.014848 0.000000
# 3 -0.003802 -0.001625 0.010939 0.000000 -0.007081 0.000000
# 4 0.000000 0.000000 0.000000 0.027643 0.000000 -0.001308
# 5 0.005324 -0.014848 -0.007081 0.000000 0.073089 0.000000
# 6 0.000000 0.000000 0.000000 -0.001308 0.000000 0.035445
#
#
# Mechanical properties :
#
#
# Convention : Reuss Voigt Hill
#
# Bulk Modulus (GPa) = 45.46036 56.93157 51.19596
# Shear Modulus (GPa) = 25.36286 31.76774 28.56530
#
# Velocity S-wave (km/s) = 3.25327 3.64095 3.45255
# Velocity P-wave (km/s) = 5.75170 6.43681 6.10388
#
# Compressibility (1/GPa) = 0.02199719
#
# Stress axis : x y z
#
# Youngs Moduli (GPa) = 74.58436 74.26079 91.41528
#
# Poissons Ratio (x) = 0.18422 0.34753
# Poissons Ratio (y) = 0.18503 0.14858
# Poissons Ratio (z) = 0.28355 0.12070
#
# Static dielectric constant tensor:
#      x y z
#    x 1.943450 0.000000 -0.033780 
#    y 0.000000 1.847520 0.000000 
#    z -0.033780 0.000000 2.021020 
# 
# From -- ./inp_files/15796.got.cif
#   From: 2010.05.17/outbox.cif.g08.bks.cpg/sg15_8_cif.got.tgz:15796.got - 2010.06.03 18:47:42.
