data_PCOD9295604
_publ_section_title
;
Structure prediction by ZEFSAII (Michael W. Deem and Ramdas Pophale) SiO2 
 PCOD9295604
Probable space group: C 2/C
;
_chemical_formula_sum "Si O2"
_cell_formula_units_Z 48
_cell_length_a 26.329175
_cell_length_b 8.039737
_cell_length_c 9.447053
_cell_angle_alpha 90.000000
_cell_angle_beta 96.045379
_cell_angle_gamma 90.000000
_cell_volume 1988.627789
_symmetry_space_group_name_H-M "C 2/C"
_symmetry_group_IT_number 15
_symmetry_cell_setting 'monoclinic'
loop_
_space_group_symop_operation_xyz
x,y,z
-x,y,1/2-z
-x,-y,-z
x,-y,1/2+z
1/2+x,1/2+y,z
1/2-x,1/2+y,1/2-z
1/2-x,1/2-y,-z
1/2+x,1/2-y,1/2+z
loop_
_atom_site_type_symbol
_atom_site_label
_atom_site_fract_x
_atom_site_fract_y
_atom_site_fract_z
Si Si1 0.614066 0.361414 0.228787
Si Si2 0.964189 0.571095 0.609298
Si Si3 0.187152 0.617569 0.815624
Si Si4 0.055322 0.958965 0.952107
Si Si5 0.777053 0.757362 0.162080
Si Si6 0.630445 0.035738 0.067913
O O1 0.573953 0.419676 0.334284
O O2 0.672657 0.373780 0.302720
O O3 0.607404 0.175222 0.164781
O O4 0.598698 0.467643 0.086158
O O5 0.950063 0.767787 0.603282
O O6 0.910861 0.481146 0.560080
O O7 0.000000 0.538052 0.750000
O O8 0.000000 0.500000 0.500000
O O9 0.202023 0.425449 0.811107
O O10 0.235944 0.714137 0.773416
O O11 0.147156 0.618126 0.671807
O O12 0.170142 0.633367 0.974073
O O13 0.000000 0.000000 0.000000
O O14 0.750000 0.750000 0.000000
#
# Coordination Sequence:
#
# PCOD9295604 Si02
#       6
#     8   8   8   8   8   8
#     4  10  25  43  70 105 143 185 242 298 367 430
#     4  11  24  42  67  98 135 181 231 288 358 427
#     4  11  23  44  71 101 145 186 245 300 368 437
#     4  11  24  47  73 105 142 185 239 303 365 441
#     4  11  25  45  72 106 143 193 243 307 369 438
#     4  10  23  43  66 103 142 186 238 301 358 442
#
# _framework density 24.137248
#
# number of rings (size 3 to 8) (size 9 to 14) (size 15 to 20)
#    0.000    1.333    1.667    2.500    2.333   10.667 
#    3.000    0.000    0.000    0.000    0.000    0.000 
#    0.000    0.000    0.000    0.000    0.000    0.000 
#
# Total GULP energy -133908.192622 kJ/mol
# GULP energy per Si atom -5579.508026 kJ/mol
# Density = 2.408231 g / cm^3
# Si number density = 24.137248 Si / 1000 Ang^3
#
#
#
# Elastic Constant Matrix: (Units=GPa)
#
#
# Indices 1 2 3 4 5 6 
#
# 1 86.1133 16.7907 55.5780 0.0000 3.4321 0.0000
# 2 16.7907 44.4891 30.3804 0.0000 -13.0598 0.0000
# 3 55.5780 30.3804 180.1731 0.0000 -4.0501 0.0000
# 4 0.0000 0.0000 0.0000 37.1674 0.0000 -10.1813
# 5 3.4321 -13.0598 -4.0501 0.0000 63.1338 0.0000
# 6 0.0000 0.0000 0.0000 -10.1813 0.0000 36.6708
#
#
#
# Elastic Compliance Matrix: (Units=1/GPa)
#
#
# Indices 1 2 3 4 5 6 
#
# 1 0.014984 -0.003383 -0.004092 0.000000 -0.001777 0.000000
# 2 -0.003383 0.027837 -0.003522 0.000000 0.005716 0.000000
# 3 -0.004092 -0.003522 0.007406 0.000000 -0.000031 0.000000
# 4 0.000000 0.000000 0.000000 0.029120 0.000000 0.008085
# 5 -0.001777 0.005716 -0.000031 0.000000 0.017116 0.000000
# 6 0.000000 0.000000 0.000000 0.008085 0.000000 0.029514
#
#
# Mechanical properties :
#
#
# Convention : Reuss Voigt Hill
#
# Bulk Modulus (GPa) = 35.41808 57.36375 46.39091
# Shear Modulus (GPa) = 31.77011 41.26284 36.51648
#
# Velocity S-wave (km/s) = 3.63192 4.13911 3.89378
# Velocity P-wave (km/s) = 5.68272 6.83083 6.28305
#
# Compressibility (1/GPa) = 0.02823417
#
# Stress axis : x y z
#
# Youngs Moduli (GPa) = 66.73914 35.92330 135.03453
#
# Poissons Ratio (x) = 0.12151 0.55251
# Poissons Ratio (y) = 0.22575 0.47558
# Poissons Ratio (z) = 0.27307 0.12652
#
# Static dielectric constant tensor:
#      x y z
#    x 2.092670 0.000000 -0.422730 
#    y 0.000000 1.896490 0.000000 
#    z -0.422730 0.000000 3.072160 
# 
# From -- ./inp_files/68581.got.cif
#   From: 2010.05.17/outbox.cif.g08.bks.cpg/sg15_35_cif.got.tgz:68581.got - 2010.06.03 18:47:42.
