data_PCOD9295771
_publ_section_title
;
Structure prediction by ZEFSAII (Michael W. Deem and Ramdas Pophale) SiO2 
 PCOD9295771
Probable space group: C 2/C
;
_chemical_formula_sum "Si O2"
_cell_formula_units_Z 52
_cell_length_a 10.459781
_cell_length_b 11.175745
_cell_length_c 22.906762
_cell_angle_alpha 90.000000
_cell_angle_beta 53.197145
_cell_angle_gamma 90.000000
_cell_volume 2144.042711
_symmetry_space_group_name_H-M "C 2/C"
_symmetry_group_IT_number 15
_symmetry_cell_setting 'monoclinic'
loop_
_space_group_symop_operation_xyz
x,y,z
-x,y,1/2-z
-x,-y,-z
x,-y,1/2+z
1/2+x,1/2+y,z
1/2-x,1/2+y,1/2-z
1/2-x,1/2-y,-z
1/2+x,1/2-y,1/2+z
loop_
_atom_site_type_symbol
_atom_site_label
_atom_site_fract_x
_atom_site_fract_y
_atom_site_fract_z
Si Si1 0.618435 0.791824 0.772068
Si Si2 0.642670 0.104346 0.518013
Si Si3 0.739559 0.020465 0.769459
Si Si4 0.200139 0.577249 0.905602
Si Si5 0.000000 0.366511 0.250000
Si Si6 0.223255 0.190118 0.908535
Si Si7 0.415203 0.275893 0.421966
O O1 0.500000 0.807459 0.750000
O O2 0.673215 0.651711 0.759453
O O3 0.518486 0.821968 0.858739
O O4 0.764881 0.889077 0.732458
O O5 0.458376 0.146261 0.573137
O O6 0.726767 0.091888 0.556994
O O7 0.725197 0.194601 0.450074
O O8 0.647188 0.982758 0.480733
O O9 0.743074 0.999531 0.837840
O O10 0.576992 0.055251 0.780382
O O11 0.353754 0.647721 0.883839
O O12 0.145685 0.300202 0.177985
O O13 0.048109 0.170735 0.929187
O O14 0.250000 0.250000 0.500000
#
# Coordination Sequence:
#
# PCOD9295771 Si02
#       7
#     8   8   8   8   4   8   8
#     4  12  27  52  78 114 161 210 267 333 407 485
#     4  10  23  43  69 103 150 207 261 324 389 486
#     4  12  26  50  78 112 157 210 267 332 411 479
#     4  11  23  43  72 109 149 207 260 322 407 475
#     4  12  24  42  72 110 152 212 256 336 404 470
#     4  11  23  44  68 106 153 202 268 320 401 478
#     4  12  25  44  74 113 155 206 261 336 405 479
#
# _framework density 24.253249
#
# number of rings (size 3 to 8) (size 9 to 14) (size 15 to 20)
#    0.000    0.615    6.923    0.923    2.154    0.615 
#    4.154    0.000    0.000    0.000    0.000    0.000 
#    0.000    0.000    0.000    0.000    0.000    0.000 
#
# Total GULP energy -144763.834016 kJ/mol
# GULP energy per Si atom -5567.839770 kJ/mol
# Density = 2.419805 g / cm^3
# Si number density = 24.253249 Si / 1000 Ang^3
#
#
#
# Elastic Constant Matrix: (Units=GPa)
#
#
# Indices 1 2 3 4 5 6 
#
# 1 196.4897 44.3732 64.5782 0.0000 22.6679 0.0000
# 2 44.3732 93.5985 32.4003 0.0000 -2.5514 0.0000
# 3 64.5782 32.4003 111.7759 0.0000 7.5765 0.0000
# 4 0.0000 0.0000 0.0000 29.3960 0.0000 5.3532
# 5 22.6679 -2.5514 7.5765 0.0000 46.4274 0.0000
# 6 0.0000 0.0000 0.0000 5.3532 0.0000 43.2122
#
#
#
# Elastic Compliance Matrix: (Units=1/GPa)
#
#
# Indices 1 2 3 4 5 6 
#
# 1 0.007001 -0.002304 -0.003172 0.000000 -0.003027 0.000000
# 2 -0.002304 0.012703 -0.002503 0.000000 0.002231 0.000000
# 3 -0.003172 -0.002503 0.011536 0.000000 -0.000471 0.000000
# 4 0.000000 0.000000 0.000000 0.034803 0.000000 -0.004311
# 5 -0.003027 0.002231 -0.000471 0.000000 0.023217 0.000000
# 6 0.000000 0.000000 0.000000 -0.004311 0.000000 0.023676
#
#
# Mechanical properties :
#
#
# Convention : Reuss Voigt Hill
#
# Bulk Modulus (GPa) = 65.42594 76.06304 70.74449
# Shear Modulus (GPa) = 37.31675 41.17460 39.24567
#
# Velocity S-wave (km/s) = 3.92679 4.12478 4.02700
# Velocity P-wave (km/s) = 6.89886 7.35630 7.13125
#
# Compressibility (1/GPa) = 0.01528446
#
# Stress axis : x y z
#
# Youngs Moduli (GPa) = 142.83005 78.72056 86.68163
#
# Poissons Ratio (x) = 0.18135 0.27496
# Poissons Ratio (y) = 0.32903 0.21692
# Poissons Ratio (z) = 0.45306 0.19700
#
# Static dielectric constant tensor:
#      x y z
#    x 2.007520 0.000000 -0.068910 
#    y 0.000000 2.186860 0.000000 
#    z -0.068910 0.000000 1.994840 
# 
# From -- ./inp_files/269181.got.cif
#   From: 2010.05.17/outbox.cif.g08.bks.cpg/sg15_135_cif.got.tgz:269181.got - 2010.06.03 18:47:42.
