data_PCOD9295126
_publ_section_title
;
Structure prediction by ZEFSAII (Michael W. Deem and Ramdas Pophale) SiO2 
 PCOD9295126
Probable space group: C 2/C
;
_chemical_formula_sum "Si O2"
_cell_formula_units_Z 56
_cell_length_a 29.179213
_cell_length_b 17.069107
_cell_length_c 9.942387
_cell_angle_alpha 90.000000
_cell_angle_beta 142.458541
_cell_angle_gamma 90.000000
_cell_volume 3017.389700
_symmetry_space_group_name_H-M "C 2/C"
_symmetry_group_IT_number 15
_symmetry_cell_setting 'monoclinic'
loop_
_space_group_symop_operation_xyz
x,y,z
-x,y,1/2-z
-x,-y,-z
x,-y,1/2+z
1/2+x,1/2+y,z
1/2-x,1/2+y,1/2-z
1/2-x,1/2-y,-z
1/2+x,1/2-y,1/2+z
loop_
_atom_site_type_symbol
_atom_site_label
_atom_site_fract_x
_atom_site_fract_y
_atom_site_fract_z
Si Si1 0.574697 0.272744 0.015591
Si Si2 0.477000 0.555035 0.830001
Si Si3 0.684035 0.690573 0.378638
Si Si4 0.522352 0.273625 0.449910
Si Si5 0.787942 0.331438 0.638218
Si Si6 0.311403 0.419997 0.871058
Si Si7 0.802599 0.106072 0.801283
O O1 0.541808 0.261335 0.089155
O O2 0.630236 0.198447 0.124773
O O3 0.626011 0.350715 0.107372
O O4 0.500000 0.275846 0.750000
O O5 0.500000 0.509645 0.750000
O O6 0.526550 0.632306 0.947421
O O7 0.392302 0.583730 0.630981
O O8 0.500000 0.500000 0.000000
O O9 0.750000 0.750000 0.500000
O O10 0.686135 0.626884 0.263201
O O11 0.696389 0.649002 0.551351
O O12 0.606814 0.741808 0.195348
O O13 0.500000 0.242782 0.250000
O O14 0.750000 0.250000 0.500000
O O15 0.747207 0.377587 0.664873
O O16 0.771104 0.380582 0.463593
O O17 0.305048 0.512961 0.829482
#
# Coordination Sequence:
#
# PCOD9295126 Si02
#       7
#     8   8   8   8   8   8   8
#     4  11  23  41  66  95 126 169 223 260 323 385
#     4  11  23  34  54  83 130 166 192 244 308 389
#     4  12  24  40  61  91 129 171 218 264 314 384
#     4  11  23  38  57  89 120 163 216 256 314 375
#     4  10  23  42  65  87 128 177 214 266 310 392
#     4  12  24  41  61  94 131 168 213 260 328 385
#     4  11  24  39  63  95 129 168 210 264 327 389
#
# _framework density 18.559087999999999
#
# number of rings (size 3 to 8) (size 9 to 14) (size 15 to 20)
#    0.000    0.857    4.286    5.143    6.000    0.000 
#    0.000    0.000    0.000    0.857    0.000    0.000 
#    0.000    0.000    0.000    0.000    0.000    0.000 
#
# Total GULP energy -156049.118524 kJ/mol
# GULP energy per Si atom -5573.182804 kJ/mol
# Density = 1.851685 g / cm^3
# Si number density = 18.559088 Si / 1000 Ang^3
#
#
#
# Elastic Constant Matrix: (Units=GPa)
#
#
# Indices 1 2 3 4 5 6 
#
# 1 147.3134 59.7637 47.3291 0.0000 -11.7171 0.0000
# 2 59.7637 77.5601 42.6238 0.0000 18.4224 0.0000
# 3 47.3291 42.6238 71.4204 0.0000 2.7134 0.0000
# 4 0.0000 0.0000 0.0000 26.1762 0.0000 -5.9530
# 5 -11.7171 18.4224 2.7134 0.0000 35.9606 0.0000
# 6 0.0000 0.0000 0.0000 -5.9530 0.0000 10.4500
#
#
#
# Elastic Compliance Matrix: (Units=1/GPa)
#
#
# Indices 1 2 3 4 5 6 
#
# 1 0.012743 -0.010900 -0.002316 0.000000 0.009911 0.000000
# 2 -0.010900 0.031924 -0.011104 0.000000 -0.019068 0.000000
# 3 -0.002316 -0.011104 0.022039 0.000000 0.003271 0.000000
# 4 0.000000 0.000000 0.000000 0.043889 0.000000 0.025002
# 5 0.009911 -0.019068 0.003271 0.000000 0.040559 0.000000
# 6 0.000000 0.000000 0.000000 0.025002 0.000000 0.109937
#
#
# Mechanical properties :
#
#
# Convention : Reuss Voigt Hill
#
# Bulk Modulus (GPa) = 55.35542 66.19191 60.77367
# Shear Modulus (GPa) = 15.83515 24.28917 20.06216
#
# Velocity S-wave (km/s) = 2.92418 3.62159 3.29141
# Velocity P-wave (km/s) = 6.42592 7.29594 6.87471
#
# Compressibility (1/GPa) = 0.01806508
#
# Stress axis : x y z
#
# Youngs Moduli (GPa) = 78.47651 31.32416 45.37416
#
# Poissons Ratio (x) = 0.34145 0.10507
# Poissons Ratio (y) = 0.85542 0.50386
# Poissons Ratio (z) = 0.18171 0.34784
#
# Static dielectric constant tensor:
#      x y z
#    x 1.738870 0.000000 -0.016310 
#    y 0.000000 1.660740 0.000000 
#    z -0.016310 0.000000 1.783800 
# 
# From -- ./inp_files/67188.got.cif
#   From: 2010.05.17/outbox.cif.g08.bks.cpg/sg15_34_cif.got.tgz:67188.got - 2010.06.03 18:47:42.
