data_PCOD9295103
_publ_section_title
;
Structure prediction by ZEFSAII (Michael W. Deem and Ramdas Pophale) SiO2 
 PCOD9295103
Probable space group: C 2/C
;
_chemical_formula_sum "Si O2"
_cell_formula_units_Z 44
_cell_length_a 18.571352
_cell_length_b 5.418670
_cell_length_c 19.347350
_cell_angle_alpha 90.000000
_cell_angle_beta 75.069592
_cell_angle_gamma 90.000000
_cell_volume 1881.232576
_symmetry_space_group_name_H-M "C 2/C"
_symmetry_group_IT_number 15
_symmetry_cell_setting 'monoclinic'
loop_
_space_group_symop_operation_xyz
x,y,z
-x,y,1/2-z
-x,-y,-z
x,-y,1/2+z
1/2+x,1/2+y,z
1/2-x,1/2+y,1/2-z
1/2-x,1/2-y,-z
1/2+x,1/2-y,1/2+z
loop_
_atom_site_type_symbol
_atom_site_label
_atom_site_fract_x
_atom_site_fract_y
_atom_site_fract_z
Si Si1 0.189872 0.982846 0.338156
Si Si2 0.651714 0.015889 0.765618
Si Si3 0.000000 0.278998 0.250000
Si Si4 0.568863 0.186853 0.982910
Si Si5 0.828793 0.723933 0.016452
Si Si6 0.463527 0.431972 0.903573
O O1 0.279587 0.976375 0.305151
O O2 0.157419 0.745888 0.303969
O O3 0.171442 0.925599 0.422407
O O4 0.165253 0.242193 0.310553
O O5 0.571246 0.056110 0.752048
O O6 0.019949 0.109507 0.179643
O O7 0.537262 0.365930 0.930215
O O8 0.645399 0.035850 0.956717
O O9 0.563541 0.308997 0.059657
O O10 0.500000 0.000000 0.000000
O O11 0.750000 0.750000 0.000000
O O12 0.893451 0.767839 0.944622
#
# Coordination Sequence:
#
# PCOD9295103 Si02
#       6
#     8   8   4   8   8   8
#     4  10  23  46  69  96 139 189 223 283 354 428
#     4  10  24  45  68 100 138 181 232 282 357 413
#     4  12  24  42  68 104 134 178 234 306 336 422
#     4   9  21  42  64  90 131 177 219 279 349 424
#     4  11  23  40  67  97 128 177 234 283 341 413
#     4  10  23  42  64  96 134 175 234 279 364 414
#
# _framework density 23.388922999999998
#
# number of rings (size 3 to 8) (size 9 to 14) (size 15 to 20)
#    0.000    1.818    0.000    2.182   10.182    1.455 
#   16.364    0.000    0.000    0.000    0.000    0.000 
#    0.000    0.000    0.000    0.000    0.000    0.000 
#
# Total GULP energy -122939.705732 kJ/mol
# GULP energy per Si atom -5588.168442 kJ/mol
# Density = 2.333569 g / cm^3
# Si number density = 23.388923 Si / 1000 Ang^3
#
#
#
# Elastic Constant Matrix: (Units=GPa)
#
#
# Indices 1 2 3 4 5 6 
#
# 1 206.6998 35.8840 43.7462 0.0000 9.2842 0.0000
# 2 35.8840 113.3189 16.9148 0.0000 8.8998 0.0000
# 3 43.7462 16.9148 152.9941 0.0000 -9.1389 0.0000
# 4 0.0000 0.0000 0.0000 20.3538 0.0000 -6.6363
# 5 9.2842 8.8998 -9.1389 0.0000 26.6701 0.0000
# 6 0.0000 0.0000 0.0000 -6.6363 0.0000 25.7217
#
#
#
# Elastic Compliance Matrix: (Units=1/GPa)
#
#
# Indices 1 2 3 4 5 6 
#
# 1 0.005487 -0.001352 -0.001538 0.000000 -0.001986 0.000000
# 2 -0.001352 0.009619 -0.000858 0.000000 -0.003033 0.000000
# 3 -0.001538 -0.000858 0.007269 0.000000 0.003313 0.000000
# 4 0.000000 0.000000 0.000000 0.053643 0.000000 0.013840
# 5 -0.001986 -0.003033 0.003313 0.000000 0.040334 0.000000
# 6 0.000000 0.000000 0.000000 0.013840 0.000000 0.042448
#
#
# Mechanical properties :
#
#
# Convention : Reuss Voigt Hill
#
# Bulk Modulus (GPa) = 67.21051 74.01143 70.61097
# Shear Modulus (GPa) = 29.19586 39.64698 34.42142
#
# Velocity S-wave (km/s) = 3.53693 4.12165 3.84043
# Velocity P-wave (km/s) = 6.74376 7.37314 7.06546
#
# Compressibility (1/GPa) = 0.01487863
#
# Stress axis : x y z
#
# Youngs Moduli (GPa) = 182.23513 103.95977 137.57515
#
# Poissons Ratio (x) = 0.14056 0.21162
# Poissons Ratio (y) = 0.24640 0.11805
# Poissons Ratio (z) = 0.28031 0.08920
#
# Static dielectric constant tensor:
#      x y z
#    x 1.955120 0.000000 -0.193760 
#    y 0.000000 2.192610 0.000000 
#    z -0.193760 0.000000 2.148880 
# 
# From -- ./inp_files/246482.got.cif
#   From: 2010.05.17/outbox.cif.g08.bks.cpg/sg15_124_cif.got.tgz:246482.got - 2010.06.03 18:47:42.
