data_PCOD9295610
_publ_section_title
;
Structure prediction by ZEFSAII (Michael W. Deem and Ramdas Pophale) SiO2 
 PCOD9295610
Probable space group: C 2/C
;
_chemical_formula_sum "Si O2"
_cell_formula_units_Z 48
_cell_length_a 7.637762
_cell_length_b 16.735064
_cell_length_c 17.936147
_cell_angle_alpha 90.000000
_cell_angle_beta 94.475484
_cell_angle_gamma 90.000000
_cell_volume 2285.579782
_symmetry_space_group_name_H-M "C 2/C"
_symmetry_group_IT_number 15
_symmetry_cell_setting 'monoclinic'
loop_
_space_group_symop_operation_xyz
x,y,z
-x,y,1/2-z
-x,-y,-z
x,-y,1/2+z
1/2+x,1/2+y,z
1/2-x,1/2+y,1/2-z
1/2-x,1/2-y,-z
1/2+x,1/2-y,1/2+z
loop_
_atom_site_type_symbol
_atom_site_label
_atom_site_fract_x
_atom_site_fract_y
_atom_site_fract_z
Si Si1 0.673172 0.254700 0.414805
Si Si2 0.831015 0.540805 0.455729
Si Si3 0.930693 0.596773 0.163609
Si Si4 0.257368 0.568939 0.818116
Si Si5 0.819518 0.086813 0.654399
Si Si6 0.205209 0.821496 0.055603
O O1 0.750000 0.250000 0.500000
O O2 0.678403 0.171857 0.371041
O O3 0.750858 0.325802 0.368774
O O4 0.477054 0.288067 0.419514
O O5 0.723181 0.469756 0.415943
O O6 0.719522 0.598594 0.505215
O O7 0.000000 0.500000 0.500000
O O8 0.907464 0.590427 0.388445
O O9 0.820672 0.514477 0.155009
O O10 0.000000 0.609045 0.250000
O O11 0.222817 0.566696 0.728535
O O12 0.470264 0.576002 0.828829
O O13 0.195330 0.644375 0.866721
O O14 0.250000 0.750000 0.000000
#
# Coordination Sequence:
#
# PCOD9295610 Si02
#       6
#     8   8   8   8   8   8
#     4  11  26  42  66  97 135 176 229 274 339 406
#     4  12  23  41  67  96 133 174 226 273 338 402
#     4  12  24  42  68  98 130 175 225 278 339 408
#     4  10  23  43  66  92 131 172 226 272 343 393
#     4  10  24  43  66  92 132 177 218 279 336 400
#     4  11  24  40  65  96 134 170 219 280 335 395
#
# _framework density 21.001235000000001
#
# number of rings (size 3 to 8) (size 9 to 14) (size 15 to 20)
#    0.000    1.000    5.000    1.000    7.000    1.333 
#    0.000    0.000    0.000    2.000    0.000    0.000 
#    0.000    0.000    0.000    0.000    0.000    0.000 
#
# Total GULP energy -133761.615270 kJ/mol
# GULP energy per Si atom -5573.400636 kJ/mol
# Density = 2.095343 g / cm^3
# Si number density = 21.001235 Si / 1000 Ang^3
#
#
#
# Elastic Constant Matrix: (Units=GPa)
#
#
# Indices 1 2 3 4 5 6 
#
# 1 26.8544 19.1230 14.3263 0.0000 1.0106 0.0000
# 2 19.1230 139.9275 41.1710 0.0000 9.8008 0.0000
# 3 14.3263 41.1710 106.6520 0.0000 3.3229 0.0000
# 4 0.0000 0.0000 0.0000 48.0023 0.0000 -1.5997
# 5 1.0106 9.8008 3.3229 0.0000 35.8819 0.0000
# 6 0.0000 0.0000 0.0000 -1.5997 0.0000 28.7205
#
#
#
# Elastic Compliance Matrix: (Units=1/GPa)
#
#
# Indices 1 2 3 4 5 6 
#
# 1 0.042668 -0.004707 -0.003929 0.000000 0.000448 0.000000
# 2 -0.004707 0.008715 -0.002670 0.000000 -0.002001 0.000000
# 3 -0.003929 -0.002670 0.010940 0.000000 -0.000173 0.000000
# 4 0.000000 0.000000 0.000000 0.020871 0.000000 0.001163
# 5 0.000448 -0.002001 -0.000173 0.000000 0.028419 0.000000
# 6 0.000000 0.000000 0.000000 0.001163 0.000000 0.034883
#
#
# Mechanical properties :
#
#
# Convention : Reuss Voigt Hill
#
# Bulk Modulus (GPa) = 25.18020 46.96384 36.07202
# Shear Modulus (GPa) = 27.42049 35.77519 31.59784
#
# Velocity S-wave (km/s) = 3.61731 4.13180 3.88309
# Velocity P-wave (km/s) = 5.42794 6.72111 6.10884
#
# Compressibility (1/GPa) = 0.03971374
#
# Stress axis : x y z
#
# Youngs Moduli (GPa) = 23.43651 114.73839 91.40721
#
# Poissons Ratio (x) = 0.54003 0.35910
# Poissons Ratio (y) = 0.11031 0.24405
# Poissons Ratio (z) = 0.09207 0.30634
#
# Static dielectric constant tensor:
#      x y z
#    x 1.732360 0.000000 0.043800 
#    y 0.000000 2.053980 0.000000 
#    z 0.043800 0.000000 1.728050 
# 
# From -- ./inp_files/189235.got.cif
#   From: 2010.05.17/outbox.cif.g08.bks.cpg/sg15_95_cif.got.tgz:189235.got - 2010.06.03 18:47:42.
