data_PCOD9295403
_publ_section_title
;
Structure prediction by ZEFSAII (Michael W. Deem and Ramdas Pophale) SiO2 
 PCOD9295403
Probable space group: C 2/C
;
_chemical_formula_sum "Si O2"
_cell_formula_units_Z 56
_cell_length_a 26.158969
_cell_length_b 11.653954
_cell_length_c 7.744282
_cell_angle_alpha 90.000000
_cell_angle_beta 71.753212
_cell_angle_gamma 90.000000
_cell_volume 2242.173150
_symmetry_space_group_name_H-M "C 2/C"
_symmetry_group_IT_number 15
_symmetry_cell_setting 'monoclinic'
loop_
_space_group_symop_operation_xyz
x,y,z
-x,y,1/2-z
-x,-y,-z
x,-y,1/2+z
1/2+x,1/2+y,z
1/2-x,1/2+y,1/2-z
1/2-x,1/2-y,-z
1/2+x,1/2-y,1/2+z
loop_
_atom_site_type_symbol
_atom_site_label
_atom_site_fract_x
_atom_site_fract_y
_atom_site_fract_z
Si Si1 0.188951 0.048093 0.425100
Si Si2 0.376436 0.307351 0.250408
Si Si3 0.982624 0.872169 0.964160
Si Si4 0.640017 0.111536 0.771638
Si Si5 0.955821 0.334259 0.909479
Si Si6 0.307212 0.314437 0.936914
Si Si7 0.306629 0.116728 0.421710
O O1 0.141271 0.095571 0.594509
O O2 0.188236 0.107067 0.239930
O O3 0.245088 0.086048 0.452370
O O4 0.187608 0.910257 0.419956
O O5 0.413094 0.218085 0.321901
O O6 0.324960 0.222776 0.282761
O O7 0.419153 0.355437 0.068163
O O8 0.000000 0.856486 0.750000
O O9 0.014289 0.774686 0.037433
O O10 0.000000 0.000000 0.000000
O O11 0.647719 0.216857 0.632556
O O12 0.659838 0.995666 0.665098
O O13 0.580176 0.102424 0.910536
O O14 0.680029 0.138709 0.891411
O O15 0.000000 0.401347 0.750000
O O16 0.250000 0.250000 0.000000
#
# Coordination Sequence:
#
# PCOD9295403 Si02
#       7
#     8   8   8   8   8   8   8
#     4  12  25  45  68 101 141 186 228 287 341 414
#     4  10  23  42  70  98 132 183 229 274 354 405
#     4  11  24  43  65  98 133 173 229 294 349 405
#     4  11  24  45  66 102 139 184 231 283 348 410
#     4   9  20  44  67  91 133 173 225 290 332 409
#     4  12  27  44  66 101 140 183 237 279 347 412
#     4  11  23  44  69  97 144 182 227 284 339 414
#
# _framework density 24.975769
#
# number of rings (size 3 to 8) (size 9 to 14) (size 15 to 20)
#    0.000    1.143    4.286    2.571    2.000    2.286 
#    0.000    7.143    0.000    0.000    0.000    0.000 
#    0.000    0.000    0.000    0.000    0.000    0.000 
#
# Total GULP energy -156898.665060 kJ/mol
# GULP energy per Si atom -5603.523752 kJ/mol
# Density = 2.491892 g / cm^3
# Si number density = 24.975769 Si / 1000 Ang^3
#
#
#
# Elastic Constant Matrix: (Units=GPa)
#
#
# Indices 1 2 3 4 5 6 
#
# 1 62.0149 12.7775 13.5109 0.0000 -28.5927 0.0000
# 2 12.7775 135.7803 53.4904 0.0000 -14.5540 0.0000
# 3 13.5109 53.4904 152.8339 0.0000 -34.6991 0.0000
# 4 0.0000 0.0000 0.0000 50.1063 0.0000 -0.2860
# 5 -28.5927 -14.5540 -34.6991 0.0000 47.0514 0.0000
# 6 0.0000 0.0000 0.0000 -0.2860 0.0000 32.1817
#
#
#
# Elastic Compliance Matrix: (Units=1/GPa)
#
#
# Indices 1 2 3 4 5 6 
#
# 1 0.022816 -0.001264 0.001783 0.000000 0.014789 0.000000
# 2 -0.001264 0.008624 -0.002973 0.000000 -0.000293 0.000000
# 3 0.001783 -0.002973 0.008964 0.000000 0.006775 0.000000
# 4 0.000000 0.000000 0.000000 0.019959 0.000000 0.000177
# 5 0.014789 -0.000293 0.006775 0.000000 0.035146 0.000000
# 6 0.000000 0.000000 0.000000 0.000177 0.000000 0.031075
#
#
# Mechanical properties :
#
#
# Convention : Reuss Voigt Hill
#
# Bulk Modulus (GPa) = 28.17294 56.68742 42.43018
# Shear Modulus (GPa) = 34.88622 43.92457 39.40539
#
# Velocity S-wave (km/s) = 3.74144 4.19822 3.97639
# Velocity P-wave (km/s) = 5.47440 6.80046 6.17314
#
# Compressibility (1/GPa) = 0.03549506
#
# Stress axis : x y z
#
# Youngs Moduli (GPa) = 43.82931 115.96106 111.55648
#
# Poissons Ratio (x) = 0.14662 -0.19893
# Poissons Ratio (y) = 0.05542 0.33166
# Poissons Ratio (z) = -0.07816 0.34475
#
# Static dielectric constant tensor:
#      x y z
#    x 2.043090 0.000000 0.051450 
#    y 0.000000 2.031970 0.000000 
#    z 0.051450 0.000000 2.033940 
# 
# From -- ./inp_files/69279.got.cif
#   From: 2010.05.17/outbox.cif.g08.bks.cpg/sg15_35_cif.got.tgz:69279.got - 2010.06.03 18:47:42.
