data_PCOD9295775
_publ_section_title
;
Structure prediction by ZEFSAII (Michael W. Deem and Ramdas Pophale) SiO2 
 PCOD9295775
Probable space group: C 2/C
;
_chemical_formula_sum "Si O2"
_cell_formula_units_Z 36
_cell_length_a 5.327511
_cell_length_b 13.530535
_cell_length_c 22.292470
_cell_angle_alpha 90.000000
_cell_angle_beta 120.222857
_cell_angle_gamma 90.000000
_cell_volume 1388.508313
_symmetry_space_group_name_H-M "C 2/C"
_symmetry_group_IT_number 15
_symmetry_cell_setting 'monoclinic'
loop_
_space_group_symop_operation_xyz
x,y,z
-x,y,1/2-z
-x,-y,-z
x,-y,1/2+z
1/2+x,1/2+y,z
1/2-x,1/2+y,1/2-z
1/2-x,1/2-y,-z
1/2+x,1/2-y,1/2+z
loop_
_atom_site_type_symbol
_atom_site_label
_atom_site_fract_x
_atom_site_fract_y
_atom_site_fract_z
Si Si1 0.874862 0.064430 0.389265
Si Si2 0.830291 0.903378 0.021520
Si Si3 0.500000 0.048135 0.750000
Si Si4 0.678390 0.252468 0.213862
Si Si5 0.664474 0.776784 0.577082
O O1 0.789452 0.059830 0.448817
O O2 0.030730 0.167330 0.391175
O O3 0.621123 0.021349 0.317319
O O4 0.139986 0.984222 0.423564
O O5 0.126651 0.838335 0.057844
O O6 0.557900 0.830415 0.994693
O O7 0.756238 0.129584 0.770817
O O8 0.500000 0.222268 0.250000
O O9 0.559568 0.224429 0.134193
O O10 0.000000 0.206071 0.250000
#
# Coordination Sequence:
#
# PCOD9295775 Si02
#       5
#     8   8   4   8   8
#     4  11  23  44  69 108 146 194 252 311 384 460
#     4  10  23  43  69 107 142 192 250 320 380 455
#     4  10  24  46  70 104 154 202 244 324 376 460
#     4  10  24  46  75 103 151 201 250 313 388 450
#     4  11  23  43  73 102 142 198 252 315 381 459
#
# _framework density 25.927102000000001
#
# number of rings (size 3 to 8) (size 9 to 14) (size 15 to 20)
#    0.667    0.889    2.222    1.333    3.111    3.556 
#   16.000    0.000    0.000    0.000    0.000    0.000 
#    0.000    0.000    0.000    0.000    0.000    0.000 
#
# Total GULP energy -100478.088318 kJ/mol
# GULP energy per Si atom -5582.116018 kJ/mol
# Density = 2.586809 g / cm^3
# Si number density = 25.927102 Si / 1000 Ang^3
#
#
#
# Elastic Constant Matrix: (Units=GPa)
#
#
# Indices 1 2 3 4 5 6 
#
# 1 105.1286 17.5076 34.3882 0.0000 -14.6194 0.0000
# 2 17.5076 107.6046 46.4259 0.0000 9.8029 0.0000
# 3 34.3882 46.4259 181.9302 0.0000 -5.9391 0.0000
# 4 0.0000 0.0000 0.0000 59.7217 0.0000 6.4373
# 5 -14.6194 9.8029 -5.9391 0.0000 29.0284 0.0000
# 6 0.0000 0.0000 0.0000 6.4373 0.0000 14.3400
#
#
#
# Elastic Compliance Matrix: (Units=1/GPa)
#
#
# Indices 1 2 3 4 5 6 
#
# 1 0.011092 -0.001704 -0.001470 0.000000 0.005861 0.000000
# 2 -0.001704 0.011213 -0.002709 0.000000 -0.005199 0.000000
# 3 -0.001470 -0.002709 0.006515 0.000000 0.001507 0.000000
# 4 0.000000 0.000000 0.000000 0.017596 0.000000 -0.007899
# 5 0.005861 -0.005199 0.001507 0.000000 0.039465 0.000000
# 6 0.000000 0.000000 0.000000 -0.007899 0.000000 0.073281
#
#
# Mechanical properties :
#
#
# Convention : Reuss Voigt Hill
#
# Bulk Modulus (GPa) = 58.64131 65.70077 62.17104
# Shear Modulus (GPa) = 28.31049 40.37414 34.34232
#
# Velocity S-wave (km/s) = 3.30802 3.95044 3.64342
# Velocity P-wave (km/s) = 6.10389 6.79732 6.45992
#
# Compressibility (1/GPa) = 0.01705282
#
# Stress axis : x y z
#
# Youngs Moduli (GPa) = 90.15535 89.18209 153.49107
#
# Poissons Ratio (x) = 0.15199 0.22569
# Poissons Ratio (y) = 0.15365 0.41581
# Poissons Ratio (z) = 0.13256 0.24159
#
# Static dielectric constant tensor:
#      x y z
#    x 2.174930 0.000000 0.061820 
#    y 0.000000 2.255500 0.000000 
#    z 0.061820 0.000000 2.029630 
# 
# From -- ./inp_files/260822.got.cif
#   From: 2010.05.17/outbox.cif.g08.bks.cpg/sg15_131_cif.got.tgz:260822.got - 2010.06.03 18:47:42.
