data_PCOD9295862
_publ_section_title
;
Structure prediction by ZEFSAII (Michael W. Deem and Ramdas Pophale) SiO2 
 PCOD9295862
Probable space group: C 2/C
;
_chemical_formula_sum "Si O2"
_cell_formula_units_Z 56
_cell_length_a 26.013288
_cell_length_b 15.643421
_cell_length_c 5.192578
_cell_angle_alpha 90.000000
_cell_angle_beta 99.358590
_cell_angle_gamma 90.000000
_cell_volume 2084.926333
_symmetry_space_group_name_H-M "C 2/C"
_symmetry_group_IT_number 15
_symmetry_cell_setting 'monoclinic'
loop_
_space_group_symop_operation_xyz
x,y,z
-x,y,1/2-z
-x,-y,-z
x,-y,1/2+z
1/2+x,1/2+y,z
1/2-x,1/2+y,1/2-z
1/2-x,1/2-y,-z
1/2+x,1/2-y,1/2+z
loop_
_atom_site_type_symbol
_atom_site_label
_atom_site_fract_x
_atom_site_fract_y
_atom_site_fract_z
Si Si1 0.445985 0.791430 0.268890
Si Si2 0.055381 0.058865 0.748972
Si Si3 0.053823 0.592075 0.228203
Si Si4 0.167783 0.718678 0.976174
Si Si5 0.166722 0.547158 0.280944
Si Si6 0.754203 0.170308 0.688126
Si Si7 0.663012 0.554355 0.975492
O O1 0.500000 0.741305 0.250000
O O2 0.443147 0.833291 0.549700
O O3 0.449108 0.864913 0.053071
O O4 0.389429 0.753017 0.158053
O O5 0.000000 0.104806 0.750000
O O6 0.055508 0.017844 0.464157
O O7 0.109772 0.105794 0.858211
O O8 0.104854 0.535241 0.275423
O O9 0.000000 0.546363 0.250000
O O10 0.167921 0.647929 0.206217
O O11 0.202920 0.800473 0.066424
O O12 0.198840 0.666782 0.782186
O O13 0.283017 0.599785 0.543083
O O14 0.188632 0.504682 0.556520
O O15 0.750000 0.250000 0.500000
O O16 0.660749 0.477549 0.764915
#
# Coordination Sequence:
#
# PCOD9295862 Si02
#       7
#     8   8   8   8   8   8   8
#     4   9  18  36  65  90 123 170 219 276 333 390
#     4   8  14  29  58  94 130 165 199 256 332 395
#     4   9  18  33  55  88 126 170 217 269 329 383
#     4  10  25  44  65  93 132 177 223 274 334 407
#     4  11  23  37  60  92 127 169 220 278 326 374
#     4  11  27  46  71  95 133 186 221 270 340 403
#     4  10  23  43  71 102 135 169 223 281 327 398
#
# _framework density 26.859463000000002
#
# number of rings (size 3 to 8) (size 9 to 14) (size 15 to 20)
#    0.000    2.286    0.000    1.714   10.000    1.714 
#    0.000    0.714    3.143    0.857    0.000    0.000 
#    0.000    0.000    0.000    0.000    0.000    0.000 
#
# Total GULP energy -156546.020415 kJ/mol
# GULP energy per Si atom -5590.929301 kJ/mol
# Density = 2.679833 g / cm^3
# Si number density = 26.859463 Si / 1000 Ang^3
#
#
#
# Elastic Constant Matrix: (Units=GPa)
#
#
# Indices 1 2 3 4 5 6 
#
# 1 187.1321 11.5160 8.6224 0.0000 0.2231 0.0000
# 2 11.5160 24.2456 25.4323 0.0000 1.5531 0.0000
# 3 8.6224 25.4323 130.2412 0.0000 -22.1550 0.0000
# 4 0.0000 0.0000 0.0000 41.8615 0.0000 -0.9939
# 5 0.2231 1.5531 -22.1550 0.0000 44.0511 0.0000
# 6 0.0000 0.0000 0.0000 -0.9939 0.0000 17.2427
#
#
#
# Elastic Compliance Matrix: (Units=1/GPa)
#
#
# Indices 1 2 3 4 5 6 
#
# 1 0.005510 -0.002867 0.000227 0.000000 0.000187 0.000000
# 2 -0.002867 0.055777 -0.012066 0.000000 -0.008021 0.000000
# 3 0.000227 -0.012066 0.011035 0.000000 0.005974 0.000000
# 4 0.000000 0.000000 0.000000 0.023921 0.000000 0.001379
# 5 0.000187 -0.008021 0.005974 0.000000 0.025988 0.000000
# 6 0.000000 0.000000 0.000000 0.001379 0.000000 0.058075
#
#
# Mechanical properties :
#
#
# Convention : Reuss Voigt Hill
#
# Bulk Modulus (GPa) = 23.30484 48.08449 35.69467
# Shear Modulus (GPa) = 22.31936 40.36762 31.34349
#
# Velocity S-wave (km/s) = 2.88578 3.88096 3.41976
# Velocity P-wave (km/s) = 4.44961 6.16632 5.37692
#
# Compressibility (1/GPa) = 0.04290954
#
# Stress axis : x y z
#
# Youngs Moduli (GPa) = 181.50244 17.92863 90.61666
#
# Poissons Ratio (x) = 0.05140 -0.02057
# Poissons Ratio (y) = 0.52036 1.09339
# Poissons Ratio (z) = -0.04119 0.21633
#
# Static dielectric constant tensor:
#      x y z
#    x 1.961640 0.000000 0.013140 
#    y 0.000000 2.105280 0.000000 
#    z 0.013140 0.000000 2.098130 
# 
# From -- ./inp_files/14157.got.cif
#   From: 2010.05.17/outbox.cif.g08.bks.cpg/sg15_8_cif.got.tgz:14157.got - 2010.06.03 18:47:42.
