data_PCOD9295450
_publ_section_title
;
Structure prediction by ZEFSAII (Michael W. Deem and Ramdas Pophale) SiO2 
 PCOD9295450
Probable space group: C 2/C
;
_chemical_formula_sum "Si O2"
_cell_formula_units_Z 40
_cell_length_a 12.989229
_cell_length_b 9.040410
_cell_length_c 25.883053
_cell_angle_alpha 90.000000
_cell_angle_beta 147.647288
_cell_angle_gamma 90.000000
_cell_volume 1626.470190
_symmetry_space_group_name_H-M "C 2/C"
_symmetry_group_IT_number 15
_symmetry_cell_setting 'monoclinic'
loop_
_space_group_symop_operation_xyz
x,y,z
-x,y,1/2-z
-x,-y,-z
x,-y,1/2+z
1/2+x,1/2+y,z
1/2-x,1/2+y,1/2-z
1/2-x,1/2-y,-z
1/2+x,1/2-y,1/2+z
loop_
_atom_site_type_symbol
_atom_site_label
_atom_site_fract_x
_atom_site_fract_y
_atom_site_fract_z
Si Si1 0.583287 0.547910 0.681164
Si Si2 0.321208 0.092230 0.510382
Si Si3 0.086351 0.366327 0.651364
Si Si4 0.226754 0.503815 0.351180
Si Si5 0.008479 0.246706 0.000103
O O1 0.363732 0.498934 0.586338
O O2 0.708530 0.443682 0.771344
O O3 0.603613 0.724544 0.695730
O O4 0.678825 0.509441 0.665997
O O5 0.250000 0.250000 0.500000
O O6 0.462594 0.130927 0.523098
O O7 0.439837 0.998062 0.602825
O O8 0.997735 0.304512 0.560667
O O9 0.298394 0.658572 0.404936
O O10 0.335264 0.374102 0.428495
O O11 0.000000 0.487199 0.250000
#
# Coordination Sequence:
#
# PCOD9295450 Si02
#       5
#     8   8   8   8   8
#     4  11  25  43  70 106 137 189 235 289 360 414
#     4  12  24  44  73 101 146 181 233 296 346 423
#     4  11  26  46  69 105 144 182 240 288 352 425
#     4  10  23  42  72 100 146 185 237 288 358 420
#     4  10  24  45  69 107 137 192 234 292 353 417
#
# _framework density 24.593133999999999
#
# number of rings (size 3 to 8) (size 9 to 14) (size 15 to 20)
#    0.000    1.200    2.000    2.400    8.400    1.600 
#    0.000    0.000    0.000    0.000    0.000    0.000 
#    0.000    0.000    0.000    0.000    0.000    0.000 
#
# Total GULP energy -112040.748944 kJ/mol
# GULP energy per Si atom -5602.037447 kJ/mol
# Density = 2.453716 g / cm^3
# Si number density = 24.593134 Si / 1000 Ang^3
#
#
#
# Elastic Constant Matrix: (Units=GPa)
#
#
# Indices 1 2 3 4 5 6 
#
# 1 41.7137 0.8738 -12.5777 0.0000 -4.2796 0.0000
# 2 0.8738 154.8224 47.0970 0.0000 16.0020 0.0000
# 3 -12.5777 47.0970 127.6410 -0.0002 27.6954 -0.0001
# 4 0.0000 0.0000 -0.0002 47.3542 -0.0001 -1.5736
# 5 -4.2796 16.0020 27.6954 -0.0001 36.8282 0.0000
# 6 0.0000 0.0000 -0.0001 -1.5736 0.0000 36.5024
#
#
#
# Elastic Compliance Matrix: (Units=1/GPa)
#
#
# Indices 1 2 3 4 5 6 
#
# 1 0.024907 -0.001060 0.002531 0.000000 0.001452 0.000000
# 2 -0.001060 0.007379 -0.002515 0.000000 -0.001438 0.000000
# 3 0.002531 -0.002515 0.010409 0.000000 -0.006441 0.000000
# 4 0.000000 0.000000 0.000000 0.021148 0.000000 0.000912
# 5 0.001452 -0.001438 -0.006441 0.000000 0.032791 0.000000
# 6 0.000000 0.000000 0.000000 0.000912 0.000000 0.027435
#
#
# Mechanical properties :
#
#
# Convention : Reuss Voigt Hill
#
# Bulk Modulus (GPa) = 24.62731 43.88480 34.25605
# Shear Modulus (GPa) = 35.79268 43.38924 39.59096
#
# Velocity S-wave (km/s) = 3.81910 4.20489 4.01663
# Velocity P-wave (km/s) = 5.42983 6.43878 5.95571
#
# Compressibility (1/GPa) = 0.04060534
#
# Stress axis : x y z
#
# Youngs Moduli (GPa) = 40.14916 135.52509 96.06651
#
# Poissons Ratio (x) = 0.14372 -0.24310
# Poissons Ratio (y) = 0.04258 0.24162
# Poissons Ratio (z) = -0.10160 0.34086
#
# Static dielectric constant tensor:
#      x y z
#    x 1.995490 0.000000 -0.033150 
#    y 0.000000 2.012390 0.000000 
#    z -0.033150 0.000000 1.913100 
# 
# From -- ./inp_files/150594.got.cif
#   From: 2010.05.17/outbox.cif.g08.bks.cpg/sg15_76_cif.got.tgz:150594.got - 2010.06.03 18:47:42.
