data_PCOD9295038
_publ_section_title
;
Structure prediction by ZEFSAII (Michael W. Deem and Ramdas Pophale) SiO2 
 PCOD9295038
Probable space group: C 2/C
;
_chemical_formula_sum "Si O2"
_cell_formula_units_Z 48
_cell_length_a 25.406117
_cell_length_b 7.625135
_cell_length_c 11.197181
_cell_angle_alpha 90.000000
_cell_angle_beta 100.325871
_cell_angle_gamma 90.000000
_cell_volume 2134.043180
_symmetry_space_group_name_H-M "C 2/C"
_symmetry_group_IT_number 15
_symmetry_cell_setting 'monoclinic'
loop_
_space_group_symop_operation_xyz
x,y,z
-x,y,1/2-z
-x,-y,-z
x,-y,1/2+z
1/2+x,1/2+y,z
1/2-x,1/2+y,1/2-z
1/2-x,1/2-y,-z
1/2+x,1/2-y,1/2+z
loop_
_atom_site_type_symbol
_atom_site_label
_atom_site_fract_x
_atom_site_fract_y
_atom_site_fract_z
Si Si1 0.966552 0.900893 0.132024
Si Si2 0.355166 0.007380 0.362437
Si Si3 0.422456 0.645622 0.937743
Si Si4 0.128302 0.333110 0.880554
Si Si5 0.171791 0.025322 0.751191
Si Si6 0.253691 0.223873 0.362391
O O1 0.932264 0.736208 0.160708
O O2 0.000000 0.989554 0.250000
O O3 0.014646 0.837461 0.066418
O O4 0.924979 0.036947 0.060056
O O5 0.392479 0.170636 0.421860
O O6 0.363750 0.017550 0.220173
O O7 0.293850 0.063062 0.354204
O O8 0.364965 0.871523 0.475550
O O9 0.386569 0.527418 0.833375
O O10 0.166311 0.170663 0.854546
O O11 0.214515 0.112951 0.678809
O O12 0.195940 0.837225 0.791972
O O13 0.250000 0.250000 0.500000
#
# Coordination Sequence:
#
# PCOD9295038 Si02
#       6
#     8   8   8   8   8   8
#     4  11  19  41  65  91 125 167 214 276 320 396
#     4  10  23  44  59  96 132 169 214 272 324 394
#     4   9  22  39  64  92 125 166 218 263 331 384
#     4  10  23  42  66  92 135 168 218 271 329 393
#     4  10  23  42  62  96 127 172 213 276 324 387
#     4  10  24  40  64  91 129 170 222 263 319 396
#
# _framework density 22.492514
#
# number of rings (size 3 to 8) (size 9 to 14) (size 15 to 20)
#    0.000    2.333    3.333    0.000    9.333    2.667 
#    6.000    0.000    0.000    0.000    0.000    0.000 
#    0.000    0.000    0.000    0.000    0.000    0.000 
#
# Total GULP energy -133611.001545 kJ/mol
# GULP energy per Si atom -5567.125064 kJ/mol
# Density = 2.244132 g / cm^3
# Si number density = 22.492514 Si / 1000 Ang^3
#
#
#
# Elastic Constant Matrix: (Units=GPa)
#
#
# Indices 1 2 3 4 5 6 
#
# 1 99.1790 17.0162 12.4309 0.0000 -12.3122 0.0000
# 2 17.0162 21.8726 2.1864 0.0000 -10.5796 0.0000
# 3 12.4309 2.1864 68.9591 0.0000 -14.1608 0.0000
# 4 0.0000 0.0000 0.0000 40.0554 0.0000 10.2855
# 5 -12.3122 -10.5796 -14.1608 0.0000 38.9082 0.0000
# 6 0.0000 0.0000 0.0000 10.2855 0.0000 23.2075
#
#
#
# Elastic Compliance Matrix: (Units=1/GPa)
#
#
# Indices 1 2 3 4 5 6 
#
# 1 0.011886 -0.008702 -0.001708 0.000000 0.000773 0.000000
# 2 -0.008702 0.059134 0.002626 0.000000 0.014282 0.000000
# 3 -0.001708 0.002626 0.015954 0.000000 0.005980 0.000000
# 4 0.000000 0.000000 0.000000 0.028172 0.000000 -0.012486
# 5 0.000773 0.014282 0.005980 0.000000 0.032006 0.000000
# 6 0.000000 0.000000 0.000000 -0.012486 0.000000 0.048623
#
#
# Mechanical properties :
#
#
# Convention : Reuss Voigt Hill
#
# Bulk Modulus (GPa) = 14.00415 28.14198 21.07307
# Shear Modulus (GPa) = 21.26355 30.99270 26.12812
#
# Velocity S-wave (km/s) = 3.07801 3.71605 3.41198
# Velocity P-wave (km/s) = 4.34417 5.56335 4.99113
#
# Compressibility (1/GPa) = 0.07140739
#
# Stress axis : x y z
#
# Youngs Moduli (GPa) = 84.13364 16.91065 62.68025
#
# Poissons Ratio (x) = 0.14716 0.10705
# Poissons Ratio (y) = 0.73213 -0.16463
# Poissons Ratio (z) = 0.14369 -0.04441
#
# Static dielectric constant tensor:
#      x y z
#    x 1.744570 0.000000 0.005250 
#    y 0.000000 1.886120 0.000000 
#    z 0.005250 0.000000 1.946390 
# 
# From -- ./inp_files/116472.got.cif
#   From: 2010.05.17/outbox.cif.g08.bks.cpg/sg15_59_cif.got.tgz:116472.got - 2010.06.03 18:47:42.
