data_PCOD9295528
_publ_section_title
;
Structure prediction by ZEFSAII (Michael W. Deem and Ramdas Pophale) SiO2 
 PCOD9295528
Probable space group: C 2/C
;
_chemical_formula_sum "Si O2"
_cell_formula_units_Z 56
_cell_length_a 9.593462
_cell_length_b 10.560215
_cell_length_c 30.465052
_cell_angle_alpha 90.000000
_cell_angle_beta 118.422837
_cell_angle_gamma 90.000000
_cell_volume 2714.348495
_symmetry_space_group_name_H-M "C 2/C"
_symmetry_group_IT_number 15
_symmetry_cell_setting 'monoclinic'
loop_
_space_group_symop_operation_xyz
x,y,z
-x,y,1/2-z
-x,-y,-z
x,-y,1/2+z
1/2+x,1/2+y,z
1/2-x,1/2+y,1/2-z
1/2-x,1/2-y,-z
1/2+x,1/2-y,1/2+z
loop_
_atom_site_type_symbol
_atom_site_label
_atom_site_fract_x
_atom_site_fract_y
_atom_site_fract_z
Si Si1 0.890749 0.486006 0.198625
Si Si2 0.127020 0.838281 0.208153
Si Si3 0.130931 0.977831 0.379662
Si Si4 0.880150 0.380367 0.865051
Si Si5 0.136434 0.123639 0.111859
Si Si6 0.283237 0.767720 0.555812
Si Si7 0.367992 0.155078 0.818548
O O1 0.744347 0.442259 0.205496
O O2 0.811708 0.570428 0.149791
O O3 0.122526 0.481931 0.157673
O O4 0.987512 0.364915 0.194640
O O5 0.144607 0.718799 0.178340
O O6 0.207326 0.815921 0.267278
O O7 0.957275 0.904773 0.174149
O O8 0.218909 0.866646 0.418932
O O9 0.238659 0.094335 0.378978
O O10 0.997513 0.025991 0.393598
O O11 0.043235 0.333079 0.911941
O O12 0.150119 0.154432 0.062751
O O13 0.110053 0.241493 0.140633
O O14 0.250000 0.750000 0.500000
O O15 0.500000 0.942231 0.750000
#
# Coordination Sequence:
#
# PCOD9295528 Si02
#       7
#     8   8   8   8   8   8   8
#     4   9  19  36  56  86 126 168 204 244 300 365
#     4   9  22  36  57  92 130 167 207 242 301 378
#     4  10  23  43  63  96 124 167 210 260 313 376
#     4  11  22  42  62  92 133 162 209 264 305 377
#     4  11  22  40  64  88 126 162 210 259 311 377
#     4  11  25  46  68  91 121 164 217 275 329 373
#     4  11  21  35  61  93 126 173 203 245 310 370
#
# _framework density 20.631101999999998
#
# number of rings (size 3 to 8) (size 9 to 14) (size 15 to 20)
#    0.000    1.714    2.857    0.857    6.000    1.714 
#    0.000    0.714    0.000    0.000    0.000    0.000 
#    0.000    0.000    0.000    0.000    0.000    0.000 
#
# Total GULP energy -156083.534724 kJ/mol
# GULP energy per Si atom -5574.411954 kJ/mol
# Density = 2.058414 g / cm^3
# Si number density = 20.631102 Si / 1000 Ang^3
#
#
#
# Elastic Constant Matrix: (Units=GPa)
#
#
# Indices 1 2 3 4 5 6 
#
# 1 86.6467 7.3757 18.5704 0.0000 -12.1941 0.0000
# 2 7.3757 52.3364 -7.4468 0.0000 11.2649 0.0000
# 3 18.5704 -7.4468 57.9796 0.0000 -4.9522 0.0000
# 4 0.0000 0.0000 0.0000 3.6912 0.0000 12.0075
# 5 -12.1941 11.2649 -4.9522 0.0000 23.5481 0.0000
# 6 0.0000 0.0000 0.0000 12.0075 0.0000 17.0878
#
#
#
# Elastic Compliance Matrix: (Units=1/GPa)
#
#
# Indices 1 2 3 4 5 6 
#
# 1 0.014040 -0.004420 -0.004341 0.000000 0.008472 0.000000
# 2 -0.004420 0.022899 0.003285 0.000000 -0.012552 0.000000
# 3 -0.004341 0.003285 0.019076 0.000000 0.000193 0.000000
# 4 0.000000 0.000000 0.000000 -0.210686 0.000000 0.148048
# 5 0.008472 -0.012552 0.000193 0.000000 0.052899 0.000000
# 6 0.000000 0.000000 0.000000 0.148048 0.000000 -0.045512
#
#
# Mechanical properties :
#
#
# Convention : Reuss Voigt Hill
#
# Bulk Modulus (GPa) = 22.19114 25.99570 24.09342
# Shear Modulus (GPa) = -41.21673 20.76298 -10.22688
#
# Velocity S-wave (km/s) = -4.47452 3.17581 -2.22885
# Velocity P-wave (km/s) = 3.98944 5.10640 2.25385
#
# Compressibility (1/GPa) = 0.04506302
#
# Stress axis : x y z
#
# Youngs Moduli (GPa) = 71.22508 43.66968 52.42153
#
# Poissons Ratio (x) = 0.19301 0.22756
# Poissons Ratio (y) = 0.31480 -0.17218
# Poissons Ratio (z) = 0.30918 -0.14344
#
# Static dielectric constant tensor:
#      x y z
#    x 1.899940 0.000000 -0.069180 
#    y 0.000000 1.760240 0.000000 
#    z -0.069180 0.000000 1.828980 
# 
# From -- ./inp_files/307224.got.cif
#   From: 2010.05.17/outbox.cif.g08.bks.cpg/sg15_154_cif.got.tgz:307224.got - 2010.06.03 18:47:42.
