data_PCOD9295590
_publ_section_title
;
Structure prediction by ZEFSAII (Michael W. Deem and Ramdas Pophale) SiO2 
 PCOD9295590
Probable space group: C 2/C
;
_chemical_formula_sum "Si O2"
_cell_formula_units_Z 40
_cell_length_a 12.092738
_cell_length_b 17.651144
_cell_length_c 8.773059
_cell_angle_alpha 90.000000
_cell_angle_beta 102.198323
_cell_angle_gamma 90.000000
_cell_volume 1830.335473
_symmetry_space_group_name_H-M "C 2/C"
_symmetry_group_IT_number 15
_symmetry_cell_setting 'monoclinic'
loop_
_space_group_symop_operation_xyz
x,y,z
-x,y,1/2-z
-x,-y,-z
x,-y,1/2+z
1/2+x,1/2+y,z
1/2-x,1/2+y,1/2-z
1/2-x,1/2-y,-z
1/2+x,1/2-y,1/2+z
loop_
_atom_site_type_symbol
_atom_site_label
_atom_site_fract_x
_atom_site_fract_y
_atom_site_fract_z
Si Si1 0.619142 0.678351 0.197553
Si Si2 0.650115 0.864804 0.674154
Si Si3 0.777859 0.464470 0.282242
Si Si4 0.910976 0.332093 0.489873
Si Si5 0.626773 0.475389 0.508654
O O1 0.500000 0.674331 0.250000
O O2 0.730476 0.672924 0.335274
O O3 0.620419 0.752233 0.092840
O O4 0.635410 0.603961 0.098690
O O5 0.546403 0.840711 0.538177
O O6 0.657093 0.956084 0.678958
O O7 0.626821 0.840219 0.844184
O O8 0.853550 0.397073 0.369361
O O9 0.661732 0.464810 0.345589
O O10 0.724908 0.467912 0.098634
O O11 0.500000 0.500000 0.500000
#
# Coordination Sequence:
#
# PCOD9295590 Si02
#       5
#     8   8   8   8   8
#     4  11  24  43  64  94 138 171 223 284 335 396
#     4  10  23  43  65  95 135 168 228 282 323 404
#     4  11  21  41  67  95 132 172 222 273 328 396
#     4  11  23  42  69  94 133 182 216 279 343 393
#     4  11  23  41  67  99 135 176 222 273 328 403
#
# _framework density 21.853916000000002
#
# number of rings (size 3 to 8) (size 9 to 14) (size 15 to 20)
#    0.000    1.200    4.000    4.200    0.000    4.000 
#    7.200    0.000    0.000    0.000    0.000    0.000 
#    0.000    0.000    0.000    0.000    0.000    0.000 
#
# Total GULP energy -111748.236872 kJ/mol
# GULP energy per Si atom -5587.411844 kJ/mol
# Density = 2.180418 g / cm^3
# Si number density = 21.853916 Si / 1000 Ang^3
#
#
#
# Elastic Constant Matrix: (Units=GPa)
#
#
# Indices 1 2 3 4 5 6 
#
# 1 124.3548 33.8857 11.0912 0.0000 34.0607 0.0000
# 2 33.8857 111.1540 35.9004 0.0000 28.0932 0.0000
# 3 11.0912 35.9004 54.3783 0.0000 13.9009 0.0000
# 4 0.0000 0.0000 0.0000 24.4443 0.0000 5.5794
# 5 34.0607 28.0932 13.9009 0.0000 50.8490 0.0000
# 6 0.0000 0.0000 0.0000 5.5794 0.0000 29.4375
#
#
#
# Elastic Compliance Matrix: (Units=1/GPa)
#
#
# Indices 1 2 3 4 5 6 
#
# 1 0.010101 -0.001780 0.000638 0.000000 -0.005957 0.000000
# 2 -0.001780 0.012831 -0.007097 0.000000 -0.003957 0.000000
# 3 0.000638 -0.007097 0.023709 0.000000 -0.002988 0.000000
# 4 0.000000 0.000000 0.000000 0.042759 0.000000 -0.008104
# 5 -0.005957 -0.003957 -0.002988 0.000000 0.026659 0.000000
# 6 0.000000 0.000000 0.000000 -0.008104 0.000000 0.035506
#
#
# Mechanical properties :
#
#
# Convention : Reuss Voigt Hill
#
# Bulk Modulus (GPa) = 33.15262 50.18240 41.66751
# Shear Modulus (GPa) = 28.07446 34.88014 31.47730
#
# Velocity S-wave (km/s) = 3.58808 3.99940 3.79931
# Velocity P-wave (km/s) = 5.68936 6.65879 6.19307
#
# Compressibility (1/GPa) = 0.03016353
#
# Stress axis : x y z
#
# Youngs Moduli (GPa) = 98.99729 77.93514 42.17883
#
# Poissons Ratio (x) = 0.13870 -0.02689
# Poissons Ratio (y) = 0.17618 0.29933
# Poissons Ratio (z) = -0.06311 0.55308
#
# Static dielectric constant tensor:
#      x y z
#    x 1.860290 0.000000 0.005610 
#    y 0.000000 1.758510 0.000000 
#    z 0.005610 0.000000 1.995710 
# 
# From -- ./inp_files/29324.got.cif
#   From: 2010.05.17/outbox.cif.g08.bks.cpg/sg15_15_cif.got.tgz:29324.got - 2010.06.03 18:47:42.
