data_PCOD9295298
_publ_section_title
;
Structure prediction by ZEFSAII (Michael W. Deem and Ramdas Pophale) SiO2 
 PCOD9295298
Probable space group: C 2/C
;
_chemical_formula_sum "Si O2"
_cell_formula_units_Z 56
_cell_length_a 29.614836
_cell_length_b 16.027283
_cell_length_c 11.549124
_cell_angle_alpha 90.000000
_cell_angle_beta 29.308410
_cell_angle_gamma 90.000000
_cell_volume 2683.368083
_symmetry_space_group_name_H-M "C 2/C"
_symmetry_group_IT_number 15
_symmetry_cell_setting 'monoclinic'
loop_
_space_group_symop_operation_xyz
x,y,z
-x,y,1/2-z
-x,-y,-z
x,-y,1/2+z
1/2+x,1/2+y,z
1/2-x,1/2+y,1/2-z
1/2-x,1/2-y,-z
1/2+x,1/2-y,1/2+z
loop_
_atom_site_type_symbol
_atom_site_label
_atom_site_fract_x
_atom_site_fract_y
_atom_site_fract_z
Si Si1 0.055809 0.915387 0.859069
Si Si2 0.740018 0.363952 0.883659
Si Si3 0.107981 0.867667 0.404509
Si Si4 0.530263 0.757140 0.515150
Si Si5 0.564381 0.186742 0.507532
Si Si6 0.156739 0.290595 0.428218
Si Si7 0.779761 0.952445 0.158471
O O1 0.160080 0.929341 0.589891
O O2 0.040695 0.843474 0.986322
O O3 0.999399 0.881610 0.876173
O O4 0.000000 0.000000 0.000000
O O5 0.839327 0.360505 0.726829
O O6 0.715736 0.286531 0.851134
O O7 0.742275 0.450605 0.808012
O O8 0.662100 0.363518 0.159442
O O9 0.107560 0.774677 0.454936
O O10 0.155457 0.937347 0.375213
O O11 0.501798 0.793885 0.453457
O O12 0.624498 0.785437 0.366143
O O13 0.440224 0.782021 0.788657
O O14 0.500000 0.148344 0.750000
O O15 0.203124 0.380612 0.343375
#
# Coordination Sequence:
#
# PCOD9295298 Si02
#       7
#     8   8   8   8   8   8   8
#     4  11  21  40  60 100 133 161 212 277 344 396
#     4  12  24  43  68  99 131 176 224 271 330 398
#     4  11  21  41  68  91 132 171 216 273 334 403
#     4  10  23  42  68  91 130 177 215 274 337 381
#     4  11  22  44  67  95 126 180 226 266 326 394
#     4  11  23  44  67  96 132 172 223 273 328 397
#     4  12  25  40  65 100 131 173 221 272 332 394
#
# _framework density 20.869295000000001
#
# number of rings (size 3 to 8) (size 9 to 14) (size 15 to 20)
#    0.000    0.857    5.714    3.429    2.000    0.571 
#    5.143    0.714    0.000    0.000    0.000    0.000 
#    0.000    0.000    0.000    0.000    0.000    0.000 
#
# Total GULP energy -155958.194106 kJ/mol
# GULP energy per Si atom -5569.935504 kJ/mol
# Density = 2.082180 g / cm^3
# Si number density = 20.869295 Si / 1000 Ang^3
#
#
#
# Elastic Constant Matrix: (Units=GPa)
#
#
# Indices 1 2 3 4 5 6 
#
# 1 77.0337 1.2109 11.2524 0.0000 -12.3222 0.0000
# 2 1.2109 54.1487 15.2054 0.0000 -7.1898 0.0000
# 3 11.2524 15.2054 51.9560 0.0000 3.2318 0.0000
# 4 0.0000 0.0000 0.0000 24.1607 0.0000 -1.5326
# 5 -12.3222 -7.1898 3.2318 0.0000 23.0531 0.0000
# 6 0.0000 0.0000 0.0000 -1.5326 0.0000 8.1867
#
#
#
# Elastic Compliance Matrix: (Units=1/GPa)
#
#
# Indices 1 2 3 4 5 6 
#
# 1 0.015103 0.002168 -0.004489 0.000000 0.009378 0.000000
# 2 0.002168 0.021678 -0.007371 0.000000 0.008953 0.000000
# 3 -0.004489 -0.007371 0.022868 0.000000 -0.007904 0.000000
# 4 0.000000 0.000000 0.000000 0.041887 0.000000 0.007841
# 5 0.009378 0.008953 -0.007904 0.000000 0.052291 0.000000
# 6 0.000000 0.000000 0.000000 0.007841 0.000000 0.123618
#
#
# Mechanical properties :
#
#
# Convention : Reuss Voigt Hill
#
# Bulk Modulus (GPa) = 24.83495 26.49733 25.66614
# Shear Modulus (GPa) = 16.11606 21.44474 18.78040
#
# Velocity S-wave (km/s) = 2.78193 3.20906 3.00310
# Velocity P-wave (km/s) = 4.71645 5.14345 4.93457
#
# Compressibility (1/GPa) = 0.04026583
#
# Stress axis : x y z
#
# Youngs Moduli (GPa) = 66.21172 46.13044 43.72937
#
# Poissons Ratio (x) = -0.10001 0.19629
# Poissons Ratio (y) = -0.14355 0.32231
# Poissons Ratio (z) = 0.29721 0.34001
#
# Static dielectric constant tensor:
#      x y z
#    x 1.883040 0.000000 0.039770 
#    y 0.000000 1.944940 0.000000 
#    z 0.039770 0.000000 1.797200 
# 
# From -- ./inp_files/126957.got.cif
#   From: 2010.05.17/outbox.cif.g08.bks.cpg/sg15_64_cif.got.tgz:126957.got - 2010.06.03 18:47:42.
