data_PCOD9295317
_publ_section_title
;
Structure prediction by ZEFSAII (Michael W. Deem and Ramdas Pophale) SiO2 
 PCOD9295317
Probable space group: C 2/C
;
_chemical_formula_sum "Si O2"
_cell_formula_units_Z 64
_cell_length_a 11.571702
_cell_length_b 18.041768
_cell_length_c 29.270773
_cell_angle_alpha 90.000000
_cell_angle_beta 150.483041
_cell_angle_gamma 90.000000
_cell_volume 3010.762359
_symmetry_space_group_name_H-M "C 2/C"
_symmetry_group_IT_number 15
_symmetry_cell_setting 'monoclinic'
loop_
_space_group_symop_operation_xyz
x,y,z
-x,y,1/2-z
-x,-y,-z
x,-y,1/2+z
1/2+x,1/2+y,z
1/2-x,1/2+y,1/2-z
1/2-x,1/2-y,-z
1/2+x,1/2-y,1/2+z
loop_
_atom_site_type_symbol
_atom_site_label
_atom_site_fract_x
_atom_site_fract_y
_atom_site_fract_z
Si Si1 0.910207 0.539248 0.386850
Si Si2 0.558777 0.899263 0.841425
Si Si3 0.411629 0.566340 0.592279
Si Si4 0.801096 0.192027 0.145532
Si Si5 0.386417 0.303793 0.012845
Si Si6 0.644919 0.573012 0.139479
Si Si7 0.210946 0.114311 0.850358
Si Si8 0.259489 0.172763 0.477218
O O1 0.802313 0.615543 0.369304
O O2 0.755428 0.467854 0.344336
O O3 0.971953 0.554404 0.355341
O O4 0.156900 0.529343 0.497340
O O5 0.733470 0.942160 0.867273
O O6 0.332597 0.879901 0.733270
O O7 0.709702 0.830636 0.912693
O O8 0.449242 0.624154 0.564295
O O9 0.599544 0.501780 0.652102
O O10 0.385530 0.605994 0.631594
O O11 0.610255 0.257031 0.075239
O O12 0.865043 0.175169 0.115338
O O13 0.000000 0.214865 0.250000
O O14 0.250000 0.250000 0.000000
O O15 0.398406 0.614558 0.049039
O O16 0.000000 0.151940 0.750000
O O17 0.467946 0.151126 0.936603
O O18 0.250000 0.250000 0.500000
#
# Coordination Sequence:
#
# PCOD9295317 Si02
#       8
#     8   8   8   8   8   8   8   8
#     4  11  20  41  70  98 131 174 228 279 337 407
#     4  10  23  42  68  96 130 184 222 279 336 413
#     4  11  22  41  70  94 131 180 224 287 330 414
#     4  12  24  43  70 101 133 176 227 281 344 414
#     4  11  22  42  66  95 134 174 227 267 340 409
#     4  11  23  44  67  96 134 176 234 276 347 401
#     4  12  24  43  68  99 134 177 224 285 349 404
#     4  12  26  45  64 100 139 172 226 288 346 411
#
# _framework density 21.257075
#
# number of rings (size 3 to 8) (size 9 to 14) (size 15 to 20)
#    0.000    0.750    5.000    3.750    0.000    3.000 
#    9.000    0.000    0.000    0.000    0.000    0.000 
#    0.000    0.000    0.000    0.000    0.000    0.000 
#
# Total GULP energy -178802.029357 kJ/mol
# GULP energy per Si atom -5587.563417 kJ/mol
# Density = 2.120869 g / cm^3
# Si number density = 21.257075 Si / 1000 Ang^3
#
#
#
# Elastic Constant Matrix: (Units=GPa)
#
#
# Indices 1 2 3 4 5 6 
#
# 1 106.4373 20.0309 15.7552 0.0001 -5.5511 0.0003
# 2 20.0309 79.7585 26.8695 0.0001 11.6657 0.0001
# 3 15.7552 26.8695 91.4654 -0.0007 -8.6166 -0.0001
# 4 0.0001 0.0001 -0.0007 19.1538 -0.0003 7.7868
# 5 -5.5511 11.6657 -8.6166 -0.0003 29.0838 0.0003
# 6 0.0003 0.0001 -0.0001 7.7868 0.0003 32.7283
#
#
#
# Elastic Compliance Matrix: (Units=1/GPa)
#
#
# Indices 1 2 3 4 5 6 
#
# 1 0.010159 -0.002738 -0.000679 0.000000 0.002836 0.000000
# 2 -0.002738 0.016185 -0.005086 0.000000 -0.008521 0.000000
# 3 -0.000679 -0.005086 0.013089 0.000001 0.005788 0.000000
# 4 0.000000 0.000000 0.000001 0.057800 0.000001 -0.013752
# 5 0.002836 -0.008521 0.005788 0.000001 0.040058 -0.000001
# 6 0.000000 0.000000 0.000000 -0.013752 -0.000001 0.033827
#
#
# Mechanical properties :
#
#
# Convention : Reuss Voigt Hill
#
# Bulk Modulus (GPa) = 44.58442 44.77471 44.67957
# Shear Modulus (GPa) = 25.56274 30.52688 28.04481
#
# Velocity S-wave (km/s) = 3.47155 3.79368 3.63618
# Velocity P-wave (km/s) = 6.09002 6.34811 6.22040
#
# Compressibility (1/GPa) = 0.02242936
#
# Stress axis : x y z
#
# Youngs Moduli (GPa) = 98.43753 61.78540 76.39812
#
# Poissons Ratio (x) = 0.16914 0.05184
# Poissons Ratio (y) = 0.26947 0.38855
# Poissons Ratio (z) = 0.06679 0.31423
#
# Static dielectric constant tensor:
#      x y z
#    x 1.781460 0.000000 -0.004920 
#    y 0.000000 1.824400 0.000000 
#    z -0.004920 0.000000 1.802090 
# 
# From -- ./inp_files/311651.got.cif
#   From: 2010.05.17/outbox.cif.g08.bks.cpg/sg15_156_cif.got.tgz:311651.got - 2010.06.03 18:47:42.
