data_PCOD9295543
_publ_section_title
;
Structure prediction by ZEFSAII (Michael W. Deem and Ramdas Pophale) SiO2 
 PCOD9295543
Probable space group: C 2/C
;
_chemical_formula_sum "Si O2"
_cell_formula_units_Z 44
_cell_length_a 12.054734
_cell_length_b 8.379491
_cell_length_c 21.144663
_cell_angle_alpha 90.000000
_cell_angle_beta 59.332655
_cell_angle_gamma 90.000000
_cell_volume 1837.159035
_symmetry_space_group_name_H-M "C 2/C"
_symmetry_group_IT_number 15
_symmetry_cell_setting 'monoclinic'
loop_
_space_group_symop_operation_xyz
x,y,z
-x,y,1/2-z
-x,-y,-z
x,-y,1/2+z
1/2+x,1/2+y,z
1/2-x,1/2+y,1/2-z
1/2-x,1/2-y,-z
1/2+x,1/2-y,1/2+z
loop_
_atom_site_type_symbol
_atom_site_label
_atom_site_fract_x
_atom_site_fract_y
_atom_site_fract_z
Si Si1 0.184959 0.986398 0.024453
Si Si2 0.286461 0.264277 0.157555
Si Si3 0.297540 0.224093 0.590078
Si Si4 0.500000 0.243638 0.750000
Si Si5 0.329740 0.415311 0.705772
Si Si6 0.919676 0.695934 0.985852
O O1 0.192906 0.892631 0.088804
O O2 0.322050 0.078311 0.979235
O O3 0.176908 0.859931 0.970428
O O4 0.083185 0.127447 0.044671
O O5 0.138567 0.330916 0.191490
O O6 0.351883 0.406963 0.176402
O O7 0.270587 0.109311 0.206831
O O8 0.358439 0.226876 0.072548
O O9 0.277515 0.308312 0.662939
O O10 0.435094 0.136237 0.555388
O O11 0.456254 0.343850 0.702020
#
# Coordination Sequence:
#
# PCOD9295543 Si02
#       6
#     8   8   8   4   8   8
#     4  10  24  38  62  96 126 167 198 254 320 363
#     4  10  23  43  64  92 123 167 208 253 312 369
#     4  11  23  42  64  94 129 157 211 262 304 365
#     4   8  24  40  64  82 132 160 196 260 310 350
#     4  10  23  43  65  91 125 164 209 255 308 372
#     4  11  23  40  66  92 126 162 211 253 312 372
#
# _framework density 23.950019999999999
#
# number of rings (size 3 to 8) (size 9 to 14) (size 15 to 20)
#    1.091    0.727    1.818    1.091    7.636    0.000 
#    3.273    0.909    0.000    0.000    0.000    0.000 
#    0.000    0.000    0.000    0.000    0.000    0.000 
#
# Total GULP energy -122887.843997 kJ/mol
# GULP energy per Si atom -5585.811091 kJ/mol
# Density = 2.389551 g / cm^3
# Si number density = 23.950020 Si / 1000 Ang^3
#
#
#
# Elastic Constant Matrix: (Units=GPa)
#
#
# Indices 1 2 3 4 5 6 
#
# 1 76.5876 13.8289 27.8380 0.0000 22.6454 0.0000
# 2 13.8289 62.7530 0.3563 0.0000 10.9765 0.0000
# 3 27.8380 0.3563 125.1039 0.0000 5.9166 0.0000
# 4 0.0000 0.0000 0.0000 11.3329 0.0000 58.9544
# 5 22.6454 10.9765 5.9166 0.0000 35.1827 0.0000
# 6 0.0000 0.0000 0.0000 58.9544 0.0000 -243.8369
#
#
#
# Elastic Compliance Matrix: (Units=1/GPa)
#
#
# Indices 1 2 3 4 5 6 
#
# 1 0.017693 -0.002104 -0.003451 0.000000 -0.010151 0.000000
# 2 -0.002104 0.017111 0.000613 0.000000 -0.004087 0.000000
# 3 -0.003451 0.000613 0.008733 0.000000 0.000561 0.000000
# 4 0.000000 0.000000 0.000000 0.039083 0.000000 0.009449
# 5 -0.010151 -0.004087 0.000561 0.000000 0.036138 0.000000
# 6 0.000000 0.000000 0.000000 0.009449 0.000000 -0.001816
#
#
# Mechanical properties :
#
#
# Convention : Reuss Voigt Hill
#
# Bulk Modulus (GPa) = 29.71567 38.72122 34.21844
# Shear Modulus (GPa) = 36.22107 -24.63616 5.79245
#
# Velocity S-wave (km/s) = 3.89313 -3.21074 1.55686
# Velocity P-wave (km/s) = 5.71340 1.56765 4.18930
#
# Compressibility (1/GPa) = 0.03365228
#
# Stress axis : x y z
#
# Youngs Moduli (GPa) = 56.52074 58.44351 114.50895
#
# Poissons Ratio (x) = 0.12295 0.39515
# Poissons Ratio (y) = 0.11890 -0.07016
# Poissons Ratio (z) = 0.19505 -0.03581
#
# Static dielectric constant tensor:
#      x y z
#    x 1.908490 0.000000 -0.019070 
#    y 0.000000 1.941930 0.000000 
#    z -0.019070 0.000000 1.917160 
# 
# From -- ./inp_files/236045.got.cif
#   From: 2010.05.17/outbox.cif.g08.bks.cpg/sg15_119_cif.got.tgz:236045.got - 2010.06.03 18:47:42.
