data_PCOD9295004
_publ_section_title
;
Structure prediction by ZEFSAII (Michael W. Deem and Ramdas Pophale) SiO2 
 PCOD9295004
Probable space group: C 2/C
;
_chemical_formula_sum "Si O2"
_cell_formula_units_Z 44
_cell_length_a 28.039376
_cell_length_b 5.519044
_cell_length_c 12.757654
_cell_angle_alpha 90.000000
_cell_angle_beta 107.086108
_cell_angle_gamma 90.000000
_cell_volume 1887.118851
_symmetry_space_group_name_H-M "C 2/C"
_symmetry_group_IT_number 15
_symmetry_cell_setting 'monoclinic'
loop_
_space_group_symop_operation_xyz
x,y,z
-x,y,1/2-z
-x,-y,-z
x,-y,1/2+z
1/2+x,1/2+y,z
1/2-x,1/2+y,1/2-z
1/2-x,1/2-y,-z
1/2+x,1/2-y,1/2+z
loop_
_atom_site_type_symbol
_atom_site_label
_atom_site_fract_x
_atom_site_fract_y
_atom_site_fract_z
Si Si1 0.684515 0.234513 0.764044
Si Si2 0.793116 0.758364 0.114048
Si Si3 0.364765 0.621893 0.479769
Si Si4 0.000000 0.040871 0.750000
Si Si5 0.533118 0.842885 0.945375
Si Si6 0.904511 0.725854 0.637689
O O1 0.707920 0.480805 0.828514
O O2 0.672590 0.298028 0.635996
O O3 0.631771 0.198832 0.788799
O O4 0.709991 0.976699 0.811544
O O5 0.750000 0.750000 0.000000
O O6 0.843483 0.759173 0.074073
O O7 0.420453 0.694482 0.478125
O O8 0.371852 0.342135 0.520830
O O9 0.004955 0.186409 0.646028
O O10 0.948337 0.906398 0.699326
O O11 0.563394 0.004323 0.882302
O O12 0.500000 0.000000 0.000000
#
# Coordination Sequence:
#
# PCOD9295004 Si02
#       6
#     8   8   8   4   8   8
#     4  11  25  43  72  96 136 175 211 278 336 393
#     4  11  25  47  70 101 132 166 220 277 334 410
#     4  10  25  41  64  97 131 174 223 269 337 390
#     4  10  24  38  56  92 126 180 222 270 316 378
#     4  11  24  38  62  88 130 175 223 269 317 385
#     4  10  23  42  59  93 135 173 227 271 321 392
#
# _framework density 23.315967000000001
#
# number of rings (size 3 to 8) (size 9 to 14) (size 15 to 20)
#    0.000    1.455    1.818    1.091   10.182    2.909 
#    0.000    0.000    0.000    0.000    0.000    0.000 
#    0.000    0.000    0.000    0.000    0.000    0.000 
#
# Total GULP energy -122791.853499 kJ/mol
# GULP energy per Si atom -5581.447886 kJ/mol
# Density = 2.326290 g / cm^3
# Si number density = 23.315967 Si / 1000 Ang^3
#
#
#
# Elastic Constant Matrix: (Units=GPa)
#
#
# Indices 1 2 3 4 5 6 
#
# 1 69.8793 -0.7511 3.6210 0.0000 -13.6160 0.0000
# 2 -0.7511 88.8063 29.1222 0.0000 14.4354 0.0000
# 3 3.6210 29.1222 82.7314 0.0000 15.5392 0.0000
# 4 0.0000 0.0000 0.0000 -29.6327 0.0000 -15.2669
# 5 -13.6160 14.4354 15.5392 0.0000 37.7984 0.0000
# 6 0.0000 0.0000 0.0000 -15.2669 0.0000 -5.5664
#
#
#
# Elastic Compliance Matrix: (Units=1/GPa)
#
#
# Indices 1 2 3 4 5 6 
#
# 1 0.015668 -0.000339 -0.001789 0.000000 0.006509 0.000000
# 2 -0.000339 0.013122 -0.003945 0.000000 -0.003512 0.000000
# 3 -0.001789 -0.003945 0.014513 0.000000 -0.005104 0.000000
# 4 0.000000 0.000000 0.000000 0.081701 0.000000 -0.224080
# 5 0.006509 -0.003512 -0.005104 0.000000 0.032240 0.000000
# 6 0.000000 0.000000 0.000000 -0.224080 0.000000 0.434934
#
#
# Mechanical properties :
#
#
# Convention : Reuss Voigt Hill
#
# Bulk Modulus (GPa) = 32.09482 33.93345 33.01413
# Shear Modulus (GPa) = 8.13394 14.48154 11.30774
#
# Velocity S-wave (km/s) = 1.86980 2.49489 2.20461
# Velocity P-wave (km/s) = 4.29611 4.78379 4.54649
#
# Compressibility (1/GPa) = 0.03115767
#
# Stress axis : x y z
#
# Youngs Moduli (GPa) = 63.82561 76.20797 68.90421
#
# Poissons Ratio (x) = 0.02582 0.12327
# Poissons Ratio (y) = 0.02162 0.27180
# Poissons Ratio (z) = 0.11419 0.30061
#
# Static dielectric constant tensor:
#      x y z
#    x 1.871450 0.000000 -0.011580 
#    y 0.000000 2.035800 0.000000 
#    z -0.011580 0.000000 1.835000 
# 
# From -- ./inp_files/125043.got.cif
#   From: 2010.05.17/outbox.cif.g08.bks.cpg/sg15_63_cif.got.tgz:125043.got - 2010.06.03 18:47:42.
