data_PCOD9295690
_publ_section_title
;
Structure prediction by ZEFSAII (Michael W. Deem and Ramdas Pophale) SiO2 
 PCOD9295690
Probable space group: C 2/C
;
_chemical_formula_sum "Si O2"
_cell_formula_units_Z 48
_cell_length_a 9.415536
_cell_length_b 22.771774
_cell_length_c 11.306848
_cell_angle_alpha 90.000000
_cell_angle_beta 85.038777
_cell_angle_gamma 90.000000
_cell_volume 2415.201156
_symmetry_space_group_name_H-M "C 2/C"
_symmetry_group_IT_number 15
_symmetry_cell_setting 'monoclinic'
loop_
_space_group_symop_operation_xyz
x,y,z
-x,y,1/2-z
-x,-y,-z
x,-y,1/2+z
1/2+x,1/2+y,z
1/2-x,1/2+y,1/2-z
1/2-x,1/2-y,-z
1/2+x,1/2-y,1/2+z
loop_
_atom_site_type_symbol
_atom_site_label
_atom_site_fract_x
_atom_site_fract_y
_atom_site_fract_z
Si Si1 0.297508 0.783040 0.727213
Si Si2 0.000000 0.269594 0.250000
Si Si3 0.894495 0.914790 0.080975
Si Si4 0.500000 0.676796 0.750000
Si Si5 0.895529 0.603896 0.357757
Si Si6 0.609535 0.847172 0.020808
Si Si7 0.092190 0.957111 0.854801
O O1 0.367857 0.720613 0.750459
O O2 0.358420 0.831134 0.812113
O O3 0.334561 0.805378 0.591503
O O4 0.132605 0.772994 0.761000
O O5 0.955634 0.309675 0.366137
O O6 0.987568 0.865523 0.139268
O O7 0.876545 0.973270 0.160865
O O8 0.744316 0.885786 0.054128
O O9 0.985850 0.939417 0.966760
O O10 0.745604 0.571190 0.369608
O O11 0.000000 0.577102 0.250000
O O12 0.986643 0.612425 0.470221
O O13 0.000000 0.936321 0.750000
#
# Coordination Sequence:
#
# PCOD9295690 Si02
#       7
#     8   4   8   4   8   8   8
#     4  11  24  42  67  98 136 176 216 277 338 410
#     4  12  26  36  65  97 134 182 210 270 344 400
#     4  11  26  43  71  95 134 177 224 285 321 401
#     4  12  22  46  67  97 140 170 212 280 332 394
#     4  10  23  43  67  98 131 174 222 276 337 399
#     4  11  24  45  60 102 135 170 227 272 340 399
#     4  11  24  46  69  97 128 180 233 269 336 391
#
# _framework density 19.874120999999999
#
# number of rings (size 3 to 8) (size 9 to 14) (size 15 to 20)
#    0.000    1.000    5.000    2.500    5.833    1.333 
#    1.500    0.000    0.000    0.000    0.000    0.000 
#    0.000    0.000    0.000    0.000    0.000    0.000 
#
# Total GULP energy -133943.891243 kJ/mol
# GULP energy per Si atom -5580.995468 kJ/mol
# Density = 1.982889 g / cm^3
# Si number density = 19.874121 Si / 1000 Ang^3
#
#
#
# Elastic Constant Matrix: (Units=GPa)
#
#
# Indices 1 2 3 4 5 6 
#
# 1 146.3783 25.7251 32.6289 0.0000 2.3610 0.0000
# 2 25.7251 81.4885 16.2641 0.0000 4.8007 0.0000
# 3 32.6289 16.2641 55.5398 0.0000 10.9788 0.0000
# 4 0.0000 0.0000 0.0000 19.8699 0.0000 0.0266
# 5 2.3610 4.8007 10.9788 0.0000 30.2708 0.0000
# 6 0.0000 0.0000 0.0000 0.0266 0.0000 118.0060
#
#
#
# Elastic Compliance Matrix: (Units=1/GPa)
#
#
# Indices 1 2 3 4 5 6 
#
# 1 0.008123 -0.001738 -0.004516 0.000000 0.001280 0.000000
# 2 -0.001738 0.013421 -0.002709 0.000000 -0.001010 0.000000
# 3 -0.004516 -0.002709 0.022942 0.000000 -0.007539 0.000000
# 4 0.000000 0.000000 0.000000 0.050327 0.000000 -0.000011
# 5 0.001280 -0.001010 -0.007539 0.000000 0.035830 0.000000
# 6 0.000000 0.000000 0.000000 -0.000011 0.000000 0.008474
#
#
# Mechanical properties :
#
#
# Convention : Reuss Voigt Hill
#
# Bulk Modulus (GPa) = 37.65300 48.07141 42.86221
# Shear Modulus (GPa) = 30.13914 47.54858 38.84386
#
# Velocity S-wave (km/s) = 3.89845 4.89661 4.42576
# Velocity P-wave (km/s) = 6.26505 7.49730 6.90870
#
# Compressibility (1/GPa) = 0.02655831
#
# Stress axis : x y z
#
# Youngs Moduli (GPa) = 123.10436 74.51177 43.58843
#
# Poissons Ratio (x) = 0.12953 0.19685
# Poissons Ratio (y) = 0.21401 0.11808
# Poissons Ratio (z) = 0.55597 0.20186
#
# Static dielectric constant tensor:
#      x y z
#    x 1.633380 0.000000 0.070480 
#    y 0.000000 1.708470 0.000000 
#    z 0.070480 0.000000 1.649730 
# 
# From -- ./inp_files/79167.got.cif
#   From: 2010.05.17/outbox.cif.g08.bks.cpg/sg15_40_cif.got.tgz:79167.got - 2010.06.03 18:47:42.
