data_PCOD9295075
_publ_section_title
;
Structure prediction by ZEFSAII (Michael W. Deem and Ramdas Pophale) SiO2 
 PCOD9295075
Probable space group: C 2/C
;
_chemical_formula_sum "Si O2"
_cell_formula_units_Z 40
_cell_length_a 17.637012
_cell_length_b 12.348760
_cell_length_c 14.172788
_cell_angle_alpha 90.000000
_cell_angle_beta 147.942704
_cell_angle_gamma 90.000000
_cell_volume 1638.353472
_symmetry_space_group_name_H-M "C 2/C"
_symmetry_group_IT_number 15
_symmetry_cell_setting 'monoclinic'
loop_
_space_group_symop_operation_xyz
x,y,z
-x,y,1/2-z
-x,-y,-z
x,-y,1/2+z
1/2+x,1/2+y,z
1/2-x,1/2+y,1/2-z
1/2-x,1/2-y,-z
1/2+x,1/2-y,1/2+z
loop_
_atom_site_type_symbol
_atom_site_label
_atom_site_fract_x
_atom_site_fract_y
_atom_site_fract_z
Si Si1 0.000359 0.991749 0.113297
Si Si2 0.367379 0.122323 0.796986
Si Si3 0.739464 0.839869 0.108905
Si Si4 0.198985 0.403763 0.862257
Si Si5 0.063366 0.222994 0.412811
O O1 0.114867 0.902546 0.254870
O O2 0.029616 0.113137 0.177021
O O3 0.855511 0.955865 0.010055
O O4 0.000000 0.000000 0.000000
O O5 0.327768 0.118408 0.865245
O O6 0.508604 0.193994 0.933251
O O7 0.228173 0.184883 0.601353
O O8 0.389396 0.002891 0.776102
O O9 0.778670 0.713915 0.160804
O O10 0.658903 0.871102 0.927240
O O11 0.000000 0.274242 0.250000
#
# Coordination Sequence:
#
# PCOD9295075 Si02
#       5
#     8   8   8   8   8
#     4  11  19  40  65  91 127 176 224 271 328 400
#     4  11  24  44  70  99 135 176 223 281 336 401
#     4  11  22  39  67  93 130 173 226 278 325 399
#     4  10  23  42  63  97 132 178 227 272 335 401
#     4  11  23  42  69  99 133 174 223 278 335 400
#
# _framework density 24.414756000000001
#
# number of rings (size 3 to 8) (size 9 to 14) (size 15 to 20)
#    0.000    1.200    4.000    4.800    0.000    0.000 
#    0.000    7.000    0.000    0.000    0.000    0.000 
#    0.000    0.000    0.000    0.000    0.000    0.000 
#
# Total GULP energy -111704.387574 kJ/mol
# GULP energy per Si atom -5585.219379 kJ/mol
# Density = 2.435919 g / cm^3
# Si number density = 24.414756 Si / 1000 Ang^3
#
#
#
# Elastic Constant Matrix: (Units=GPa)
#
#
# Indices 1 2 3 4 5 6 
#
# 1 70.4217 11.8268 40.8491 0.0813 -28.0302 0.0392
# 2 11.8268 179.1531 31.5772 0.0422 8.8508 0.0204
# 3 40.8491 31.5772 79.9123 0.0876 -2.6664 0.0423
# 4 0.0813 0.0422 0.0876********** 0.1143**********
# 5 -28.0302 8.8508 -2.6664 0.1143 43.4782 0.0552
# 6 0.0392 0.0204 0.0423********** 0.0552**********
#
#
#
# Elastic Compliance Matrix: (Units=1/GPa)
#
#
# Indices 1 2 3 4 5 6 
#
# 1 0.030182 -0.000325 -0.014678 0.000000 0.018625 0.000000
# 2 -0.000325 0.006086 -0.002291 0.000000 -0.001589 0.000000
# 3 -0.014678 -0.002291 0.020665 0.000000 -0.007729 0.000000
# 4 0.000000 0.000000 0.000000 0.005794 0.000000 -0.012005
# 5 0.018625 -0.001589 -0.007729 0.000000 0.034857 0.000000
# 6 0.000000 0.000000 0.000000 -0.012005 0.000000 0.024875
#
#
# Mechanical properties :
#
#
# Convention : Reuss Voigt Hill
#
# Bulk Modulus (GPa) = 44.75869 55.33260 50.04564
# Shear Modulus (GPa) = 30.39572 598377.25794 299203.82683
#
# Velocity S-wave (km/s) = 3.53225 495.60108 350.45179
# Velocity P-wave (km/s) = 5.91677 572.29068 404.69225
#
# Compressibility (1/GPa) = 0.02234203
#
# Stress axis : x y z
#
# Youngs Moduli (GPa) = 33.13184 164.31974 48.39215
#
# Poissons Ratio (x) = 0.05347 0.71032
# Poissons Ratio (y) = 0.01078 0.11089
# Poissons Ratio (z) = 0.48632 0.37653
#
# Static dielectric constant tensor:
#      x y z
#    x 1.854590 0.000000 -0.246520 
#    y 0.000000 1.905170 0.000000 
#    z -0.246520 0.000000 2.028230 
# 
# From -- ./inp_files/161159.got.cif
#   From: 2010.05.17/outbox.cif.g08.bks.cpg/sg15_81_cif.got.tgz:161159.got - 2010.06.03 18:47:42.
