data_PCOD9295539
_publ_section_title
;
Structure prediction by ZEFSAII (Michael W. Deem and Ramdas Pophale) SiO2 
 PCOD9295539
Probable space group: C 2/C
;
_chemical_formula_sum "Si O2"
_cell_formula_units_Z 40
_cell_length_a 9.789733
_cell_length_b 18.804490
_cell_length_c 11.851268
_cell_angle_alpha 90.000000
_cell_angle_beta 129.814411
_cell_angle_gamma 90.000000
_cell_volume 1675.821323
_symmetry_space_group_name_H-M "C 2/C"
_symmetry_group_IT_number 15
_symmetry_cell_setting 'monoclinic'
loop_
_space_group_symop_operation_xyz
x,y,z
-x,y,1/2-z
-x,-y,-z
x,-y,1/2+z
1/2+x,1/2+y,z
1/2-x,1/2+y,1/2-z
1/2-x,1/2-y,-z
1/2+x,1/2-y,1/2+z
loop_
_atom_site_type_symbol
_atom_site_label
_atom_site_fract_x
_atom_site_fract_y
_atom_site_fract_z
Si Si1 0.553795 0.595792 0.654704
Si Si2 0.174810 0.380589 0.904272
Si Si3 0.421304 0.069249 0.901021
Si Si4 0.710642 0.247461 0.271552
Si Si5 0.108974 0.698868 0.984379
O O1 0.500000 0.567335 0.750000
O O2 0.374166 0.589548 0.486092
O O3 0.745862 0.561252 0.731193
O O4 0.599572 0.680304 0.691763
O O5 0.180424 0.298515 0.867433
O O6 0.000000 0.412564 0.750000
O O7 0.148551 0.387649 0.024330
O O8 0.573260 0.118265 0.925783
O O9 0.500000 0.000000 0.000000
O O10 0.665147 0.195910 0.144099
O O11 0.917148 0.265568 0.369946
O O12 0.250000 0.750000 0.000000
#
# Coordination Sequence:
#
# PCOD9295539 Si02
#       5
#     8   8   8   8   8
#     4   9  20  34  61  97 123 156 210 274 327 381
#     4  11  20  37  66  99 117 161 221 279 320 385
#     4  10  23  43  64  89 133 178 215 272 339 403
#     4  11  20  36  64  96 128 159 216 274 332 381
#     4  11  23  39  63  94 132 170 216 271 340 400
#
# _framework density 23.868893
#
# number of rings (size 3 to 8) (size 9 to 14) (size 15 to 20)
#    0.000    1.600    4.000    1.200    0.000    3.200 
#    0.000   11.000    0.000    0.000    0.000    0.000 
#    0.000    0.000    0.000    0.000    0.000    0.000 
#
# Total GULP energy -111588.963178 kJ/mol
# GULP energy per Si atom -5579.448159 kJ/mol
# Density = 2.381457 g / cm^3
# Si number density = 23.868893 Si / 1000 Ang^3
#
#
#
# Elastic Constant Matrix: (Units=GPa)
#
#
# Indices 1 2 3 4 5 6 
#
# 1 70.6420 30.5869 32.0506 0.0000 24.8724 0.0000
# 2 30.5869 89.6878 34.6818 0.0000 31.0676 0.0000
# 3 32.0506 34.6818 186.2219 0.0000 53.9816 0.0000
# 4 0.0000 0.0000 0.0000 27.3525 0.0000 -1.1972
# 5 24.8724 31.0676 53.9816 0.0000 53.9011 0.0000
# 6 0.0000 0.0000 0.0000 -1.1972 0.0000 6.8020
#
#
#
# Elastic Compliance Matrix: (Units=1/GPa)
#
#
# Indices 1 2 3 4 5 6 
#
# 1 0.018122 -0.004060 -0.000870 0.000000 -0.005152 0.000000
# 2 -0.004060 0.014859 -0.000182 0.000000 -0.006509 0.000000
# 3 -0.000870 -0.000182 0.007618 0.000000 -0.007124 0.000000
# 4 0.000000 0.000000 0.000000 0.036843 0.000000 0.006485
# 5 -0.005152 -0.006509 -0.007124 0.000000 0.031816 0.000000
# 6 0.000000 0.000000 0.000000 0.006485 0.000000 0.148157
#
#
# Mechanical properties :
#
#
# Convention : Reuss Voigt Hill
#
# Bulk Modulus (GPa) = 32.91855 60.13227 46.52541
# Shear Modulus (GPa) = 18.00091 34.22662 26.11376
#
# Velocity S-wave (km/s) = 2.74917 3.79085 3.31123
# Velocity P-wave (km/s) = 4.88862 6.66395 5.84409
#
# Compressibility (1/GPa) = 0.03037801
#
# Stress axis : x y z
#
# Youngs Moduli (GPa) = 55.18173 67.29763 131.25946
#
# Poissons Ratio (x) = 0.27319 0.11414
# Poissons Ratio (y) = 0.22401 0.02386
# Poissons Ratio (z) = 0.04799 0.01223
#
# Static dielectric constant tensor:
#      x y z
#    x 2.033700 0.000000 0.037800 
#    y 0.000000 1.973850 0.000000 
#    z 0.037800 0.000000 1.974840 
# 
# From -- ./inp_files/145880.got.cif
#   From: 2010.05.17/outbox.cif.g08.bks.cpg/sg15_73_cif.got.tgz:145880.got - 2010.06.03 18:47:42.
