data_PCOD9295039
_publ_section_title
;
Structure prediction by ZEFSAII (Michael W. Deem and Ramdas Pophale) SiO2 
 PCOD9295039
Probable space group: C 2/C
;
_chemical_formula_sum "Si O2"
_cell_formula_units_Z 48
_cell_length_a 8.450213
_cell_length_b 10.845511
_cell_length_c 22.947151
_cell_angle_alpha 90.000000
_cell_angle_beta 85.196851
_cell_angle_gamma 90.000000
_cell_volume 2095.649435
_symmetry_space_group_name_H-M "C 2/C"
_symmetry_group_IT_number 15
_symmetry_cell_setting 'monoclinic'
loop_
_space_group_symop_operation_xyz
x,y,z
-x,y,1/2-z
-x,-y,-z
x,-y,1/2+z
1/2+x,1/2+y,z
1/2-x,1/2+y,1/2-z
1/2-x,1/2-y,-z
1/2+x,1/2-y,1/2+z
loop_
_atom_site_type_symbol
_atom_site_label
_atom_site_fract_x
_atom_site_fract_y
_atom_site_fract_z
Si Si1 0.954585 0.451600 0.389046
Si Si2 0.616613 0.508860 0.442322
Si Si3 0.722107 0.039284 0.301297
Si Si4 0.045048 0.861466 0.146245
Si Si5 0.723825 0.816201 0.210614
Si Si6 0.314855 0.764367 0.064685
O O1 0.808495 0.502118 0.432443
O O2 0.876784 0.356906 0.343597
O O3 0.064123 0.545386 0.347228
O O4 0.077110 0.383150 0.428092
O O5 0.500000 0.500000 0.500000
O O6 0.559727 0.397712 0.405354
O O7 0.583015 0.646049 0.421565
O O8 0.862658 0.982248 0.335538
O O9 0.688438 0.926534 0.257281
O O10 0.786760 0.169882 0.274544
O O11 0.176983 0.771288 0.117282
O O12 0.913487 0.823584 0.195646
O O13 0.250000 0.750000 0.000000
#
# Coordination Sequence:
#
# PCOD9295039 Si02
#       6
#     8   8   8   8   8   8
#     4  10  25  42  64  96 136 174 225 282 332 410
#     4  11  22  41  63  92 130 173 223 269 331 393
#     4  11  24  43  68  98 133 177 223 278 343 403
#     4  10  23  42  62  96 132 172 219 278 326 404
#     4  11  24  43  68  98 133 177 223 278 343 403
#     4  11  22  41  63  92 130 173 223 269 331 393
#
# _framework density 22.904593999999999
#
# number of rings (size 3 to 8) (size 9 to 14) (size 15 to 20)
#    0.000    1.333    1.667    3.000    0.000   12.000 
#    3.000    0.000    0.000    0.000    0.000    0.000 
#    0.000    0.000    0.000    0.000    0.000    0.000 
#
# Total GULP energy -133656.800894 kJ/mol
# GULP energy per Si atom -5569.033371 kJ/mol
# Density = 2.285246 g / cm^3
# Si number density = 22.904594 Si / 1000 Ang^3
#
#
#
# Elastic Constant Matrix: (Units=GPa)
#
#
# Indices 1 2 3 4 5 6 
#
# 1 83.1575 8.7438 38.4854 0.0000 -13.2281 0.0000
# 2 8.7438 84.7100 14.9511 0.0000 -18.5961 0.0000
# 3 38.4854 14.9511 75.8123 0.0000 -13.0196 0.0000
# 4 0.0000 0.0000 0.0000 26.8392 0.0000 -7.9849
# 5 -13.2281 -18.5961 -13.0196 0.0000 30.8368 0.0000
# 6 0.0000 0.0000 0.0000 -7.9849 0.0000 31.7882
#
#
#
# Elastic Compliance Matrix: (Units=1/GPa)
#
#
# Indices 1 2 3 4 5 6 
#
# 1 0.016129 0.000566 -0.007604 0.000000 0.004050 0.000000
# 2 0.000566 0.013760 -0.001654 0.000000 0.007842 0.000000
# 3 -0.007604 -0.001654 0.017947 0.000000 0.003318 0.000000
# 4 0.000000 0.000000 0.000000 0.040268 0.000000 0.010115
# 5 0.004050 0.007842 0.003318 0.000000 0.040296 0.000000
# 6 0.000000 0.000000 0.000000 0.010115 0.000000 0.033999
#
#
# Mechanical properties :
#
#
# Convention : Reuss Voigt Hill
#
# Bulk Modulus (GPa) = 32.83868 40.89338 36.86603
# Shear Modulus (GPa) = 26.32493 29.99281 28.15887
#
# Velocity S-wave (km/s) = 3.39385 3.62258 3.51008
# Velocity P-wave (km/s) = 5.45215 5.94895 5.70596
#
# Compressibility (1/GPa) = 0.03045190
#
# Stress axis : x y z
#
# Youngs Moduli (GPa) = 61.99933 72.67369 55.72091
#
# Poissons Ratio (x) = -0.04115 0.42370
# Poissons Ratio (y) = -0.03511 0.09218
# Poissons Ratio (z) = 0.47144 0.12022
#
# Static dielectric constant tensor:
#      x y z
#    x 2.112830 0.000000 -0.215530 
#    y 0.000000 1.507740 0.000000 
#    z -0.215530 0.000000 2.134590 
# 
# From -- ./inp_files/263080.got.cif
#   From: 2010.05.17/outbox.cif.g08.bks.cpg/sg15_132_cif.got.tgz:263080.got - 2010.06.03 18:47:42.
