data_PCOD9295079
_publ_section_title
;
Structure prediction by ZEFSAII (Michael W. Deem and Ramdas Pophale) SiO2 
 PCOD9295079
Probable space group: C 2/C
;
_chemical_formula_sum "Si O2"
_cell_formula_units_Z 52
_cell_length_a 8.989851
_cell_length_b 11.458302
_cell_length_c 22.986123
_cell_angle_alpha 90.000000
_cell_angle_beta 62.995892
_cell_angle_gamma 90.000000
_cell_volume 2109.616442
_symmetry_space_group_name_H-M "C 2/C"
_symmetry_group_IT_number 15
_symmetry_cell_setting 'monoclinic'
loop_
_space_group_symop_operation_xyz
x,y,z
-x,y,1/2-z
-x,-y,-z
x,-y,1/2+z
1/2+x,1/2+y,z
1/2-x,1/2+y,1/2-z
1/2-x,1/2-y,-z
1/2+x,1/2-y,1/2+z
loop_
_atom_site_type_symbol
_atom_site_label
_atom_site_fract_x
_atom_site_fract_y
_atom_site_fract_z
Si Si1 0.393371 0.300613 0.590901
Si Si2 0.694624 0.928089 0.837993
Si Si3 0.440305 0.923747 0.456793
Si Si4 0.170128 0.068910 0.917111
Si Si5 0.037345 0.785576 0.129062
Si Si6 0.000000 0.941322 0.250000
Si Si7 0.439841 0.754386 0.326500
O O1 0.533947 0.214679 0.539589
O O2 0.389126 0.439131 0.587176
O O3 0.409159 0.265571 0.656128
O O4 0.224748 0.256937 0.591352
O O5 0.576392 0.826271 0.835684
O O6 0.814665 0.855056 0.860684
O O7 0.575398 0.025049 0.886382
O O8 0.830322 0.985027 0.771771
O O9 0.500000 0.000000 0.500000
O O10 0.252863 0.940718 0.466499
O O11 0.024903 0.153339 0.919146
O O12 0.329373 0.129390 0.855956
O O13 0.024658 0.870781 0.186337
O O14 0.500000 0.752865 0.250000
#
# Coordination Sequence:
#
# PCOD9295079 Si02
#       7
#     8   8   8   8   8   4   8
#     4  11  23  45  69  97 141 177 227 285 336 409
#     4  11  23  45  65  98 142 173 229 280 336 416
#     4  11  25  48  73  96 133 184 234 296 352 400
#     4  10  24  44  64 100 138 172 232 282 336 413
#     4  11  25  41  69 103 137 181 225 271 345 411
#     4  12  24  40  66 100 140 182 212 266 344 416
#     4  10  23  42  64 100 144 182 220 274 343 414
#
# _framework density 24.649031000000001
#
# number of rings (size 3 to 8) (size 9 to 14) (size 15 to 20)
#    0.000    1.231    3.846    0.923    4.308    0.615 
#    1.385    7.692    0.000    0.000    0.000    0.000 
#    0.000    0.000    0.000    0.000    0.000    0.000 
#
# Total GULP energy -145287.118307 kJ/mol
# GULP energy per Si atom -5587.966089 kJ/mol
# Density = 2.459293 g / cm^3
# Si number density = 24.649031 Si / 1000 Ang^3
#
#
#
# Elastic Constant Matrix: (Units=GPa)
#
#
# Indices 1 2 3 4 5 6 
#
# 1 150.8778 55.1782 41.0307 0.0000 19.2139 0.0000
# 2 55.1782 168.1552 34.2407 0.0000 -3.3811 0.0000
# 3 41.0307 34.2407 47.5083 0.0000 12.2837 0.0000
# 4 0.0000 0.0000 0.0000 23.5830 0.0000 -2.6628
# 5 19.2139 -3.3811 12.2837 0.0000 34.6702 0.0000
# 6 0.0000 0.0000 0.0000 -2.6628 0.0000 53.0082
#
#
#
# Elastic Compliance Matrix: (Units=1/GPa)
#
#
# Indices 1 2 3 4 5 6 
#
# 1 0.009341 -0.001949 -0.005807 0.000000 -0.003310 0.000000
# 2 -0.001949 0.007615 -0.004708 0.000000 0.003491 0.000000
# 3 -0.005807 -0.004708 0.031643 0.000000 -0.008452 0.000000
# 4 0.000000 0.000000 0.000000 0.042645 0.000000 0.002142
# 5 -0.003310 0.003491 -0.008452 0.000000 0.034012 0.000000
# 6 0.000000 0.000000 0.000000 0.002142 0.000000 0.018973
#
#
# Mechanical properties :
#
#
# Convention : Reuss Voigt Hill
#
# Bulk Modulus (GPa) = 42.24552 69.71561 55.98057
# Shear Modulus (GPa) = 28.24086 37.99171 33.11629
#
# Velocity S-wave (km/s) = 3.38852 3.93021 3.66937
# Velocity P-wave (km/s) = 5.69960 6.99572 6.38065
#
# Compressibility (1/GPa) = 0.02367115
#
# Stress axis : x y z
#
# Youngs Moduli (GPa) = 107.04927 131.31383 31.60298
#
# Poissons Ratio (x) = 0.25598 0.18352
# Poissons Ratio (y) = 0.20868 0.14878
# Poissons Ratio (z) = 0.62165 0.61818
#
# Static dielectric constant tensor:
#      x y z
#    x 1.951350 0.000000 0.005510 
#    y 0.000000 1.961820 0.000000 
#    z 0.005510 0.000000 2.032770 
# 
# From -- ./inp_files/287619.got.cif
#   From: 2010.05.17/outbox.cif.g08.bks.cpg/sg15_144_cif.got.tgz:287619.got - 2010.06.03 18:47:42.
