data_PCOD9295251
_publ_section_title
;
Structure prediction by ZEFSAII (Michael W. Deem and Ramdas Pophale) SiO2 
 PCOD9295251
Probable space group: C 2/C
;
_chemical_formula_sum "Si O2"
_cell_formula_units_Z 60
_cell_length_a 5.155253
_cell_length_b 18.471107
_cell_length_c 31.123808
_cell_angle_alpha 90.000000
_cell_angle_beta 107.831581
_cell_angle_gamma 90.000000
_cell_volume 2821.335142
_symmetry_space_group_name_H-M "C 2/C"
_symmetry_group_IT_number 15
_symmetry_cell_setting 'monoclinic'
loop_
_space_group_symop_operation_xyz
x,y,z
-x,y,1/2-z
-x,-y,-z
x,-y,1/2+z
1/2+x,1/2+y,z
1/2-x,1/2+y,1/2-z
1/2-x,1/2-y,-z
1/2+x,1/2-y,1/2+z
loop_
_atom_site_type_symbol
_atom_site_label
_atom_site_fract_x
_atom_site_fract_y
_atom_site_fract_z
Si Si1 0.000000 0.000000 0.000000
Si Si2 0.263989 0.365567 0.439885
Si Si3 0.870015 0.017677 0.160394
Si Si4 0.206695 0.706088 0.378095
Si Si5 0.012425 0.718230 0.037372
Si Si6 0.325852 0.369248 0.118033
Si Si7 0.955997 0.592946 0.198278
Si Si8 0.331677 0.407766 0.571268
O O1 0.028835 0.967140 0.951698
O O2 0.068667 0.919587 0.022029
O O3 0.269978 0.282825 0.457083
O O4 0.421095 0.365674 0.402079
O O5 0.953031 0.390171 0.420702
O O6 0.692849 0.042465 0.191556
O O7 0.737686 0.052121 0.109997
O O8 0.170154 0.051233 0.178518
O O9 0.880023 0.931937 0.154778
O O10 0.244458 0.789692 0.367189
O O11 0.054766 0.663018 0.332936
O O12 0.467142 0.656546 0.403262
O O13 0.049469 0.711816 0.415087
O O14 0.100053 0.635721 0.032813
O O15 0.750000 0.750000 0.000000
O O16 0.000000 0.611313 0.250000
#
# Coordination Sequence:
#
# PCOD9295251 Si02
#       8
#     4   8   8   8   8   8   8   8
#     4  12  26  38  60  94 140 182 240 284 334 384
#     4  11  25  40  59  94 131 182 233 283 333 397
#     4  11  23  44  71  98 138 174 217 283 351 408
#     4  10  23  42  67  94 137 181 224 281 349 404
#     4  11  23  40  64  93 135 188 237 290 339 405
#     4  11  23  43  66  95 131 179 224 273 346 409
#     4  11  24  45  74 106 132 170 223 279 349 432
#     4  11  23  43  62  96 135 189 236 283 341 407
#
# _framework density 21.266527
#
# number of rings (size 3 to 8) (size 9 to 14) (size 15 to 20)
#    0.000    1.067    4.000    2.000    5.600    2.667 
#    0.000    1.333    0.000    0.000    0.000    0.000 
#    0.000    0.000    0.000    0.000    0.000    0.000 
#
# Total GULP energy -167198.837461 kJ/mol
# GULP energy per Si atom -5573.294582 kJ/mol
# Density = 2.121812 g / cm^3
# Si number density = 21.266527 Si / 1000 Ang^3
#
#
#
# Elastic Constant Matrix: (Units=GPa)
#
#
# Indices 1 2 3 4 5 6 
#
# 1 39.7302 34.1105 -19.3107 0.0000 -13.8076 0.0000
# 2 34.1105 122.3793 60.1699 0.0000 -8.1407 0.0000
# 3 -19.3107 60.1699 48.0418 0.0000 -37.8114 0.0000
# 4 0.0000 0.0000 0.0000 24.5185 0.0000 3.3610
# 5 -13.8076 -8.1407 -37.8114 0.0000 21.3091 0.0000
# 6 0.0000 0.0000 0.0000 3.3610 0.0000 -5.4331
#
#
#
# Elastic Compliance Matrix: (Units=1/GPa)
#
#
# Indices 1 2 3 4 5 6 
#
# 1 0.009425 0.003141 -0.014136 0.000000 -0.017776 0.000000
# 2 0.003141 0.005413 0.005770 0.000000 0.014341 0.000000
# 3 -0.014136 0.005770 -0.006135 0.000000 -0.017841 0.000000
# 4 0.000000 0.000000 0.000000 0.037597 0.000000 0.023259
# 5 -0.017776 0.014341 -0.017841 0.000000 0.009230 0.000000
# 6 0.000000 0.000000 0.000000 0.023259 0.000000 -0.169670
#
#
# Mechanical properties :
#
#
# Convention : Reuss Voigt Hill
#
# Bulk Modulus (GPa) = -572.08492 40.01008 -266.03742
# Shear Modulus (GPa) = -47.95210 17.09101 -15.43055
#
# Velocity S-wave (km/s) = -4.75364 2.83796 -2.69658
# Velocity P-wave (km/s) = 17.31244 5.43996 11.62169
#
# Compressibility (1/GPa) = -0.00174799
#
# Stress axis : x y z
#
# Youngs Moduli (GPa) = 106.10166 184.73453 -163.00152
#
# Poissons Ratio (x) = -0.58019 -2.30416
# Poissons Ratio (y) = -0.33323 0.94045
# Poissons Ratio (z) = 1.49983 -1.06584
#
# Static dielectric constant tensor:
#      x y z
#    x 2.470620 0.000000 -0.277650 
#    y 0.000000 1.754930 0.000000 
#    z -0.277650 0.000000 1.921550 
# 
# From -- ./inp_files/305825.got.cif
#   From: 2010.05.17/outbox.cif.g08.bks.cpg/sg15_153_cif.got.tgz:305825.got - 2010.06.03 18:47:42.
