data_PCOD9295657
_publ_section_title
;
Structure prediction by ZEFSAII (Michael W. Deem and Ramdas Pophale) SiO2 
 PCOD9295657
Probable space group: C 2/C
;
_chemical_formula_sum "Si O2"
_cell_formula_units_Z 32
_cell_length_a 12.619692
_cell_length_b 10.328630
_cell_length_c 11.272763
_cell_angle_alpha 90.000000
_cell_angle_beta 106.159231
_cell_angle_gamma 90.000000
_cell_volume 1411.287795
_symmetry_space_group_name_H-M "C 2/C"
_symmetry_group_IT_number 15
_symmetry_cell_setting 'monoclinic'
loop_
_space_group_symop_operation_xyz
x,y,z
-x,y,1/2-z
-x,-y,-z
x,-y,1/2+z
1/2+x,1/2+y,z
1/2-x,1/2+y,1/2-z
1/2-x,1/2-y,-z
1/2+x,1/2-y,1/2+z
loop_
_atom_site_type_symbol
_atom_site_label
_atom_site_fract_x
_atom_site_fract_y
_atom_site_fract_z
Si Si1 0.939914 0.047329 0.359751
Si Si2 0.586516 0.834150 0.109549
Si Si3 0.768825 0.160696 0.838136
Si Si4 0.337972 0.906502 0.967629
O O1 0.890046 0.182485 0.391283
O O2 0.000000 0.074134 0.250000
O O3 0.853687 0.934144 0.302005
O O4 0.000000 0.000000 0.500000
O O5 0.646159 0.863843 0.252190
O O6 0.456866 0.854376 0.049481
O O7 0.644715 0.941586 0.046093
O O8 0.760968 0.117653 0.972219
O O9 0.807430 0.310178 0.849381
#
# Coordination Sequence:
#
# PCOD9295657 Si02
#       4
#     8   8   8   8
#     4  12  27  48  70 101 142 188 234 292 352 418
#     4  11  23  43  70  98 140 181 229 286 351 419
#     4  11  23  43  72  97 140 182 230 285 357 410
#     4  10  23  43  67 105 132 178 233 285 347 420
#
# _framework density 22.674327000000002
#
# number of rings (size 3 to 8) (size 9 to 14) (size 15 to 20)
#    0.000    1.000    2.500    3.750    7.000    1.000 
#    4.500    1.250    0.000    0.000    0.000    0.000 
#    0.000    0.000    0.000    0.000    0.000    0.000 
#
# Total GULP energy -89082.492916 kJ/mol
# GULP energy per Si atom -5567.655807 kJ/mol
# Density = 2.262272 g / cm^3
# Si number density = 22.674327 Si / 1000 Ang^3
#
#
#
# Elastic Constant Matrix: (Units=GPa)
#
#
# Indices 1 2 3 4 5 6 
#
# 1 51.2077 23.1448 20.6179 0.0000 9.9967 0.0000
# 2 23.1448 128.3603 17.7531 0.0000 -5.4701 0.0000
# 3 20.6179 17.7531 76.6483 0.0000 27.1930 0.0000
# 4 0.0000 0.0000 0.0000 20.2416 0.0000 9.9895
# 5 9.9967 -5.4701 27.1930 0.0000 28.4523 0.0000
# 6 0.0000 0.0000 0.0000 9.9895 0.0000 22.1380
#
#
#
# Elastic Compliance Matrix: (Units=1/GPa)
#
#
# Indices 1 2 3 4 5 6 
#
# 1 0.023900 -0.004099 -0.003360 0.000000 -0.005974 0.000000
# 2 -0.004099 0.009259 -0.003305 0.000000 0.006379 0.000000
# 3 -0.003360 -0.003305 0.021973 0.000000 -0.020455 0.000000
# 4 0.000000 0.000000 0.000000 0.063557 0.000000 -0.028679
# 5 -0.005974 0.006379 -0.020455 0.000000 0.058022 0.000000
# 6 0.000000 0.000000 0.000000 -0.028679 0.000000 0.058113
#
#
# Mechanical properties :
#
#
# Convention : Reuss Voigt Hill
#
# Bulk Modulus (GPa) = 29.75897 42.13866 35.94882
# Shear Modulus (GPa) = 18.68789 27.14639 22.91714
#
# Velocity S-wave (km/s) = 2.87398 3.46386 3.18261
# Velocity P-wave (km/s) = 4.91590 5.88408 5.42164
#
# Compressibility (1/GPa) = 0.03360331
#
# Stress axis : x y z
#
# Youngs Moduli (GPa) = 41.84050 108.00701 45.51053
#
# Poissons Ratio (x) = 0.44276 0.15292
# Poissons Ratio (y) = 0.17152 0.15041
# Poissons Ratio (z) = 0.14059 0.35695
#
# Static dielectric constant tensor:
#      x y z
#    x 1.839960 0.000000 0.023290 
#    y 0.000000 1.865130 0.000000 
#    z 0.023290 0.000000 1.937530 
# 
# From -- ./inp_files/93402.got.cif
#   From: 2010.05.17/outbox.cif.g08.bks.cpg/sg15_47_cif.got.tgz:93402.got - 2010.06.03 18:47:42.
