data_PCOD9295067
_publ_section_title
;
Structure prediction by ZEFSAII (Michael W. Deem and Ramdas Pophale) SiO2 
 PCOD9295067
Probable space group: C 2/C
;
_chemical_formula_sum "Si O2"
_cell_formula_units_Z 56
_cell_length_a 19.550107
_cell_length_b 15.982454
_cell_length_c 8.994355
_cell_angle_alpha 90.000000
_cell_angle_beta 106.155323
_cell_angle_gamma 90.000000
_cell_volume 2699.385697
_symmetry_space_group_name_H-M "C 2/C"
_symmetry_group_IT_number 15
_symmetry_cell_setting 'monoclinic'
loop_
_space_group_symop_operation_xyz
x,y,z
-x,y,1/2-z
-x,-y,-z
x,-y,1/2+z
1/2+x,1/2+y,z
1/2-x,1/2+y,1/2-z
1/2-x,1/2-y,-z
1/2+x,1/2-y,1/2+z
loop_
_atom_site_type_symbol
_atom_site_label
_atom_site_fract_x
_atom_site_fract_y
_atom_site_fract_z
Si Si1 0.789389 0.776658 0.174465
Si Si2 0.666957 0.171004 0.794660
Si Si3 0.800135 0.954750 0.060658
Si Si4 0.891105 0.667012 0.410489
Si Si5 0.957504 0.933084 0.070287
Si Si6 0.799918 0.478330 0.766259
Si Si7 0.528687 0.260120 0.600122
O O1 0.733977 0.776900 0.276725
O O2 0.811993 0.872098 0.164874
O O3 0.855974 0.721650 0.259597
O O4 0.750000 0.750000 0.000000
O O5 0.599808 0.206752 0.664794
O O6 0.680671 0.073785 0.762471
O O7 0.649139 0.180468 0.956707
O O8 0.878308 0.971607 0.045619
O O9 0.759197 0.021131 0.138555
O O10 0.742550 0.938107 0.896735
O O11 0.870417 0.572347 0.353724
O O12 0.970113 0.700533 0.486778
O O13 0.000000 0.921768 0.250000
O O14 0.955911 0.844459 0.982606
O O15 0.000000 0.000000 0.000000
O O16 0.500000 0.281333 0.750000
#
# Coordination Sequence:
#
# PCOD9295067 Si02
#       7
#     8   8   8   8   8   8   8
#     4  11  21  37  63  92 124 167 217 271 324 376
#     4  10  23  42  63  94 130 171 217 269 327 393
#     4  11  23  40  64  94 130 167 219 271 324 389
#     4  11  22  41  64  94 130 171 220 267 329 394
#     4  12  25  45  66  96 133 174 218 269 332 396
#     4  11  22  40  66  96 127 171 220 270 328 380
#     4  10  24  44  66  93 133 176 217 267 331 396
#
# _framework density 20.745460000000001
#
# number of rings (size 3 to 8) (size 9 to 14) (size 15 to 20)
#    0.000    1.143    2.857    3.429    0.000    1.714 
#    2.571    0.000    0.000    0.000    0.000    0.000 
#    0.000    0.000    0.000    0.000    0.000    0.000 
#
# Total GULP energy -156414.861331 kJ/mol
# GULP energy per Si atom -5586.245048 kJ/mol
# Density = 2.069824 g / cm^3
# Si number density = 20.745460 Si / 1000 Ang^3
#
#
#
# Elastic Constant Matrix: (Units=GPa)
#
#
# Indices 1 2 3 4 5 6 
#
# 1 76.8544 28.2931 16.0822 0.0000 9.3890 0.0000
# 2 28.2931 85.6695 28.5302 0.0000 13.5564 0.0000
# 3 16.0822 28.5302 95.8069 0.0000 19.6598 0.0000
# 4 0.0000 0.0000 0.0000 23.1303 0.0000 8.3468
# 5 9.3890 13.5564 19.6598 0.0000 28.3856 0.0000
# 6 0.0000 0.0000 0.0000 8.3468 0.0000 17.9549
#
#
#
# Elastic Compliance Matrix: (Units=1/GPa)
#
#
# Indices 1 2 3 4 5 6 
#
# 1 0.015060 -0.004348 -0.000743 0.000000 -0.002390 0.000000
# 2 -0.004348 0.014636 -0.002902 0.000000 -0.003542 0.000000
# 3 -0.000743 -0.002902 0.012929 0.000000 -0.007323 0.000000
# 4 0.000000 0.000000 0.000000 0.051948 0.000000 -0.024149
# 5 -0.002390 -0.003542 -0.007323 0.000000 0.042783 0.000000
# 6 0.000000 0.000000 0.000000 -0.024149 0.000000 0.066922
#
#
# Mechanical properties :
#
#
# Convention : Reuss Voigt Hill
#
# Bulk Modulus (GPa) = 37.53784 44.90466 41.22125
# Shear Modulus (GPa) = 21.82053 26.25585 24.03819
#
# Velocity S-wave (km/s) = 3.24670 3.56141 3.40769
# Velocity P-wave (km/s) = 5.67349 6.21322 5.94948
#
# Compressibility (1/GPa) = 0.02663978
#
# Stress axis : x y z
#
# Youngs Moduli (GPa) = 66.40234 68.32697 77.34455
#
# Poissons Ratio (x) = 0.29709 0.05744
# Poissons Ratio (y) = 0.28872 0.22443
# Poissons Ratio (z) = 0.04931 0.19826
#
# Static dielectric constant tensor:
#      x y z
#    x 1.752880 0.000000 -0.028250 
#    y 0.000000 1.743090 0.000000 
#    z -0.028250 0.000000 1.752290 
# 
# From -- ./inp_files/49148.got.cif
#   From: 2010.05.17/outbox.cif.g08.bks.cpg/sg15_25_cif.got.tgz:49148.got - 2010.06.03 18:47:42.
