data_PCOD9295005
_publ_section_title
;
Structure prediction by ZEFSAII (Michael W. Deem and Ramdas Pophale) SiO2 
 PCOD9295005
Probable space group: C 2/C
;
_chemical_formula_sum "Si O2"
_cell_formula_units_Z 56
_cell_length_a 15.457102
_cell_length_b 18.253974
_cell_length_c 11.840137
_cell_angle_alpha 90.000000
_cell_angle_beta 61.608791
_cell_angle_gamma 90.000000
_cell_volume 2938.917893
_symmetry_space_group_name_H-M "C 2/C"
_symmetry_group_IT_number 15
_symmetry_cell_setting 'monoclinic'
loop_
_space_group_symop_operation_xyz
x,y,z
-x,y,1/2-z
-x,-y,-z
x,-y,1/2+z
1/2+x,1/2+y,z
1/2-x,1/2+y,1/2-z
1/2-x,1/2-y,-z
1/2+x,1/2-y,1/2+z
loop_
_atom_site_type_symbol
_atom_site_label
_atom_site_fract_x
_atom_site_fract_y
_atom_site_fract_z
Si Si1 0.775374 0.083897 0.459720
Si Si2 0.339888 0.731251 0.358459
Si Si3 0.561119 0.685475 0.595324
Si Si4 0.555028 0.854041 0.107552
Si Si5 0.699433 0.422060 0.136096
Si Si6 0.430650 0.570654 0.565499
Si Si7 0.372142 0.814627 0.101203
O O1 0.832500 0.144196 0.347503
O O2 0.662406 0.111056 0.534634
O O3 0.843454 0.082125 0.529361
O O4 0.768700 0.000862 0.425572
O O5 0.250000 0.750000 0.500000
O O6 0.427229 0.767704 0.376079
O O7 0.341008 0.773488 0.237958
O O8 0.500000 0.701265 0.750000
O O9 0.642944 0.625985 0.578399
O O10 0.492950 0.644965 0.545134
O O11 0.610472 0.756085 0.508629
O O12 0.500000 0.886976 0.250000
O O13 0.476726 0.855065 0.056444
O O14 0.621342 0.438905 0.282232
O O15 0.788454 0.372942 0.125690
O O16 0.500000 0.500000 0.500000
#
# Coordination Sequence:
#
# PCOD9295005 Si02
#       7
#     8   8   8   8   8   8   8
#     4  11  22  37  63  91 119 155 207 253 310 378
#     4   9  19  36  60  91 118 154 206 257 301 364
#     4  10  23  42  60  88 122 169 214 256 306 379
#     4   9  19  38  59  89 121 157 203 258 306 362
#     4  11  24  40  59  92 126 159 207 262 306 377
#     4  11  22  40  62  87 126 157 199 262 325 356
#     4  11  22  40  63  86 129 172 200 253 318 366
#
# _framework density 19.054632000000002
#
# number of rings (size 3 to 8) (size 9 to 14) (size 15 to 20)
#    0.000    1.714    1.429    3.857    2.000    4.000 
#    0.000    2.143    0.000    0.000    0.000    0.000 
#    0.000    0.000    0.000    0.000    0.000    0.000 
#
# Total GULP energy -155992.969844 kJ/mol
# GULP energy per Si atom -5571.177494 kJ/mol
# Density = 1.901126 g / cm^3
# Si number density = 19.054632 Si / 1000 Ang^3
#
#
#
# Elastic Constant Matrix: (Units=GPa)
#
#
# Indices 1 2 3 4 5 6 
#
# 1 104.9828 58.2830 38.3307 0.0000 -11.8869 0.0000
# 2 58.2830 114.3767 44.7217 0.0000 3.0023 0.0000
# 3 38.3307 44.7217 54.6188 0.0000 -3.3554 0.0000
# 4 0.0000 0.0000 0.0000 28.4398 0.0000 -9.5052
# 5 -11.8869 3.0023 -3.3554 0.0000 26.1120 0.0000
# 6 0.0000 0.0000 0.0000 -9.5052 0.0000 23.4105
#
#
#
# Elastic Compliance Matrix: (Units=1/GPa)
#
#
# Indices 1 2 3 4 5 6 
#
# 1 0.015731 -0.005967 -0.005717 0.000000 0.007113 0.000000
# 2 -0.005967 0.015339 -0.008715 0.000000 -0.005600 0.000000
# 3 -0.005717 -0.008715 0.029592 0.000000 0.002202 0.000000
# 4 0.000000 0.000000 0.000000 0.040683 0.000000 0.016518
# 5 0.007113 -0.005600 0.002202 0.000000 0.042461 0.000000
# 6 0.000000 0.000000 0.000000 0.016518 0.000000 0.049423
#
#
# Mechanical properties :
#
#
# Convention : Reuss Voigt Hill
#
# Bulk Modulus (GPa) = 50.34591 61.84988 56.09789
# Shear Modulus (GPa) = 20.77726 24.43532 22.60629
#
# Velocity S-wave (km/s) = 3.30571 3.58492 3.44814
# Velocity P-wave (km/s) = 6.40699 7.04736 6.73479
#
# Compressibility (1/GPa) = 0.01986259
#
# Stress axis : x y z
#
# Youngs Moduli (GPa) = 63.56921 65.19485 33.79299
#
# Poissons Ratio (x) = 0.38905 0.19318
# Poissons Ratio (y) = 0.37935 0.29452
# Poissons Ratio (z) = 0.36340 0.56820
#
# Static dielectric constant tensor:
#      x y z
#    x 1.724870 0.000000 -0.043570 
#    y 0.000000 1.703100 0.000000 
#    z -0.043570 0.000000 1.716950 
# 
# From -- ./inp_files/98670.got.cif
#   From: 2010.05.17/outbox.cif.g08.bks.cpg/sg15_50_cif.got.tgz:98670.got - 2010.06.03 18:47:42.
