data_PCOD9295152
_publ_section_title
;
Structure prediction by ZEFSAII (Michael W. Deem and Ramdas Pophale) SiO2 
 PCOD9295152
Probable space group: C 2/C
;
_chemical_formula_sum "Si O2"
_cell_formula_units_Z 52
_cell_length_a 5.507503
_cell_length_b 15.206108
_cell_length_c 24.326695
_cell_angle_alpha 90.000000
_cell_angle_beta 99.945551
_cell_angle_gamma 90.000000
_cell_volume 2006.688459
_symmetry_space_group_name_H-M "C 2/C"
_symmetry_group_IT_number 15
_symmetry_cell_setting 'monoclinic'
loop_
_space_group_symop_operation_xyz
x,y,z
-x,y,1/2-z
-x,-y,-z
x,-y,1/2+z
1/2+x,1/2+y,z
1/2-x,1/2+y,1/2-z
1/2-x,1/2-y,-z
1/2+x,1/2-y,1/2+z
loop_
_atom_site_type_symbol
_atom_site_label
_atom_site_fract_x
_atom_site_fract_y
_atom_site_fract_z
Si Si1 0.656853 0.313038 0.411772
Si Si2 0.852657 0.110222 0.795804
Si Si3 0.149510 0.674017 0.035767
Si Si4 0.500000 0.259825 0.750000
Si Si5 0.345694 0.981878 0.627591
Si Si6 0.212870 0.003293 0.940852
Si Si7 0.071120 0.818277 0.636758
O O1 0.486956 0.349293 0.355517
O O2 0.568477 0.228162 0.442832
O O3 0.714212 0.392088 0.455770
O O4 0.886523 0.278841 0.385657
O O5 0.727065 0.193289 0.762120
O O6 0.000000 0.068245 0.750000
O O7 0.672719 0.040583 0.818320
O O8 0.179205 0.573016 0.014666
O O9 0.339780 0.653652 0.092446
O O10 0.250000 0.750000 0.000000
O O11 0.502670 0.317055 0.696599
O O12 0.591685 0.001327 0.602907
O O13 0.310658 0.879450 0.641052
O O14 0.082669 0.994408 0.584406
#
# Coordination Sequence:
#
# PCOD9295152 Si02
#       7
#     8   8   8   4   8   8   8
#     4  11  22  43  70  95 142 182 232 297 366 426
#     4  11  23  38  63  99 133 183 226 287 349 431
#     4  11  25  46  70 101 139 186 244 300 361 435
#     4  12  22  38  66  98 134 180 234 282 360 436
#     4  10  23  42  65  96 140 177 228 283 351 421
#     4  10  23  44  69  99 138 179 227 294 352 425
#     4  11  23  42  69  98 138 186 233 295 358 435
#
# _framework density 25.913338
#
# number of rings (size 3 to 8) (size 9 to 14) (size 15 to 20)
#    0.000    1.231    4.615    0.923    5.385    1.231 
#    0.000    2.308    0.000    0.000    0.000    0.000 
#    0.000    0.000    0.000    0.000    0.000    0.000 
#
# Total GULP energy -144956.013215 kJ/mol
# GULP energy per Si atom -5575.231278 kJ/mol
# Density = 2.585436 g / cm^3
# Si number density = 25.913338 Si / 1000 Ang^3
#
#
#
# Elastic Constant Matrix: (Units=GPa)
#
#
# Indices 1 2 3 4 5 6 
#
# 1 65.9398 -8.0299 29.4524 0.0000 -18.4738 0.0000
# 2 -8.0299 90.6776 13.4931 0.0000 -18.3829 0.0000
# 3 29.4524 13.4931 115.9823 0.0000 -16.7345 0.0000
# 4 0.0000 0.0000 0.0000 13.9764 0.0000 -14.4229
# 5 -18.4738 -18.3829 -16.7345 0.0000 56.6755 0.0000
# 6 0.0000 0.0000 0.0000 -14.4229 0.0000 42.0025
#
#
#
# Elastic Compliance Matrix: (Units=1/GPa)
#
#
# Indices 1 2 3 4 5 6 
#
# 1 0.019313 0.003619 -0.004437 0.000000 0.006159 0.000000
# 2 0.003619 0.012565 -0.001695 0.000000 0.004755 0.000000
# 3 -0.004437 -0.001695 0.010088 0.000000 0.000983 0.000000
# 4 0.000000 0.000000 0.000000 0.110818 0.000000 0.038053
# 5 0.006159 0.004755 0.000983 0.000000 0.021484 0.000000
# 6 0.000000 0.000000 0.000000 0.038053 0.000000 0.036875
#
#
# Mechanical properties :
#
#
# Convention : Reuss Voigt Hill
#
# Bulk Modulus (GPa) = 27.07036 38.04790 32.55913
# Shear Modulus (GPa) = 21.88366 38.37648 30.13007
#
# Velocity S-wave (km/s) = 2.90917 3.85249 3.41357
# Velocity P-wave (km/s) = 4.66407 5.87397 5.30364
#
# Compressibility (1/GPa) = 0.03694078
#
# Stress axis : x y z
#
# Youngs Moduli (GPa) = 51.77771 79.58838 99.13138
#
# Poissons Ratio (x) = -0.28804 0.43982
# Poissons Ratio (y) = -0.18739 0.16800
# Poissons Ratio (z) = 0.22973 0.13488
#
# Static dielectric constant tensor:
#      x y z
#    x 2.160860 0.000000 0.077560 
#    y 0.000000 2.382930 0.000000 
#    z 0.077560 0.000000 2.132290 
# 
# From -- ./inp_files/285867.got.cif
#   From: 2010.05.17/outbox.cif.g08.bks.cpg/sg15_143_cif.got.tgz:285867.got - 2010.06.03 18:47:42.
