data_PCOD9296322
_publ_section_title
;
Structure prediction by ZEFSAII (Michael W. Deem and Ramdas Pophale) SiO2 
 PCOD9296322
Probable space group: C 2/C
;
_chemical_formula_sum "Si O2"
_cell_formula_units_Z 48
_cell_length_a 11.967181
_cell_length_b 13.412552
_cell_length_c 15.585777
_cell_angle_alpha 90.000000
_cell_angle_beta 54.835346
_cell_angle_gamma 90.000000
_cell_volume 2045.124172
_symmetry_space_group_name_H-M "C 2/C"
_symmetry_group_IT_number 15
_symmetry_cell_setting 'monoclinic'
loop_
_space_group_symop_operation_xyz
x,y,z
-x,y,1/2-z
-x,-y,-z
x,-y,1/2+z
1/2+x,1/2+y,z
1/2-x,1/2+y,1/2-z
1/2-x,1/2-y,-z
1/2+x,1/2-y,1/2+z
loop_
_atom_site_type_symbol
_atom_site_label
_atom_site_fract_x
_atom_site_fract_y
_atom_site_fract_z
Si Si1 0.768536 0.536115 0.000213
Si Si2 0.460789 0.494558 0.182174
Si Si3 0.500000 0.680259 0.250000
Si Si4 0.687753 0.038745 0.711728
Si Si5 0.878948 0.687977 0.472670
Si Si6 0.484997 0.823396 0.412878
Si Si7 0.000000 0.356035 0.750000
O O1 0.804088 0.575194 0.889204
O O2 0.837063 0.429641 0.992761
O O3 0.854441 0.620153 0.011848
O O4 0.605863 0.520335 0.075502
O O5 0.500000 0.432705 0.250000
O O6 0.400794 0.598158 0.249770
O O7 0.340341 0.453936 0.179505
O O8 0.453014 0.744267 0.351891
O O9 0.625581 0.929321 0.720735
O O10 0.586760 0.097961 0.819660
O O11 0.750000 0.750000 0.500000
O O12 0.935088 0.719874 0.540206
O O13 0.977282 0.701756 0.347852
#
# Coordination Sequence:
#
# PCOD9296322 Si02
#       7
#     8   8   4   8   8   8   4
#     4  11  22  45  69 101 133 191 233 277 360 418
#     4  10  25  40  64  97 145 179 222 288 359 397
#     4  10  25  44  63 106 138 176 236 285 340 413
#     4  11  20  44  73  98 135 184 233 282 340 436
#     4  11  26  43  70 104 138 176 238 290 344 411
#     4  12  22  46  74 102 136 185 240 281 340 434
#     4  10  23  44  71  96 130 182 232 275 354 411
#
# _framework density 23.470458000000001
#
# number of rings (size 3 to 8) (size 9 to 14) (size 15 to 20)
#    0.500    0.667    5.000    2.000    7.000    0.667 
#    4.500    0.000    0.000    0.000    0.000    0.000 
#    0.000    0.000    0.000    0.000    0.000    0.000 
#
# Total GULP energy -133750.289625 kJ/mol
# GULP energy per Si atom -5572.928734 kJ/mol
# Density = 2.341704 g / cm^3
# Si number density = 23.470458 Si / 1000 Ang^3
#
#
#
# Elastic Constant Matrix: (Units=GPa)
#
#
# Indices 1 2 3 4 5 6 
#
# 1 97.4628 -5.2459 15.3858 0.0000 -3.0414 0.0000
# 2 -5.2459 36.2956 -14.8133 0.0000 11.5588 0.0000
# 3 15.3858 -14.8133 102.7193 0.0000 2.4919 0.0000
# 4 0.0000 0.0000 0.0000 24.7965 0.0000 19.9951
# 5 -3.0414 11.5588 2.4919 0.0000 41.2756 0.0000
# 6 0.0000 0.0000 0.0000 19.9951 0.0000 65.9541
#
#
#
# Elastic Compliance Matrix: (Units=1/GPa)
#
#
# Indices 1 2 3 4 5 6 
#
# 1 0.010555 0.000701 -0.001496 0.000000 0.000672 0.000000
# 2 0.000701 0.032606 0.004825 0.000000 -0.009371 0.000000
# 3 -0.001496 0.004825 0.010706 0.000000 -0.002108 0.000000
# 4 0.000000 0.000000 0.000000 0.053377 0.000000 -0.016182
# 5 0.000672 -0.009371 -0.002108 0.000000 0.027028 0.000000
# 6 0.000000 0.000000 0.000000 -0.016182 0.000000 0.020068
#
#
# Mechanical properties :
#
#
# Convention : Reuss Voigt Hill
#
# Bulk Modulus (GPa) = 16.14828 25.23677 20.69253
# Shear Modulus (GPa) = 29.95372 42.48198 36.21785
#
# Velocity S-wave (km/s) = 3.57631 4.25905 3.93252
# Velocity P-wave (km/s) = 4.89373 5.91286 5.42727
#
# Compressibility (1/GPa) = 0.06192608
#
# Stress axis : x y z
#
# Youngs Moduli (GPa) = 94.73985 30.66911 93.40332
#
# Poissons Ratio (x) = -0.02150 0.13975
# Poissons Ratio (y) = -0.06641 -0.45062
# Poissons Ratio (z) = 0.14175 -0.14796
#
# Static dielectric constant tensor:
#      x y z
#    x -0.099360 0.000000 0.897590 
#    y 0.000000 1.949840 0.000000 
#    z 0.897590 0.000000 1.578220 
# 
# From -- ./inp_files/144108.got.cif
#   From: 2010.05.17/outbox.cif.g08.bks.cpg/sg15_73_cif.got.tgz:144108.got - 2010.06.03 18:47:42.
