data_PCOD9296722
_publ_section_title
;
Structure prediction by ZEFSAII (Michael W. Deem and Ramdas Pophale) SiO2 
 PCOD9296722
Probable space group: C 2/C
;
_chemical_formula_sum "Si O2"
_cell_formula_units_Z 36
_cell_length_a 19.017180
_cell_length_b 6.314536
_cell_length_c 20.328705
_cell_angle_alpha 90.000000
_cell_angle_beta 33.234702
_cell_angle_gamma 90.000000
_cell_volume 1337.929540
_symmetry_space_group_name_H-M "C 2/C"
_symmetry_group_IT_number 15
_symmetry_cell_setting 'monoclinic'
loop_
_space_group_symop_operation_xyz
x,y,z
-x,y,1/2-z
-x,-y,-z
x,-y,1/2+z
1/2+x,1/2+y,z
1/2-x,1/2+y,1/2-z
1/2-x,1/2-y,-z
1/2+x,1/2-y,1/2+z
loop_
_atom_site_type_symbol
_atom_site_label
_atom_site_fract_x
_atom_site_fract_y
_atom_site_fract_z
Si Si1 0.390054 0.326118 0.166106
Si Si2 0.541090 0.949873 0.098976
Si Si3 0.278759 0.676765 0.896332
Si Si4 0.500000 0.640743 0.250000
Si Si5 0.161858 0.070298 0.936280
O O1 0.308299 0.376065 0.295168
O O2 0.316514 0.394546 0.158060
O O3 0.440107 0.083584 0.135388
O O4 0.524365 0.453790 0.054543
O O5 0.490383 0.796996 0.195255
O O6 0.634743 0.801123 0.984240
O O7 0.645852 0.124219 0.038145
O O8 0.382661 0.522802 0.847700
O O9 0.265387 0.930800 0.894378
#
# Coordination Sequence:
#
# PCOD9296722 Si02
#       5
#     8   8   8   4   8
#     4  10  23  46  72 107 147 190 248 323 379 437
#     4  11  25  47  72 110 146 203 257 307 372 444
#     4  11  26  45  73 112 147 202 248 305 379 451
#     4  12  26  50  72 108 166 202 250 302 366 456
#     4  10  23  45  74 107 145 194 253 314 383 438
#
# _framework density 26.907246000000001
#
# number of rings (size 3 to 8) (size 9 to 14) (size 15 to 20)
#    0.000    1.333    2.222    1.333    6.222    1.778 
#    0.000    0.000    0.000    0.000    0.000    0.000 
#    0.000    0.000    0.000    0.000    0.000    0.000 
#
# Total GULP energy -100508.003146 kJ/mol
# GULP energy per Si atom -5583.777953 kJ/mol
# Density = 2.684600 g / cm^3
# Si number density = 26.907246 Si / 1000 Ang^3
#
#
#
# Elastic Constant Matrix: (Units=GPa)
#
#
# Indices 1 2 3 4 5 6 
#
# 1 90.1652 73.7288 35.9644 -0.0010 4.7685 -0.0006
# 2 73.7288 197.5053 65.6311 -0.0042 -3.4853 0.0004
# 3 35.9644 65.6311 119.2784 -0.0013 15.4978 0.0008
# 4 -0.0010 -0.0042 -0.0013 47.2922 0.0008 7.6256
# 5 4.7685 -3.4853 15.4978 0.0008 54.9670 0.0007
# 6 -0.0006 0.0004 0.0008 7.6256 0.0007 42.4280
#
#
#
# Elastic Compliance Matrix: (Units=1/GPa)
#
#
# Indices 1 2 3 4 5 6 
#
# 1 0.016402 -0.005578 -0.001708 0.000000 -0.001295 0.000000
# 2 -0.005578 0.008200 -0.003073 0.000001 0.001870 0.000000
# 3 -0.001708 -0.003073 0.010998 0.000000 -0.003148 0.000000
# 4 0.000000 0.000001 0.000000 0.021776 0.000000 -0.003914
# 5 -0.001295 0.001870 -0.003148 0.000000 0.019311 0.000000
# 6 0.000000 0.000000 0.000000 -0.003914 0.000000 0.024273
#
#
# Mechanical properties :
#
#
# Convention : Reuss Voigt Hill
#
# Bulk Modulus (GPa) = 67.19433 84.17750 75.68591
# Shear Modulus (GPa) = 39.48261 44.37908 41.93085
#
# Velocity S-wave (km/s) = 3.83477 4.06561 3.95187
# Velocity P-wave (km/s) = 6.68087 7.30692 7.00090
#
# Compressibility (1/GPa) = 0.01488221
#
# Stress axis : x y z
#
# Youngs Moduli (GPa) = 60.96923 121.95791 90.92213
#
# Poissons Ratio (x) = 0.68029 0.15528
# Poissons Ratio (y) = 0.34009 0.27938
# Poissons Ratio (z) = 0.10413 0.37475
#
# Static dielectric constant tensor:
#      x y z
#    x 2.183270 0.000000 -0.006300 
#    y 0.000000 2.204330 0.000000 
#    z -0.006300 0.000000 2.059480 
# 
# From -- ./inp_files/250970.got.cif
#   From: 2010.05.17/outbox.cif.g08.bks.cpg/sg15_126_cif.got.tgz:250970.got - 2010.06.03 18:47:42.
