data_PCOD9296720
_publ_section_title
;
Structure prediction by ZEFSAII (Michael W. Deem and Ramdas Pophale) SiO2 
 PCOD9296720
Probable space group: C 2/C
;
_chemical_formula_sum "Si O2"
_cell_formula_units_Z 36
_cell_length_a 13.749386
_cell_length_b 12.745802
_cell_length_c 17.826939
_cell_angle_alpha 90.000000
_cell_angle_beta 29.604144
_cell_angle_gamma 90.000000
_cell_volume 1543.328506
_symmetry_space_group_name_H-M "C 2/C"
_symmetry_group_IT_number 15
_symmetry_cell_setting 'monoclinic'
loop_
_space_group_symop_operation_xyz
x,y,z
-x,y,1/2-z
-x,-y,-z
x,-y,1/2+z
1/2+x,1/2+y,z
1/2-x,1/2+y,1/2-z
1/2-x,1/2-y,-z
1/2+x,1/2-y,1/2+z
loop_
_atom_site_type_symbol
_atom_site_label
_atom_site_fract_x
_atom_site_fract_y
_atom_site_fract_z
Si Si1 0.980546 0.511470 0.676343
Si Si2 0.058874 0.686603 0.049952
Si Si3 0.500000 0.295321 0.250000
Si Si4 0.078449 0.882252 0.460793
Si Si5 0.863935 0.143095 0.412423
O O1 0.938572 0.421382 0.643069
O O2 0.195066 0.556791 0.516639
O O3 0.000000 0.471683 0.750000
O O4 0.813581 0.601216 0.790670
O O5 0.040494 0.733811 0.145936
O O6 0.996260 0.782164 0.036912
O O7 0.285116 0.653933 0.880425
O O8 0.027209 0.867780 0.581947
O O9 0.000000 0.000000 0.500000
O O10 0.750000 0.250000 0.500000
O O11 0.000000 0.144388 0.250000
#
# Coordination Sequence:
#
# PCOD9296720 Si02
#       5
#     8   8   4   8   8
#     4  10  23  45  74 105 145 195 238 301 382 445
#     4  11  23  44  71 106 148 184 246 299 368 438
#     4  10  24  38  70 102 144 190 230 298 372 434
#     4  11  26  46  73 108 146 189 244 310 365 435
#     4  11  26  49  73 100 147 197 245 295 373 450
#
# _framework density 23.326205999999999
#
# number of rings (size 3 to 8) (size 9 to 14) (size 15 to 20)
#    0.000    1.333    1.111    3.333   10.889    7.111 
#    0.000    5.556    0.000    0.000    0.000    0.000 
#    0.000    0.000    0.000    0.000    0.000    0.000 
#
# Total GULP energy -100433.775988 kJ/mol
# GULP energy per Si atom -5579.654222 kJ/mol
# Density = 2.327311 g / cm^3
# Si number density = 23.326206 Si / 1000 Ang^3
#
#
#
# Elastic Constant Matrix: (Units=GPa)
#
#
# Indices 1 2 3 4 5 6 
#
# 1 117.8169 76.3848 65.0231 0.0001 19.1298 0.0000
# 2 76.3848 137.6616 59.3509 0.0016 18.4447 -0.0003
# 3 65.0231 59.3509 204.3252 0.0034 20.4093 -0.0009
# 4 0.0001 0.0016 0.0034 70.6393 -0.0006 -21.7709
# 5 19.1298 18.4447 20.4093 -0.0006 36.8291 0.0001
# 6 0.0000 -0.0003 -0.0009 -21.7709 0.0001 61.9975
#
#
#
# Elastic Compliance Matrix: (Units=1/GPa)
#
#
# Indices 1 2 3 4 5 6 
#
# 1 0.014631 -0.006684 -0.002424 0.000000 -0.002909 0.000000
# 2 -0.006684 0.011680 -0.001088 0.000000 -0.001775 0.000000
# 3 -0.002424 -0.001088 0.006142 0.000000 -0.001599 0.000000
# 4 0.000000 0.000000 0.000000 0.015874 0.000000 0.005574
# 5 -0.002909 -0.001775 -0.001599 0.000000 0.030438 0.000000
# 6 0.000000 0.000000 0.000000 0.005574 0.000000 0.018087
#
#
# Mechanical properties :
#
#
# Convention : Reuss Voigt Hill
#
# Bulk Modulus (GPa) = 82.91787 95.70237 89.31012
# Shear Modulus (GPa) = 41.23206 51.16283 46.19745
#
# Velocity S-wave (km/s) = 4.20888 4.68842 4.45510
# Velocity P-wave (km/s) = 7.69700 8.39197 8.05199
#
# Compressibility (1/GPa) = 0.01206013
#
# Stress axis : x y z
#
# Youngs Moduli (GPa) = 68.34737 85.61824 162.82648
#
# Poissons Ratio (x) = 0.57223 0.39472
# Poissons Ratio (y) = 0.45680 0.17723
# Poissons Ratio (z) = 0.16568 0.09319
#
# Static dielectric constant tensor:
#      x y z
#    x 1.855400 0.000000 -0.045180 
#    y 0.000000 1.971160 0.000000 
#    z -0.045180 0.000000 1.879620 
# 
# From -- ./inp_files/205253.got.cif
#   From: 2010.05.17/outbox.cif.g08.bks.cpg/sg15_103_cif.got.tgz:205253.got - 2010.06.03 18:47:42.
