data_PCOD9296996
_publ_section_title
;
Structure prediction by ZEFSAII (Michael W. Deem and Ramdas Pophale) SiO2 
 PCOD9296996
Probable space group: C 2/C
;
_chemical_formula_sum "Si O2"
_cell_formula_units_Z 40
_cell_length_a 21.223610
_cell_length_b 9.513742
_cell_length_c 9.744922
_cell_angle_alpha 90.000000
_cell_angle_beta 134.052340
_cell_angle_gamma 90.000000
_cell_volume 1414.163472
_symmetry_space_group_name_H-M "C 2/C"
_symmetry_group_IT_number 15
_symmetry_cell_setting 'monoclinic'
loop_
_space_group_symop_operation_xyz
x,y,z
-x,y,1/2-z
-x,-y,-z
x,-y,1/2+z
1/2+x,1/2+y,z
1/2-x,1/2+y,1/2-z
1/2-x,1/2-y,-z
1/2+x,1/2-y,1/2+z
loop_
_atom_site_type_symbol
_atom_site_label
_atom_site_fract_x
_atom_site_fract_y
_atom_site_fract_z
Si Si1 0.870327 0.511300 0.223287
Si Si2 0.991567 0.228219 0.906247
Si Si3 0.185025 0.268797 0.529092
Si Si4 0.579170 0.463818 0.770710
Si Si5 0.174047 0.677828 0.582712
O O1 0.948437 0.620788 0.374324
O O2 0.883315 0.386295 0.127681
O O3 0.837653 0.436238 0.311326
O O4 0.805414 0.603895 0.029753
O O5 0.910274 0.115236 0.781250
O O6 0.049292 0.149851 0.112933
O O7 0.074205 0.261167 0.927178
O O8 0.250000 0.250000 0.500000
O O9 0.142974 0.115411 0.469421
O O10 0.249242 0.214683 0.244268
O O11 0.500000 0.501263 0.750000
#
# Coordination Sequence:
#
# PCOD9296996 Si02
#       5
#     8   8   8   8   8
#     4  11  24  41  71 101 135 180 235 279 347 410
#     4  11  24  42  69 100 139 179 233 287 343 415
#     4  10  23  47  67  95 141 181 221 290 347 407
#     4  11  24  42  71  99 137 181 233 284 353 414
#     4  11  24  45  71 100 142 182 231 294 346 409
#
# _framework density 28.285273
#
# number of rings (size 3 to 8) (size 9 to 14) (size 15 to 20)
#    0.000    1.200    4.000    2.400    2.800    3.200 
#    3.600    5.000    0.000    0.000    0.000    0.000 
#    0.000    0.000    0.000    0.000    0.000    0.000 
#
# Total GULP energy -111515.186259 kJ/mol
# GULP energy per Si atom -5575.759313 kJ/mol
# Density = 2.822089 g / cm^3
# Si number density = 28.285273 Si / 1000 Ang^3
#
#
#
# Elastic Constant Matrix: (Units=GPa)
#
#
# Indices 1 2 3 4 5 6 
#
# 1 48.5247 25.5535 6.1124 0.0000 -2.2171 0.0000
# 2 25.5535 196.8486 76.3782 0.0000 28.2174 0.0000
# 3 6.1124 76.3782 85.3302 0.0000 20.0979 0.0000
# 4 0.0000 0.0000 0.0000 71.8995 0.0000 4.8330
# 5 -2.2171 28.2174 20.0979 0.0000 49.6752 0.0000
# 6 0.0000 0.0000 0.0000 4.8330 0.0000 5.6225
#
#
#
# Elastic Compliance Matrix: (Units=1/GPa)
#
#
# Indices 1 2 3 4 5 6 
#
# 1 0.022562 -0.003740 0.001099 0.000000 0.002687 0.000000
# 2 -0.003740 0.008547 -0.006852 0.000000 -0.002249 0.000000
# 3 0.001099 -0.006852 0.018620 0.000000 -0.003592 0.000000
# 4 0.000000 0.000000 0.000000 0.014761 0.000000 -0.012689
# 5 0.002687 -0.002249 -0.003592 0.000000 0.022982 0.000000
# 6 0.000000 0.000000 0.000000 -0.012689 0.000000 0.188765
#
#
# Mechanical properties :
#
#
# Convention : Reuss Voigt Hill
#
# Bulk Modulus (GPa) = 32.52970 60.75465 46.64218
# Shear Modulus (GPa) = 16.36812 40.28338 28.32575
#
# Velocity S-wave (km/s) = 2.40819 3.77793 3.16797
# Velocity P-wave (km/s) = 4.38840 6.36837 5.46874
#
# Compressibility (1/GPa) = 0.03074113
#
# Stress axis : x y z
#
# Youngs Moduli (GPa) = 44.32207 117.00246 53.70566
#
# Poissons Ratio (x) = 0.43764 -0.05902
# Poissons Ratio (y) = 0.16578 0.36801
# Poissons Ratio (z) = -0.04871 0.80175
#
# Static dielectric constant tensor:
#      x y z
#    x 2.291850 0.000000 -0.194070 
#    y 0.000000 2.200510 0.000000 
#    z -0.194070 0.000000 2.430690 
# 
# From -- ./inp_files/125731.got.cif
#   From: 2010.05.17/outbox.cif.g08.bks.cpg/sg15_63_cif.got.tgz:125731.got - 2010.06.03 18:47:42.
