data_PCOD9296161
_publ_section_title
;
Structure prediction by ZEFSAII (Michael W. Deem and Ramdas Pophale) SiO2 
 PCOD9296161
Probable space group: C 2/C
;
_chemical_formula_sum "Si O2"
_cell_formula_units_Z 40
_cell_length_a 28.337067
_cell_length_b 11.752735
_cell_length_c 11.983402
_cell_angle_alpha 90.000000
_cell_angle_beta 157.005436
_cell_angle_gamma 90.000000
_cell_volume 1559.031526
_symmetry_space_group_name_H-M "C 2/C"
_symmetry_group_IT_number 15
_symmetry_cell_setting 'monoclinic'
loop_
_space_group_symop_operation_xyz
x,y,z
-x,y,1/2-z
-x,-y,-z
x,-y,1/2+z
1/2+x,1/2+y,z
1/2-x,1/2+y,1/2-z
1/2-x,1/2-y,-z
1/2+x,1/2-y,1/2+z
loop_
_atom_site_type_symbol
_atom_site_label
_atom_site_fract_x
_atom_site_fract_y
_atom_site_fract_z
Si Si1 0.714463 0.694034 0.780661
Si Si2 0.147725 0.089391 0.849753
Si Si3 0.052662 0.534799 0.241188
Si Si4 0.661642 0.800955 0.462014
Si Si5 0.887877 0.859639 0.832505
O O1 0.626044 0.644525 0.680311
O O2 0.655401 0.697040 0.532428
O O3 0.750356 0.825100 0.884937
O O4 0.836675 0.620123 0.044979
O O5 0.023981 0.100788 0.648259
O O6 0.174936 0.959080 0.879097
O O7 0.097305 0.409540 0.369359
O O8 0.000000 0.576795 0.250000
O O9 0.000000 0.500000 0.000000
O O10 0.800970 0.836818 0.746020
O O11 0.611941 0.758124 0.235421
#
# Coordination Sequence:
#
# PCOD9296161 Si02
#       5
#     8   8   8   8   8
#     4  11  26  42  71 103 143 188 248 302 363 439
#     4  10  23  44  68  95 140 189 240 297 369 432
#     4  12  30  50  79 109 151 197 250 304 372 439
#     4  11  26  42  71 103 143 188 248 302 363 439
#     4  10  23  44  68  95 140 189 240 297 369 432
#
# _framework density 25.656952
#
# number of rings (size 3 to 8) (size 9 to 14) (size 15 to 20)
#    0.000    1.200    2.000    1.200   19.600    0.000 
#    0.000    4.000    0.000    0.000    0.000    0.000 
#    0.000    0.000    0.000    0.000    0.000    0.000 
#
# Total GULP energy -111616.110101 kJ/mol
# GULP energy per Si atom -5580.805505 kJ/mol
# Density = 2.559856 g / cm^3
# Si number density = 25.656952 Si / 1000 Ang^3
#
#
#
# Elastic Constant Matrix: (Units=GPa)
#
#
# Indices 1 2 3 4 5 6 
#
# 1 132.1642 -5.1263 28.6323 0.0000 5.8986 0.0000
# 2 -5.1263 94.2003 3.9436 0.0000 -4.3040 0.0000
# 3 28.6323 3.9436 46.5065 0.0000 -8.3106 0.0000
# 4 0.0000 0.0000 0.0000 28.8305 0.0000 4.9815
# 5 5.8986 -4.3040 -8.3106 0.0000 35.1031 0.0000
# 6 0.0000 0.0000 0.0000 4.9815 0.0000 44.6744
#
#
#
# Elastic Compliance Matrix: (Units=1/GPa)
#
#
# Indices 1 2 3 4 5 6 
#
# 1 0.009050 0.000617 -0.006142 0.000000 -0.002899 0.000000
# 2 0.000617 0.010740 -0.001121 0.000000 0.000948 0.000000
# 3 -0.006142 -0.001121 0.026667 0.000000 0.007208 0.000000
# 4 0.000000 0.000000 0.000000 0.035367 0.000000 -0.003944
# 5 -0.002899 0.000948 0.007208 0.000000 0.030797 0.000000
# 6 0.000000 0.000000 0.000000 -0.003944 0.000000 0.022824
#
#
# Mechanical properties :
#
#
# Convention : Reuss Voigt Hill
#
# Bulk Modulus (GPa) = 30.15319 36.41890 33.28604
# Shear Modulus (GPa) = 31.29047 38.08304 34.68675
#
# Velocity S-wave (km/s) = 3.49602 3.85686 3.68087
# Velocity P-wave (km/s) = 5.29851 5.83603 5.57375
#
# Compressibility (1/GPa) = 0.03316399
#
# Stress axis : x y z
#
# Youngs Moduli (GPa) = 110.49247 93.11417 37.49924
#
# Poissons Ratio (x) = -0.05747 0.23034
# Poissons Ratio (y) = -0.06819 0.04205
# Poissons Ratio (z) = 0.67869 0.10441
#
# Static dielectric constant tensor:
#      x y z
#    x 2.032350 0.000000 -0.102230 
#    y 0.000000 1.960020 0.000000 
#    z -0.102230 0.000000 2.186740 
# 
# From -- ./inp_files/122766.got.cif
#   From: 2010.05.17/outbox.cif.g08.bks.cpg/sg15_62_cif.got.tgz:122766.got - 2010.06.03 18:47:42.
