data_PCOD9296451
_publ_section_title
;
Structure prediction by ZEFSAII (Michael W. Deem and Ramdas Pophale) SiO2 
 PCOD9296451
Probable space group: C 2/C
;
_chemical_formula_sum "Si O2"
_cell_formula_units_Z 40
_cell_length_a 9.795690
_cell_length_b 11.770009
_cell_length_c 14.478192
_cell_angle_alpha 90.000000
_cell_angle_beta 68.805679
_cell_angle_gamma 90.000000
_cell_volume 1556.358439
_symmetry_space_group_name_H-M "C 2/C"
_symmetry_group_IT_number 15
_symmetry_cell_setting 'monoclinic'
loop_
_space_group_symop_operation_xyz
x,y,z
-x,y,1/2-z
-x,-y,-z
x,-y,1/2+z
1/2+x,1/2+y,z
1/2-x,1/2+y,1/2-z
1/2-x,1/2-y,-z
1/2+x,1/2-y,1/2+z
loop_
_atom_site_type_symbol
_atom_site_label
_atom_site_fract_x
_atom_site_fract_y
_atom_site_fract_z
Si Si1 0.277301 0.389934 0.235095
Si Si2 0.066119 0.604118 0.037261
Si Si3 0.000000 0.920423 0.750000
Si Si4 0.331881 0.465857 0.558430
Si Si5 0.500000 0.802268 0.750000
Si Si6 0.953091 0.756103 0.616457
O O1 0.365726 0.496665 0.257524
O O2 0.264296 0.428631 0.131415
O O3 0.381028 0.284186 0.235146
O O4 0.122536 0.349631 0.313830
O O5 0.241267 0.578117 0.992774
O O6 0.035477 0.619803 0.152690
O O7 0.007458 0.711512 0.994219
O O8 0.000000 0.500000 0.000000
O O9 0.054625 0.831417 0.657734
O O10 0.500000 0.500000 0.500000
O O11 0.335677 0.353811 0.620827
#
# Coordination Sequence:
#
# PCOD9296451 Si02
#       6
#     8   8   4   8   4   8
#     4  10  23  44  78 101 147 201 251 313 376 456
#     4  12  29  44  74 109 151 194 250 318 386 452
#     4   9  24  41  72 114 148 195 256 311 376 464
#     4  11  25  48  75 109 148 201 259 311 381 470
#     4  11  24  51  64 102 146 195 242 313 384 448
#     4  11  24  45  75 106 148 203 248 317 380 450
#
# _framework density 25.701018999999999
#
# number of rings (size 3 to 8) (size 9 to 14) (size 15 to 20)
#    0.000    1.200    2.000    1.800   14.000    0.000 
#    0.000    2.000    0.000    0.000    0.000    0.000 
#    0.000    0.000    0.000    0.000    0.000    0.000 
#
# Total GULP energy -111601.260861 kJ/mol
# GULP energy per Si atom -5580.063043 kJ/mol
# Density = 2.564252 g / cm^3
# Si number density = 25.701019 Si / 1000 Ang^3
#
#
#
# Elastic Constant Matrix: (Units=GPa)
#
#
# Indices 1 2 3 4 5 6 
#
# 1 37.5514 36.6481 3.2338 0.0000 13.4557 0.0000
# 2 36.6481 154.5073 62.9457 0.0000 8.6096 0.0000
# 3 3.2338 62.9457 124.2026 0.0000 6.9772 0.0000
# 4 0.0000 0.0000 0.0000 56.4074 0.0000 0.5013
# 5 13.4557 8.6096 6.9772 0.0000 25.2579 0.0000
# 6 0.0000 0.0000 0.0000 0.5013 0.0000 8.6949
#
#
#
# Elastic Compliance Matrix: (Units=1/GPa)
#
#
# Indices 1 2 3 4 5 6 
#
# 1 0.045874 -0.012188 0.006219 0.000000 -0.022002 0.000000
# 2 -0.012188 0.011464 -0.005727 0.000000 0.004167 0.000000
# 3 0.006219 -0.005727 0.011040 0.000000 -0.004410 0.000000
# 4 0.000000 0.000000 0.000000 0.017737 0.000000 -0.001023
# 5 -0.022002 0.004167 -0.004410 0.000000 0.051110 0.000000
# 6 0.000000 0.000000 0.000000 -0.001023 0.000000 0.115068
#
#
# Mechanical properties :
#
#
# Convention : Reuss Voigt Hill
#
# Bulk Modulus (GPa) = 22.23005 57.99072 40.11039
# Shear Modulus (GPa) = 17.20102 32.30097 24.75100
#
# Velocity S-wave (km/s) = 2.58984 3.54898 3.10665
# Velocity P-wave (km/s) = 4.19658 6.27744 5.33936
#
# Compressibility (1/GPa) = 0.04498415
#
# Stress axis : x y z
#
# Youngs Moduli (GPa) = 21.79907 87.22947 90.58379
#
# Poissons Ratio (x) = 1.06318 -0.56331
# Poissons Ratio (y) = 0.26570 0.51875
# Poissons Ratio (z) = -0.13556 0.49954
#
# Static dielectric constant tensor:
#      x y z
#    x 2.185580 0.000000 0.118550 
#    y 0.000000 2.009990 0.000000 
#    z 0.118550 0.000000 2.321530 
# 
# From -- ./inp_files/142159.got.cif
#   From: 2010.05.17/outbox.cif.g08.bks.cpg/sg15_72_cif.got.tgz:142159.got - 2010.06.03 18:47:42.
