data_PCOD9296165
_publ_section_title
;
Structure prediction by ZEFSAII (Michael W. Deem and Ramdas Pophale) SiO2 
 PCOD9296165
Probable space group: C 2/C
;
_chemical_formula_sum "Si O2"
_cell_formula_units_Z 48
_cell_length_a 25.027050
_cell_length_b 18.701667
_cell_length_c 8.719212
_cell_angle_alpha 90.000000
_cell_angle_beta 148.862613
_cell_angle_gamma 90.000000
_cell_volume 2110.255300
_symmetry_space_group_name_H-M "C 2/C"
_symmetry_group_IT_number 15
_symmetry_cell_setting 'monoclinic'
loop_
_space_group_symop_operation_xyz
x,y,z
-x,y,1/2-z
-x,-y,-z
x,-y,1/2+z
1/2+x,1/2+y,z
1/2-x,1/2+y,1/2-z
1/2-x,1/2-y,-z
1/2+x,1/2-y,1/2+z
loop_
_atom_site_type_symbol
_atom_site_label
_atom_site_fract_x
_atom_site_fract_y
_atom_site_fract_z
Si Si1 0.549936 0.722008 0.618507
Si Si2 0.000000 0.337481 0.250000
Si Si3 0.075892 0.093789 0.233146
Si Si4 0.354980 0.243347 0.856280
Si Si5 0.105637 0.539162 0.816806
Si Si6 0.805362 0.408591 0.276074
Si Si7 0.000000 0.031025 0.750000
O O1 0.558003 0.784626 0.512616
O O2 0.518804 0.646889 0.464622
O O3 0.447144 0.737614 0.467246
O O4 0.638324 0.714776 0.965167
O O5 0.925786 0.391872 0.159840
O O6 0.191903 0.118619 0.543167
O O7 0.064577 0.020816 0.298953
O O8 0.066683 0.077459 0.029446
O O9 0.250000 0.250000 0.500000
O O10 0.373714 0.162007 0.958181
O O11 0.177046 0.565900 0.854301
O O12 0.000000 0.500000 0.500000
O O13 0.162787 0.476720 0.048163
#
# Coordination Sequence:
#
# PCOD9296165 Si02
#       7
#     8   4   8   8   8   8   4
#     4  11  24  42  69  96 136 183 228 290 348 424
#     4  12  23  42  66 103 142 184 226 286 366 409
#     4  11  23  44  70  97 134 174 231 283 350 412
#     4  11  23  42  68  95 130 185 238 278 347 424
#     4  12  24  41  65  99 142 182 223 286 349 416
#     4  12  24  40  69 100 134 179 237 281 345 423
#     4  10  23  44  68  97 128 180 220 282 352 407
#
# _framework density 22.746062999999999
#
# number of rings (size 3 to 8) (size 9 to 14) (size 15 to 20)
#    0.000    0.667    5.000    3.500    2.333    0.000 
#    0.000    0.833    0.000    0.000    0.000    0.000 
#    0.000    0.000    0.000    0.000    0.000    0.000 
#
# Total GULP energy -134094.100177 kJ/mol
# GULP energy per Si atom -5587.254174 kJ/mol
# Density = 2.269429 g / cm^3
# Si number density = 22.746063 Si / 1000 Ang^3
#
#
#
# Elastic Constant Matrix: (Units=GPa)
#
#
# Indices 1 2 3 4 5 6 
#
# 1 43.0507 1.9578 21.0751 0.0000 -20.0145 0.0000
# 2 1.9578 105.5766 18.3276 0.0000 -12.7723 0.0000
# 3 21.0751 18.3276 109.4574 0.0000 -14.6765 0.0000
# 4 0.0000 0.0000 0.0000 24.0445 0.0000 -10.7058
# 5 -20.0145 -12.7723 -14.6765 0.0000 35.3769 0.0000
# 6 0.0000 0.0000 0.0000 -10.7058 0.0000 35.3829
#
#
#
# Elastic Compliance Matrix: (Units=1/GPa)
#
#
# Indices 1 2 3 4 5 6 
#
# 1 0.033700 0.002334 -0.004458 0.000000 0.018059 0.000000
# 2 0.002334 0.010230 -0.001578 0.000000 0.004359 0.000000
# 3 -0.004458 -0.001578 0.010424 0.000000 0.001233 0.000000
# 4 0.000000 0.000000 0.000000 0.048065 0.000000 0.014543
# 5 0.018059 0.004359 0.001233 0.000000 0.040569 0.000000
# 6 0.000000 0.000000 0.000000 0.014543 0.000000 0.032662
#
#
# Mechanical properties :
#
#
# Convention : Reuss Voigt Hill
#
# Bulk Modulus (GPa) = 21.29934 37.86729 29.58332
# Shear Modulus (GPa) = 25.16302 33.40916 29.28609
#
# Velocity S-wave (km/s) = 3.32965 3.83664 3.59210
# Velocity P-wave (km/s) = 4.91594 6.02581 5.49894
#
# Compressibility (1/GPa) = 0.04694980
#
# Stress axis : x y z
#
# Youngs Moduli (GPa) = 29.67324 97.75414 95.93445
#
# Poissons Ratio (x) = -0.22813 0.42768
# Poissons Ratio (y) = -0.06925 0.15136
# Poissons Ratio (z) = 0.13228 0.15423
#
# Static dielectric constant tensor:
#      x y z
#    x 1.859040 0.000000 -0.010960 
#    y 0.000000 1.858530 0.000000 
#    z -0.010960 0.000000 1.924210 
# 
# From -- ./inp_files/48422.got.cif
#   From: 2010.05.17/outbox.cif.g08.bks.cpg/sg15_25_cif.got.tgz:48422.got - 2010.06.03 18:47:42.
