data_PCOD9296350
_publ_section_title
;
Structure prediction by ZEFSAII (Michael W. Deem and Ramdas Pophale) SiO2 
 PCOD9296350
Probable space group: C 2/C
;
_chemical_formula_sum "Si O2"
_cell_formula_units_Z 44
_cell_length_a 26.336353
_cell_length_b 5.031922
_cell_length_c 13.587955
_cell_angle_alpha 90.000000
_cell_angle_beta 106.010785
_cell_angle_gamma 90.000000
_cell_volume 1730.859526
_symmetry_space_group_name_H-M "C 2/C"
_symmetry_group_IT_number 15
_symmetry_cell_setting 'monoclinic'
loop_
_space_group_symop_operation_xyz
x,y,z
-x,y,1/2-z
-x,-y,-z
x,-y,1/2+z
1/2+x,1/2+y,z
1/2-x,1/2+y,1/2-z
1/2-x,1/2-y,-z
1/2+x,1/2-y,1/2+z
loop_
_atom_site_type_symbol
_atom_site_label
_atom_site_fract_x
_atom_site_fract_y
_atom_site_fract_z
Si Si1 0.542978 0.875967 0.093102
Si Si2 0.000000 0.042543 0.250000
Si Si3 0.764007 0.427808 0.819499
Si Si4 0.643221 0.345353 0.605074
Si Si5 0.198266 0.919972 0.447717
Si Si6 0.606715 0.288593 0.262472
O O1 0.512157 0.708848 0.158708
O O2 0.583673 0.724183 0.043953
O O3 0.582257 0.066009 0.177416
O O4 0.500000 0.000000 0.000000
O O5 0.054168 0.881542 0.291230
O O6 0.765907 0.160638 0.758172
O O7 0.818836 0.584656 0.867887
O O8 0.724854 0.367626 0.889380
O O9 0.670929 0.515175 0.533484
O O10 0.630161 0.486240 0.701679
O O11 0.250000 0.750000 0.500000
O O12 0.153976 0.748318 0.365457
#
# Coordination Sequence:
#
# PCOD9296350 Si02
#       6
#     8   4   8   8   8   8
#     4  11  26  44  70 104 137 187 245 302 370 444
#     4  10  26  42  72 104 142 188 234 294 378 436
#     4  11  22  45  72 104 146 190 244 301 369 439
#     4  10  24  42  67 104 138 188 240 300 373 435
#     4  10  23  44  72 104 137 189 245 299 376 439
#     4  11  23  46  72  99 149 184 240 309 361 451
#
# _framework density 25.420897
#
# number of rings (size 3 to 8) (size 9 to 14) (size 15 to 20)
#    0.000    1.455    1.818    1.636    7.636    1.455 
#    3.273    2.727    0.000    0.000    0.000    0.000 
#    0.000    0.000    0.000    0.000    0.000    0.000 
#
# Total GULP energy -122936.650724 kJ/mol
# GULP energy per Si atom -5588.029578 kJ/mol
# Density = 2.536304 g / cm^3
# Si number density = 25.420897 Si / 1000 Ang^3
#
#
#
# Elastic Constant Matrix: (Units=GPa)
#
#
# Indices 1 2 3 4 5 6 
#
# 1 256.6510 33.2229 74.2202 0.0000 -14.4043 0.0000
# 2 33.2229 58.1922 26.8503 0.0000 1.3336 0.0000
# 3 74.2202 26.8503 105.3302 0.0000 2.7805 0.0000
# 4 0.0000 0.0000 0.0000 23.0251 0.0000 -1.7816
# 5 -14.4043 1.3336 2.7805 0.0000 51.7936 0.0000
# 6 0.0000 0.0000 0.0000 -1.7816 0.0000 44.3961
#
#
#
# Elastic Compliance Matrix: (Units=1/GPa)
#
#
# Indices 1 2 3 4 5 6 
#
# 1 0.005126 -0.001448 -0.003286 0.000000 0.001639 0.000000
# 2 -0.001448 0.019887 -0.004031 0.000000 -0.000698 0.000000
# 3 -0.003286 -0.004031 0.012877 0.000000 -0.001501 0.000000
# 4 0.000000 0.000000 0.000000 0.043566 0.000000 0.001748
# 5 0.001639 -0.000698 -0.001501 0.000000 0.019862 0.000000
# 6 0.000000 0.000000 0.000000 0.001748 0.000000 0.022595
#
#
# Mechanical properties :
#
#
# Convention : Reuss Voigt Hill
#
# Bulk Modulus (GPa) = 49.11624 76.52891 62.82258
# Shear Modulus (GPa) = 33.73160 42.90164 38.31662
#
# Velocity S-wave (km/s) = 3.64665 4.11256 3.88659
# Velocity P-wave (km/s) = 6.09047 7.26092 6.70130
#
# Compressibility (1/GPa) = 0.02035986
#
# Stress axis : x y z
#
# Youngs Moduli (GPa) = 195.07943 50.28444 77.65929
#
# Poissons Ratio (x) = 0.07280 0.25521
# Poissons Ratio (y) = 0.28244 0.31303
# Poissons Ratio (z) = 0.64109 0.20269
#
# Static dielectric constant tensor:
#      x y z
#    x 1.987370 0.000000 -0.013600 
#    y 0.000000 2.081960 0.000000 
#    z -0.013600 0.000000 2.157310 
# 
# From -- ./inp_files/170850.got.cif
#   From: 2010.05.17/outbox.cif.g08.bks.cpg/sg15_86_cif.got.tgz:170850.got - 2010.06.03 18:47:42.
