data_PCOD9296934
_publ_section_title
;
Structure prediction by ZEFSAII (Michael W. Deem and Ramdas Pophale) SiO2 
 PCOD9296934
Probable space group: C 2/C
;
_chemical_formula_sum "Si O2"
_cell_formula_units_Z 32
_cell_length_a 26.361700
_cell_length_b 7.016745
_cell_length_c 21.637252
_cell_angle_alpha 90.000000
_cell_angle_beta 17.489859
_cell_angle_gamma 90.000000
_cell_volume 1202.843559
_symmetry_space_group_name_H-M "C 2/C"
_symmetry_group_IT_number 15
_symmetry_cell_setting 'monoclinic'
loop_
_space_group_symop_operation_xyz
x,y,z
-x,y,1/2-z
-x,-y,-z
x,-y,1/2+z
1/2+x,1/2+y,z
1/2-x,1/2+y,1/2-z
1/2-x,1/2-y,-z
1/2+x,1/2-y,1/2+z
loop_
_atom_site_type_symbol
_atom_site_label
_atom_site_fract_x
_atom_site_fract_y
_atom_site_fract_z
Si Si1 0.520001 0.523802 0.789546
Si Si2 0.233455 0.677228 0.422049
Si Si3 0.941163 0.426545 0.492539
Si Si4 0.076097 0.847538 0.960928
O O1 0.500000 0.645721 0.750000
O O2 0.705199 0.441793 0.590445
O O3 0.394752 0.348966 0.920722
O O4 0.599474 0.214072 0.799302
O O5 0.224429 0.662557 0.283313
O O6 0.139568 0.541555 0.482248
O O7 0.013922 0.370341 0.530606
O O8 0.461617 0.596945 0.924466
O O9 0.000000 0.000000 0.000000
#
# Coordination Sequence:
#
# PCOD9296934 Si02
#       4
#     8   8   8   8
#     4  11  24  44  68 103 143 192 238 289 361 425
#     4  10  23  46  73 103 144 186 237 306 347 433
#     4  11  25  45  75 109 140 186 241 297 367 406
#     4  12  27  44  73 106 149 183 239 296 351 429
#
# _framework density 26.603625000000001
#
# number of rings (size 3 to 8) (size 9 to 14) (size 15 to 20)
#    0.000    1.000    2.500    3.750    3.500    2.000 
#    0.000   10.000    0.000    0.000    0.000    0.000 
#    0.000    0.000    0.000    0.000    0.000    0.000 
#
# Total GULP energy -89517.534821 kJ/mol
# GULP energy per Si atom -5594.845926 kJ/mol
# Density = 2.654307 g / cm^3
# Si number density = 26.603625 Si / 1000 Ang^3
#
#
#
# Elastic Constant Matrix: (Units=GPa)
#
#
# Indices 1 2 3 4 5 6 
#
# 1 194.4208 64.9311 42.5826 0.0023 -23.0453 0.0012
# 2 64.9311 115.2721 28.8986 -0.0033 -13.3716 0.0023
# 3 42.5826 28.8986 115.6890 0.0004 -31.9103 0.0017
# 4 0.0023 -0.0033 0.0004 29.6637 -0.0003 -7.3848
# 5 -23.0453 -13.3716 -31.9103 -0.0003 51.1825 0.0003
# 6 0.0012 0.0023 0.0017 -7.3848 0.0003 25.2291
#
#
#
# Elastic Compliance Matrix: (Units=1/GPa)
#
#
# Indices 1 2 3 4 5 6 
#
# 1 0.006679 -0.003288 -0.001262 -0.000001 0.001362 0.000000
# 2 -0.003288 0.010933 -0.001378 0.000001 0.000516 0.000000
# 3 -0.001262 -0.001378 0.011106 0.000000 0.005996 -0.000001
# 4 -0.000001 0.000001 0.000000 0.036361 0.000000 0.010643
# 5 0.001362 0.000516 0.005996 0.000000 0.024025 -0.000001
# 6 0.000000 0.000000 -0.000001 0.010643 -0.000001 0.042752
#
#
# Mechanical properties :
#
#
# Convention : Reuss Voigt Hill
#
# Bulk Modulus (GPa) = 59.30218 77.57850 68.44034
# Shear Modulus (GPa) = 33.48232 40.47972 36.98102
#
# Velocity S-wave (km/s) = 3.55147 3.90498 3.73241
# Velocity P-wave (km/s) = 6.25753 7.03961 6.66006
#
# Compressibility (1/GPa) = 0.01686279
#
# Stress axis : x y z
#
# Youngs Moduli (GPa) = 149.71499 91.46864 90.03783
#
# Poissons Ratio (x) = 0.30076 0.11358
# Poissons Ratio (y) = 0.49228 0.12409
# Poissons Ratio (z) = 0.18887 0.12606
#
# Static dielectric constant tensor:
#      x y z
#    x 2.394150 0.000000 0.055170 
#    y 0.000000 2.088150 0.000000 
#    z 0.055170 0.000000 2.025880 
# 
# From -- ./inp_files/45686.got.cif
#   From: 2010.05.17/outbox.cif.g08.bks.cpg/sg15_23_cif.got.tgz:45686.got - 2010.06.03 18:47:42.
