data_PCOD9296313
_publ_section_title
;
Structure prediction by ZEFSAII (Michael W. Deem and Ramdas Pophale) SiO2 
 PCOD9296313
Probable space group: C 2/C
;
_chemical_formula_sum "Si O2"
_cell_formula_units_Z 56
_cell_length_a 5.236537
_cell_length_b 30.162819
_cell_length_c 15.051485
_cell_angle_alpha 90.000000
_cell_angle_beta 94.397637
_cell_angle_gamma 90.000000
_cell_volume 2370.363599
_symmetry_space_group_name_H-M "C 2/C"
_symmetry_group_IT_number 15
_symmetry_cell_setting 'monoclinic'
loop_
_space_group_symop_operation_xyz
x,y,z
-x,y,1/2-z
-x,-y,-z
x,-y,1/2+z
1/2+x,1/2+y,z
1/2-x,1/2+y,1/2-z
1/2-x,1/2-y,-z
1/2+x,1/2-y,1/2+z
loop_
_atom_site_type_symbol
_atom_site_label
_atom_site_fract_x
_atom_site_fract_y
_atom_site_fract_z
Si Si1 0.513951 0.483980 0.350782
Si Si2 0.399495 0.869306 0.522813
Si Si3 0.523715 0.613152 0.850508
Si Si4 0.813534 0.237651 0.604147
Si Si5 0.754440 0.831542 0.806062
Si Si6 0.690890 0.040577 0.005275
Si Si7 0.329435 0.182086 0.593091
O O1 0.500000 0.501497 0.250000
O O2 0.650826 0.436314 0.339667
O O3 0.603620 0.523866 0.416502
O O4 0.297171 0.460870 0.407546
O O5 0.205707 0.870148 0.434642
O O6 0.230273 0.860435 0.604327
O O7 0.552797 0.915032 0.531075
O O8 0.599339 0.829246 0.508170
O O9 0.500000 0.630892 0.750000
O O10 0.248009 0.633016 0.875779
O O11 0.750000 0.250000 0.500000
O O12 0.800727 0.281614 0.662470
O O13 0.584668 0.206157 0.633965
O O14 0.088072 0.213370 0.607157
O O15 0.500000 0.847817 0.750000
O O16 0.000000 0.833829 0.750000
O O17 0.500000 0.000000 0.000000
#
# Coordination Sequence:
#
# PCOD9296313 Si02
#       7
#     8   8   8   8   8   8   8
#     4  10  23  44  71 106 152 196 256 322 389 463
#     4  12  26  49  77 111 160 198 257 323 386 464
#     4  11  24  45  74 113 149 191 248 324 392 456
#     4  12  25  46  76 101 145 195 255 314 378 450
#     4  12  30  52  77 111 160 211 266 318 385 462
#     4  11  23  45  74 104 149 205 252 313 390 466
#     4  12  24  43  77 109 147 193 246 314 393 453
#
# _framework density 23.625069
#
# number of rings (size 3 to 8) (size 9 to 14) (size 15 to 20)
#    0.000    0.571    5.714    1.286    4.000    2.857 
#    5.143    0.000    0.000    0.000    0.000    0.000 
#    0.000    0.000    0.000    0.000    0.000    0.000 
#
# Total GULP energy -155992.280858 kJ/mol
# GULP energy per Si atom -5571.152888 kJ/mol
# Density = 2.357130 g / cm^3
# Si number density = 23.625069 Si / 1000 Ang^3
#
#
#
# Elastic Constant Matrix: (Units=GPa)
#
#
# Indices 1 2 3 4 5 6 
#
# 1 107.9447 34.3516 61.5947 0.0000 -16.1375 0.0000
# 2 34.3516 101.2141 34.0250 0.0000 -11.5230 0.0000
# 3 61.5947 34.0250 163.3954 0.0000 -22.2334 0.0000
# 4 0.0000 0.0000 0.0000 10.0030 0.0000 7.3416
# 5 -16.1375 -11.5230 -22.2334 0.0000 34.7115 0.0000
# 6 0.0000 0.0000 0.0000 7.3416 0.0000 12.3053
#
#
#
# Elastic Compliance Matrix: (Units=1/GPa)
#
#
# Indices 1 2 3 4 5 6 
#
# 1 0.012726 -0.002726 -0.003887 0.000000 0.002522 0.000000
# 2 -0.002726 0.011379 -0.001096 0.000000 0.001808 0.000000
# 3 -0.003887 -0.001096 0.008236 0.000000 0.003105 0.000000
# 4 0.000000 0.000000 0.000000 0.177845 0.000000 -0.106105
# 5 0.002522 0.001808 0.003105 0.000000 0.032570 0.000000
# 6 0.000000 0.000000 0.000000 -0.106105 0.000000 0.144570
#
#
# Mechanical properties :
#
#
# Convention : Reuss Voigt Hill
#
# Bulk Modulus (GPa) = 59.08393 70.27744 64.68069
# Shear Modulus (GPa) = 12.24336 27.57614 19.90975
#
# Velocity S-wave (km/s) = 2.27895 3.42020 2.90614
# Velocity P-wave (km/s) = 5.65580 6.73859 6.22080
#
# Compressibility (1/GPa) = 0.01692507
#
# Stress axis : x y z
#
# Youngs Moduli (GPa) = 78.57829 87.87787 121.41915
#
# Poissons Ratio (x) = 0.23951 0.47191
# Poissons Ratio (y) = 0.21417 0.13309
# Poissons Ratio (z) = 0.30540 0.09633
#
# Static dielectric constant tensor:
#      x y z
#    x 1.878250 0.000000 -0.055830 
#    y 0.000000 1.793360 0.000000 
#    z -0.055830 0.000000 1.866310 
# 
# From -- ./inp_files/130759.got.cif
#   From: 2010.05.17/outbox.cif.g08.bks.cpg/sg15_66_cif.got.tgz:130759.got - 2010.06.03 18:47:42.
