data_PCOD9296682
_publ_section_title
;
Structure prediction by ZEFSAII (Michael W. Deem and Ramdas Pophale) SiO2 
 PCOD9296682
Probable space group: C 2/C
;
_chemical_formula_sum "Si O2"
_cell_formula_units_Z 24
_cell_length_a 8.168010
_cell_length_b 12.386729
_cell_length_c 8.967945
_cell_angle_alpha 90.000000
_cell_angle_beta 94.327859
_cell_angle_gamma 90.000000
_cell_volume 904.743973
_symmetry_space_group_name_H-M "C 2/C"
_symmetry_group_IT_number 15
_symmetry_cell_setting 'monoclinic'
loop_
_space_group_symop_operation_xyz
x,y,z
-x,y,1/2-z
-x,-y,-z
x,-y,1/2+z
1/2+x,1/2+y,z
1/2-x,1/2+y,1/2-z
1/2-x,1/2-y,-z
1/2+x,1/2-y,1/2+z
loop_
_atom_site_type_symbol
_atom_site_label
_atom_site_fract_x
_atom_site_fract_y
_atom_site_fract_z
Si Si1 0.307544 0.499783 0.717287
Si Si2 0.682899 0.131504 0.953075
Si Si3 0.875203 0.686026 0.114157
O O1 0.500000 0.514338 0.750000
O O2 0.210305 0.600587 0.782959
O O3 0.281292 0.462500 0.546189
O O4 0.232862 0.396528 0.797937
O O5 0.750000 0.250000 0.000000
O O6 0.501824 0.129677 0.008717
O O7 0.000000 0.736230 0.250000
O O8 0.750000 0.750000 0.000000
#
# Coordination Sequence:
#
# PCOD9296682 Si02
#       3
#     8   8   8
#     4  11  24  44  71 106 148 193 245 310 376 446
#     4  11  25  45  70 106 147 195 248 307 374 450
#     4  10  23  45  72 108 148 196 251 311 376 450
#
# _framework density 26.526838999999999
#
# number of rings (size 3 to 8) (size 9 to 14) (size 15 to 20)
#    0.000    1.333    0.000    4.000    0.000    9.333 
#    0.000   11.667    0.000    0.000    0.000    0.000 
#    0.000    0.000    0.000    0.000    0.000    0.000 
#
# Total GULP energy -67183.309793 kJ/mol
# GULP energy per Si atom -5598.609149 kJ/mol
# Density = 2.646646 g / cm^3
# Si number density = 26.526839 Si / 1000 Ang^3
#
#
#
# Elastic Constant Matrix: (Units=GPa)
#
#
# Indices 1 2 3 4 5 6 
#
# 1 167.1160 19.2903 52.4035 0.0000 -2.6188 0.0000
# 2 19.2903 107.3082 53.8543 0.0000 16.3944 0.0000
# 3 52.4035 53.8543 178.7055 0.0000 29.8904 0.0000
# 4 0.0000 0.0000 0.0000 43.3804 0.0000 -12.9442
# 5 -2.6188 16.3944 29.8904 0.0000 56.9084 0.0000
# 6 0.0000 0.0000 0.0000 -12.9442 0.0000 44.1401
#
#
#
# Elastic Compliance Matrix: (Units=1/GPa)
#
#
# Indices 1 2 3 4 5 6 
#
# 1 0.006713 -0.000382 -0.002109 0.000000 0.001527 0.000000
# 2 -0.000382 0.011129 -0.002963 0.000000 -0.001667 0.000000
# 3 -0.002109 -0.002963 0.007653 0.000000 -0.003263 0.000000
# 4 0.000000 0.000000 0.000000 0.025262 0.000000 0.007408
# 5 0.001527 -0.001667 -0.003263 0.000000 0.019837 0.000000
# 6 0.000000 0.000000 0.000000 0.007408 0.000000 0.024828
#
#
# Mechanical properties :
#
#
# Convention : Reuss Voigt Hill
#
# Bulk Modulus (GPa) = 68.54859 78.24732 73.39796
# Shear Modulus (GPa) = 44.96722 50.72455 47.84589
#
# Velocity S-wave (km/s) = 4.12170 4.37761 4.25158
# Velocity P-wave (km/s) = 6.96768 7.42380 7.19935
#
# Compressibility (1/GPa) = 0.01458819
#
# Stress axis : x y z
#
# Youngs Moduli (GPa) = 148.96179 89.85213 130.66866
#
# Poissons Ratio (x) = 0.03429 0.27556
# Poissons Ratio (y) = 0.05685 0.38719
# Poissons Ratio (z) = 0.31414 0.26624
#
# Static dielectric constant tensor:
#      x y z
#    x 1.984510 0.000000 0.076990 
#    y 0.000000 2.129670 0.000000 
#    z 0.076990 0.000000 2.319410 
# 
# From -- ./inp_files/21153.got.cif
#   From: 2010.05.17/outbox.cif.g08.bks.cpg/sg15_11_cif.got.tgz:21153.got - 2010.06.03 18:47:42.
