data_PCOD9296543
_publ_section_title
;
Structure prediction by ZEFSAII (Michael W. Deem and Ramdas Pophale) SiO2 
 PCOD9296543
Probable space group: C 2/C
;
_chemical_formula_sum "Si O2"
_cell_formula_units_Z 44
_cell_length_a 8.729542
_cell_length_b 17.235296
_cell_length_c 13.641050
_cell_angle_alpha 90.000000
_cell_angle_beta 109.554037
_cell_angle_gamma 90.000000
_cell_volume 1934.012584
_symmetry_space_group_name_H-M "C 2/C"
_symmetry_group_IT_number 15
_symmetry_cell_setting 'monoclinic'
loop_
_space_group_symop_operation_xyz
x,y,z
-x,y,1/2-z
-x,-y,-z
x,-y,1/2+z
1/2+x,1/2+y,z
1/2-x,1/2+y,1/2-z
1/2-x,1/2-y,-z
1/2+x,1/2-y,1/2+z
loop_
_atom_site_type_symbol
_atom_site_label
_atom_site_fract_x
_atom_site_fract_y
_atom_site_fract_z
Si Si1 0.397529 0.093892 0.553880
Si Si2 0.352621 0.917561 0.562111
Si Si3 0.000000 0.290170 0.250000
Si Si4 0.929459 0.864360 0.137690
Si Si5 0.879244 0.814000 0.494536
Si Si6 0.226709 0.214366 0.164743
O O1 0.506794 0.110381 0.482137
O O2 0.457096 0.151820 0.651864
O O3 0.210106 0.109325 0.486499
O O4 0.403030 0.005863 0.592845
O O5 0.189193 0.912263 0.459379
O O6 0.324265 0.862004 0.649862
O O7 0.847149 0.234689 0.244634
O O8 0.827514 0.788628 0.149718
O O9 0.000000 0.904727 0.250000
O O10 0.082637 0.832996 0.109784
O O11 0.750000 0.750000 0.500000
O O12 0.055850 0.794015 0.571501
#
# Coordination Sequence:
#
# PCOD9296543 Si02
#       6
#     8   8   4   8   8   8
#     4  11  23  42  71  98 135 182 225 280 353 399
#     4  10  23  45  67  97 139 182 219 284 350 416
#     4  12  22  40  70  98 134 182 234 284 318 418
#     4  11  22  38  65  96 130 173 228 279 327 406
#     4  11  20  36  66  91 126 173 215 267 332 407
#     4  11  23  41  65  98 133 174 232 273 342 407
#
# _framework density 22.750627999999999
#
# number of rings (size 3 to 8) (size 9 to 14) (size 15 to 20)
#    0.000    1.091    3.636    4.364    0.000    2.909 
#    1.636    1.818    8.000    0.000    0.000    0.000 
#    0.000    0.000    0.000    0.000    0.000    0.000 
#
# Total GULP energy -122700.810165 kJ/mol
# GULP energy per Si atom -5577.309553 kJ/mol
# Density = 2.269885 g / cm^3
# Si number density = 22.750628 Si / 1000 Ang^3
#
#
#
# Elastic Constant Matrix: (Units=GPa)
#
#
# Indices 1 2 3 4 5 6 
#
# 1 145.8953 46.2658 26.5204 0.0000 -34.8939 0.0000
# 2 46.2658 82.7098 27.6207 0.0000 -30.0499 0.0000
# 3 26.5204 27.6207 74.6995 0.0000 -11.6084 0.0000
# 4 0.0000 0.0000 0.0000 23.8668 0.0000 -5.4407
# 5 -34.8939 -30.0499 -11.6084 0.0000 45.9892 0.0000
# 6 0.0000 0.0000 0.0000 -5.4407 0.0000 25.1687
#
#
#
# Elastic Compliance Matrix: (Units=1/GPa)
#
#
# Indices 1 2 3 4 5 6 
#
# 1 0.009168 -0.002954 -0.001438 0.000000 0.004663 0.000000
# 2 -0.002954 0.018349 -0.004393 0.000000 0.008639 0.000000
# 3 -0.001438 -0.004393 0.015515 0.000000 -0.000045 0.000000
# 4 0.000000 0.000000 0.000000 0.044071 0.000000 0.009527
# 5 0.004663 0.008639 -0.000045 0.000000 0.030915 0.000000
# 6 0.000000 0.000000 0.000000 0.009527 0.000000 0.041791
#
#
# Mechanical properties :
#
#
# Convention : Reuss Voigt Hill
#
# Bulk Modulus (GPa) = 39.27597 56.01317 47.64457
# Shear Modulus (GPa) = 26.90112 32.53145 29.71628
#
# Velocity S-wave (km/s) = 3.44238 3.78552 3.61802
# Velocity P-wave (km/s) = 5.75336 6.61671 6.20008
#
# Compressibility (1/GPa) = 0.02546086
#
# Stress axis : x y z
#
# Youngs Moduli (GPa) = 109.08087 54.50003 64.45425
#
# Poissons Ratio (x) = 0.16098 0.09268
# Poissons Ratio (y) = 0.32221 0.28317
# Poissons Ratio (z) = 0.15685 0.23944
#
# Static dielectric constant tensor:
#      x y z
#    x 1.904790 0.000000 0.014310 
#    y 0.000000 1.877190 0.000000 
#    z 0.014310 0.000000 1.986460 
# 
# From -- ./inp_files/134504.got.cif
#   From: 2010.05.17/outbox.cif.g08.bks.cpg/sg15_68_cif.got.tgz:134504.got - 2010.06.03 18:47:42.
