data_PCOD9296656
_publ_section_title
;
Structure prediction by ZEFSAII (Michael W. Deem and Ramdas Pophale) SiO2 
 PCOD9296656
Probable space group: C 2/C
;
_chemical_formula_sum "Si O2"
_cell_formula_units_Z 44
_cell_length_a 9.432281
_cell_length_b 15.846328
_cell_length_c 12.901435
_cell_angle_alpha 90.000000
_cell_angle_beta 70.237152
_cell_angle_gamma 90.000000
_cell_volume 1814.760274
_symmetry_space_group_name_H-M "C 2/C"
_symmetry_group_IT_number 15
_symmetry_cell_setting 'monoclinic'
loop_
_space_group_symop_operation_xyz
x,y,z
-x,y,1/2-z
-x,-y,-z
x,-y,1/2+z
1/2+x,1/2+y,z
1/2-x,1/2+y,1/2-z
1/2-x,1/2-y,-z
1/2+x,1/2-y,1/2+z
loop_
_atom_site_type_symbol
_atom_site_label
_atom_site_fract_x
_atom_site_fract_y
_atom_site_fract_z
Si Si1 0.255733 0.178934 0.587021
Si Si2 0.291695 0.347846 0.986385
Si Si3 0.500000 0.222649 0.250000
Si Si4 0.001147 0.562694 0.900677
Si Si5 0.404298 0.416054 0.536896
Si Si6 0.807544 0.413639 0.708902
O O1 0.250000 0.250000 0.500000
O O2 0.410552 0.149123 0.596932
O O3 0.190627 0.098197 0.543081
O O4 0.140308 0.216730 0.697238
O O5 0.460608 0.349746 0.987344
O O6 0.283587 0.389393 0.872592
O O7 0.250000 0.250000 0.000000
O O8 0.168835 0.405760 0.078299
O O9 0.558094 0.156228 0.321529
O O10 0.111094 0.504568 0.804564
O O11 0.000000 0.500000 0.000000
O O12 0.500000 0.500000 0.500000
O O13 0.297439 0.407644 0.663451
#
# Coordination Sequence:
#
# PCOD9296656 Si02
#       6
#     8   8   4   8   8   8
#     4  12  24  46  72 102 133 184 232 285 338 416
#     4  11  24  45  71 102 142 175 224 291 352 406
#     4  12  26  42  76  98 138 184 244 282 340 408
#     4  10  23  45  71  96 138 181 227 279 346 412
#     4  12  26  43  70 100 141 179 234 284 346 411
#     4  11  25  45  69  99 141 187 228 285 345 412
#
# _framework density 24.245625
#
# number of rings (size 3 to 8) (size 9 to 14) (size 15 to 20)
#    0.000    0.727    1.818    7.091    5.091    0.000 
#    0.000    0.000    0.000    0.000    0.000    0.000 
#    0.000    0.000    0.000    0.000    0.000    0.000 
#
# Total GULP energy -122961.068008 kJ/mol
# GULP energy per Si atom -5589.139455 kJ/mol
# Density = 2.419044 g / cm^3
# Si number density = 24.245625 Si / 1000 Ang^3
#
#
#
# Elastic Constant Matrix: (Units=GPa)
#
#
# Indices 1 2 3 4 5 6 
#
# 1 92.4687 0.2490 19.7747 0.0000 -21.9901 0.0000
# 2 0.2490 113.4281 38.7319 0.0000 -20.5728 0.0000
# 3 19.7747 38.7319 68.6480 0.0000 -22.8120 0.0000
# 4 0.0000 0.0000 0.0000 33.7611 0.0000 -12.2009
# 5 -21.9901 -20.5728 -22.8120 0.0000 38.4803 0.0000
# 6 0.0000 0.0000 0.0000 -12.2009 0.0000 58.9577
#
#
#
# Elastic Compliance Matrix: (Units=1/GPa)
#
#
# Indices 1 2 3 4 5 6 
#
# 1 0.013046 0.002147 -0.002628 0.000000 0.007045 0.000000
# 2 0.002147 0.011507 -0.005802 0.000000 0.003939 0.000000
# 3 -0.002628 -0.005802 0.021255 0.000000 0.007997 0.000000
# 4 0.000000 0.000000 0.000000 0.032014 0.000000 0.006625
# 5 0.007045 0.003939 0.007997 0.000000 0.036860 0.000000
# 6 0.000000 0.000000 0.000000 0.006625 0.000000 0.018332
#
#
# Mechanical properties :
#
#
# Convention : Reuss Voigt Hill
#
# Bulk Modulus (GPa) = 30.08284 43.56177 36.82231
# Shear Modulus (GPa) = 31.91600 40.62577 36.27089
#
# Velocity S-wave (km/s) = 3.63211 4.09784 3.87198
# Velocity P-wave (km/s) = 5.47942 6.35575 5.93379
#
# Compressibility (1/GPa) = 0.03324154
#
# Stress axis : x y z
#
# Youngs Moduli (GPa) = 76.65134 86.90358 47.04819
#
# Poissons Ratio (x) = -0.18654 0.12365
# Poissons Ratio (y) = -0.16453 0.27296
# Poissons Ratio (z) = 0.20144 0.50418
#
# Static dielectric constant tensor:
#      x y z
#    x 1.946130 0.000000 0.063200 
#    y 0.000000 2.032380 0.000000 
#    z 0.063200 0.000000 2.043350 
# 
# From -- ./inp_files/134757.got.cif
#   From: 2010.05.17/outbox.cif.g08.bks.cpg/sg15_68_cif.got.tgz:134757.got - 2010.06.03 18:47:42.
