data_PCOD9296238
_publ_section_title
;
Structure prediction by ZEFSAII (Michael W. Deem and Ramdas Pophale) SiO2 
 PCOD9296238
Probable space group: C 2/C
;
_chemical_formula_sum "Si O2"
_cell_formula_units_Z 24
_cell_length_a 5.268840
_cell_length_b 13.719427
_cell_length_c 13.072439
_cell_angle_alpha 90.000000
_cell_angle_beta 89.999966
_cell_angle_gamma 90.000000
_cell_volume 944.947342
_symmetry_space_group_name_H-M "C 2/C"
_symmetry_group_IT_number 15
_symmetry_cell_setting 'monoclinic'
loop_
_space_group_symop_operation_xyz
x,y,z
-x,y,1/2-z
-x,-y,-z
x,-y,1/2+z
1/2+x,1/2+y,z
1/2-x,1/2+y,1/2-z
1/2-x,1/2-y,-z
1/2+x,1/2-y,1/2+z
loop_
_atom_site_type_symbol
_atom_site_label
_atom_site_fract_x
_atom_site_fract_y
_atom_site_fract_z
Si Si1 0.683986 0.359025 0.039091
Si Si2 0.000000 0.434429 0.750000
Si Si3 0.816015 0.640975 0.039090
Si Si4 0.500000 0.434429 0.250000
O O1 0.570231 0.369538 0.151548
O O2 0.750000 0.250000 0.000000
O O3 0.466580 0.402928 0.965679
O O4 0.966580 0.402928 0.034321
O O5 0.929769 0.369538 0.651547
O O6 0.750000 0.500000 0.768556
O O7 0.750000 0.750000 0.000000
#
# Coordination Sequence:
#
# PCOD9296238 Si02
#       4
#     8   4   8   4
#     4  10  23  44  70 100 139 188 243 293 352 433
#     4  12  26  43  70 109 150 188 236 304 370 421
#     4  10  23  44  70 100 139 188 243 293 352 433
#     4  12  26  43  70 109 150 188 236 304 370 421
#
# _framework density 25.398237999999999
#
# number of rings (size 3 to 8) (size 9 to 14) (size 15 to 20)
#    0.000    1.333    0.000    4.000    0.000   13.333 
#    0.000   13.333    0.000    0.000    0.000    0.000 
#    0.000    0.000    0.000    0.000    0.000    0.000 
#
# Total GULP energy -67071.191473 kJ/mol
# GULP energy per Si atom -5589.265956 kJ/mol
# Density = 2.534043 g / cm^3
# Si number density = 25.398238 Si / 1000 Ang^3
#
#
#
# Elastic Constant Matrix: (Units=GPa)
#
#
# Indices 1 2 3 4 5 6 
#
# 1 287.8373 52.6303 87.5465 0.0000 7.3248 0.0000
# 2 52.6303 147.1433 69.5586 0.0000 -1.4979 0.0000
# 3 87.5465 69.5586 225.3868 0.0000 -1.7971 0.0000
# 4 0.0000 0.0000 0.0000 48.0476 0.0000 -2.0315
# 5 7.3248 -1.4979 -1.7971 0.0000 59.5731 0.0000
# 6 0.0000 0.0000 0.0000 -2.0315 0.0000 25.0950
#
#
#
# Elastic Compliance Matrix: (Units=1/GPa)
#
#
# Indices 1 2 3 4 5 6 
#
# 1 0.004041 -0.000828 -0.001319 0.000000 -0.000557 0.000000
# 2 -0.000828 0.008127 -0.002185 0.000000 0.000240 0.000000
# 3 -0.001319 -0.002185 0.005625 0.000000 0.000277 0.000000
# 4 0.000000 0.000000 0.000000 0.020884 0.000000 0.001691
# 5 -0.000557 0.000240 0.000277 0.000000 0.016869 0.000000
# 6 0.000000 0.000000 0.000000 0.001691 0.000000 0.039985
#
#
# Mechanical properties :
#
#
# Convention : Reuss Voigt Hill
#
# Bulk Modulus (GPa) = 109.51120 119.98201 114.74660
# Shear Modulus (GPa) = 46.62511 56.58527 51.60519
#
# Velocity S-wave (km/s) = 4.28923 4.72521 4.51249
# Velocity P-wave (km/s) = 8.23050 8.78140 8.51041
#
# Compressibility (1/GPa) = 0.00913149
#
# Stress axis : x y z
#
# Youngs Moduli (GPa) = 247.47909 123.04015 177.76262
#
# Poissons Ratio (x) = 0.10183 0.23439
# Poissons Ratio (y) = 0.20483 0.38839
# Poissons Ratio (z) = 0.32631 0.26883
#
# Static dielectric constant tensor:
#      x y z
#    x 2.432140 0.000000 0.041210 
#    y 0.000000 2.508950 0.000000 
#    z 0.041210 0.000000 1.966450 
# 
# From -- ./inp_files/127818.got.cif
#   From: 2010.05.17/outbox.cif.g08.bks.cpg/sg15_64_cif.got.tgz:127818.got - 2010.06.03 18:47:42.
