data_PCOD9296375
_publ_section_title
;
Structure prediction by ZEFSAII (Michael W. Deem and Ramdas Pophale) SiO2 
 PCOD9296375
Probable space group: C 2/C
;
_chemical_formula_sum "Si O2"
_cell_formula_units_Z 56
_cell_length_a 20.937169
_cell_length_b 8.861902
_cell_length_c 14.297244
_cell_angle_alpha 90.000000
_cell_angle_beta 92.100368
_cell_angle_gamma 90.000000
_cell_volume 2650.973311
_symmetry_space_group_name_H-M "C 2/C"
_symmetry_group_IT_number 15
_symmetry_cell_setting 'monoclinic'
loop_
_space_group_symop_operation_xyz
x,y,z
-x,y,1/2-z
-x,-y,-z
x,-y,1/2+z
1/2+x,1/2+y,z
1/2-x,1/2+y,1/2-z
1/2-x,1/2-y,-z
1/2+x,1/2-y,1/2+z
loop_
_atom_site_type_symbol
_atom_site_label
_atom_site_fract_x
_atom_site_fract_y
_atom_site_fract_z
Si Si1 0.684339 0.182397 0.457338
Si Si2 0.451009 0.748539 0.334514
Si Si3 0.969943 0.793915 0.469535
Si Si4 0.376935 0.034253 0.400116
Si Si5 0.212013 0.721146 0.242165
Si Si6 0.158581 0.945940 0.749220
Si Si7 0.091043 0.946516 0.432592
O O1 0.750000 0.250000 0.500000
O O2 0.690313 0.171971 0.345681
O O3 0.632818 0.311453 0.473696
O O4 0.659606 0.037087 0.512190
O O5 0.500000 0.753385 0.250000
O O6 0.492264 0.734780 0.431364
O O7 0.399843 0.615163 0.315608
O O8 0.409390 0.900034 0.343268
O O9 0.933523 0.647746 0.432572
O O10 0.022711 0.869517 0.404789
O O11 0.920084 0.922883 0.493696
O O12 0.326003 0.122463 0.334834
O O13 0.286884 0.681785 0.240940
O O14 0.193473 0.896437 0.224572
O O15 0.126660 0.982305 0.846980
#
# Coordination Sequence:
#
# PCOD9296375 Si02
#       7
#     8   8   8   8   8   8   8
#     4  11  24  47  72  98 143 190 234 299 357 414
#     4  12  25  43  73 100 145 188 230 294 357 426
#     4  11  25  44  70 104 139 186 237 289 357 426
#     4  12  27  44  70 106 145 185 240 289 360 425
#     4  11  27  44  73 103 139 183 241 294 352 425
#     4  11  24  47  70 102 137 182 238 292 357 418
#     4  10  23  44  72  95 138 180 238 285 357 415
#
# _framework density 21.124316
#
# number of rings (size 3 to 8) (size 9 to 14) (size 15 to 20)
#    0.000    0.857    2.857    3.857    6.000    2.286 
#    0.000    2.143    0.000    0.000    0.000    0.000 
#    0.000    0.000    0.000    0.000    0.000    0.000 
#
# Total GULP energy -156602.281097 kJ/mol
# GULP energy per Si atom -5592.938611 kJ/mol
# Density = 2.107624 g / cm^3
# Si number density = 21.124316 Si / 1000 Ang^3
#
#
#
# Elastic Constant Matrix: (Units=GPa)
#
#
# Indices 1 2 3 4 5 6 
#
# 1 106.0583 56.2006 56.7115 0.0000 -8.8873 0.0000
# 2 56.2006 121.3803 39.3572 0.0000 -0.2908 0.0000
# 3 56.7115 39.3572 70.4946 0.0000 5.2265 0.0000
# 4 0.0000 0.0000 0.0000 31.9048 0.0000 3.5487
# 5 -8.8873 -0.2908 5.2265 0.0000 35.6146 0.0000
# 6 0.0000 0.0000 0.0000 3.5487 0.0000 59.4366
#
#
#
# Elastic Compliance Matrix: (Units=1/GPa)
#
#
# Indices 1 2 3 4 5 6 
#
# 1 0.019972 -0.004704 -0.013959 0.000000 0.006994 0.000000
# 2 -0.004704 0.011197 -0.002413 0.000000 -0.000728 0.000000
# 3 -0.013959 -0.002413 0.027319 0.000000 -0.007512 0.000000
# 4 0.000000 0.000000 0.000000 0.031553 0.000000 -0.001884
# 5 0.006994 -0.000728 -0.007512 0.000000 0.030920 0.000000
# 6 0.000000 0.000000 0.000000 -0.001884 0.000000 0.016937
#
#
# Mechanical properties :
#
#
# Convention : Reuss Voigt Hill
#
# Bulk Modulus (GPa) = 61.21475 66.94129 64.07802
# Shear Modulus (GPa) = 26.95465 35.10214 31.02839
#
# Velocity S-wave (km/s) = 3.57599 4.08081 3.83671
# Velocity P-wave (km/s) = 6.78907 7.34588 7.07296
#
# Compressibility (1/GPa) = 0.01633593
#
# Stress axis : x y z
#
# Youngs Moduli (GPa) = 50.07047 89.30675 36.60395
#
# Poissons Ratio (x) = 0.42012 0.51096
# Poissons Ratio (y) = 0.23554 0.08833
# Poissons Ratio (z) = 0.69894 0.21550
#
# Static dielectric constant tensor:
#      x y z
#    x 1.824550 0.000000 -0.007230 
#    y 0.000000 1.752160 0.000000 
#    z -0.007230 0.000000 1.765800 
# 
# From -- ./inp_files/166679.got.cif
#   From: 2010.05.17/outbox.cif.g08.bks.cpg/sg15_84_cif.got.tgz:166679.got - 2010.06.03 18:47:42.
