data_PCOD9296919
_publ_section_title
;
Structure prediction by ZEFSAII (Michael W. Deem and Ramdas Pophale) SiO2 
 PCOD9296919
Probable space group: C 2/C
;
_chemical_formula_sum "Si O2"
_cell_formula_units_Z 56
_cell_length_a 7.893751
_cell_length_b 17.063235
_cell_length_c 20.357827
_cell_angle_alpha 90.000000
_cell_angle_beta 64.022911
_cell_angle_gamma 90.000000
_cell_volume 2465.023473
_symmetry_space_group_name_H-M "C 2/C"
_symmetry_group_IT_number 15
_symmetry_cell_setting 'monoclinic'
loop_
_space_group_symop_operation_xyz
x,y,z
-x,y,1/2-z
-x,-y,-z
x,-y,1/2+z
1/2+x,1/2+y,z
1/2-x,1/2+y,1/2-z
1/2-x,1/2-y,-z
1/2+x,1/2-y,1/2+z
loop_
_atom_site_type_symbol
_atom_site_label
_atom_site_fract_x
_atom_site_fract_y
_atom_site_fract_z
Si Si1 0.662146 0.278590 0.869950
Si Si2 0.669943 0.133311 0.037115
Si Si3 0.500000 0.699791 0.750000
Si Si4 0.969724 0.085742 0.878705
Si Si5 0.388352 0.823431 0.484272
Si Si6 0.000000 0.494537 0.750000
Si Si7 0.326789 0.960011 0.404592
Si Si8 0.573492 0.424358 0.808889
O O1 0.744479 0.305822 0.925990
O O2 0.822858 0.255929 0.791624
O O3 0.543948 0.201835 0.904197
O O4 0.546184 0.352027 0.862435
O O5 0.662130 0.050589 0.076045
O O6 0.799599 0.116796 0.951706
O O7 0.475730 0.166831 0.041394
O O8 0.515922 0.645639 0.812085
O O9 0.138210 0.069556 0.900971
O O10 0.950279 0.000111 0.849633
O O11 0.250000 0.750000 0.500000
O O12 0.331364 0.908473 0.468990
O O13 0.979586 0.545046 0.819984
O O14 0.798850 0.447969 0.776264
O O15 0.500000 0.401207 0.750000
#
# Coordination Sequence:
#
# PCOD9296919 Si02
#       8
#     8   8   4   8   8   4   8   8
#     4  12  27  48  71 111 143 193 243 306 380 439
#     4  12  25  49  74 101 145 200 244 304 366 460
#     4  12  27  46  78 101 148 194 242 312 391 440
#     4  11  24  46  77 102 140 194 252 298 375 456
#     4  12  29  45  68 110 150 188 248 310 381 440
#     4  10  23  46  72 107 144 186 256 302 371 438
#     4  11  26  44  75 103 144 192 245 309 367 454
#     4  11  25  45  77 107 146 195 252 308 365 458
#
# _framework density 22.717838
#
# number of rings (size 3 to 8) (size 9 to 14) (size 15 to 20)
#    0.000    0.571    5.000    2.571   10.000    2.286 
#    0.000    0.000    0.000    0.000    0.000    0.000 
#    0.000    0.000    0.000    0.000    0.000    0.000 
#
# Total GULP energy -156493.544066 kJ/mol
# GULP energy per Si atom -5589.055145 kJ/mol
# Density = 2.266613 g / cm^3
# Si number density = 22.717838 Si / 1000 Ang^3
#
#
#
# Elastic Constant Matrix: (Units=GPa)
#
#
# Indices 1 2 3 4 5 6 
#
# 1 73.4510 12.0821 18.8484 0.0000 26.6205 0.0000
# 2 12.0821 91.1074 14.0977 0.0000 3.8681 0.0000
# 3 18.8484 14.0977 95.4109 0.0000 6.2211 0.0000
# 4 0.0000 0.0000 0.0000 5.9725 0.0000 -3.9564
# 5 26.6205 3.8681 6.2211 0.0000 36.1087 0.0000
# 6 0.0000 0.0000 0.0000 -3.9564 0.0000 27.8057
#
#
#
# Elastic Compliance Matrix: (Units=1/GPa)
#
#
# Indices 1 2 3 4 5 6 
#
# 1 0.019575 -0.001587 -0.002733 0.000000 -0.013790 0.000000
# 2 -0.001587 0.011392 -0.001382 0.000000 0.000188 0.000000
# 3 -0.002733 -0.001382 0.011210 0.000000 0.000232 0.000000
# 4 0.000000 0.000000 0.000000 0.184858 0.000000 0.026303
# 5 -0.013790 0.000188 0.000232 0.000000 0.037801 0.000000
# 6 0.000000 0.000000 0.000000 0.026303 0.000000 0.039706
#
#
# Mechanical properties :
#
#
# Convention : Reuss Voigt Hill
#
# Bulk Modulus (GPa) = 32.49712 38.89173 35.69442
# Shear Modulus (GPa) = 15.32777 28.30679 21.81728
#
# Velocity S-wave (km/s) = 2.60032 3.53372 3.10233
# Velocity P-wave (km/s) = 4.83232 5.81431 5.34591
#
# Compressibility (1/GPa) = 0.03077196
#
# Stress axis : x y z
#
# Youngs Moduli (GPa) = 51.08555 87.77752 89.20580
#
# Poissons Ratio (x) = 0.13935 0.24383
# Poissons Ratio (y) = 0.08110 0.12328
# Poissons Ratio (z) = 0.13963 0.12131
#
# Static dielectric constant tensor:
#      x y z
#    x 1.904160 0.000000 -0.039160 
#    y 0.000000 1.805200 0.000000 
#    z -0.039160 0.000000 1.869940 
# 
# From -- ./inp_files/232620.got.cif
#   From: 2010.05.17/outbox.cif.g08.bks.cpg/sg15_117_cif.got.tgz:232620.got - 2010.06.03 18:47:42.
