data_PCOD9296551
_publ_section_title
;
Structure prediction by ZEFSAII (Michael W. Deem and Ramdas Pophale) SiO2 
 PCOD9296551
Probable space group: C 2/C
;
_chemical_formula_sum "Si O2"
_cell_formula_units_Z 48
_cell_length_a 12.874326
_cell_length_b 10.742658
_cell_length_c 18.900093
_cell_angle_alpha 90.000000
_cell_angle_beta 129.681685
_cell_angle_gamma 90.000000
_cell_volume 2011.719110
_symmetry_space_group_name_H-M "C 2/C"
_symmetry_group_IT_number 15
_symmetry_cell_setting 'monoclinic'
loop_
_space_group_symop_operation_xyz
x,y,z
-x,y,1/2-z
-x,-y,-z
x,-y,1/2+z
1/2+x,1/2+y,z
1/2-x,1/2+y,1/2-z
1/2-x,1/2-y,-z
1/2+x,1/2-y,1/2+z
loop_
_atom_site_type_symbol
_atom_site_label
_atom_site_fract_x
_atom_site_fract_y
_atom_site_fract_z
Si Si1 0.652285 0.321332 0.839995
Si Si2 0.441937 0.289003 0.301280
Si Si3 0.441103 0.950849 0.585700
Si Si4 0.645319 0.487297 0.449461
Si Si5 0.272554 0.953844 0.137851
Si Si6 0.709816 0.962154 0.191331
O O1 0.500000 0.295092 0.750000
O O2 0.646924 0.374903 0.917204
O O3 0.735058 0.195481 0.866325
O O4 0.711303 0.434759 0.819418
O O5 0.500000 0.256454 0.250000
O O6 0.481157 0.178039 0.370103
O O7 0.523513 0.409417 0.365019
O O8 0.288803 0.331857 0.223701
O O9 0.552888 0.041195 0.601033
O O10 0.292078 0.931862 0.488819
O O11 0.399344 0.009530 0.643423
O O12 0.653407 0.490021 0.537712
O O13 0.284038 0.998731 0.222616
#
# Coordination Sequence:
#
# PCOD9296551 Si02
#       6
#     8   8   8   8   8   8
#     4  12  22  45  69  96 137 181 224 277 335 409
#     4  12  22  45  69  96 137 181 224 277 335 409
#     4  10  25  42  68  97 139 175 226 274 344 392
#     4  10  23  45  68 100 136 180 224 281 337 402
#     4  10  25  42  68  97 139 175 226 274 344 392
#     4  12  22  42  66 102 126 180 228 272 332 404
#
# _framework density 23.860191
#
# number of rings (size 3 to 8) (size 9 to 14) (size 15 to 20)
#    1.000    0.000    3.333    4.500    0.000    1.333 
#    0.000    0.000    0.000    0.000    0.000    0.000 
#    0.000    0.000    0.000    0.000    0.000    0.000 
#
# Total GULP energy -134100.949913 kJ/mol
# GULP energy per Si atom -5587.539580 kJ/mol
# Density = 2.380588 g / cm^3
# Si number density = 23.860191 Si / 1000 Ang^3
#
#
#
# Elastic Constant Matrix: (Units=GPa)
#
#
# Indices 1 2 3 4 5 6 
#
# 1 67.6832 -8.5910 -1.2811 0.0000 13.7486 0.0000
# 2 -8.5910 75.5705 -2.0045 0.0000 6.0366 0.0000
# 3 -1.2811 -2.0045 66.4872 0.0000 2.1465 0.0000
# 4 0.0000 0.0000 0.0000 22.0213 0.0000 -1.4178
# 5 13.7486 6.0366 2.1465 0.0000 37.9315 0.0000
# 6 0.0000 0.0000 0.0000 -1.4178 0.0000 7.7322
#
#
#
# Elastic Compliance Matrix: (Units=1/GPa)
#
#
# Indices 1 2 3 4 5 6 
#
# 1 0.016378 0.002385 0.000592 0.000000 -0.006350 0.000000
# 2 0.002385 0.013765 0.000561 0.000000 -0.003087 0.000000
# 3 0.000592 0.000561 0.015106 0.000000 -0.001159 0.000000
# 4 0.000000 0.000000 0.000000 0.045953 0.000000 0.008426
# 5 -0.006350 -0.003087 -0.001159 0.000000 0.029222 0.000000
# 6 0.000000 0.000000 0.000000 0.008426 0.000000 0.130875
#
#
# Mechanical properties :
#
#
# Convention : Reuss Voigt Hill
#
# Bulk Modulus (GPa) = 19.11103 20.66530 19.88816
# Shear Modulus (GPa) = 19.10837 28.31150 23.70993
#
# Velocity S-wave (km/s) = 2.83299 3.44838 3.15572
# Velocity P-wave (km/s) = 4.32760 4.95327 4.65097
#
# Compressibility (1/GPa) = 0.05232579
#
# Stress axis : x y z
#
# Youngs Moduli (GPa) = 61.05587 72.64681 66.19788
#
# Poissons Ratio (x) = -0.17325 -0.03922
# Poissons Ratio (y) = -0.14561 -0.03711
# Poissons Ratio (z) = -0.03617 -0.04073
#
# Static dielectric constant tensor:
#      x y z
#    x 1.956550 0.000000 0.005520 
#    y 0.000000 1.881020 0.000000 
#    z 0.005520 0.000000 1.909470 
# 
# From -- ./inp_files/243464.got.cif
#   From: 2010.05.17/outbox.cif.g08.bks.cpg/sg15_122_cif.got.tgz:243464.got - 2010.06.03 18:47:42.
