data_PCOD9296498
_publ_section_title
;
Structure prediction by ZEFSAII (Michael W. Deem and Ramdas Pophale) SiO2 
 PCOD9296498
Probable space group: C 2/C
;
_chemical_formula_sum "Si O2"
_cell_formula_units_Z 36
_cell_length_a 8.429450
_cell_length_b 21.462657
_cell_length_c 8.344454
_cell_angle_alpha 90.000000
_cell_angle_beta 93.198773
_cell_angle_gamma 90.000000
_cell_volume 1507.313097
_symmetry_space_group_name_H-M "C 2/C"
_symmetry_group_IT_number 15
_symmetry_cell_setting 'monoclinic'
loop_
_space_group_symop_operation_xyz
x,y,z
-x,y,1/2-z
-x,-y,-z
x,-y,1/2+z
1/2+x,1/2+y,z
1/2-x,1/2+y,1/2-z
1/2-x,1/2-y,-z
1/2+x,1/2-y,1/2+z
loop_
_atom_site_type_symbol
_atom_site_label
_atom_site_fract_x
_atom_site_fract_y
_atom_site_fract_z
Si Si1 0.337819 0.502288 0.387805
Si Si2 0.951321 0.808193 0.070199
Si Si3 0.569618 0.814692 0.079908
Si Si4 0.000000 0.886337 0.750000
Si Si5 0.628330 0.951595 0.145094
O O1 0.500000 0.500000 0.500000
O O2 0.357639 0.565036 0.281992
O O3 0.284526 0.445817 0.270302
O O4 0.199239 0.510653 0.505759
O O5 0.759554 0.810567 0.065923
O O6 0.000000 0.828549 0.250000
O O7 0.001847 0.735913 0.045067
O O8 0.010989 0.846387 0.915721
O O9 0.500000 0.796003 0.250000
O O10 0.546995 0.888823 0.075738
O O11 0.500000 0.983748 0.250000
#
# Coordination Sequence:
#
# PCOD9296498 Si02
#       5
#     8   8   8   4   8
#     4  12  24  43  71 103 138 186 241 290 347 424
#     4  11  25  45  73 101 139 188 232 295 351 406
#     4  10  23  45  66 102 144 178 238 285 347 432
#     4  12  24  44  74 108 140 168 258 288 340 430
#     4  11  24  43  67 101 146 185 227 296 359 421
#
# _framework density 23.883558000000001
#
# number of rings (size 3 to 8) (size 9 to 14) (size 15 to 20)
#    0.000    0.889    5.556    0.667    3.111    0.889 
#    0.000    5.556    0.000    0.000    0.000    0.000 
#    0.000    0.000    0.000    0.000    0.000    0.000 
#
# Total GULP energy -100263.583026 kJ/mol
# GULP energy per Si atom -5570.199057 kJ/mol
# Density = 2.382920 g / cm^3
# Si number density = 23.883558 Si / 1000 Ang^3
#
#
#
# Elastic Constant Matrix: (Units=GPa)
#
#
# Indices 1 2 3 4 5 6 
#
# 1 67.3431 18.8336 52.8052 0.0000 -19.2774 0.0000
# 2 18.8336 107.6154 72.9302 0.0000 5.9611 0.0000
# 3 52.8052 72.9302 179.3359 0.0000 -18.7541 0.0000
# 4 0.0000 0.0000 0.0000 50.7166 0.0000 -32.6013
# 5 -19.2774 5.9611 -18.7541 0.0000 45.2584 0.0000
# 6 0.0000 0.0000 0.0000 -32.6013 0.0000 34.6161
#
#
#
# Elastic Compliance Matrix: (Units=1/GPa)
#
#
# Indices 1 2 3 4 5 6 
#
# 1 0.021103 -0.000480 -0.005302 0.000000 0.006855 0.000000
# 2 -0.000480 0.013581 -0.005843 0.000000 -0.004415 0.000000
# 3 -0.005302 -0.005843 0.009782 0.000000 0.002565 0.000000
# 4 0.000000 0.000000 0.000000 0.049968 0.000000 0.047060
# 5 0.006855 -0.004415 0.002565 0.000000 0.026659 0.000000
# 6 0.000000 0.000000 0.000000 0.047060 0.000000 0.073209
#
#
# Mechanical properties :
#
#
# Convention : Reuss Voigt Hill
#
# Bulk Modulus (GPa) = 47.13494 71.49249 59.31371
# Shear Modulus (GPa) = 22.25948 40.09992 31.17970
#
# Velocity S-wave (km/s) = 3.05618 4.10198 3.61707
# Velocity P-wave (km/s) = 5.67731 7.24111 6.50636
#
# Compressibility (1/GPa) = 0.02121569
#
# Stress axis : x y z
#
# Youngs Moduli (GPa) = 47.38658 73.63357 102.23239
#
# Poissons Ratio (x) = 0.03534 0.54200
# Poissons Ratio (y) = 0.02275 0.59736
# Poissons Ratio (z) = 0.25123 0.43025
#
# Static dielectric constant tensor:
#      x y z
#    x 1.973290 0.000000 0.066740 
#    y 0.000000 1.994370 0.000000 
#    z 0.066740 0.000000 1.975750 
# 
# From -- ./inp_files/22527.got.cif
#   From: 2010.05.17/outbox.cif.g08.bks.cpg/sg15_12_cif.got.tgz:22527.got - 2010.06.03 18:47:42.
