data_PCOD9296588
_publ_section_title
;
Structure prediction by ZEFSAII (Michael W. Deem and Ramdas Pophale) SiO2 
 PCOD9296588
Probable space group: C 2/C
;
_chemical_formula_sum "Si O2"
_cell_formula_units_Z 40
_cell_length_a 19.695996
_cell_length_b 17.952822
_cell_length_c 14.696819
_cell_angle_alpha 90.000000
_cell_angle_beta 161.455943
_cell_angle_gamma 90.000000
_cell_volume 1652.750321
_symmetry_space_group_name_H-M "C 2/C"
_symmetry_group_IT_number 15
_symmetry_cell_setting 'monoclinic'
loop_
_space_group_symop_operation_xyz
x,y,z
-x,y,1/2-z
-x,-y,-z
x,-y,1/2+z
1/2+x,1/2+y,z
1/2-x,1/2+y,1/2-z
1/2-x,1/2-y,-z
1/2+x,1/2-y,1/2+z
loop_
_atom_site_type_symbol
_atom_site_label
_atom_site_fract_x
_atom_site_fract_y
_atom_site_fract_z
Si Si1 0.767165 0.337262 0.500109
Si Si2 0.957396 0.450742 0.856411
Si Si3 0.553328 0.892249 0.218385
Si Si4 0.286891 0.337949 0.345815
Si Si5 0.881600 0.828513 0.875587
O O1 0.750000 0.250000 0.500000
O O2 0.776275 0.390609 0.599835
O O3 0.567673 0.351468 0.180917
O O4 0.000000 0.350007 0.750000
O O5 0.000000 0.500000 0.000000
O O6 0.917714 0.519106 0.736863
O O7 0.165449 0.399125 0.130823
O O8 0.332244 0.875429 0.884393
O O9 0.500000 0.859474 0.250000
O O10 0.737169 0.857871 0.387678
O O11 0.523970 0.336583 0.606763
O O12 0.183687 0.257541 0.194331
#
# Coordination Sequence:
#
# PCOD9296588 Si02
#       5
#     8   8   8   8   8
#     4  12  23  41  76 110 145 189 251 309 374 448
#     4  10  23  45  69 102 156 182 235 317 367 442
#     4  11  27  47  71 100 149 199 243 309 378 448
#     4  11  23  45  71 107 141 184 253 311 358 453
#     4  12  23  44  78 103 144 191 249 305 377 433
#
# _framework density 24.202082999999998
#
# number of rings (size 3 to 8) (size 9 to 14) (size 15 to 20)
#    0.000    0.800    6.000    0.600    0.000    2.400 
#    0.000    0.000    4.400    0.000    0.000    0.000 
#    0.000    0.000    0.000    0.000    0.000    0.000 
#
# Total GULP energy -111595.654279 kJ/mol
# GULP energy per Si atom -5579.782714 kJ/mol
# Density = 2.414700 g / cm^3
# Si number density = 24.202083 Si / 1000 Ang^3
#
#
#
# Elastic Constant Matrix: (Units=GPa)
#
#
# Indices 1 2 3 4 5 6 
#
# 1 134.4801 19.4338 34.7561 0.0000 2.6170 0.0000
# 2 19.4338 142.8880 32.9196 0.0000 8.3322 0.0000
# 3 34.7561 32.9196 96.1099 0.0001 0.8372 0.0001
# 4 0.0000 0.0000 0.0001 17.8717 0.0000 7.9338
# 5 2.6170 8.3322 0.8372 0.0000 48.5116 0.0000
# 6 0.0000 0.0000 0.0001 7.9338 0.0000 20.1945
#
#
#
# Elastic Compliance Matrix: (Units=1/GPa)
#
#
# Indices 1 2 3 4 5 6 
#
# 1 0.008237 -0.000452 -0.002821 0.000000 -0.000318 0.000000
# 2 -0.000452 0.007701 -0.002463 0.000000 -0.001256 0.000000
# 3 -0.002821 -0.002463 0.012266 0.000000 0.000364 0.000000
# 4 0.000000 0.000000 0.000000 0.067775 0.000000 -0.026627
# 5 -0.000318 -0.001256 0.000364 0.000000 0.020840 0.000000
# 6 0.000000 0.000000 0.000000 -0.026627 0.000000 0.059979
#
#
# Mechanical properties :
#
#
# Convention : Reuss Voigt Hill
#
# Bulk Modulus (GPa) = 59.77121 60.85522 60.31321
# Shear Modulus (GPa) = 25.79364 36.40680 31.10022
#
# Velocity S-wave (km/s) = 3.26814 3.88272 3.58861
# Velocity P-wave (km/s) = 6.24430 6.73052 6.49196
#
# Compressibility (1/GPa) = 0.01673046
#
# Stress axis : x y z
#
# Youngs Moduli (GPa) = 121.40901 129.85875 81.52940
#
# Poissons Ratio (x) = 0.05866 0.23000
# Poissons Ratio (y) = 0.05485 0.20083
# Poissons Ratio (z) = 0.34251 0.31989
#
# Static dielectric constant tensor:
#      x y z
#    x 1.816370 0.000000 0.047560 
#    y 0.000000 1.927230 0.000000 
#    z 0.047560 0.000000 1.845650 
# 
# From -- ./inp_files/169232.got.cif
#   From: 2010.05.17/outbox.cif.g08.bks.cpg/sg15_85_cif.got.tgz:169232.got - 2010.06.03 18:47:42.
