data_PCOD9296074
_publ_section_title
;
Structure prediction by ZEFSAII (Michael W. Deem and Ramdas Pophale) SiO2 
 PCOD9296074
Probable space group: C 2/C
;
_chemical_formula_sum "Si O2"
_cell_formula_units_Z 56
_cell_length_a 12.319264
_cell_length_b 7.220115
_cell_length_c 32.833606
_cell_angle_alpha 90.000000
_cell_angle_beta 56.436340
_cell_angle_gamma 90.000000
_cell_volume 2433.516421
_symmetry_space_group_name_H-M "C 2/C"
_symmetry_group_IT_number 15
_symmetry_cell_setting 'monoclinic'
loop_
_space_group_symop_operation_xyz
x,y,z
-x,y,1/2-z
-x,-y,-z
x,-y,1/2+z
1/2+x,1/2+y,z
1/2-x,1/2+y,1/2-z
1/2-x,1/2-y,-z
1/2+x,1/2-y,1/2+z
loop_
_atom_site_type_symbol
_atom_site_label
_atom_site_fract_x
_atom_site_fract_y
_atom_site_fract_z
Si Si1 0.898513 0.071559 0.937612
Si Si2 0.288470 0.387358 0.544951
Si Si3 0.301252 0.298734 0.631740
Si Si4 0.348927 0.680711 0.659326
Si Si5 0.509817 0.678483 0.701579
Si Si6 0.556001 0.837203 0.107183
Si Si7 0.433622 0.743855 0.303946
O O1 0.769400 0.182734 0.951072
O O2 0.023781 0.185686 0.895787
O O3 0.905043 0.871999 0.914540
O O4 0.886770 0.062094 0.988674
O O5 0.339598 0.387600 0.580352
O O6 0.165551 0.526213 0.568039
O O7 0.307733 0.462854 0.663810
O O8 0.154919 0.228860 0.657320
O O9 0.408900 0.146896 0.621169
O O10 0.399583 0.740726 0.693032
O O11 0.219377 0.783926 0.672695
O O12 0.500000 0.741046 0.750000
O O13 0.501108 0.455454 0.703281
O O14 0.553587 0.852933 0.156613
O O15 0.500000 0.828306 0.250000
#
# Coordination Sequence:
#
# PCOD9296074 Si02
#       7
#     8   8   8   8   8   8   8
#     4  10  23  44  66  98 139 165 232 272 325 411
#     4  11  22  44  67  97 133 182 214 278 339 384
#     4  11  23  42  64  97 131 169 234 266 330 413
#     4  11  23  43  65  93 135 171 213 282 323 392
#     4  11  25  42  65  96 131 174 220 278 331 393
#     4  11  23  43  66  98 134 176 222 275 332 397
#     4  11  24  43  65  94 133 172 219 275 332 391
#
# _framework density 23.011966999999999
#
# number of rings (size 3 to 8) (size 9 to 14) (size 15 to 20)
#    0.000    1.143    5.714    0.429    4.000    2.857 
#    2.571    1.429    0.000    0.000    0.000    0.000 
#    0.000    0.000    0.000    0.000    0.000    0.000 
#
# Total GULP energy -156596.620725 kJ/mol
# GULP energy per Si atom -5592.736454 kJ/mol
# Density = 2.295959 g / cm^3
# Si number density = 23.011967 Si / 1000 Ang^3
#
#
#
# Elastic Constant Matrix: (Units=GPa)
#
#
# Indices 1 2 3 4 5 6 
#
# 1 121.6287 0.8214 15.7304 0.0000 22.8571 0.0000
# 2 0.8214 57.7807 4.5638 0.0001 2.2571 0.0001
# 3 15.7304 4.5638 125.1865 0.0000 23.4092 0.0000
# 4 0.0000 0.0001 0.0000 1.8240 0.0000 -4.0779
# 5 22.8571 2.2571 23.4092 0.0000 35.7876 0.0000
# 6 0.0000 0.0001 0.0000 -4.0779 0.0000 30.6044
#
#
#
# Elastic Compliance Matrix: (Units=1/GPa)
#
#
# Indices 1 2 3 4 5 6 
#
# 1 0.009344 0.000104 -0.000069 0.000000 -0.005929 0.000000
# 2 0.000104 0.017377 -0.000489 -0.000001 -0.000843 0.000000
# 3 -0.000069 -0.000489 0.009116 0.000000 -0.005888 0.000000
# 4 0.000000 -0.000001 0.000000 0.780844 -0.000001 0.104044
# 5 -0.005929 -0.000843 -0.005888 -0.000001 0.035634 0.000000
# 6 0.000000 0.000000 0.000000 0.104044 0.000000 0.046538
#
#
# Mechanical properties :
#
#
# Convention : Reuss Voigt Hill
#
# Bulk Modulus (GPa) = 28.62970 38.53633 33.58301
# Shear Modulus (GPa) = 5.48604 32.54189 19.01397
#
# Velocity S-wave (km/s) = 1.54569 3.76457 2.87760
# Velocity P-wave (km/s) = 3.95649 5.97315 5.06618
#
# Compressibility (1/GPa) = 0.03492876
#
# Stress axis : x y z
#
# Youngs Moduli (GPa) = 107.01750 57.54776 109.70264
#
# Poissons Ratio (x) = -0.00600 0.00759
# Poissons Ratio (y) = -0.01116 0.05365
# Poissons Ratio (z) = 0.00741 0.02814
#
# Static dielectric constant tensor:
#      x y z
#    x 1.850970 0.000000 0.029020 
#    y 0.000000 1.875960 0.000000 
#    z 0.029020 0.000000 1.879380 
# 
# From -- ./inp_files/310236.got.cif
#   From: 2010.05.17/outbox.cif.g08.bks.cpg/sg15_156_cif.got.tgz:310236.got - 2010.06.03 18:47:42.
