data_PCOD9296135
_publ_section_title
;
Structure prediction by ZEFSAII (Michael W. Deem and Ramdas Pophale) SiO2 
 PCOD9296135
Probable space group: C 2/C
;
_chemical_formula_sum "Si O2"
_cell_formula_units_Z 36
_cell_length_a 11.174117
_cell_length_b 26.825006
_cell_length_c 5.286055
_cell_angle_alpha 90.000000
_cell_angle_beta 74.319297
_cell_angle_gamma 90.000000
_cell_volume 1525.502964
_symmetry_space_group_name_H-M "C 2/C"
_symmetry_group_IT_number 15
_symmetry_cell_setting 'monoclinic'
loop_
_space_group_symop_operation_xyz
x,y,z
-x,y,1/2-z
-x,-y,-z
x,-y,1/2+z
1/2+x,1/2+y,z
1/2-x,1/2+y,1/2-z
1/2-x,1/2-y,-z
1/2+x,1/2-y,1/2+z
loop_
_atom_site_type_symbol
_atom_site_label
_atom_site_fract_x
_atom_site_fract_y
_atom_site_fract_z
Si Si1 0.500000 0.033799 0.250000
Si Si2 0.645178 0.315849 0.718199
Si Si3 0.364858 0.207305 0.691593
Si Si4 0.141414 0.967144 0.240410
Si Si5 0.204833 0.612841 0.056113
O O1 0.613969 0.071739 0.217655
O O2 0.500000 0.000000 0.500000
O O3 0.500000 0.321920 0.750000
O O4 0.648825 0.264919 0.883980
O O5 0.744741 0.304384 0.438224
O O6 0.691855 0.365992 0.818317
O O7 0.500000 0.205100 0.750000
O O8 0.364504 0.162749 0.492082
O O9 0.000000 0.952428 0.250000
O O10 0.165719 0.996663 0.485710
O O11 0.224688 0.917933 0.200216
#
# Coordination Sequence:
#
# PCOD9296135 Si02
#       5
#     4   8   8   8   8
#     4  12  30  50  76 112 150 200 264 320 372 458
#     4  10  24  42  69 108 148 188 247 309 380 456
#     4  10  23  44  68 103 148 194 244 308 373 460
#     4  10  24  43  65  97 136 178 230 297 359 429
#     4  12  25  41  75  98 140 192 243 305 375 444
#
# _framework density 23.598773000000001
#
# number of rings (size 3 to 8) (size 9 to 14) (size 15 to 20)
#    0.000    1.333    0.000    3.333   10.889    0.889 
#    0.000    6.667    0.000    0.000    0.000    0.000 
#    0.000    0.000    0.000    0.000    0.000    0.000 
#
# Total GULP energy -100564.378555 kJ/mol
# GULP energy per Si atom -5586.909920 kJ/mol
# Density = 2.354506 g / cm^3
# Si number density = 23.598773 Si / 1000 Ang^3
#
#
#
# Elastic Constant Matrix: (Units=GPa)
#
#
# Indices 1 2 3 4 5 6 
#
# 1 158.2438 60.1153 26.6501 0.0000 -14.4732 0.0000
# 2 60.1153 150.7701 30.6326 0.0000 -17.3588 0.0000
# 3 26.6501 30.6326 59.3591 0.0000 -7.5124 0.0000
# 4 0.0000 0.0000 0.0000 15.4150 0.0000 -17.7200
# 5 -14.4732 -17.3588 -7.5124 0.0000 23.4927 0.0000
# 6 0.0000 0.0000 0.0000 -17.7200 0.0000 10.3696
#
#
#
# Elastic Compliance Matrix: (Units=1/GPa)
#
#
# Indices 1 2 3 4 5 6 
#
# 1 0.007789 -0.002438 -0.001938 0.000000 0.002377 0.000000
# 2 -0.002438 0.008644 -0.002864 0.000000 0.003969 0.000000
# 3 -0.001938 -0.002864 0.019567 0.000000 0.002947 0.000000
# 4 0.000000 0.000000 0.000000 -0.067268 0.000000 -0.114951
# 5 0.002377 0.003969 0.002947 0.000000 0.047906 0.000000
# 6 0.000000 0.000000 0.000000 -0.114951 0.000000 -0.099998
#
#
# Mechanical properties :
#
#
# Convention : Reuss Voigt Hill
#
# Bulk Modulus (GPa) = 46.46676 67.01878 56.74277
# Shear Modulus (GPa) = -81.02921 26.58711 -27.22105
#
# Velocity S-wave (km/s) = -5.86607 3.36017 -3.40000
# Velocity P-wave (km/s) = 5.11350 6.59661 2.94681
#
# Compressibility (1/GPa) = 0.02152076
#
# Stress axis : x y z
#
# Youngs Moduli (GPa) = 128.37795 115.69259 51.10527
#
# Poissons Ratio (x) = 0.28210 0.09904
# Poissons Ratio (y) = 0.31303 0.14634
# Poissons Ratio (z) = 0.24880 0.33129
#
# Static dielectric constant tensor:
#      x y z
#    x 1.879650 0.000000 0.026150 
#    y 0.000000 1.841810 0.000000 
#    z 0.026150 0.000000 1.922950 
# 
# From -- ./inp_files/4266.got.cif
#   From: 2010.05.17/outbox.cif.g08.bks.cpg/sg15_3_cif.got.tgz:4266.got - 2010.06.03 18:47:42.
