data_PCOD9296640
_publ_section_title
;
Structure prediction by ZEFSAII (Michael W. Deem and Ramdas Pophale) SiO2 
 PCOD9296640
Probable space group: C 2/C
;
_chemical_formula_sum "Si O2"
_cell_formula_units_Z 32
_cell_length_a 18.845980
_cell_length_b 5.088785
_cell_length_c 24.645546
_cell_angle_alpha 90.000000
_cell_angle_beta 35.403074
_cell_angle_gamma 90.000000
_cell_volume 1369.283803
_symmetry_space_group_name_H-M "C 2/C"
_symmetry_group_IT_number 15
_symmetry_cell_setting 'monoclinic'
loop_
_space_group_symop_operation_xyz
x,y,z
-x,y,1/2-z
-x,-y,-z
x,-y,1/2+z
1/2+x,1/2+y,z
1/2-x,1/2+y,1/2-z
1/2-x,1/2-y,-z
1/2+x,1/2-y,1/2+z
loop_
_atom_site_type_symbol
_atom_site_label
_atom_site_fract_x
_atom_site_fract_y
_atom_site_fract_z
Si Si1 0.279405 0.426388 0.834003
Si Si2 0.960336 0.246131 0.559453
Si Si3 0.851972 0.380133 0.974712
Si Si4 0.441842 0.074832 0.231393
O O1 0.347865 0.692575 0.772342
O O2 0.183931 0.307322 0.849037
O O3 0.368360 0.186398 0.789883
O O4 0.213760 0.485074 0.933072
O O5 0.043129 0.206983 0.560949
O O6 0.000000 0.500000 0.500000
O O7 0.000000 0.000000 0.500000
O O8 0.945830 0.524997 0.876183
O O9 0.750000 0.250000 0.000000
O O10 0.500000 0.188417 0.250000
#
# Coordination Sequence:
#
# PCOD9296640 Si02
#       4
#     8   8   8   8
#     4  11  25  47  70 102 148 181 240 299 350 429
#     4  10  23  45  71 103 140 185 232 291 355 422
#     4  11  25  47  75 106 143 194 236 296 367 422
#     4  12  26  43  72 106 142 187 241 297 356 424
#
# _framework density 23.369883000000002
#
# number of rings (size 3 to 8) (size 9 to 14) (size 15 to 20)
#    0.000    1.000    2.500    3.750    0.000    9.000 
#    0.000    0.000    0.000    0.000    0.000    0.000 
#    0.000    0.000    0.000    0.000    0.000    0.000 
#
# Total GULP energy -89147.063867 kJ/mol
# GULP energy per Si atom -5571.691492 kJ/mol
# Density = 2.331669 g / cm^3
# Si number density = 23.369883 Si / 1000 Ang^3
#
#
#
# Elastic Constant Matrix: (Units=GPa)
#
#
# Indices 1 2 3 4 5 6 
#
# 1 157.8418 12.5245 45.3175 -0.1868 -18.0312 0.0574
# 2 12.5245 120.5996 51.4664 -0.1457 -5.1599 -0.1076
# 3 45.3175 51.4664 167.3424 0.0063 -14.2871 -0.0231
# 4 -0.1868 -0.1457 0.0063 30.9158 0.0303 -11.8007
# 5 -18.0312 -5.1599 -14.2871 0.0303 24.7741 0.0002
# 6 0.0574 -0.1076 -0.0231 -11.8007 0.0002 16.2920
#
#
#
# Elastic Compliance Matrix: (Units=1/GPa)
#
#
# Indices 1 2 3 4 5 6 
#
# 1 0.007298 0.000131 -0.001642 0.000042 0.004392 0.000003
# 2 0.000131 0.009549 -0.002939 0.000094 0.000389 0.000127
# 3 -0.001642 -0.002939 0.007541 -0.000040 0.002542 -0.000032
# 4 0.000042 0.000094 -0.000040 0.044708 -0.000028 0.032383
# 5 0.004392 0.000389 0.002542 -0.000028 0.045109 -0.000030
# 6 0.000003 0.000127 -0.000032 0.032383 -0.000030 0.084837
#
#
# Mechanical properties :
#
#
# Convention : Reuss Voigt Hill
#
# Bulk Modulus (GPa) = 64.56276 73.82227 69.19252
# Shear Modulus (GPa) = 23.46263 36.82807 30.14535
#
# Velocity S-wave (km/s) = 3.17198 3.97404 3.59545
# Velocity P-wave (km/s) = 6.41107 7.26048 6.84895
#
# Compressibility (1/GPa) = 0.01548880
#
# Stress axis : x y z
#
# Youngs Moduli (GPa) = 137.02007 104.71767 132.60336
#
# Poissons Ratio (x) = -0.01368 0.21768
# Poissons Ratio (y) = -0.01789 0.38974
# Poissons Ratio (z) = 0.22493 0.30778
#
# Static dielectric constant tensor:
#      x y z
#    x 2.083160 -0.000200 0.044450 
#    y -0.000200 1.842240 0.000190 
#    z 0.044450 0.000190 2.126610 
# 
# From -- ./inp_files/164783.got.cif
#   From: 2010.05.17/outbox.cif.g08.bks.cpg/sg15_83_cif.got.tgz:164783.got - 2010.06.03 18:47:42.
