data_PCOD9296830
_publ_section_title
;
Structure prediction by ZEFSAII (Michael W. Deem and Ramdas Pophale) SiO2 
 PCOD9296830
Probable space group: C 2/C
;
_chemical_formula_sum "Si O2"
_cell_formula_units_Z 60
_cell_length_a 14.351792
_cell_length_b 9.583340
_cell_length_c 23.947389
_cell_angle_alpha 90.000000
_cell_angle_beta 115.685054
_cell_angle_gamma 90.000000
_cell_volume 2968.230447
_symmetry_space_group_name_H-M "C 2/C"
_symmetry_group_IT_number 15
_symmetry_cell_setting 'monoclinic'
loop_
_space_group_symop_operation_xyz
x,y,z
-x,y,1/2-z
-x,-y,-z
x,-y,1/2+z
1/2+x,1/2+y,z
1/2-x,1/2+y,1/2-z
1/2-x,1/2-y,-z
1/2+x,1/2-y,1/2+z
loop_
_atom_site_type_symbol
_atom_site_label
_atom_site_fract_x
_atom_site_fract_y
_atom_site_fract_z
Si Si1 0.514403 0.391855 0.552633
Si Si2 0.500000 0.219001 0.750000
Si Si3 0.244953 0.188878 0.131711
Si Si4 0.959761 0.281466 0.636131
Si Si5 0.370519 0.966299 0.759002
Si Si6 0.044343 0.641643 0.037331
Si Si7 0.271770 0.008115 0.353416
Si Si8 0.046492 0.962122 0.842153
O O1 0.500000 0.500000 0.500000
O O2 0.637649 0.390876 0.596177
O O3 0.469547 0.250089 0.515840
O O4 0.453091 0.430318 0.592355
O O5 0.491668 0.328663 0.799372
O O6 0.405443 0.109324 0.736809
O O7 0.337658 0.187990 0.110726
O O8 0.305270 0.132388 0.201408
O O9 0.209500 0.348309 0.125807
O O10 0.026450 0.390236 0.690256
O O11 0.987241 0.301390 0.578261
O O12 0.987291 0.126001 0.666917
O O13 0.301507 0.984886 0.796359
O O14 0.157675 0.608396 0.090724
O O15 0.000000 0.500000 0.000000
O O16 0.154213 0.038477 0.337405
#
# Coordination Sequence:
#
# PCOD9296830 Si02
#       8
#     8   4   8   8   8   8   8   8
#     4  12  26  45  68 103 141 179 234 292 346 406
#     4  12  26  42  68 106 142 172 224 304 344 400
#     4  11  23  42  72  95 134 187 229 279 344 418
#     4  10  23  46  69 100 135 187 230 276 353 423
#     4  11  24  44  69 103 139 179 232 287 347 417
#     4  11  23  45  72  97 139 180 234 288 334 414
#     4  10  25  43  69 100 132 187 229 278 350 412
#     4  11  27  44  68 103 141 180 228 288 352 414
#
# _framework density 20.214064
#
# number of rings (size 3 to 8) (size 9 to 14) (size 15 to 20)
#    0.000    1.067    4.000    0.800    9.333    3.200 
#    0.000    0.000    0.000    0.000    0.000    0.000 
#    0.000    0.000    0.000    0.000    0.000    0.000 
#
# Total GULP energy -167315.498574 kJ/mol
# GULP energy per Si atom -5577.183286 kJ/mol
# Density = 2.016806 g / cm^3
# Si number density = 20.214064 Si / 1000 Ang^3
#
#
#
# Elastic Constant Matrix: (Units=GPa)
#
#
# Indices 1 2 3 4 5 6 
#
# 1 80.2737 34.8200 26.5747 0.0000 -15.2776 0.0000
# 2 34.8200 79.4136 7.6818 0.0000 -13.4514 0.0000
# 3 26.5747 7.6818 55.5080 0.0000 -17.6052 0.0000
# 4 0.0000 0.0000 0.0000 41.7615 0.0000 -0.5427
# 5 -15.2776 -13.4514 -17.6052 0.0000 24.2996 0.0000
# 6 0.0000 0.0000 0.0000 -0.5427 0.0000 25.1208
#
#
#
# Elastic Compliance Matrix: (Units=1/GPa)
#
#
# Indices 1 2 3 4 5 6 
#
# 1 0.018243 -0.006882 -0.006949 0.000000 0.002626 0.000000
# 2 -0.006882 0.016511 0.003293 0.000000 0.007199 0.000000
# 3 -0.006949 0.003293 0.026069 0.000000 0.016342 0.000000
# 4 0.000000 0.000000 0.000000 0.023952 0.000000 0.000517
# 5 0.002626 0.007199 0.016342 0.000000 0.058628 0.000000
# 6 0.000000 0.000000 0.000000 0.000517 0.000000 0.039819
#
#
# Mechanical properties :
#
#
# Convention : Reuss Voigt Hill
#
# Bulk Modulus (GPa) = 25.15876 39.26093 32.20985
# Shear Modulus (GPa) = 22.98366 27.97761 25.48064
#
# Velocity S-wave (km/s) = 3.37562 3.72434 3.55426
# Velocity P-wave (km/s) = 5.25987 6.16109 5.72823
#
# Compressibility (1/GPa) = 0.03974759
#
# Stress axis : x y z
#
# Youngs Moduli (GPa) = 54.81696 60.56734 38.35924
#
# Poissons Ratio (x) = 0.41681 0.26654
# Poissons Ratio (y) = 0.37724 -0.12632
# Poissons Ratio (z) = 0.38090 -0.19945
#
# Static dielectric constant tensor:
#      x y z
#    x 1.783500 0.000000 0.038150 
#    y 0.000000 1.602550 0.000000 
#    z 0.038150 0.000000 1.755920 
# 
# From -- ./inp_files/273227.got.cif
#   From: 2010.05.17/outbox.cif.g08.bks.cpg/sg15_137_cif.got.tgz:273227.got - 2010.06.03 18:47:42.
