data_PCOD9296219
_publ_section_title
;
Structure prediction by ZEFSAII (Michael W. Deem and Ramdas Pophale) SiO2 
 PCOD9296219
Probable space group: C 2/C
;
_chemical_formula_sum "Si O2"
_cell_formula_units_Z 44
_cell_length_a 17.879879
_cell_length_b 11.198589
_cell_length_c 9.049817
_cell_angle_alpha 90.000000
_cell_angle_beta 80.056410
_cell_angle_gamma 90.000000
_cell_volume 1784.819551
_symmetry_space_group_name_H-M "C 2/C"
_symmetry_group_IT_number 15
_symmetry_cell_setting 'monoclinic'
loop_
_space_group_symop_operation_xyz
x,y,z
-x,y,1/2-z
-x,-y,-z
x,-y,1/2+z
1/2+x,1/2+y,z
1/2-x,1/2+y,1/2-z
1/2-x,1/2-y,-z
1/2+x,1/2-y,1/2+z
loop_
_atom_site_type_symbol
_atom_site_label
_atom_site_fract_x
_atom_site_fract_y
_atom_site_fract_z
Si Si1 0.500000 0.555036 0.250000
Si Si2 0.680658 0.767848 0.633437
Si Si3 0.192724 0.881019 0.428866
Si Si4 0.918787 0.466478 0.702645
Si Si5 0.132554 0.650398 0.575865
Si Si6 0.590311 0.604388 0.484904
O O1 0.552506 0.627596 0.341786
O O2 0.458723 0.468214 0.379577
O O3 0.750000 0.750000 0.500000
O O4 0.693899 0.679517 0.767112
O O5 0.653131 0.893977 0.703402
O O6 0.610843 0.723240 0.560512
O O7 0.136049 0.791919 0.538503
O O8 0.277184 0.879713 0.465690
O O9 0.160398 0.014018 0.432889
O O10 0.913604 0.422575 0.534789
O O11 0.000000 0.436424 0.750000
O O12 0.899074 0.601914 0.757889
#
# Coordination Sequence:
#
# PCOD9296219 Si02
#       6
#     4   8   8   8   8   8
#     4  10  24  38  66 100 134 176 212 278 348 404
#     4  11  25  43  71 101 134 182 229 279 342 405
#     4  10  23  44  69  97 138 173 228 295 330 404
#     4  11  25  45  69  97 139 184 222 283 340 412
#     4  10  24  44  68  96 134 179 228 274 339 397
#     4  11  22  43  67 101 135 175 224 281 346 412
#
# _framework density 24.652352
#
# number of rings (size 3 to 8) (size 9 to 14) (size 15 to 20)
#    0.000    1.455    1.818    1.636    6.364    5.818 
#    1.636    0.000    0.000    0.000    0.000    0.000 
#    0.000    0.000    0.000    0.000    0.000    0.000 
#
# Total GULP energy -123012.683601 kJ/mol
# GULP energy per Si atom -5591.485618 kJ/mol
# Density = 2.459624 g / cm^3
# Si number density = 24.652352 Si / 1000 Ang^3
#
#
#
# Elastic Constant Matrix: (Units=GPa)
#
#
# Indices 1 2 3 4 5 6 
#
# 1 81.9162 -2.4501 33.9624 0.0000 24.9096 0.0000
# 2 -2.4501 63.4881 15.4917 0.0000 2.9696 0.0000
# 3 33.9624 15.4917 107.2322 0.0000 16.1918 0.0000
# 4 0.0000 0.0000 0.0000 -40.3552 0.0000 78.5657
# 5 24.9096 2.9696 16.1918 0.0000 55.9723 0.0000
# 6 0.0000 0.0000 0.0000 78.5657 0.0000 -103.6492
#
#
#
# Elastic Compliance Matrix: (Units=1/GPa)
#
#
# Indices 1 2 3 4 5 6 
#
# 1 0.015896 0.001970 -0.004429 0.000000 -0.005898 0.000000
# 2 0.001970 0.016573 -0.002879 0.000000 -0.000923 0.000000
# 3 -0.004429 -0.002879 0.011318 0.000000 -0.001150 0.000000
# 4 0.000000 0.000000 0.000000 0.052091 0.000000 0.039485
# 5 -0.005898 -0.000923 -0.001150 0.000000 0.020872 0.000000
# 6 0.000000 0.000000 0.000000 0.039485 0.000000 0.020281
#
#
# Mechanical properties :
#
#
# Convention : Reuss Voigt Hill
#
# Bulk Modulus (GPa) = 30.20092 38.51605 34.35849
# Shear Modulus (GPa) = 31.49746 -3.89757 13.79994
#
# Velocity S-wave (km/s) = 3.57832 -1.25875 2.36854
# Velocity P-wave (km/s) = 5.41755 3.68035 4.63114
#
# Compressibility (1/GPa) = 0.03311157
#
# Stress axis : x y z
#
# Youngs Moduli (GPa) = 62.90886 60.34048 88.35656
#
# Poissons Ratio (x) = -0.11887 0.39130
# Poissons Ratio (y) = -0.12393 0.25436
# Poissons Ratio (z) = 0.27860 0.17371
#
# Static dielectric constant tensor:
#      x y z
#    x 2.030850 0.000000 -0.018920 
#    y 0.000000 1.920380 0.000000 
#    z -0.018920 0.000000 1.929160 
# 
# From -- ./inp_files/54430.got.cif
#   From: 2010.05.17/outbox.cif.g08.bks.cpg/sg15_28_cif.got.tgz:54430.got - 2010.06.03 18:47:42.
