data_PCOD9296103
_publ_section_title
;
Structure prediction by ZEFSAII (Michael W. Deem and Ramdas Pophale) SiO2 
 PCOD9296103
Probable space group: C 2/C
;
_chemical_formula_sum "Si O2"
_cell_formula_units_Z 60
_cell_length_a 14.352920
_cell_length_b 9.004887
_cell_length_c 21.639688
_cell_angle_alpha 90.000000
_cell_angle_beta 82.583194
_cell_angle_gamma 90.000000
_cell_volume 2773.451955
_symmetry_space_group_name_H-M "C 2/C"
_symmetry_group_IT_number 15
_symmetry_cell_setting 'monoclinic'
loop_
_space_group_symop_operation_xyz
x,y,z
-x,y,1/2-z
-x,-y,-z
x,-y,1/2+z
1/2+x,1/2+y,z
1/2-x,1/2+y,1/2-z
1/2-x,1/2-y,-z
1/2+x,1/2-y,1/2+z
loop_
_atom_site_type_symbol
_atom_site_label
_atom_site_fract_x
_atom_site_fract_y
_atom_site_fract_z
Si Si1 0.208682 0.609544 0.541062
Si Si2 0.291932 0.239975 0.262979
Si Si3 0.497902 0.419396 0.821907
Si Si4 0.825361 0.094752 0.116402
Si Si5 0.138293 0.423352 0.435275
Si Si6 0.500000 0.126867 0.250000
Si Si7 0.969417 0.403852 0.363882
Si Si8 0.789212 0.045026 0.329467
O O1 0.250000 0.750000 0.500000
O O2 0.288671 0.526355 0.572261
O O3 0.159672 0.488627 0.500240
O O4 0.128967 0.645161 0.598384
O O5 0.249721 0.146102 0.324718
O O6 0.402703 0.211219 0.243612
O O7 0.278349 0.410324 0.281853
O O8 0.232417 0.191375 0.208299
O O9 0.500000 0.461080 0.750000
O O10 0.583602 0.471757 0.856400
O O11 0.510346 0.241966 0.827007
O O12 0.392602 0.462299 0.849985
O O13 0.845759 0.247026 0.076480
O O14 0.211236 0.513272 0.386468
O O15 0.036459 0.450320 0.414677
O O16 0.471824 0.029382 0.311982
#
# Coordination Sequence:
#
# PCOD9296103 Si02
#       8
#     8   8   8   8   8   4   8   8
#     4  12  25  45  68  99 133 176 233 288 319 388
#     4  11  24  39  66  97 138 170 220 278 339 398
#     4  11  22  40  66  96 138 173 215 270 347 408
#     4  10  23  44  67  96 131 181 221 268 340 403
#     4  10  23  45  65  93 131 184 226 264 338 403
#     4  12  22  40  64 104 136 164 220 274 346 396
#     4  11  23  41  70  99 131 177 219 280 337 401
#     4  11  24  41  64 101 135 179 222 276 337 404
#
# _framework density 21.633690999999999
#
# number of rings (size 3 to 8) (size 9 to 14) (size 15 to 20)
#    0.000    1.067    4.667    1.600    2.800    1.067 
#    2.400    7.333    0.000    0.000    0.000    0.000 
#    0.000    0.000    0.000    0.000    0.000    0.000 
#
# Total GULP energy -167693.973934 kJ/mol
# GULP energy per Si atom -5589.799131 kJ/mol
# Density = 2.158445 g / cm^3
# Si number density = 21.633691 Si / 1000 Ang^3
#
#
#
# Elastic Constant Matrix: (Units=GPa)
#
#
# Indices 1 2 3 4 5 6 
#
# 1 127.7478 32.6081 53.0133 0.0000 18.3361 0.0000
# 2 32.6081 52.7846 41.3706 0.0000 15.3335 0.0000
# 3 53.0133 41.3706 92.2578 0.0000 15.8769 0.0000
# 4 0.0000 0.0000 0.0000 42.5503 0.0000 2.2724
# 5 18.3361 15.3335 15.8769 0.0000 43.9024 0.0000
# 6 0.0000 0.0000 0.0000 2.2724 0.0000 29.0248
#
#
#
# Elastic Compliance Matrix: (Units=1/GPa)
#
#
# Indices 1 2 3 4 5 6 
#
# 1 0.010670 -0.002291 -0.004772 0.000000 -0.001931 0.000000
# 2 -0.002291 0.031172 -0.011680 0.000000 -0.005707 0.000000
# 3 -0.004772 -0.011680 0.018953 0.000000 -0.000782 0.000000
# 4 0.000000 0.000000 0.000000 0.023600 0.000000 -0.001848
# 5 -0.001931 -0.005707 -0.000782 0.000000 0.025860 0.000000
# 6 0.000000 0.000000 0.000000 -0.001848 0.000000 0.034598
#
#
# Mechanical properties :
#
#
# Convention : Reuss Voigt Hill
#
# Bulk Modulus (GPa) = 42.89906 58.53046 50.71476
# Shear Modulus (GPa) = 26.30079 32.81539 29.55809
#
# Velocity S-wave (km/s) = 3.49052 3.89892 3.70036
# Velocity P-wave (km/s) = 6.00980 6.88351 6.46144
#
# Compressibility (1/GPa) = 0.02331054
#
# Stress axis : x y z
#
# Youngs Moduli (GPa) = 93.72135 32.07999 52.76142
#
# Poissons Ratio (x) = 0.07349 0.25176
# Poissons Ratio (y) = 0.21469 0.61625
# Poissons Ratio (z) = 0.44721 0.37469
#
# Static dielectric constant tensor:
#      x y z
#    x 1.808890 0.000000 -0.011500 
#    y 0.000000 1.778990 0.000000 
#    z -0.011500 0.000000 1.783120 
# 
# From -- ./inp_files/272708.got.cif
#   From: 2010.05.17/outbox.cif.g08.bks.cpg/sg15_137_cif.got.tgz:272708.got - 2010.06.03 18:47:42.
