data_PCOD9296866
_publ_section_title
;
Structure prediction by ZEFSAII (Michael W. Deem and Ramdas Pophale) SiO2 
 PCOD9296866
Probable space group: C 2/C
;
_chemical_formula_sum "Si O2"
_cell_formula_units_Z 60
_cell_length_a 14.118488
_cell_length_b 15.612873
_cell_length_c 26.053621
_cell_angle_alpha 90.000000
_cell_angle_beta 29.009462
_cell_angle_gamma 90.000000
_cell_volume 2785.092981
_symmetry_space_group_name_H-M "C 2/C"
_symmetry_group_IT_number 15
_symmetry_cell_setting 'monoclinic'
loop_
_space_group_symop_operation_xyz
x,y,z
-x,y,1/2-z
-x,-y,-z
x,-y,1/2+z
1/2+x,1/2+y,z
1/2-x,1/2+y,1/2-z
1/2-x,1/2-y,-z
1/2+x,1/2-y,1/2+z
loop_
_atom_site_type_symbol
_atom_site_label
_atom_site_fract_x
_atom_site_fract_y
_atom_site_fract_z
Si Si1 0.984933 0.591622 0.844929
Si Si2 0.680752 0.749466 0.123772
Si Si3 0.813372 0.956513 0.563310
Si Si4 0.124814 0.840493 0.379776
Si Si5 0.516340 0.961595 0.570596
Si Si6 0.208434 0.942952 0.625355
Si Si7 0.000000 0.665650 0.250000
Si Si8 0.540297 0.214947 0.117318
O O1 0.884151 0.685010 0.889752
O O2 0.830343 0.525957 0.893072
O O3 0.039123 0.548452 0.873032
O O4 0.184419 0.600833 0.717983
O O5 0.500000 0.748326 0.250000
O O6 0.853760 0.791903 0.075735
O O7 0.713102 0.650367 0.095991
O O8 0.687384 0.896966 0.660545
O O9 0.925119 0.893395 0.471303
O O10 0.000000 0.000000 0.500000
O O11 0.119463 0.770535 0.337457
O O12 0.365542 0.940671 0.596877
O O13 0.519763 0.882682 0.607857
O O14 0.722992 0.983720 0.446179
O O15 0.000000 0.957425 0.750000
O O16 0.987097 0.717850 0.308728
O O17 0.750000 0.250000 0.000000
#
# Coordination Sequence:
#
# PCOD9296866 Si02
#       8
#     8   8   8   8   8   8   4   8
#     4  11  23  41  69 107 138 184 242 302 357 431
#     4   9  19  38  68  96 137 183 231 284 352 425
#     4  12  23  40  70 107 140 184 233 292 365 431
#     4  11  22  43  69  98 146 188 225 304 364 423
#     4  11  24  44  71 102 142 179 245 301 349 436
#     4  10  23  46  70  97 139 198 234 289 367 437
#     4  12  26  46  70 102 142 192 240 296 362 448
#     4  12  25  48  71 103 146 188 240 296 366 434
#
# _framework density 21.543265999999999
#
# number of rings (size 3 to 8) (size 9 to 14) (size 15 to 20)
#    0.000    1.067    5.333    0.800    0.933    2.667 
#    8.400    0.000    0.000    0.000    0.000    0.000 
#    0.000    0.000    0.000    0.000    0.000    0.000 
#
# Total GULP energy -167580.034960 kJ/mol
# GULP energy per Si atom -5586.001165 kJ/mol
# Density = 2.149423 g / cm^3
# Si number density = 21.543266 Si / 1000 Ang^3
#
#
#
# Elastic Constant Matrix: (Units=GPa)
#
#
# Indices 1 2 3 4 5 6 
#
# 1 55.2826 36.5097 18.6246 0.0006 2.0916 -0.0006
# 2 36.5097 97.7343 40.1544 -0.0012 0.2627 0.0014
# 3 18.6246 40.1544 108.1728 -0.0106 -9.7154 0.0013
# 4 0.0006 -0.0012 -0.0106 33.7202 -0.0007 -1.2187
# 5 2.0916 0.2627 -9.7154 -0.0007 35.0150 0.0002
# 6 -0.0006 0.0014 0.0013 -1.2187 0.0002 44.4450
#
#
#
# Elastic Compliance Matrix: (Units=1/GPa)
#
#
# Indices 1 2 3 4 5 6 
#
# 1 0.024193 -0.008565 -0.001138 -0.000001 -0.001697 0.000001
# 2 -0.008565 0.015170 -0.004226 -0.000001 -0.000775 0.000000
# 3 -0.001138 -0.004226 0.011300 0.000003 0.003235 0.000000
# 4 -0.000001 -0.000001 0.000003 0.029685 0.000002 0.000814
# 5 -0.001697 -0.000775 0.003235 0.000002 0.029564 0.000000
# 6 0.000001 0.000000 0.000000 0.000814 0.000000 0.022522
#
#
# Mechanical properties :
#
#
# Convention : Reuss Voigt Hill
#
# Bulk Modulus (GPa) = 43.85305 50.19634 47.02469
# Shear Modulus (GPa) = 29.78056 33.69611 31.73833
#
# Velocity S-wave (km/s) = 3.72204 3.95918 3.84244
# Velocity P-wave (km/s) = 6.23470 6.65214 6.44680
#
# Compressibility (1/GPa) = 0.02280343
#
# Stress axis : x y z
#
# Youngs Moduli (GPa) = 41.33369 65.92016 88.49780
#
# Poissons Ratio (x) = 0.56463 0.10074
# Poissons Ratio (y) = 0.35404 0.37399
# Poissons Ratio (z) = 0.04705 0.27858
#
# Static dielectric constant tensor:
#      x y z
#    x 1.814180 0.000000 0.008170 
#    y 0.000000 1.836250 0.000000 
#    z 0.008170 0.000000 1.782120 
# 
# From -- ./inp_files/296694.got.cif
#   From: 2010.05.17/outbox.cif.g08.bks.cpg/sg15_149_cif.got.tgz:296694.got - 2010.06.03 18:47:42.
