data_PCOD9296132
_publ_section_title
;
Structure prediction by ZEFSAII (Michael W. Deem and Ramdas Pophale) SiO2 
 PCOD9296132
Probable space group: C 2/C
;
_chemical_formula_sum "Si O2"
_cell_formula_units_Z 28
_cell_length_a 16.948290
_cell_length_b 10.784294
_cell_length_c 13.522355
_cell_angle_alpha 90.000000
_cell_angle_beta 155.288031
_cell_angle_gamma 90.000000
_cell_volume 1033.249689
_symmetry_space_group_name_H-M "C 2/C"
_symmetry_group_IT_number 15
_symmetry_cell_setting 'monoclinic'
loop_
_space_group_symop_operation_xyz
x,y,z
-x,y,1/2-z
-x,-y,-z
x,-y,1/2+z
1/2+x,1/2+y,z
1/2-x,1/2+y,1/2-z
1/2-x,1/2-y,-z
1/2+x,1/2-y,1/2+z
loop_
_atom_site_type_symbol
_atom_site_label
_atom_site_fract_x
_atom_site_fract_y
_atom_site_fract_z
Si Si1 0.797321 0.893550 0.566982
Si Si2 0.000000 0.582391 0.250000
Si Si3 0.217390 0.923837 0.711723
Si Si4 0.311396 0.328232 0.247032
O O1 0.750000 0.750000 0.500000
O O2 0.788703 0.910306 0.675910
O O3 0.000000 0.918788 0.750000
O O4 0.637421 0.988902 0.346121
O O5 0.146780 0.662967 0.479082
O O6 0.345163 0.812133 0.818852
O O7 0.011380 0.882155 0.439450
O O8 0.246291 0.071268 0.733581
#
# Coordination Sequence:
#
# PCOD9296132 Si02
#       4
#     8   4   8   8
#     4  11  21  40  69 100 134 178 233 283 331 403
#     4  10  24  44  66 100 136 182 228 278 346 410
#     4  10  23  44  68 103 135 179 229 282 343 408
#     4  10  23  45  68  98 141 176 232 277 342 413
#
# _framework density 27.098969
#
# number of rings (size 3 to 8) (size 9 to 14) (size 15 to 20)
#    0.000    1.714    1.429    1.714    4.000    2.286 
#   15.429    0.000    0.000    0.000    0.000    2.000 
#    0.000    0.000    0.000    0.000    0.000    0.000 
#
# Total GULP energy -78367.702794 kJ/mol
# GULP energy per Si atom -5597.693057 kJ/mol
# Density = 2.703729 g / cm^3
# Si number density = 27.098969 Si / 1000 Ang^3
#
#
#
# Elastic Constant Matrix: (Units=GPa)
#
#
# Indices 1 2 3 4 5 6 
#
# 1 51.5752 -0.0888 28.0166 0.0000 9.9301 0.0000
# 2 -0.0888 152.8499 7.4014 0.0000 21.8026 0.0000
# 3 28.0166 7.4014 146.9120 0.0003 9.4321 0.0001
# 4 0.0000 0.0000 0.0003 41.6118 0.0002 3.0845
# 5 9.9301 21.8026 9.4321 0.0002 39.4590 0.0000
# 6 0.0000 0.0000 0.0001 3.0845 0.0000 41.3553
#
#
#
# Elastic Compliance Matrix: (Units=1/GPa)
#
#
# Indices 1 2 3 4 5 6 
#
# 1 0.022585 0.000957 -0.004018 0.000000 -0.005252 0.000000
# 2 0.000957 0.007144 -0.000278 0.000000 -0.004122 0.000000
# 3 -0.004018 -0.000278 0.007629 0.000000 -0.000659 0.000000
# 4 0.000000 0.000000 0.000000 0.024165 0.000000 -0.001802
# 5 -0.005252 -0.004122 -0.000659 0.000000 0.029099 0.000000
# 6 0.000000 0.000000 0.000000 -0.001802 0.000000 0.024315
#
#
# Mechanical properties :
#
#
# Convention : Reuss Voigt Hill
#
# Bulk Modulus (GPa) = 32.59410 46.88838 39.74124
# Shear Modulus (GPa) = 37.92396 45.55242 41.73819
#
# Velocity S-wave (km/s) = 3.74500 4.10441 3.92881
# Velocity P-wave (km/s) = 5.54562 6.30886 5.93951
#
# Compressibility (1/GPa) = 0.03068040
#
# Stress axis : x y z
#
# Youngs Moduli (GPa) = 44.27793 139.97125 131.07285
#
# Poissons Ratio (x) = -0.13393 0.52665
# Poissons Ratio (y) = -0.04237 0.03641
# Poissons Ratio (z) = 0.17791 0.03888
#
# Static dielectric constant tensor:
#      x y z
#    x 2.254520 0.000000 0.037030 
#    y 0.000000 2.198090 0.000000 
#    z 0.037030 0.000000 2.167180 
# 
# From -- ./inp_files/36341.got.cif
#   From: 2010.05.17/outbox.cif.g08.bks.cpg/sg15_19_cif.got.tgz:36341.got - 2010.06.03 18:47:42.
