data_PCOD9296986
_publ_section_title
;
Structure prediction by ZEFSAII (Michael W. Deem and Ramdas Pophale) SiO2 
 PCOD9296986
Probable space group: C 2/C
;
_chemical_formula_sum "Si O2"
_cell_formula_units_Z 56
_cell_length_a 24.223054
_cell_length_b 15.576891
_cell_length_c 6.623250
_cell_angle_alpha 90.000000
_cell_angle_beta 122.376498
_cell_angle_gamma 90.000000
_cell_volume 2110.595370
_symmetry_space_group_name_H-M "C 2/C"
_symmetry_group_IT_number 15
_symmetry_cell_setting 'monoclinic'
loop_
_space_group_symop_operation_xyz
x,y,z
-x,y,1/2-z
-x,-y,-z
x,-y,1/2+z
1/2+x,1/2+y,z
1/2-x,1/2+y,1/2-z
1/2-x,1/2-y,-z
1/2+x,1/2-y,1/2+z
loop_
_atom_site_type_symbol
_atom_site_label
_atom_site_fract_x
_atom_site_fract_y
_atom_site_fract_z
Si Si1 0.288760 0.130721 0.430125
Si Si2 0.399687 0.306892 0.867662
Si Si3 0.325981 0.424331 0.029109
Si Si4 0.049098 0.033229 0.207175
Si Si5 0.077187 0.577561 0.976548
Si Si6 0.218999 0.180848 0.673952
Si Si7 0.923296 0.380507 0.579412
O O1 0.364029 0.111504 0.545072
O O2 0.275525 0.142482 0.642438
O O3 0.266905 0.217973 0.267231
O O4 0.237444 0.062580 0.237478
O O5 0.453571 0.366160 0.864883
O O6 0.341368 0.308472 0.595609
O O7 0.375398 0.357339 0.017521
O O8 0.415086 0.210796 0.958015
O O9 0.373514 0.505926 0.143369
O O10 0.300760 0.379125 0.182155
O O11 0.035105 0.015194 0.440672
O O12 0.091515 0.523758 0.530814
O O13 0.000000 0.589761 0.750000
O O14 0.096194 0.622995 0.224142
O O15 0.000000 0.389524 0.750000
#
# Coordination Sequence:
#
# PCOD9296986 Si02
#       7
#     8   8   8   8   8   8   8
#     4  10  24  48  75 117 158 210 273 327 404 487
#     4  11  26  47  77 119 158 207 269 332 402 475
#     4  11  24  49  76 113 161 214 269 328 397 478
#     4  12  25  48  77 113 164 213 268 327 398 486
#     4  11  25  51  80 117 162 204 264 340 412 494
#     4  10  23  46  82 111 163 209 275 336 393 487
#     4  11  26  48  78 114 159 201 265 334 406 491
#
# _framework density 26.532796000000001
#
# number of rings (size 3 to 8) (size 9 to 14) (size 15 to 20)
#    0.000    1.143    1.429    3.857    6.000    2.286 
#    7.714    0.714    0.000    0.000    0.000    0.000 
#    0.000    0.000    0.000    0.000    0.000    0.000 
#
# Total GULP energy -156488.939590 kJ/mol
# GULP energy per Si atom -5588.890700 kJ/mol
# Density = 2.647241 g / cm^3
# Si number density = 26.532796 Si / 1000 Ang^3
#
#
#
# Elastic Constant Matrix: (Units=GPa)
#
#
# Indices 1 2 3 4 5 6 
#
# 1 189.2644 64.5281 40.5301 0.0000 -29.2911 0.0000
# 2 64.5281 179.9966 55.4215 0.0000 -13.8776 0.0000
# 3 40.5301 55.4215 89.1742 0.0000 -23.0318 0.0000
# 4 0.0000 0.0000 0.0000 36.6160 0.0000 23.3413
# 5 -29.2911 -13.8776 -23.0318 0.0000 40.8177 0.0000
# 6 0.0000 0.0000 0.0000 23.3413 0.0000 -36.9776
#
#
#
# Elastic Compliance Matrix: (Units=1/GPa)
#
#
# Indices 1 2 3 4 5 6 
#
# 1 0.006670 -0.001814 -0.000969 0.000000 0.003623 0.000000
# 2 -0.001814 0.007364 -0.004029 0.000000 -0.001071 0.000000
# 3 -0.000969 -0.004029 0.015949 0.000000 0.006935 0.000000
# 4 0.000000 0.000000 0.000000 0.019474 0.000000 0.012293
# 5 0.003623 -0.001071 0.006935 0.000000 0.030648 0.000000
# 6 0.000000 0.000000 0.000000 0.012293 0.000000 -0.019284
#
#
# Mechanical properties :
#
#
# Convention : Reuss Voigt Hill
#
# Bulk Modulus (GPa) = 61.12141 86.59940 73.86040
# Shear Modulus (GPa) = 62.58004 27.95493 45.26749
#
# Velocity S-wave (km/s) = 4.86180 3.24944 4.13497
# Velocity P-wave (km/s) = 7.38934 6.84017 7.12005
#
# Compressibility (1/GPa) = 0.01636088
#
# Stress axis : x y z
#
# Youngs Moduli (GPa) = 149.92187 135.80009 62.69874
#
# Poissons Ratio (x) = 0.24629 0.06073
# Poissons Ratio (y) = 0.27190 0.25261
# Poissons Ratio (z) = 0.14521 0.54713
#
# Static dielectric constant tensor:
#      x y z
#    x 2.052150 0.000000 -0.012530 
#    y 0.000000 2.271900 0.000000 
#    z -0.012530 0.000000 2.213680 
# 
# From -- ./inp_files/16031.got.cif
#   From: 2010.05.17/outbox.cif.g08.bks.cpg/sg15_9_cif.got.tgz:16031.got - 2010.06.03 18:47:42.
