data_PCOD9296121
_publ_section_title
;
Structure prediction by ZEFSAII (Michael W. Deem and Ramdas Pophale) SiO2 
 PCOD9296121
Probable space group: C 2/C
;
_chemical_formula_sum "Si O2"
_cell_formula_units_Z 60
_cell_length_a 29.341549
_cell_length_b 17.257240
_cell_length_c 11.784482
_cell_angle_alpha 90.000000
_cell_angle_beta 26.318488
_cell_angle_gamma 90.000000
_cell_volume 2645.585587
_symmetry_space_group_name_H-M "C 2/C"
_symmetry_group_IT_number 15
_symmetry_cell_setting 'monoclinic'
loop_
_space_group_symop_operation_xyz
x,y,z
-x,y,1/2-z
-x,-y,-z
x,-y,1/2+z
1/2+x,1/2+y,z
1/2-x,1/2+y,1/2-z
1/2-x,1/2-y,-z
1/2+x,1/2-y,1/2+z
loop_
_atom_site_type_symbol
_atom_site_label
_atom_site_fract_x
_atom_site_fract_y
_atom_site_fract_z
Si Si1 0.605010 0.756163 0.064550
Si Si2 0.388931 0.072391 0.955152
Si Si3 0.868844 0.820151 0.763624
Si Si4 0.500000 0.146430 0.250000
Si Si5 0.273181 0.475962 0.061169
Si Si6 0.906518 0.552656 0.669024
Si Si7 0.827469 0.763831 0.604167
Si Si8 0.443062 0.413540 0.262377
O O1 0.500000 0.720132 0.250000
O O2 0.613166 0.841629 0.988217
O O3 0.596570 0.740558 0.218545
O O4 0.722916 0.730654 0.785387
O O5 0.500000 0.041960 0.750000
O O6 0.381691 0.095934 0.840037
O O7 0.300553 0.008984 0.173877
O O8 0.825015 0.780382 0.746521
O O9 0.968161 0.869616 0.503744
O O10 0.795439 0.885550 0.985940
O O11 0.443097 0.101409 0.479030
O O12 0.416418 0.203030 0.381918
O O13 0.194807 0.496861 0.134593
O O14 0.379792 0.520827 0.837925
O O15 0.000000 0.500000 0.500000
O O16 0.860877 0.847203 0.480695
O O17 0.500000 0.443013 0.250000
#
# Coordination Sequence:
#
# PCOD9296121 Si02
#       8
#     8   8   8   4   8   8   8   8
#     4  11  24  42  66 100 140 183 229 305 363 421
#     4  11  23  44  67  98 145 185 236 297 364 434
#     4  11  23  44  69 103 136 188 251 291 356 442
#     4  12  24  46  76 108 140 196 254 296 360 436
#     4  12  24  44  70 102 141 190 239 294 376 432
#     4  12  25  42  68 106 145 181 237 297 361 436
#     4  11  21  46  75 100 138 184 248 301 356 435
#     4  10  23  44  68 101 137 182 238 303 355 432
#
# _framework density 22.679289000000001
#
# number of rings (size 3 to 8) (size 9 to 14) (size 15 to 20)
#    0.000    0.800    4.667    4.000    1.867    0.533 
#    4.800    0.667    0.000    0.000    0.000    0.000 
#    0.000    0.000    0.000    0.000    0.000    0.000 
#
# Total GULP energy -167129.934023 kJ/mol
# GULP energy per Si atom -5570.997801 kJ/mol
# Density = 2.262767 g / cm^3
# Si number density = 22.679289 Si / 1000 Ang^3
#
#
#
# Elastic Constant Matrix: (Units=GPa)
#
#
# Indices 1 2 3 4 5 6 
#
# 1 97.0485 27.8889 40.7725 0.0000 -24.1246 0.0000
# 2 27.8889 72.4435 21.6558 0.0000 -0.2042 0.0000
# 3 40.7725 21.6558 111.1466 0.0000 -30.1833 0.0000
# 4 0.0000 0.0000 0.0000 17.5176 0.0000 7.6303
# 5 -24.1246 -0.2042 -30.1833 0.0000 53.9700 0.0000
# 6 0.0000 0.0000 0.0000 7.6303 0.0000 11.7461
#
#
#
# Elastic Compliance Matrix: (Units=1/GPa)
#
#
# Indices 1 2 3 4 5 6 
#
# 1 0.013989 -0.004468 -0.003028 0.000000 0.004543 0.000000
# 2 -0.004468 0.016237 -0.002418 0.000000 -0.003288 0.000000
# 3 -0.003028 -0.002418 0.012037 0.000000 0.005369 0.000000
# 4 0.000000 0.000000 0.000000 0.079612 0.000000 -0.051716
# 5 0.004543 -0.003288 0.005369 0.000000 0.023550 0.000000
# 6 0.000000 0.000000 0.000000 -0.051716 0.000000 0.118730
#
#
# Mechanical properties :
#
#
# Convention : Reuss Voigt Hill
#
# Bulk Modulus (GPa) = 44.56762 51.25258 47.91010
# Shear Modulus (GPa) = 17.15500 29.33483 23.24492
#
# Velocity S-wave (km/s) = 2.75329 3.60038 3.20494
# Velocity P-wave (km/s) = 5.45906 6.31914 5.90478
#
# Compressibility (1/GPa) = 0.02243781
#
# Stress axis : x y z
#
# Youngs Moduli (GPa) = 71.48323 61.58681 83.07803
#
# Poissons Ratio (x) = 0.27515 0.25152
# Poissons Ratio (y) = 0.31937 0.20085
# Poissons Ratio (z) = 0.21642 0.14889
#
# Static dielectric constant tensor:
#      x y z
#    x 1.954920 0.000000 0.014590 
#    y 0.000000 1.933310 0.000000 
#    z 0.014590 0.000000 1.956680 
# 
# From -- ./inp_files/123972.got.cif
#   From: 2010.05.17/outbox.cif.g08.bks.cpg/sg15_62_cif.got.tgz:123972.got - 2010.06.03 18:47:42.
