data_PCOD9296241
_publ_section_title
;
Structure prediction by ZEFSAII (Michael W. Deem and Ramdas Pophale) SiO2 
 PCOD9296241
Probable space group: C 2/C
;
_chemical_formula_sum "Si O2"
_cell_formula_units_Z 44
_cell_length_a 9.016103
_cell_length_b 28.589414
_cell_length_c 8.765090
_cell_angle_alpha 90.000000
_cell_angle_beta 61.652815
_cell_angle_gamma 90.000000
_cell_volume 1988.409915
_symmetry_space_group_name_H-M "C 2/C"
_symmetry_group_IT_number 15
_symmetry_cell_setting 'monoclinic'
loop_
_space_group_symop_operation_xyz
x,y,z
-x,y,1/2-z
-x,-y,-z
x,-y,1/2+z
1/2+x,1/2+y,z
1/2-x,1/2+y,1/2-z
1/2-x,1/2-y,-z
1/2+x,1/2-y,1/2+z
loop_
_atom_site_type_symbol
_atom_site_label
_atom_site_fract_x
_atom_site_fract_y
_atom_site_fract_z
Si Si1 0.500000 0.842215 0.750000
Si Si2 0.773914 0.805459 0.106776
Si Si3 0.003945 0.724539 0.978983
Si Si4 0.350191 0.411702 0.054436
Si Si5 0.268445 0.582615 0.233420
Si Si6 0.126839 0.516138 0.803909
O O1 0.562118 0.806448 0.591189
O O2 0.356910 0.876132 0.752445
O O3 0.671240 0.798075 0.999307
O O4 0.650564 0.780670 0.285804
O O5 0.790482 0.860041 0.128056
O O6 0.950452 0.778245 0.026585
O O7 0.284375 0.448384 0.214623
O O8 0.550629 0.411113 0.932786
O O9 0.287346 0.421269 0.909275
O O10 0.196365 0.533212 0.210765
O O11 0.000000 0.540969 0.750000
O O12 0.000000 0.500000 0.000000
#
# Coordination Sequence:
#
# PCOD9296241 Si02
#       6
#     4   8   8   8   8   8
#     4  12  24  44  72 108 138 184 234 312 352 404
#     4  10  23  44  70 101 133 195 232 284 350 441
#     4  10  24  41  69  97 144 176 241 284 357 412
#     4  11  25  45  73 101 143 194 241 285 361 439
#     4  11  25  44  71 105 143 186 240 297 358 426
#     4  12  25  43  72 105 144 184 237 293 359 425
#
# _framework density 22.128235
#
# number of rings (size 3 to 8) (size 9 to 14) (size 15 to 20)
#    0.000    1.091    4.545    0.545    7.636    2.182 
#    0.000    1.818    0.000    0.000    0.000    0.000 
#    0.000    0.000    0.000    0.000    0.000    0.000 
#
# Total GULP energy -122741.849158 kJ/mol
# GULP energy per Si atom -5579.174962 kJ/mol
# Density = 2.207787 g / cm^3
# Si number density = 22.128235 Si / 1000 Ang^3
#
#
#
# Elastic Constant Matrix: (Units=GPa)
#
#
# Indices 1 2 3 4 5 6 
#
# 1 45.5863 -8.0055 23.3256 0.0000 -10.9909 0.0000
# 2 -8.0055 103.5943 40.9663 0.0000 -3.4434 0.0000
# 3 23.3256 40.9663 115.7010 0.0000 -24.5668 0.0000
# 4 0.0000 0.0000 0.0000 19.6147 0.0000 9.1336
# 5 -10.9909 -3.4434 -24.5668 0.0000 22.7978 0.0000
# 6 0.0000 0.0000 0.0000 9.1336 0.0000 9.8811
#
#
#
# Elastic Compliance Matrix: (Units=1/GPa)
#
#
# Indices 1 2 3 4 5 6 
#
# 1 0.027457 0.004536 -0.005427 0.000000 0.008074 0.000000
# 2 0.004536 0.012176 -0.005667 0.000000 -0.002081 0.000000
# 3 -0.005427 -0.005667 0.014272 0.000000 0.011907 0.000000
# 4 0.000000 0.000000 0.000000 0.089509 0.000000 -0.082737
# 5 0.008074 -0.002081 0.011907 0.000000 0.060273 0.000000
# 6 0.000000 0.000000 0.000000 -0.082737 0.000000 0.177681
#
#
# Mechanical properties :
#
#
# Convention : Reuss Voigt Hill
#
# Bulk Modulus (GPa) = 24.51729 41.93937 33.22833
# Shear Modulus (GPa) = 12.25251 24.36508 18.30879
#
# Velocity S-wave (km/s) = 2.35565 3.32186 2.87957
# Velocity P-wave (km/s) = 4.30145 5.80578 5.10928
#
# Compressibility (1/GPa) = 0.04078753
#
# Stress axis : x y z
#
# Youngs Moduli (GPa) = 36.42114 82.13143 70.06736
#
# Poissons Ratio (x) = -0.37257 0.38027
# Poissons Ratio (y) = -0.16522 0.39710
# Poissons Ratio (z) = 0.19766 0.46548
#
# Static dielectric constant tensor:
#      x y z
#    x 1.923750 0.000000 0.078830 
#    y 0.000000 1.769550 0.000000 
#    z 0.078830 0.000000 1.885160 
# 
# From -- ./inp_files/25980.got.cif
#   From: 2010.05.17/outbox.cif.g08.bks.cpg/sg15_13_cif.got.tgz:25980.got - 2010.06.03 18:47:42.
