data_PCOD9296495
_publ_section_title
;
Structure prediction by ZEFSAII (Michael W. Deem and Ramdas Pophale) SiO2 
 PCOD9296495
Probable space group: C 2/C
;
_chemical_formula_sum "Si O2"
_cell_formula_units_Z 64
_cell_length_a 11.861064
_cell_length_b 15.245590
_cell_length_c 28.692307
_cell_angle_alpha 90.000000
_cell_angle_beta 34.709956
_cell_angle_gamma 90.000000
_cell_volume 2954.390394
_symmetry_space_group_name_H-M "C 2/C"
_symmetry_group_IT_number 15
_symmetry_cell_setting 'monoclinic'
loop_
_space_group_symop_operation_xyz
x,y,z
-x,y,1/2-z
-x,-y,-z
x,-y,1/2+z
1/2+x,1/2+y,z
1/2-x,1/2+y,1/2-z
1/2-x,1/2-y,-z
1/2+x,1/2-y,1/2+z
loop_
_atom_site_type_symbol
_atom_site_label
_atom_site_fract_x
_atom_site_fract_y
_atom_site_fract_z
Si Si1 0.707744 0.126026 0.151787
Si Si2 0.523519 0.523988 0.568223
Si Si3 0.691508 0.303935 0.377116
Si Si4 0.926981 0.647403 0.703039
Si Si5 0.280239 0.538475 0.904933
Si Si6 0.064839 0.470888 0.619073
Si Si7 0.107944 0.602267 0.409011
Si Si8 0.234106 0.813414 0.168561
O O1 0.500000 0.118280 0.250000
O O2 0.639501 0.112478 0.122161
O O3 0.810548 0.219952 0.124193
O O4 0.858299 0.048637 0.114242
O O5 0.458518 0.615280 0.566405
O O6 0.546126 0.542312 0.616034
O O7 0.737035 0.494883 0.474813
O O8 0.793957 0.324163 0.292103
O O9 0.605470 0.206438 0.406908
O O10 0.861961 0.307647 0.358320
O O11 0.828799 0.668652 0.686705
O O12 0.980263 0.544360 0.682260
O O13 0.275505 0.441734 0.884013
O O14 0.255160 0.605981 0.870839
O O15 0.090566 0.564705 0.000180
O O16 0.897347 0.440278 0.640217
O O17 0.000000 0.799584 0.250000
#
# Coordination Sequence:
#
# PCOD9296495 Si02
#       8
#     8   8   8   8   8   8   8   8
#     4  11  25  41  65  97 133 173 225 278 333 405
#     4  11  24  41  69  99 133 179 222 277 344 401
#     4  11  25  43  67  98 135 178 226 276 336 406
#     4  11  24  46  63  96 138 174 222 284 331 400
#     4  10  23  45  65  99 134 175 223 279 334 399
#     4  11  23  43  68  95 133 176 224 278 338 398
#     4  10  24  43  69  96 135 177 225 275 336 405
#     4  11  25  43  66  95 131 176 223 277 337 402
#
# _framework density 21.662673999999999
#
# number of rings (size 3 to 8) (size 9 to 14) (size 15 to 20)
#    0.000    1.250    2.500    1.875    8.750    1.000 
#    2.250    1.250    0.000    0.000    0.000    0.000 
#    0.000    0.000    0.000    0.000    0.000    0.000 
#
# Total GULP energy -178617.437123 kJ/mol
# GULP energy per Si atom -5581.794910 kJ/mol
# Density = 2.161337 g / cm^3
# Si number density = 21.662674 Si / 1000 Ang^3
#
#
#
# Elastic Constant Matrix: (Units=GPa)
#
#
# Indices 1 2 3 4 5 6 
#
# 1 123.3253 12.7942 3.8129 0.0058 13.2649 -0.0052
# 2 12.7942 123.0400 4.8819 0.0034 4.8631 -0.0031
# 3 3.8129 4.8819 30.0613 0.0211 7.1502 -0.0192
# 4 0.0058 0.0034 0.0211 31.0763 -0.0058 19.6614
# 5 13.2649 4.8631 7.1502 -0.0058 25.2666 0.0046
# 6 -0.0052 -0.0031 -0.0192 19.6614 0.0046 20.4829
#
#
#
# Elastic Compliance Matrix: (Units=1/GPa)
#
#
# Indices 1 2 3 4 5 6 
#
# 1 0.008658 -0.000728 0.000073 -0.000011 -0.004426 0.000014
# 2 -0.000728 0.008281 -0.001034 -0.000001 -0.000919 0.000001
# 3 0.000073 -0.001034 0.035795 -0.000124 -0.009969 0.000154
# 4 -0.000011 -0.000001 -0.000124 0.081945 0.000074 -0.078658
# 5 -0.004426 -0.000919 -0.009969 0.000074 0.044900 -0.000092
# 6 0.000014 0.000001 0.000154 -0.078658 -0.000092 0.124325
#
#
# Mechanical properties :
#
#
# Convention : Reuss Voigt Hill
#
# Bulk Modulus (GPa) = 20.26120 35.48941 27.87530
# Shear Modulus (GPa) = 15.44482 32.36100 23.90291
#
# Velocity S-wave (km/s) = 2.67304 3.86924 3.32537
# Velocity P-wave (km/s) = 4.34744 6.03156 5.25737
#
# Compressibility (1/GPa) = 0.04935542
#
# Stress axis : x y z
#
# Youngs Moduli (GPa) = 115.50024 120.76561 27.93656
#
# Poissons Ratio (x) = 0.08795 -0.00203
# Poissons Ratio (y) = 0.08411 0.02888
# Poissons Ratio (z) = -0.00841 0.12485
#
# Static dielectric constant tensor:
#      x y z
#    x 1.814280 0.000000 0.034390 
#    y 0.000000 1.818060 -0.000020 
#    z 0.034390 -0.000020 1.934800 
# 
# From -- ./inp_files/293035.got.cif
#   From: 2010.05.17/outbox.cif.g08.bks.cpg/sg15_147_cif.got.tgz:293035.got - 2010.06.03 18:47:42.
