data_PCOD9296992
_publ_section_title
;
Structure prediction by ZEFSAII (Michael W. Deem and Ramdas Pophale) SiO2 
 PCOD9296992
Probable space group: C 2/C
;
_chemical_formula_sum "Si O2"
_cell_formula_units_Z 44
_cell_length_a 7.796246
_cell_length_b 28.405115
_cell_length_c 10.091123
_cell_angle_alpha 90.000000
_cell_angle_beta 56.678353
_cell_angle_gamma 90.000000
_cell_volume 1867.325174
_symmetry_space_group_name_H-M "C 2/C"
_symmetry_group_IT_number 15
_symmetry_cell_setting 'monoclinic'
loop_
_space_group_symop_operation_xyz
x,y,z
-x,y,1/2-z
-x,-y,-z
x,-y,1/2+z
1/2+x,1/2+y,z
1/2-x,1/2+y,1/2-z
1/2-x,1/2-y,-z
1/2+x,1/2-y,1/2+z
loop_
_atom_site_type_symbol
_atom_site_label
_atom_site_fract_x
_atom_site_fract_y
_atom_site_fract_z
Si Si1 0.500000 0.471207 0.750000
Si Si2 0.777289 0.195225 0.273238
Si Si3 0.687189 0.598148 0.371876
Si Si4 0.584722 0.210254 0.862162
Si Si5 0.669194 0.038829 0.952685
Si Si6 0.174980 0.886265 0.285255
O O1 0.347703 0.438672 0.731153
O O2 0.371253 0.507186 0.893909
O O3 0.732384 0.147825 0.213120
O O4 0.600921 0.204478 0.456480
O O5 0.795201 0.240657 0.169274
O O6 0.000000 0.187699 0.250000
O O7 0.827376 0.575245 0.426994
O O8 0.454236 0.608750 0.525826
O O9 0.500000 0.216404 0.750000
O O10 0.717169 0.163072 0.790847
O O11 0.680826 0.070122 0.813664
O O12 0.500000 0.000000 0.000000
O O13 0.000000 0.890598 0.250000
#
# Coordination Sequence:
#
# PCOD9296992 Si02
#       6
#     4   8   8   8   8   8
#     4  12  24  46  68 100 138 184 232 290 372 408
#     4  11  22  42  70 110 142 188 233 296 356 424
#     4  11  23  45  72  99 143 183 240 298 354 429
#     4  11  23  41  72 105 145 187 237 286 358 428
#     4  11  26  45  69 101 138 188 239 292 358 421
#     4  10  23  47  66  98 142 188 234 293 352 417
#
# _framework density 23.563115
#
# number of rings (size 3 to 8) (size 9 to 14) (size 15 to 20)
#    0.000    1.091    3.636    4.909    2.545    0.727 
#    3.273    8.182    0.000    0.000    0.000    0.000 
#    0.000    0.000    0.000    0.000    0.000    0.000 
#
# Total GULP energy -123025.841859 kJ/mol
# GULP energy per Si atom -5592.083721 kJ/mol
# Density = 2.350948 g / cm^3
# Si number density = 23.563115 Si / 1000 Ang^3
#
#
#
# Elastic Constant Matrix: (Units=GPa)
#
#
# Indices 1 2 3 4 5 6 
#
# 1 46.0394 41.9034 20.7793 0.0000 -5.2849 0.0000
# 2 41.9034 222.2710 87.6431 0.0000 -8.0913 0.0000
# 3 20.7793 87.6431 159.3582 0.0000 -3.1729 0.0000
# 4 0.0000 0.0000 0.0000 76.9722 0.0000 2.5981
# 5 -5.2849 -8.0913 -3.1729 0.0000 22.4341 0.0000
# 6 0.0000 0.0000 0.0000 2.5981 0.0000 26.0976
#
#
#
# Elastic Compliance Matrix: (Units=1/GPa)
#
#
# Indices 1 2 3 4 5 6 
#
# 1 0.026770 -0.004521 -0.000914 0.000000 0.004546 0.000000
# 2 -0.004521 0.006568 -0.003005 0.000000 0.000879 0.000000
# 3 -0.000914 -0.003005 0.008044 0.000000 -0.000162 0.000000
# 4 0.000000 0.000000 0.000000 0.013036 0.000000 -0.001298
# 5 0.004546 0.000879 -0.000162 0.000000 0.045940 0.000000
# 6 0.000000 0.000000 0.000000 -0.001298 0.000000 0.038447
#
#
# Mechanical properties :
#
#
# Convention : Reuss Voigt Hill
#
# Bulk Modulus (GPa) = 40.81315 80.92445 60.86880
# Shear Modulus (GPa) = 30.51533 43.59029 37.05281
#
# Velocity S-wave (km/s) = 3.60258 4.30576 3.96977
# Velocity P-wave (km/s) = 5.88754 7.69010 6.84839
#
# Compressibility (1/GPa) = 0.02450191
#
# Stress axis : x y z
#
# Youngs Moduli (GPa) = 37.35582 152.24440 124.31604
#
# Poissons Ratio (x) = 0.68829 0.11358
# Poissons Ratio (y) = 0.16888 0.37363
# Poissons Ratio (z) = 0.03413 0.45756
#
# Static dielectric constant tensor:
#      x y z
#    x 1.914710 0.000000 -0.035470 
#    y 0.000000 1.959760 0.000000 
#    z -0.035470 0.000000 2.015840 
# 
# From -- ./inp_files/81098.got.cif
#   From: 2010.05.17/outbox.cif.g08.bks.cpg/sg15_41_cif.got.tgz:81098.got - 2010.06.03 18:47:42.
