data_PCOD9296905
_publ_section_title
;
Structure prediction by ZEFSAII (Michael W. Deem and Ramdas Pophale) SiO2 
 PCOD9296905
Probable space group: C 2/C
;
_chemical_formula_sum "Si O2"
_cell_formula_units_Z 56
_cell_length_a 9.930073
_cell_length_b 10.176204
_cell_length_c 28.381616
_cell_angle_alpha 90.000000
_cell_angle_beta 127.479684
_cell_angle_gamma 90.000000
_cell_volume 2275.936493
_symmetry_space_group_name_H-M "C 2/C"
_symmetry_group_IT_number 15
_symmetry_cell_setting 'monoclinic'
loop_
_space_group_symop_operation_xyz
x,y,z
-x,y,1/2-z
-x,-y,-z
x,-y,1/2+z
1/2+x,1/2+y,z
1/2-x,1/2+y,1/2-z
1/2-x,1/2-y,-z
1/2+x,1/2-y,1/2+z
loop_
_atom_site_type_symbol
_atom_site_label
_atom_site_fract_x
_atom_site_fract_y
_atom_site_fract_z
Si Si1 0.842368 0.558281 0.752262
Si Si2 0.844808 0.450931 0.906199
Si Si3 0.025481 0.945515 0.368336
Si Si4 0.083600 0.673587 0.980098
Si Si5 0.145628 0.693727 0.433221
Si Si6 0.809112 0.272071 0.718927
Si Si7 0.141189 0.099726 0.089805
O O1 0.660372 0.582946 0.689629
O O2 0.838036 0.399659 0.759673
O O3 0.822735 0.662704 0.790363
O O4 0.000000 0.581490 0.750000
O O5 0.642420 0.466214 0.858463
O O6 0.963466 0.578448 0.923608
O O7 0.950473 0.336532 0.904399
O O8 0.860110 0.415883 0.964689
O O9 0.134425 0.815252 0.395540
O O10 0.989620 0.001063 0.413359
O O11 0.962055 0.796345 0.963295
O O12 0.250000 0.750000 0.000000
O O13 0.250000 0.750000 0.500000
O O14 0.218255 0.567896 0.419570
O O15 0.731967 0.337540 0.655175
O O16 0.000000 0.219019 0.750000
#
# Coordination Sequence:
#
# PCOD9296905 Si02
#       7
#     8   8   8   8   8   8   8
#     4  10  24  48  72 101 136 171 231 294 349 419
#     4  11  23  40  64  94 136 181 228 270 323 405
#     4  11  24  44  67  97 136 175 226 284 339 407
#     4  11  21  40  64  93 135 179 224 271 323 393
#     4  12  24  41  64 101 141 183 227 272 325 403
#     4  10  23  46  72 100 135 175 226 292 352 413
#     4  11  23  42  65  96 138 179 222 277 340 394
#
# _framework density 24.605256000000001
#
# number of rings (size 3 to 8) (size 9 to 14) (size 15 to 20)
#    0.000    1.143    4.286    1.714    0.000    4.571 
#   10.286    0.000    0.000    0.000    0.000    0.000 
#    0.000    0.000    0.000    0.000    0.000    0.000 
#
# Total GULP energy -156009.252744 kJ/mol
# GULP energy per Si atom -5571.759027 kJ/mol
# Density = 2.454925 g / cm^3
# Si number density = 24.605256 Si / 1000 Ang^3
#
#
#
# Elastic Constant Matrix: (Units=GPa)
#
#
# Indices 1 2 3 4 5 6 
#
# 1 190.0723 48.9634 27.7761 0.0000 16.5069 0.0000
# 2 48.9634 68.8700 3.2605 0.0000 -6.6825 0.0000
# 3 27.7761 3.2605 53.1191 0.0000 12.5467 0.0000
# 4 0.0000 0.0000 0.0000 19.0584 0.0000 4.0119
# 5 16.5069 -6.6825 12.5467 0.0000 32.6638 0.0000
# 6 0.0000 0.0000 0.0000 4.0119 0.0000 49.2393
#
#
#
# Elastic Compliance Matrix: (Units=1/GPa)
#
#
# Indices 1 2 3 4 5 6 
#
# 1 0.007399 -0.005511 -0.002619 0.000000 -0.003861 0.000000
# 2 -0.005511 0.019075 0.000144 0.000000 0.006632 0.000000
# 3 -0.002619 0.000144 0.021849 0.000000 -0.007040 0.000000
# 4 0.000000 0.000000 0.000000 0.053386 0.000000 -0.004350
# 5 -0.003861 0.006632 -0.007040 0.000000 0.036627 0.000000
# 6 0.000000 0.000000 0.000000 -0.004350 0.000000 0.020663
#
#
# Mechanical properties :
#
#
# Convention : Reuss Voigt Hill
#
# Bulk Modulus (GPa) = 30.91003 52.45127 41.68065
# Shear Modulus (GPa) = 26.91757 35.66307 31.29032
#
# Velocity S-wave (km/s) = 3.31112 3.81124 3.56995
# Velocity P-wave (km/s) = 5.21610 6.38207 5.82831
#
# Compressibility (1/GPa) = 0.03235196
#
# Stress axis : x y z
#
# Youngs Moduli (GPa) = 135.15902 52.42559 45.76904
#
# Poissons Ratio (x) = 0.28890 0.11985
# Poissons Ratio (y) = 0.74483 -0.00661
# Poissons Ratio (z) = 0.35394 -0.00757
#
# Static dielectric constant tensor:
#      x y z
#    x 2.196710 0.000000 0.036350 
#    y 0.000000 2.015030 0.000000 
#    z 0.036350 0.000000 2.018700 
# 
# From -- ./inp_files/307535.got.cif
#   From: 2010.05.17/outbox.cif.g08.bks.cpg/sg15_154_cif.got.tgz:307535.got - 2010.06.03 18:47:42.
