data_PCOD9296998
_publ_section_title
;
Structure prediction by ZEFSAII (Michael W. Deem and Ramdas Pophale) SiO2 
 PCOD9296998
Probable space group: C 2/C
;
_chemical_formula_sum "Si O2"
_cell_formula_units_Z 52
_cell_length_a 24.264933
_cell_length_b 9.272831
_cell_length_c 15.262659
_cell_angle_alpha 90.000000
_cell_angle_beta 140.431188
_cell_angle_gamma 90.000000
_cell_volume 2187.580930
_symmetry_space_group_name_H-M "C 2/C"
_symmetry_group_IT_number 15
_symmetry_cell_setting 'monoclinic'
loop_
_space_group_symop_operation_xyz
x,y,z
-x,y,1/2-z
-x,-y,-z
x,-y,1/2+z
1/2+x,1/2+y,z
1/2-x,1/2+y,1/2-z
1/2-x,1/2-y,-z
1/2+x,1/2-y,1/2+z
loop_
_atom_site_type_symbol
_atom_site_label
_atom_site_fract_x
_atom_site_fract_y
_atom_site_fract_z
Si Si1 0.000000 0.550078 0.750000
Si Si2 0.069422 0.889523 0.544697
Si Si3 0.466762 0.175664 0.330969
Si Si4 0.882710 0.076458 0.604595
Si Si5 0.291660 0.081555 0.189220
Si Si6 0.757982 0.738233 0.714131
Si Si7 0.347942 0.740178 0.080559
O O1 0.970151 0.435496 0.640225
O O2 0.078694 0.643961 0.810532
O O3 0.091395 0.921684 0.467908
O O4 0.160087 0.846409 0.702026
O O5 0.016277 0.742924 0.472410
O O6 0.000000 0.000000 0.500000
O O7 0.428314 0.303288 0.220238
O O8 0.384922 0.091657 0.264317
O O9 0.779504 0.091957 0.474202
O O10 0.892709 0.914338 0.651675
O O11 0.272763 0.218068 0.227647
O O12 0.281282 0.929304 0.227328
O O13 0.676491 0.760436 0.551137
O O14 0.250000 0.750000 0.000000
#
# Coordination Sequence:
#
# PCOD9296998 Si02
#       7
#     4   8   8   8   8   8   8
#     4  12  26  44  74 110 142 182 246 304 360 428
#     4  11  26  43  73 102 139 188 233 289 362 429
#     4  12  25  45  69 106 139 183 238 295 363 430
#     4  10  23  47  68 100 141 186 239 283 357 436
#     4  10  24  42  71  99 140 190 231 300 360 430
#     4  10  25  47  65 104 141 183 242 289 361 423
#     4  11  27  46  74 104 142 192 242 302 362 426
#
# _framework density 23.770548000000002
#
# number of rings (size 3 to 8) (size 9 to 14) (size 15 to 20)
#    0.000    1.231    1.538    2.308   12.923    1.846 
#    0.000    0.000    0.000    0.000    0.000    0.000 
#    0.000    0.000    0.000    0.000    0.000    0.000 
#
# Total GULP energy -145123.179625 kJ/mol
# GULP energy per Si atom -5581.660755 kJ/mol
# Density = 2.371644 g / cm^3
# Si number density = 23.770548 Si / 1000 Ang^3
#
#
#
# Elastic Constant Matrix: (Units=GPa)
#
#
# Indices 1 2 3 4 5 6 
#
# 1 48.1140 30.3085 -0.1671 0.0000 17.7328 0.0000
# 2 30.3085 133.6307 27.1121 0.0000 1.6351 0.0000
# 3 -0.1671 27.1121 43.9388 0.0000 5.8735 0.0000
# 4 0.0000 0.0000 0.0000 29.3770 0.0000 3.9122
# 5 17.7328 1.6351 5.8735 0.0000 30.7216 0.0000
# 6 0.0000 0.0000 0.0000 3.9122 0.0000 32.7108
#
#
#
# Elastic Compliance Matrix: (Units=1/GPa)
#
#
# Indices 1 2 3 4 5 6 
#
# 1 0.034440 -0.009318 0.008694 0.000000 -0.021045 0.000000
# 2 -0.009318 0.011085 -0.007712 0.000000 0.006263 0.000000
# 3 0.008694 -0.007712 0.028905 0.000000 -0.010134 0.000000
# 4 0.000000 0.000000 0.000000 0.034591 0.000000 -0.004137
# 5 -0.021045 0.006263 -0.010134 0.000000 0.046302 0.000000
# 6 0.000000 0.000000 0.000000 -0.004137 0.000000 0.031066
#
#
# Mechanical properties :
#
#
# Convention : Reuss Voigt Hill
#
# Bulk Modulus (GPa) = 17.31382 37.79893 27.55638
# Shear Modulus (GPa) = 22.49070 29.79054 26.14062
#
# Velocity S-wave (km/s) = 3.07931 3.54397 3.31978
# Velocity P-wave (km/s) = 4.46569 5.71686 5.12956
#
# Compressibility (1/GPa) = 0.05775732
#
# Stress axis : x y z
#
# Youngs Moduli (GPa) = 29.03607 90.21431 34.59559
#
# Poissons Ratio (x) = 0.84058 -0.30076
# Poissons Ratio (y) = 0.27055 0.26681
# Poissons Ratio (z) = -0.25243 0.69576
#
# Static dielectric constant tensor:
#      x y z
#    x 2.079810 0.000000 0.016450 
#    y 0.000000 1.908550 0.000000 
#    z 0.016450 0.000000 1.906830 
# 
# From -- ./inp_files/221930.got.cif
#   From: 2010.05.17/outbox.cif.g08.bks.cpg/sg15_111_cif.got.tgz:221930.got - 2010.06.03 18:47:42.
