data_PCOD9296349
_publ_section_title
;
Structure prediction by ZEFSAII (Michael W. Deem and Ramdas Pophale) SiO2 
 PCOD9296349
Probable space group: C 2/C
;
_chemical_formula_sum "Si O2"
_cell_formula_units_Z 56
_cell_length_a 14.983951
_cell_length_b 10.903344
_cell_length_c 15.190695
_cell_angle_alpha 90.000000
_cell_angle_beta 98.433921
_cell_angle_gamma 90.000000
_cell_volume 2454.943607
_symmetry_space_group_name_H-M "C 2/C"
_symmetry_group_IT_number 15
_symmetry_cell_setting 'monoclinic'
loop_
_space_group_symop_operation_xyz
x,y,z
-x,y,1/2-z
-x,-y,-z
x,-y,1/2+z
1/2+x,1/2+y,z
1/2-x,1/2+y,1/2-z
1/2-x,1/2-y,-z
1/2+x,1/2-y,1/2+z
loop_
_atom_site_type_symbol
_atom_site_label
_atom_site_fract_x
_atom_site_fract_y
_atom_site_fract_z
Si Si1 0.500000 0.421735 0.250000
Si Si2 0.161567 0.932389 0.714811
Si Si3 0.247368 0.687548 0.119512
Si Si4 0.886217 0.226261 0.452389
Si Si5 0.320393 0.064196 0.642076
Si Si6 0.037630 0.278769 0.608354
Si Si7 0.760622 0.428222 0.469081
Si Si8 0.500000 0.017931 0.250000
O O1 0.411162 0.504400 0.233270
O O2 0.486875 0.336410 0.333191
O O3 0.222493 0.835311 0.775441
O O4 0.107792 0.864048 0.629224
O O5 0.231608 0.031475 0.686207
O O6 0.305480 0.803098 0.097121
O O7 0.142481 0.719287 0.100335
O O8 0.263848 0.557951 0.075509
O O9 0.825497 0.344524 0.419523
O O10 0.825522 0.151052 0.514606
O O11 0.976818 0.269707 0.512548
O O12 0.317018 0.960714 0.565780
O O13 0.410927 0.057035 0.711506
O O14 0.019688 0.396118 0.668246
#
# Coordination Sequence:
#
# PCOD9296349 Si02
#       8
#     4   8   8   8   8   8   8   4
#     4  11  24  45  68 102 138 191 233 290 350 422
#     4  11  25  43  70 100 142 182 237 285 353 416
#     4  12  25  43  70 102 139 186 231 294 342 422
#     4  10  23  44  72 104 137 185 231 291 351 422
#     4  11  23  46  67 106 137 185 227 293 349 418
#     4  11  23  42  74 100 137 186 239 286 348 424
#     4  10  23  44  72  99 142 181 231 285 357 423
#     4  11  22  43  74 100 142 183 239 284 352 420
#
# _framework density 22.811114
#
# number of rings (size 3 to 8) (size 9 to 14) (size 15 to 20)
#    0.000    1.143    4.286    1.286    2.000    1.714 
#    7.714    0.000    0.000    0.000    0.000    0.000 
#    0.000    0.000    0.000    0.000    0.000    0.000 
#
# Total GULP energy -156688.551189 kJ/mol
# GULP energy per Si atom -5596.019685 kJ/mol
# Density = 2.275919 g / cm^3
# Si number density = 22.811114 Si / 1000 Ang^3
#
#
#
# Elastic Constant Matrix: (Units=GPa)
#
#
# Indices 1 2 3 4 5 6 
#
# 1 113.9739 52.6436 37.5035 0.0000 19.0085 0.0000
# 2 52.6436 116.5798 15.9830 0.0000 4.7983 0.0000
# 3 37.5035 15.9830 57.3306 0.0000 14.2429 0.0000
# 4 0.0000 0.0000 0.0000 4.5376 0.0000 -16.7037
# 5 19.0085 4.7983 14.2429 0.0000 32.6981 0.0000
# 6 0.0000 0.0000 0.0000 -16.7037 0.0000 11.7504
#
#
#
# Elastic Compliance Matrix: (Units=1/GPa)
#
#
# Indices 1 2 3 4 5 6 
#
# 1 0.014175 -0.005300 -0.006662 0.000000 -0.004561 0.000000
# 2 -0.005300 0.010902 0.000067 0.000000 0.001452 0.000000
# 3 -0.006662 0.000067 0.023349 0.000000 -0.006308 0.000000
# 4 0.000000 0.000000 0.000000 -0.052063 0.000000 -0.074010
# 5 -0.004561 0.001452 -0.006308 0.000000 0.035768 0.000000
# 6 0.000000 0.000000 0.000000 -0.074010 0.000000 -0.020105
#
#
# Mechanical properties :
#
#
# Convention : Reuss Voigt Hill
#
# Bulk Modulus (GPa) = 40.59109 55.57161 48.08135
# Shear Modulus (GPa) = 113.56386 21.91416 67.73901
#
# Velocity S-wave (km/s) = 7.06346 3.10284 5.45528
# Velocity P-wave (km/s) = 9.18458 6.10339 7.79769
#
# Compressibility (1/GPa) = 0.02463595
#
# Stress axis : x y z
#
# Youngs Moduli (GPa) = 70.54873 91.72560 42.82821
#
# Poissons Ratio (x) = 0.48612 0.28532
# Poissons Ratio (y) = 0.37389 -0.00286
# Poissons Ratio (z) = 0.47000 -0.00613
#
# Static dielectric constant tensor:
#      x y z
#    x 1.808930 0.000000 0.000410 
#    y 0.000000 1.849880 0.000000 
#    z 0.000410 0.000000 1.886790 
# 
# From -- ./inp_files/152643.got.cif
#   From: 2010.05.17/outbox.cif.g08.bks.cpg/sg15_77_cif.got.tgz:152643.got - 2010.06.03 18:47:42.
