data_PCOD9296303
_publ_section_title
;
Structure prediction by ZEFSAII (Michael W. Deem and Ramdas Pophale) SiO2 
 PCOD9296303
Probable space group: C 2/C
;
_chemical_formula_sum "Si O2"
_cell_formula_units_Z 40
_cell_length_a 10.353119
_cell_length_b 18.670787
_cell_length_c 9.197157
_cell_angle_alpha 90.000000
_cell_angle_beta 79.007102
_cell_angle_gamma 90.000000
_cell_volume 1745.197039
_symmetry_space_group_name_H-M "C 2/C"
_symmetry_group_IT_number 15
_symmetry_cell_setting 'monoclinic'
loop_
_space_group_symop_operation_xyz
x,y,z
-x,y,1/2-z
-x,-y,-z
x,-y,1/2+z
1/2+x,1/2+y,z
1/2-x,1/2+y,1/2-z
1/2-x,1/2-y,-z
1/2+x,1/2-y,1/2+z
loop_
_atom_site_type_symbol
_atom_site_label
_atom_site_fract_x
_atom_site_fract_y
_atom_site_fract_z
Si Si1 0.626718 0.955345 0.010323
Si Si2 0.411106 0.665901 0.554728
Si Si3 0.752313 0.941053 0.283668
Si Si4 0.776464 0.832337 0.523164
Si Si5 0.304275 0.820130 0.644392
O O1 0.606226 0.873583 0.967205
O O2 0.749036 0.989359 0.889988
O O3 0.654196 0.958592 0.174553
O O4 0.500000 0.000000 0.000000
O O5 0.366934 0.597822 0.662949
O O6 0.566061 0.659110 0.502795
O O7 0.364545 0.740428 0.640483
O O8 0.331930 0.674804 0.419126
O O9 0.718973 0.879385 0.405986
O O10 0.750000 0.750000 0.500000
O O11 0.715055 0.850430 0.691350
#
# Coordination Sequence:
#
# PCOD9296303 Si02
#       5
#     8   8   8   8   8
#     4  11  25  46  72 101 147 191 243 295 359 431
#     4  10  23  45  69 102 142 187 244 302 360 432
#     4  11  24  45  67 106 139 186 242 291 367 428
#     4  12  24  41  69 103 144 183 239 298 364 425
#     4  10  23  44  71 103 140 189 244 297 365 427
#
# _framework density 22.920047
#
# number of rings (size 3 to 8) (size 9 to 14) (size 15 to 20)
#    0.000    1.200    2.000    3.000    2.800    0.000 
#    3.600   18.000    0.000    0.000    0.000    0.000 
#    0.000    0.000    0.000    0.000    0.000    0.000 
#
# Total GULP energy -111684.604920 kJ/mol
# GULP energy per Si atom -5584.230246 kJ/mol
# Density = 2.286788 g / cm^3
# Si number density = 22.920047 Si / 1000 Ang^3
#
#
#
# Elastic Constant Matrix: (Units=GPa)
#
#
# Indices 1 2 3 4 5 6 
#
# 1 56.9972 12.8208 6.6273 0.0000 12.6396 0.0000
# 2 12.8208 79.2689 9.3340 0.0000 13.1031 0.0000
# 3 6.6273 9.3340 159.5757 0.0000 27.3710 0.0000
# 4 0.0000 0.0000 0.0000 56.6882 0.0000 1.5188
# 5 12.6396 13.1031 27.3710 0.0000 22.6766 0.0000
# 6 0.0000 0.0000 0.0000 1.5188 0.0000 29.2554
#
#
#
# Elastic Compliance Matrix: (Units=1/GPa)
#
#
# Indices 1 2 3 4 5 6 
#
# 1 0.020407 -0.001451 0.001317 0.000000 -0.012126 0.000000
# 2 -0.001451 0.014116 0.000624 0.000000 -0.008101 0.000000
# 3 0.001317 0.000624 0.008025 0.000000 -0.010781 0.000000
# 4 0.000000 0.000000 0.000000 0.017665 0.000000 -0.000917
# 5 -0.012126 -0.008101 -0.010781 0.000000 0.068550 0.000000
# 6 0.000000 0.000000 0.000000 -0.000917 0.000000 0.034229
#
#
# Mechanical properties :
#
#
# Convention : Reuss Voigt Hill
#
# Bulk Modulus (GPa) = 22.97414 39.26732 31.12073
# Shear Modulus (GPa) = 28.32533 39.52804 33.92668
#
# Velocity S-wave (km/s) = 3.51925 4.15734 3.85154
# Velocity P-wave (km/s) = 5.15353 6.34146 5.77811
#
# Compressibility (1/GPa) = 0.04352721
#
# Stress axis : x y z
#
# Youngs Moduli (GPa) = 49.00274 70.84376 124.61784
#
# Poissons Ratio (x) = 0.10281 -0.16415
# Poissons Ratio (y) = 0.07112 -0.07777
# Poissons Ratio (z) = -0.06455 -0.04421
#
# Static dielectric constant tensor:
#      x y z
#    x 1.880780 0.000000 -0.001550 
#    y 0.000000 1.877390 0.000000 
#    z -0.001550 0.000000 1.845870 
# 
# From -- ./inp_files/29211.got.cif
#   From: 2010.05.17/outbox.cif.g08.bks.cpg/sg15_15_cif.got.tgz:29211.got - 2010.06.03 18:47:42.
