data_PCOD9296732
_publ_section_title
;
Structure prediction by ZEFSAII (Michael W. Deem and Ramdas Pophale) SiO2 
 PCOD9296732
Probable space group: C 2/C
;
_chemical_formula_sum "Si O2"
_cell_formula_units_Z 40
_cell_length_a 24.482179
_cell_length_b 9.561966
_cell_length_c 17.754015
_cell_angle_alpha 90.000000
_cell_angle_beta 24.316661
_cell_angle_gamma 90.000000
_cell_volume 1711.427195
_symmetry_space_group_name_H-M "C 2/C"
_symmetry_group_IT_number 15
_symmetry_cell_setting 'monoclinic'
loop_
_space_group_symop_operation_xyz
x,y,z
-x,y,1/2-z
-x,-y,-z
x,-y,1/2+z
1/2+x,1/2+y,z
1/2-x,1/2+y,1/2-z
1/2-x,1/2-y,-z
1/2+x,1/2-y,1/2+z
loop_
_atom_site_type_symbol
_atom_site_label
_atom_site_fract_x
_atom_site_fract_y
_atom_site_fract_z
Si Si1 0.922783 0.039683 0.421634
Si Si2 0.790043 0.310828 0.828832
Si Si3 0.080539 0.521134 0.723037
Si Si4 0.188679 0.010772 0.168376
Si Si5 0.343191 0.809585 0.586592
O O1 0.821897 0.157328 0.577158
O O2 0.000000 0.086850 0.250000
O O3 0.847133 0.896882 0.498358
O O4 0.034628 0.024568 0.344723
O O5 0.890165 0.398123 0.755327
O O6 0.777971 0.153436 0.872353
O O7 0.835908 0.306509 0.684906
O O8 0.220449 0.573024 0.513308
O O9 0.000000 0.473888 0.750000
O O10 0.987816 0.636728 0.878066
O O11 0.237227 0.084585 0.183334
#
# Coordination Sequence:
#
# PCOD9296732 Si02
#       5
#     8   8   8   8   8
#     4  12  27  46  76 102 140 190 234 284 350 417
#     4  12  26  45  73 104 141 183 235 290 355 402
#     4  10  23  45  74  99 137 183 237 284 340 415
#     4  11  26  47  72 105 141 182 243 283 339 430
#     4  11  27  46  69 105 144 184 228 294 351 413
#
# _framework density 23.372308
#
# number of rings (size 3 to 8) (size 9 to 14) (size 15 to 20)
#    0.000    0.800    2.000    4.200    8.400    4.800 
#    0.000    0.000    0.000    0.000    0.000    0.000 
#    0.000    0.000    0.000    0.000    0.000    0.000 
#
# Total GULP energy -112065.746568 kJ/mol
# GULP energy per Si atom -5603.287328 kJ/mol
# Density = 2.331911 g / cm^3
# Si number density = 23.372308 Si / 1000 Ang^3
#
#
#
# Elastic Constant Matrix: (Units=GPa)
#
#
# Indices 1 2 3 4 5 6 
#
# 1 76.3262 13.5998 21.6813 0.0000 11.5794 0.0000
# 2 13.5998 76.0186 -1.6247 0.0000 -16.8531 0.0000
# 3 21.6813 -1.6247 42.5042 0.0000 -0.1328 0.0000
# 4 0.0000 0.0000 0.0000 65.4508 0.0000 33.4426
# 5 11.5794 -16.8531 -0.1328 0.0000 50.6704 0.0000
# 6 0.0000 0.0000 0.0000 33.4426 0.0000 63.1308
#
#
#
# Elastic Compliance Matrix: (Units=1/GPa)
#
#
# Indices 1 2 3 4 5 6 
#
# 1 0.017293 -0.004499 -0.009010 0.000000 -0.005472 0.000000
# 2 -0.004499 0.015386 0.002903 0.000000 0.006153 0.000000
# 3 -0.009010 0.002903 0.028244 0.000000 0.003098 0.000000
# 4 0.000000 0.000000 0.000000 0.020949 0.000000 -0.011097
# 5 -0.005472 0.006153 0.003098 0.000000 0.023041 0.000000
# 6 0.000000 0.000000 0.000000 -0.011097 0.000000 0.021719
#
#
# Mechanical properties :
#
#
# Convention : Reuss Voigt Hill
#
# Bulk Modulus (GPa) = 25.18362 29.12906 27.15634
# Shear Modulus (GPa) = 31.04020 46.59656 38.81838
#
# Velocity S-wave (km/s) = 3.64823 4.46989 4.07980
# Velocity P-wave (km/s) = 5.34270 6.25540 5.81698
#
# Compressibility (1/GPa) = 0.03970836
#
# Stress axis : x y z
#
# Youngs Moduli (GPa) = 57.82691 64.99496 35.40595
#
# Poissons Ratio (x) = 0.29244 0.31902
# Poissons Ratio (y) = 0.26019 -0.10277
# Poissons Ratio (z) = 0.52103 -0.18865
#
# Static dielectric constant tensor:
#      x y z
#    x 1.875330 0.000000 -0.018820 
#    y 0.000000 1.842100 0.000000 
#    z -0.018820 0.000000 1.888580 
# 
# From -- ./inp_files/218760.got.cif
#   From: 2010.05.17/outbox.cif.g08.bks.cpg/sg15_110_cif.got.tgz:218760.got - 2010.06.03 18:47:42.
