data_PCOD9296072
_publ_section_title
;
Structure prediction by ZEFSAII (Michael W. Deem and Ramdas Pophale) SiO2 
 PCOD9296072
Probable space group: C 2/C
;
_chemical_formula_sum "Si O2"
_cell_formula_units_Z 52
_cell_length_a 18.926637
_cell_length_b 8.660221
_cell_length_c 17.294239
_cell_angle_alpha 90.000000
_cell_angle_beta 122.509785
_cell_angle_gamma 90.000000
_cell_volume 2390.483862
_symmetry_space_group_name_H-M "C 2/C"
_symmetry_group_IT_number 15
_symmetry_cell_setting 'monoclinic'
loop_
_space_group_symop_operation_xyz
x,y,z
-x,y,1/2-z
-x,-y,-z
x,-y,1/2+z
1/2+x,1/2+y,z
1/2-x,1/2+y,1/2-z
1/2-x,1/2-y,-z
1/2+x,1/2-y,1/2+z
loop_
_atom_site_type_symbol
_atom_site_label
_atom_site_fract_x
_atom_site_fract_y
_atom_site_fract_z
Si Si1 0.157695 0.311455 0.429398
Si Si2 0.506078 0.703549 0.438693
Si Si3 0.218324 0.651788 0.258394
Si Si4 0.682636 0.849767 0.912391
Si Si5 0.500000 0.723491 0.750000
Si Si6 0.433810 0.371113 0.369460
Si Si7 0.859931 0.673172 0.765771
O O1 0.250000 0.250000 0.500000
O O2 0.164772 0.494268 0.449743
O O3 0.136100 0.312531 0.324818
O O4 0.094121 0.211424 0.444286
O O5 0.451982 0.545066 0.407097
O O6 0.523942 0.733818 0.539050
O O7 0.450418 0.819685 0.356998
O O8 0.230187 0.642236 0.357663
O O9 0.155742 0.791142 0.197329
O O10 0.178737 0.484167 0.222697
O O11 0.301542 0.687679 0.260546
O O12 0.587597 0.804795 0.827759
O O13 0.750000 0.750000 0.000000
O O14 0.523210 0.630015 0.688140
#
# Coordination Sequence:
#
# PCOD9296072 Si02
#       7
#     8   8   8   8   4   8   8
#     4  11  26  43  67  99 138 179 233 287 349 419
#     4  11  25  42  69  99 137 177 232 285 348 412
#     4  10  23  44  66  98 138 179 227 286 346 421
#     4  10  25  43  71  98 139 184 233 287 350 419
#     4  10  24  44  70 100 144 178 234 282 352 418
#     4  10  24  43  66  99 134 179 225 287 342 414
#     4  11  24  42  68  97 137 180 229 283 351 415
#
# _framework density 21.752917
#
# number of rings (size 3 to 8) (size 9 to 14) (size 15 to 20)
#    0.000    1.538    0.000    2.308   12.923    6.769 
#    0.000    0.000    0.000    0.000    0.000    0.000 
#    0.000    0.000    0.000    0.000    0.000    0.000 
#
# Total GULP energy -144780.039984 kJ/mol
# GULP energy per Si atom -5568.463076 kJ/mol
# Density = 2.170341 g / cm^3
# Si number density = 21.752917 Si / 1000 Ang^3
#
#
#
# Elastic Constant Matrix: (Units=GPa)
#
#
# Indices 1 2 3 4 5 6 
#
# 1 14.7024 -37.8890 51.1536 0.0000 9.6790 0.0000
# 2 -37.8890 30.5510 36.8943 0.0000 16.6686 0.0000
# 3 51.1536 36.8943 100.8173 0.0000 10.2378 0.0000
# 4 0.0000 0.0000 0.0000 4.3381 0.0000 30.2321
# 5 9.6790 16.6686 10.2378 0.0000 26.9740 0.0000
# 6 0.0000 0.0000 0.0000 30.2321 0.0000 -27.0322
#
#
#
# Elastic Compliance Matrix: (Units=1/GPa)
#
#
# Indices 1 2 3 4 5 6 
#
# 1 -0.002956 -0.016390 0.006616 0.000000 0.008678 0.000000
# 2 -0.016390 0.003350 0.006972 0.000000 0.001165 0.000000
# 3 0.006616 0.006972 0.004877 0.000000 -0.008534 0.000000
# 4 0.000000 0.000000 0.000000 0.026213 0.000000 0.029316
# 5 0.008678 0.001165 -0.008534 0.000000 0.036478 0.000000
# 6 0.000000 0.000000 0.000000 0.029316 0.000000 -0.004207
#
#
# Mechanical properties :
#
#
# Convention : Reuss Voigt Hill
#
# Bulk Modulus (GPa) = -3011.91718 27.37651 -1492.27033
# Shear Modulus (GPa) = 72.20293 7.25008 39.72651
#
# Velocity S-wave (km/s) = 5.76753 1.82761 4.27811
# Velocity P-wave (km/s) = 36.65047 4.13111 25.75064
#
# Compressibility (1/GPa) = -0.00033201
#
# Stress axis : x y z
#
# Youngs Moduli (GPa) = -338.34496 298.48594 205.04403
#
# Poissons Ratio (x) = 4.89224 -1.35666
# Poissons Ratio (y) = -5.54554 -1.42955
# Poissons Ratio (z) = 2.23864 -2.08101
#
# Static dielectric constant tensor:
#      x y z
#    x 2.742720 0.000000 2.247490 
#    y 0.000000 1.862880 0.000000 
#    z 2.247490 0.000000 7.129430 
# 
# From -- ./inp_files/214327.got.cif
#   From: 2010.05.17/outbox.cif.g08.bks.cpg/sg15_108_cif.got.tgz:214327.got - 2010.06.03 18:47:42.
