data_PCOD9296257
_publ_section_title
;
Structure prediction by ZEFSAII (Michael W. Deem and Ramdas Pophale) SiO2 
 PCOD9296257
Probable space group: C 2/C
;
_chemical_formula_sum "Si O2"
_cell_formula_units_Z 36
_cell_length_a 5.142881
_cell_length_b 19.272699
_cell_length_c 17.091450
_cell_angle_alpha 90.000000
_cell_angle_beta 121.842137
_cell_angle_gamma 90.000000
_cell_volume 1439.109445
_symmetry_space_group_name_H-M "C 2/C"
_symmetry_group_IT_number 15
_symmetry_cell_setting 'monoclinic'
loop_
_space_group_symop_operation_xyz
x,y,z
-x,y,1/2-z
-x,-y,-z
x,-y,1/2+z
1/2+x,1/2+y,z
1/2-x,1/2+y,1/2-z
1/2-x,1/2-y,-z
1/2+x,1/2-y,1/2+z
loop_
_atom_site_type_symbol
_atom_site_label
_atom_site_fract_x
_atom_site_fract_y
_atom_site_fract_z
Si Si1 0.198840 0.247425 0.146099
Si Si2 0.500000 0.666023 0.250000
Si Si3 0.391876 0.109816 0.107937
Si Si4 0.420644 0.900575 0.431510
Si Si5 0.215292 0.029954 0.646303
O O1 0.500000 0.254603 0.250000
O O2 0.240722 0.185444 0.091047
O O3 0.122112 0.320004 0.096315
O O4 0.956206 0.216267 0.168948
O O5 0.204328 0.618430 0.206502
O O6 0.196588 0.049557 0.116468
O O7 0.473729 0.091330 0.032284
O O8 0.681192 0.929261 0.415705
O O9 0.097304 0.940475 0.367868
O O10 0.500000 0.039150 0.750000
#
# Coordination Sequence:
#
# PCOD9296257 Si02
#       5
#     8   4   8   8   8
#     4  10  23  44  70 104 141 189 241 290 358 426
#     4  10  24  42  78 100 148 196 242 290 362 432
#     4  11  26  46  72 104 143 191 242 291 355 433
#     4  12  28  45  75 108 144 183 242 303 354 416
#     4  12  27  47  72 104 146 189 235 294 366 425
#
# _framework density 25.015471999999999
#
# number of rings (size 3 to 8) (size 9 to 14) (size 15 to 20)
#    0.000    0.889    0.000    6.000   17.111    0.889 
#    0.000    0.000    0.000    0.000    0.000    0.000 
#    0.000    0.000    0.000    0.000    0.000    0.000 
#
# Total GULP energy -100957.012579 kJ/mol
# GULP energy per Si atom -5608.722921 kJ/mol
# Density = 2.495854 g / cm^3
# Si number density = 25.015472 Si / 1000 Ang^3
#
#
#
# Elastic Constant Matrix: (Units=GPa)
#
#
# Indices 1 2 3 4 5 6 
#
# 1 80.5502 18.5821 -0.9317 0.0000 -3.2818 0.0000
# 2 18.5821 133.9033 20.0450 0.0000 16.5090 0.0000
# 3 -0.9317 20.0450 91.2891 0.0000 -16.7573 0.0000
# 4 0.0000 0.0000 0.0000 42.4619 0.0000 -114.0574
# 5 -3.2818 16.5090 -16.7573 0.0000 32.6890 0.0000
# 6 0.0000 0.0000 0.0000 -114.0574 0.0000 917.2974
#
#
#
# Elastic Compliance Matrix: (Units=1/GPa)
#
#
# Indices 1 2 3 4 5 6 
#
# 1 0.013110 -0.002395 0.001240 0.000000 0.003161 0.000000
# 2 -0.002395 0.009078 -0.003205 0.000000 -0.006468 0.000000
# 3 0.001240 -0.003205 0.013236 0.000000 0.008528 0.000000
# 4 0.000000 0.000000 0.000000 0.035361 0.000000 0.004397
# 5 0.003161 -0.006468 0.008528 0.000000 0.038547 0.000000
# 6 0.000000 0.000000 0.000000 0.004397 0.000000 0.001637
#
#
# Mechanical properties :
#
#
# Convention : Reuss Voigt Hill
#
# Bulk Modulus (GPa) = 37.44698 42.34815 39.89757
# Shear Modulus (GPa) = 38.88343 216.35946 127.62144
#
# Velocity S-wave (km/s) = 3.94683 9.31010 7.15037
# Velocity P-wave (km/s) = 5.98097 11.51244 9.17356
#
# Compressibility (1/GPa) = 0.02670442
#
# Stress axis : x y z
#
# Youngs Moduli (GPa) = 76.27657 110.16133 75.55102
#
# Poissons Ratio (x) = 0.26380 -0.09368
# Poissons Ratio (y) = 0.18266 0.24214
# Poissons Ratio (z) = -0.09458 0.35306
#
# Static dielectric constant tensor:
#      x y z
#    x 1.992470 0.000000 0.011830 
#    y 0.000000 1.922690 0.000000 
#    z 0.011830 0.000000 1.977570 
# 
# From -- ./inp_files/128780.got.cif
#   From: 2010.05.17/outbox.cif.g08.bks.cpg/sg15_65_cif.got.tgz:128780.got - 2010.06.03 18:47:42.
