data_PCOD9296820
_publ_section_title
;
Structure prediction by ZEFSAII (Michael W. Deem and Ramdas Pophale) SiO2 
 PCOD9296820
Probable space group: C 2/C
;
_chemical_formula_sum "Si O2"
_cell_formula_units_Z 40
_cell_length_a 11.841606
_cell_length_b 15.487906
_cell_length_c 14.846708
_cell_angle_alpha 90.000000
_cell_angle_beta 142.557813
_cell_angle_gamma 90.000000
_cell_volume 1655.422737
_symmetry_space_group_name_H-M "C 2/C"
_symmetry_group_IT_number 15
_symmetry_cell_setting 'monoclinic'
loop_
_space_group_symop_operation_xyz
x,y,z
-x,y,1/2-z
-x,-y,-z
x,-y,1/2+z
1/2+x,1/2+y,z
1/2-x,1/2+y,1/2-z
1/2-x,1/2-y,-z
1/2+x,1/2-y,1/2+z
loop_
_atom_site_type_symbol
_atom_site_label
_atom_site_fract_x
_atom_site_fract_y
_atom_site_fract_z
Si Si1 0.369788 0.092451 0.301496
Si Si2 0.214256 0.477303 0.565500
Si Si3 0.408105 0.448821 0.023753
Si Si4 0.361790 0.715034 0.859251
Si Si5 0.558962 0.207351 0.913463
O O1 0.249947 0.046434 0.306975
O O2 0.288544 0.072821 0.151344
O O3 0.371255 0.195259 0.312573
O O4 0.569648 0.055127 0.457860
O O5 0.369694 0.499332 0.590604
O O6 0.113766 0.390113 0.469119
O O7 0.500000 0.500000 0.000000
O O8 0.540614 0.366102 0.125516
O O9 0.148266 0.701722 0.758153
O O10 0.479193 0.735033 0.022663
O O11 0.750000 0.250000 0.000000
#
# Coordination Sequence:
#
# PCOD9296820 Si02
#       5
#     8   8   8   8   8
#     4  10  23  46  68 103 149 188 248 303 370 448
#     4  10  24  43  72 103 144 192 242 309 367 441
#     4  12  24  42  72 106 144 191 246 304 378 438
#     4  11  23  41  70 102 144 186 239 307 367 446
#     4  11  22  42  68 102 137 187 248 300 365 436
#
# _framework density 24.163012999999999
#
# number of rings (size 3 to 8) (size 9 to 14) (size 15 to 20)
#    0.000    1.200    2.000    3.600    0.000    3.200 
#    0.000    0.000    0.000    0.000    0.000    0.000 
#    0.000    0.000    0.000    0.000    0.000    0.000 
#
# Total GULP energy -111562.703363 kJ/mol
# GULP energy per Si atom -5578.135168 kJ/mol
# Density = 2.410802 g / cm^3
# Si number density = 24.163013 Si / 1000 Ang^3
#
#
#
# Elastic Constant Matrix: (Units=GPa)
#
#
# Indices 1 2 3 4 5 6 
#
# 1 99.9367 31.1352 22.2565 0.0000 0.3332 0.0000
# 2 31.1352 103.3676 8.6305 0.0001 7.6828 0.0001
# 3 22.2565 8.6305 120.9943 0.0002 -4.6620 0.0001
# 4 0.0000 0.0001 0.0002 -2.6605 0.0001 0.0260
# 5 0.3332 7.6828 -4.6620 0.0001 49.0064 0.0000
# 6 0.0000 0.0001 0.0001 0.0260 0.0000 46.9195
#
#
#
# Elastic Compliance Matrix: (Units=1/GPa)
#
#
# Indices 1 2 3 4 5 6 
#
# 1 0.011452 -0.003314 -0.001860 0.000000 0.000265 0.000000
# 2 -0.003314 0.010817 -0.000227 0.000001 -0.001695 0.000000
# 3 -0.001860 -0.000227 0.008657 0.000000 0.000872 0.000000
# 4 0.000000 0.000001 0.000000 -0.375873 0.000000 0.000209
# 5 0.000265 -0.001695 0.000872 0.000000 0.020752 0.000000
# 6 0.000000 0.000000 0.000000 0.000209 0.000000 0.021313
#
#
# Mechanical properties :
#
#
# Convention : Reuss Voigt Hill
#
# Bulk Modulus (GPa) = 49.69223 49.81589 49.75406
# Shear Modulus (GPa) = -17.52102 36.13819 9.30858
#
# Velocity S-wave (km/s) = -2.69572 3.87149 1.96489
# Velocity P-wave (km/s) = 3.30467 6.37542 5.07774
#
# Compressibility (1/GPa) = 0.02012387
#
# Stress axis : x y z
#
# Youngs Moduli (GPa) = 87.32020 92.44431 115.51617
#
# Poissons Ratio (x) = 0.30635 0.21486
# Poissons Ratio (y) = 0.28937 0.02626
# Poissons Ratio (z) = 0.16242 0.02102
#
# Static dielectric constant tensor:
#      x y z
#    x 2.010700 0.000000 0.105330 
#    y 0.000000 1.787080 0.000000 
#    z 0.105330 0.000000 2.129280 
# 
# From -- ./inp_files/145251.got.cif
#   From: 2010.05.17/outbox.cif.g08.bks.cpg/sg15_73_cif.got.tgz:145251.got - 2010.06.03 18:47:42.
