data_PCOD9296346
_publ_section_title
;
Structure prediction by ZEFSAII (Michael W. Deem and Ramdas Pophale) SiO2 
 PCOD9296346
Probable space group: C 2/C
;
_chemical_formula_sum "Si O2"
_cell_formula_units_Z 52
_cell_length_a 5.609325
_cell_length_b 25.906482
_cell_length_c 18.932967
_cell_angle_alpha 90.000000
_cell_angle_beta 62.432206
_cell_angle_gamma 90.000000
_cell_volume 2438.926748
_symmetry_space_group_name_H-M "C 2/C"
_symmetry_group_IT_number 15
_symmetry_cell_setting 'monoclinic'
loop_
_space_group_symop_operation_xyz
x,y,z
-x,y,1/2-z
-x,-y,-z
x,-y,1/2+z
1/2+x,1/2+y,z
1/2-x,1/2+y,1/2-z
1/2-x,1/2-y,-z
1/2+x,1/2-y,1/2+z
loop_
_atom_site_type_symbol
_atom_site_label
_atom_site_fract_x
_atom_site_fract_y
_atom_site_fract_z
Si Si1 0.500000 0.621114 0.250000
Si Si2 0.249577 0.118278 0.938425
Si Si3 0.794460 0.214081 0.185196
Si Si4 0.811426 0.566238 0.081952
Si Si5 0.172087 0.668682 0.795865
Si Si6 0.879759 0.035686 0.956060
Si Si7 0.017723 0.219650 0.491100
O O1 0.365432 0.662418 0.216533
O O2 0.695549 0.588725 0.171032
O O3 0.551594 0.133568 0.875562
O O4 0.083032 0.170680 0.952275
O O5 0.115552 0.075453 0.906763
O O6 0.223602 0.098455 0.023378
O O7 0.500000 0.225689 0.250000
O O8 0.921499 0.271024 0.179984
O O9 0.832885 0.201131 0.099227
O O10 0.723746 0.505841 0.086686
O O11 0.131707 0.565371 0.026562
O O12 0.500000 0.664600 0.750000
O O13 0.000000 0.652750 0.750000
O O14 0.000000 0.000000 0.000000
O O15 0.750000 0.250000 0.500000
O O16 0.250000 0.250000 0.500000
#
# Coordination Sequence:
#
# PCOD9296346 Si02
#       7
#     4   8   8   8   8   8   8
#     4  12  24  42  70 110 142 188 242 304 386 436
#     4  11  24  42  72  98 141 196 240 300 376 436
#     4  11  26  41  62 101 152 188 234 298 361 429
#     4  10  23  44  72 103 141 182 244 312 372 447
#     4  11  26  44  65 101 148 193 239 296 350 427
#     4   9  22  45  70  96 130 183 241 307 373 436
#     4  12  28  43  69 108 145 195 250 295 354 456
#
# _framework density 21.320851999999999
#
# number of rings (size 3 to 8) (size 9 to 14) (size 15 to 20)
#    0.000    1.231    3.846    0.000   12.923    0.000 
#    0.000    4.615    0.000    0.000    0.000    0.000 
#    0.000    0.000    0.000    0.000    0.000    0.000 
#
# Total GULP energy -144827.158175 kJ/mol
# GULP energy per Si atom -5570.275314 kJ/mol
# Density = 2.127232 g / cm^3
# Si number density = 21.320852 Si / 1000 Ang^3
#
#
#
# Elastic Constant Matrix: (Units=GPa)
#
#
# Indices 1 2 3 4 5 6 
#
# 1 99.8206 42.7744 34.8330 0.0000 -9.2894 0.0000
# 2 42.7744 111.0646 49.2960 0.0000 -20.8808 0.0000
# 3 34.8330 49.2960 136.5523 0.0000 -11.4709 0.0000
# 4 0.0000 0.0000 0.0000 73.3886 0.0000 103.6212
# 5 -9.2894 -20.8808 -11.4709 0.0000 29.3841 0.0000
# 6 0.0000 0.0000 0.0000 103.6212 0.0000 407.0836
#
#
#
# Elastic Compliance Matrix: (Units=1/GPa)
#
#
# Indices 1 2 3 4 5 6 
#
# 1 0.012327 -0.003909 -0.001695 0.000000 0.000457 0.000000
# 2 -0.003909 0.013229 -0.003197 0.000000 0.006917 0.000000
# 3 -0.001695 -0.003197 0.008968 0.000000 0.000693 0.000000
# 4 0.000000 0.000000 0.000000 0.021271 0.000000 -0.005414
# 5 0.000457 0.006917 0.000693 0.000000 0.039362 0.000000
# 6 0.000000 0.000000 0.000000 -0.005414 0.000000 0.003835
#
#
# Mechanical properties :
#
#
# Convention : Reuss Voigt Hill
#
# Bulk Modulus (GPa) = 59.09843 66.80491 62.95167
# Shear Modulus (GPa) = 40.90462 116.67352 78.78907
#
# Velocity S-wave (km/s) = 4.38485 7.40551 6.08557
# Velocity P-wave (km/s) = 7.30853 10.22366 8.88645
#
# Compressibility (1/GPa) = 0.01692092
#
# Stress axis : x y z
#
# Youngs Moduli (GPa) = 81.12177 75.59193 111.50708
#
# Poissons Ratio (x) = 0.29551 0.18898
# Poissons Ratio (y) = 0.31713 0.35654
# Poissons Ratio (z) = 0.13749 0.24170
#
# Static dielectric constant tensor:
#      x y z
#    x 1.762910 0.000000 -0.015870 
#    y 0.000000 1.761040 0.000000 
#    z -0.015870 0.000000 1.771620 
# 
# From -- ./inp_files/186056.got.cif
#   From: 2010.05.17/outbox.cif.g08.bks.cpg/sg15_94_cif.got.tgz:186056.got - 2010.06.03 18:47:42.
