data_PCOD9296158
_publ_section_title
;
Structure prediction by ZEFSAII (Michael W. Deem and Ramdas Pophale) SiO2 
 PCOD9296158
Probable space group: C 2/C
;
_chemical_formula_sum "Si O2"
_cell_formula_units_Z 48
_cell_length_a 8.392282
_cell_length_b 16.957681
_cell_length_c 16.343914
_cell_angle_alpha 90.000000
_cell_angle_beta 86.183369
_cell_angle_gamma 90.000000
_cell_volume 2320.803366
_symmetry_space_group_name_H-M "C 2/C"
_symmetry_group_IT_number 15
_symmetry_cell_setting 'monoclinic'
loop_
_space_group_symop_operation_xyz
x,y,z
-x,y,1/2-z
-x,-y,-z
x,-y,1/2+z
1/2+x,1/2+y,z
1/2-x,1/2+y,1/2-z
1/2-x,1/2-y,-z
1/2+x,1/2-y,1/2+z
loop_
_atom_site_type_symbol
_atom_site_label
_atom_site_fract_x
_atom_site_fract_y
_atom_site_fract_z
Si Si1 0.871248 0.916049 0.148118
Si Si2 0.216196 0.425103 0.669600
Si Si3 0.135780 0.449032 0.861407
Si Si4 0.163661 0.228050 0.417696
Si Si5 0.681189 0.335443 0.521388
Si Si6 0.237474 0.882599 0.172864
O O1 0.759924 0.889832 0.228352
O O2 0.048719 0.882879 0.158121
O O3 0.856876 0.011390 0.148952
O O4 0.821522 0.883705 0.062666
O O5 0.184840 0.424791 0.767471
O O6 0.243313 0.338069 0.636081
O O7 0.055327 0.453560 0.630338
O O8 0.214109 0.386067 0.919073
O O9 0.199263 0.537395 0.870054
O O10 0.250000 0.250000 0.500000
O O11 0.168052 0.308022 0.364746
O O12 0.995258 0.185988 0.440593
O O13 0.750000 0.250000 0.500000
#
# Coordination Sequence:
#
# PCOD9296158 Si02
#       6
#     8   8   8   8   8   8
#     4  10  23  44  68  95 135 175 219 268 338 392
#     4  10  24  45  69  95 130 178 220 272 331 397
#     4  10  24  45  68  96 133 174 224 272 331 391
#     4  12  25  42  68  99 133 173 224 270 334 392
#     4  12  27  42  65 101 135 172 224 278 329 390
#     4  10  23  44  71  96 131 178 218 272 330 400
#
# _framework density 20.682492
#
# number of rings (size 3 to 8) (size 9 to 14) (size 15 to 20)
#    0.000    1.333    1.667    2.000    7.000    5.333 
#    0.000    0.000    0.000    0.000    0.000    0.000 
#    0.000    0.000    0.000    0.000    0.000    0.000 
#
# Total GULP energy -134131.230039 kJ/mol
# GULP energy per Si atom -5588.801252 kJ/mol
# Density = 2.063542 g / cm^3
# Si number density = 20.682492 Si / 1000 Ang^3
#
#
#
# Elastic Constant Matrix: (Units=GPa)
#
#
# Indices 1 2 3 4 5 6 
#
# 1 29.8271 -4.5387 22.8172 0.0000 6.8955 0.0000
# 2 -4.5387 120.1603 61.4563 0.0000 -4.8953 0.0000
# 3 22.8172 61.4563 82.0217 0.0000 18.9251 0.0000
# 4 0.0000 0.0000 0.0000 36.4909 0.0000 -6.0471
# 5 6.8955 -4.8953 18.9251 0.0000 22.5626 0.0000
# 6 0.0000 0.0000 0.0000 -6.0471 0.0000 32.2921
#
#
#
# Elastic Compliance Matrix: (Units=1/GPa)
#
#
# Indices 1 2 3 4 5 6 
#
# 1 0.062511 0.023017 -0.038910 0.000000 0.018526 0.000000
# 2 0.023017 0.026954 -0.032642 0.000000 0.026193 0.000000
# 3 -0.038910 -0.032642 0.057490 0.000000 -0.043413 0.000000
# 4 0.000000 0.000000 0.000000 0.028282 0.000000 0.005296
# 5 0.018526 0.026193 -0.043413 0.000000 0.080756 0.000000
# 6 0.000000 0.000000 0.000000 0.005296 0.000000 0.031959
#
#
# Mechanical properties :
#
#
# Convention : Reuss Voigt Hill
#
# Bulk Modulus (GPa) = 20.04626 43.49766 31.77196
# Shear Modulus (GPa) = 12.44861 28.42073 20.43467
#
# Velocity S-wave (km/s) = 2.45601 3.71097 3.14669
# Velocity P-wave (km/s) = 4.21379 6.28001 5.34764
#
# Compressibility (1/GPa) = 0.04988461
#
# Stress axis : x y z
#
# Youngs Moduli (GPa) = 15.99707 37.10089 17.39420
#
# Poissons Ratio (x) = -0.85394 0.67681
# Poissons Ratio (y) = -0.36820 0.56778
# Poissons Ratio (z) = 0.62245 1.21105
#
# Static dielectric constant tensor:
#      x y z
#    x 1.856050 0.000000 -0.031140 
#    y 0.000000 1.241680 0.000000 
#    z -0.031140 0.000000 1.730830 
# 
# From -- ./inp_files/189195.got.cif
#   From: 2010.05.17/outbox.cif.g08.bks.cpg/sg15_95_cif.got.tgz:189195.got - 2010.06.03 18:47:42.
