data_PCOD9296058
_publ_section_title
;
Structure prediction by ZEFSAII (Michael W. Deem and Ramdas Pophale) SiO2 
 PCOD9296058
Probable space group: C 2/C
;
_chemical_formula_sum "Si O2"
_cell_formula_units_Z 48
_cell_length_a 11.933328
_cell_length_b 7.881845
_cell_length_c 23.039685
_cell_angle_alpha 90.000000
_cell_angle_beta 69.166110
_cell_angle_gamma 90.000000
_cell_volume 2025.344804
_symmetry_space_group_name_H-M "C 2/C"
_symmetry_group_IT_number 15
_symmetry_cell_setting 'monoclinic'
loop_
_space_group_symop_operation_xyz
x,y,z
-x,y,1/2-z
-x,-y,-z
x,-y,1/2+z
1/2+x,1/2+y,z
1/2-x,1/2+y,1/2-z
1/2-x,1/2-y,-z
1/2+x,1/2-y,1/2+z
loop_
_atom_site_type_symbol
_atom_site_label
_atom_site_fract_x
_atom_site_fract_y
_atom_site_fract_z
Si Si1 0.049287 0.209062 0.645359
Si Si2 0.821644 0.864217 0.031676
Si Si3 0.695649 0.469906 0.342332
Si Si4 0.420764 0.026986 0.718290
Si Si5 0.193479 0.358126 0.378355
Si Si6 0.092099 0.757705 0.007522
O O1 0.163867 0.109479 0.649444
O O2 0.090255 0.285098 0.575672
O O3 0.932500 0.095967 0.655670
O O4 0.005399 0.363338 0.692694
O O5 0.768077 0.862264 0.107124
O O6 0.956420 0.794087 0.013145
O O7 0.750000 0.750000 0.000000
O O8 0.839613 0.060173 0.008877
O O9 0.792687 0.478414 0.273859
O O10 0.681344 0.658253 0.368561
O O11 0.500000 0.136064 0.750000
O O12 0.384381 0.065187 0.658691
O O13 0.144389 0.377929 0.452553
#
# Coordination Sequence:
#
# PCOD9296058 Si02
#       6
#     8   8   8   8   8   8
#     4  11  24  46  69  98 138 171 226 288 336 407
#     4   9  19  37  67  99 139 174 219 285 338 400
#     4  10  23  44  66  96 132 177 224 276 338 402
#     4  12  26  44  65  96 134 180 230 275 334 406
#     4  11  24  45  69  97 138 176 219 283 341 404
#     4   9  21  39  65 104 132 172 226 275 345 409
#
# _framework density 23.699667000000002
#
# number of rings (size 3 to 8) (size 9 to 14) (size 15 to 20)
#    0.000    1.667    1.667    2.500    2.333    3.333 
#    6.000    0.000    0.000    0.000    0.000    0.000 
#    0.000    0.000    0.000    0.000    0.000    0.000 
#
# Total GULP energy -134098.490008 kJ/mol
# GULP energy per Si atom -5587.437084 kJ/mol
# Density = 2.364573 g / cm^3
# Si number density = 23.699667 Si / 1000 Ang^3
#
#
#
# Elastic Constant Matrix: (Units=GPa)
#
#
# Indices 1 2 3 4 5 6 
#
# 1 134.1902 23.5712 57.4236 0.0000 20.6922 0.0000
# 2 23.5712 20.3773 27.4469 0.0000 0.7531 0.0000
# 3 57.4236 27.4469 134.9178 0.0000 4.8445 0.0000
# 4 0.0000 0.0000 0.0000 17.4373 0.0000 -4.5217
# 5 20.6922 0.7531 4.8445 0.0000 43.9741 0.0000
# 6 0.0000 0.0000 0.0000 -4.5217 0.0000 26.0321
#
#
#
# Elastic Compliance Matrix: (Units=1/GPa)
#
#
# Indices 1 2 3 4 5 6 
#
# 1 0.010857 -0.008799 -0.002663 0.000000 -0.004665 0.000000
# 2 -0.008799 0.074733 -0.011607 0.000000 0.004139 0.000000
# 3 -0.002663 -0.011607 0.010898 0.000000 0.000251 0.000000
# 4 0.000000 0.000000 0.000000 0.060053 0.000000 0.010431
# 5 -0.004665 0.004139 0.000251 0.000000 0.024837 0.000000
# 6 0.000000 0.000000 0.000000 0.010431 0.000000 0.040226
#
#
# Mechanical properties :
#
#
# Convention : Reuss Voigt Hill
#
# Bulk Modulus (GPa) = 19.86125 56.26318 38.06221
# Shear Modulus (GPa) = 17.57321 29.55827 23.56574
#
# Velocity S-wave (km/s) = 2.72600 3.53541 3.15675
# Velocity P-wave (km/s) = 4.27863 6.36059 5.42050
#
# Compressibility (1/GPa) = 0.05034930
#
# Stress axis : x y z
#
# Youngs Moduli (GPa) = 92.10971 13.38102 91.76224
#
# Poissons Ratio (x) = 0.11773 0.24440
# Poissons Ratio (y) = 0.81043 1.06508
# Poissons Ratio (z) = 0.24532 0.15531
#
# Static dielectric constant tensor:
#      x y z
#    x 1.952110 0.000000 0.040110 
#    y 0.000000 1.903930 0.000000 
#    z 0.040110 0.000000 2.006560 
# 
# From -- ./inp_files/268003.got.cif
#   From: 2010.05.17/outbox.cif.g08.bks.cpg/sg15_135_cif.got.tgz:268003.got - 2010.06.03 18:47:42.
