data_PCOD9296018
_publ_section_title
;
Structure prediction by ZEFSAII (Michael W. Deem and Ramdas Pophale) SiO2 
 PCOD9296018
Probable space group: C 2/C
;
_chemical_formula_sum "Si O2"
_cell_formula_units_Z 44
_cell_length_a 28.129264
_cell_length_b 9.016830
_cell_length_c 23.689057
_cell_angle_alpha 90.000000
_cell_angle_beta 159.453850
_cell_angle_gamma 90.000000
_cell_volume 2108.724209
_symmetry_space_group_name_H-M "C 2/C"
_symmetry_group_IT_number 15
_symmetry_cell_setting 'monoclinic'
loop_
_space_group_symop_operation_xyz
x,y,z
-x,y,1/2-z
-x,-y,-z
x,-y,1/2+z
1/2+x,1/2+y,z
1/2-x,1/2+y,1/2-z
1/2-x,1/2-y,-z
1/2+x,1/2-y,1/2+z
loop_
_atom_site_type_symbol
_atom_site_label
_atom_site_fract_x
_atom_site_fract_y
_atom_site_fract_z
Si Si1 0.761676 0.994084 0.432507
Si Si2 0.796819 0.606625 0.251827
Si Si3 0.909343 0.676317 0.937776
Si Si4 0.350543 0.797172 0.060947
Si Si5 0.500000 0.333735 0.250000
Si Si6 0.040272 0.430853 0.879911
O O1 0.757280 0.093968 0.371889
O O2 0.606280 0.988925 0.279976
O O3 0.865667 0.065960 0.593241
O O4 0.814345 0.830405 0.475748
O O5 0.844787 0.445690 0.325198
O O6 0.682085 0.679022 0.162029
O O7 0.934714 0.702436 0.405105
O O8 0.912065 0.604521 0.003864
O O9 0.500000 0.769976 0.250000
O O10 0.358064 0.961086 0.041690
O O11 0.250000 0.750000 0.000000
O O12 0.493278 0.221350 0.189855
#
# Coordination Sequence:
#
# PCOD9296018 Si02
#       6
#     8   8   8   8   4   8
#     4  11  23  39  62  92 127 166 210 258 318 376
#     4  10  23  44  65  92 127 165 215 263 315 378
#     4  10  23  44  66  93 126 166 211 265 319 369
#     4  12  23  41  59  89 126 167 207 251 309 378
#     4  12  20  38  64  94 124 164 200 264 312 386
#     4  11  23  41  62  92 129 165 207 264 314 379
#
# _framework density 20.865697000000001
#
# number of rings (size 3 to 8) (size 9 to 14) (size 15 to 20)
#    0.000    1.091    5.455    0.545    2.545    0.727 
#    3.273    0.000    0.000    0.000    0.000    0.000 
#    0.000    0.000    0.000    0.000    0.000    0.000 
#
# Total GULP energy -122764.052907 kJ/mol
# GULP energy per Si atom -5580.184223 kJ/mol
# Density = 2.081821 g / cm^3
# Si number density = 20.865697 Si / 1000 Ang^3
#
#
#
# Elastic Constant Matrix: (Units=GPa)
#
#
# Indices 1 2 3 4 5 6 
#
# 1 31.4499 -11.4171 5.1337 0.0002 -0.1643 0.0001
# 2 -11.4171 47.6379 14.4685 0.0002 0.5058 0.0001
# 3 5.1337 14.4685 81.7693 0.0003 -6.8879 0.0003
# 4 0.0002 0.0002 0.0003 25.8442 0.0002 6.9519
# 5 -0.1643 0.5058 -6.8879 0.0002 18.6379 0.0002
# 6 0.0001 0.0001 0.0003 6.9519 0.0002 33.7334
#
#
#
# Elastic Compliance Matrix: (Units=1/GPa)
#
#
# Indices 1 2 3 4 5 6 
#
# 1 0.036066 0.009918 -0.004144 0.000000 -0.001483 0.000000
# 2 0.009918 0.024993 -0.005258 0.000000 -0.002534 0.000000
# 3 -0.004144 -0.005258 0.013861 0.000000 0.005229 0.000000
# 4 0.000000 0.000000 0.000000 0.040964 0.000000 -0.008442
# 5 -0.001483 -0.002534 0.005229 0.000000 0.055642 0.000000
# 6 0.000000 0.000000 0.000000 -0.008442 0.000000 0.031384
#
#
# Mechanical properties :
#
#
# Convention : Reuss Voigt Hill
#
# Bulk Modulus (GPa) = 13.16653 19.69192 16.42923
# Shear Modulus (GPa) = 22.00751 25.82122 23.91437
#
# Velocity S-wave (km/s) = 3.25117 3.52162 3.38910
# Velocity P-wave (km/s) = 4.51855 5.09840 4.81721
#
# Compressibility (1/GPa) = 0.07595013
#
# Stress axis : x y z
#
# Youngs Moduli (GPa) = 27.72706 40.01173 72.14712
#
# Poissons Ratio (x) = -0.39684 0.29899
# Poissons Ratio (y) = -0.27500 0.37938
# Poissons Ratio (z) = 0.11490 0.21040
#
# Static dielectric constant tensor:
#      x y z
#    x 1.791000 0.000000 -0.003830 
#    y 0.000000 1.795440 0.000000 
#    z -0.003830 0.000000 1.723970 
# 
# From -- ./inp_files/284501.got.cif
#   From: 2010.05.17/outbox.cif.g08.bks.cpg/sg15_143_cif.got.tgz:284501.got - 2010.06.03 18:47:42.
