data_PCOD9296681
_publ_section_title
;
Structure prediction by ZEFSAII (Michael W. Deem and Ramdas Pophale) SiO2 
 PCOD9296681
Probable space group: C 2/C
;
_chemical_formula_sum "Si O2"
_cell_formula_units_Z 32
_cell_length_a 17.085315
_cell_length_b 12.467129
_cell_length_c 11.505400
_cell_angle_alpha 90.000000
_cell_angle_beta 30.244081
_cell_angle_gamma 90.000000
_cell_volume 1234.383064
_symmetry_space_group_name_H-M "C 2/C"
_symmetry_group_IT_number 15
_symmetry_cell_setting 'monoclinic'
loop_
_space_group_symop_operation_xyz
x,y,z
-x,y,1/2-z
-x,-y,-z
x,-y,1/2+z
1/2+x,1/2+y,z
1/2-x,1/2+y,1/2-z
1/2-x,1/2-y,-z
1/2+x,1/2-y,1/2+z
loop_
_atom_site_type_symbol
_atom_site_label
_atom_site_fract_x
_atom_site_fract_y
_atom_site_fract_z
Si Si1 0.731647 0.678165 0.862911
Si Si2 0.917813 0.897366 0.171841
Si Si3 0.702903 0.440965 0.935517
Si Si4 0.550710 0.881511 0.068496
O O1 0.674395 0.671372 0.803010
O O2 0.908381 0.669144 0.678167
O O3 0.706425 0.411803 0.065474
O O4 0.656241 0.790019 0.994749
O O5 0.840186 0.932930 0.998225
O O6 0.073768 0.864754 0.040829
O O7 0.000000 0.000000 0.000000
O O8 0.845333 0.560636 0.162575
O O9 0.500000 0.946152 0.250000
#
# Coordination Sequence:
#
# PCOD9296681 Si02
#       4
#     8   8   8   8
#     4  11  25  44  71 102 145 184 236 294 352 424
#     4   9  21  41  74  98 138 179 239 279 359 410
#     4  10  23  45  72 107 137 189 233 297 352 420
#     4  12  27  43  71 108 143 185 239 290 360 421
#
# _framework density 25.923881999999999
#
# number of rings (size 3 to 8) (size 9 to 14) (size 15 to 20)
#    0.000    1.500    0.000    3.000   14.000    2.000 
#    0.000    0.000    0.000    0.000    0.000    0.000 
#    0.000    0.000    0.000    0.000    0.000    0.000 
#
# Total GULP energy -89128.857082 kJ/mol
# GULP energy per Si atom -5570.553568 kJ/mol
# Density = 2.586488 g / cm^3
# Si number density = 25.923882 Si / 1000 Ang^3
#
#
#
# Elastic Constant Matrix: (Units=GPa)
#
#
# Indices 1 2 3 4 5 6 
#
# 1 128.2889 13.8473 77.1285 0.0000 31.3522 0.0000
# 2 13.8473 45.1448 27.6067 0.0000 -3.6193 0.0000
# 3 77.1285 27.6067 176.6929 0.0000 12.1585 0.0000
# 4 0.0000 0.0000 0.0000 28.2668 0.0000 -14.8398
# 5 31.3522 -3.6193 12.1585 0.0000 70.8398 0.0000
# 6 0.0000 0.0000 0.0000 -14.8398 0.0000 27.3644
#
#
#
# Elastic Compliance Matrix: (Units=1/GPa)
#
#
# Indices 1 2 3 4 5 6 
#
# 1 0.011825 -0.001127 -0.004677 0.000000 -0.004488 0.000000
# 2 -0.001127 0.024862 -0.003556 0.000000 0.002379 0.000000
# 3 -0.004677 -0.003556 0.008224 0.000000 0.000477 0.000000
# 4 0.000000 0.000000 0.000000 0.049458 0.000000 0.026821
# 5 -0.004488 0.002379 0.000477 0.000000 0.016143 0.000000
# 6 0.000000 0.000000 0.000000 0.026821 0.000000 0.051089
#
#
# Mechanical properties :
#
#
# Convention : Reuss Voigt Hill
#
# Bulk Modulus (GPa) = 38.18120 65.25460 51.71790
# Shear Modulus (GPa) = 26.44777 40.73049 33.58913
#
# Velocity S-wave (km/s) = 3.19754 3.96808 3.60346
# Velocity P-wave (km/s) = 5.32846 6.79857 6.10790
#
# Compressibility (1/GPa) = 0.02619090
#
# Stress axis : x y z
#
# Youngs Moduli (GPa) = 84.56441 40.22188 121.59685
#
# Poissons Ratio (x) = 0.04533 0.56870
# Poissons Ratio (y) = 0.09531 0.43243
# Poissons Ratio (z) = 0.39550 0.14304
#
# Static dielectric constant tensor:
#      x y z
#    x 2.076580 0.000000 0.004570 
#    y 0.000000 2.059900 0.000000 
#    z 0.004570 0.000000 2.185370 
# 
# From -- ./inp_files/152923.got.cif
#   From: 2010.05.17/outbox.cif.g08.bks.cpg/sg15_77_cif.got.tgz:152923.got - 2010.06.03 18:47:42.
