data_PCOD9296812
_publ_section_title
;
Structure prediction by ZEFSAII (Michael W. Deem and Ramdas Pophale) SiO2 
 PCOD9296812
Probable space group: C 2/C
;
_chemical_formula_sum "Si O2"
_cell_formula_units_Z 40
_cell_length_a 5.292777
_cell_length_b 24.600758
_cell_length_c 13.425954
_cell_angle_alpha 90.000000
_cell_angle_beta 100.588087
_cell_angle_gamma 90.000000
_cell_volume 1718.379500
_symmetry_space_group_name_H-M "C 2/C"
_symmetry_group_IT_number 15
_symmetry_cell_setting 'monoclinic'
loop_
_space_group_symop_operation_xyz
x,y,z
-x,y,1/2-z
-x,-y,-z
x,-y,1/2+z
1/2+x,1/2+y,z
1/2-x,1/2+y,1/2-z
1/2-x,1/2-y,-z
1/2+x,1/2-y,1/2+z
loop_
_atom_site_type_symbol
_atom_site_label
_atom_site_fract_x
_atom_site_fract_y
_atom_site_fract_z
Si Si1 0.714521 0.004886 0.181464
Si Si2 0.338424 0.381662 0.634672
Si Si3 0.785737 0.382868 0.319450
Si Si4 0.023477 0.270584 0.637435
Si Si5 0.592451 0.677972 0.986953
O O1 0.500000 0.011802 0.250000
O O2 0.700916 0.060104 0.117420
O O3 0.000000 0.003153 0.250000
O O4 0.672999 0.944404 0.136980
O O5 0.500000 0.383579 0.750000
O O6 0.488003 0.372107 0.542663
O O7 0.175875 0.326503 0.635059
O O8 0.500000 0.380438 0.250000
O O9 0.777329 0.342693 0.412345
O O10 0.000000 0.372514 0.250000
O O11 0.741447 0.286079 0.578237
O O12 0.109954 0.218244 0.580744
O O13 0.000000 0.255562 0.750000
#
# Coordination Sequence:
#
# PCOD9296812 Si02
#       5
#     8   8   8   8   8
#     4   9  20  39  69  97 134 177 218 270 335 393
#     4  11  22  40  68  96 134 174 222 277 334 395
#     4  10  23  46  68 100 138 178 222 276 332 395
#     4  11  23  44  62  93 133 174 225 275 336 393
#     4  11  25  41  66  97 128 179 224 274 332 403
#
# _framework density 23.277743999999998
#
# number of rings (size 3 to 8) (size 9 to 14) (size 15 to 20)
#    0.000    1.600    2.000    1.800    5.600    0.800 
#    7.200    1.000    0.000    0.000    0.000    0.000 
#    0.000    0.000    0.000    0.000    0.000    0.000 
#
# Total GULP energy -111695.627601 kJ/mol
# GULP energy per Si atom -5584.781380 kJ/mol
# Density = 2.322476 g / cm^3
# Si number density = 23.277744 Si / 1000 Ang^3
#
#
#
# Elastic Constant Matrix: (Units=GPa)
#
#
# Indices 1 2 3 4 5 6 
#
# 1 89.8396 21.8092 38.2145 0.0000 -18.9637 0.0000
# 2 21.8092 151.0212 65.2011 0.0000 -16.8787 0.0000
# 3 38.2145 65.2011 133.6797 0.0000 -12.5462 0.0000
# 4 0.0000 0.0000 0.0000 80.6222 0.0000 -36.6646
# 5 -18.9637 -16.8787 -12.5462 0.0000 29.8849 0.0000
# 6 0.0000 0.0000 0.0000 -36.6646 0.0000 38.7294
#
#
#
# Elastic Compliance Matrix: (Units=1/GPa)
#
#
# Indices 1 2 3 4 5 6 
#
# 1 0.014160 0.000319 -0.003480 0.000000 0.007704 0.000000
# 2 0.000319 0.008689 -0.004007 0.000000 0.003427 0.000000
# 3 -0.003480 -0.004007 0.010421 0.000000 -0.000097 0.000000
# 4 0.000000 0.000000 0.000000 0.021781 0.000000 0.020620
# 5 0.007704 0.003427 -0.000097 0.000000 0.040246 0.000000
# 6 0.000000 0.000000 0.000000 0.020620 0.000000 0.045340
#
#
# Mechanical properties :
#
#
# Convention : Reuss Voigt Hill
#
# Bulk Modulus (GPa) = 52.82036 69.44333 61.13185
# Shear Modulus (GPa) = 31.00104 46.46835 38.73469
#
# Velocity S-wave (km/s) = 3.65333 4.47280 4.08367
# Velocity P-wave (km/s) = 6.36682 7.52142 6.96808
#
# Compressibility (1/GPa) = 0.01893209
#
# Stress axis : x y z
#
# Youngs Moduli (GPa) = 70.62024 115.09225 95.96096
#
# Poissons Ratio (x) = -0.03669 0.33398
# Poissons Ratio (y) = -0.02251 0.38454
# Poissons Ratio (z) = 0.24578 0.46121
#
# Static dielectric constant tensor:
#      x y z
#    x 1.934850 0.000000 0.011870 
#    y 0.000000 1.916520 0.000000 
#    z 0.011870 0.000000 1.856400 
# 
# From -- ./inp_files/73191.got.cif
#   From: 2010.05.17/outbox.cif.g08.bks.cpg/sg15_37_cif.got.tgz:73191.got - 2010.06.03 18:47:42.
