data_PCOD9296492
_publ_section_title
;
Structure prediction by ZEFSAII (Michael W. Deem and Ramdas Pophale) SiO2 
 PCOD9296492
Probable space group: C 2/C
;
_chemical_formula_sum "Si O2"
_cell_formula_units_Z 60
_cell_length_a 28.348910
_cell_length_b 6.423969
_cell_length_c 18.418039
_cell_angle_alpha 90.000000
_cell_angle_beta 124.542678
_cell_angle_gamma 90.000000
_cell_volume 2762.831485
_symmetry_space_group_name_H-M "C 2/C"
_symmetry_group_IT_number 15
_symmetry_cell_setting 'monoclinic'
loop_
_space_group_symop_operation_xyz
x,y,z
-x,y,1/2-z
-x,-y,-z
x,-y,1/2+z
1/2+x,1/2+y,z
1/2-x,1/2+y,1/2-z
1/2-x,1/2-y,-z
1/2+x,1/2-y,1/2+z
loop_
_atom_site_type_symbol
_atom_site_label
_atom_site_fract_x
_atom_site_fract_y
_atom_site_fract_z
Si Si1 0.188673 0.318748 0.977183
Si Si2 0.178596 0.645382 0.843792
Si Si3 0.538334 0.581798 0.632896
Si Si4 0.635831 0.902717 0.665897
Si Si5 0.000000 0.987004 0.750000
Si Si6 0.697720 0.179003 0.085636
Si Si7 0.119242 0.092855 0.404517
Si Si8 0.455679 0.192126 0.961115
O O1 0.169134 0.484084 0.900411
O O2 0.141831 0.138866 0.940572
O O3 0.250000 0.250000 0.000000
O O4 0.201259 0.441055 0.062239
O O5 0.155978 0.534098 0.752432
O O6 0.244744 0.705492 0.889703
O O7 0.146845 0.845095 0.850307
O O8 0.590461 0.724258 0.649333
O O9 0.532198 0.606151 0.713579
O O10 0.545084 0.344684 0.609888
O O11 0.478922 0.662654 0.545463
O O12 0.685633 0.805897 0.660249
O O13 0.603878 0.072549 0.587182
O O14 0.051624 0.871872 0.836418
O O15 0.645559 0.277853 0.994319
O O16 0.500000 0.000000 0.000000
#
# Coordination Sequence:
#
# PCOD9296492 Si02
#       8
#     8   8   8   8   4   8   8   8
#     4  11  20  43  74  93 132 182 229 292 353 410
#     4  11  23  46  65 100 137 175 235 292 340 417
#     4  10  23  45  65  97 137 178 234 280 348 423
#     4  11  25  43  65 100 140 181 225 289 351 419
#     4  12  26  40  72 104 130 184 226 290 344 414
#     4  11  25  42  69 103 133 184 233 283 357 423
#     4  11  24  45  68  99 139 175 234 289 352 418
#     4   9  21  43  69  89 133 183 221 283 346 417
#
# _framework density 21.716850999999998
#
# number of rings (size 3 to 8) (size 9 to 14) (size 15 to 20)
#    0.000    1.333    2.667    2.400    7.467    1.067 
#    4.800    5.333    0.000    0.000    0.000    0.000 
#    0.000    0.000    0.000    0.000    0.000    0.000 
#
# Total GULP energy -167424.263703 kJ/mol
# GULP energy per Si atom -5580.808790 kJ/mol
# Density = 2.166742 g / cm^3
# Si number density = 21.716851 Si / 1000 Ang^3
#
#
#
# Elastic Constant Matrix: (Units=GPa)
#
#
# Indices 1 2 3 4 5 6 
#
# 1 73.7403 20.7824 10.2969 0.0000 -12.4828 0.0000
# 2 20.7824 89.2848 13.9786 -0.0001 -3.0706 0.0002
# 3 10.2969 13.9786 58.2971 0.0000 -2.4249 0.0000
# 4 0.0000 -0.0001 0.0000 23.7194 0.0000 0.5027
# 5 -12.4828 -3.0706 -2.4249 0.0000 45.0518 0.0000
# 6 0.0000 0.0002 0.0000 0.5027 0.0000 19.1878
#
#
#
# Elastic Compliance Matrix: (Units=1/GPa)
#
#
# Indices 1 2 3 4 5 6 
#
# 1 0.015371 -0.003161 -0.001793 0.000000 0.003947 0.000000
# 2 -0.003161 0.012306 -0.002399 0.000000 -0.000166 0.000000
# 3 -0.001793 -0.002399 0.018058 0.000000 0.000312 0.000000
# 4 0.000000 0.000000 0.000000 0.042183 0.000000 -0.001105
# 5 0.003947 -0.000166 0.000312 0.000000 0.023296 0.000000
# 6 0.000000 0.000000 0.000000 -0.001105 0.000000 0.052145
#
#
# Mechanical properties :
#
#
# Convention : Reuss Voigt Hill
#
# Bulk Modulus (GPa) = 32.22864 34.60421 33.41642
# Shear Modulus (GPa) = 26.53815 29.34277 27.94046
#
# Velocity S-wave (km/s) = 3.49951 3.67979 3.59078
# Velocity P-wave (km/s) = 5.58582 5.83295 5.71072
#
# Compressibility (1/GPa) = 0.03102830
#
# Stress axis : x y z
#
# Youngs Moduli (GPa) = 65.05961 81.26204 55.37581
#
# Poissons Ratio (x) = 0.25690 0.09927
# Poissons Ratio (y) = 0.20567 0.13286
# Poissons Ratio (z) = 0.11663 0.19497
#
# Static dielectric constant tensor:
#      x y z
#    x 2.297000 0.000010 0.533340 
#    y 0.000010 1.875020 0.000010 
#    z 0.533340 0.000010 2.371290 
# 
# From -- ./inp_files/256788.got.cif
#   From: 2010.05.17/outbox.cif.g08.bks.cpg/sg15_129_cif.got.tgz:256788.got - 2010.06.03 18:47:42.
