data_PCOD9296098
_publ_section_title
;
Structure prediction by ZEFSAII (Michael W. Deem and Ramdas Pophale) SiO2 
 PCOD9296098
Probable space group: C 2/C
;
_chemical_formula_sum "Si O2"
_cell_formula_units_Z 36
_cell_length_a 6.434522
_cell_length_b 19.304557
_cell_length_c 13.635888
_cell_angle_alpha 90.000000
_cell_angle_beta 80.623958
_cell_angle_gamma 90.000000
_cell_volume 1671.161557
_symmetry_space_group_name_H-M "C 2/C"
_symmetry_group_IT_number 15
_symmetry_cell_setting 'monoclinic'
loop_
_space_group_symop_operation_xyz
x,y,z
-x,y,1/2-z
-x,-y,-z
x,-y,1/2+z
1/2+x,1/2+y,z
1/2-x,1/2+y,1/2-z
1/2-x,1/2-y,-z
1/2+x,1/2-y,1/2+z
loop_
_atom_site_type_symbol
_atom_site_label
_atom_site_fract_x
_atom_site_fract_y
_atom_site_fract_z
Si Si1 0.839597 0.691282 0.354374
Si Si2 0.812035 0.946628 0.002928
Si Si3 0.500000 0.248531 0.750000
Si Si4 0.493857 0.953749 0.866967
Si Si5 0.852013 0.795033 0.078560
O O1 0.613694 0.706215 0.325182
O O2 0.864438 0.616687 0.402949
O O3 0.000000 0.685929 0.250000
O O4 0.933774 0.755632 0.407637
O O5 0.875717 0.872466 0.039344
O O6 0.618649 0.979250 0.079552
O O7 0.721327 0.943035 0.899434
O O8 0.000000 0.000000 0.000000
O O9 0.312946 0.206888 0.817720
O O10 0.500000 0.961040 0.750000
O O11 0.750000 0.750000 0.000000
#
# Coordination Sequence:
#
# PCOD9296098 Si02
#       5
#     8   8   4   8   8
#     4   9  20  40  66  96 123 167 222 263 322 396
#     4  11  26  43  64  97 133 173 220 272 342 387
#     4  10  24  40  70  96 134 174 220 272 336 376
#     4  10  23  44  67  93 131 172 225 273 325 403
#     4  11  23  43  67  98 132 168 224 272 324 403
#
# _framework density 21.541902
#
# number of rings (size 3 to 8) (size 9 to 14) (size 15 to 20)
#    0.000    1.778    2.222    0.000    4.667    5.333 
#    8.000    0.000    0.000    0.000    0.000    0.000 
#    0.000    0.000    0.000    0.000    0.000    0.000 
#
# Total GULP energy -100613.452544 kJ/mol
# GULP energy per Si atom -5589.636252 kJ/mol
# Density = 2.149287 g / cm^3
# Si number density = 21.541902 Si / 1000 Ang^3
#
#
#
# Elastic Constant Matrix: (Units=GPa)
#
#
# Indices 1 2 3 4 5 6 
#
# 1 92.7569 27.5648 33.6337 0.0000 28.7445 0.0000
# 2 27.5648 152.2867 35.4227 0.0000 23.4541 0.0000
# 3 33.6337 35.4227 91.8095 0.0000 19.9178 0.0000
# 4 0.0000 0.0000 0.0000 28.8295 0.0000 4.9341
# 5 28.7445 23.4541 19.9178 0.0000 52.6741 0.0000
# 6 0.0000 0.0000 0.0000 4.9341 0.0000 23.2288
#
#
#
# Elastic Compliance Matrix: (Units=1/GPa)
#
#
# Indices 1 2 3 4 5 6 
#
# 1 0.014186 -0.000807 -0.003578 0.000000 -0.006029 0.000000
# 2 -0.000807 0.007538 -0.002157 0.000000 -0.002100 0.000000
# 3 -0.003578 -0.002157 0.013511 0.000000 -0.002196 0.000000
# 4 0.000000 0.000000 0.000000 0.035995 0.000000 -0.007646
# 5 -0.006029 -0.002100 -0.002196 0.000000 0.024041 0.000000
# 6 0.000000 0.000000 0.000000 -0.007646 0.000000 0.044674
#
#
# Mechanical properties :
#
#
# Convention : Reuss Voigt Hill
#
# Bulk Modulus (GPa) = 45.14189 58.89952 52.02070
# Shear Modulus (GPa) = 31.16949 36.96194 34.06571
#
# Velocity S-wave (km/s) = 3.80797 4.14673 3.98096
# Velocity P-wave (km/s) = 6.35099 7.09425 6.73288
#
# Compressibility (1/GPa) = 0.02215237
#
# Stress axis : x y z
#
# Youngs Moduli (GPa) = 70.48997 132.66390 74.01109
#
# Poissons Ratio (x) = 0.10707 0.26479
# Poissons Ratio (y) = 0.05689 0.15964
# Poissons Ratio (z) = 0.25219 0.28616
#
# Static dielectric constant tensor:
#      x y z
#    x 1.808410 0.000000 -0.021180 
#    y 0.000000 1.767220 0.000000 
#    z -0.021180 0.000000 1.826340 
# 
# From -- ./inp_files/128724.got.cif
#   From: 2010.05.17/outbox.cif.g08.bks.cpg/sg15_65_cif.got.tgz:128724.got - 2010.06.03 18:47:42.
