data_PCOD9296480
_publ_section_title
;
Structure prediction by ZEFSAII (Michael W. Deem and Ramdas Pophale) SiO2 
 PCOD9296480
Probable space group: C 2/C
;
_chemical_formula_sum "Si O2"
_cell_formula_units_Z 36
_cell_length_a 7.788927
_cell_length_b 27.412763
_cell_length_c 11.345670
_cell_angle_alpha 90.000000
_cell_angle_beta 139.222814
_cell_angle_gamma 90.000000
_cell_volume 1582.169465
_symmetry_space_group_name_H-M "C 2/C"
_symmetry_group_IT_number 15
_symmetry_cell_setting 'monoclinic'
loop_
_space_group_symop_operation_xyz
x,y,z
-x,y,1/2-z
-x,-y,-z
x,-y,1/2+z
1/2+x,1/2+y,z
1/2-x,1/2+y,1/2-z
1/2-x,1/2-y,-z
1/2+x,1/2-y,1/2+z
loop_
_atom_site_type_symbol
_atom_site_label
_atom_site_fract_x
_atom_site_fract_y
_atom_site_fract_z
Si Si1 0.238356 0.788868 0.683801
Si Si2 0.018941 0.374794 0.536510
Si Si3 0.073113 0.473311 0.660821
Si Si4 0.274543 0.184757 0.722414
Si Si5 0.500000 0.566357 0.250000
O O1 0.500000 0.773810 0.750000
O O2 0.338166 0.830557 0.823038
O O3 0.142216 0.739239 0.693440
O O4 0.009878 0.810150 0.483370
O O5 0.253922 0.400477 0.584746
O O6 0.941697 0.419139 0.582545
O O7 0.792824 0.352106 0.340532
O O8 0.000000 0.494441 0.750000
O O9 0.000000 0.500000 0.500000
O O10 0.383785 0.463788 0.799193
O O11 0.500000 0.168573 0.750000
#
# Coordination Sequence:
#
# PCOD9296480 Si02
#       5
#     8   8   8   8   4
#     4  12  25  42  66  99 148 191 254 313 368 432
#     4  10  23  45  65 102 146 190 243 307 367 450
#     4  10  23  47  77 107 146 193 243 316 385 455
#     4  12  25  39  69  99 141 204 250 296 379 444
#     4   8  22  44  70 100 156 182 242 312 378 436
#
# _framework density 22.753567
#
# number of rings (size 3 to 8) (size 9 to 14) (size 15 to 20)
#    1.333    0.000    2.222    3.333    1.556    1.778 
#    0.000    2.222    0.000    0.000    0.000    0.000 
#    0.000    0.000    0.000    0.000    0.000    0.000 
#
# Total GULP energy -100396.876022 kJ/mol
# GULP energy per Si atom -5577.604223 kJ/mol
# Density = 2.270178 g / cm^3
# Si number density = 22.753567 Si / 1000 Ang^3
#
#
#
# Elastic Constant Matrix: (Units=GPa)
#
#
# Indices 1 2 3 4 5 6 
#
# 1 95.8843 14.9241 39.6117 0.0000 -22.7492 0.0000
# 2 14.9241 54.8595 7.4561 0.0000 -21.4800 0.0000
# 3 39.6117 7.4561 122.8622 0.0000 -8.3205 0.0000
# 4 0.0000 0.0000 0.0000 9.3122 0.0000 -9.4259
# 5 -22.7492 -21.4800 -8.3205 0.0000 24.6322 0.0000
# 6 0.0000 0.0000 0.0000 -9.4259 0.0000 25.1990
#
#
#
# Elastic Compliance Matrix: (Units=1/GPa)
#
#
# Indices 1 2 3 4 5 6 
#
# 1 0.015221 0.002093 -0.004051 0.000000 0.014513 0.000000
# 2 0.002093 0.027967 -0.000603 0.000000 0.026117 0.000000
# 3 -0.004051 -0.000603 0.009408 0.000000 -0.001090 0.000000
# 4 0.000000 0.000000 0.000000 0.172820 0.000000 0.064645
# 5 0.014513 0.026117 -0.001090 0.000000 0.076408 0.000000
# 6 0.000000 0.000000 0.000000 0.064645 0.000000 0.063865
#
#
# Mechanical properties :
#
#
# Convention : Reuss Voigt Hill
#
# Bulk Modulus (GPa) = 21.06500 44.17665 32.62082
# Shear Modulus (GPa) = 12.93202 25.93629 19.43415
#
# Velocity S-wave (km/s) = 2.38660 3.37987 2.92569
# Velocity P-wave (km/s) = 4.10761 5.88972 5.07746
#
# Compressibility (1/GPa) = 0.04747212
#
# Stress axis : x y z
#
# Youngs Moduli (GPa) = 65.70027 35.75630 106.29030
#
# Poissons Ratio (x) = -0.07483 0.43062
# Poissons Ratio (y) = -0.13749 0.06411
# Poissons Ratio (z) = 0.26618 0.02157
#
# Static dielectric constant tensor:
#      x y z
#    x 2.089240 0.000000 -0.014110 
#    y 0.000000 1.948360 0.000000 
#    z -0.014110 0.000000 1.846240 
# 
# From -- ./inp_files/81934.got.cif
#   From: 2010.05.17/outbox.cif.g08.bks.cpg/sg15_41_cif.got.tgz:81934.got - 2010.06.03 18:47:42.
