data_PCOD9296231
_publ_section_title
;
Structure prediction by ZEFSAII (Michael W. Deem and Ramdas Pophale) SiO2 
 PCOD9296231
Probable space group: C 2/C
;
_chemical_formula_sum "Si O2"
_cell_formula_units_Z 36
_cell_length_a 7.173296
_cell_length_b 21.272717
_cell_length_c 10.757317
_cell_angle_alpha 90.000000
_cell_angle_beta 71.494913
_cell_angle_gamma 90.000000
_cell_volume 1556.644214
_symmetry_space_group_name_H-M "C 2/C"
_symmetry_group_IT_number 15
_symmetry_cell_setting 'monoclinic'
loop_
_space_group_symop_operation_xyz
x,y,z
-x,y,1/2-z
-x,-y,-z
x,-y,1/2+z
1/2+x,1/2+y,z
1/2-x,1/2+y,1/2-z
1/2-x,1/2-y,-z
1/2+x,1/2-y,1/2+z
loop_
_atom_site_type_symbol
_atom_site_label
_atom_site_fract_x
_atom_site_fract_y
_atom_site_fract_z
Si Si1 0.383090 0.612206 0.573416
Si Si2 0.582494 0.709414 0.364190
Si Si3 0.500000 0.473981 0.250000
Si Si4 0.348694 0.952318 0.597459
Si Si5 0.000000 0.651657 0.250000
Si Si6 0.000000 0.670247 0.750000
O O1 0.482142 0.674804 0.499530
O O2 0.526216 0.569917 0.624506
O O3 0.297142 0.574122 0.476258
O O4 0.194816 0.630381 0.695239
O O5 0.500000 0.681943 0.250000
O O6 0.474540 0.782341 0.138490
O O7 0.811997 0.694872 0.315919
O O8 0.300848 0.513586 0.275590
O O9 0.455008 0.895086 0.644653
O O10 0.500000 0.000000 0.500000
#
# Coordination Sequence:
#
# PCOD9296231 Si02
#       6
#     8   8   4   8   4   4
#     4  12  23  46  67  97 144 177 224 289 331 404
#     4  10  23  44  69  99 136 175 225 277 337 400
#     4  12  26  42  66 104 136 182 226 276 344 396
#     4  12  23  40  64  97 135 179 227 276 332 406
#     4  12  22  42  70 100 130 184 222 270 352 394
#     4  10  24  44  70 100 136 180 228 280 340 404
#
# _framework density 23.126671000000002
#
# number of rings (size 3 to 8) (size 9 to 14) (size 15 to 20)
#    0.667    0.000    2.222    6.667    0.000    0.889 
#    0.000    3.333    0.000    0.000    0.000    0.000 
#    0.000    0.000    0.000    0.000    0.000    0.000 
#
# Total GULP energy -100764.045135 kJ/mol
# GULP energy per Si atom -5598.002508 kJ/mol
# Density = 2.307403 g / cm^3
# Si number density = 23.126671 Si / 1000 Ang^3
#
#
#
# Elastic Constant Matrix: (Units=GPa)
#
#
# Indices 1 2 3 4 5 6 
#
# 1 89.5100 4.4065 2.3960 0.0000 -11.4676 0.0000
# 2 4.4065 50.5358 -9.0170 0.0000 2.4424 0.0000
# 3 2.3960 -9.0170 27.6945 0.0000 5.9139 0.0000
# 4 0.0000 0.0000 0.0000 50.9743 0.0000 -6.3916
# 5 -11.4676 2.4424 5.9139 0.0000 52.7195 0.0000
# 6 0.0000 0.0000 0.0000 -6.3916 0.0000 25.6957
#
#
#
# Elastic Compliance Matrix: (Units=1/GPa)
#
#
# Indices 1 2 3 4 5 6 
#
# 1 0.011669 -0.001533 -0.002116 0.000000 0.002847 0.000000
# 2 -0.001533 0.021375 0.007556 0.000000 -0.002171 0.000000
# 3 -0.002116 0.007556 0.039880 0.000000 -0.005284 0.000000
# 4 0.000000 0.000000 0.000000 0.020249 0.000000 0.005037
# 5 0.002847 -0.002171 -0.005284 0.000000 0.020281 0.000000
# 6 0.000000 0.000000 0.000000 0.005037 0.000000 0.040170
#
#
# Mechanical properties :
#
#
# Convention : Reuss Voigt Hill
#
# Bulk Modulus (GPa) = 12.38602 18.14569 15.26585
# Shear Modulus (GPa) = 28.94822 37.20823 33.07822
#
# Velocity S-wave (km/s) = 3.54181 4.01545 3.78604
# Velocity P-wave (km/s) = 4.70035 5.41864 5.07222
#
# Compressibility (1/GPa) = 0.08073620
#
# Stress axis : x y z
#
# Youngs Moduli (GPa) = 85.69909 46.78434 25.07536
#
# Poissons Ratio (x) = 0.07170 0.05307
# Poissons Ratio (y) = 0.13135 -0.18946
# Poissons Ratio (z) = 0.18138 -0.35348
#
# Static dielectric constant tensor:
#      x y z
#    x 1.816630 0.000000 0.011450 
#    y 0.000000 1.851410 0.000000 
#    z 0.011450 0.000000 1.891010 
# 
# From -- ./inp_files/72508.got.cif
#   From: 2010.05.17/outbox.cif.g08.bks.cpg/sg15_37_cif.got.tgz:72508.got - 2010.06.03 18:47:42.
