data_PCOD9296335
_publ_section_title
;
Structure prediction by ZEFSAII (Michael W. Deem and Ramdas Pophale) SiO2 
 PCOD9296335
Probable space group: C 2/C
;
_chemical_formula_sum "Si O2"
_cell_formula_units_Z 60
_cell_length_a 18.290736
_cell_length_b 9.486955
_cell_length_c 16.119455
_cell_angle_alpha 90.000000
_cell_angle_beta 109.092760
_cell_angle_gamma 90.000000
_cell_volume 2643.234566
_symmetry_space_group_name_H-M "C 2/C"
_symmetry_group_IT_number 15
_symmetry_cell_setting 'monoclinic'
loop_
_space_group_symop_operation_xyz
x,y,z
-x,y,1/2-z
-x,-y,-z
x,-y,1/2+z
1/2+x,1/2+y,z
1/2-x,1/2+y,1/2-z
1/2-x,1/2-y,-z
1/2+x,1/2-y,1/2+z
loop_
_atom_site_type_symbol
_atom_site_label
_atom_site_fract_x
_atom_site_fract_y
_atom_site_fract_z
Si Si1 0.823429 0.671286 0.487924
Si Si2 0.406547 0.914744 0.601361
Si Si3 0.788055 0.711097 0.169509
Si Si4 0.135658 0.186894 0.032442
Si Si5 0.000000 0.417645 0.250000
Si Si6 0.919640 0.833054 0.797143
Si Si7 0.264002 0.469372 0.698498
Si Si8 0.943096 0.074188 0.048462
O O1 0.750000 0.750000 0.500000
O O2 0.851754 0.545555 0.557688
O O3 0.791188 0.596176 0.392707
O O4 0.895293 0.783935 0.505852
O O5 0.370534 0.818998 0.660513
O O6 0.411174 0.815275 0.524176
O O7 0.482248 0.985966 0.665014
O O8 0.726792 0.704383 0.072387
O O9 0.769565 0.589633 0.228181
O O10 0.772140 0.862887 0.202826
O O11 0.111393 0.181193 0.119992
O O12 0.119700 0.049346 0.971337
O O13 0.932473 0.313335 0.254812
O O14 0.852538 0.915190 0.724596
O O15 0.004348 0.898848 0.850606
O O16 0.000000 0.000000 0.000000
#
# Coordination Sequence:
#
# PCOD9296335 Si02
#       8
#     8   8   8   8   4   8   8   8
#     4  12  25  43  76 104 136 192 248 294 368 448
#     4  12  26  44  68 100 138 184 234 298 363 428
#     4  11  26  45  70 105 144 177 244 305 370 432
#     4  10  23  44  71  99 140 181 238 298 357 439
#     4  12  26  44  64 104 144 188 236 298 356 436
#     4  10  24  45  68 100 144 184 237 303 367 431
#     4  11  27  44  72 105 139 191 239 311 370 445
#     4  10  23  45  71 100 141 193 238 294 365 450
#
# _framework density 22.699460999999999
#
# number of rings (size 3 to 8) (size 9 to 14) (size 15 to 20)
#    0.000    1.067    2.667    2.000   13.067    1.600 
#    2.400    0.000    0.000    0.000    0.000    0.000 
#    0.000    0.000    0.000    0.000    0.000    0.000 
#
# Total GULP energy -167528.602888 kJ/mol
# GULP energy per Si atom -5584.286763 kJ/mol
# Density = 2.264780 g / cm^3
# Si number density = 22.699461 Si / 1000 Ang^3
#
#
#
# Elastic Constant Matrix: (Units=GPa)
#
#
# Indices 1 2 3 4 5 6 
#
# 1 43.1536 9.0528 1.3730 0.0000 1.0834 0.0000
# 2 9.0528 133.3120 32.5495 0.0000 7.7316 0.0000
# 3 1.3730 32.5495 95.2022 0.0000 14.0645 0.0000
# 4 0.0000 0.0000 0.0000 34.8528 0.0000 -1.4682
# 5 1.0834 7.7316 14.0645 0.0000 33.1180 0.0000
# 6 0.0000 0.0000 0.0000 -1.4682 0.0000 30.8033
#
#
#
# Elastic Compliance Matrix: (Units=1/GPa)
#
#
# Indices 1 2 3 4 5 6 
#
# 1 0.023521 -0.001640 0.000297 0.000000 -0.000513 0.000000
# 2 -0.001640 0.008317 -0.002711 0.000000 -0.000737 0.000000
# 3 0.000297 -0.002711 0.012093 0.000000 -0.004513 0.000000
# 4 0.000000 0.000000 0.000000 0.028750 0.000000 0.001370
# 5 -0.000513 -0.000737 -0.004513 0.000000 0.032300 0.000000
# 6 0.000000 0.000000 0.000000 0.001370 0.000000 0.032529
#
#
# Mechanical properties :
#
#
# Convention : Reuss Voigt Hill
#
# Bulk Modulus (GPa) = 27.91492 39.73540 33.82516
# Shear Modulus (GPa) = 31.73404 35.00096 33.36750
#
# Velocity S-wave (km/s) = 3.74305 3.93100 3.83818
# Velocity P-wave (km/s) = 5.56820 6.17630 5.88012
#
# Compressibility (1/GPa) = 0.03582314
#
# Stress axis : x y z
#
# Youngs Moduli (GPa) = 42.51607 120.23193 82.69060
#
# Poissons Ratio (x) = 0.19719 -0.02458
# Poissons Ratio (y) = 0.06973 0.22419
# Poissons Ratio (z) = -0.01264 0.32597
#
# Static dielectric constant tensor:
#      x y z
#    x 1.981670 0.000000 0.026120 
#    y 0.000000 1.856170 0.000000 
#    z 0.026120 0.000000 1.855950 
# 
# From -- ./inp_files/214323.got.cif
#   From: 2010.05.17/outbox.cif.g08.bks.cpg/sg15_108_cif.got.tgz:214323.got - 2010.06.03 18:47:42.
