data_PCOD9296953
_publ_section_title
;
Structure prediction by ZEFSAII (Michael W. Deem and Ramdas Pophale) SiO2 
 PCOD9296953
Probable space group: C 2/C
;
_chemical_formula_sum "Si O2"
_cell_formula_units_Z 44
_cell_length_a 11.964928
_cell_length_b 8.411347
_cell_length_c 20.902773
_cell_angle_alpha 90.000000
_cell_angle_beta 120.210342
_cell_angle_gamma 90.000000
_cell_volume 1817.966016
_symmetry_space_group_name_H-M "C 2/C"
_symmetry_group_IT_number 15
_symmetry_cell_setting 'monoclinic'
loop_
_space_group_symop_operation_xyz
x,y,z
-x,y,1/2-z
-x,-y,-z
x,-y,1/2+z
1/2+x,1/2+y,z
1/2-x,1/2+y,1/2-z
1/2-x,1/2-y,-z
1/2+x,1/2-y,1/2+z
loop_
_atom_site_type_symbol
_atom_site_label
_atom_site_fract_x
_atom_site_fract_y
_atom_site_fract_z
Si Si1 0.538666 0.243825 0.333949
Si Si2 0.000000 0.310116 0.250000
Si Si3 0.034509 0.644916 0.057432
Si Si4 0.315847 0.362114 0.938849
Si Si5 0.525336 0.599527 0.142862
Si Si6 0.705226 0.179865 0.906536
O O1 0.500000 0.208799 0.250000
O O2 0.476978 0.123718 0.369185
O O3 0.692810 0.243956 0.387575
O O4 0.495124 0.421861 0.338957
O O5 0.928815 0.199292 0.282173
O O6 0.882777 0.387948 0.177578
O O7 0.174995 0.714666 0.082070
O O8 0.923867 0.775330 0.011002
O O9 0.000000 0.500000 0.000000
O O10 0.383662 0.404669 0.891736
O O11 0.260339 0.521926 0.954735
O O12 0.397223 0.704668 0.088530
#
# Coordination Sequence:
#
# PCOD9296953 Si02
#       6
#     8   4   8   8   8   8
#     4  12  27  49  78 112 153 201 265 323 383 463
#     4   8  22  44  72 112 148 198 252 328 380 446
#     4  12  28  50  77 115 159 212 256 327 391 472
#     4  12  27  45  77 113 156 202 260 309 396 468
#     4  10  23  46  74 109 152 199 250 325 383 448
#     4  10  23  46  76 109 153 199 261 310 391 458
#
# _framework density 24.202871999999999
#
# number of rings (size 3 to 8) (size 9 to 14) (size 15 to 20)
#    1.091    0.000    2.727    2.182    6.364    0.727 
#    0.000    0.000    0.000    0.000    0.000    0.000 
#    0.000    0.000    0.000    0.000    0.000    0.000 
#
# Total GULP energy -123043.129534 kJ/mol
# GULP energy per Si atom -5592.869524 kJ/mol
# Density = 2.414779 g / cm^3
# Si number density = 24.202872 Si / 1000 Ang^3
#
#
#
# Elastic Constant Matrix: (Units=GPa)
#
#
# Indices 1 2 3 4 5 6 
#
# 1 88.1046 14.6082 7.1809 0.0000 5.7291 0.0000
# 2 14.6082 85.5962 31.1443 0.0000 -3.6581 0.0000
# 3 7.1809 31.1443 104.3231 0.0000 -14.5686 0.0000
# 4 0.0000 0.0000 0.0000 -0.7398 0.0000 -31.1253
# 5 5.7291 -3.6581 -14.5686 0.0000 37.4294 0.0000
# 6 0.0000 0.0000 0.0000 -31.1253 0.0000 16.7741
#
#
#
# Elastic Compliance Matrix: (Units=1/GPa)
#
#
# Indices 1 2 3 4 5 6 
#
# 1 0.011857 -0.001917 -0.000554 0.000000 -0.002218 0.000000
# 2 -0.001917 0.013419 -0.003860 0.000000 0.000103 0.000000
# 3 -0.000554 -0.003860 0.011352 0.000000 0.004126 0.000000
# 4 0.000000 0.000000 0.000000 -0.017096 0.000000 -0.031722
# 5 -0.002218 0.000103 0.004126 0.000000 0.028672 0.000000
# 6 0.000000 0.000000 0.000000 -0.031722 0.000000 0.000754
#
#
# Mechanical properties :
#
#
# Convention : Reuss Voigt Hill
#
# Bulk Modulus (GPa) = 41.72293 42.65452 42.18872
# Shear Modulus (GPa) = 71.83015 25.69878 48.76447
#
# Velocity S-wave (km/s) = 5.45369 3.26207 4.49355
# Velocity P-wave (km/s) = 7.54542 5.64360 6.66271
#
# Compressibility (1/GPa) = 0.02396764
#
# Stress axis : x y z
#
# Youngs Moduli (GPa) = 84.33603 74.52316 88.08888
#
# Poissons Ratio (x) = 0.14286 0.04877
# Poissons Ratio (y) = 0.16167 0.34000
# Poissons Ratio (z) = 0.04669 0.28764
#
# Static dielectric constant tensor:
#      x y z
#    x 1.877970 0.000000 -0.004010 
#    y 0.000000 1.981970 0.000000 
#    z -0.004010 0.000000 2.010040 
# 
# From -- ./inp_files/236160.got.cif
#   From: 2010.05.17/outbox.cif.g08.bks.cpg/sg15_119_cif.got.tgz:236160.got - 2010.06.03 18:47:42.
