data_PCOD9296788
_publ_section_title
;
Structure prediction by ZEFSAII (Michael W. Deem and Ramdas Pophale) SiO2 
 PCOD9296788
Probable space group: C 2/C
;
_chemical_formula_sum "Si O2"
_cell_formula_units_Z 44
_cell_length_a 11.902754
_cell_length_b 20.327172
_cell_length_c 15.427182
_cell_angle_alpha 90.000000
_cell_angle_beta 37.264142
_cell_angle_gamma 90.000000
_cell_volume 2260.051394
_symmetry_space_group_name_H-M "C 2/C"
_symmetry_group_IT_number 15
_symmetry_cell_setting 'monoclinic'
loop_
_space_group_symop_operation_xyz
x,y,z
-x,y,1/2-z
-x,-y,-z
x,-y,1/2+z
1/2+x,1/2+y,z
1/2-x,1/2+y,1/2-z
1/2-x,1/2-y,-z
1/2+x,1/2-y,1/2+z
loop_
_atom_site_type_symbol
_atom_site_label
_atom_site_fract_x
_atom_site_fract_y
_atom_site_fract_z
Si Si1 0.046381 0.117448 0.321127
Si Si2 0.500000 0.591297 0.750000
Si Si3 0.223836 0.709944 0.927711
Si Si4 0.867173 0.013442 0.663746
Si Si5 0.691829 0.237507 0.306595
Si Si6 0.795223 0.626965 0.837972
O O1 0.145845 0.186956 0.271591
O O2 0.000000 0.105937 0.250000
O O3 0.856787 0.116419 0.493052
O O4 0.180449 0.059376 0.273685
O O5 0.324628 0.639822 0.870841
O O6 0.467877 0.548678 0.683201
O O7 0.313487 0.749085 0.792664
O O8 0.250000 0.750000 0.000000
O O9 0.004625 0.707974 0.043611
O O10 0.716501 0.064535 0.719750
O O11 0.000000 0.000000 0.500000
O O12 0.731301 0.307538 0.326865
O O13 0.000000 0.634732 0.750000
#
# Coordination Sequence:
#
# PCOD9296788 Si02
#       6
#     8   4   8   8   8   8
#     4  11  25  43  66  96 132 169 223 277 330 397
#     4  12  22  44  76  96 134 184 224 282 338 400
#     4  12  23  41  67 101 135 171 224 274 342 397
#     4  10  23  46  66  94 137 177 221 273 335 402
#     4  12  24  42  66 100 136 171 219 279 337 401
#     4  11  24  44  69  92 133 179 220 270 338 400
#
# _framework density 19.468582999999999
#
# number of rings (size 3 to 8) (size 9 to 14) (size 15 to 20)
#    0.000    0.727    6.364    0.545    5.091    1.455 
#    6.545    1.818    0.000    0.000    0.000    0.000 
#    0.000    0.000    0.000    0.000    0.000    0.000 
#
# Total GULP energy -122882.943956 kJ/mol
# GULP energy per Si atom -5585.588362 kJ/mol
# Density = 1.942427 g / cm^3
# Si number density = 19.468583 Si / 1000 Ang^3
#
#
#
# Elastic Constant Matrix: (Units=GPa)
#
#
# Indices 1 2 3 4 5 6 
#
# 1 91.8731 28.3470 40.7398 -0.0015 14.4776 -0.0012
# 2 28.3470 96.3124 31.3757 -0.0063 16.8651 -0.0028
# 3 40.7398 31.3757 85.9866 -0.0030 3.4117 -0.0035
# 4 -0.0015 -0.0063 -0.0030 25.4390 -0.0019 -0.0922
# 5 14.4776 16.8651 3.4117 -0.0019 45.4859 0.0026
# 6 -0.0012 -0.0028 -0.0035 -0.0922 0.0026 38.9819
#
#
#
# Elastic Compliance Matrix: (Units=1/GPa)
#
#
# Indices 1 2 3 4 5 6 
#
# 1 0.014729 -0.001677 -0.006224 -0.000001 -0.003599 0.000000
# 2 -0.001677 0.012772 -0.003710 0.000002 -0.003923 0.000001
# 3 -0.006224 -0.003710 0.015846 0.000001 0.002168 0.000001
# 4 -0.000001 0.000002 0.000001 0.039310 0.000001 0.000093
# 5 -0.003599 -0.003923 0.002168 0.000001 0.024423 -0.000002
# 6 0.000000 0.000001 0.000001 0.000093 -0.000002 0.025653
#
#
# Mechanical properties :
#
#
# Convention : Reuss Voigt Hill
#
# Bulk Modulus (GPa) = 49.68863 52.78856 51.23860
# Shear Modulus (GPa) = 30.73821 33.56200 32.15010
#
# Velocity S-wave (km/s) = 3.97780 4.15650 4.06813
# Velocity P-wave (km/s) = 6.83192 7.08583 6.96003
#
# Compressibility (1/GPa) = 0.02012533
#
# Stress axis : x y z
#
# Youngs Moduli (GPa) = 67.89277 78.29483 63.10664
#
# Poissons Ratio (x) = 0.13133 0.39275
# Poissons Ratio (y) = 0.11388 0.23413
# Poissons Ratio (z) = 0.42254 0.29048
#
# Static dielectric constant tensor:
#      x y z
#    x 1.668560 0.000000 -0.028650 
#    y 0.000000 1.675740 0.000000 
#    z -0.028650 0.000000 1.670990 
# 
# From -- ./inp_files/30876.got.cif
#   From: 2010.05.17/outbox.cif.g08.bks.cpg/sg15_16_cif.got.tgz:30876.got - 2010.06.03 18:47:42.
