data_PCOD9296557
_publ_section_title
;
Structure prediction by ZEFSAII (Michael W. Deem and Ramdas Pophale) SiO2 
 PCOD9296557
Probable space group: C 2/C
;
_chemical_formula_sum "Si O2"
_cell_formula_units_Z 52
_cell_length_a 19.749688
_cell_length_b 8.619063
_cell_length_c 17.446685
_cell_angle_alpha 90.000000
_cell_angle_beta 133.584267
_cell_angle_gamma 90.000000
_cell_volume 2151.237664
_symmetry_space_group_name_H-M "C 2/C"
_symmetry_group_IT_number 15
_symmetry_cell_setting 'monoclinic'
loop_
_space_group_symop_operation_xyz
x,y,z
-x,y,1/2-z
-x,-y,-z
x,-y,1/2+z
1/2+x,1/2+y,z
1/2-x,1/2+y,1/2-z
1/2-x,1/2-y,-z
1/2+x,1/2-y,1/2+z
loop_
_atom_site_type_symbol
_atom_site_label
_atom_site_fract_x
_atom_site_fract_y
_atom_site_fract_z
Si Si1 0.206348 0.309262 0.126892
Si Si2 0.184574 0.523735 0.234278
Si Si3 0.500000 0.578985 0.250000
Si Si4 0.638321 0.162964 0.838269
Si Si5 0.185361 0.622649 0.042498
Si Si6 0.119924 0.840850 0.111948
Si Si7 0.558794 0.417454 0.440406
O O1 0.143704 0.388772 0.145042
O O2 0.233515 0.457817 0.096565
O O3 0.289234 0.206338 0.229182
O O4 0.142230 0.197974 0.026098
O O5 0.137383 0.476385 0.278180
O O6 0.292395 0.458376 0.307909
O O7 0.430394 0.698041 0.237502
O O8 0.557039 0.474034 0.352535
O O9 0.740967 0.238924 0.910759
O O10 0.626409 0.117190 0.918342
O O11 0.138680 0.671453 0.087504
O O12 0.040013 0.842539 0.113627
O O13 0.070586 0.928843 0.000794
#
# Coordination Sequence:
#
# PCOD9296557 Si02
#       7
#     8   8   4   8   8   8   8
#     4  11  24  42  70 104 137 179 232 290 345 420
#     4  11  24  40  72 102 136 178 238 285 349 417
#     4  12  28  46  72 100 142 192 230 288 362 416
#     4  11  25  44  68  98 138 188 229 294 347 414
#     4  10  23  45  70  96 142 181 235 285 348 410
#     4  10  23  45  68 101 135 183 227 288 340 424
#     4  11  25  44  72  98 146 182 231 284 353 419
#
# _framework density 24.172129999999999
#
# number of rings (size 3 to 8) (size 9 to 14) (size 15 to 20)
#    0.000    1.231    1.538    3.692    8.615    5.538 
#    0.000    0.000    0.000    0.000    0.000    0.000 
#    0.000    0.000    0.000    0.000    0.000    0.000 
#
# Total GULP energy -144876.904815 kJ/mol
# GULP energy per Si atom -5572.188647 kJ/mol
# Density = 2.411711 g / cm^3
# Si number density = 24.172130 Si / 1000 Ang^3
#
#
#
# Elastic Constant Matrix: (Units=GPa)
#
#
# Indices 1 2 3 4 5 6 
#
# 1 -239.3971 -228.3093 -348.1528 0.0000 98.1385 0.0000
# 2 -228.3093 -63.4087 -270.9831 0.0000 64.4409 0.0000
# 3 -348.1528 -270.9831 -350.8681 0.0000 99.7304 0.0000
# 4 0.0000 0.0000 0.0000 -36.5413 0.0000 14.2965
# 5 98.1385 64.4409 99.7304 0.0000 -9.9731 0.0000
# 6 0.0000 0.0000 0.0000 14.2965 0.0000 24.9460
#
#
#
# Elastic Compliance Matrix: (Units=1/GPa)
#
#
# Indices 1 2 3 4 5 6 
#
# 1 0.010598 -0.003090 -0.008597 0.000000 -0.001643 0.000000
# 2 -0.003090 0.008186 -0.001702 0.000000 0.005468 0.000000
# 3 -0.008597 -0.001702 0.010951 0.000000 0.013920 0.000000
# 4 0.000000 0.000000 0.000000 -0.022354 0.000000 0.012811
# 5 -0.001643 0.005468 0.013920 0.000000 0.058096 0.000000
# 6 0.000000 0.000000 0.000000 0.012811 0.000000 0.032745
#
#
# Mechanical properties :
#
#
# Convention : Reuss Voigt Hill
#
# Bulk Modulus (GPa) = 338.04681 -260.95159 38.54761
# Shear Modulus (GPa) = 39.68742 8.60441 24.14592
#
# Velocity S-wave (km/s) = 4.05639 1.88875 3.16399
# Velocity P-wave (km/s) = 12.73156 10.17022 5.41568
#
# Compressibility (1/GPa) = 0.00295817
#
# Stress axis : x y z
#
# Youngs Moduli (GPa) = 94.35934 122.15811 91.31249
#
# Poissons Ratio (x) = 0.37741 0.78498
# Poissons Ratio (y) = 0.29153 0.15545
# Poissons Ratio (z) = 0.81117 0.20797
#
# Static dielectric constant tensor:
#      x y z
#    x 1.930710 0.000000 0.080380 
#    y 0.000000 1.972170 0.000000 
#    z 0.080380 0.000000 1.396090 
# 
# From -- ./inp_files/214339.got.cif
#   From: 2010.05.17/outbox.cif.g08.bks.cpg/sg15_108_cif.got.tgz:214339.got - 2010.06.03 18:47:42.
