data_PCOD9296967
_publ_section_title
;
Structure prediction by ZEFSAII (Michael W. Deem and Ramdas Pophale) SiO2 
 PCOD9296967
Probable space group: C 2/C
;
_chemical_formula_sum "Si O2"
_cell_formula_units_Z 44
_cell_length_a 19.759135
_cell_length_b 10.570659
_cell_length_c 10.167940
_cell_angle_alpha 90.000000
_cell_angle_beta 109.592231
_cell_angle_gamma 90.000000
_cell_volume 2000.789136
_symmetry_space_group_name_H-M "C 2/C"
_symmetry_group_IT_number 15
_symmetry_cell_setting 'monoclinic'
loop_
_space_group_symop_operation_xyz
x,y,z
-x,y,1/2-z
-x,-y,-z
x,-y,1/2+z
1/2+x,1/2+y,z
1/2-x,1/2+y,1/2-z
1/2-x,1/2-y,-z
1/2+x,1/2-y,1/2+z
loop_
_atom_site_type_symbol
_atom_site_label
_atom_site_fract_x
_atom_site_fract_y
_atom_site_fract_z
Si Si1 0.000000 0.390493 0.750000
Si Si2 0.935370 0.759961 0.812603
Si Si3 0.741856 0.599238 0.979235
Si Si4 0.436925 0.259726 0.420334
Si Si5 0.385026 0.063659 0.589881
Si Si6 0.345360 0.501527 0.324520
O O1 0.940850 0.304566 0.781247
O O2 0.957723 0.482699 0.624250
O O3 0.893697 0.635436 0.735965
O O4 0.000000 0.780838 0.750000
O O5 0.881351 0.875747 0.782841
O O6 0.980779 0.753944 0.975637
O O7 0.705456 0.564588 0.816312
O O8 0.750000 0.750000 0.000000
O O9 0.817261 0.525550 0.035027
O O10 0.694877 0.545439 0.069946
O O11 0.388016 0.173590 0.483132
O O12 0.406937 0.400149 0.399119
#
# Coordination Sequence:
#
# PCOD9296967 Si02
#       6
#     4   8   8   8   8   8
#     4  12  24  40  74 106 140 182 254 310 364 438
#     4  10  23  46  76 106 141 191 244 308 382 436
#     4  12  31  49  75 110 152 206 255 304 374 463
#     4  11  25  43  74 108 143 190 244 321 372 440
#     4  11  25  47  73 101 147 195 248 306 379 440
#     4  12  29  48  74 109 155 198 248 313 382 454
#
# _framework density 21.991322
#
# number of rings (size 3 to 8) (size 9 to 14) (size 15 to 20)
#    0.000    0.727    2.727    4.364   14.000    1.455 
#    0.000    0.000    0.000    0.000    0.000    0.000 
#    0.000    0.000    0.000    0.000    0.000    0.000 
#
# Total GULP energy -123095.600283 kJ/mol
# GULP energy per Si atom -5595.254558 kJ/mol
# Density = 2.194127 g / cm^3
# Si number density = 21.991322 Si / 1000 Ang^3
#
#
#
# Elastic Constant Matrix: (Units=GPa)
#
#
# Indices 1 2 3 4 5 6 
#
# 1 43.3260 37.4427 13.1586 0.0000 12.4425 0.0000
# 2 37.4427 147.2517 36.2650 0.0000 12.1431 0.0000
# 3 13.1586 36.2650 89.2342 0.0000 4.7574 0.0000
# 4 0.0000 0.0000 0.0000 45.5286 0.0000 4.3656
# 5 12.4425 12.1431 4.7574 0.0000 29.9415 0.0000
# 6 0.0000 0.0000 0.0000 4.3656 0.0000 50.7639
#
#
#
# Elastic Compliance Matrix: (Units=1/GPa)
#
#
# Indices 1 2 3 4 5 6 
#
# 1 0.032637 -0.007098 -0.001370 0.000000 -0.010466 0.000000
# 2 -0.007098 0.009296 -0.002710 0.000000 -0.000390 0.000000
# 3 -0.001370 -0.002710 0.012527 0.000000 -0.000322 0.000000
# 4 0.000000 0.000000 0.000000 0.022147 0.000000 -0.001905
# 5 -0.010466 -0.000390 -0.000322 0.000000 0.037957 0.000000
# 6 0.000000 0.000000 0.000000 -0.001905 0.000000 0.019863
#
#
# Mechanical properties :
#
#
# Convention : Reuss Voigt Hill
#
# Bulk Modulus (GPa) = 31.15007 50.39384 40.77195
# Shear Modulus (GPa) = 29.85352 38.10983 33.98167
#
# Velocity S-wave (km/s) = 3.68844 4.16739 3.93521
# Velocity P-wave (km/s) = 5.68638 6.79126 6.26323
#
# Compressibility (1/GPa) = 0.03210266
#
# Stress axis : x y z
#
# Youngs Moduli (GPa) = 30.64002 107.57721 79.82691
#
# Poissons Ratio (x) = 0.76362 0.10936
# Poissons Ratio (y) = 0.21749 0.21635
# Poissons Ratio (z) = 0.04197 0.29156
#
# Static dielectric constant tensor:
#      x y z
#    x 1.762850 0.000000 -0.001740 
#    y 0.000000 1.770770 0.000000 
#    z -0.001740 0.000000 1.896430 
# 
# From -- ./inp_files/110156.got.cif
#   From: 2010.05.17/outbox.cif.g08.bks.cpg/sg15_56_cif.got.tgz:110156.got - 2010.06.03 18:47:42.
