data_PCOD9296721
_publ_section_title
;
Structure prediction by ZEFSAII (Michael W. Deem and Ramdas Pophale) SiO2 
 PCOD9296721
Probable space group: C 2/C
;
_chemical_formula_sum "Si O2"
_cell_formula_units_Z 56
_cell_length_a 13.896364
_cell_length_b 14.375878
_cell_length_c 22.208466
_cell_angle_alpha 90.000000
_cell_angle_beta 32.206795
_cell_angle_gamma 90.000000
_cell_volume 2364.625047
_symmetry_space_group_name_H-M "C 2/C"
_symmetry_group_IT_number 15
_symmetry_cell_setting 'monoclinic'
loop_
_space_group_symop_operation_xyz
x,y,z
-x,y,1/2-z
-x,-y,-z
x,-y,1/2+z
1/2+x,1/2+y,z
1/2-x,1/2+y,1/2-z
1/2-x,1/2-y,-z
1/2+x,1/2-y,1/2+z
loop_
_atom_site_type_symbol
_atom_site_label
_atom_site_fract_x
_atom_site_fract_y
_atom_site_fract_z
Si Si1 0.882194 0.723101 0.089100
Si Si2 0.808561 0.050647 0.460788
Si Si3 0.000000 0.452701 0.750000
Si Si4 0.060260 0.700252 0.117283
Si Si5 0.654682 0.574684 0.924526
Si Si6 0.000000 0.157401 0.250000
Si Si7 0.550446 0.397468 0.292383
Si Si8 0.958089 0.571431 0.576195
O O1 0.900157 0.833847 0.082805
O O2 0.670295 0.709839 0.188293
O O3 0.957206 0.675987 0.109979
O O4 0.992814 0.673182 0.976951
O O5 0.833075 0.100677 0.511180
O O6 0.599544 0.050219 0.553564
O O7 0.913086 0.100701 0.351054
O O8 0.899669 0.948857 0.412108
O O9 0.934750 0.383463 0.837863
O O10 0.839928 0.520551 0.812933
O O11 0.948555 0.786730 0.203483
O O12 0.250000 0.750000 0.000000
O O13 0.500000 0.500000 0.000000
O O14 0.500000 0.418832 0.250000
O O15 0.748620 0.434989 0.202643
O O16 0.000000 0.500000 0.500000
#
# Coordination Sequence:
#
# PCOD9296721 Si02
#       8
#     8   8   4   8   8   4   8   8
#     4  11  26  47  73 103 155 197 259 311 389 461
#     4  11  24  45  71 109 152 191 247 321 371 467
#     4  12  29  49  80 112 154 206 265 320 403 458
#     4  12  27  48  75 110 150 199 257 329 380 467
#     4  12  29  49  73 107 153 198 253 317 386 464
#     4  10  23  45  74 106 142 198 245 300 379 460
#     4  12  21  40  71 104 143 191 250 301 382 444
#     4  11  24  42  72 110 146 192 251 312 375 455
#
# _framework density 23.682400999999999
#
# number of rings (size 3 to 8) (size 9 to 14) (size 15 to 20)
#    0.000    0.571    2.857    4.714    6.000    5.714 
#    0.000    0.000    0.000    0.000    0.000    0.000 
#    0.000    0.000    0.000    0.000    0.000    0.000 
#
# Total GULP energy -156823.682981 kJ/mol
# GULP energy per Si atom -5600.845821 kJ/mol
# Density = 2.362850 g / cm^3
# Si number density = 23.682401 Si / 1000 Ang^3
#
#
#
# Elastic Constant Matrix: (Units=GPa)
#
#
# Indices 1 2 3 4 5 6 
#
# 1 120.3025 4.1280 37.9666 0.0006 -11.9551 0.0001
# 2 4.1280 107.2144 27.2231 -0.0004 -2.1057 0.0004
# 3 37.9666 27.2231 117.4251 -0.0015 -20.3904 0.0009
# 4 0.0006 -0.0004 -0.0015 26.6894 -0.0001 1.5082
# 5 -11.9551 -2.1057 -20.3904 -0.0001 48.9816 0.0000
# 6 0.0001 0.0004 0.0009 1.5082 0.0000 36.6643
#
#
#
# Elastic Compliance Matrix: (Units=1/GPa)
#
#
# Indices 1 2 3 4 5 6 
#
# 1 0.009328 0.000404 -0.002923 0.000000 0.001077 0.000000
# 2 0.000404 0.009943 -0.002527 0.000000 -0.000526 0.000000
# 3 -0.002923 -0.002527 0.010676 0.000001 0.003622 0.000000
# 4 0.000000 0.000000 0.000001 0.037555 0.000000 -0.001545
# 5 0.001077 -0.000526 0.003622 0.000000 0.022164 0.000000
# 6 0.000000 0.000000 0.000000 -0.001545 0.000000 0.027338
#
#
# Mechanical properties :
#
#
# Convention : Reuss Voigt Hill
#
# Bulk Modulus (GPa) = 50.36368 53.73084 52.04726
# Shear Modulus (GPa) = 37.39331 40.84202 39.11766
#
# Velocity S-wave (km/s) = 3.97791 4.15730 4.06860
# Velocity P-wave (km/s) = 6.51236 6.76621 6.64050
#
# Compressibility (1/GPa) = 0.01985558
#
# Stress axis : x y z
#
# Youngs Moduli (GPa) = 107.20509 100.57457 93.66931
#
# Poissons Ratio (x) = -0.04064 0.27375
# Poissons Ratio (y) = -0.04332 0.23671
# Poissons Ratio (z) = 0.31331 0.25416
#
# Static dielectric constant tensor:
#      x y z
#    x 1.584260 0.000000 0.066960 
#    y 0.000000 1.922560 0.000000 
#    z 0.066960 0.000000 1.893000 
# 
# From -- ./inp_files/274496.got.cif
#   From: 2010.05.17/outbox.cif.g08.bks.cpg/sg15_138_cif.got.tgz:274496.got - 2010.06.03 18:47:42.
