data_PCOD9296522
_publ_section_title
;
Structure prediction by ZEFSAII (Michael W. Deem and Ramdas Pophale) SiO2 
 PCOD9296522
Probable space group: C 2/C
;
_chemical_formula_sum "Si O2"
_cell_formula_units_Z 44
_cell_length_a 17.609354
_cell_length_b 6.988369
_cell_length_c 17.853632
_cell_angle_alpha 90.000000
_cell_angle_beta 125.574464
_cell_angle_gamma 90.000000
_cell_volume 1787.017102
_symmetry_space_group_name_H-M "C 2/C"
_symmetry_group_IT_number 15
_symmetry_cell_setting 'monoclinic'
loop_
_space_group_symop_operation_xyz
x,y,z
-x,y,1/2-z
-x,-y,-z
x,-y,1/2+z
1/2+x,1/2+y,z
1/2-x,1/2+y,1/2-z
1/2-x,1/2-y,-z
1/2+x,1/2-y,1/2+z
loop_
_atom_site_type_symbol
_atom_site_label
_atom_site_fract_x
_atom_site_fract_y
_atom_site_fract_z
Si Si1 0.472081 0.919571 0.063764
Si Si2 0.500000 0.548983 0.250000
Si Si3 0.406923 0.507477 0.051601
Si Si4 0.639209 0.839154 0.252141
Si Si5 0.734818 0.946166 0.035744
Si Si6 0.286561 0.328818 0.857858
O O1 0.461261 0.691197 0.054088
O O2 0.555163 0.962979 0.168152
O O3 0.500000 0.000000 0.000000
O O4 0.370874 0.989658 0.030562
O O5 0.467702 0.432614 0.157510
O O6 0.584733 0.692532 0.275159
O O7 0.311193 0.572406 0.038193
O O8 0.374428 0.382096 0.962362
O O9 0.684404 0.716793 0.210033
O O10 0.716079 0.991270 0.324365
O O11 0.752399 0.871599 0.130336
O O12 0.750000 0.750000 0.000000
#
# Coordination Sequence:
#
# PCOD9296522 Si02
#       6
#     8   4   8   8   8   8
#     4  11  23  44  70 101 141 186 237 297 353 425
#     4  10  26  44  72 106 134 184 254 290 366 424
#     4  10  25  46  76 100 146 191 240 302 366 435
#     4  11  27  45  69 107 145 191 241 298 367 438
#     4  10  23  45  67 101 134 192 238 290 365 424
#     4  11  26  46  73 103 149 191 244 296 376 438
#
# _framework density 24.622038
#
# number of rings (size 3 to 8) (size 9 to 14) (size 15 to 20)
#    0.000    1.455    1.818    0.545   17.818    2.909 
#    6.545    0.000    0.000    0.000    0.000    0.000 
#    0.000    0.000    0.000    0.000    0.000    0.000 
#
# Total GULP energy -122864.683358 kJ/mol
# GULP energy per Si atom -5584.758334 kJ/mol
# Density = 2.456600 g / cm^3
# Si number density = 24.622038 Si / 1000 Ang^3
#
#
#
# Elastic Constant Matrix: (Units=GPa)
#
#
# Indices 1 2 3 4 5 6 
#
# 1 150.5676 25.1496 27.4523 0.0000 2.1626 0.0000
# 2 25.1496 51.3857 42.9409 0.0000 2.3802 0.0000
# 3 27.4523 42.9409 142.3090 0.0000 4.9173 0.0000
# 4 0.0000 0.0000 0.0000 43.3768 0.0000 5.5935
# 5 2.1626 2.3802 4.9173 0.0000 33.8526 0.0000
# 6 0.0000 0.0000 0.0000 5.5935 0.0000 24.4113
#
#
#
# Elastic Compliance Matrix: (Units=1/GPa)
#
#
# Indices 1 2 3 4 5 6 
#
# 1 0.007254 -0.003180 -0.000434 0.000000 -0.000177 0.000000
# 2 -0.003180 0.027432 -0.007643 0.000000 -0.000615 0.000000
# 3 -0.000434 -0.007643 0.009445 0.000000 -0.000807 0.000000
# 4 0.000000 0.000000 0.000000 0.023756 0.000000 -0.005443
# 5 -0.000177 -0.000615 -0.000807 0.000000 0.029712 0.000000
# 6 0.000000 0.000000 0.000000 -0.005443 0.000000 0.042212
#
#
# Mechanical properties :
#
#
# Convention : Reuss Voigt Hill
#
# Bulk Modulus (GPa) = 46.25688 59.48312 52.87000
# Shear Modulus (GPa) = 29.49341 36.90945 33.20143
#
# Velocity S-wave (km/s) = 3.46475 3.87595 3.67610
# Velocity P-wave (km/s) = 5.90199 6.65143 6.28789
#
# Compressibility (1/GPa) = 0.02161841
#
# Stress axis : x y z
#
# Youngs Moduli (GPa) = 137.84943 36.45345 105.87933
#
# Poissons Ratio (x) = 0.11591 0.04593
# Poissons Ratio (y) = 0.43833 0.80922
# Poissons Ratio (z) = 0.05980 0.27861
#
# Static dielectric constant tensor:
#      x y z
#    x 2.115830 0.000000 -0.142310 
#    y 0.000000 2.008400 0.000000 
#    z -0.142310 0.000000 2.228220 
# 
# From -- ./inp_files/209764.got.cif
#   From: 2010.05.17/outbox.cif.g08.bks.cpg/sg15_105_cif.got.tgz:209764.got - 2010.06.03 18:47:42.
