data_PCOD9296030
_publ_section_title
;
Structure prediction by ZEFSAII (Michael W. Deem and Ramdas Pophale) SiO2 
 PCOD9296030
Probable space group: C 2/C
;
_chemical_formula_sum "Si O2"
_cell_formula_units_Z 48
_cell_length_a 26.360998
_cell_length_b 14.298210
_cell_length_c 8.813237
_cell_angle_alpha 90.000000
_cell_angle_beta 138.971377
_cell_angle_gamma 90.000000
_cell_volume 2180.576572
_symmetry_space_group_name_H-M "C 2/C"
_symmetry_group_IT_number 15
_symmetry_cell_setting 'monoclinic'
loop_
_space_group_symop_operation_xyz
x,y,z
-x,y,1/2-z
-x,-y,-z
x,-y,1/2+z
1/2+x,1/2+y,z
1/2-x,1/2+y,1/2-z
1/2-x,1/2-y,-z
1/2+x,1/2-y,1/2+z
loop_
_atom_site_type_symbol
_atom_site_label
_atom_site_fract_x
_atom_site_fract_y
_atom_site_fract_z
Si Si1 0.005326 0.227568 0.443151
Si Si2 0.709550 0.527110 0.271722
Si Si3 0.319328 0.947126 0.745920
Si Si4 0.864054 0.113348 0.108438
Si Si5 0.165276 0.244228 0.735680
Si Si6 0.956730 0.418197 0.494517
O O1 0.095089 0.201629 0.676631
O O2 0.000000 0.241932 0.250000
O O3 0.950315 0.139658 0.347990
O O4 0.967789 0.318679 0.437386
O O5 0.753036 0.448814 0.469512
O O6 0.775758 0.559860 0.306823
O O7 0.681370 0.598054 0.336901
O O8 0.646428 0.477984 0.021775
O O9 0.365443 0.851563 0.838963
O O10 0.371928 0.038686 0.839939
O O11 0.833488 0.195753 0.927001
O O12 0.250000 0.250000 0.000000
O O13 0.000000 0.408068 0.750000
O O14 0.000000 0.500000 0.500000
#
# Coordination Sequence:
#
# PCOD9296030 Si02
#       6
#     8   8   8   8   8   8
#     4  10  24  45  68 103 141 180 227 281 354 410
#     4  10  23  44  66 100 131 185 240 284 339 406
#     4  11  23  39  67  97 142 178 227 277 352 411
#     4  10  23  46  71  99 135 185 233 292 342 405
#     4  11  22  42  69 100 138 180 224 286 351 407
#     4  12  24  40  65 103 144 185 217 278 348 428
#
# _framework density 22.012526000000001
#
# number of rings (size 3 to 8) (size 9 to 14) (size 15 to 20)
#    0.000    1.333    3.333    1.500    7.000    0.667 
#    6.000    7.500    0.000    0.000    0.000    0.000 
#    0.000    0.000    0.000    0.000    0.000    0.000 
#
# Total GULP energy -133829.330153 kJ/mol
# GULP energy per Si atom -5576.222090 kJ/mol
# Density = 2.196242 g / cm^3
# Si number density = 22.012526 Si / 1000 Ang^3
#
#
#
# Elastic Constant Matrix: (Units=GPa)
#
#
# Indices 1 2 3 4 5 6 
#
# 1 134.2530 27.6278 50.0439 0.0000 9.2644 0.0000
# 2 27.6278 35.4966 9.4833 0.0000 13.2276 0.0000
# 3 50.0439 9.4833 75.5898 0.0000 23.5681 0.0000
# 4 0.0000 0.0000 0.0000 24.1292 0.0000 10.1732
# 5 9.2644 13.2276 23.5681 0.0000 43.7185 0.0000
# 6 0.0000 0.0000 0.0000 10.1732 0.0000 35.2371
#
#
#
# Elastic Compliance Matrix: (Units=1/GPa)
#
#
# Indices 1 2 3 4 5 6 
#
# 1 0.012053 -0.008880 -0.008302 0.000000 0.004608 0.000000
# 2 -0.008880 0.038383 0.004926 0.000000 -0.012387 0.000000
# 3 -0.008302 0.004926 0.021666 0.000000 -0.011411 0.000000
# 4 0.000000 0.000000 0.000000 0.047187 0.000000 -0.013623
# 5 0.004608 -0.012387 -0.011411 0.000000 0.031796 0.000000
# 6 0.000000 0.000000 0.000000 -0.013623 0.000000 0.032312
#
#
# Mechanical properties :
#
#
# Convention : Reuss Voigt Hill
#
# Bulk Modulus (GPa) = 21.01356 46.62769 33.82062
# Shear Modulus (GPa) = 22.34398 31.16258 26.75328
#
# Velocity S-wave (km/s) = 3.18945 3.76663 3.48999
# Velocity P-wave (km/s) = 4.80941 6.33601 5.62474
#
# Compressibility (1/GPa) = 0.04758833
#
# Stress axis : x y z
#
# Youngs Moduli (GPa) = 82.96830 26.05294 46.15627
#
# Poissons Ratio (x) = 0.23136 0.38320
# Poissons Ratio (y) = 0.73678 -0.22736
# Poissons Ratio (z) = 0.68882 -0.12833
#
# Static dielectric constant tensor:
#      x y z
#    x 2.075730 0.000000 0.169310 
#    y 0.000000 1.897810 0.000000 
#    z 0.169310 0.000000 1.929140 
# 
# From -- ./inp_files/66480.got.cif
#   From: 2010.05.17/outbox.cif.g08.bks.cpg/sg15_34_cif.got.tgz:66480.got - 2010.06.03 18:47:42.
