data_PCOD9296087
_publ_section_title
;
Structure prediction by ZEFSAII (Michael W. Deem and Ramdas Pophale) SiO2 
 PCOD9296087
Probable space group: C 2/C
;
_chemical_formula_sum "Si O2"
_cell_formula_units_Z 28
_cell_length_a 22.457536
_cell_length_b 11.026243
_cell_length_c 12.421148
_cell_angle_alpha 90.000000
_cell_angle_beta 155.606262
_cell_angle_gamma 90.000000
_cell_volume 1270.300886
_symmetry_space_group_name_H-M "C 2/C"
_symmetry_group_IT_number 15
_symmetry_cell_setting 'monoclinic'
loop_
_space_group_symop_operation_xyz
x,y,z
-x,y,1/2-z
-x,-y,-z
x,-y,1/2+z
1/2+x,1/2+y,z
1/2-x,1/2+y,1/2-z
1/2-x,1/2-y,-z
1/2+x,1/2-y,1/2+z
loop_
_atom_site_type_symbol
_atom_site_label
_atom_site_fract_x
_atom_site_fract_y
_atom_site_fract_z
Si Si1 0.399901 0.247128 0.366277
Si Si2 0.170087 0.876262 0.845037
Si Si3 0.872203 0.593129 0.124728
Si Si4 0.500000 0.324427 0.750000
O O1 0.525096 0.344708 0.539312
O O2 0.421035 0.131655 0.325533
O O3 0.429935 0.240129 0.543095
O O4 0.241238 0.301382 0.093475
O O5 0.110064 0.908532 0.865188
O O6 0.250000 0.750000 0.000000
O O7 0.277278 0.972246 0.973225
O O8 0.000000 0.586490 0.250000
#
# Coordination Sequence:
#
# PCOD9296087 Si02
#       4
#     8   8   8   4
#     4   9  23  46  66 105 138 182 227 292 349 399
#     4  10  23  44  67 102 135 185 228 286 346 407
#     4  11  24  44  72 104 137 182 236 281 350 424
#     4   8  22  44  66  96 142 174 230 286 348 404
#
# _framework density 22.042021999999999
#
# number of rings (size 3 to 8) (size 9 to 14) (size 15 to 20)
#    1.714    0.571    0.000    0.857    6.000    1.143 
#   15.429    0.000    0.000    0.000    0.000    0.000 
#    0.000    0.000    0.000    0.000    0.000    0.000 
#
# Total GULP energy -78009.319607 kJ/mol
# GULP energy per Si atom -5572.094258 kJ/mol
# Density = 2.199185 g / cm^3
# Si number density = 22.042022 Si / 1000 Ang^3
#
#
#
# Elastic Constant Matrix: (Units=GPa)
#
#
# Indices 1 2 3 4 5 6 
#
# 1 111.1431 26.8332 52.0590 0.0000 34.8867 0.0000
# 2 26.8332 41.0308 12.1520 0.0000 22.0505 0.0000
# 3 52.0590 12.1520 83.1248 0.0000 12.0651 0.0000
# 4 0.0000 0.0000 0.0000 29.0057 0.0000 -1.6056
# 5 34.8867 22.0505 12.0651 0.0000 56.6731 0.0000
# 6 0.0000 0.0000 0.0000 -1.6056 0.0000 16.2484
#
#
#
# Elastic Compliance Matrix: (Units=1/GPa)
#
#
# Indices 1 2 3 4 5 6 
#
# 1 0.016047 -0.004612 -0.008464 0.000000 -0.006282 0.000000
# 2 -0.004612 0.032811 -0.000482 0.000000 -0.009825 0.000000
# 3 -0.008464 -0.000482 0.017148 0.000000 0.001747 0.000000
# 4 0.000000 0.000000 0.000000 0.034666 0.000000 0.003425
# 5 -0.006282 -0.009825 0.001747 0.000000 0.024963 0.000000
# 6 0.000000 0.000000 0.000000 0.003425 0.000000 0.061883
#
#
# Mechanical properties :
#
#
# Convention : Reuss Voigt Hill
#
# Bulk Modulus (GPa) = 25.71393 46.37633 36.04513
# Shear Modulus (GPa) = 21.96876 30.00241 25.98558
#
# Velocity S-wave (km/s) = 3.16044 3.69337 3.43725
# Velocity P-wave (km/s) = 5.00091 6.26687 5.66933
#
# Compressibility (1/GPa) = 0.03888942
#
# Stress axis : x y z
#
# Youngs Moduli (GPa) = 62.31636 30.47800 58.31661
#
# Poissons Ratio (x) = 0.14055 0.49359
# Poissons Ratio (y) = 0.28738 0.02813
# Poissons Ratio (z) = 0.52744 0.01470
#
# Static dielectric constant tensor:
#      x y z
#    x 1.828540 0.000000 0.014730 
#    y 0.000000 1.809990 0.000000 
#    z 0.014730 0.000000 1.898930 
# 
# From -- ./inp_files/105075.got.cif
#   From: 2010.05.17/outbox.cif.g08.bks.cpg/sg15_53_cif.got.tgz:105075.got - 2010.06.03 18:47:42.
