data_PCOD9296871
_publ_section_title
;
Structure prediction by ZEFSAII (Michael W. Deem and Ramdas Pophale) SiO2 
 PCOD9296871
Probable space group: C 2/C
;
_chemical_formula_sum "Si O2"
_cell_formula_units_Z 36
_cell_length_a 10.739197
_cell_length_b 25.875679
_cell_length_c 8.932384
_cell_angle_alpha 90.000000
_cell_angle_beta 136.951575
_cell_angle_gamma 90.000000
_cell_volume 1694.367313
_symmetry_space_group_name_H-M "C 2/C"
_symmetry_group_IT_number 15
_symmetry_cell_setting 'monoclinic'
loop_
_space_group_symop_operation_xyz
x,y,z
-x,y,1/2-z
-x,-y,-z
x,-y,1/2+z
1/2+x,1/2+y,z
1/2-x,1/2+y,1/2-z
1/2-x,1/2-y,-z
1/2+x,1/2-y,1/2+z
loop_
_atom_site_type_symbol
_atom_site_label
_atom_site_fract_x
_atom_site_fract_y
_atom_site_fract_z
Si Si1 0.540385 0.940207 0.061478
Si Si2 0.000000 0.625338 0.250000
Si Si3 0.214748 0.101129 0.476112
Si Si4 0.236571 0.787935 0.632907
Si Si5 0.393556 0.708996 0.006304
O O1 0.588531 0.911037 0.951562
O O2 0.707537 0.933677 0.322086
O O3 0.359021 0.912532 0.972080
O O4 0.500000 0.000000 0.000000
O O5 0.138074 0.663997 0.291348
O O6 0.226940 0.160583 0.545429
O O7 0.000000 0.093670 0.250000
O O8 0.250000 0.750000 0.500000
O O9 0.040479 0.809005 0.510779
O O10 0.300555 0.754738 0.832548
O O11 0.500000 0.726182 0.250000
#
# Coordination Sequence:
#
# PCOD9296871 Si02
#       5
#     8   4   8   8   8
#     4  11  25  46  73 100 134 180 238 296 354 412
#     4  12  22  40  68  98 140 180 228 298 354 408
#     4  10  23  46  70  99 138 180 231 283 350 420
#     4  12  23  40  62  98 139 180 230 283 351 413
#     4  11  23  41  62  95 135 185 227 273 341 424
#
# _framework density 21.246867999999999
#
# number of rings (size 3 to 8) (size 9 to 14) (size 15 to 20)
#    0.000    0.889    2.222    6.000    0.000    0.889 
#    0.000    5.556    0.000    0.000    0.000    0.000 
#    0.000    0.000    0.000    0.000    0.000    0.000 
#
# Total GULP energy -100534.082229 kJ/mol
# GULP energy per Si atom -5585.226791 kJ/mol
# Density = 2.119851 g / cm^3
# Si number density = 21.246868 Si / 1000 Ang^3
#
#
#
# Elastic Constant Matrix: (Units=GPa)
#
#
# Indices 1 2 3 4 5 6 
#
# 1 113.6732 52.5301 12.9445 0.0000 2.3734 0.0000
# 2 52.5301 162.2336 55.1563 0.0000 -14.5117 0.0000
# 3 12.9445 55.1563 110.9174 0.0000 -21.6075 0.0000
# 4 0.0000 0.0000 0.0000 34.2975 0.0000 1.0093
# 5 2.3734 -14.5117 -21.6075 0.0000 38.8868 0.0000
# 6 0.0000 0.0000 0.0000 1.0093 0.0000 6.4700
#
#
#
# Elastic Compliance Matrix: (Units=1/GPa)
#
#
# Indices 1 2 3 4 5 6 
#
# 1 0.010494 -0.003640 0.000220 0.000000 -0.001877 0.000000
# 2 -0.003640 0.008704 -0.003619 0.000000 0.001459 0.000000
# 3 0.000220 -0.003619 0.011801 0.000000 0.005193 0.000000
# 4 0.000000 0.000000 0.000000 0.029291 0.000000 -0.004569
# 5 -0.001877 0.001459 0.005193 0.000000 0.029261 0.000000
# 6 0.000000 0.000000 0.000000 -0.004569 0.000000 0.155273
#
#
# Mechanical properties :
#
#
# Convention : Reuss Voigt Hill
#
# Bulk Modulus (GPa) = 59.10197 69.78736 64.44466
# Shear Modulus (GPa) = 18.90062 33.67707 26.28884
#
# Velocity S-wave (km/s) = 2.98581 3.98557 3.52135
# Velocity P-wave (km/s) = 6.30586 7.35506 6.85058
#
# Compressibility (1/GPa) = 0.01691991
#
# Stress axis : x y z
#
# Youngs Moduli (GPa) = 95.29648 114.89496 84.73596
#
# Poissons Ratio (x) = 0.41827 -0.01865
# Poissons Ratio (y) = 0.34692 0.30665
# Poissons Ratio (z) = -0.02097 0.41580
#
# Static dielectric constant tensor:
#      x y z
#    x 1.809070 0.000000 0.010930 
#    y 0.000000 1.744670 0.000000 
#    z 0.010930 0.000000 1.831750 
# 
# From -- ./inp_files/33942.got.cif
#   From: 2010.05.17/outbox.cif.g08.bks.cpg/sg15_17_cif.got.tgz:33942.got - 2010.06.03 18:47:42.
