data_PCOD9296054
_publ_section_title
;
Structure prediction by ZEFSAII (Michael W. Deem and Ramdas Pophale) SiO2 
 PCOD9296054
Probable space group: C 2/C
;
_chemical_formula_sum "Si O2"
_cell_formula_units_Z 48
_cell_length_a 22.940477
_cell_length_b 10.380854
_cell_length_c 16.376176
_cell_angle_alpha 90.000000
_cell_angle_beta 35.072760
_cell_angle_gamma 90.000000
_cell_volume 2240.917675
_symmetry_space_group_name_H-M "C 2/C"
_symmetry_group_IT_number 15
_symmetry_cell_setting 'monoclinic'
loop_
_space_group_symop_operation_xyz
x,y,z
-x,y,1/2-z
-x,-y,-z
x,-y,1/2+z
1/2+x,1/2+y,z
1/2-x,1/2+y,1/2-z
1/2-x,1/2-y,-z
1/2+x,1/2-y,1/2+z
loop_
_atom_site_type_symbol
_atom_site_label
_atom_site_fract_x
_atom_site_fract_y
_atom_site_fract_z
Si Si1 0.483925 0.022853 0.671716
Si Si2 0.494009 0.718405 0.660925
Si Si3 0.772507 0.669805 0.891054
Si Si4 0.405999 0.591188 0.621972
Si Si5 0.344635 0.825266 0.609244
Si Si6 0.694704 0.564343 0.388767
O O1 0.500000 0.042667 0.750000
O O2 0.475263 0.869526 0.667539
O O3 0.386313 0.110168 0.759248
O O4 0.586019 0.066582 0.509337
O O5 0.500000 0.697681 0.750000
O O6 0.408408 0.635991 0.712126
O O7 0.601076 0.661199 0.505874
O O8 0.705287 0.540440 0.948765
O O9 0.750000 0.750000 0.000000
O O10 0.739366 0.766763 0.856215
O O11 0.500000 0.500000 0.500000
O O12 0.421691 0.711272 0.544110
O O13 0.313260 0.516651 0.687445
O O14 0.294410 0.856777 0.753719
#
# Coordination Sequence:
#
# PCOD9296054 Si02
#       6
#     8   8   8   8   8   8
#     4  11  24  44  67 100 136 178 224 280 346 398
#     4  10  23  44  66  95 137 179 222 275 338 409
#     4  11  24  45  69 103 138 179 233 282 342 410
#     4   9  21  41  61  95 128 170 222 266 329 393
#     4  11  24  42  69 100 137 174 227 284 333 411
#     4  10  24  42  65 102 133 178 229 275 343 398
#
# _framework density 21.419798
#
# number of rings (size 3 to 8) (size 9 to 14) (size 15 to 20)
#    0.000    1.667    1.667    1.000    9.333    2.667 
#    6.000    2.500    0.000    0.000    0.000    0.000 
#    0.000    0.000    0.000    0.000    0.000    0.000 
#
# Total GULP energy -133718.655065 kJ/mol
# GULP energy per Si atom -5571.610628 kJ/mol
# Density = 2.137105 g / cm^3
# Si number density = 21.419798 Si / 1000 Ang^3
#
#
#
# Elastic Constant Matrix: (Units=GPa)
#
#
# Indices 1 2 3 4 5 6 
#
# 1 133.8450 63.1698 33.6522 0.0000 -2.4243 0.0000
# 2 63.1698 87.8930 35.1408 0.0000 9.6042 0.0000
# 3 33.6522 35.1408 82.2226 0.0000 0.5408 0.0000
# 4 0.0000 0.0000 0.0000 29.3165 0.0000 2.0232
# 5 -2.4243 9.6042 0.5408 0.0000 25.9576 0.0000
# 6 0.0000 0.0000 0.0000 2.0232 0.0000 15.7076
#
#
#
# Elastic Compliance Matrix: (Units=1/GPa)
#
#
# Indices 1 2 3 4 5 6 
#
# 1 0.011877 -0.008502 -0.001256 0.000000 0.004281 0.000000
# 2 -0.008502 0.020477 -0.005217 0.000000 -0.008262 0.000000
# 3 -0.001256 -0.005217 0.014896 0.000000 0.001503 0.000000
# 4 0.000000 0.000000 0.000000 0.034416 0.000000 -0.004433
# 5 0.004281 -0.008262 0.001503 0.000000 0.041950 0.000000
# 6 0.000000 0.000000 0.000000 -0.004433 0.000000 0.064234
#
#
# Mechanical properties :
#
#
# Convention : Reuss Voigt Hill
#
# Bulk Modulus (GPa) = 57.80431 63.09846 60.45138
# Shear Modulus (GPa) = 22.36462 25.66285 24.01373
#
# Velocity S-wave (km/s) = 3.23477 3.46510 3.35192
# Velocity P-wave (km/s) = 6.40286 6.74768 6.57753
#
# Compressibility (1/GPa) = 0.01729975
#
# Stress axis : x y z
#
# Youngs Moduli (GPa) = 84.19454 48.83575 67.13232
#
# Poissons Ratio (x) = 0.41521 0.08429
# Poissons Ratio (y) = 0.71583 0.35026
# Poissons Ratio (z) = 0.10572 0.25480
#
# Static dielectric constant tensor:
#      x y z
#    x 1.831080 0.000000 -0.034410 
#    y 0.000000 2.575350 0.000000 
#    z -0.034410 0.000000 1.793970 
# 
# From -- ./inp_files/219244.got.cif
#   From: 2010.05.17/outbox.cif.g08.bks.cpg/sg15_110_cif.got.tgz:219244.got - 2010.06.03 18:47:42.
