data_PCOD9296472
_publ_section_title
;
Structure prediction by ZEFSAII (Michael W. Deem and Ramdas Pophale) SiO2 
 PCOD9296472
Probable space group: C 2/C
;
_chemical_formula_sum "Si O2"
_cell_formula_units_Z 56
_cell_length_a 26.661785
_cell_length_b 6.262313
_cell_length_c 17.515417
_cell_angle_alpha 90.000000
_cell_angle_beta 113.393824
_cell_angle_gamma 90.000000
_cell_volume 2684.054382
_symmetry_space_group_name_H-M "C 2/C"
_symmetry_group_IT_number 15
_symmetry_cell_setting 'monoclinic'
loop_
_space_group_symop_operation_xyz
x,y,z
-x,y,1/2-z
-x,-y,-z
x,-y,1/2+z
1/2+x,1/2+y,z
1/2-x,1/2+y,1/2-z
1/2-x,1/2-y,-z
1/2+x,1/2-y,1/2+z
loop_
_atom_site_type_symbol
_atom_site_label
_atom_site_fract_x
_atom_site_fract_y
_atom_site_fract_z
Si Si1 0.006905 0.494746 0.167891
Si Si2 0.156683 0.768775 0.924575
Si Si3 0.044946 0.092192 0.631735
Si Si4 0.615735 0.766088 0.233362
Si Si5 0.441185 0.704791 0.030748
Si Si6 0.238986 0.443970 0.048712
Si Si7 0.228130 0.654248 0.717422
O O1 0.017296 0.743766 0.172402
O O2 0.064592 0.403226 0.174702
O O3 0.000000 0.412428 0.250000
O O4 0.958747 0.427670 0.081351
O O5 0.125101 0.701273 0.828955
O O6 0.113265 0.868696 0.957749
O O7 0.205869 0.915782 0.923411
O O8 0.187812 0.580137 0.987455
O O9 0.064102 0.198652 0.563519
O O10 0.095684 0.972750 0.701401
O O11 0.994496 0.936702 0.581215
O O12 0.669625 0.829929 0.221689
O O13 0.228344 0.362267 0.126772
O O14 0.250000 0.250000 0.000000
O O15 0.248595 0.403826 0.751850
#
# Coordination Sequence:
#
# PCOD9296472 Si02
#       7
#     8   8   8   8   8   8   8
#     4  11  23  40  69  98 137 181 235 291 363 433
#     4  11  24  46  68 100 139 180 238 300 366 435
#     4  10  25  41  68  99 135 182 233 287 361 435
#     4  11  25  44  69 103 138 184 235 298 360 433
#     4  10  23  45  64  97 141 176 232 293 360 430
#     4  11  27  45  71 100 143 189 243 301 373 438
#     4  12  28  50  78 107 149 194 250 309 371 442
#
# _framework density 20.863959999999999
#
# number of rings (size 3 to 8) (size 9 to 14) (size 15 to 20)
#    0.000    1.143    2.857    1.286   10.000    2.286 
#    0.000    0.000    0.000    0.000    0.000    0.000 
#    0.000    0.000    0.000    0.000    0.000    0.000 
#
# Total GULP energy -156000.760347 kJ/mol
# GULP energy per Si atom -5571.455727 kJ/mol
# Density = 2.081647 g / cm^3
# Si number density = 20.863960 Si / 1000 Ang^3
#
#
#
# Elastic Constant Matrix: (Units=GPa)
#
#
# Indices 1 2 3 4 5 6 
#
# 1 119.6765 15.6258 38.6750 0.0000 -14.7136 0.0000
# 2 15.6258 73.1872 28.2478 0.0000 -0.7849 0.0000
# 3 38.6750 28.2478 92.1283 0.0000 -14.2295 0.0000
# 4 0.0000 0.0000 0.0000 23.2680 0.0000 -8.5543
# 5 -14.7136 -0.7849 -14.2295 0.0000 37.6068 0.0000
# 6 0.0000 0.0000 0.0000 -8.5543 0.0000 23.3248
#
#
#
# Elastic Compliance Matrix: (Units=1/GPa)
#
#
# Indices 1 2 3 4 5 6 
#
# 1 0.009906 -0.000718 -0.003550 0.000000 0.002518 0.000000
# 2 -0.000718 0.015637 -0.004765 0.000000 -0.001757 0.000000
# 3 -0.003550 -0.004765 0.014418 0.000000 0.003967 0.000000
# 4 0.000000 0.000000 0.000000 0.049675 0.000000 0.018218
# 5 0.002518 -0.001757 0.003967 0.000000 0.029040 0.000000
# 6 0.000000 0.000000 0.000000 0.018218 0.000000 0.049554
#
#
# Mechanical properties :
#
#
# Convention : Reuss Voigt Hill
#
# Bulk Modulus (GPa) = 45.66802 50.00992 47.83897
# Shear Modulus (GPa) = 25.82717 30.33614 28.08166
#
# Velocity S-wave (km/s) = 3.52218 3.81727 3.67269
# Velocity P-wave (km/s) = 6.20298 6.59168 6.40028
#
# Compressibility (1/GPa) = 0.02189716
#
# Stress axis : x y z
#
# Youngs Moduli (GPa) = 100.94645 63.95095 69.35706
#
# Poissons Ratio (x) = 0.04592 0.24619
# Poissons Ratio (y) = 0.07248 0.33045
# Poissons Ratio (z) = 0.35832 0.30470
#
# Static dielectric constant tensor:
#      x y z
#    x 1.454360 0.000000 -0.417280 
#    y 0.000000 1.870000 0.000000 
#    z -0.417280 0.000000 1.059750 
# 
# From -- ./inp_files/221272.got.cif
#   From: 2010.05.17/outbox.cif.g08.bks.cpg/sg15_111_cif.got.tgz:221272.got - 2010.06.03 18:47:42.
