data_PCOD9296932
_publ_section_title
;
Structure prediction by ZEFSAII (Michael W. Deem and Ramdas Pophale) SiO2 
 PCOD9296932
Probable space group: C 2/C
;
_chemical_formula_sum "Si O2"
_cell_formula_units_Z 56
_cell_length_a 17.215092
_cell_length_b 14.671739
_cell_length_c 10.621968
_cell_angle_alpha 90.000000
_cell_angle_beta 120.425552
_cell_angle_gamma 90.000000
_cell_volume 2313.386655
_symmetry_space_group_name_H-M "C 2/C"
_symmetry_group_IT_number 15
_symmetry_cell_setting 'monoclinic'
loop_
_space_group_symop_operation_xyz
x,y,z
-x,y,1/2-z
-x,-y,-z
x,-y,1/2+z
1/2+x,1/2+y,z
1/2-x,1/2+y,1/2-z
1/2-x,1/2-y,-z
1/2+x,1/2-y,1/2+z
loop_
_atom_site_type_symbol
_atom_site_label
_atom_site_fract_x
_atom_site_fract_y
_atom_site_fract_z
Si Si1 0.321101 0.332612 0.069354
Si Si2 0.061134 0.630079 0.562170
Si Si3 0.500000 0.030923 0.750000
Si Si4 0.828640 0.480168 0.517721
Si Si5 0.218598 0.144934 0.474540
Si Si6 0.961624 0.933978 0.579739
Si Si7 0.500000 0.229479 0.250000
Si Si8 0.884613 0.817664 0.849929
O O1 0.411411 0.292300 0.206694
O O2 0.250000 0.250000 0.000000
O O3 0.260492 0.418087 0.059137
O O4 0.356800 0.355984 0.960417
O O5 0.120945 0.544592 0.569000
O O6 0.021116 0.677414 0.401078
O O7 0.127554 0.709675 0.663740
O O8 0.000443 0.594883 0.626532
O O9 0.411822 0.966110 0.682909
O O10 0.803450 0.580779 0.536030
O O11 0.250000 0.250000 0.500000
O O12 0.143221 0.097358 0.503230
O O13 0.171990 0.133585 0.301231
O O14 0.000000 0.966422 0.750000
O O15 0.012630 0.838566 0.597159
O O16 0.000000 0.000000 0.500000
#
# Coordination Sequence:
#
# PCOD9296932 Si02
#       8
#     8   8   4   8   8   8   4   8
#     4  11  23  47  76 113 156 204 262 335 398 476
#     4  11  25  49  76 114 152 212 259 332 400 479
#     4  12  29  46  78 111 164 200 263 320 408 469
#     4  12  26  47  76 115 156 206 270 323 403 479
#     4  11  26  48  73 113 156 211 266 331 404 487
#     4  10  23  49  77 108 153 204 262 325 399 479
#     4  10  23  50  82 115 156 204 271 324 408 463
#     4  10  23  46  73 102 156 195 263 317 396 473
#
# _framework density 24.206934
#
# number of rings (size 3 to 8) (size 9 to 14) (size 15 to 20)
#    0.000    1.143    2.857    2.571    7.000    1.143 
#   27.000    0.000    0.000    0.000    0.000    0.000 
#    0.000    0.000    0.000    0.000    0.000    0.000 
#
# Total GULP energy -156010.189090 kJ/mol
# GULP energy per Si atom -5571.792468 kJ/mol
# Density = 2.415184 g / cm^3
# Si number density = 24.206934 Si / 1000 Ang^3
#
#
#
# Elastic Constant Matrix: (Units=GPa)
#
#
# Indices 1 2 3 4 5 6 
#
# 1 157.2079 53.3553 54.7828 0.0000 2.5124 0.0000
# 2 53.3553 105.0359 25.7106 0.0000 -2.1994 0.0000
# 3 54.7828 25.7106 72.2962 0.0000 -8.1730 0.0000
# 4 0.0000 0.0000 0.0000 27.2711 0.0000 -1.4083
# 5 2.5124 -2.1994 -8.1730 0.0000 49.0499 0.0000
# 6 0.0000 0.0000 0.0000 -1.4083 0.0000 54.9123
#
#
#
# Elastic Compliance Matrix: (Units=1/GPa)
#
#
# Indices 1 2 3 4 5 6 
#
# 1 0.009780 -0.003442 -0.006381 0.000000 -0.001719 0.000000
# 2 -0.003442 0.011641 -0.001480 0.000000 0.000452 0.000000
# 3 -0.006381 -0.001480 0.019592 0.000000 0.003525 0.000000
# 4 0.000000 0.000000 0.000000 0.036717 0.000000 0.000942
# 5 -0.001719 0.000452 0.003525 0.000000 0.021083 0.000000
# 6 0.000000 0.000000 0.000000 0.000942 0.000000 0.018235
#
#
# Mechanical properties :
#
#
# Convention : Reuss Voigt Hill
#
# Bulk Modulus (GPa) = 54.33040 66.91525 60.62282
# Shear Modulus (GPa) = 34.29529 39.62607 36.96068
#
# Velocity S-wave (km/s) = 3.76806 4.05034 3.91175
# Velocity P-wave (km/s) = 6.43614 7.04107 6.74539
#
# Compressibility (1/GPa) = 0.01840590
#
# Stress axis : x y z
#
# Youngs Moduli (GPa) = 102.24488 85.90388 51.03999
#
# Poissons Ratio (x) = 0.29569 0.32570
# Poissons Ratio (y) = 0.35194 0.07556
# Poissons Ratio (z) = 0.65246 0.12718
#
# Static dielectric constant tensor:
#      x y z
#    x 2.000000 0.000000 0.041730 
#    y 0.000000 2.041170 0.000000 
#    z 0.041730 0.000000 1.983410 
# 
# From -- ./inp_files/105832.got.cif
#   From: 2010.05.17/outbox.cif.g08.bks.cpg/sg15_53_cif.got.tgz:105832.got - 2010.06.03 18:47:42.
