data_PCOD9296486
_publ_section_title
;
Structure prediction by ZEFSAII (Michael W. Deem and Ramdas Pophale) SiO2 
 PCOD9296486
Probable space group: C 2/C
;
_chemical_formula_sum "Si O2"
_cell_formula_units_Z 44
_cell_length_a 18.278107
_cell_length_b 5.014454
_cell_length_c 19.720896
_cell_angle_alpha 90.000000
_cell_angle_beta 94.892940
_cell_angle_gamma 90.000000
_cell_volume 1800.926419
_symmetry_space_group_name_H-M "C 2/C"
_symmetry_group_IT_number 15
_symmetry_cell_setting 'monoclinic'
loop_
_space_group_symop_operation_xyz
x,y,z
-x,y,1/2-z
-x,-y,-z
x,-y,1/2+z
1/2+x,1/2+y,z
1/2-x,1/2+y,1/2-z
1/2-x,1/2-y,-z
1/2+x,1/2-y,1/2+z
loop_
_atom_site_type_symbol
_atom_site_label
_atom_site_fract_x
_atom_site_fract_y
_atom_site_fract_z
Si Si1 0.850410 0.317503 0.742462
Si Si2 0.705995 0.676603 0.319782
Si Si3 0.575986 0.253266 0.047264
Si Si4 0.000000 0.618046 0.750000
Si Si5 0.001698 0.754707 0.597257
Si Si6 0.768046 0.497964 0.956486
O O1 0.787144 0.349690 0.793762
O O2 0.848838 0.003716 0.728510
O O3 0.930033 0.432335 0.762111
O O4 0.818776 0.518095 0.681655
O O5 0.713277 0.524523 0.389852
O O6 0.567354 0.533875 0.085970
O O7 0.649160 0.075694 0.058368
O O8 0.518030 0.051683 0.077451
O O9 0.558382 0.320513 0.966593
O O10 0.985210 0.765300 0.676309
O O11 0.750000 0.250000 0.000000
O O12 0.750000 0.750000 0.000000
#
# Coordination Sequence:
#
# PCOD9296486 Si02
#       6
#     8   8   8   4   8   8
#     4  10  24  43  68  96 137 176 218 288 346 420
#     4  10  23  45  65  95 138 178 218 277 365 403
#     4  10  23  47  63  97 140 188 218 283 367 418
#     4  12  26  42  74 110 130 182 248 296 336 424
#     4  10  24  42  70  94 142 179 227 287 356 423
#     4  12  25  39  71  99 128 178 237 283 321 423
#
# _framework density 24.431868999999999
#
# number of rings (size 3 to 8) (size 9 to 14) (size 15 to 20)
#    0.000    1.455    0.000    3.273    5.091    8.727 
#    0.000    0.000    0.000    0.000    0.000    0.000 
#    0.000    0.000    0.000    0.000    0.000    0.000 
#
# Total GULP energy -122794.754108 kJ/mol
# GULP energy per Si atom -5581.579732 kJ/mol
# Density = 2.437626 g / cm^3
# Si number density = 24.431869 Si / 1000 Ang^3
#
#
#
# Elastic Constant Matrix: (Units=GPa)
#
#
# Indices 1 2 3 4 5 6 
#
# 1 87.5137 14.0125 1.8278 0.0000 -6.0050 0.0000
# 2 14.0125 145.9894 23.5709 0.0000 -15.6319 0.0000
# 3 1.8278 23.5709 127.8653 0.0000 -8.1387 0.0000
# 4 0.0000 0.0000 0.0000 17.8181 0.0000 -7.2571
# 5 -6.0050 -15.6319 -8.1387 0.0000 17.5034 0.0000
# 6 0.0000 0.0000 0.0000 -7.2571 0.0000 42.2022
#
#
#
# Elastic Compliance Matrix: (Units=1/GPa)
#
#
# Indices 1 2 3 4 5 6 
#
# 1 0.011785 -0.000796 0.000196 0.000000 0.003423 0.000000
# 2 -0.000796 0.007753 -0.001025 0.000000 0.006174 0.000000
# 3 0.000196 -0.001025 0.008195 0.000000 0.002963 0.000000
# 4 0.000000 0.000000 0.000000 0.060349 0.000000 0.010378
# 5 0.003423 0.006174 0.002963 0.000000 0.065198 0.000000
# 6 0.000000 0.000000 0.000000 0.010378 0.000000 0.025480
#
#
# Mechanical properties :
#
#
# Convention : Reuss Voigt Hill
#
# Bulk Modulus (GPa) = 40.84371 48.91009 44.87690
# Shear Modulus (GPa) = 26.29207 36.96856 31.63031
#
# Velocity S-wave (km/s) = 3.28401 3.89412 3.60200
# Velocity P-wave (km/s) = 5.57973 6.34675 5.97556
#
# Compressibility (1/GPa) = 0.02448357
#
# Stress axis : x y z
#
# Youngs Moduli (GPa) = 84.85298 128.98559 122.01934
#
# Poissons Ratio (x) = 0.10271 -0.02394
# Poissons Ratio (y) = 0.06757 0.12504
# Poissons Ratio (z) = -0.01665 0.13218
#
# Static dielectric constant tensor:
#      x y z
#    x 1.870730 0.000000 -0.018590 
#    y 0.000000 1.867570 0.000000 
#    z -0.018590 0.000000 1.956720 
# 
# From -- ./inp_files/246512.got.cif
#   From: 2010.05.17/outbox.cif.g08.bks.cpg/sg15_124_cif.got.tgz:246512.got - 2010.06.03 18:47:42.
