data_PCOD9296259
_publ_section_title
;
Structure prediction by ZEFSAII (Michael W. Deem and Ramdas Pophale) SiO2 
 PCOD9296259
Probable space group: C 2/C
;
_chemical_formula_sum "Si O2"
_cell_formula_units_Z 52
_cell_length_a 14.103831
_cell_length_b 8.370205
_cell_length_c 28.576077
_cell_angle_alpha 90.000000
_cell_angle_beta 142.359555
_cell_angle_gamma 90.000000
_cell_volume 2060.187590
_symmetry_space_group_name_H-M "C 2/C"
_symmetry_group_IT_number 15
_symmetry_cell_setting 'monoclinic'
loop_
_space_group_symop_operation_xyz
x,y,z
-x,y,1/2-z
-x,-y,-z
x,-y,1/2+z
1/2+x,1/2+y,z
1/2-x,1/2+y,1/2-z
1/2-x,1/2-y,-z
1/2+x,1/2-y,1/2+z
loop_
_atom_site_type_symbol
_atom_site_label
_atom_site_fract_x
_atom_site_fract_y
_atom_site_fract_z
Si Si1 0.909836 0.941619 0.509777
Si Si2 0.024789 0.036448 0.655805
Si Si3 0.000000 0.484737 0.250000
Si Si4 0.194308 0.778032 0.880631
Si Si5 0.090496 0.503887 0.584312
Si Si6 0.347653 0.700450 0.718920
Si Si7 0.628554 0.144714 0.424532
O O1 0.006080 0.987462 0.594114
O O2 0.833075 0.768039 0.471540
O O3 0.748312 0.037127 0.444825
O O4 0.000000 0.000000 0.500000
O O5 0.919687 0.904069 0.639531
O O6 0.959895 0.217589 0.637377
O O7 0.176733 0.079948 0.745657
O O8 0.093413 0.366175 0.320291
O O9 0.116044 0.608627 0.268084
O O10 0.282024 0.863286 0.872001
O O11 0.188703 0.666049 0.628689
O O12 0.000000 0.500000 0.500000
O O13 0.979775 0.456661 0.583728
O O14 0.500000 0.636810 0.750000
O O15 0.750000 0.250000 0.500000
#
# Coordination Sequence:
#
# PCOD9296259 Si02
#       7
#     8   8   4   8   8   8   8
#     4  11  25  44  70 105 151 209 266 332 393 469
#     4  11  22  45  73 108 154 202 261 319 395 489
#     4  10  24  44  78 120 160 212 264 324 408 490
#     4  12  22  42  72 113 154 204 255 327 399 483
#     4  12  25  46  81 118 154 209 265 329 410 487
#     4  10  23  47  80 111 155 208 263 331 407 480
#     4  10  23  44  70 104 152 197 255 319 389 478
#
# _framework density 25.24042
#
# number of rings (size 3 to 8) (size 9 to 14) (size 15 to 20)
#    0.462    0.615    1.538    6.000    0.000    2.462 
#    0.000   10.769    0.000    0.000    0.000    0.000 
#    0.000    0.000    0.000    0.000    0.000    0.000 
#
# Total GULP energy -145072.370683 kJ/mol
# GULP energy per Si atom -5579.706565 kJ/mol
# Density = 2.518297 g / cm^3
# Si number density = 25.240420 Si / 1000 Ang^3
#
#
#
# Elastic Constant Matrix: (Units=GPa)
#
#
# Indices 1 2 3 4 5 6 
#
# 1 156.1431 70.8487 58.2625 0.0000 -4.8142 0.0000
# 2 70.8487 141.6890 47.2331 0.0000 -1.4188 0.0000
# 3 58.2625 47.2331 107.1714 0.0000 -13.7106 0.0000
# 4 0.0000 0.0000 0.0000 45.1077 0.0000 -9.4313
# 5 -4.8142 -1.4188 -13.7106 0.0000 37.7118 0.0000
# 6 0.0000 0.0000 0.0000 -9.4313 0.0000 35.1178
#
#
#
# Elastic Compliance Matrix: (Units=1/GPa)
#
#
# Indices 1 2 3 4 5 6 
#
# 1 0.009297 -0.003465 -0.003557 0.000000 -0.000237 0.000000
# 2 -0.003465 0.009606 -0.002475 0.000000 -0.000981 0.000000
# 3 -0.003557 -0.002475 0.012885 0.000000 0.004137 0.000000
# 4 0.000000 0.000000 0.000000 0.023488 0.000000 0.006308
# 5 -0.000237 -0.000981 0.004137 0.000000 0.027954 0.000000
# 6 0.000000 0.000000 0.000000 0.006308 0.000000 0.030170
#
#
# Mechanical properties :
#
#
# Convention : Reuss Voigt Hill
#
# Bulk Modulus (GPa) = 78.17245 84.18798 81.18022
# Shear Modulus (GPa) = 36.58778 38.83144 37.70961
#
# Velocity S-wave (km/s) = 3.81145 3.92658 3.86944
# Velocity P-wave (km/s) = 7.09986 7.34739 7.22468
#
# Compressibility (1/GPa) = 0.01279223
#
# Stress axis : x y z
#
# Youngs Moduli (GPa) = 107.56541 104.10495 77.61099
#
# Poissons Ratio (x) = 0.36074 0.27607
# Poissons Ratio (y) = 0.37273 0.19210
# Poissons Ratio (z) = 0.38262 0.25767
#
# Static dielectric constant tensor:
#      x y z
#    x 2.288660 0.000000 0.928970 
#    y 0.000000 0.006080 0.000000 
#    z 0.928970 0.000000 5.212350 
# 
# From -- ./inp_files/313217.got.cif
#   From: 2010.05.17/outbox.cif.g08.bks.cpg/sg15_157_cif.got.tgz:313217.got - 2010.06.03 18:47:42.
