data_PCOD9296088
_publ_section_title
;
Structure prediction by ZEFSAII (Michael W. Deem and Ramdas Pophale) SiO2 
 PCOD9296088
Probable space group: C 2/C
;
_chemical_formula_sum "Si O2"
_cell_formula_units_Z 48
_cell_length_a 11.276688
_cell_length_b 15.701571
_cell_length_c 11.655664
_cell_angle_alpha 90.000000
_cell_angle_beta 106.204636
_cell_angle_gamma 90.000000
_cell_volume 1981.780514
_symmetry_space_group_name_H-M "C 2/C"
_symmetry_group_IT_number 15
_symmetry_cell_setting 'monoclinic'
loop_
_space_group_symop_operation_xyz
x,y,z
-x,y,1/2-z
-x,-y,-z
x,-y,1/2+z
1/2+x,1/2+y,z
1/2-x,1/2+y,1/2-z
1/2-x,1/2-y,-z
1/2+x,1/2-y,1/2+z
loop_
_atom_site_type_symbol
_atom_site_label
_atom_site_fract_x
_atom_site_fract_y
_atom_site_fract_z
Si Si1 0.655471 0.354140 0.044612
Si Si2 0.871400 0.174048 0.224842
Si Si3 0.363485 0.914203 0.257058
Si Si4 0.110476 0.743956 0.220648
Si Si5 0.237737 0.158202 0.933934
Si Si6 0.663675 0.465350 0.618964
O O1 0.788800 0.355057 0.144825
O O2 0.581821 0.278289 0.085997
O O3 0.602257 0.445858 0.064481
O O4 0.669222 0.345262 0.914712
O O5 0.745299 0.202630 0.252709
O O6 0.910471 0.095120 0.316328
O O7 0.000000 0.226624 0.250000
O O8 0.500000 0.927891 0.250000
O O9 0.348110 0.874378 0.380056
O O10 0.282902 0.000678 0.223775
O O11 0.130962 0.824849 0.310778
O O12 0.000000 0.692736 0.250000
O O13 0.250000 0.250000 0.000000
O O14 0.205925 0.087194 0.018804
#
# Coordination Sequence:
#
# PCOD9296088 Si02
#       6
#     8   8   8   8   8   8
#     4   9  24  45  68 102 143 180 238 293 347 423
#     4  12  26  46  72 105 139 193 239 286 363 425
#     4   9  22  43  72 103 143 191 238 291 365 418
#     4  11  26  45  71 100 141 181 239 299 359 416
#     4  11  22  44  65 102 142 182 232 292 358 420
#     4  10  23  44  67 102 141 180 238 291 350 425
#
# _framework density 24.220645000000001
#
# number of rings (size 3 to 8) (size 9 to 14) (size 15 to 20)
#    1.000    0.667    1.667    1.500    2.333    6.667 
#    0.000    0.000    0.000    0.000    0.000    0.000 
#    0.000    0.000    0.000    0.000    0.000    0.000 
#
# Total GULP energy -133930.004292 kJ/mol
# GULP energy per Si atom -5580.416846 kJ/mol
# Density = 2.416552 g / cm^3
# Si number density = 24.220645 Si / 1000 Ang^3
#
#
#
# Elastic Constant Matrix: (Units=GPa)
#
#
# Indices 1 2 3 4 5 6 
#
# 1 157.4045 23.6971 33.9176 0.0000 -28.9592 0.0000
# 2 23.6971 74.5386 31.3492 0.0000 -8.0760 0.0000
# 3 33.9176 31.3492 162.9120 0.0000 -33.1492 0.0000
# 4 0.0000 0.0000 0.0000 45.6186 0.0000 -3.2610
# 5 -28.9592 -8.0760 -33.1492 0.0000 32.3292 0.0000
# 6 0.0000 0.0000 0.0000 -3.2610 0.0000 22.8802
#
#
#
# Elastic Compliance Matrix: (Units=1/GPa)
#
#
# Indices 1 2 3 4 5 6 
#
# 1 0.007830 -0.001798 0.000065 0.000000 0.006631 0.000000
# 2 -0.001798 0.015034 -0.002631 0.000000 -0.000553 0.000000
# 3 0.000065 -0.002631 0.008225 0.000000 0.007835 0.000000
# 4 0.000000 0.000000 0.000000 0.022147 0.000000 0.003156
# 5 0.006631 -0.000553 0.007835 0.000000 0.044767 0.000000
# 6 0.000000 0.000000 0.000000 0.003156 0.000000 0.044156
#
#
# Mechanical properties :
#
#
# Convention : Reuss Voigt Hill
#
# Bulk Modulus (GPa) = 44.72076 63.64253 54.18165
# Shear Modulus (GPa) = 31.57740 40.55833 36.06787
#
# Velocity S-wave (km/s) = 3.61465 4.09655 3.86312
# Velocity P-wave (km/s) = 5.99374 6.97917 6.50514
#
# Compressibility (1/GPa) = 0.02236098
#
# Stress axis : x y z
#
# Youngs Moduli (GPa) = 127.71827 66.51482 121.57602
#
# Poissons Ratio (x) = 0.11961 -0.00793
# Poissons Ratio (y) = 0.22966 0.31989
# Poissons Ratio (z) = -0.00833 0.17501
#
# Static dielectric constant tensor:
#      x y z
#    x 2.043370 0.000000 0.011710 
#    y 0.000000 2.076080 0.000000 
#    z 0.011710 0.000000 1.901320 
# 
# From -- ./inp_files/87402.got.cif
#   From: 2010.05.17/outbox.cif.g08.bks.cpg/sg15_44_cif.got.tgz:87402.got - 2010.06.03 18:47:42.
