data_PCOD9296210
_publ_section_title
;
Structure prediction by ZEFSAII (Michael W. Deem and Ramdas Pophale) SiO2 
 PCOD9296210
Probable space group: C 2/C
;
_chemical_formula_sum "Si O2"
_cell_formula_units_Z 48
_cell_length_a 6.437693
_cell_length_b 14.026663
_cell_length_c 30.165163
_cell_angle_alpha 90.000000
_cell_angle_beta 57.259340
_cell_angle_gamma 90.000000
_cell_volume 2291.141820
_symmetry_space_group_name_H-M "C 2/C"
_symmetry_group_IT_number 15
_symmetry_cell_setting 'monoclinic'
loop_
_space_group_symop_operation_xyz
x,y,z
-x,y,1/2-z
-x,-y,-z
x,-y,1/2+z
1/2+x,1/2+y,z
1/2-x,1/2+y,1/2-z
1/2-x,1/2-y,-z
1/2+x,1/2-y,1/2+z
loop_
_atom_site_type_symbol
_atom_site_label
_atom_site_fract_x
_atom_site_fract_y
_atom_site_fract_z
Si Si1 0.291942 0.114282 0.384083
Si Si2 0.604913 0.466892 0.335389
Si Si3 0.577994 0.006767 0.425631
Si Si4 0.260343 0.638701 0.484036
Si Si5 0.500000 0.154233 0.750000
Si Si6 0.000000 0.033174 0.250000
Si Si7 0.892348 0.308054 0.715249
O O1 0.199850 0.059152 0.350805
O O2 0.482186 0.054778 0.391801
O O3 0.417850 0.207319 0.347212
O O4 0.051282 0.125625 0.441981
O O5 0.338310 0.450732 0.389102
O O6 0.545491 0.478207 0.290147
O O7 0.849510 0.401541 0.305249
O O8 0.629279 0.094895 0.454294
O O9 0.369241 0.932167 0.465774
O O10 0.250000 0.750000 0.500000
O O11 0.710407 0.221388 0.745461
O O12 0.230190 0.103392 0.217974
O O13 0.000000 0.333704 0.750000
#
# Coordination Sequence:
#
# PCOD9296210 Si02
#       7
#     8   8   8   8   4   4   8
#     4  11  22  43  70  93 127 177 221 271 333 400
#     4  11  23  41  63  95 128 175 220 267 331 394
#     4  10  23  44  69  94 132 176 221 278 346 401
#     4  10  24  44  68  99 130 168 225 283 338 407
#     4  11  28  36  58  99 138 172 218 269 324 398
#     4  11  20  40  66  87 126 176 218 257 322 398
#     4  11  23  41  62  95 134 172 216 269 325 395
#
# _framework density 20.950254000000001
#
# number of rings (size 3 to 8) (size 9 to 14) (size 15 to 20)
#    0.000    1.333    3.333    1.500    3.500    0.667 
#    3.000    0.000    0.000    0.000    0.000    0.000 
#    0.000    0.000    0.000    0.000    0.000    0.000 
#
# Total GULP energy -133602.444227 kJ/mol
# GULP energy per Si atom -5566.768509 kJ/mol
# Density = 2.090257 g / cm^3
# Si number density = 20.950254 Si / 1000 Ang^3
#
#
#
# Elastic Constant Matrix: (Units=GPa)
#
#
# Indices 1 2 3 4 5 6 
#
# 1 71.8688 41.1400 45.2627 0.0014 -11.4430 -0.0004
# 2 41.1400 89.2567 62.9203 -0.0001 -12.3043 -0.0001
# 3 45.2627 62.9203 146.1558 -0.0010 -27.0916 -0.0001
# 4 0.0014 -0.0001 -0.0010 11.9626 0.0001 -11.0721
# 5 -11.4430 -12.3043 -27.0916 0.0001 45.6969 0.0001
# 6 -0.0004 -0.0001 -0.0001 -11.0721 0.0001 11.6143
#
#
#
# Elastic Compliance Matrix: (Units=1/GPa)
#
#
# Indices 1 2 3 4 5 6 
#
# 1 0.019955 -0.006936 -0.002936 -0.000018 0.001388 -0.000017
# 2 -0.006936 0.018499 -0.005858 0.000003 -0.000229 0.000003
# 3 -0.002936 -0.005858 0.011060 0.000009 0.004244 0.000008
# 4 -0.000018 0.000003 0.000009 0.710558 -0.000001 0.677386
# 5 0.001388 -0.000229 0.004244 -0.000001 0.024686 -0.000001
# 6 -0.000017 0.000003 0.000008 0.677386 -0.000001 0.731863
#
#
# Mechanical properties :
#
#
# Convention : Reuss Voigt Hill
#
# Bulk Modulus (GPa) = 55.39450 67.32527 61.35989
# Shear Modulus (GPa) = 3.21729 24.38532 13.80131
#
# Velocity S-wave (km/s) = 1.24057 3.41539 2.56943
# Velocity P-wave (km/s) = 5.34326 6.91077 6.17694
#
# Compressibility (1/GPa) = 0.01805233
#
# Stress axis : x y z
#
# Youngs Moduli (GPa) = 50.11215 54.05782 90.41570
#
# Poissons Ratio (x) = 0.37496 0.26550
# Poissons Ratio (y) = 0.34759 0.52966
# Poissons Ratio (z) = 0.14715 0.31667
#
# Static dielectric constant tensor:
#      x y z
#    x 2.016710 0.000000 0.240720 
#    y 0.000000 1.797840 0.000000 
#    z 0.240720 0.000000 2.161310 
# 
# From -- ./inp_files/305259.got.cif
#   From: 2010.05.17/outbox.cif.g08.bks.cpg/sg15_153_cif.got.tgz:305259.got - 2010.06.03 18:47:42.
