data_PCOD9296825
_publ_section_title
;
Structure prediction by ZEFSAII (Michael W. Deem and Ramdas Pophale) SiO2 
 PCOD9296825
Probable space group: C 2/C
;
_chemical_formula_sum "Si O2"
_cell_formula_units_Z 44
_cell_length_a 10.957282
_cell_length_b 13.734110
_cell_length_c 20.891551
_cell_angle_alpha 90.000000
_cell_angle_beta 138.844397
_cell_angle_gamma 90.000000
_cell_volume 2069.045540
_symmetry_space_group_name_H-M "C 2/C"
_symmetry_group_IT_number 15
_symmetry_cell_setting 'monoclinic'
loop_
_space_group_symop_operation_xyz
x,y,z
-x,y,1/2-z
-x,-y,-z
x,-y,1/2+z
1/2+x,1/2+y,z
1/2-x,1/2+y,1/2-z
1/2-x,1/2-y,-z
1/2+x,1/2-y,1/2+z
loop_
_atom_site_type_symbol
_atom_site_label
_atom_site_fract_x
_atom_site_fract_y
_atom_site_fract_z
Si Si1 0.500332 0.093334 0.173350
Si Si2 0.361066 0.068505 0.866796
Si Si3 0.500000 0.264533 0.750000
Si Si4 0.169882 0.800373 0.202924
Si Si5 0.239520 0.084724 0.425086
Si Si6 0.585343 0.453823 0.470134
O O1 0.500000 0.086655 0.250000
O O2 0.590785 0.193228 0.184131
O O3 0.604897 0.004203 0.179627
O O4 0.289417 0.086359 0.066078
O O5 0.216000 0.149145 0.788430
O O6 0.284305 0.002827 0.893809
O O7 0.559974 0.112237 0.966410
O O8 0.634927 0.205075 0.757374
O O9 0.365157 0.331121 0.653746
O O10 0.034905 0.868074 0.108290
O O11 0.110885 0.040576 0.429259
O O12 0.500000 0.500000 0.500000
#
# Coordination Sequence:
#
# PCOD9296825 Si02
#       6
#     8   8   4   8   8   8
#     4  11  25  45  69  99 139 176 230 277 331 407
#     4  10  23  46  70  95 134 182 224 274 339 395
#     4  12  26  42  68 102 136 168 230 282 334 400
#     4  12  27  42  70 102 134 177 225 280 338 401
#     4  10  23  46  68  92 133 181 223 277 329 404
#     4  11  26  45  71  96 138 184 224 274 342 398
#
# _framework density 21.265844999999999
#
# number of rings (size 3 to 8) (size 9 to 14) (size 15 to 20)
#    0.000    1.091    1.818    2.727   11.455    2.182 
#    0.000    0.000    0.000    0.000    0.000    0.000 
#    0.000    0.000    0.000    0.000    0.000    0.000 
#
# Total GULP energy -123201.659043 kJ/mol
# GULP energy per Si atom -5600.075411 kJ/mol
# Density = 2.121744 g / cm^3
# Si number density = 21.265845 Si / 1000 Ang^3
#
#
#
# Elastic Constant Matrix: (Units=GPa)
#
#
# Indices 1 2 3 4 5 6 
#
# 1 90.4974 -2.3741 -2.5384 0.0000 -11.4149 0.0000
# 2 -2.3741 64.2682 44.2312 0.0000 3.9782 0.0000
# 3 -2.5384 44.2312 76.0359 0.0000 -9.1610 0.0000
# 4 0.0000 0.0000 0.0000 -17.7755 0.0000 20.7513
# 5 -11.4149 3.9782 -9.1610 0.0000 33.4225 0.0000
# 6 0.0000 0.0000 0.0000 20.7513 0.0000 11.2172
#
#
#
# Elastic Compliance Matrix: (Units=1/GPa)
#
#
# Indices 1 2 3 4 5 6 
#
# 1 0.011629 -0.000804 0.001392 0.000000 0.004449 0.000000
# 2 -0.000804 0.027943 -0.017287 0.000000 -0.008339 0.000000
# 3 0.001392 -0.017287 0.024364 0.000000 0.009211 0.000000
# 4 0.000000 0.000000 0.000000 -0.017805 0.000000 0.032938
# 5 0.004449 -0.008339 0.009211 0.000000 0.034957 0.000000
# 6 0.000000 0.000000 0.000000 0.032938 0.000000 0.028215
#
#
# Mechanical properties :
#
#
# Convention : Reuss Voigt Hill
#
# Bulk Modulus (GPa) = 32.74466 34.38212 33.56339
# Shear Modulus (GPa) = 32.70545 18.13835 25.42190
#
# Velocity S-wave (km/s) = 3.92590 2.92367 3.46125
# Velocity P-wave (km/s) = 5.99846 5.25357 5.63833
#
# Compressibility (1/GPa) = 0.03053933
#
# Stress axis : x y z
#
# Youngs Moduli (GPa) = 85.99075 35.78657 41.04452
#
# Poissons Ratio (x) = 0.02876 -0.05712
# Poissons Ratio (y) = 0.06911 0.70952
# Poissons Ratio (z) = -0.11968 0.61863
#
# Static dielectric constant tensor:
#      x y z
#    x 1.773020 0.000000 -0.012360 
#    y 0.000000 1.742910 0.000000 
#    z -0.012360 0.000000 1.764080 
# 
# From -- ./inp_files/143385.got.cif
#   From: 2010.05.17/outbox.cif.g08.bks.cpg/sg15_72_cif.got.tgz:143385.got - 2010.06.03 18:47:42.
