data_PCOD9296783
_publ_section_title
;
Structure prediction by ZEFSAII (Michael W. Deem and Ramdas Pophale) SiO2 
 PCOD9296783
Probable space group: C 2/C
;
_chemical_formula_sum "Si O2"
_cell_formula_units_Z 40
_cell_length_a 23.612811
_cell_length_b 9.411044
_cell_length_c 13.946365
_cell_angle_alpha 90.000000
_cell_angle_beta 36.118344
_cell_angle_gamma 90.000000
_cell_volume 1826.826024
_symmetry_space_group_name_H-M "C 2/C"
_symmetry_group_IT_number 15
_symmetry_cell_setting 'monoclinic'
loop_
_space_group_symop_operation_xyz
x,y,z
-x,y,1/2-z
-x,-y,-z
x,-y,1/2+z
1/2+x,1/2+y,z
1/2-x,1/2+y,1/2-z
1/2-x,1/2-y,-z
1/2+x,1/2-y,1/2+z
loop_
_atom_site_type_symbol
_atom_site_label
_atom_site_fract_x
_atom_site_fract_y
_atom_site_fract_z
Si Si1 0.737565 0.922782 0.329887
Si Si2 0.425847 0.595403 0.661720
Si Si3 0.818794 0.158925 0.339495
Si Si4 0.397077 0.933697 0.167954
Si Si5 0.409853 0.140355 0.314638
O O1 0.844096 0.858465 0.196121
O O2 0.681884 0.934424 0.307316
O O3 0.671608 0.835092 0.494750
O O4 0.755873 0.084779 0.341927
O O5 0.500000 0.500000 0.500000
O O6 0.372281 0.480817 0.804831
O O7 0.448703 0.727610 0.698580
O O8 0.750000 0.250000 0.500000
O O9 0.899640 0.268583 0.192777
O O10 0.366697 0.026689 0.300416
O O11 0.500000 0.000000 0.000000
O O12 0.500000 0.078744 0.250000
#
# Coordination Sequence:
#
# PCOD9296783 Si02
#       5
#     8   8   8   8   8
#     4  10  25  42  72 101 140 184 236 290 359 414
#     4  10  24  46  67  99 140 178 239 288 347 419
#     4  10  23  46  66 100 137 176 237 289 352 407
#     4  12  23  43  74 101 143 185 238 292 354 429
#     4  12  24  45  71 107 144 192 235 291 361 426
#
# _framework density 21.895900999999999
#
# number of rings (size 3 to 8) (size 9 to 14) (size 15 to 20)
#    1.200    0.000    4.000    1.800    2.800    0.000 
#    7.200    1.000    0.000    0.000    0.000    0.000 
#    0.000    0.000    0.000    0.000    0.000    0.000 
#
# Total GULP energy -111388.768283 kJ/mol
# GULP energy per Si atom -5569.438414 kJ/mol
# Density = 2.184606 g / cm^3
# Si number density = 21.895901 Si / 1000 Ang^3
#
#
#
# Elastic Constant Matrix: (Units=GPa)
#
#
# Indices 1 2 3 4 5 6 
#
# 1 106.0440 6.8518 19.6271 0.0000 11.3275 0.0000
# 2 6.8518 96.6899 -2.7998 0.0002 17.7875 -0.0001
# 3 19.6271 -2.7998 73.0825 0.0001 -10.6167 0.0000
# 4 0.0000 0.0002 0.0001 41.5397 0.0000 -0.1137
# 5 11.3275 17.7875 -10.6167 0.0000 25.2012 0.0000
# 6 0.0000 -0.0001 0.0000 -0.1137 0.0000 22.8523
#
#
#
# Elastic Compliance Matrix: (Units=1/GPa)
#
#
# Indices 1 2 3 4 5 6 
#
# 1 0.010848 0.000364 -0.003883 0.000000 -0.006769 0.000000
# 2 0.000364 0.011943 -0.000947 0.000000 -0.008992 0.000000
# 3 -0.003883 -0.000947 0.016021 0.000000 0.009162 0.000000
# 4 0.000000 0.000000 0.000000 0.024074 0.000000 0.000120
# 5 -0.006769 -0.008992 0.009162 0.000000 0.052930 0.000000
# 6 0.000000 0.000000 0.000000 0.000120 0.000000 0.043760
#
#
# Mechanical properties :
#
#
# Convention : Reuss Voigt Hill
#
# Bulk Modulus (GPa) = 33.46519 35.90829 34.68674
# Shear Modulus (GPa) = 28.01641 34.72780 31.37210
#
# Velocity S-wave (km/s) = 3.58093 3.98683 3.78932
# Velocity P-wave (km/s) = 5.69336 6.13419 5.91788
#
# Compressibility (1/GPa) = 0.02988180
#
# Stress axis : x y z
#
# Youngs Moduli (GPa) = 92.18133 83.72826 62.41925
#
# Poissons Ratio (x) = -0.03048 0.24236
# Poissons Ratio (y) = -0.03356 0.05908
# Poissons Ratio (z) = 0.35792 0.07925
#
# Static dielectric constant tensor:
#      x y z
#    x 1.784920 0.000000 0.006080 
#    y 0.000000 1.834450 0.000000 
#    z 0.006080 0.000000 1.941190 
# 
# From -- ./inp_files/171637.got.cif
#   From: 2010.05.17/outbox.cif.g08.bks.cpg/sg15_86_cif.got.tgz:171637.got - 2010.06.03 18:47:42.
