data_PCOD9296048
_publ_section_title
;
Structure prediction by ZEFSAII (Michael W. Deem and Ramdas Pophale) SiO2 
 PCOD9296048
Probable space group: C 2/C
;
_chemical_formula_sum "Si O2"
_cell_formula_units_Z 24
_cell_length_a 11.432360
_cell_length_b 9.546331
_cell_length_c 11.249200
_cell_angle_alpha 90.000000
_cell_angle_beta 67.559884
_cell_angle_gamma 90.000000
_cell_volume 1134.741932
_symmetry_space_group_name_H-M "C 2/C"
_symmetry_group_IT_number 15
_symmetry_cell_setting 'monoclinic'
loop_
_space_group_symop_operation_xyz
x,y,z
-x,y,1/2-z
-x,-y,-z
x,-y,1/2+z
1/2+x,1/2+y,z
1/2-x,1/2+y,1/2-z
1/2-x,1/2-y,-z
1/2+x,1/2-y,1/2+z
loop_
_atom_site_type_symbol
_atom_site_label
_atom_site_fract_x
_atom_site_fract_y
_atom_site_fract_z
Si Si1 0.450053 0.818464 0.888633
Si Si2 0.727356 0.778457 0.871686
Si Si3 0.739037 0.591059 0.646937
O O1 0.500000 0.894544 0.750000
O O2 0.575934 0.781734 0.910777
O O3 0.373543 0.682201 0.869322
O O4 0.353730 0.901728 0.008428
O O5 0.774315 0.666876 0.756425
O O6 0.787460 0.929399 0.818742
O O7 0.750000 0.750000 0.000000
#
# Coordination Sequence:
#
# PCOD9296048 Si02
#       3
#     8   8   8
#     4   9  21  43  68  89 133 172 214 274 324 379
#     4  11  25  41  67 100 130 175 220 264 339 389
#     4  10  23  44  66  94 135 170 221 273 323 392
#
# _framework density 21.150182999999998
#
# number of rings (size 3 to 8) (size 9 to 14) (size 15 to 20)
#    0.000    2.000    0.000    1.000   14.000    2.667 
#   12.000    0.000    0.000    0.000    0.000    0.000 
#    0.000    0.000    0.000    0.000    0.000    0.000 
#
# Total GULP energy -67025.599108 kJ/mol
# GULP energy per Si atom -5585.466592 kJ/mol
# Density = 2.110204 g / cm^3
# Si number density = 21.150183 Si / 1000 Ang^3
#
#
#
# Elastic Constant Matrix: (Units=GPa)
#
#
# Indices 1 2 3 4 5 6 
#
# 1 82.1317 -17.2255 38.2361 0.0000 27.6710 0.0000
# 2 -17.2255 124.0008 35.2758 0.0000 30.8315 0.0000
# 3 38.2361 35.2758 136.7090 0.0000 27.3602 0.0000
# 4 0.0000 0.0000 0.0000 29.3510 0.0000 7.8537
# 5 27.6710 30.8315 27.3602 0.0000 50.2894 0.0000
# 6 0.0000 0.0000 0.0000 7.8537 0.0000 11.1941
#
#
#
# Elastic Compliance Matrix: (Units=1/GPa)
#
#
# Indices 1 2 3 4 5 6 
#
# 1 0.020579 0.007587 -0.005068 0.000000 -0.013218 0.000000
# 2 0.007587 0.012573 -0.003353 0.000000 -0.010059 0.000000
# 3 -0.005068 -0.003353 0.009682 0.000000 -0.000423 0.000000
# 4 0.000000 0.000000 0.000000 0.041945 0.000000 -0.029428
# 5 -0.013218 -0.010059 -0.000423 0.000000 0.033555 0.000000
# 6 0.000000 0.000000 0.000000 -0.029428 0.000000 0.109979
#
#
# Mechanical properties :
#
#
# Convention : Reuss Voigt Hill
#
# Bulk Modulus (GPa) = 24.29193 50.60160 37.44676
# Shear Modulus (GPa) = 20.51667 37.27059 28.89363
#
# Velocity S-wave (km/s) = 3.11794 4.20240 3.70011
# Velocity P-wave (km/s) = 4.94696 6.89374 5.99984
#
# Compressibility (1/GPa) = 0.04116594
#
# Stress axis : x y z
#
# Youngs Moduli (GPa) = 48.59225 79.53329 103.28126
#
# Poissons Ratio (x) = -0.60342 0.52346
# Poissons Ratio (y) = -0.36867 0.34633
# Poissons Ratio (z) = 0.24628 0.26670
#
# Static dielectric constant tensor:
#      x y z
#    x 1.760310 0.000000 0.000570 
#    y 0.000000 1.772630 0.000000 
#    z 0.000570 0.000000 1.763120 
# 
# From -- ./inp_files/27057.got.cif
#   From: 2010.05.17/outbox.cif.g08.bks.cpg/sg15_14_cif.got.tgz:27057.got - 2010.06.03 18:47:42.
