data_PCOD9296477
_publ_section_title
;
Structure prediction by ZEFSAII (Michael W. Deem and Ramdas Pophale) SiO2 
 PCOD9296477
Probable space group: C 2/C
;
_chemical_formula_sum "Si O2"
_cell_formula_units_Z 44
_cell_length_a 5.550291
_cell_length_b 24.888486
_cell_length_c 16.604733
_cell_angle_alpha 90.000000
_cell_angle_beta 123.775282
_cell_angle_gamma 90.000000
_cell_volume 1906.621138
_symmetry_space_group_name_H-M "C 2/C"
_symmetry_group_IT_number 15
_symmetry_cell_setting 'monoclinic'
loop_
_space_group_symop_operation_xyz
x,y,z
-x,y,1/2-z
-x,-y,-z
x,-y,1/2+z
1/2+x,1/2+y,z
1/2-x,1/2+y,1/2-z
1/2-x,1/2-y,-z
1/2+x,1/2-y,1/2+z
loop_
_atom_site_type_symbol
_atom_site_label
_atom_site_fract_x
_atom_site_fract_y
_atom_site_fract_z
Si Si1 0.517764 0.489151 0.377851
Si Si2 0.636655 0.336524 0.997715
Si Si3 0.000000 0.925723 0.750000
Si Si4 0.028966 0.353473 0.851115
Si Si5 0.265342 0.258595 0.635325
Si Si6 0.094539 0.443428 0.423421
O O1 0.384997 0.536898 0.299742
O O2 0.266860 0.453730 0.371854
O O3 0.719797 0.518431 0.482126
O O4 0.758563 0.459649 0.367367
O O5 0.339677 0.370571 0.940436
O O6 0.631558 0.297104 0.919236
O O7 0.674093 0.297685 0.080802
O O8 0.881592 0.381585 0.045054
O O9 0.739612 0.889056 0.669442
O O10 0.000000 0.354577 0.750000
O O11 0.995041 0.292455 0.874632
O O12 0.500000 0.254101 0.750000
#
# Coordination Sequence:
#
# PCOD9296477 Si02
#       6
#     8   8   4   8   8   8
#     4  10  24  42  68  98 141 173 239 288 348 414
#     4  11  25  42  74  95 146 190 226 301 359 426
#     4  12  26  40  70 102 136 182 238 306 338 422
#     4  12  22  40  69 104 135 178 243 295 352 413
#     4  11  23  46  65 108 137 179 246 289 357 430
#     4  10  23  45  65 100 135 188 227 284 360 427
#
# _framework density 23.077473999999999
#
# number of rings (size 3 to 8) (size 9 to 14) (size 15 to 20)
#    0.000    1.091    2.727    2.727   12.727    0.000 
#    3.273    0.000    0.000    0.000    0.000    0.000 
#    0.000    0.000    0.000    0.000    0.000    0.000 
#
# Total GULP energy -123053.694559 kJ/mol
# GULP energy per Si atom -5593.349753 kJ/mol
# Density = 2.302495 g / cm^3
# Si number density = 23.077474 Si / 1000 Ang^3
#
#
#
# Elastic Constant Matrix: (Units=GPa)
#
#
# Indices 1 2 3 4 5 6 
#
# 1 105.5520 46.4554 29.0306 0.0000 -5.1315 0.0000
# 2 46.4554 98.2834 44.4373 0.0000 8.0381 0.0000
# 3 29.0306 44.4373 76.0097 0.0000 -6.7518 0.0000
# 4 0.0000 0.0000 0.0000 33.9251 0.0000 -5.7408
# 5 -5.1315 8.0381 -6.7518 0.0000 27.3557 0.0000
# 6 0.0000 0.0000 0.0000 -5.7408 0.0000 32.9136
#
#
#
# Elastic Compliance Matrix: (Units=1/GPa)
#
#
# Indices 1 2 3 4 5 6 
#
# 1 0.012468 -0.005705 -0.001094 0.000000 0.003745 0.000000
# 2 -0.005705 0.017550 -0.008828 0.000000 -0.008406 0.000000
# 3 -0.001094 -0.008828 0.019372 0.000000 0.007170 0.000000
# 4 0.000000 0.000000 0.000000 0.030373 0.000000 0.005298
# 5 0.003745 -0.008406 0.007170 0.000000 0.041498 0.000000
# 6 0.000000 0.000000 0.000000 0.005298 0.000000 0.031307
#
#
# Mechanical properties :
#
#
# Convention : Reuss Voigt Hill
#
# Bulk Modulus (GPa) = 55.13840 57.74353 56.44096
# Shear Modulus (GPa) = 26.33433 29.50034 27.91734
#
# Velocity S-wave (km/s) = 3.38172 3.57924 3.48188
# Velocity P-wave (km/s) = 6.26040 6.49285 6.37769
#
# Compressibility (1/GPa) = 0.01813618
#
# Stress axis : x y z
#
# Youngs Moduli (GPa) = 80.20710 56.97991 51.62067
#
# Poissons Ratio (x) = 0.32505 0.05648
# Poissons Ratio (y) = 0.45756 0.45571
# Poissons Ratio (z) = 0.08775 0.50302
#
# Static dielectric constant tensor:
#      x y z
#    x 1.940290 0.000000 -0.026160 
#    y 0.000000 1.813550 0.000000 
#    z -0.026160 0.000000 1.861160 
# 
# From -- ./inp_files/129481.got.cif
#   From: 2010.05.17/outbox.cif.g08.bks.cpg/sg15_65_cif.got.tgz:129481.got - 2010.06.03 18:47:42.
