data_PCOD9296083
_publ_section_title
;
Structure prediction by ZEFSAII (Michael W. Deem and Ramdas Pophale) SiO2 
 PCOD9296083
Probable space group: C 2/C
;
_chemical_formula_sum "Si O2"
_cell_formula_units_Z 60
_cell_length_a 18.880268
_cell_length_b 24.336163
_cell_length_c 8.775450
_cell_angle_alpha 90.000000
_cell_angle_beta 46.248663
_cell_angle_gamma 90.000000
_cell_volume 2912.567680
_symmetry_space_group_name_H-M "C 2/C"
_symmetry_group_IT_number 15
_symmetry_cell_setting 'monoclinic'
loop_
_space_group_symop_operation_xyz
x,y,z
-x,y,1/2-z
-x,-y,-z
x,-y,1/2+z
1/2+x,1/2+y,z
1/2-x,1/2+y,1/2-z
1/2-x,1/2-y,-z
1/2+x,1/2-y,1/2+z
loop_
_atom_site_type_symbol
_atom_site_label
_atom_site_fract_x
_atom_site_fract_y
_atom_site_fract_z
Si Si1 0.521271 0.315533 0.401998
Si Si2 0.218785 0.881339 0.042363
Si Si3 0.329792 0.614216 0.230012
Si Si4 0.595016 0.035770 0.896866
Si Si5 0.902350 0.652842 0.465039
Si Si6 0.243234 0.493993 0.927142
Si Si7 0.311682 0.804889 0.398541
Si Si8 0.500000 0.241512 0.750000
O O1 0.500000 0.299285 0.250000
O O2 0.627098 0.345939 0.241905
O O3 0.437011 0.360069 0.563043
O O4 0.513757 0.275373 0.566032
O O5 0.215378 0.946979 0.081963
O O6 0.218637 0.875030 0.861896
O O7 0.319610 0.860241 0.964784
O O8 0.327087 0.549150 0.261362
O O9 0.262512 0.646433 0.450307
O O10 0.670444 0.038330 0.647307
O O11 0.665752 0.006736 0.911273
O O12 0.566791 0.095233 0.001589
O O13 0.500000 0.000000 0.000000
O O14 0.853809 0.688755 0.667328
O O15 0.000000 0.677508 0.250000
O O16 0.250000 0.750000 0.500000
O O17 0.404650 0.796535 0.369718
#
# Coordination Sequence:
#
# PCOD9296083 Si02
#       8
#     8   8   8   8   8   8   8   4
#     4  10  24  47  73  99 136 180 232 292 351 413
#     4  10  23  44  67 100 138 179 223 279 350 410
#     4  11  23  45  67  97 138 176 227 290 338 411
#     4  11  21  37  59  93 135 179 218 263 339 409
#     4  11  25  43  65  99 139 175 225 282 339 415
#     4  11  21  36  65  94 134 176 221 272 335 416
#     4  12  26  46  69  99 130 175 235 286 348 408
#     4  12  26  46  72  98 134 180 236 286 362 400
#
# _framework density 20.600380999999999
#
# number of rings (size 3 to 8) (size 9 to 14) (size 15 to 20)
#    0.000    1.067    4.000    2.800    1.867    1.067 
#    0.000    2.000    0.000    0.000    0.000    0.000 
#    0.000    0.000    0.000    0.000    0.000    0.000 
#
# Total GULP energy -167341.629658 kJ/mol
# GULP energy per Si atom -5578.054322 kJ/mol
# Density = 2.055349 g / cm^3
# Si number density = 20.600381 Si / 1000 Ang^3
#
#
#
# Elastic Constant Matrix: (Units=GPa)
#
#
# Indices 1 2 3 4 5 6 
#
# 1 49.5298 -2.7981 12.4354 0.0000 -8.1380 0.0000
# 2 -2.7981 48.4795 20.7976 0.0000 -10.8762 0.0000
# 3 12.4354 20.7976 122.1746 0.0000 1.0367 0.0000
# 4 0.0000 0.0000 0.0000 28.9672 0.0000 -2.4011
# 5 -8.1380 -10.8762 1.0367 0.0000 36.3180 0.0000
# 6 0.0000 0.0000 0.0000 -2.4011 0.0000 30.0580
#
#
#
# Elastic Compliance Matrix: (Units=1/GPa)
#
#
# Indices 1 2 3 4 5 6 
#
# 1 0.022189 0.003963 -0.002986 0.000000 0.006244 0.000000
# 2 0.003963 0.024761 -0.004690 0.000000 0.008437 0.000000
# 3 -0.002986 -0.004690 0.009307 0.000000 -0.002339 0.000000
# 4 0.000000 0.000000 0.000000 0.034752 0.000000 0.002776
# 5 0.006244 0.008437 -0.002339 0.000000 0.031527 0.000000
# 6 0.000000 0.000000 0.000000 0.002776 0.000000 0.033491
#
#
# Mechanical properties :
#
#
# Convention : Reuss Voigt Hill
#
# Bulk Modulus (GPa) = 20.47902 31.22817 25.85360
# Shear Modulus (GPa) = 27.81942 31.71858 29.76900
#
# Velocity S-wave (km/s) = 3.67881 3.92817 3.80553
# Velocity P-wave (km/s) = 5.29221 5.98046 5.64683
#
# Compressibility (1/GPa) = 0.04883046
#
# Stress axis : x y z
#
# Youngs Moduli (GPa) = 45.06667 40.38652 107.44435
#
# Poissons Ratio (x) = -0.16003 0.32083
# Poissons Ratio (y) = -0.17858 0.50390
# Poissons Ratio (z) = 0.13457 0.18941
#
# Static dielectric constant tensor:
#      x y z
#    x 1.698100 0.000000 0.044780 
#    y 0.000000 1.892720 0.000000 
#    z 0.044780 0.000000 1.728320 
# 
# From -- ./inp_files/58755.got.cif
#   From: 2010.05.17/outbox.cif.g08.bks.cpg/sg15_30_cif.got.tgz:58755.got - 2010.06.03 18:47:42.
