data_PCOD9296262
_publ_section_title
;
Structure prediction by ZEFSAII (Michael W. Deem and Ramdas Pophale) SiO2 
 PCOD9296262
Probable space group: C 2/C
;
_chemical_formula_sum "Si O2"
_cell_formula_units_Z 32
_cell_length_a 5.873424
_cell_length_b 26.726093
_cell_length_c 9.939950
_cell_angle_alpha 90.000000
_cell_angle_beta 113.664234
_cell_angle_gamma 90.000000
_cell_volume 1429.109169
_symmetry_space_group_name_H-M "C 2/C"
_symmetry_group_IT_number 15
_symmetry_cell_setting 'monoclinic'
loop_
_space_group_symop_operation_xyz
x,y,z
-x,y,1/2-z
-x,-y,-z
x,-y,1/2+z
1/2+x,1/2+y,z
1/2-x,1/2+y,1/2-z
1/2-x,1/2-y,-z
1/2+x,1/2-y,1/2+z
loop_
_atom_site_type_symbol
_atom_site_label
_atom_site_fract_x
_atom_site_fract_y
_atom_site_fract_z
Si Si1 0.691936 0.781734 0.173043
Si Si2 0.526516 0.584923 0.594111
Si Si3 0.281124 0.828182 0.599327
Si Si4 0.340635 0.999134 0.092302
O O1 0.500000 0.794288 0.250000
O O2 0.673226 0.722408 0.140042
O O3 0.000000 0.789979 0.250000
O O4 0.608564 0.811003 0.019202
O O5 0.500000 0.590666 0.750000
O O6 0.434008 0.632947 0.491147
O O7 0.364067 0.539389 0.497313
O O8 0.783440 0.558619 0.616842
O O9 0.500000 0.846843 0.750000
O O10 0.500000 0.021184 0.250000
O O11 0.500000 0.000000 0.000000
#
# Coordination Sequence:
#
# PCOD9296262 Si02
#       4
#     8   8   8   8
#     4  10  23  48  74 102 148 193 236 296 357 419
#     4  11  23  43  68 100 133 179 234 282 351 424
#     4  10  23  44  70 105 140 184 238 291 352 427
#     4  11  23  45  69  96 136 176 223 293 351 415
#
# _framework density 22.391572
#
# number of rings (size 3 to 8) (size 9 to 14) (size 15 to 20)
#    0.000    1.500    2.500    1.500    0.000   10.000 
#   22.500    0.000    0.000    0.000    0.000    0.000 
#    0.000    0.000    0.000    0.000    0.000    0.000 
#
# Total GULP energy -89072.254841 kJ/mol
# GULP energy per Si atom -5567.015928 kJ/mol
# Density = 2.234061 g / cm^3
# Si number density = 22.391572 Si / 1000 Ang^3
#
#
#
# Elastic Constant Matrix: (Units=GPa)
#
#
# Indices 1 2 3 4 5 6 
#
# 1 104.0425 29.6359 68.0158 0.0000 -15.1759 0.0000
# 2 29.6359 98.2862 43.2874 0.0000 18.3692 0.0000
# 3 68.0158 43.2874 188.3923 0.0000 3.0449 0.0000
# 4 0.0000 0.0000 0.0000 34.4369 0.0000 4.9504
# 5 -15.1759 18.3692 3.0449 0.0000 40.2332 0.0000
# 6 0.0000 0.0000 0.0000 4.9504 0.0000 7.7739
#
#
#
# Elastic Compliance Matrix: (Units=1/GPa)
#
#
# Indices 1 2 3 4 5 6 
#
# 1 0.014851 -0.003901 -0.004590 0.000000 0.007730 0.000000
# 2 -0.003901 0.013436 -0.001558 0.000000 -0.007488 0.000000
# 3 -0.004590 -0.001558 0.007349 0.000000 -0.001576 0.000000
# 4 0.000000 0.000000 0.000000 0.031965 0.000000 -0.020355
# 5 0.007730 -0.007488 -0.001576 0.000000 0.031309 0.000000
# 6 0.000000 0.000000 0.000000 -0.020355 0.000000 0.141597
#
#
# Mechanical properties :
#
#
# Convention : Reuss Voigt Hill
#
# Bulk Modulus (GPa) = 64.35993 74.73326 69.54659
# Shear Modulus (GPa) = 18.81220 33.14094 25.97657
#
# Velocity S-wave (km/s) = 2.90167 3.85133 3.40973
# Velocity P-wave (km/s) = 6.32705 7.29555 6.82849
#
# Compressibility (1/GPa) = 0.01553762
#
# Stress axis : x y z
#
# Youngs Moduli (GPa) = 67.33538 74.42550 136.07765
#
# Poissons Ratio (x) = 0.29034 0.62464
# Poissons Ratio (y) = 0.26268 0.21199
# Poissons Ratio (z) = 0.30909 0.11594
#
# Static dielectric constant tensor:
#      x y z
#    x 1.726550 0.000000 0.018620 
#    y 0.000000 1.868890 0.000000 
#    z 0.018620 0.000000 1.812440 
# 
# From -- ./inp_files/20291.got.cif
#   From: 2010.05.17/outbox.cif.g08.bks.cpg/sg15_11_cif.got.tgz:20291.got - 2010.06.03 18:47:42.
