data_PCOD9296263
_publ_section_title
;
Structure prediction by ZEFSAII (Michael W. Deem and Ramdas Pophale) SiO2 
 PCOD9296263
Probable space group: C 2/C
;
_chemical_formula_sum "Si O2"
_cell_formula_units_Z 56
_cell_length_a 13.973351
_cell_length_b 11.270003
_cell_length_c 29.855496
_cell_angle_alpha 90.000000
_cell_angle_beta 29.812535
_cell_angle_gamma 90.000000
_cell_volume 2337.482597
_symmetry_space_group_name_H-M "C 2/C"
_symmetry_group_IT_number 15
_symmetry_cell_setting 'monoclinic'
loop_
_space_group_symop_operation_xyz
x,y,z
-x,y,1/2-z
-x,-y,-z
x,-y,1/2+z
1/2+x,1/2+y,z
1/2-x,1/2+y,1/2-z
1/2-x,1/2-y,-z
1/2+x,1/2-y,1/2+z
loop_
_atom_site_type_symbol
_atom_site_label
_atom_site_fract_x
_atom_site_fract_y
_atom_site_fract_z
Si Si1 0.774167 0.671849 0.330429
Si Si2 0.540854 0.551076 0.886130
Si Si3 0.960038 0.777817 0.487877
Si Si4 0.696404 0.441034 0.597516
Si Si5 0.668585 0.866216 0.297773
Si Si6 0.090773 0.515434 0.405630
Si Si7 0.886244 0.316955 0.341599
O O1 0.661338 0.551570 0.362164
O O2 0.685498 0.721703 0.412374
O O3 0.724688 0.763756 0.310152
O O4 0.000000 0.653162 0.250000
O O5 0.402218 0.627996 0.973658
O O6 0.425745 0.499423 0.891206
O O7 0.690804 0.640092 0.801616
O O8 0.011602 0.648484 0.446521
O O9 0.161105 0.831902 0.424545
O O10 0.748350 0.508418 0.622098
O O11 0.595000 0.322607 0.655396
O O12 0.910201 0.427820 0.488597
O O13 0.462693 0.871355 0.356633
O O14 0.678042 0.987455 0.322279
O O15 0.000000 0.348221 0.250000
#
# Coordination Sequence:
#
# PCOD9296263 Si02
#       7
#     8   8   8   8   8   8   8
#     4  12  30  51  74 112 155 199 254 311 374 444
#     4  12  28  45  76 108 149 200 249 308 377 445
#     4  11  27  52  74 108 154 203 240 312 383 439
#     4  10  23  44  70 106 140 196 246 301 375 438
#     4  12  27  45  77 111 144 197 254 310 371 443
#     4  10  25  46  75 107 148 190 249 316 365 449
#     4  11  23  46  75 106 149 193 251 305 369 453
#
# _framework density 23.957398999999999
#
# number of rings (size 3 to 8) (size 9 to 14) (size 15 to 20)
#    0.000    0.857    2.857    3.000   14.000    2.857 
#    0.000    0.000    0.000    0.000    0.000    0.000 
#    0.000    0.000    0.000    0.000    0.000    0.000 
#
# Total GULP energy -156561.800323 kJ/mol
# GULP energy per Si atom -5591.492869 kJ/mol
# Density = 2.390287 g / cm^3
# Si number density = 23.957399 Si / 1000 Ang^3
#
#
#
# Elastic Constant Matrix: (Units=GPa)
#
#
# Indices 1 2 3 4 5 6 
#
# 1 131.2586 48.2154 24.7046 0.0001 9.2043 0.0000
# 2 48.2154 108.7190 30.8468 -0.0003 19.1615 0.0001
# 3 24.7046 30.8468 68.9150 0.0005 15.7678 0.0012
# 4 0.0001 -0.0003 0.0005 22.4856 -0.0003 6.2274
# 5 9.2043 19.1615 15.7678 -0.0003 37.5091 0.0001
# 6 0.0000 0.0001 0.0012 6.2274 0.0001 34.4807
#
#
#
# Elastic Compliance Matrix: (Units=1/GPa)
#
#
# Indices 1 2 3 4 5 6 
#
# 1 0.009275 -0.003675 -0.001758 0.000000 0.000340 0.000000
# 2 -0.003675 0.012494 -0.003343 0.000000 -0.004076 0.000000
# 3 -0.001758 -0.003343 0.017866 0.000000 -0.005371 -0.000001
# 4 0.000000 0.000000 0.000000 0.046815 0.000000 -0.008455
# 5 0.000340 -0.004076 -0.005371 0.000000 0.030917 0.000000
# 6 0.000000 0.000000 -0.000001 -0.008455 0.000000 0.030529
#
#
# Mechanical properties :
#
#
# Convention : Reuss Voigt Hill
#
# Bulk Modulus (GPa) = 45.27964 57.38068 51.33016
# Shear Modulus (GPa) = 28.93373 32.57014 30.75193
#
# Velocity S-wave (km/s) = 3.47899 3.69114 3.58664
# Velocity P-wave (km/s) = 5.92275 6.49378 6.21483
#
# Compressibility (1/GPa) = 0.02208498
#
# Stress axis : x y z
#
# Youngs Moduli (GPa) = 107.81209 80.03524 55.97202
#
# Poissons Ratio (x) = 0.29410 0.09840
# Poissons Ratio (y) = 0.39617 0.18710
# Poissons Ratio (z) = 0.18954 0.26754
#
# Static dielectric constant tensor:
#      x y z
#    x 1.929900 0.000000 -0.045700 
#    y 0.000000 1.962190 0.000000 
#    z -0.045700 0.000000 1.950560 
# 
# From -- ./inp_files/313705.got.cif
#   From: 2010.05.17/outbox.cif.g08.bks.cpg/sg15_157_cif.got.tgz:313705.got - 2010.06.03 18:47:42.
