data_PCOD9296120
_publ_section_title
;
Structure prediction by ZEFSAII (Michael W. Deem and Ramdas Pophale) SiO2 
 PCOD9296120
Probable space group: C 2/C
;
_chemical_formula_sum "Si O2"
_cell_formula_units_Z 48
_cell_length_a 18.354571
_cell_length_b 8.993238
_cell_length_c 13.954096
_cell_angle_alpha 90.000000
_cell_angle_beta 82.301874
_cell_angle_gamma 90.000000
_cell_volume 2282.602264
_symmetry_space_group_name_H-M "C 2/C"
_symmetry_group_IT_number 15
_symmetry_cell_setting 'monoclinic'
loop_
_space_group_symop_operation_xyz
x,y,z
-x,y,1/2-z
-x,-y,-z
x,-y,1/2+z
1/2+x,1/2+y,z
1/2-x,1/2+y,1/2-z
1/2-x,1/2-y,-z
1/2+x,1/2-y,1/2+z
loop_
_atom_site_type_symbol
_atom_site_label
_atom_site_fract_x
_atom_site_fract_y
_atom_site_fract_z
Si Si1 0.438351 0.097222 0.456655
Si Si2 0.500000 0.521873 0.250000
Si Si3 0.208860 0.633503 0.935825
Si Si4 0.067523 0.060980 0.545592
Si Si5 0.000000 0.495280 0.750000
Si Si6 0.381252 0.240503 0.726257
Si Si7 0.303383 0.644229 0.428707
O O1 0.356189 0.045650 0.495737
O O2 0.427185 0.268923 0.487166
O O3 0.462875 0.091923 0.342784
O O4 0.500000 0.000000 0.500000
O O5 0.454343 0.437256 0.338421
O O6 0.560760 0.624249 0.292423
O O7 0.176946 0.717305 0.848171
O O8 0.261023 0.499171 0.893436
O O9 0.250000 0.750000 0.000000
O O10 0.133767 0.943465 0.521776
O O11 0.000000 0.000000 0.500000
O O12 0.934975 0.598444 0.719899
O O13 0.341702 0.265592 0.835610
O O14 0.250000 0.750000 0.500000
#
# Coordination Sequence:
#
# PCOD9296120 Si02
#       7
#     8   4   8   8   4   8   8
#     4  12  25  44  71 103 138 181 238 294 354 422
#     4   9  21  42  70  94 134 170 230 282 344 412
#     4  12  25  47  69 103 146 184 235 296 362 435
#     4  11  24  43  68 100 132 178 230 287 347 421
#     4  11  23  42  74 100 136 180 240 292 346 424
#     4  10  23  44  68 101 134 182 228 289 350 421
#     4  11  26  45  68 103 141 189 233 293 363 429
#
# _framework density 21.02863
#
# number of rings (size 3 to 8) (size 9 to 14) (size 15 to 20)
#    0.000    1.000    3.333    2.500    7.000    2.667 
#    3.000    0.000    0.000    0.000    0.000    0.000 
#    0.000    0.000    0.000    0.000    0.000    0.000 
#
# Total GULP energy -133903.235120 kJ/mol
# GULP energy per Si atom -5579.301463 kJ/mol
# Density = 2.098077 g / cm^3
# Si number density = 21.028630 Si / 1000 Ang^3
#
#
#
# Elastic Constant Matrix: (Units=GPa)
#
#
# Indices 1 2 3 4 5 6 
#
# 1 126.7381 41.5627 29.8098 0.0000 9.3796 0.0000
# 2 41.5627 95.8140 25.9307 0.0000 9.2932 0.0000
# 3 29.8098 25.9307 66.2126 0.0000 1.1672 0.0000
# 4 0.0000 0.0000 0.0000 28.2411 0.0000 -5.9823
# 5 9.3796 9.2932 1.1672 0.0000 52.3013 0.0000
# 6 0.0000 0.0000 0.0000 -5.9823 0.0000 35.4992
#
#
#
# Elastic Compliance Matrix: (Units=1/GPa)
#
#
# Indices 1 2 3 4 5 6 
#
# 1 0.009781 -0.003299 -0.003092 0.000000 -0.001099 0.000000
# 2 -0.003299 0.012994 -0.003575 0.000000 -0.001637 0.000000
# 3 -0.003092 -0.003575 0.017881 0.000000 0.000791 0.000000
# 4 0.000000 0.000000 0.000000 0.036720 0.000000 0.006188
# 5 -0.001099 -0.001637 0.000791 0.000000 0.019590 0.000000
# 6 0.000000 0.000000 0.000000 0.006188 0.000000 0.029212
#
#
# Mechanical properties :
#
#
# Convention : Reuss Voigt Hill
#
# Bulk Modulus (GPa) = 48.25302 53.70788 50.98045
# Shear Modulus (GPa) = 32.67562 35.97242 34.32402
#
# Velocity S-wave (km/s) = 3.94618 4.14048 4.04450
# Velocity P-wave (km/s) = 6.61508 6.96088 6.79018
#
# Compressibility (1/GPa) = 0.02072409
#
# Stress axis : x y z
#
# Youngs Moduli (GPa) = 102.24027 76.95641 55.92556
#
# Poissons Ratio (x) = 0.25391 0.17292
# Poissons Ratio (y) = 0.33733 0.19991
# Poissons Ratio (z) = 0.31612 0.27509
#
# Static dielectric constant tensor:
#      x y z
#    x 1.844670 0.000000 -0.051260 
#    y 0.000000 2.201930 0.000000 
#    z -0.051260 0.000000 1.826180 
# 
# From -- ./inp_files/159769.got.cif
#   From: 2010.05.17/outbox.cif.g08.bks.cpg/sg15_80_cif.got.tgz:159769.got - 2010.06.03 18:47:42.
