data_PCOD9296943
_publ_section_title
;
Structure prediction by ZEFSAII (Michael W. Deem and Ramdas Pophale) SiO2 
 PCOD9296943
Probable space group: C 2/C
;
_chemical_formula_sum "Si O2"
_cell_formula_units_Z 60
_cell_length_a 23.018646
_cell_length_b 8.878810
_cell_length_c 15.697666
_cell_angle_alpha 90.000000
_cell_angle_beta 48.476489
_cell_angle_gamma 90.000000
_cell_volume 2401.972500
_symmetry_space_group_name_H-M "C 2/C"
_symmetry_group_IT_number 15
_symmetry_cell_setting 'monoclinic'
loop_
_space_group_symop_operation_xyz
x,y,z
-x,y,1/2-z
-x,-y,-z
x,-y,1/2+z
1/2+x,1/2+y,z
1/2-x,1/2+y,1/2-z
1/2-x,1/2-y,-z
1/2+x,1/2-y,1/2+z
loop_
_atom_site_type_symbol
_atom_site_label
_atom_site_fract_x
_atom_site_fract_y
_atom_site_fract_z
Si Si1 0.601895 0.476996 0.667038
Si Si2 0.393983 0.159954 0.571454
Si Si3 0.970233 0.119100 0.597021
Si Si4 0.828471 0.263318 0.974886
Si Si5 0.867267 0.513477 0.813174
Si Si6 0.850854 0.656903 0.154061
Si Si7 0.000000 0.702908 0.750000
Si Si8 0.296758 0.715188 0.320058
O O1 0.545794 0.549915 0.794279
O O2 0.627050 0.606278 0.579046
O O3 0.566123 0.325735 0.659302
O O4 0.674752 0.424974 0.653208
O O5 0.469035 0.242939 0.462188
O O6 0.322333 0.196604 0.578792
O O7 0.365597 0.234705 0.687200
O O8 0.402130 0.980203 0.565688
O O9 0.892569 0.187163 0.631656
O O10 0.000000 0.000000 0.500000
O O11 0.871945 0.402349 0.888224
O O12 0.750000 0.250000 0.000000
O O13 0.841332 0.412840 0.758014
O O14 0.951360 0.597392 0.733169
O O15 0.800207 0.641082 0.879997
O O16 0.778696 0.682548 0.161834
#
# Coordination Sequence:
#
# PCOD9296943 Si02
#       8
#     8   8   8   8   8   8   4   8
#     4  11  23  46  70 100 143 184 234 298 359 423
#     4  11  25  41  67 104 136 179 237 291 352 427
#     4  12  25  41  69 102 134 179 233 290 347 415
#     4  12  25  43  71 104 138 183 242 295 364 432
#     4  10  24  42  73  97 141 190 230 288 368 427
#     4  11  24  44  70 100 141 180 238 293 352 426
#     4  10  24  44  66 100 140 190 230 280 362 434
#     4  10  23  46  73  99 136 189 237 297 358 416
#
# _framework density 24.979469999999999
#
# number of rings (size 3 to 8) (size 9 to 14) (size 15 to 20)
#    0.000    1.067    2.667    2.800    5.600    2.667 
#    0.000    6.000    0.000    0.000    0.000    0.000 
#    0.000    0.000    0.000    0.000    0.000    0.000 
#
# Total GULP energy -167709.328135 kJ/mol
# GULP energy per Si atom -5590.310938 kJ/mol
# Density = 2.492262 g / cm^3
# Si number density = 24.979470 Si / 1000 Ang^3
#
#
#
# Elastic Constant Matrix: (Units=GPa)
#
#
# Indices 1 2 3 4 5 6 
#
# 1 149.2300 28.9948 -2.6992 -0.0002 -6.0521 0.0002
# 2 28.9948 117.3463 21.9094 -0.0008 0.6707 0.0010
# 3 -2.6992 21.9094 24.4242 -0.0004 -2.0307 0.0005
# 4 -0.0002 -0.0008 -0.0004 28.1108 0.0002 -3.5177
# 5 -6.0521 0.6707 -2.0307 0.0002 27.0157 -0.0002
# 6 0.0002 0.0010 0.0005 -3.5177 -0.0002 50.9785
#
#
#
# Elastic Compliance Matrix: (Units=1/GPa)
#
#
# Indices 1 2 3 4 5 6 
#
# 1 0.007301 -0.002397 0.003118 0.000000 0.001930 0.000000
# 2 -0.002397 0.011048 -0.010307 0.000000 -0.001586 0.000000
# 3 0.003118 -0.010307 0.050931 0.000000 0.004783 0.000000
# 4 0.000000 0.000000 0.000000 0.035883 0.000000 0.002476
# 5 0.001930 -0.001586 0.004783 0.000000 0.037847 0.000000
# 6 0.000000 0.000000 0.000000 0.002476 0.000000 0.019787
#
#
# Mechanical properties :
#
#
# Convention : Reuss Voigt Hill
#
# Bulk Modulus (GPa) = 19.95720 43.04563 31.50141
# Shear Modulus (GPa) = 25.16710 37.40736 31.28723
#
# Velocity S-wave (km/s) = 3.17758 3.87398 3.54293
# Velocity P-wave (km/s) = 4.63351 6.10575 5.41985
#
# Compressibility (1/GPa) = 0.05010724
#
# Stress axis : x y z
#
# Youngs Moduli (GPa) = 136.95843 90.51775 19.63443
#
# Poissons Ratio (x) = 0.21699 -0.06122
# Poissons Ratio (y) = 0.32832 0.20237
# Poissons Ratio (z) = -0.42700 0.93296
#
# Static dielectric constant tensor:
#      x y z
#    x 2.007540 0.000000 -0.002650 
#    y 0.000000 2.010550 0.000000 
#    z -0.002650 0.000000 2.073260 
# 
# From -- ./inp_files/214291.got.cif
#   From: 2010.05.17/outbox.cif.g08.bks.cpg/sg15_108_cif.got.tgz:214291.got - 2010.06.03 18:47:42.
