data_PCOD9296577
_publ_section_title
;
Structure prediction by ZEFSAII (Michael W. Deem and Ramdas Pophale) SiO2 
 PCOD9296577
Probable space group: C 2/C
;
_chemical_formula_sum "Si O2"
_cell_formula_units_Z 44
_cell_length_a 8.825009
_cell_length_b 28.436776
_cell_length_c 9.580380
_cell_angle_alpha 90.000000
_cell_angle_beta 51.955814
_cell_angle_gamma 90.000000
_cell_volume 1893.426775
_symmetry_space_group_name_H-M "C 2/C"
_symmetry_group_IT_number 15
_symmetry_cell_setting 'monoclinic'
loop_
_space_group_symop_operation_xyz
x,y,z
-x,y,1/2-z
-x,-y,-z
x,-y,1/2+z
1/2+x,1/2+y,z
1/2-x,1/2+y,1/2-z
1/2-x,1/2-y,-z
1/2+x,1/2-y,1/2+z
loop_
_atom_site_type_symbol
_atom_site_label
_atom_site_fract_x
_atom_site_fract_y
_atom_site_fract_z
Si Si1 0.033513 0.816403 0.002264
Si Si2 0.500000 0.619525 0.250000
Si Si3 0.761534 0.538433 0.027239
Si Si4 0.218440 0.548849 0.798685
Si Si5 0.294219 0.844297 0.096709
Si Si6 0.056726 0.278499 0.067530
O O1 0.212395 0.834637 0.990210
O O2 0.851260 0.818294 0.211317
O O3 0.990796 0.848134 0.891713
O O4 0.067272 0.763798 0.927894
O O5 0.677805 0.583603 0.153330
O O6 0.710380 0.490096 0.133209
O O7 0.693016 0.542375 0.905749
O O8 0.991296 0.540914 0.904015
O O9 0.233722 0.601338 0.848617
O O10 0.508214 0.822727 0.996452
O O11 0.000000 0.297844 0.250000
O O12 0.250000 0.250000 0.000000
#
# Coordination Sequence:
#
# PCOD9296577 Si02
#       6
#     8   4   8   8   8   8
#     4  11  25  44  67 107 142 179 238 289 358 420
#     4  12  24  42  70 108 134 184 244 302 336 422
#     4  10  24  41  67  97 142 178 242 281 349 413
#     4  10  23  45  68  97 137 193 226 287 354 420
#     4  11  25  45  71  98 145 189 229 288 361 424
#     4  12  25  43  73 102 136 183 234 287 353 424
#
# _framework density 23.238289999999999
#
# number of rings (size 3 to 8) (size 9 to 14) (size 15 to 20)
#    0.000    1.091    4.545    0.545    7.636    2.182 
#    0.000    1.818    0.000    0.000    0.000    0.000 
#    0.000    0.000    0.000    0.000    0.000    0.000 
#
# Total GULP energy -122929.627783 kJ/mol
# GULP energy per Si atom -5587.710354 kJ/mol
# Density = 2.318540 g / cm^3
# Si number density = 23.238290 Si / 1000 Ang^3
#
#
#
# Elastic Constant Matrix: (Units=GPa)
#
#
# Indices 1 2 3 4 5 6 
#
# 1 113.2037 44.2338 24.2297 0.0000 24.9234 0.0000
# 2 44.2338 176.2671 28.1046 0.0000 31.2546 0.0000
# 3 24.2297 28.1046 53.5449 0.0000 17.4801 0.0000
# 4 0.0000 0.0000 0.0000 54.8866 0.0000 20.1047
# 5 24.9234 31.2546 17.4801 0.0000 39.2686 0.0000
# 6 0.0000 0.0000 0.0000 20.1047 0.0000 50.4701
#
#
#
# Elastic Compliance Matrix: (Units=1/GPa)
#
#
# Indices 1 2 3 4 5 6 
#
# 1 0.011013 -0.001523 -0.002689 0.000000 -0.004581 0.000000
# 2 -0.001523 0.007014 -0.001738 0.000000 -0.003842 0.000000
# 3 -0.002689 -0.001738 0.023162 0.000000 -0.007221 0.000000
# 4 0.000000 0.000000 0.000000 0.021332 0.000000 -0.008498
# 5 -0.004581 -0.003842 -0.007221 0.000000 0.034645 0.000000
# 6 0.000000 0.000000 0.000000 -0.008498 0.000000 0.023199
#
#
# Mechanical properties :
#
#
# Convention : Reuss Voigt Hill
#
# Bulk Modulus (GPa) = 34.14164 59.57243 46.85704
# Shear Modulus (GPa) = 35.20472 45.35491 40.27981
#
# Velocity S-wave (km/s) = 3.89645 4.42263 4.16785
# Velocity P-wave (km/s) = 5.91329 7.19519 6.58550
#
# Compressibility (1/GPa) = 0.02928975
#
# Stress axis : x y z
#
# Youngs Moduli (GPa) = 90.80497 142.57777 43.17406
#
# Poissons Ratio (x) = 0.21710 0.11608
# Poissons Ratio (y) = 0.13826 0.07504
# Poissons Ratio (z) = 0.24414 0.24780
#
# Static dielectric constant tensor:
#      x y z
#    x 1.928740 0.000000 -0.081870 
#    y 0.000000 1.813240 0.000000 
#    z -0.081870 0.000000 1.939700 
# 
# From -- ./inp_files/26009.got.cif
#   From: 2010.05.17/outbox.cif.g08.bks.cpg/sg15_14_cif.got.tgz:26009.got - 2010.06.03 18:47:42.
