data_PCOD9296005
_publ_section_title
;
Structure prediction by ZEFSAII (Michael W. Deem and Ramdas Pophale) SiO2 
 PCOD9296005
Probable space group: C 2/C
;
_chemical_formula_sum "Si O2"
_cell_formula_units_Z 28
_cell_length_a 16.345188
_cell_length_b 8.491243
_cell_length_c 15.034424
_cell_angle_alpha 90.000000
_cell_angle_beta 33.601569
_cell_angle_gamma 90.000000
_cell_volume 1154.777747
_symmetry_space_group_name_H-M "C 2/C"
_symmetry_group_IT_number 15
_symmetry_cell_setting 'monoclinic'
loop_
_space_group_symop_operation_xyz
x,y,z
-x,y,1/2-z
-x,-y,-z
x,-y,1/2+z
1/2+x,1/2+y,z
1/2-x,1/2+y,1/2-z
1/2-x,1/2-y,-z
1/2+x,1/2-y,1/2+z
loop_
_atom_site_type_symbol
_atom_site_label
_atom_site_fract_x
_atom_site_fract_y
_atom_site_fract_z
Si Si1 0.490249 0.144553 0.098062
Si Si2 0.000000 0.877181 0.250000
Si Si3 0.966828 0.305304 0.140128
Si Si4 0.249154 0.564662 0.422429
O O1 0.468136 0.269464 0.194409
O O2 0.399175 0.983105 0.198967
O O3 0.472064 0.211310 0.016045
O O4 0.657442 0.074572 0.956336
O O5 0.854698 0.981659 0.397354
O O6 0.857837 0.167419 0.263548
O O7 0.110778 0.324501 0.073736
#
# Coordination Sequence:
#
# PCOD9296005 Si02
#       4
#     8   4   8   8
#     4   9  23  43  68 102 130 180 219 283 326 400
#     4  12  24  42  66 104 142 168 224 278 344 386
#     4   9  22  45  69  96 133 176 236 259 339 394
#     4  10  23  44  65 102 129 182 215 283 330 396
#
# _framework density 24.247091000000001
#
# number of rings (size 3 to 8) (size 9 to 14) (size 15 to 20)
#    1.714    0.571    0.000    0.857    4.000    3.429 
#   10.286    0.000    0.000    0.000    0.000    0.000 
#    0.000    0.000    0.000    0.000    0.000    0.000 
#
# Total GULP energy -78094.729811 kJ/mol
# GULP energy per Si atom -5578.194986 kJ/mol
# Density = 2.419190 g / cm^3
# Si number density = 24.247091 Si / 1000 Ang^3
#
#
#
# Elastic Constant Matrix: (Units=GPa)
#
#
# Indices 1 2 3 4 5 6 
#
# 1 58.1776 17.9803 23.3235 0.0000 -7.2680 0.0000
# 2 17.9803 84.9662 34.3028 0.0000 15.8317 0.0000
# 3 23.3235 34.3028 76.9466 0.0000 -4.8194 0.0000
# 4 0.0000 0.0000 0.0000 52.9747 0.0000 -4.5018
# 5 -7.2680 15.8317 -4.8194 0.0000 37.0227 0.0000
# 6 0.0000 0.0000 0.0000 -4.5018 0.0000 28.8803
#
#
#
# Elastic Compliance Matrix: (Units=1/GPa)
#
#
# Indices 1 2 3 4 5 6 
#
# 1 0.020660 -0.003539 -0.004371 0.000000 0.005000 0.000000
# 2 -0.003539 0.017035 -0.007079 0.000000 -0.008900 0.000000
# 3 -0.004371 -0.007079 0.017757 0.000000 0.004480 0.000000
# 4 0.000000 0.000000 0.000000 0.019130 0.000000 0.002982
# 5 0.005000 -0.008900 0.004480 0.000000 0.032381 0.000000
# 6 0.000000 0.000000 0.000000 0.002982 0.000000 0.035091
#
#
# Mechanical properties :
#
#
# Convention : Reuss Voigt Hill
#
# Bulk Modulus (GPa) = 39.25642 41.25597 40.25619
# Shear Modulus (GPa) = 27.69732 33.40779 30.55256
#
# Velocity S-wave (km/s) = 3.38345 3.71591 3.55357
# Velocity P-wave (km/s) = 5.61150 5.95503 5.78582
#
# Compressibility (1/GPa) = 0.02547354
#
# Stress axis : x y z
#
# Youngs Moduli (GPa) = 48.40377 58.70427 56.31438
#
# Poissons Ratio (x) = 0.20773 0.24618
# Poissons Ratio (y) = 0.17128 0.39864
# Poissons Ratio (z) = 0.21160 0.41556
#
# Static dielectric constant tensor:
#      x y z
#    x 1.981250 0.000000 -0.033830 
#    y 0.000000 1.956180 0.000000 
#    z -0.033830 0.000000 1.909800 
# 
# From -- ./inp_files/53313.got.cif
#   From: 2010.05.17/outbox.cif.g08.bks.cpg/sg15_27_cif.got.tgz:53313.got - 2010.06.03 18:47:42.
