data_PCOD9296805
_publ_section_title
;
Structure prediction by ZEFSAII (Michael W. Deem and Ramdas Pophale) SiO2 
 PCOD9296805
Probable space group: C 2/C
;
_chemical_formula_sum "Si O2"
_cell_formula_units_Z 60
_cell_length_a 8.792163
_cell_length_b 12.967126
_cell_length_c 26.804241
_cell_angle_alpha 90.000000
_cell_angle_beta 66.608596
_cell_angle_gamma 90.000000
_cell_volume 2804.773193
_symmetry_space_group_name_H-M "C 2/C"
_symmetry_group_IT_number 15
_symmetry_cell_setting 'monoclinic'
loop_
_space_group_symop_operation_xyz
x,y,z
-x,y,1/2-z
-x,-y,-z
x,-y,1/2+z
1/2+x,1/2+y,z
1/2-x,1/2+y,1/2-z
1/2-x,1/2-y,-z
1/2+x,1/2-y,1/2+z
loop_
_atom_site_type_symbol
_atom_site_label
_atom_site_fract_x
_atom_site_fract_y
_atom_site_fract_z
Si Si1 0.706931 0.211879 0.317334
Si Si2 0.184981 0.337946 0.340185
Si Si3 0.114304 0.788087 0.945963
Si Si4 0.599180 0.911860 0.192701
Si Si5 0.000000 0.719719 0.250000
Si Si6 0.416276 0.477935 0.811444
Si Si7 0.519868 0.272466 0.064705
Si Si8 0.904604 0.999097 0.607440
O O1 0.773408 0.328141 0.300500
O O2 0.594414 0.174496 0.286095
O O3 0.609388 0.217748 0.382068
O O4 0.856094 0.134726 0.305098
O O5 0.108693 0.282785 0.398088
O O6 0.344482 0.276977 0.297820
O O7 0.259547 0.449784 0.343418
O O8 0.038549 0.351055 0.320108
O O9 0.301940 0.770631 0.941387
O O10 0.076697 0.903941 0.932423
O O11 0.002066 0.757541 0.007842
O O12 0.500000 0.966953 0.250000
O O13 0.709546 0.979987 0.141807
O O14 0.500000 0.520723 0.750000
O O15 0.529204 0.474724 0.845529
O O16 0.494696 0.395409 0.078269
#
# Coordination Sequence:
#
# PCOD9296805 Si02
#       8
#     8   8   8   8   4   8   8   8
#     4  11  24  42  66  96 133 174 221 271 330 401
#     4  12  23  42  65  98 131 175 216 270 332 399
#     4  11  23  43  71  94 130 177 222 275 335 396
#     4  11  22  40  65  98 135 169 221 269 330 405
#     4  12  22  42  64  92 138 174 212 274 334 384
#     4  12  25  41  63  98 140 175 213 271 339 397
#     4  10  23  46  67  97 131 172 225 282 326 395
#     4  11  24  45  67  98 129 178 221 275 340 397
#
# _framework density 21.392102999999999
#
# number of rings (size 3 to 8) (size 9 to 14) (size 15 to 20)
#    0.000    0.800    4.667    3.200    3.733    0.000 
#    2.400    8.000    0.000    0.000    0.000    0.000 
#    0.000    0.000    0.000    0.000    0.000    0.000 
#
# Total GULP energy -167589.296939 kJ/mol
# GULP energy per Si atom -5586.309898 kJ/mol
# Density = 2.134341 g / cm^3
# Si number density = 21.392103 Si / 1000 Ang^3
#
#
#
# Elastic Constant Matrix: (Units=GPa)
#
#
# Indices 1 2 3 4 5 6 
#
# 1 73.4431 8.0736 32.8397 0.0000 9.9432 0.0000
# 2 8.0736 61.7074 25.9379 0.0000 5.4482 0.0000
# 3 32.8397 25.9379 160.1040 0.0000 14.2955 0.0000
# 4 0.0000 0.0000 0.0000 19.0664 0.0000 5.7979
# 5 9.9432 5.4482 14.2955 0.0000 27.0380 0.0000
# 6 0.0000 0.0000 0.0000 5.7979 0.0000 22.2459
#
#
#
# Elastic Compliance Matrix: (Units=1/GPa)
#
#
# Indices 1 2 3 4 5 6 
#
# 1 0.015447 -0.000514 -0.002715 0.000000 -0.004141 0.000000
# 2 -0.000514 0.017523 -0.002556 0.000000 -0.001991 0.000000
# 3 -0.002715 -0.002556 0.007433 0.000000 -0.002416 0.000000
# 4 0.000000 0.000000 0.000000 0.056963 0.000000 -0.014846
# 5 -0.004141 -0.001991 -0.002416 0.000000 0.040187 0.000000
# 6 0.000000 0.000000 0.000000 -0.014846 0.000000 0.048821
#
#
# Mechanical properties :
#
#
# Convention : Reuss Voigt Hill
#
# Bulk Modulus (GPa) = 34.68295 47.66190 41.17242
# Shear Modulus (GPa) = 24.09006 28.89696 26.49351
#
# Velocity S-wave (km/s) = 3.35941 3.67934 3.52301
# Velocity P-wave (km/s) = 5.59425 6.35441 5.98641
#
# Compressibility (1/GPa) = 0.02883261
#
# Stress axis : x y z
#
# Youngs Moduli (GPa) = 64.73596 57.06869 134.54093
#
# Poissons Ratio (x) = 0.02934 0.36533
# Poissons Ratio (y) = 0.03328 0.34384
# Poissons Ratio (z) = 0.17579 0.14585
#
# Static dielectric constant tensor:
#      x y z
#    x 1.751180 0.000000 -0.002420 
#    y 0.000000 1.806380 0.000000 
#    z -0.002420 0.000000 1.776680 
# 
# From -- ./inp_files/264674.got.cif
#   From: 2010.05.17/outbox.cif.g08.bks.cpg/sg15_133_cif.got.tgz:264674.got - 2010.06.03 18:47:42.
