data_PCOD9296699
_publ_section_title
;
Structure prediction by ZEFSAII (Michael W. Deem and Ramdas Pophale) SiO2 
 PCOD9296699
Probable space group: C 2/C
;
_chemical_formula_sum "Si O2"
_cell_formula_units_Z 60
_cell_length_a 24.756569
_cell_length_b 12.002346
_cell_length_c 13.951225
_cell_angle_alpha 90.000000
_cell_angle_beta 146.880845
_cell_angle_gamma 90.000000
_cell_volume 2264.984949
_symmetry_space_group_name_H-M "C 2/C"
_symmetry_group_IT_number 15
_symmetry_cell_setting 'monoclinic'
loop_
_space_group_symop_operation_xyz
x,y,z
-x,y,1/2-z
-x,-y,-z
x,-y,1/2+z
1/2+x,1/2+y,z
1/2-x,1/2+y,1/2-z
1/2-x,1/2-y,-z
1/2+x,1/2-y,1/2+z
loop_
_atom_site_type_symbol
_atom_site_label
_atom_site_fract_x
_atom_site_fract_y
_atom_site_fract_z
Si Si1 0.316616 0.860366 0.172122
Si Si2 0.362078 0.505120 0.177004
Si Si3 0.488529 0.287540 0.890451
Si Si4 0.449957 0.193871 0.315615
Si Si5 0.500000 0.623862 0.750000
Si Si6 0.762615 0.675293 0.911873
Si Si7 0.819690 0.721160 0.390529
Si Si8 0.895854 0.477420 0.474565
O O1 0.398844 0.796561 0.231441
O O2 0.259870 0.766281 0.151823
O O3 0.362868 0.947086 0.317179
O O4 0.236429 0.927547 0.993693
O O5 0.439915 0.592555 0.335686
O O6 0.410952 0.452164 0.154411
O O7 0.328837 0.403583 0.194455
O O8 0.530498 0.224236 0.046208
O O9 0.583159 0.300455 0.962995
O O10 0.515256 0.288191 0.358453
O O11 0.337989 0.202646 0.111017
O O12 0.493720 0.072510 0.355956
O O13 0.731497 0.770317 0.790720
O O14 0.829975 0.598258 0.944724
O O15 0.869239 0.600431 0.467519
#
# Coordination Sequence:
#
# PCOD9296699 Si02
#       8
#     8   8   8   8   4   8   8   8
#     4  10  25  45  70 105 149 187 245 296 356 431
#     4  12  27  45  72 103 144 199 235 297 364 422
#     4  11  26  47  70 107 150 185 243 300 356 425
#     4  11  25  48  73 108 144 183 236 304 349 431
#     4  12  26  44  72 100 146 180 250 292 348 432
#     4  11  25  47  73 108 139 189 243 290 360 429
#     4  11  25  45  75 106 143 190 241 297 360 429
#     4  10  23  45  73 103 143 189 232 299 363 414
#
# _framework density 26.490244000000001
#
# number of rings (size 3 to 8) (size 9 to 14) (size 15 to 20)
#    0.000    1.067    1.333    2.800    5.600    6.400 
#    2.400    0.000    0.000    0.000    0.000    0.000 
#    0.000    0.000    0.000    0.000    0.000    0.000 
#
# Total GULP energy -168120.498667 kJ/mol
# GULP energy per Si atom -5604.016622 kJ/mol
# Density = 2.642995 g / cm^3
# Si number density = 26.490244 Si / 1000 Ang^3
#
#
#
# Elastic Constant Matrix: (Units=GPa)
#
#
# Indices 1 2 3 4 5 6 
#
# 1 73.3757 5.2362 16.4898 0.0000 22.0715 0.0000
# 2 5.2362 128.6724 33.5521 0.0000 9.7735 0.0000
# 3 16.4898 33.5521 115.6302 0.0000 17.2516 0.0000
# 4 0.0000 0.0000 0.0000 44.9668 0.0000 3.2261
# 5 22.0715 9.7735 17.2516 0.0000 44.1007 0.0000
# 6 0.0000 0.0000 0.0000 3.2261 0.0000 27.6564
#
#
#
# Elastic Compliance Matrix: (Units=1/GPa)
#
#
# Indices 1 2 3 4 5 6 
#
# 1 0.016198 0.000246 -0.001236 0.000000 -0.007678 0.000000
# 2 0.000246 0.008450 -0.002325 0.000000 -0.001086 0.000000
# 3 -0.001236 -0.002325 0.009908 0.000000 -0.002742 0.000000
# 4 0.000000 0.000000 0.000000 0.022426 0.000000 -0.002616
# 5 -0.007678 -0.001086 -0.002742 0.000000 0.027831 0.000000
# 6 0.000000 0.000000 0.000000 -0.002616 0.000000 0.036463
#
#
# Mechanical properties :
#
#
# Convention : Reuss Voigt Hill
#
# Bulk Modulus (GPa) = 35.80697 47.58162 41.69430
# Shear Modulus (GPa) = 36.43875 40.83813 38.63844
#
# Velocity S-wave (km/s) = 3.71287 3.93062 3.82329
# Velocity P-wave (km/s) = 5.65039 6.21294 5.93833
#
# Compressibility (1/GPa) = 0.02792752
#
# Stress axis : x y z
#
# Youngs Moduli (GPa) = 61.73521 118.33683 100.92555
#
# Poissons Ratio (x) = -0.02915 0.12474
# Poissons Ratio (y) = -0.01521 0.23466
# Poissons Ratio (z) = 0.07630 0.27514
#
# Static dielectric constant tensor:
#      x y z
#    x 2.144550 0.000000 -0.007980 
#    y 0.000000 2.061250 0.000000 
#    z -0.007980 0.000000 2.096370 
# 
# From -- ./inp_files/222581.got.cif
#   From: 2010.05.17/outbox.cif.g08.bks.cpg/sg15_112_cif.got.tgz:222581.got - 2010.06.03 18:47:42.
