data_PCOD9296024
_publ_section_title
;
Structure prediction by ZEFSAII (Michael W. Deem and Ramdas Pophale) SiO2 
 PCOD9296024
Probable space group: C 2/C
;
_chemical_formula_sum "Si O2"
_cell_formula_units_Z 64
_cell_length_a 17.557613
_cell_length_b 13.833032
_cell_length_c 17.343459
_cell_angle_alpha 90.000000
_cell_angle_beta 45.010512
_cell_angle_gamma 90.000000
_cell_volume 2979.087360
_symmetry_space_group_name_H-M "C 2/C"
_symmetry_group_IT_number 15
_symmetry_cell_setting 'monoclinic'
loop_
_space_group_symop_operation_xyz
x,y,z
-x,y,1/2-z
-x,-y,-z
x,-y,1/2+z
1/2+x,1/2+y,z
1/2-x,1/2+y,1/2-z
1/2-x,1/2-y,-z
1/2+x,1/2-y,1/2+z
loop_
_atom_site_type_symbol
_atom_site_label
_atom_site_fract_x
_atom_site_fract_y
_atom_site_fract_z
Si Si1 0.537792 0.699619 0.307450
Si Si2 0.348515 0.895998 0.331486
Si Si3 0.318785 0.342997 0.423755
Si Si4 0.947810 0.807222 0.181073
Si Si5 0.159867 0.492177 0.014494
Si Si6 0.430584 0.078740 0.190979
Si Si7 0.742329 0.889040 0.813054
Si Si8 0.367612 0.313181 0.066421
O O1 0.500000 0.662497 0.250000
O O2 0.585660 0.806989 0.253496
O O3 0.632407 0.635072 0.276973
O O4 0.446038 0.697263 0.437526
O O5 0.228018 0.886559 0.385806
O O6 0.347867 0.898244 0.424775
O O7 0.400638 0.999480 0.275802
O O8 0.250000 0.250000 0.500000
O O9 0.355410 0.339405 0.307500
O O10 0.434027 0.347137 0.383538
O O11 0.239654 0.431421 0.496824
O O12 0.953029 0.690924 0.192061
O O13 0.921139 0.832124 0.111568
O O14 0.217478 0.466896 0.894703
O O15 0.043338 0.536911 0.078363
O O16 0.324877 0.081283 0.213334
O O17 0.687897 0.790110 0.880830
#
# Coordination Sequence:
#
# PCOD9296024 Si02
#       8
#     8   8   8   8   8   8   8   8
#     4  11  22  43  68  92 135 175 216 269 334 401
#     4  11  24  39  68 100 129 170 223 276 327 390
#     4  11  23  42  69  95 131 175 220 272 332 400
#     4  10  24  44  65  96 132 177 218 270 338 398
#     4  12  23  40  67  96 127 168 223 278 329 385
#     4  11  22  41  66  94 129 162 221 280 320 392
#     4  10  24  41  61  97 127 169 218 270 328 393
#     4  10  23  44  65  95 135 177 215 269 342 397
#
# _framework density 21.483089
#
# number of rings (size 3 to 8) (size 9 to 14) (size 15 to 20)
#    0.000    1.250    1.250    4.500    3.500    7.000 
#    6.750    1.250    0.000    0.000    0.000    0.000 
#    0.000    0.000    0.000    0.000    0.000    0.000 
#
# Total GULP energy -178669.440082 kJ/mol
# GULP energy per Si atom -5583.420003 kJ/mol
# Density = 2.143419 g / cm^3
# Si number density = 21.483089 Si / 1000 Ang^3
#
#
#
# Elastic Constant Matrix: (Units=GPa)
#
#
# Indices 1 2 3 4 5 6 
#
# 1 133.0830 28.1115 40.9208 0.0000 -7.2345 0.0000
# 2 28.1115 30.1435 9.1438 0.0000 -7.4594 0.0000
# 3 40.9208 9.1438 108.0911 0.0000 -11.9966 0.0000
# 4 0.0000 0.0000 0.0000 -32.7957 0.0000 8.4675
# 5 -7.2345 -7.4594 -11.9966 0.0000 31.2627 0.0000
# 6 0.0000 0.0000 0.0000 8.4675 0.0000 12.9322
#
#
#
# Elastic Compliance Matrix: (Units=1/GPa)
#
#
# Indices 1 2 3 4 5 6 
#
# 1 0.010347 -0.008901 -0.003274 0.000000 -0.000985 0.000000
# 2 -0.008901 0.043393 0.000647 0.000000 0.008542 0.000000
# 3 -0.003274 0.000647 0.010830 0.000000 0.003553 0.000000
# 4 0.000000 0.000000 0.000000 -0.026082 0.000000 0.017078
# 5 -0.000985 0.008542 0.003553 0.000000 0.035160 0.000000
# 6 0.000000 0.000000 0.000000 0.017078 0.000000 0.066145
#
#
# Mechanical properties :
#
#
# Convention : Reuss Voigt Hill
#
# Bulk Modulus (GPa) = 24.08726 47.51888 35.80307
# Shear Modulus (GPa) = 28.29875 15.15593 21.72734
#
# Velocity S-wave (km/s) = 3.63334 2.65897 3.18365
# Velocity P-wave (km/s) = 5.37011 5.62086 5.49692
#
# Compressibility (1/GPa) = 0.04151572
#
# Stress axis : x y z
#
# Youngs Moduli (GPa) = 96.64438 23.04528 92.33293
#
# Poissons Ratio (x) = 0.20511 0.30227
# Poissons Ratio (y) = 0.86018 -0.05972
# Poissons Ratio (z) = 0.31638 -0.01491
#
# Static dielectric constant tensor:
#      x y z
#    x 1.885080 0.000000 0.024230 
#    y 0.000000 1.778590 0.000000 
#    z 0.024230 0.000000 1.777270 
# 
# From -- ./inp_files/211369.got.cif
#   From: 2010.05.17/outbox.cif.g08.bks.cpg/sg15_106_cif.got.tgz:211369.got - 2010.06.03 18:47:42.
