data_PCOD9296134
_publ_section_title
;
Structure prediction by ZEFSAII (Michael W. Deem and Ramdas Pophale) SiO2 
 PCOD9296134
Probable space group: C 2/C
;
_chemical_formula_sum "Si O2"
_cell_formula_units_Z 44
_cell_length_a 25.147587
_cell_length_b 9.203806
_cell_length_c 10.576151
_cell_angle_alpha 90.000000
_cell_angle_beta 135.400306
_cell_angle_gamma 90.000000
_cell_volume 1718.782228
_symmetry_space_group_name_H-M "C 2/C"
_symmetry_group_IT_number 15
_symmetry_cell_setting 'monoclinic'
loop_
_space_group_symop_operation_xyz
x,y,z
-x,y,1/2-z
-x,-y,-z
x,-y,1/2+z
1/2+x,1/2+y,z
1/2-x,1/2+y,1/2-z
1/2-x,1/2-y,-z
1/2+x,1/2-y,1/2+z
loop_
_atom_site_type_symbol
_atom_site_label
_atom_site_fract_x
_atom_site_fract_y
_atom_site_fract_z
Si Si1 0.689602 0.087556 0.023235
Si Si2 0.358634 0.389504 0.460675
Si Si3 0.500000 0.437831 0.250000
Si Si4 0.654919 0.458027 0.801946
Si Si5 0.387334 0.020433 0.360814
Si Si6 0.509047 0.747139 0.995375
O O1 0.775173 0.134099 0.135807
O O2 0.673785 0.010798 0.130204
O O3 0.647425 0.237379 0.981774
O O4 0.651911 0.001945 0.842642
O O5 0.441544 0.454137 0.588045
O O6 0.328410 0.492093 0.523877
O O7 0.331623 0.406775 0.271783
O O8 0.529337 0.336150 0.187019
O O9 0.574792 0.368520 0.655021
O O10 0.442798 0.163699 0.457703
O O11 0.441377 0.881766 0.470574
#
# Coordination Sequence:
#
# PCOD9296134 Si02
#       6
#     8   8   4   8   8   8
#     4  12  26  46  74 105 142 188 241 294 356 434
#     4  11  26  44  73 102 139 188 232 292 358 424
#     4  10  24  42  70 102 144 176 242 292 354 416
#     4  11  25  47  71 104 149 183 235 299 362 416
#     4  11  25  45  75 103 143 190 242 288 364 421
#     4  10  23  44  68 103 144 184 232 296 351 425
#
# _framework density 25.599519999999998
#
# number of rings (size 3 to 8) (size 9 to 14) (size 15 to 20)
#    0.000    1.091    1.818    2.727    7.636    3.636 
#    0.000    1.818    0.000    0.000    0.000    0.000 
#    0.000    0.000    0.000    0.000    0.000    0.000 
#
# Total GULP energy -122583.531808 kJ/mol
# GULP energy per Si atom -5571.978719 kJ/mol
# Density = 2.554125 g / cm^3
# Si number density = 25.599520 Si / 1000 Ang^3
#
#
#
# Elastic Constant Matrix: (Units=GPa)
#
#
# Indices 1 2 3 4 5 6 
#
# 1 188.8447 26.5886 47.7755 0.0000 -3.2614 0.0000
# 2 26.5886 76.3192 26.2227 0.0000 -2.6312 0.0000
# 3 47.7755 26.2227 83.1468 0.0000 -14.9478 0.0000
# 4 0.0000 0.0000 0.0000 34.0921 0.0000 -4.5317
# 5 -3.2614 -2.6312 -14.9478 0.0000 35.9832 0.0000
# 6 0.0000 0.0000 0.0000 -4.5317 0.0000 26.7761
#
#
#
# Elastic Compliance Matrix: (Units=1/GPa)
#
#
# Indices 1 2 3 4 5 6 
#
# 1 0.006301 -0.001038 -0.003463 0.000000 -0.000943 0.000000
# 2 -0.001038 0.014894 -0.004239 0.000000 -0.000766 0.000000
# 3 -0.003463 -0.004239 0.016471 0.000000 0.006219 0.000000
# 4 0.000000 0.000000 0.000000 0.030007 0.000000 0.005079
# 5 -0.000943 -0.000766 0.006219 0.000000 0.030232 0.000000
# 6 0.000000 0.000000 0.000000 0.005079 0.000000 0.038206
#
#
# Mechanical properties :
#
#
# Convention : Reuss Voigt Hill
#
# Bulk Modulus (GPa) = 49.53408 61.05381 55.29394
# Shear Modulus (GPa) = 31.18732 35.88522 33.53627
#
# Velocity S-wave (km/s) = 3.49417 3.74811 3.62337
# Velocity P-wave (km/s) = 5.97249 6.52936 6.25712
#
# Compressibility (1/GPa) = 0.02018812
#
# Stress axis : x y z
#
# Youngs Moduli (GPa) = 158.69793 67.13921 60.71138
#
# Poissons Ratio (x) = 0.06969 0.21024
# Poissons Ratio (y) = 0.16473 0.25733
# Poissons Ratio (z) = 0.54955 0.28458
#
# Static dielectric constant tensor:
#      x y z
#    x 2.109350 0.000000 0.002780 
#    y 0.000000 2.114420 0.000000 
#    z 0.002780 0.000000 2.203050 
# 
# From -- ./inp_files/122113.got.cif
#   From: 2010.05.17/outbox.cif.g08.bks.cpg/sg15_62_cif.got.tgz:122113.got - 2010.06.03 18:47:42.
