data_PCOD9296273
_publ_section_title
;
Structure prediction by ZEFSAII (Michael W. Deem and Ramdas Pophale) SiO2 
 PCOD9296273
Probable space group: C 2/C
;
_chemical_formula_sum "Si O2"
_cell_formula_units_Z 64
_cell_length_a 19.306535
_cell_length_b 7.225373
_cell_length_c 32.952299
_cell_angle_alpha 90.000000
_cell_angle_beta 143.545017
_cell_angle_gamma 90.000000
_cell_volume 2731.344057
_symmetry_space_group_name_H-M "C 2/C"
_symmetry_group_IT_number 15
_symmetry_cell_setting 'monoclinic'
loop_
_space_group_symop_operation_xyz
x,y,z
-x,y,1/2-z
-x,-y,-z
x,-y,1/2+z
1/2+x,1/2+y,z
1/2-x,1/2+y,1/2-z
1/2-x,1/2-y,-z
1/2+x,1/2-y,1/2+z
loop_
_atom_site_type_symbol
_atom_site_label
_atom_site_fract_x
_atom_site_fract_y
_atom_site_fract_z
Si Si1 0.832972 0.160330 0.946645
Si Si2 0.433258 0.247484 0.090988
Si Si3 0.533556 0.586288 0.566374
Si Si4 0.118450 0.495515 0.203316
Si Si5 0.124094 0.328538 0.293395
Si Si6 0.135364 0.887543 0.311049
Si Si7 0.193414 0.773098 0.674629
Si Si8 0.746042 0.463613 0.446786
O O1 0.720016 0.093149 0.869215
O O2 0.792921 0.331307 0.956329
O O3 0.923018 0.204704 0.951637
O O4 0.902877 0.994876 0.000787
O O5 0.536170 0.304691 0.109167
O O6 0.372650 0.425230 0.083288
O O7 0.498739 0.109509 0.152099
O O8 0.341940 0.136316 0.019869
O O9 0.613876 0.408132 0.610665
O O10 0.138336 0.378900 0.253508
O O11 0.114808 0.375134 0.160881
O O12 0.234465 0.619778 0.256768
O O13 0.000000 0.392807 0.250000
O O14 0.131384 0.108346 0.302033
O O15 0.206383 0.804203 0.307325
O O16 0.211068 0.866982 0.387822
O O17 0.000000 0.827183 0.250000
#
# Coordination Sequence:
#
# PCOD9296273 Si02
#       8
#     8   8   8   8   8   8   8   8
#     4  10  23  45  68 102 131 180 230 288 341 418
#     4  11  26  43  67 101 138 182 224 286 349 420
#     4  11  25  43  68 101 138 176 235 281 352 414
#     4  12  25  41  64 100 139 177 232 283 354 418
#     4  10  23  44  70  99 132 179 228 284 348 412
#     4  10  23  44  70  97 131 179 234 287 345 412
#     4  12  25  41  66  98 136 185 226 293 348 421
#     4  10  24  45  69  98 135 180 233 285 350 413
#
# _framework density 23.431685999999999
#
# number of rings (size 3 to 8) (size 9 to 14) (size 15 to 20)
#    0.000    1.250    1.250    3.000    7.000    7.500 
#    0.000    0.000    0.000    0.000    0.000    0.000 
#    0.000    0.000    0.000    0.000    0.000    0.000 
#
# Total GULP energy -178796.171304 kJ/mol
# GULP energy per Si atom -5587.380353 kJ/mol
# Density = 2.337835 g / cm^3
# Si number density = 23.431686 Si / 1000 Ang^3
#
#
#
# Elastic Constant Matrix: (Units=GPa)
#
#
# Indices 1 2 3 4 5 6 
#
# 1 82.6383 26.7421 17.9463 0.0000 -4.0956 0.0004
# 2 26.7421 60.5139 31.2478 0.0002 3.7128 0.0000
# 3 17.9463 31.2478 127.1042 0.0000 10.0815 -0.0001
# 4 0.0000 0.0002 0.0000 26.6204 -0.0001 -0.0681
# 5 -4.0956 3.7128 10.0815 -0.0001 33.3343 0.0001
# 6 0.0004 0.0000 -0.0001 -0.0681 0.0001 44.8591
#
#
#
# Elastic Compliance Matrix: (Units=1/GPa)
#
#
# Indices 1 2 3 4 5 6 
#
# 1 0.014379 -0.006140 -0.000733 0.000000 0.002672 0.000000
# 2 -0.006140 0.021567 -0.004288 0.000000 -0.001860 0.000000
# 3 -0.000733 -0.004288 0.009215 0.000000 -0.002400 0.000000
# 4 0.000000 0.000000 0.000000 0.037565 0.000000 0.000057
# 5 0.002672 -0.001860 -0.002400 0.000000 0.031260 0.000000
# 6 0.000000 0.000000 0.000000 0.000057 0.000000 0.022292
#
#
# Mechanical properties :
#
#
# Convention : Reuss Voigt Hill
#
# Bulk Modulus (GPa) = 43.78151 46.90319 45.34235
# Shear Modulus (GPa) = 30.08175 33.91742 31.99959
#
# Velocity S-wave (km/s) = 3.58691 3.80873 3.69949
# Velocity P-wave (km/s) = 5.98998 6.27713 6.13524
#
# Compressibility (1/GPa) = 0.02284069
#
# Stress axis : x y z
#
# Youngs Moduli (GPa) = 69.54367 46.36789 108.51382
#
# Poissons Ratio (x) = 0.28470 0.07951
# Poissons Ratio (y) = 0.42701 0.46526
# Poissons Ratio (z) = 0.05096 0.19881
#
# Static dielectric constant tensor:
#      x y z
#    x 1.896460 0.000000 0.000220 
#    y 0.000000 1.941530 0.000000 
#    z 0.000220 0.000000 1.895620 
# 
# From -- ./inp_files/315718.got.cif
#   From: 2010.05.17/outbox.cif.g08.bks.cpg/sg15_158_cif.got.tgz:315718.got - 2010.06.03 18:47:42.
