data_PCOD9296119
_publ_section_title
;
Structure prediction by ZEFSAII (Michael W. Deem and Ramdas Pophale) SiO2 
 PCOD9296119
Probable space group: C 2/C
;
_chemical_formula_sum "Si O2"
_cell_formula_units_Z 40
_cell_length_a 13.282649
_cell_length_b 18.178807
_cell_length_c 12.629448
_cell_angle_alpha 90.000000
_cell_angle_beta 147.336508
_cell_angle_gamma 90.000000
_cell_volume 1645.849393
_symmetry_space_group_name_H-M "C 2/C"
_symmetry_group_IT_number 15
_symmetry_cell_setting 'monoclinic'
loop_
_space_group_symop_operation_xyz
x,y,z
-x,y,1/2-z
-x,-y,-z
x,-y,1/2+z
1/2+x,1/2+y,z
1/2-x,1/2+y,1/2-z
1/2-x,1/2-y,-z
1/2+x,1/2-y,1/2+z
loop_
_atom_site_type_symbol
_atom_site_label
_atom_site_fract_x
_atom_site_fract_y
_atom_site_fract_z
Si Si1 0.597616 0.345053 0.231030
Si Si2 0.024906 0.683106 0.087693
Si Si3 0.402699 0.742667 0.073614
Si Si4 0.689105 0.968057 0.717934
Si Si5 0.948389 0.080855 0.033386
O O1 0.500000 0.371959 0.250000
O O2 0.819310 0.345448 0.427272
O O3 0.550850 0.258865 0.172358
O O4 0.542273 0.390506 0.079358
O O5 0.063987 0.706358 0.999803
O O6 0.150937 0.613711 0.227042
O O7 0.420602 0.655597 0.070548
O O8 0.144274 0.743889 0.840229
O O9 0.500000 0.000000 0.500000
O O10 0.777361 0.024108 0.881231
O O11 0.851720 0.957142 0.773043
#
# Coordination Sequence:
#
# PCOD9296119 Si02
#       5
#     8   8   8   8   8
#     4  11  22  41  70  97 132 170 229 282 336 391
#     4  11  22  40  67 102 133 178 223 283 337 405
#     4  11  22  40  70 102 137 175 230 280 341 403
#     4  11  22  42  72  90 141 183 218 274 352 400
#     4  10  23  44  68 101 134 180 224 282 334 408
#
# _framework density 24.303559
#
# number of rings (size 3 to 8) (size 9 to 14) (size 15 to 20)
#    0.000    1.200    2.000    6.600    0.000    0.000 
#    0.000    8.000   17.600    0.000    0.000    0.000 
#    0.000    0.000    0.000    0.000    0.000    0.000 
#
# Total GULP energy -111729.380298 kJ/mol
# GULP energy per Si atom -5586.469015 kJ/mol
# Density = 2.424824 g / cm^3
# Si number density = 24.303559 Si / 1000 Ang^3
#
#
#
# Elastic Constant Matrix: (Units=GPa)
#
#
# Indices 1 2 3 4 5 6 
#
# 1 125.6599 24.3794 30.4019 0.0000 7.6935 0.0000
# 2 24.3794 125.8560 38.0400 0.0000 -4.2026 0.0000
# 3 30.4019 38.0400 142.2652 0.0000 32.4692 0.0000
# 4 0.0000 0.0000 0.0000 36.3713 0.0000 16.5280
# 5 7.6935 -4.2026 32.4692 0.0000 41.0550 0.0000
# 6 0.0000 0.0000 0.0000 16.5280 0.0000 10.4223
#
#
#
# Elastic Compliance Matrix: (Units=1/GPa)
#
#
# Indices 1 2 3 4 5 6 
#
# 1 0.008571 -0.001280 -0.001334 0.000000 -0.000682 0.000000
# 2 -0.001280 0.009220 -0.003004 0.000000 0.003560 0.000000
# 3 -0.001334 -0.003004 0.009921 0.000000 -0.007904 0.000000
# 4 0.000000 0.000000 0.000000 0.098419 0.000000 -0.156075
# 5 -0.000682 0.003560 -0.007904 0.000000 0.031101 0.000000
# 6 0.000000 0.000000 0.000000 -0.156075 0.000000 0.343456
#
#
# Mechanical properties :
#
#
# Convention : Reuss Voigt Hill
#
# Bulk Modulus (GPa) = 60.69111 64.38041 62.53576
# Shear Modulus (GPa) = 9.66341 37.63371 23.64856
#
# Velocity S-wave (km/s) = 1.99619 3.93935 3.12276
# Velocity P-wave (km/s) = 5.50812 6.87306 6.22809
#
# Compressibility (1/GPa) = 0.01647688
#
# Stress axis : x y z
#
# Youngs Moduli (GPa) = 116.67610 108.45443 100.79211
#
# Poissons Ratio (x) = 0.13882 0.13441
# Poissons Ratio (y) = 0.14934 0.30282
# Poissons Ratio (z) = 0.15559 0.32584
#
# Static dielectric constant tensor:
#      x y z
#    x 0.375480 0.000000 -3.112590 
#    y 0.000000 1.940930 0.000000 
#    z -3.112590 0.000000 -3.916200 
# 
# From -- ./inp_files/253188.got.cif
#   From: 2010.05.17/outbox.cif.g08.bks.cpg/sg15_127_cif.got.tgz:253188.got - 2010.06.03 18:47:42.
