data_PCOD9296265
_publ_section_title
;
Structure prediction by ZEFSAII (Michael W. Deem and Ramdas Pophale) SiO2 
 PCOD9296265
Probable space group: C 2/C
;
_chemical_formula_sum "Si O2"
_cell_formula_units_Z 28
_cell_length_a 7.799785
_cell_length_b 19.474170
_cell_length_c 8.764681
_cell_angle_alpha 90.000000
_cell_angle_beta 125.755800
_cell_angle_gamma 90.000000
_cell_volume 1080.374104
_symmetry_space_group_name_H-M "C 2/C"
_symmetry_group_IT_number 15
_symmetry_cell_setting 'monoclinic'
loop_
_space_group_symop_operation_xyz
x,y,z
-x,y,1/2-z
-x,-y,-z
x,-y,1/2+z
1/2+x,1/2+y,z
1/2-x,1/2+y,1/2-z
1/2-x,1/2-y,-z
1/2+x,1/2-y,1/2+z
loop_
_atom_site_type_symbol
_atom_site_label
_atom_site_fract_x
_atom_site_fract_y
_atom_site_fract_z
Si Si1 0.598959 0.810907 0.469743
Si Si2 0.603006 0.595720 0.947610
Si Si3 0.714705 0.953038 0.455178
Si Si4 0.500000 0.817887 0.750000
O O1 0.500000 0.823872 0.250000
O O2 0.750000 0.750000 0.500000
O O3 0.673277 0.888845 0.543797
O O4 0.504148 0.784958 0.581632
O O5 0.712585 0.525853 0.940589
O O6 0.784014 0.638808 0.121299
O O7 0.500000 0.633605 0.750000
O O8 0.411344 0.573699 0.956435
O O9 0.500000 0.967350 0.250000
#
# Coordination Sequence:
#
# PCOD9296265 Si02
#       4
#     8   8   8   4
#     4  11  28  51  75 108 152 203 256 315 375 455
#     4  11  24  41  76 114 150 199 248 311 386 458
#     4  10  23  44  70 109 156 194 248 316 378 446
#     4  12  28  50  80 112 154 200 256 318 388 458
#
# _framework density 25.916951000000001
#
# number of rings (size 3 to 8) (size 9 to 14) (size 15 to 20)
#    0.000    1.143    1.429    3.429   12.000    3.429 
#    2.571    0.000    0.000    0.000    0.000    0.000 
#    0.000    0.000    0.000    0.000    0.000    0.000 
#
# Total GULP energy -78152.008476 kJ/mol
# GULP energy per Si atom -5582.286320 kJ/mol
# Density = 2.585796 g / cm^3
# Si number density = 25.916951 Si / 1000 Ang^3
#
#
#
# Elastic Constant Matrix: (Units=GPa)
#
#
# Indices 1 2 3 4 5 6 
#
# 1 130.2881 28.9971 83.9549 0.0000 -14.9433 0.0000
# 2 28.9971 57.5782 30.1590 0.0000 -3.9639 0.0000
# 3 83.9549 30.1590 188.0022 0.0000 -16.3959 0.0000
# 4 0.0000 0.0000 0.0000 -1.6521 0.0000 -7.1629
# 5 -14.9433 -3.9639 -16.3959 0.0000 66.5572 0.0000
# 6 0.0000 0.0000 0.0000 -7.1629 0.0000 37.4374
#
#
#
# Elastic Compliance Matrix: (Units=1/GPa)
#
#
# Indices 1 2 3 4 5 6 
#
# 1 0.011439 -0.003336 -0.004462 0.000000 0.001270 0.000000
# 2 -0.003336 0.019944 -0.001708 0.000000 0.000018 0.000000
# 3 -0.004462 -0.001708 0.007654 0.000000 0.000782 0.000000
# 4 0.000000 0.000000 0.000000 -0.330842 0.000000 -0.063300
# 5 0.001270 0.000018 0.000782 0.000000 0.015504 0.000000
# 6 0.000000 0.000000 0.000000 -0.063300 0.000000 0.014600
#
#
# Mechanical properties :
#
#
# Convention : Reuss Voigt Hill
#
# Bulk Modulus (GPa) = 49.94029 73.56561 61.75295
# Shear Modulus (GPa) = -21.18510 35.98565 7.40028
#
# Velocity S-wave (km/s) = -2.86216 3.73030 1.69162
# Velocity P-wave (km/s) = 2.89630 6.85567 5.26255
#
# Compressibility (1/GPa) = 0.02002391
#
# Stress axis : x y z
#
# Youngs Moduli (GPa) = 87.42164 50.14133 130.65165
#
# Poissons Ratio (x) = 0.16727 0.58300
# Poissons Ratio (y) = 0.29164 0.22316
# Poissons Ratio (z) = 0.39009 0.08564
#
# Static dielectric constant tensor:
#      x y z
#    x 2.059180 0.000000 -0.097240 
#    y 0.000000 2.258410 0.000000 
#    z -0.097240 0.000000 2.705810 
# 
# From -- ./inp_files/22465.got.cif
#   From: 2010.05.17/outbox.cif.g08.bks.cpg/sg15_12_cif.got.tgz:22465.got - 2010.06.03 18:47:42.
