data_PCOD9296528
_publ_section_title
;
Structure prediction by ZEFSAII (Michael W. Deem and Ramdas Pophale) SiO2 
 PCOD9296528
Probable space group: C 2/C
;
_chemical_formula_sum "Si O2"
_cell_formula_units_Z 44
_cell_length_a 5.723374
_cell_length_b 17.710826
_cell_length_c 18.113584
_cell_angle_alpha 90.000000
_cell_angle_beta 105.781608
_cell_angle_gamma 90.000000
_cell_volume 1766.884784
_symmetry_space_group_name_H-M "C 2/C"
_symmetry_group_IT_number 15
_symmetry_cell_setting 'monoclinic'
loop_
_space_group_symop_operation_xyz
x,y,z
-x,y,1/2-z
-x,-y,-z
x,-y,1/2+z
1/2+x,1/2+y,z
1/2-x,1/2+y,1/2-z
1/2-x,1/2-y,-z
1/2+x,1/2-y,1/2+z
loop_
_atom_site_type_symbol
_atom_site_label
_atom_site_fract_x
_atom_site_fract_y
_atom_site_fract_z
Si Si1 0.500000 0.028060 0.750000
Si Si2 0.793891 0.436033 0.990610
Si Si3 0.416654 0.606801 0.875284
Si Si4 0.282436 0.576089 0.174508
Si Si5 0.136162 0.757056 0.837089
Si Si6 0.638281 0.197776 0.554514
O O1 0.743384 0.072651 0.796373
O O2 0.431421 0.975197 0.813156
O O3 0.644114 0.444140 0.902099
O O4 0.642292 0.435027 0.052877
O O5 0.000000 0.500000 0.000000
O O6 0.922645 0.353331 0.001975
O O7 0.316833 0.691682 0.873866
O O8 0.699122 0.629811 0.893840
O O9 0.500000 0.565854 0.250000
O O10 0.231514 0.664794 0.168262
O O11 0.000000 0.736576 0.750000
O O12 0.946721 0.754540 0.888262
O O13 0.750000 0.250000 0.500000
#
# Coordination Sequence:
#
# PCOD9296528 Si02
#       6
#     4   8   8   8   8   8
#     4  12  26  44  70 114 146 194 244 300 376 446
#     4  11  24  45  67 105 145 186 241 294 369 436
#     4  11  24  45  75 104 147 190 248 306 362 443
#     4  11  26  44  71 101 152 192 241 301 369 446
#     4  10  23  45  67 106 143 189 247 304 361 442
#     4  11  25  44  76 105 138 193 252 306 363 439
#
# _framework density 24.902584000000001
#
# number of rings (size 3 to 8) (size 9 to 14) (size 15 to 20)
#    0.000    1.091    2.727    2.182    2.545   11.636 
#    0.000    0.000    0.000    0.000    0.000    0.000 
#    0.000    0.000    0.000    0.000    0.000    0.000 
#
# Total GULP energy -123001.619922 kJ/mol
# GULP energy per Si atom -5590.982724 kJ/mol
# Density = 2.484590 g / cm^3
# Si number density = 24.902584 Si / 1000 Ang^3
#
#
#
# Elastic Constant Matrix: (Units=GPa)
#
#
# Indices 1 2 3 4 5 6 
#
# 1 44.2865 35.5778 27.6127 0.0000 -2.7193 0.0000
# 2 35.5778 129.9897 27.7834 0.0000 -10.1182 0.0000
# 3 27.6127 27.7834 164.8612 0.0000 9.2948 0.0000
# 4 0.0000 0.0000 0.0000 31.8035 0.0000 -15.3763
# 5 -2.7193 -10.1182 9.2948 0.0000 36.9947 0.0000
# 6 0.0000 0.0000 0.0000 -15.3763 0.0000 30.1191
#
#
#
# Elastic Compliance Matrix: (Units=1/GPa)
#
#
# Indices 1 2 3 4 5 6 
#
# 1 0.031274 -0.007603 -0.004026 0.000000 0.001231 0.000000
# 2 -0.007603 0.010075 -0.000556 0.000000 0.002336 0.000000
# 3 -0.004026 -0.000556 0.006958 0.000000 -0.002196 0.000000
# 4 0.000000 0.000000 0.000000 0.041747 0.000000 0.021313
# 5 0.001231 0.002336 -0.002196 0.000000 0.028312 0.000000
# 6 0.000000 0.000000 0.000000 0.021313 0.000000 0.044082
#
#
# Mechanical properties :
#
#
# Convention : Reuss Voigt Hill
#
# Bulk Modulus (GPa) = 41.77918 57.89834 49.83876
# Shear Modulus (GPa) = 25.66766 36.32769 30.99768
#
# Velocity S-wave (km/s) = 3.21397 3.82356 3.53194
# Velocity P-wave (km/s) = 5.53049 6.54165 6.05721
#
# Compressibility (1/GPa) = 0.02393537
#
# Stress axis : x y z
#
# Youngs Moduli (GPa) = 31.97505 99.25918 143.72799
#
# Poissons Ratio (x) = 0.75470 0.57868
# Poissons Ratio (y) = 0.24312 0.07992
# Poissons Ratio (z) = 0.12874 0.05519
#
# Static dielectric constant tensor:
#      x y z
#    x 2.092900 0.000000 0.062090 
#    y 0.000000 1.996480 0.000000 
#    z 0.062090 0.000000 1.962410 
# 
# From -- ./inp_files/184986.got.cif
#   From: 2010.05.17/outbox.cif.g08.bks.cpg/sg15_93_cif.got.tgz:184986.got - 2010.06.03 18:47:42.
