data_PCOD9296324
_publ_section_title
;
Structure prediction by ZEFSAII (Michael W. Deem and Ramdas Pophale) SiO2 
 PCOD9296324
Probable space group: C 2/C
;
_chemical_formula_sum "Si O2"
_cell_formula_units_Z 44
_cell_length_a 13.781543
_cell_length_b 17.750300
_cell_length_c 8.626485
_cell_angle_alpha 90.000000
_cell_angle_beta 106.621438
_cell_angle_gamma 90.000000
_cell_volume 2022.090815
_symmetry_space_group_name_H-M "C 2/C"
_symmetry_group_IT_number 15
_symmetry_cell_setting 'monoclinic'
loop_
_space_group_symop_operation_xyz
x,y,z
-x,y,1/2-z
-x,-y,-z
x,-y,1/2+z
1/2+x,1/2+y,z
1/2-x,1/2+y,1/2-z
1/2-x,1/2-y,-z
1/2+x,1/2-y,1/2+z
loop_
_atom_site_type_symbol
_atom_site_label
_atom_site_fract_x
_atom_site_fract_y
_atom_site_fract_z
Si Si1 0.393118 0.590887 0.886414
Si Si2 0.500000 0.856210 0.250000
Si Si3 0.103583 0.485605 0.450769
Si Si4 0.693842 0.895537 0.767324
Si Si5 0.641138 0.239537 0.037119
Si Si6 0.630663 0.558656 0.965759
O O1 0.385706 0.675968 0.933061
O O2 0.341567 0.579255 0.696166
O O3 0.350175 0.528459 0.983209
O O4 0.511755 0.572595 0.925372
O O5 0.588459 0.920782 0.311374
O O6 0.548594 0.799241 0.398957
O O7 0.176551 0.449065 0.611532
O O8 0.135429 0.562635 0.381642
O O9 0.000000 0.500000 0.500000
O O10 0.656959 0.814380 0.693497
O O11 0.808177 0.893800 0.880016
O O12 0.750000 0.250000 0.000000
#
# Coordination Sequence:
#
# PCOD9296324 Si02
#       6
#     8   4   8   8   8   8
#     4  10  24  45  67  99 136 178 234 279 353 396
#     4  10  24  42  64  96 140 186 222 284 356 408
#     4  11  21  43  68 104 133 182 230 287 343 425
#     4  11  24  41  71 102 134 182 233 282 355 416
#     4  11  28  44  66 104 142 188 227 293 360 420
#     4  10  23  44  71  97 132 180 232 288 324 428
#
# _framework density 21.759656
#
# number of rings (size 3 to 8) (size 9 to 14) (size 15 to 20)
#    0.000    1.455    1.818    1.091   10.182    3.636 
#   13.091    0.000    0.000    0.000    0.000    0.000 
#    0.000    0.000    0.000    0.000    0.000    0.000 
#
# Total GULP energy -122617.218838 kJ/mol
# GULP energy per Si atom -5573.509947 kJ/mol
# Density = 2.171013 g / cm^3
# Si number density = 21.759656 Si / 1000 Ang^3
#
#
#
# Elastic Constant Matrix: (Units=GPa)
#
#
# Indices 1 2 3 4 5 6 
#
# 1 35.5068 -2.9739 28.5940 0.0000 2.1945 0.0000
# 2 -2.9739 155.5780 44.1115 0.0000 -0.7920 0.0000
# 3 28.5940 44.1115 117.8688 0.0000 35.8406 0.0000
# 4 0.0000 0.0000 0.0000 36.9335 0.0000 -6.5158
# 5 2.1945 -0.7920 35.8406 0.0000 45.0523 0.0000
# 6 0.0000 0.0000 0.0000 -6.5158 0.0000 20.1109
#
#
#
# Elastic Compliance Matrix: (Units=1/GPa)
#
#
# Indices 1 2 3 4 5 6 
#
# 1 0.039497 0.004858 -0.014300 0.000000 0.009537 0.000000
# 2 0.004858 0.008107 -0.005519 0.000000 0.004296 0.000000
# 3 -0.014300 -0.005519 0.018251 0.000000 -0.013920 0.000000
# 4 0.000000 0.000000 0.000000 0.028717 0.000000 0.009304
# 5 0.009537 0.004296 -0.013920 0.000000 0.032881 0.000000
# 6 0.000000 0.000000 0.000000 0.009304 0.000000 0.052739
#
#
# Mechanical properties :
#
#
# Convention : Reuss Voigt Hill
#
# Bulk Modulus (GPa) = 27.82915 49.82408 38.82662
# Shear Modulus (GPa) = 22.51332 36.36749 29.44040
#
# Velocity S-wave (km/s) = 3.22006 4.09262 3.68228
# Velocity P-wave (km/s) = 5.16161 6.72903 5.99675
#
# Compressibility (1/GPa) = 0.03593355
#
# Stress axis : x y z
#
# Youngs Moduli (GPa) = 25.31861 123.34744 54.79152
#
# Poissons Ratio (x) = -0.59922 0.78350
# Poissons Ratio (y) = -0.12300 0.30239
# Poissons Ratio (z) = 0.36205 0.68075
#
# Static dielectric constant tensor:
#      x y z
#    x 1.873130 0.000000 -0.002340 
#    y 0.000000 1.755220 0.000000 
#    z -0.002340 0.000000 1.820690 
# 
# From -- ./inp_files/39284.got.cif
#   From: 2010.05.17/outbox.cif.g08.bks.cpg/sg15_20_cif.got.tgz:39284.got - 2010.06.03 18:47:42.
