data_PCOD9296621
_publ_section_title
;
Structure prediction by ZEFSAII (Michael W. Deem and Ramdas Pophale) SiO2 
 PCOD9296621
Probable space group: C 2/C
;
_chemical_formula_sum "Si O2"
_cell_formula_units_Z 52
_cell_length_a 14.047459
_cell_length_b 12.103559
_cell_length_c 15.230912
_cell_angle_alpha 90.000000
_cell_angle_beta 55.061948
_cell_angle_gamma 90.000000
_cell_volume 2122.900810
_symmetry_space_group_name_H-M "C 2/C"
_symmetry_group_IT_number 15
_symmetry_cell_setting 'monoclinic'
loop_
_space_group_symop_operation_xyz
x,y,z
-x,y,1/2-z
-x,-y,-z
x,-y,1/2+z
1/2+x,1/2+y,z
1/2-x,1/2+y,1/2-z
1/2-x,1/2-y,-z
1/2+x,1/2-y,1/2+z
loop_
_atom_site_type_symbol
_atom_site_label
_atom_site_fract_x
_atom_site_fract_y
_atom_site_fract_z
Si Si1 0.238610 0.258357 0.900860
Si Si2 0.263961 0.481152 0.171594
Si Si3 0.025823 0.504960 0.382650
Si Si4 0.253449 0.283934 0.598821
Si Si5 0.510545 0.774285 0.428393
Si Si6 0.421871 0.427547 0.716849
Si Si7 0.000000 0.322596 0.750000
O O1 0.102563 0.279302 0.950528
O O2 0.321505 0.351019 0.814670
O O3 0.264021 0.136412 0.852503
O O4 0.250000 0.250000 0.000000
O O5 0.275506 0.584396 0.099461
O O6 0.160676 0.514998 0.291027
O O7 0.376206 0.483220 0.173113
O O8 0.995505 0.379133 0.372597
O O9 0.970984 0.596570 0.348416
O O10 0.000000 0.500000 0.500000
O O11 0.250000 0.250000 0.500000
O O12 0.362587 0.226748 0.591604
O O13 0.122227 0.261903 0.703711
O O14 0.505528 0.661473 0.377182
O O15 0.500000 0.478827 0.750000
#
# Coordination Sequence:
#
# PCOD9296621 Si02
#       7
#     8   8   8   8   8   8   4
#     4  12  25  45  75 106 144 199 249 303 376 445
#     4  10  25  46  69 106 150 188 251 309 373 451
#     4  11  22  42  72 104 141 186 251 305 366 431
#     4  10  23  45  70 102 149 188 243 305 377 435
#     4  11  24  41  70 101 144 187 244 304 363 440
#     4  11  23  45  69 104 148 191 244 308 369 446
#     4  10  24  42  78 106 136 198 244 306 368 446
#
# _framework density 24.494785
#
# number of rings (size 3 to 8) (size 9 to 14) (size 15 to 20)
#    0.000    1.231    3.077    1.846    5.385    4.923 
#    2.769    0.000    0.000    0.000    0.000    0.000 
#    0.000    0.000    0.000    0.000    0.000    0.000 
#
# Total GULP energy -145360.545908 kJ/mol
# GULP energy per Si atom -5590.790227 kJ/mol
# Density = 2.443903 g / cm^3
# Si number density = 24.494785 Si / 1000 Ang^3
#
#
#
# Elastic Constant Matrix: (Units=GPa)
#
#
# Indices 1 2 3 4 5 6 
#
# 1 149.6044 23.3979 35.7978 0.0000 0.5856 0.0000
# 2 23.3979 66.2493 35.3742 0.0000 7.5813 0.0000
# 3 35.7978 35.3742 114.7304 0.0000 10.7516 0.0000
# 4 0.0000 0.0000 0.0000 32.3163 0.0000 3.4020
# 5 0.5856 7.5813 10.7516 0.0000 48.4740 0.0000
# 6 0.0000 0.0000 0.0000 3.4020 0.0000 16.9609
#
#
#
# Elastic Compliance Matrix: (Units=1/GPa)
#
#
# Indices 1 2 3 4 5 6 
#
# 1 0.007387 -0.001695 -0.001837 0.000000 0.000583 0.000000
# 2 -0.001695 0.018584 -0.005035 0.000000 -0.001769 0.000000
# 3 -0.001837 -0.005035 0.010994 0.000000 -0.001629 0.000000
# 4 0.000000 0.000000 0.000000 0.031612 0.000000 -0.006341
# 5 0.000583 -0.001769 -0.001629 0.000000 0.021261 0.000000
# 6 0.000000 0.000000 0.000000 -0.006341 0.000000 0.060231
#
#
# Mechanical properties :
#
#
# Convention : Reuss Voigt Hill
#
# Bulk Modulus (GPa) = 50.42555 57.74708 54.08632
# Shear Modulus (GPa) = 28.76661 35.28452 32.02557
#
# Velocity S-wave (km/s) = 3.43067 3.79950 3.61978
# Velocity P-wave (km/s) = 6.02690 6.54788 6.29278
#
# Compressibility (1/GPa) = 0.01983122
#
# Stress axis : x y z
#
# Youngs Moduli (GPa) = 135.38036 53.80916 90.95539
#
# Poissons Ratio (x) = 0.09119 0.16707
# Poissons Ratio (y) = 0.22943 0.45800
# Poissons Ratio (z) = 0.24868 0.27095
#
# Static dielectric constant tensor:
#      x y z
#    x 2.064180 0.000000 -0.020810 
#    y 0.000000 1.995580 0.000000 
#    z -0.020810 0.000000 1.951750 
# 
# From -- ./inp_files/152537.got.cif
#   From: 2010.05.17/outbox.cif.g08.bks.cpg/sg15_77_cif.got.tgz:152537.got - 2010.06.03 18:47:42.
