data_PCOD9296139
_publ_section_title
;
Structure prediction by ZEFSAII (Michael W. Deem and Ramdas Pophale) SiO2 
 PCOD9296139
Probable space group: C 2/C
;
_chemical_formula_sum "Si O2"
_cell_formula_units_Z 36
_cell_length_a 10.124822
_cell_length_b 17.051459
_cell_length_c 9.303711
_cell_angle_alpha 90.000000
_cell_angle_beta 66.279360
_cell_angle_gamma 90.000000
_cell_volume 1470.523321
_symmetry_space_group_name_H-M "C 2/C"
_symmetry_group_IT_number 15
_symmetry_cell_setting 'monoclinic'
loop_
_space_group_symop_operation_xyz
x,y,z
-x,y,1/2-z
-x,-y,-z
x,-y,1/2+z
1/2+x,1/2+y,z
1/2-x,1/2+y,1/2-z
1/2-x,1/2-y,-z
1/2+x,1/2-y,1/2+z
loop_
_atom_site_type_symbol
_atom_site_label
_atom_site_fract_x
_atom_site_fract_y
_atom_site_fract_z
Si Si1 0.732012 0.899454 0.617618
Si Si2 0.286084 0.964219 0.183202
Si Si3 0.250000 0.750000 0.500000
Si Si4 0.436009 0.636097 0.551359
Si Si5 0.000000 0.650195 0.750000
Si Si6 0.500000 0.769232 0.750000
O O1 0.723617 0.954696 0.481874
O O2 0.630089 0.824395 0.641118
O O3 0.898908 0.877200 0.558392
O O4 0.680400 0.949430 0.775742
O O5 0.138265 0.933676 0.325183
O O6 0.407073 0.904802 0.186632
O O7 0.337369 0.663573 0.464740
O O8 0.106366 0.705732 0.617170
O O9 0.432595 0.712795 0.658235
#
# Coordination Sequence:
#
# PCOD9296139 Si02
#       6
#     8   8   4   8   4   4
#     4  12  26  45  74 107 149 198 254 307 383 451
#     4  11  25  47  71 106 151 198 249 310 379 455
#     4  10  24  40  70 106 146 190 244 320 374 454
#     4  11  24  45  70 105 144 191 251 310 377 452
#     4  10  23  44  68 105 154 190 252 314 387 450
#     4  12  25  42  78 103 144 196 248 314 371 452
#
# _framework density 24.481079000000001
#
# number of rings (size 3 to 8) (size 9 to 14) (size 15 to 20)
#    0.000    0.889    2.222    3.333    6.222    7.111 
#    0.000    0.000    0.000    0.000    0.000    0.000 
#    0.000    0.000    0.000    0.000    0.000    0.000 
#
# Total GULP energy -100423.984201 kJ/mol
# GULP energy per Si atom -5579.110233 kJ/mol
# Density = 2.442536 g / cm^3
# Si number density = 24.481079 Si / 1000 Ang^3
#
#
#
# Elastic Constant Matrix: (Units=GPa)
#
#
# Indices 1 2 3 4 5 6 
#
# 1 58.3088 -0.3486 30.5911 0.0000 -24.0142 0.0000
# 2 -0.3486 56.0976 6.3518 0.0000 16.3819 0.0000
# 3 30.5911 6.3518 50.0957 0.0000 -12.9886 0.0000
# 4 0.0000 0.0000 0.0000 43.4739 0.0000 12.0700
# 5 -24.0142 16.3819 -12.9886 0.0000 43.7305 0.0000
# 6 0.0000 0.0000 0.0000 12.0700 0.0000 24.9595
#
#
#
# Elastic Compliance Matrix: (Units=1/GPa)
#
#
# Indices 1 2 3 4 5 6 
#
# 1 0.030271 -0.001894 -0.014898 0.000000 0.012908 0.000000
# 2 -0.001894 0.021287 -0.004203 0.000000 -0.010263 0.000000
# 3 -0.014898 -0.004203 0.030206 0.000000 0.002365 0.000000
# 4 0.000000 0.000000 0.000000 0.026570 0.000000 -0.012849
# 5 0.012908 -0.010263 0.002365 0.000000 0.034503 0.000000
# 6 0.000000 0.000000 0.000000 -0.012849 0.000000 0.046278
#
#
# Mechanical properties :
#
#
# Convention : Reuss Voigt Hill
#
# Bulk Modulus (GPa) = 25.14327 26.41008 25.77667
# Shear Modulus (GPa) = 20.46135 30.95996 25.71066
#
# Velocity S-wave (km/s) = 2.89416 3.56005 3.24423
# Velocity P-wave (km/s) = 4.63260 5.26403 4.95838
#
# Compressibility (1/GPa) = 0.03977208
#
# Stress axis : x y z
#
# Youngs Moduli (GPa) = 33.03510 46.97627 33.10655
#
# Poissons Ratio (x) = 0.08899 0.49323
# Poissons Ratio (y) = 0.06258 0.13916
# Poissons Ratio (z) = 0.49216 0.19746
#
# Static dielectric constant tensor:
#      x y z
#    x 7.526190 0.000000 3.108900 
#    y 0.000000 1.909670 0.000000 
#    z 3.108900 0.000000 3.608940 
# 
# From -- ./inp_files/87056.got.cif
#   From: 2010.05.17/outbox.cif.g08.bks.cpg/sg15_44_cif.got.tgz:87056.got - 2010.06.03 18:47:42.
