data_PCOD9296044
_publ_section_title
;
Structure prediction by ZEFSAII (Michael W. Deem and Ramdas Pophale) SiO2 
 PCOD9296044
Probable space group: C 2/C
;
_chemical_formula_sum "Si O2"
_cell_formula_units_Z 40
_cell_length_a 7.344156
_cell_length_b 16.392731
_cell_length_c 22.225724
_cell_angle_alpha 90.000000
_cell_angle_beta 39.214504
_cell_angle_gamma 90.000000
_cell_volume 1691.691236
_symmetry_space_group_name_H-M "C 2/C"
_symmetry_group_IT_number 15
_symmetry_cell_setting 'monoclinic'
loop_
_space_group_symop_operation_xyz
x,y,z
-x,y,1/2-z
-x,-y,-z
x,-y,1/2+z
1/2+x,1/2+y,z
1/2-x,1/2+y,1/2-z
1/2-x,1/2-y,-z
1/2+x,1/2-y,1/2+z
loop_
_atom_site_type_symbol
_atom_site_label
_atom_site_fract_x
_atom_site_fract_y
_atom_site_fract_z
Si Si1 0.757582 0.077533 0.136986
Si Si2 0.531570 0.146570 0.398328
Si Si3 0.000000 0.011593 0.250000
Si Si4 0.839690 0.338762 0.503195
Si Si5 0.988640 0.583408 0.661935
Si Si6 0.500000 0.774436 0.250000
O O1 0.500000 0.095190 0.250000
O O2 0.721518 0.125768 0.082902
O O3 0.046841 0.111159 0.091783
O O4 0.717181 0.983103 0.127738
O O5 0.479557 0.166366 0.481366
O O6 0.719954 0.218496 0.321525
O O7 0.744835 0.068304 0.339966
O O8 0.826447 0.956032 0.247457
O O9 0.750000 0.250000 0.500000
O O10 0.986513 0.393179 0.414153
O O11 0.017707 0.667096 0.688913
#
# Coordination Sequence:
#
# PCOD9296044 Si02
#       6
#     8   8   4   8   8   4
#     4  11  24  44  70  93 129 180 217 262 329 389
#     4  10  23  44  66  92 130 175 218 263 327 389
#     4   9  22  42  66  95 124 176 216 261 318 392
#     4  12  25  43  65 101 135 166 219 277 322 380
#     4  11  23  41  66  97 130 169 222 270 321 384
#     4  11  20  40  64  93 128 168 216 273 318 388
#
# _framework density 23.644978999999999
#
# number of rings (size 3 to 8) (size 9 to 14) (size 15 to 20)
#    0.000    1.200    3.000    4.200    0.000    5.600 
#    3.600    0.000    0.000    0.000    0.000    0.000 
#    0.000    0.000    0.000    0.000    0.000    0.000 
#
# Total GULP energy -111868.308310 kJ/mol
# GULP energy per Si atom -5593.415415 kJ/mol
# Density = 2.359116 g / cm^3
# Si number density = 23.644979 Si / 1000 Ang^3
#
#
#
# Elastic Constant Matrix: (Units=GPa)
#
#
# Indices 1 2 3 4 5 6 
#
# 1 87.7130 14.2545 6.1737 -0.0065 27.1289 0.0088
# 2 14.2545 120.3951 3.7187 -0.0132 0.8303 -0.0092
# 3 6.1737 3.7187 60.9350 -0.0262 21.1447 -0.0021
# 4 -0.0065 -0.0132 -0.0262 12.3715 0.0103 2.8710
# 5 27.1289 0.8303 21.1447 0.0103 43.6436 -0.0119
# 6 0.0088 -0.0092 -0.0021 2.8710 -0.0119 27.0147
#
#
#
# Elastic Compliance Matrix: (Units=1/GPa)
#
#
# Indices 1 2 3 4 5 6 
#
# 1 0.014660 -0.001732 0.002129 0.000022 -0.010111 -0.000012
# 2 -0.001732 0.008527 -0.000796 0.000005 0.001300 0.000003
# 3 0.002129 -0.000796 0.020072 0.000054 -0.011033 -0.000010
# 4 0.000022 0.000005 0.000054 0.082875 -0.000062 -0.008808
# 5 -0.010111 0.001300 -0.011033 -0.000062 0.034518 0.000025
# 6 -0.000012 0.000003 -0.000010 -0.008808 0.000025 0.037953
#
#
# Mechanical properties :
#
#
# Convention : Reuss Voigt Hill
#
# Bulk Modulus (GPa) = 23.55087 35.25967 29.40527
# Shear Modulus (GPa) = 23.41301 32.93238 28.17269
#
# Velocity S-wave (km/s) = 3.15014 3.73605 3.45554
# Velocity P-wave (km/s) = 4.81799 5.79269 5.32768
#
# Compressibility (1/GPa) = 0.04246127
#
# Stress axis : x y z
#
# Youngs Moduli (GPa) = 68.21452 117.27959 49.81984
#
# Poissons Ratio (x) = 0.20309 -0.10607
# Poissons Ratio (y) = 0.11813 0.03965
# Poissons Ratio (z) = -0.14523 0.09335
#
# Static dielectric constant tensor:
#      x y z
#    x 1.996330 0.000050 0.153000 
#    y 0.000050 1.878410 0.000070 
#    z 0.153000 0.000070 2.071800 
# 
# From -- ./inp_files/188722.got.cif
#   From: 2010.05.17/outbox.cif.g08.bks.cpg/sg15_95_cif.got.tgz:188722.got - 2010.06.03 18:47:42.
