data_PCOD9296546
_publ_section_title
;
Structure prediction by ZEFSAII (Michael W. Deem and Ramdas Pophale) SiO2 
 PCOD9296546
Probable space group: C 2/C
;
_chemical_formula_sum "Si O2"
_cell_formula_units_Z 52
_cell_length_a 5.887035
_cell_length_b 21.351229
_cell_length_c 19.943059
_cell_angle_alpha 90.000000
_cell_angle_beta 86.220666
_cell_angle_gamma 90.000000
_cell_volume 2501.300012
_symmetry_space_group_name_H-M "C 2/C"
_symmetry_group_IT_number 15
_symmetry_cell_setting 'monoclinic'
loop_
_space_group_symop_operation_xyz
x,y,z
-x,y,1/2-z
-x,-y,-z
x,-y,1/2+z
1/2+x,1/2+y,z
1/2-x,1/2+y,1/2-z
1/2-x,1/2-y,-z
1/2+x,1/2-y,1/2+z
loop_
_atom_site_type_symbol
_atom_site_label
_atom_site_fract_x
_atom_site_fract_y
_atom_site_fract_z
Si Si1 0.870114 0.921391 0.545666
Si Si2 0.636968 0.749610 0.317215
Si Si3 0.242249 0.391940 0.288264
Si Si4 0.227936 0.019059 0.584326
Si Si5 0.500000 0.838628 0.750000
Si Si6 0.039524 0.393666 0.875499
Si Si7 0.840376 0.801562 0.946885
O O1 0.726605 0.939240 0.482404
O O2 0.729117 0.897985 0.612106
O O3 0.026569 0.861520 0.524276
O O4 0.991888 0.984333 0.569679
O O5 0.500000 0.742018 0.250000
O O6 0.710475 0.821855 0.317543
O O7 0.853790 0.705923 0.300230
O O8 0.491373 0.729914 0.384899
O O9 0.500000 0.394239 0.250000
O O10 0.258759 0.439776 0.349628
O O11 0.000000 0.403226 0.250000
O O12 0.381844 0.958974 0.595086
O O13 0.631111 0.883293 0.799053
O O14 0.128389 0.335973 0.916722
O O15 0.750000 0.750000 0.000000
#
# Coordination Sequence:
#
# PCOD9296546 Si02
#       7
#     8   8   8   8   4   8   8
#     4  10  23  45  67  98 142 182 234 297 361 427
#     4  11  23  45  65  99 144 183 233 302 365 433
#     4  11  27  46  72 104 144 193 246 299 363 433
#     4  10  25  44  67  98 141 186 241 292 358 434
#     4  12  22  40  72  92 138 176 232 298 360 432
#     4  11  24  41  69 102 132 186 233 298 362 428
#     4  11  25  42  69 107 135 185 240 291 369 445
#
# _framework density 20.789186999999998
#
# number of rings (size 3 to 8) (size 9 to 14) (size 15 to 20)
#    0.000    1.231    3.846    0.462    5.385    4.308 
#    0.000    0.000    0.000    0.000    0.000    0.000 
#    0.000    0.000    0.000    0.000    0.000    0.000 
#
# Total GULP energy -144806.901413 kJ/mol
# GULP energy per Si atom -5569.496208 kJ/mol
# Density = 2.074187 g / cm^3
# Si number density = 20.789187 Si / 1000 Ang^3
#
#
#
# Elastic Constant Matrix: (Units=GPa)
#
#
# Indices 1 2 3 4 5 6 
#
# 1 62.9061 38.2592 43.1475 0.0000 -8.7746 0.0000
# 2 38.2592 117.8737 94.0303 0.0000 2.3493 0.0000
# 3 43.1475 94.0303 128.5191 0.0000 -9.1467 0.0000
# 4 0.0000 0.0000 0.0000 35.5096 0.0000 -20.0530
# 5 -8.7746 2.3493 -9.1467 0.0000 32.7226 0.0000
# 6 0.0000 0.0000 0.0000 -20.0530 0.0000 -39.9801
#
#
#
# Elastic Compliance Matrix: (Units=1/GPa)
#
#
# Indices 1 2 3 4 5 6 
#
# 1 0.021774 -0.003884 -0.004115 0.000000 0.004967 0.000000
# 2 -0.003884 0.022185 -0.015422 0.000000 -0.006945 0.000000
# 3 -0.004115 -0.015422 0.020861 0.000000 0.005835 0.000000
# 4 0.000000 0.000000 0.000000 0.021945 0.000000 -0.011007
# 5 0.004967 -0.006945 0.005835 0.000000 0.034021 0.000000
# 6 0.000000 0.000000 0.000000 -0.011007 0.000000 -0.019491
#
#
# Mechanical properties :
#
#
# Convention : Reuss Voigt Hill
#
# Bulk Modulus (GPa) = 55.62113 73.35254 64.48684
# Shear Modulus (GPa) = 32.43998 14.57454 23.50726
#
# Velocity S-wave (km/s) = 3.95451 2.65063 3.36630
# Velocity P-wave (km/s) = 6.90389 6.68793 6.79677
#
# Compressibility (1/GPa) = 0.01797878
#
# Stress axis : x y z
#
# Youngs Moduli (GPa) = 45.92575 45.07535 47.93566
#
# Poissons Ratio (x) = 0.17505 0.19727
# Poissons Ratio (y) = 0.17836 0.73927
# Poissons Ratio (z) = 0.18900 0.69515
#
# Static dielectric constant tensor:
#      x y z
#    x 1.853790 0.000000 0.025940 
#    y 0.000000 1.731660 0.000000 
#    z 0.025940 0.000000 1.804350 
# 
# From -- ./inp_files/227524.got.cif
#   From: 2010.05.17/outbox.cif.g08.bks.cpg/sg15_114_cif.got.tgz:227524.got - 2010.06.03 18:47:42.
