data_PCOD9296179
_publ_section_title
;
Structure prediction by ZEFSAII (Michael W. Deem and Ramdas Pophale) SiO2 
 PCOD9296179
Probable space group: C 2/C
;
_chemical_formula_sum "Si O2"
_cell_formula_units_Z 48
_cell_length_a 14.247013
_cell_length_b 9.775607
_cell_length_c 24.174923
_cell_angle_alpha 90.000000
_cell_angle_beta 32.921068
_cell_angle_gamma 90.000000
_cell_volume 1829.863670
_symmetry_space_group_name_H-M "C 2/C"
_symmetry_group_IT_number 15
_symmetry_cell_setting 'monoclinic'
loop_
_space_group_symop_operation_xyz
x,y,z
-x,y,1/2-z
-x,-y,-z
x,-y,1/2+z
1/2+x,1/2+y,z
1/2-x,1/2+y,1/2-z
1/2-x,1/2-y,-z
1/2+x,1/2-y,1/2+z
loop_
_atom_site_type_symbol
_atom_site_label
_atom_site_fract_x
_atom_site_fract_y
_atom_site_fract_z
Si Si1 0.250000 0.750000 0.000000
Si Si2 0.331521 0.124519 0.639540
Si Si3 0.567594 0.770013 0.121706
Si Si4 0.943499 0.311956 0.576070
Si Si5 0.008241 0.972253 0.158164
Si Si6 0.654859 0.475874 0.380982
Si Si7 0.000000 0.481748 0.250000
O O1 0.054435 0.729517 0.074251
O O2 0.188728 0.897232 0.058495
O O3 0.422332 0.189814 0.648223
O O4 0.426105 0.189371 0.540332
O O5 0.124905 0.122370 0.742575
O O6 0.371436 0.962245 0.618164
O O7 0.536937 0.624656 0.166444
O O8 0.570048 0.893522 0.163876
O O9 0.750000 0.750000 0.000000
O O10 0.809636 0.187998 0.633896
O O11 0.913536 0.003672 0.146156
O O12 0.500000 0.500000 0.500000
O O13 0.828174 0.554730 0.312321
#
# Coordination Sequence:
#
# PCOD9296179 Si02
#       7
#     4   8   8   8   8   8   4
#     4  10  24  42  64  98 140 180 226 290 354 424
#     4  11  23  43  70  96 138 183 233 292 366 423
#     4  12  25  44  70 105 136 188 247 297 361 445
#     4  10  23  44  68  99 139 186 229 303 355 429
#     4  11  24  43  68  98 143 181 233 301 360 429
#     4  11  23  45  66 101 144 184 240 300 362 436
#     4  12  24  44  74 106 142 196 248 298 364 438
#
# _framework density 26.231462000000001
#
# number of rings (size 3 to 8) (size 9 to 14) (size 15 to 20)
#    0.000    1.000    1.667    5.000    2.333    6.000 
#    0.000    0.000    0.000    0.000    0.000    0.000 
#    0.000    0.000    0.000    0.000    0.000    0.000 
#
# Total GULP energy -134062.194027 kJ/mol
# GULP energy per Si atom -5585.924751 kJ/mol
# Density = 2.617176 g / cm^3
# Si number density = 26.231462 Si / 1000 Ang^3
#
#
#
# Elastic Constant Matrix: (Units=GPa)
#
#
# Indices 1 2 3 4 5 6 
#
# 1 61.7531 -6.3864 28.6331 0.0000 -18.1804 0.0000
# 2 -6.3864 117.0122 9.9489 0.0000 5.2589 0.0000
# 3 28.6331 9.9489 125.9806 -0.0002 2.4160 0.0000
# 4 0.0000 0.0000 -0.0002 49.9634 0.0000 0.5322
# 5 -18.1804 5.2589 2.4160 0.0000 49.6820 0.0000
# 6 0.0000 0.0000 0.0000 0.5322 0.0000 12.3528
#
#
#
# Elastic Compliance Matrix: (Units=1/GPa)
#
#
# Indices 1 2 3 4 5 6 
#
# 1 0.020927 0.001218 -0.005002 0.000000 0.007772 0.000000
# 2 0.001218 0.008713 -0.000957 0.000000 -0.000430 0.000000
# 3 -0.005002 -0.000957 0.009192 0.000000 -0.002176 0.000000
# 4 0.000000 0.000000 0.000000 0.020024 0.000000 -0.000863
# 5 0.007772 -0.000430 -0.002176 0.000000 0.023123 0.000000
# 6 0.000000 0.000000 0.000000 -0.000863 0.000000 0.080990
#
#
# Mechanical properties :
#
#
# Convention : Reuss Voigt Hill
#
# Bulk Modulus (GPa) = 34.06982 41.01524 37.54253
# Shear Modulus (GPa) = 27.43735 40.56966 34.00350
#
# Velocity S-wave (km/s) = 3.23766 3.93695 3.60430
# Velocity P-wave (km/s) = 5.19547 6.02793 5.62712
#
# Compressibility (1/GPa) = 0.02935149
#
# Stress axis : x y z
#
# Youngs Moduli (GPa) = 47.78586 114.76744 108.79303
#
# Poissons Ratio (x) = -0.13980 0.54413
# Poissons Ratio (y) = -0.05821 0.10408
# Poissons Ratio (z) = 0.23900 0.10980
#
# Static dielectric constant tensor:
#      x y z
#    x 2.048980 0.000000 0.047040 
#    y 0.000000 2.072120 0.000000 
#    z 0.047040 0.000000 2.060680 
# 
# From -- ./inp_files/177770.got.cif
#   From: 2010.05.17/outbox.cif.g08.bks.cpg/sg15_89_cif.got.tgz:177770.got - 2010.06.03 18:47:42.
