data_PCOD9296870
_publ_section_title
;
Structure prediction by ZEFSAII (Michael W. Deem and Ramdas Pophale) SiO2 
 PCOD9296870
Probable space group: C 2/C
;
_chemical_formula_sum "Si O2"
_cell_formula_units_Z 36
_cell_length_a 8.336274
_cell_length_b 13.043498
_cell_length_c 16.017894
_cell_angle_alpha 90.000000
_cell_angle_beta 117.116155
_cell_angle_gamma 90.000000
_cell_volume 1550.253158
_symmetry_space_group_name_H-M "C 2/C"
_symmetry_group_IT_number 15
_symmetry_cell_setting 'monoclinic'
loop_
_space_group_symop_operation_xyz
x,y,z
-x,y,1/2-z
-x,-y,-z
x,-y,1/2+z
1/2+x,1/2+y,z
1/2-x,1/2+y,1/2-z
1/2-x,1/2-y,-z
1/2+x,1/2-y,1/2+z
loop_
_atom_site_type_symbol
_atom_site_label
_atom_site_fract_x
_atom_site_fract_y
_atom_site_fract_z
Si Si1 0.253887 0.011234 0.143183
Si Si2 0.500000 0.813042 0.750000
Si Si3 0.643900 0.144720 0.975636
Si Si4 0.600604 0.547669 0.354504
Si Si5 0.739492 0.135998 0.695241
O O1 0.279967 0.936621 0.072617
O O2 0.295884 0.942384 0.236435
O O3 0.385786 0.108372 0.166569
O O4 0.050859 0.050527 0.110241
O O5 0.348607 0.736027 0.750428
O O6 0.440731 0.162556 0.898084
O O7 0.750000 0.250000 0.000000
O O8 0.706605 0.095849 0.078291
O O9 0.500000 0.595034 0.250000
O O10 0.641330 0.429944 0.341387
#
# Coordination Sequence:
#
# PCOD9296870 Si02
#       5
#     8   4   8   8   8
#     4  11  23  45  72 103 143 186 240 290 349 431
#     4  12  22  44  78 100 146 192 230 288 366 406
#     4  12  25  43  68 108 145 187 237 293 359 420
#     4  10  23  46  70  98 146 184 241 295 348 426
#     4  11  23  46  71 107 139 188 239 290 357 420
#
# _framework density 23.222013
#
# number of rings (size 3 to 8) (size 9 to 14) (size 15 to 20)
#    0.000    0.889    5.556    2.667    0.000    5.333 
#    4.000    2.222    0.000    0.000    0.000    0.000 
#    0.000    0.000    0.000    0.000    0.000    0.000 
#
# Total GULP energy -100516.259233 kJ/mol
# GULP energy per Si atom -5584.236624 kJ/mol
# Density = 2.316916 g / cm^3
# Si number density = 23.222013 Si / 1000 Ang^3
#
#
#
# Elastic Constant Matrix: (Units=GPa)
#
#
# Indices 1 2 3 4 5 6 
#
# 1 101.6057 31.8195 41.9641 0.0000 35.8767 0.0000
# 2 31.8195 135.5295 40.5549 0.0000 21.6201 0.0000
# 3 41.9641 40.5549 102.4635 0.0000 45.0892 0.0000
# 4 0.0000 0.0000 0.0000 48.1454 0.0000 23.4780
# 5 35.8767 21.6201 45.0892 0.0000 44.3742 0.0000
# 6 0.0000 0.0000 0.0000 23.4780 0.0000 34.2391
#
#
#
# Elastic Compliance Matrix: (Units=1/GPa)
#
#
# Indices 1 2 3 4 5 6 
#
# 1 0.014136 -0.001490 -0.000886 0.000000 -0.009803 0.000000
# 2 -0.001490 0.008568 -0.002666 0.000000 -0.000261 0.000000
# 3 -0.000886 -0.002666 0.018614 0.000000 -0.016898 0.000000
# 4 0.000000 0.000000 0.000000 0.031205 0.000000 -0.021397
# 5 -0.009803 -0.000261 -0.016898 0.000000 0.047759 0.000000
# 6 0.000000 0.000000 0.000000 -0.021397 0.000000 0.043879
#
#
# Mechanical properties :
#
#
# Convention : Reuss Voigt Hill
#
# Bulk Modulus (GPa) = 32.01722 63.14173 47.57948
# Shear Modulus (GPa) = 27.07753 40.36908 33.72331
#
# Velocity S-wave (km/s) = 3.41842 4.17393 3.81493
# Velocity P-wave (km/s) = 5.42201 7.10482 6.31968
#
# Compressibility (1/GPa) = 0.03123319
#
# Stress axis : x y z
#
# Youngs Moduli (GPa) = 70.74252 116.71811 53.72337
#
# Poissons Ratio (x) = 0.17390 0.04760
# Poissons Ratio (y) = 0.10540 0.14324
# Poissons Ratio (z) = 0.06267 0.31119
#
# Static dielectric constant tensor:
#      x y z
#    x 1.939730 0.000000 0.040520 
#    y 0.000000 1.889550 0.000000 
#    z 0.040520 0.000000 1.991600 
# 
# From -- ./inp_files/187998.got.cif
#   From: 2010.05.17/outbox.cif.g08.bks.cpg/sg15_94_cif.got.tgz:187998.got - 2010.06.03 18:47:42.
