data_PCOD9296915
_publ_section_title
;
Structure prediction by ZEFSAII (Michael W. Deem and Ramdas Pophale) SiO2 
 PCOD9296915
Probable space group: C 2/C
;
_chemical_formula_sum "Si O2"
_cell_formula_units_Z 44
_cell_length_a 10.261765
_cell_length_b 11.033345
_cell_length_c 15.825223
_cell_angle_alpha 90.000000
_cell_angle_beta 80.482509
_cell_angle_gamma 90.000000
_cell_volume 1767.093737
_symmetry_space_group_name_H-M "C 2/C"
_symmetry_group_IT_number 15
_symmetry_cell_setting 'monoclinic'
loop_
_space_group_symop_operation_xyz
x,y,z
-x,y,1/2-z
-x,-y,-z
x,-y,1/2+z
1/2+x,1/2+y,z
1/2-x,1/2+y,1/2-z
1/2-x,1/2-y,-z
1/2+x,1/2-y,1/2+z
loop_
_atom_site_type_symbol
_atom_site_label
_atom_site_fract_x
_atom_site_fract_y
_atom_site_fract_z
Si Si1 0.501788 0.248686 0.922760
Si Si2 0.561338 0.731633 0.894490
Si Si3 0.277221 0.392979 0.422618
Si Si4 0.342212 0.534409 0.099344
Si Si5 0.706596 0.061131 0.283949
Si Si6 0.500000 0.860954 0.250000
O O1 0.645493 0.185331 0.919016
O O2 0.521753 0.392690 0.929907
O O3 0.453040 0.215389 0.835603
O O4 0.421429 0.210578 0.013856
O O5 0.407705 0.691646 0.900237
O O6 0.638933 0.605678 0.883717
O O7 0.617225 0.827119 0.822798
O O8 0.265786 0.441348 0.520289
O O9 0.284605 0.502477 0.354411
O O10 0.287434 0.593005 0.191506
O O11 0.614603 0.950390 0.265704
#
# Coordination Sequence:
#
# PCOD9296915 Si02
#       6
#     8   8   8   8   8   4
#     4  10  23  46  72 104 137 189 237 297 353 431
#     4  11  25  46  75  98 148 194 228 302 374 410
#     4  10  24  48  70 106 144 183 244 296 350 441
#     4  11  25  45  70 106 141 183 244 291 354 434
#     4  11  28  42  71 109 139 192 240 291 363 432
#     4  10  26  42  70 100 146 176 244 298 348 422
#
# _framework density 24.899642
#
# number of rings (size 3 to 8) (size 9 to 14) (size 15 to 20)
#    0.000    1.455    0.000    4.364   12.727    5.818 
#    0.000    0.000    0.000    0.000    0.000    0.000 
#    0.000    0.000    0.000    0.000    0.000    0.000 
#
# Total GULP energy -123220.201184 kJ/mol
# GULP energy per Si atom -5600.918236 kJ/mol
# Density = 2.484297 g / cm^3
# Si number density = 24.899642 Si / 1000 Ang^3
#
#
#
# Elastic Constant Matrix: (Units=GPa)
#
#
# Indices 1 2 3 4 5 6 
#
# 1 52.7934 30.1518 42.7874 0.0000 8.3859 0.0000
# 2 30.1518 122.0880 64.6681 0.0000 10.8453 0.0000
# 3 42.7874 64.6681 202.8681 0.0000 -1.6417 0.0000
# 4 0.0000 0.0000 0.0000 49.0564 0.0000 6.6235
# 5 8.3859 10.8453 -1.6417 0.0000 40.7338 0.0000
# 6 0.0000 0.0000 0.0000 6.6235 0.0000 24.6910
#
#
#
# Elastic Compliance Matrix: (Units=1/GPa)
#
#
# Indices 1 2 3 4 5 6 
#
# 1 0.025074 -0.003590 -0.004179 0.000000 -0.004375 0.000000
# 2 -0.003590 0.010687 -0.002667 0.000000 -0.002214 0.000000
# 3 -0.004179 -0.002667 0.006676 0.000000 0.001840 0.000000
# 4 0.000000 0.000000 0.000000 0.021151 0.000000 -0.005674
# 5 -0.004375 -0.002214 0.001840 0.000000 0.026114 0.000000
# 6 0.000000 0.000000 0.000000 -0.005674 0.000000 0.042023
#
#
# Mechanical properties :
#
#
# Convention : Reuss Voigt Hill
#
# Bulk Modulus (GPa) = 46.37494 72.55156 59.46325
# Shear Modulus (GPa) = 31.29173 38.90569 35.09871
#
# Velocity S-wave (km/s) = 3.54886 3.95714 3.75855
# Velocity P-wave (km/s) = 5.95464 7.07668 6.53977
#
# Compressibility (1/GPa) = 0.02156337
#
# Stress axis : x y z
#
# Youngs Moduli (GPa) = 39.88120 93.57167 149.79055
#
# Poissons Ratio (x) = 0.33594 0.62605
# Poissons Ratio (y) = 0.14318 0.39955
# Poissons Ratio (z) = 0.16668 0.24959
#
# Static dielectric constant tensor:
#      x y z
#    x 2.024440 0.000000 -0.010740 
#    y 0.000000 1.962260 0.000000 
#    z -0.010740 0.000000 2.046350 
# 
# From -- ./inp_files/142233.got.cif
#   From: 2010.05.17/outbox.cif.g08.bks.cpg/sg15_72_cif.got.tgz:142233.got - 2010.06.03 18:47:42.
