data_PCOD9296547
_publ_section_title
;
Structure prediction by ZEFSAII (Michael W. Deem and Ramdas Pophale) SiO2 
 PCOD9296547
Probable space group: C 2/C
;
_chemical_formula_sum "Si O2"
_cell_formula_units_Z 52
_cell_length_a 12.896505
_cell_length_b 16.550961
_cell_length_c 19.952708
_cell_angle_alpha 90.000000
_cell_angle_beta 143.783678
_cell_angle_gamma 90.000000
_cell_volume 2516.307389
_symmetry_space_group_name_H-M "C 2/C"
_symmetry_group_IT_number 15
_symmetry_cell_setting 'monoclinic'
loop_
_space_group_symop_operation_xyz
x,y,z
-x,y,1/2-z
-x,-y,-z
x,-y,1/2+z
1/2+x,1/2+y,z
1/2-x,1/2+y,1/2-z
1/2-x,1/2-y,-z
1/2+x,1/2-y,1/2+z
loop_
_atom_site_type_symbol
_atom_site_label
_atom_site_fract_x
_atom_site_fract_y
_atom_site_fract_z
Si Si1 0.209054 0.558978 0.256266
Si Si2 0.573008 0.090603 0.048454
Si Si3 0.956935 0.131032 0.009530
Si Si4 0.305147 0.219087 0.887628
Si Si5 0.500000 0.165629 0.250000
Si Si6 0.775176 0.629646 0.738703
Si Si7 0.658450 0.836471 0.448647
O O1 0.209434 0.593263 0.180832
O O2 0.389937 0.569559 0.390984
O O3 0.064388 0.607987 0.223385
O O4 0.175373 0.464470 0.230248
O O5 0.413473 0.151449 0.983658
O O6 0.643977 0.122962 0.014402
O O7 0.500000 0.000000 0.000000
O O8 0.054105 0.217306 0.069162
O O9 0.879713 0.135357 0.894981
O O10 0.789549 0.114913 0.968943
O O11 0.223411 0.170726 0.781988
O O12 0.162537 0.274359 0.849803
O O13 0.961836 0.669371 0.816660
O O14 0.750000 0.750000 0.500000
#
# Coordination Sequence:
#
# PCOD9296547 Si02
#       7
#     8   8   8   8   4   8   8
#     4  11  25  46  67  99 138 178 229 281 342 401
#     4  11  22  44  70  96 139 175 219 288 338 395
#     4  11  24  41  69 102 134 179 231 275 341 413
#     4  10  23  45  67  99 134 178 226 275 334 402
#     4  10  26  44  66  98 134 184 228 262 344 404
#     4  11  23  45  68  96 144 169 223 293 335 399
#     4  11  22  41  70 102 132 181 222 278 351 401
#
# _framework density 20.665202000000001
#
# number of rings (size 3 to 8) (size 9 to 14) (size 15 to 20)
#    0.000    1.231    6.154    0.923    6.462    1.231 
#    8.308    0.000    0.000    0.000    0.000    0.000 
#    0.000    0.000    0.000    0.000    0.000    0.000 
#
# Total GULP energy -145029.726231 kJ/mol
# GULP energy per Si atom -5578.066394 kJ/mol
# Density = 2.061817 g / cm^3
# Si number density = 20.665202 Si / 1000 Ang^3
#
#
#
# Elastic Constant Matrix: (Units=GPa)
#
#
# Indices 1 2 3 4 5 6 
#
# 1 43.5742 7.5551 22.9836 0.0000 -3.7266 0.0000
# 2 7.5551 103.0958 16.0686 0.0000 -3.9765 0.0000
# 3 22.9836 16.0686 122.5120 -0.0002 -21.5329 -0.0001
# 4 0.0000 0.0000 -0.0002 29.8131 0.0000 2.3168
# 5 -3.7266 -3.9765 -21.5329 0.0000 30.0826 0.0000
# 6 0.0000 0.0000 -0.0001 2.3168 0.0000 25.0091
#
#
#
# Elastic Compliance Matrix: (Units=1/GPa)
#
#
# Indices 1 2 3 4 5 6 
#
# 1 0.025606 -0.001155 -0.004715 0.000000 -0.000355 0.000000
# 2 -0.001155 0.009959 -0.001010 0.000000 0.000450 0.000000
# 3 -0.004715 -0.001010 0.010356 0.000000 0.006695 0.000000
# 4 0.000000 0.000000 0.000000 0.033786 0.000000 -0.003130
# 5 -0.000355 0.000450 0.006695 0.000000 0.038050 0.000000
# 6 0.000000 0.000000 0.000000 -0.003130 0.000000 0.040275
#
#
# Mechanical properties :
#
#
# Convention : Reuss Voigt Hill
#
# Bulk Modulus (GPa) = 31.09385 40.26629 35.68007
# Shear Modulus (GPa) = 27.39523 31.81925 29.60724
#
# Velocity S-wave (km/s) = 3.64492 3.92822 3.78922
# Velocity P-wave (km/s) = 5.72653 6.33261 6.03718
#
# Compressibility (1/GPa) = 0.03216070
#
# Stress axis : x y z
#
# Youngs Moduli (GPa) = 39.05313 100.40938 96.55990
#
# Poissons Ratio (x) = 0.11601 0.45525
# Poissons Ratio (y) = 0.04512 0.09756
# Poissons Ratio (z) = 0.18412 0.10145
#
# Static dielectric constant tensor:
#      x y z
#    x 1.765940 0.000000 0.007770 
#    y 0.000000 1.771710 0.000000 
#    z 0.007770 0.000000 1.757590 
# 
# From -- ./inp_files/274643.got.cif
#   From: 2010.05.17/outbox.cif.g08.bks.cpg/sg15_138_cif.got.tgz:274643.got - 2010.06.03 18:47:42.
