data_PCOD9296662
_publ_section_title
;
Structure prediction by ZEFSAII (Michael W. Deem and Ramdas Pophale) SiO2 
 PCOD9296662
Probable space group: C 2/C
;
_chemical_formula_sum "Si O2"
_cell_formula_units_Z 36
_cell_length_a 17.101685
_cell_length_b 7.929739
_cell_length_c 11.604025
_cell_angle_alpha 90.000000
_cell_angle_beta 126.030094
_cell_angle_gamma 90.000000
_cell_volume 1272.618623
_symmetry_space_group_name_H-M "C 2/C"
_symmetry_group_IT_number 15
_symmetry_cell_setting 'monoclinic'
loop_
_space_group_symop_operation_xyz
x,y,z
-x,y,1/2-z
-x,-y,-z
x,-y,1/2+z
1/2+x,1/2+y,z
1/2-x,1/2+y,1/2-z
1/2-x,1/2-y,-z
1/2+x,1/2-y,1/2+z
loop_
_atom_site_type_symbol
_atom_site_label
_atom_site_fract_x
_atom_site_fract_y
_atom_site_fract_z
Si Si1 0.500000 0.355534 0.250000
Si Si2 0.869105 0.050621 0.440001
Si Si3 0.672827 0.904869 0.893137
Si Si4 0.045956 0.357342 0.126834
Si Si5 0.833149 0.699618 0.480290
O O1 0.537890 0.452778 0.394111
O O2 0.408132 0.236718 0.190969
O O3 0.777284 0.127145 0.429972
O O4 0.900200 0.191568 0.375727
O O5 0.836458 0.855199 0.390345
O O6 0.624188 0.044869 0.768408
O O7 0.685029 0.996261 0.029636
O O8 0.947413 0.303026 0.104182
O O9 0.000000 0.500000 0.000000
O O10 0.750000 0.750000 0.500000
#
# Coordination Sequence:
#
# PCOD9296662 Si02
#       5
#     4   8   8   8   8
#     4  12  22  44  72 100 152 190 244 294 366 438
#     4  11  26  42  72 112 139 192 250 296 367 440
#     4  11  23  45  71 103 147 198 234 304 370 435
#     4  12  23  45  71 104 148 185 239 312 366 422
#     4  10  23  45  71  99 140 188 243 298 364 438
#
# _framework density 28.288129999999999
#
# number of rings (size 3 to 8) (size 9 to 14) (size 15 to 20)
#    0.000    0.889    4.444    1.333    3.111    5.333 
#    4.000    0.000    0.000    0.000    0.000    0.000 
#    0.000    0.000    0.000    0.000    0.000    0.000 
#
# Total GULP energy -100309.543789 kJ/mol
# GULP energy per Si atom -5572.752433 kJ/mol
# Density = 2.822375 g / cm^3
# Si number density = 28.288130 Si / 1000 Ang^3
#
#
#
# Elastic Constant Matrix: (Units=GPa)
#
#
# Indices 1 2 3 4 5 6 
#
# 1 182.9346 66.7993 27.3522 0.0000 51.7183 0.0000
# 2 66.7993 179.1544 47.2780 0.0000 6.0845 0.0000
# 3 27.3522 47.2780 111.2919 0.0000 23.7660 0.0000
# 4 0.0000 0.0000 0.0000 31.2792 0.0000 15.9552
# 5 51.7183 6.0845 23.7660 0.0000 49.8905 0.0000
# 6 0.0000 0.0000 0.0000 15.9552 0.0000 56.6613
#
#
#
# Elastic Compliance Matrix: (Units=1/GPa)
#
#
# Indices 1 2 3 4 5 6 
#
# 1 0.009337 -0.003488 0.001295 0.000000 -0.009870 0.000000
# 2 -0.003488 0.007604 -0.003281 0.000000 0.004251 0.000000
# 3 0.001295 -0.003281 0.011424 0.000000 -0.006384 0.000000
# 4 0.000000 0.000000 0.000000 0.037332 0.000000 -0.010512
# 5 -0.009870 0.004251 -0.006384 0.000000 0.032799 0.000000
# 6 0.000000 0.000000 0.000000 -0.010512 0.000000 0.020609
#
#
# Mechanical properties :
#
#
# Convention : Reuss Voigt Hill
#
# Bulk Modulus (GPa) = 57.41475 84.02666 70.72070
# Shear Modulus (GPa) = 36.80311 49.69629 43.24970
#
# Velocity S-wave (km/s) = 3.61086 4.19595 3.91436
# Velocity P-wave (km/s) = 6.14206 7.29678 6.74418
#
# Compressibility (1/GPa) = 0.01741713
#
# Stress axis : x y z
#
# Youngs Moduli (GPa) = 107.10132 131.51619 87.53374
#
# Poissons Ratio (x) = 0.45870 -0.11333
# Poissons Ratio (y) = 0.37355 0.28717
# Poissons Ratio (z) = -0.13867 0.43147
#
# Static dielectric constant tensor:
#      x y z
#    x 2.212650 0.000000 -0.140290 
#    y 0.000000 2.431770 0.000000 
#    z -0.140290 0.000000 2.213130 
# 
# From -- ./inp_files/159559.got.cif
#   From: 2010.05.17/outbox.cif.g08.bks.cpg/sg15_80_cif.got.tgz:159559.got - 2010.06.03 18:47:42.
