data_PCOD9296617
_publ_section_title
;
Structure prediction by ZEFSAII (Michael W. Deem and Ramdas Pophale) SiO2 
 PCOD9296617
Probable space group: C 2/C
;
_chemical_formula_sum "Si O2"
_cell_formula_units_Z 40
_cell_length_a 29.051025
_cell_length_b 7.499123
_cell_length_c 9.071478
_cell_angle_alpha 90.000000
_cell_angle_beta 120.755709
_cell_angle_gamma 90.000000
_cell_volume 1698.332929
_symmetry_space_group_name_H-M "C 2/C"
_symmetry_group_IT_number 15
_symmetry_cell_setting 'monoclinic'
loop_
_space_group_symop_operation_xyz
x,y,z
-x,y,1/2-z
-x,-y,-z
x,-y,1/2+z
1/2+x,1/2+y,z
1/2-x,1/2+y,1/2-z
1/2-x,1/2-y,-z
1/2+x,1/2-y,1/2+z
loop_
_atom_site_type_symbol
_atom_site_label
_atom_site_fract_x
_atom_site_fract_y
_atom_site_fract_z
Si Si1 0.634318 0.950017 0.701177
Si Si2 0.373450 0.318437 0.553982
Si Si3 0.724960 0.899948 0.063645
Si Si4 0.937706 0.470747 0.661238
Si Si5 0.327957 0.628720 0.306602
O O1 0.655645 0.805801 0.618344
O O2 0.594914 0.075452 0.540661
O O3 0.590730 0.875004 0.747859
O O4 0.682494 0.999663 0.888720
O O5 0.424848 0.185772 0.656969
O O6 0.370095 0.510625 0.469918
O O7 0.348923 0.348445 0.674714
O O8 0.691785 0.803583 0.138092
O O9 0.772278 0.019446 0.202040
O O10 0.750000 0.750000 0.000000
O O11 0.000000 0.437546 0.750000
#
# Coordination Sequence:
#
# PCOD9296617 Si02
#       5
#     8   8   8   8   8
#     4  10  24  41  69 103 133 173 225 282 331 399
#     4  10  24  41  67  96 137 178 220 285 329 400
#     4  12  25  43  66  99 138 185 225 268 341 400
#     4  10  23  45  70 102 131 174 231 287 341 393
#     4  12  25  45  65  99 143 181 227 272 334 418
#
# _framework density 23.552508
#
# number of rings (size 3 to 8) (size 9 to 14) (size 15 to 20)
#    1.200    0.000    4.000    0.600    8.400    0.800 
#    0.000    1.000    0.000    0.000    0.000    0.000 
#    0.000    0.000    0.000    0.000    0.000    0.000 
#
# Total GULP energy -111536.832682 kJ/mol
# GULP energy per Si atom -5576.841634 kJ/mol
# Density = 2.349890 g / cm^3
# Si number density = 23.552508 Si / 1000 Ang^3
#
#
#
# Elastic Constant Matrix: (Units=GPa)
#
#
# Indices 1 2 3 4 5 6 
#
# 1 105.1992 9.1875 62.8487 0.0000 -3.4835 0.0000
# 2 9.1875 85.7883 35.5765 0.0000 -11.4590 0.0000
# 3 62.8487 35.5765 140.8720 0.0000 -31.9032 0.0000
# 4 0.0000 0.0000 0.0000 44.5008 0.0000 -9.2313
# 5 -3.4835 -11.4590 -31.9032 0.0000 56.1376 0.0000
# 6 0.0000 0.0000 0.0000 -9.2313 0.0000 31.7754
#
#
#
# Elastic Compliance Matrix: (Units=1/GPa)
#
#
# Indices 1 2 3 4 5 6 
#
# 1 0.013452 0.001043 -0.006918 0.000000 -0.002884 0.000000
# 2 0.001043 0.013141 -0.003629 0.000000 0.000685 0.000000
# 3 -0.006918 -0.003629 0.012437 0.000000 0.005898 0.000000
# 4 0.000000 0.000000 0.000000 0.023913 0.000000 0.006947
# 5 -0.002884 0.000685 0.005898 0.000000 0.021126 0.000000
# 6 0.000000 0.000000 0.000000 0.006947 0.000000 0.033489
#
#
# Mechanical properties :
#
#
# Convention : Reuss Voigt Hill
#
# Bulk Modulus (GPa) = 49.94329 60.78719 55.36524
# Shear Modulus (GPa) = 34.90616 41.43255 38.16935
#
# Velocity S-wave (km/s) = 3.85393 4.19878 4.03004
# Velocity P-wave (km/s) = 6.40740 7.02649 6.72408
#
# Compressibility (1/GPa) = 0.02002271
#
# Stress axis : x y z
#
# Youngs Moduli (GPa) = 74.33702 76.09573 80.40301
#
# Poissons Ratio (x) = -0.07937 0.55624
# Poissons Ratio (y) = -0.07754 0.29179
# Poissons Ratio (z) = 0.51427 0.27616
#
# Static dielectric constant tensor:
#      x y z
#    x 1.965920 0.000000 -0.055920 
#    y 0.000000 2.038610 0.000000 
#    z -0.055920 0.000000 1.877280 
# 
# From -- ./inp_files/68449.got.cif
#   From: 2010.05.17/outbox.cif.g08.bks.cpg/sg15_35_cif.got.tgz:68449.got - 2010.06.03 18:47:42.
