data_PCOD9296597
_publ_section_title
;
Structure prediction by ZEFSAII (Michael W. Deem and Ramdas Pophale) SiO2 
 PCOD9296597
Probable space group: C 2/C
;
_chemical_formula_sum "Si O2"
_cell_formula_units_Z 44
_cell_length_a 11.210712
_cell_length_b 11.359485
_cell_length_c 15.255391
_cell_angle_alpha 90.000000
_cell_angle_beta 66.382047
_cell_angle_gamma 90.000000
_cell_volume 1780.012781
_symmetry_space_group_name_H-M "C 2/C"
_symmetry_group_IT_number 15
_symmetry_cell_setting 'monoclinic'
loop_
_space_group_symop_operation_xyz
x,y,z
-x,y,1/2-z
-x,-y,-z
x,-y,1/2+z
1/2+x,1/2+y,z
1/2-x,1/2+y,1/2-z
1/2-x,1/2-y,-z
1/2+x,1/2-y,1/2+z
loop_
_atom_site_type_symbol
_atom_site_label
_atom_site_fract_x
_atom_site_fract_y
_atom_site_fract_z
Si Si1 0.119813 0.743570 0.980569
Si Si2 0.531299 0.100826 0.338586
Si Si3 0.572309 0.626312 0.063269
Si Si4 0.159486 0.621823 0.610961
Si Si5 0.500000 0.532115 0.750000
Si Si6 0.721482 0.091177 0.790381
O O1 0.157434 0.658207 0.889924
O O2 0.057358 0.860890 0.957733
O O3 0.250000 0.750000 0.000000
O O4 0.007172 0.690540 0.075242
O O5 0.500000 0.144381 0.250000
O O6 0.436190 0.987564 0.377325
O O7 0.674986 0.045770 0.304979
O O8 0.604097 0.758811 0.086878
O O9 0.547045 0.545378 0.153999
O O10 0.701132 0.592490 0.972010
O O11 0.174497 0.637969 0.710668
O O12 0.375075 0.602823 0.754503
#
# Coordination Sequence:
#
# PCOD9296597 Si02
#       6
#     8   8   8   8   4   8
#     4  12  27  42  68 101 136 171 223 276 328 391
#     4  10  23  45  69  93 129 179 219 266 331 396
#     4  11  25  43  69 100 133 171 223 273 327 395
#     4  10  23  45  73  94 129 176 223 273 328 396
#     4  12  28  42  68 100 136 174 218 276 330 390
#     4  11  25  45  68  94 135 177 222 267 333 397
#
# _framework density 24.718921999999999
#
# number of rings (size 3 to 8) (size 9 to 14) (size 15 to 20)
#    0.000    1.091    1.818    2.727   14.000    2.182 
#    0.000    0.000    0.000    0.000    0.000    0.000 
#    0.000    0.000    0.000    0.000    0.000    0.000 
#
# Total GULP energy -123457.702681 kJ/mol
# GULP energy per Si atom -5611.713758 kJ/mol
# Density = 2.466266 g / cm^3
# Si number density = 24.718922 Si / 1000 Ang^3
#
#
#
# Elastic Constant Matrix: (Units=GPa)
#
#
# Indices 1 2 3 4 5 6 
#
# 1 135.1334 12.4962 13.2332 0.0000 3.9079 0.0000
# 2 12.4962 46.2079 17.2879 0.0000 6.7706 0.0000
# 3 13.2332 17.2879 146.5106 0.0000 8.6832 0.0000
# 4 0.0000 0.0000 0.0000 18.2056 0.0000 4.9124
# 5 3.9079 6.7706 8.6832 0.0000 33.3251 0.0000
# 6 0.0000 0.0000 0.0000 4.9124 0.0000 34.2275
#
#
#
# Elastic Compliance Matrix: (Units=1/GPa)
#
#
# Indices 1 2 3 4 5 6 
#
# 1 0.007625 -0.001835 -0.000448 0.000000 -0.000405 0.000000
# 2 -0.001835 0.023610 -0.002385 0.000000 -0.003960 0.000000
# 3 -0.000448 -0.002385 0.007227 0.000000 -0.001346 0.000000
# 4 0.000000 0.000000 0.000000 0.057141 0.000000 -0.008201
# 5 -0.000405 -0.003960 -0.001346 0.000000 0.031210 0.000000
# 6 0.000000 0.000000 0.000000 -0.008201 0.000000 0.030393
#
#
# Mechanical properties :
#
#
# Convention : Reuss Voigt Hill
#
# Bulk Modulus (GPa) = 34.33467 45.98740 40.16103
# Shear Modulus (GPa) = 28.36824 36.14062 32.25443
#
# Velocity S-wave (km/s) = 3.39135 3.82784 3.61619
# Velocity P-wave (km/s) = 5.40881 6.17908 5.80673
#
# Compressibility (1/GPa) = 0.02912508
#
# Stress axis : x y z
#
# Youngs Moduli (GPa) = 131.14073 42.35431 138.36663
#
# Poissons Ratio (x) = 0.07773 0.06202
# Poissons Ratio (y) = 0.24067 0.33007
# Poissons Ratio (z) = 0.05878 0.10104
#
# Static dielectric constant tensor:
#      x y z
#    x 1.965920 0.000000 -0.009550 
#    y 0.000000 1.942190 0.000000 
#    z -0.009550 0.000000 1.895800 
# 
# From -- ./inp_files/143386.got.cif
#   From: 2010.05.17/outbox.cif.g08.bks.cpg/sg15_72_cif.got.tgz:143386.got - 2010.06.03 18:47:42.
