data_PCOD9296519
_publ_section_title
;
Structure prediction by ZEFSAII (Michael W. Deem and Ramdas Pophale) SiO2 
 PCOD9296519
Probable space group: C 2/C
;
_chemical_formula_sum "Si O2"
_cell_formula_units_Z 44
_cell_length_a 11.982079
_cell_length_b 11.474559
_cell_length_c 14.733739
_cell_angle_alpha 90.000000
_cell_angle_beta 62.735597
_cell_angle_gamma 90.000000
_cell_volume 1800.673794
_symmetry_space_group_name_H-M "C 2/C"
_symmetry_group_IT_number 15
_symmetry_cell_setting 'monoclinic'
loop_
_space_group_symop_operation_xyz
x,y,z
-x,y,1/2-z
-x,-y,-z
x,-y,1/2+z
1/2+x,1/2+y,z
1/2-x,1/2+y,1/2-z
1/2-x,1/2-y,-z
1/2+x,1/2-y,1/2+z
loop_
_atom_site_type_symbol
_atom_site_label
_atom_site_fract_x
_atom_site_fract_y
_atom_site_fract_z
Si Si1 0.996457 0.104348 0.379496
Si Si2 0.500000 0.208501 0.750000
Si Si3 0.912768 0.134389 0.608896
Si Si4 0.774090 0.690350 0.248738
Si Si5 0.973823 0.500078 0.618072
Si Si6 0.871324 0.706971 0.402976
O O1 0.135488 0.161646 0.335256
O O2 0.925208 0.187353 0.334882
O O3 0.920576 0.099161 0.501321
O O4 0.037723 0.971202 0.347332
O O5 0.470674 0.118853 0.677543
O O6 0.783292 0.198340 0.679280
O O7 0.014585 0.234707 0.586997
O O8 0.847129 0.575770 0.184986
O O9 0.852568 0.737028 0.305693
O O10 0.000000 0.500000 0.500000
O O11 0.094742 0.429012 0.610386
O O12 0.750000 0.750000 0.500000
#
# Coordination Sequence:
#
# PCOD9296519 Si02
#       6
#     8   4   8   8   8   8
#     4  11  26  43  67  98 140 183 225 298 351 419
#     4  12  24  44  64 104 144 174 230 296 362 402
#     4  10  23  45  66  99 138 175 241 283 349 420
#     4  11  23  43  70  96 128 190 226 282 347 426
#     4  11  24  44  69 101 141 179 230 292 347 431
#     4  11  21  41  72  98 126 181 234 279 343 426
#
# _framework density 24.435298
#
# number of rings (size 3 to 8) (size 9 to 14) (size 15 to 20)
#    0.000    1.091    3.636    3.818    5.091    0.000 
#    0.000    1.818    0.000    0.000    0.000    0.000 
#    0.000    0.000    0.000    0.000    0.000    0.000 
#
# Total GULP energy -122610.657246 kJ/mol
# GULP energy per Si atom -5573.211693 kJ/mol
# Density = 2.437968 g / cm^3
# Si number density = 24.435298 Si / 1000 Ang^3
#
#
#
# Elastic Constant Matrix: (Units=GPa)
#
#
# Indices 1 2 3 4 5 6 
#
# 1 39.6098 2.5053 11.2842 0.0000 -3.9209 0.0000
# 2 2.5053 150.2513 37.5436 0.0000 3.1462 0.0000
# 3 11.2842 37.5436 114.1013 0.0000 7.1432 0.0000
# 4 0.0000 0.0000 0.0000 38.0955 0.0000 2.8244
# 5 -3.9209 3.1462 7.1432 0.0000 39.5316 0.0000
# 6 0.0000 0.0000 0.0000 2.8244 0.0000 30.2226
#
#
#
# Elastic Compliance Matrix: (Units=1/GPa)
#
#
# Indices 1 2 3 4 5 6 
#
# 1 0.026360 0.000213 -0.002872 0.000000 0.003116 0.000000
# 2 0.000213 0.007254 -0.002400 0.000000 -0.000123 0.000000
# 3 -0.002872 -0.002400 0.009956 0.000000 -0.001893 0.000000
# 4 0.000000 0.000000 0.000000 0.026433 0.000000 -0.002470
# 5 0.003116 -0.000123 -0.001893 0.000000 0.025957 0.000000
# 6 0.000000 0.000000 0.000000 -0.002470 0.000000 0.033319
#
#
# Mechanical properties :
#
#
# Convention : Reuss Voigt Hill
#
# Bulk Modulus (GPa) = 29.89416 45.18097 37.53757
# Shear Modulus (GPa) = 33.21190 38.41188 35.81189
#
# Velocity S-wave (km/s) = 3.69070 3.96913 3.83244
# Velocity P-wave (km/s) = 5.51564 6.28772 5.91429
#
# Compressibility (1/GPa) = 0.03345135
#
# Stress axis : x y z
#
# Youngs Moduli (GPa) = 37.93698 137.84918 100.43719
#
# Poissons Ratio (x) = -0.02934 0.28846
# Poissons Ratio (y) = -0.00808 0.24108
# Poissons Ratio (z) = 0.10896 0.33088
#
# Static dielectric constant tensor:
#      x y z
#    x 2.337700 0.000000 -0.021090 
#    y 0.000000 1.979720 0.000000 
#    z -0.021090 0.000000 2.034960 
# 
# From -- ./inp_files/151749.got.cif
#   From: 2010.05.17/outbox.cif.g08.bks.cpg/sg15_76_cif.got.tgz:151749.got - 2010.06.03 18:47:42.
