data_PCOD9296692
_publ_section_title
;
Structure prediction by ZEFSAII (Michael W. Deem and Ramdas Pophale) SiO2 
 PCOD9296692
Probable space group: C 2/C
;
_chemical_formula_sum "Si O2"
_cell_formula_units_Z 52
_cell_length_a 14.181928
_cell_length_b 14.289475
_cell_length_c 11.461770
_cell_angle_alpha 90.000000
_cell_angle_beta 67.680301
_cell_angle_gamma 90.000000
_cell_volume 2148.731525
_symmetry_space_group_name_H-M "C 2/C"
_symmetry_group_IT_number 15
_symmetry_cell_setting 'monoclinic'
loop_
_space_group_symop_operation_xyz
x,y,z
-x,y,1/2-z
-x,-y,-z
x,-y,1/2+z
1/2+x,1/2+y,z
1/2-x,1/2+y,1/2-z
1/2-x,1/2-y,-z
1/2+x,1/2-y,1/2+z
loop_
_atom_site_type_symbol
_atom_site_label
_atom_site_fract_x
_atom_site_fract_y
_atom_site_fract_z
Si Si1 0.500000 0.886213 0.750000
Si Si2 0.991065 0.806036 0.616791
Si Si3 0.613443 0.011338 0.395040
Si Si4 0.500000 0.570578 0.750000
Si Si5 0.000000 0.000000 0.500000
Si Si6 0.695871 0.819696 0.287964
Si Si7 0.149210 0.231265 0.624240
Si Si8 0.168043 0.332269 0.037210
O O1 0.418008 0.946330 0.716082
O O2 0.569231 0.814183 0.643542
O O3 0.025852 0.891412 0.521569
O O4 0.877949 0.767580 0.650769
O O5 0.000000 0.826735 0.750000
O O6 0.060795 0.715822 0.561606
O O7 0.678508 0.084194 0.441685
O O8 0.500000 0.000000 0.500000
O O9 0.670862 0.912576 0.372563
O O10 0.458672 0.514238 0.657689
O O11 0.586987 0.634404 0.646539
O O12 0.806556 0.778416 0.264553
O O13 0.672490 0.858747 0.170430
O O14 0.250000 0.250000 0.500000
O O15 0.250000 0.250000 0.000000
#
# Coordination Sequence:
#
# PCOD9296692 Si02
#       8
#     4   8   8   4   4   8   8   8
#     4  11  26  44  73 108 148 196 249 330 381 468
#     4  10  23  45  72  98 149 196 250 321 394 465
#     4  12  23  43  74 108 144 192 248 314 387 463
#     4  11  28  46  79 108 162 204 267 332 403 486
#     4  12  24  48  72 112 146 214 260 320 404 482
#     4  11  24  46  71 105 143 191 252 314 386 461
#     4  11  25  49  74 107 150 204 260 326 401 466
#     4  11  25  43  71 104 145 194 243 313 382 461
#
# _framework density 24.200324999999999
#
# number of rings (size 3 to 8) (size 9 to 14) (size 15 to 20)
#    0.000    0.923    2.308    3.692    7.538    1.231 
#    5.538    1.538    0.000    0.000    0.000    0.000 
#    0.000    0.000    0.000    0.000    0.000    0.000 
#
# Total GULP energy -144746.749324 kJ/mol
# GULP energy per Si atom -5567.182666 kJ/mol
# Density = 2.414524 g / cm^3
# Si number density = 24.200325 Si / 1000 Ang^3
#
#
#
# Elastic Constant Matrix: (Units=GPa)
#
#
# Indices 1 2 3 4 5 6 
#
# 1 70.9731 0.4373 -6.8845 0.0000 6.9637 0.0000
# 2 0.4373 91.1008 31.5722 0.0000 14.7875 0.0000
# 3 -6.8845 31.5722 90.6642 0.0000 7.1852 0.0000
# 4 0.0000 0.0000 0.0000 33.6895 0.0000 4.9724
# 5 6.9637 14.7875 7.1852 0.0000 36.5509 0.0000
# 6 0.0000 0.0000 0.0000 4.9724 0.0000 24.2940
#
#
#
# Elastic Compliance Matrix: (Units=1/GPa)
#
#
# Indices 1 2 3 4 5 6 
#
# 1 0.014518 -0.000052 0.001359 0.000000 -0.003012 0.000000
# 2 -0.000052 0.013173 -0.004236 0.000000 -0.004487 0.000000
# 3 0.001359 -0.004236 0.012690 0.000000 -0.001040 0.000000
# 4 0.000000 0.000000 0.000000 0.030607 0.000000 -0.006265
# 5 -0.003012 -0.004487 -0.001040 0.000000 0.029953 0.000000
# 6 0.000000 0.000000 0.000000 -0.006265 0.000000 0.042445
#
#
# Mechanical properties :
#
#
# Convention : Reuss Voigt Hill
#
# Bulk Modulus (GPa) = 28.96493 33.66534 31.31513
# Shear Modulus (GPa) = 31.10400 34.08110 32.59255
#
# Velocity S-wave (km/s) = 3.58896 3.75679 3.67383
# Velocity P-wave (km/s) = 5.40083 5.72357 5.56454
#
# Compressibility (1/GPa) = 0.03452451
#
# Stress axis : x y z
#
# Youngs Moduli (GPa) = 68.88221 75.91059 78.80006
#
# Poissons Ratio (x) = 0.00393 -0.10710
# Poissons Ratio (y) = 0.00357 0.33378
# Poissons Ratio (z) = -0.09362 0.32154
#
# Static dielectric constant tensor:
#      x y z
#    x 1.909880 0.000000 0.202580 
#    y 0.000000 2.103980 0.000000 
#    z 0.202580 0.000000 2.141650 
# 
# From -- ./inp_files/96991.got.cif
#   From: 2010.05.17/outbox.cif.g08.bks.cpg/sg15_49_cif.got.tgz:96991.got - 2010.06.03 18:47:42.
