data_PCOD9296628
_publ_section_title
;
Structure prediction by ZEFSAII (Michael W. Deem and Ramdas Pophale) SiO2 
 PCOD9296628
Probable space group: C 2/C
;
_chemical_formula_sum "Si O2"
_cell_formula_units_Z 60
_cell_length_a 16.744841
_cell_length_b 16.623489
_cell_length_c 9.148111
_cell_angle_alpha 90.000000
_cell_angle_beta 55.382872
_cell_angle_gamma 90.000000
_cell_volume 2095.640744
_symmetry_space_group_name_H-M "C 2/C"
_symmetry_group_IT_number 15
_symmetry_cell_setting 'monoclinic'
loop_
_space_group_symop_operation_xyz
x,y,z
-x,y,1/2-z
-x,-y,-z
x,-y,1/2+z
1/2+x,1/2+y,z
1/2-x,1/2+y,1/2-z
1/2-x,1/2-y,-z
1/2+x,1/2-y,1/2+z
loop_
_atom_site_type_symbol
_atom_site_label
_atom_site_fract_x
_atom_site_fract_y
_atom_site_fract_z
Si Si1 0.238524 0.970706 0.731177
Si Si2 0.097127 0.422428 0.317043
Si Si3 0.500000 0.060511 0.250000
Si Si4 0.337347 0.311275 0.192427
Si Si5 0.111176 0.087325 0.113000
Si Si6 0.591972 0.856918 0.850776
Si Si7 0.395907 0.631974 0.929837
Si Si8 0.863731 0.753691 0.723462
O O1 0.306295 0.046573 0.702828
O O2 0.125545 0.109677 0.929273
O O3 0.187891 0.964749 0.626440
O O4 0.318313 0.899109 0.665516
O O5 0.078902 0.485998 0.209312
O O6 0.095543 0.331398 0.263467
O O7 0.004948 0.416359 0.527625
O O8 0.411935 0.130845 0.317567
O O9 0.409750 0.234977 0.106683
O O10 0.328122 0.335847 0.370355
O O11 0.242109 0.275086 0.217485
O O12 0.127551 0.176829 0.166414
O O13 0.000000 0.063352 0.250000
O O14 0.152601 0.941175 0.929978
O O15 0.500000 0.614776 0.750000
O O16 0.405621 0.703034 0.036981
#
# Coordination Sequence:
#
# PCOD9296628 Si02
#       8
#     8   8   4   8   8   8   8   8
#     4  10  23  45  70 106 157 198 265 318 389 473
#     4  11  25  43  72 109 153 207 249 317 398 477
#     4  10  24  38  62 100 148 198 238 294 386 470
#     4  12  24  40  73 105 153 201 258 324 389 455
#     4  11  23  44  71 109 146 202 264 330 383 454
#     4  11  23  42  67 104 156 200 247 318 391 474
#     4  11  23  44  71 110 151 205 264 326 383 456
#     4  11  25  42  71 111 153 197 261 325 386 463
#
# _framework density 28.630862
#
# number of rings (size 3 to 8) (size 9 to 14) (size 15 to 20)
#    0.000    1.067    2.667    5.600    5.600    2.133 
#    0.000    0.000    0.000    4.800    0.000    0.000 
#    0.000    0.000    0.000    0.000    0.000    0.000 
#
# Total GULP energy -167842.498891 kJ/mol
# GULP energy per Si atom -5594.749963 kJ/mol
# Density = 2.856570 g / cm^3
# Si number density = 28.630862 Si / 1000 Ang^3
#
#
#
# Elastic Constant Matrix: (Units=GPa)
#
#
# Indices 1 2 3 4 5 6 
#
# 1 179.7169 56.2694 31.3078 0.0000 -1.8533 0.0000
# 2 56.2694 138.3662 21.0944 0.0000 -12.2270 0.0000
# 3 31.3078 21.0944 111.8980 0.0000 -11.9118 0.0000
# 4 0.0000 0.0000 0.0000 42.9316 0.0000 2.4829
# 5 -1.8533 -12.2270 -11.9118 0.0000 55.4781 0.0000
# 6 0.0000 0.0000 0.0000 2.4829 0.0000 53.2528
#
#
#
# Elastic Compliance Matrix: (Units=1/GPa)
#
#
# Indices 1 2 3 4 5 6 
#
# 1 0.006598 -0.002521 -0.001439 0.000000 -0.000644 0.000000
# 2 -0.002521 0.008507 -0.000724 0.000000 0.001635 0.000000
# 3 -0.001439 -0.000724 0.009675 0.000000 0.001870 0.000000
# 4 0.000000 0.000000 0.000000 0.023356 0.000000 -0.001089
# 5 -0.000644 0.001635 0.001870 0.000000 0.018765 0.000000
# 6 0.000000 0.000000 0.000000 -0.001089 0.000000 0.018829
#
#
# Mechanical properties :
#
#
# Convention : Reuss Voigt Hill
#
# Bulk Modulus (GPa) = 64.88816 71.92493 68.40655
# Shear Modulus (GPa) = 49.88237 51.75313 50.81775
#
# Velocity S-wave (km/s) = 4.17857 4.25620 4.21756
# Velocity P-wave (km/s) = 6.78185 7.02351 6.90373
#
# Compressibility (1/GPa) = 0.01541113
#
# Stress axis : x y z
#
# Youngs Moduli (GPa) = 151.57062 117.54801 103.35899
#
# Poissons Ratio (x) = 0.29628 0.14877
# Poissons Ratio (y) = 0.38204 0.07488
# Poissons Ratio (z) = 0.21816 0.08516
#
# Static dielectric constant tensor:
#      x y z
#    x 2.758760 0.000000 1.080210 
#    y 0.000000 2.225230 0.000000 
#    z 1.080210 0.000000 4.772740 
# 
# From -- ./inp_files/105708.got.cif
#   From: 2010.05.17/outbox.cif.g08.bks.cpg/sg15_53_cif.got.tgz:105708.got - 2010.06.03 18:47:42.
