data_PCOD9296719
_publ_section_title
;
Structure prediction by ZEFSAII (Michael W. Deem and Ramdas Pophale) SiO2 
 PCOD9296719
Probable space group: C 2/C
;
_chemical_formula_sum "Si O2"
_cell_formula_units_Z 40
_cell_length_a 16.404957
_cell_length_b 12.250741
_cell_length_c 8.931235
_cell_angle_alpha 90.000000
_cell_angle_beta 108.555400
_cell_angle_gamma 90.000000
_cell_volume 1701.628789
_symmetry_space_group_name_H-M "C 2/C"
_symmetry_group_IT_number 15
_symmetry_cell_setting 'monoclinic'
loop_
_space_group_symop_operation_xyz
x,y,z
-x,y,1/2-z
-x,-y,-z
x,-y,1/2+z
1/2+x,1/2+y,z
1/2-x,1/2+y,1/2-z
1/2-x,1/2-y,-z
1/2+x,1/2-y,1/2+z
loop_
_atom_site_type_symbol
_atom_site_label
_atom_site_fract_x
_atom_site_fract_y
_atom_site_fract_z
Si Si1 0.153228 0.554137 0.822566
Si Si2 0.915823 0.363053 0.533246
Si Si3 0.405423 0.631884 0.622577
Si Si4 0.849959 0.040593 0.887165
Si Si5 0.563333 0.243141 0.929431
O O1 0.093526 0.457379 0.850212
O O2 0.127721 0.588622 0.640480
O O3 0.252549 0.523249 0.881467
O O4 0.134879 0.658559 0.915555
O O5 0.873195 0.253638 0.574411
O O6 0.007355 0.317024 0.526082
O O7 0.500000 0.634877 0.750000
O O8 0.351289 0.564942 0.712044
O O9 0.403401 0.565494 0.467052
O O10 0.893364 0.146336 0.988868
O O11 0.500000 0.261397 0.750000
#
# Coordination Sequence:
#
# PCOD9296719 Si02
#       5
#     8   8   8   8   8
#     4  11  26  45  73 106 150 187 240 302 369 431
#     4  11  26  49  73 107 145 198 241 299 361 445
#     4  12  27  47  77 104 145 192 249 299 364 436
#     4  12  26  45  73 108 145 189 242 308 365 424
#     4  10  23  45  74 103 144 192 246 294 360 441
#
# _framework density 23.506891
#
# number of rings (size 3 to 8) (size 9 to 14) (size 15 to 20)
#    0.000    0.800    2.000    3.600    8.400    5.600 
#    0.000    0.000    0.000    0.000    0.000    0.000 
#    0.000    0.000    0.000    0.000    0.000    0.000 
#
# Total GULP energy -112041.953202 kJ/mol
# GULP energy per Si atom -5602.097660 kJ/mol
# Density = 2.345339 g / cm^3
# Si number density = 23.506891 Si / 1000 Ang^3
#
#
#
# Elastic Constant Matrix: (Units=GPa)
#
#
# Indices 1 2 3 4 5 6 
#
# 1 94.8247 6.4225 30.9709 0.0000 4.9794 0.0000
# 2 6.4225 121.3395 49.6323 0.0000 11.7485 0.0000
# 3 30.9709 49.6323 100.3983 0.0000 -4.9341 0.0000
# 4 0.0000 0.0000 0.0000 46.5919 0.0000 -1.1169
# 5 4.9794 11.7485 -4.9341 0.0000 24.8525 0.0000
# 6 0.0000 0.0000 0.0000 -1.1169 0.0000 8.5812
#
#
#
# Elastic Compliance Matrix: (Units=1/GPa)
#
#
# Indices 1 2 3 4 5 6 
#
# 1 0.012232 0.001744 -0.004844 0.000000 -0.004237 0.000000
# 2 0.001744 0.011532 -0.006588 0.000000 -0.007109 0.000000
# 3 -0.004844 -0.006588 0.015059 0.000000 0.007075 0.000000
# 4 0.000000 0.000000 0.000000 0.021530 0.000000 0.002802
# 5 -0.004237 -0.007109 0.007075 0.000000 0.045852 0.000000
# 6 0.000000 0.000000 0.000000 0.002802 0.000000 0.116898
#
#
# Mechanical properties :
#
#
# Convention : Reuss Voigt Hill
#
# Bulk Modulus (GPa) = 51.42073 54.51266 52.96669
# Shear Modulus (GPa) = 20.08337 31.30759 25.69548
#
# Velocity S-wave (km/s) = 2.92612 3.65341 3.30980
# Velocity P-wave (km/s) = 5.77395 6.40601 6.09817
#
# Compressibility (1/GPa) = 0.01944741
#
# Stress axis : x y z
#
# Youngs Moduli (GPa) = 81.75154 86.71333 66.40436
#
# Poissons Ratio (x) = -0.15124 0.32165
# Poissons Ratio (y) = -0.14258 0.43750
# Poissons Ratio (z) = 0.39599 0.57130
#
# Static dielectric constant tensor:
#      x y z
#    x 1.876480 0.000000 -0.046780 
#    y 0.000000 1.840370 0.000000 
#    z -0.046780 0.000000 1.922510 
# 
# From -- ./inp_files/46267.got.cif
#   From: 2010.05.17/outbox.cif.g08.bks.cpg/sg15_24_cif.got.tgz:46267.got - 2010.06.03 18:47:42.
