data_PCOD9296962
_publ_section_title
;
Structure prediction by ZEFSAII (Michael W. Deem and Ramdas Pophale) SiO2 
 PCOD9296962
Probable space group: C 2/C
;
_chemical_formula_sum "Si O2"
_cell_formula_units_Z 24
_cell_length_a 7.174633
_cell_length_b 16.784202
_cell_length_c 12.321922
_cell_angle_alpha 90.000000
_cell_angle_beta 42.883483
_cell_angle_gamma 90.000000
_cell_volume 1009.748327
_symmetry_space_group_name_H-M "C 2/C"
_symmetry_group_IT_number 15
_symmetry_cell_setting 'monoclinic'
loop_
_space_group_symop_operation_xyz
x,y,z
-x,y,1/2-z
-x,-y,-z
x,-y,1/2+z
1/2+x,1/2+y,z
1/2-x,1/2+y,1/2-z
1/2-x,1/2-y,-z
1/2+x,1/2-y,1/2+z
loop_
_atom_site_type_symbol
_atom_site_label
_atom_site_fract_x
_atom_site_fract_y
_atom_site_fract_z
Si Si1 0.566300 0.236826 0.833055
Si Si2 0.946542 0.367651 0.557881
Si Si3 0.286691 0.014031 0.935949
O O1 0.500000 0.191528 0.750000
O O2 0.753371 0.311527 0.716403
O O3 0.250000 0.250000 0.000000
O O4 0.656681 0.187221 0.898561
O O5 0.787929 0.421003 0.533542
O O6 0.112371 0.431008 0.555916
O O7 0.500000 0.031924 0.750000
O O8 0.000000 0.000000 0.000000
#
# Coordination Sequence:
#
# PCOD9296962 Si02
#       3
#     8   8   8
#     4   9  19  37  76 108 152 194 245 315 382 450
#     4  10  23  46  75 111 152 200 250 320 387 447
#     4  11  27  47  79 108 155 205 263 309 380 464
#
# _framework density 23.768297
#
# number of rings (size 3 to 8) (size 9 to 14) (size 15 to 20)
#    0.000    2.000    0.000    1.000   14.000    4.000 
#    0.000    5.000    0.000    0.000    0.000    0.000 
#    0.000    0.000    0.000    0.000    0.000    0.000 
#
# Total GULP energy -66879.655477 kJ/mol
# GULP energy per Si atom -5573.304623 kJ/mol
# Density = 2.371420 g / cm^3
# Si number density = 23.768297 Si / 1000 Ang^3
#
#
#
# Elastic Constant Matrix: (Units=GPa)
#
#
# Indices 1 2 3 4 5 6 
#
# 1 153.7201 92.6014 69.5005 0.0000 -6.5150 0.0000
# 2 92.6014 222.9732 117.6452 0.0000 7.4295 0.0000
# 3 69.5005 117.6452 192.4390 0.0000 5.1328 0.0000
# 4 0.0000 0.0000 0.0000 61.2424 0.0000 8.7850
# 5 -6.5150 7.4295 5.1328 0.0000 31.6508 0.0000
# 6 0.0000 0.0000 0.0000 8.7850 0.0000 13.4602
#
#
#
# Elastic Compliance Matrix: (Units=1/GPa)
#
#
# Indices 1 2 3 4 5 6 
#
# 1 0.009179 -0.003127 -0.001480 0.000000 0.002863 0.000000
# 2 -0.003127 0.007711 -0.003535 0.000000 -0.001880 0.000000
# 3 -0.001480 -0.003535 0.007912 0.000000 -0.000758 0.000000
# 4 0.000000 0.000000 0.000000 0.018015 0.000000 -0.011758
# 5 0.002863 -0.001880 -0.000758 0.000000 0.032749 0.000000
# 6 0.000000 0.000000 0.000000 -0.011758 0.000000 0.081967
#
#
# Mechanical properties :
#
#
# Convention : Reuss Voigt Hill
#
# Bulk Modulus (GPa) = 117.37660 125.40293 121.38977
# Shear Modulus (GPa) = 28.30355 40.56303 34.43329
#
# Velocity S-wave (km/s) = 3.45456 4.13559 3.81032
# Velocity P-wave (km/s) = 8.08720 8.69938 8.39887
#
# Compressibility (1/GPa) = 0.00851959
#
# Stress axis : x y z
#
# Youngs Moduli (GPa) = 108.93933 129.68531 126.38937
#
# Poissons Ratio (x) = 0.40549 0.18707
# Poissons Ratio (y) = 0.34062 0.44674
# Poissons Ratio (z) = 0.16124 0.45839
#
# Static dielectric constant tensor:
#      x y z
#    x 1.988230 0.000000 0.167850 
#    y 0.000000 2.066150 0.000000 
#    z 0.167850 0.000000 2.547470 
# 
# From -- ./inp_files/75929.got.cif
#   From: 2010.05.17/outbox.cif.g08.bks.cpg/sg15_38_cif.got.tgz:75929.got - 2010.06.03 18:47:42.
