data_PCOD9296511
_publ_section_title
;
Structure prediction by ZEFSAII (Michael W. Deem and Ramdas Pophale) SiO2 
 PCOD9296511
Probable space group: C 2/C
;
_chemical_formula_sum "Si O2"
_cell_formula_units_Z 52
_cell_length_a 21.133055
_cell_length_b 12.870680
_cell_length_c 8.003123
_cell_angle_alpha 90.000000
_cell_angle_beta 91.861768
_cell_angle_gamma 90.000000
_cell_volume 2175.674644
_symmetry_space_group_name_H-M "C 2/C"
_symmetry_group_IT_number 15
_symmetry_cell_setting 'monoclinic'
loop_
_space_group_symop_operation_xyz
x,y,z
-x,y,1/2-z
-x,-y,-z
x,-y,1/2+z
1/2+x,1/2+y,z
1/2-x,1/2+y,1/2-z
1/2-x,1/2-y,-z
1/2+x,1/2-y,1/2+z
loop_
_atom_site_type_symbol
_atom_site_label
_atom_site_fract_x
_atom_site_fract_y
_atom_site_fract_z
Si Si1 0.000000 0.797385 0.250000
Si Si2 0.885159 0.358345 0.213723
Si Si3 0.370259 0.597788 0.756605
Si Si4 0.299688 0.059304 0.165369
Si Si5 0.997567 0.624848 0.524435
Si Si6 0.705202 0.430374 0.930700
Si Si7 0.675104 0.752498 0.020902
O O1 0.057452 0.873300 0.202930
O O2 0.016369 0.714719 0.396130
O O3 0.841203 0.459679 0.218931
O O4 0.921731 0.351950 0.042136
O O5 0.844901 0.264401 0.288338
O O6 0.947960 0.363222 0.331673
O O7 0.347783 0.483311 0.693615
O O8 0.328480 0.626435 0.916853
O O9 0.354486 0.662811 0.589638
O O10 0.246495 0.017991 0.032796
O O11 0.343213 0.139994 0.072912
O O12 0.261064 0.111224 0.314938
O O13 0.000000 0.500000 0.500000
O O14 0.750000 0.750000 0.000000
#
# Coordination Sequence:
#
# PCOD9296511 Si02
#       7
#     4   8   8   8   8   8   8
#     4  12  26  46  70 102 132 178 240 280 316 400
#     4  11  23  41  65  99 137 183 214 264 345 404
#     4  11  25  45  68  96 131 178 233 289 329 401
#     4  11  21  39  69 100 136 178 215 270 341 417
#     4  11  25  42  65  98 144 183 214 270 331 414
#     4  10  23  45  66  96 135 176 225 282 354 386
#     4  12  22  40  68 100 136 171 226 283 328 395
#
# _framework density 23.900632999999999
#
# number of rings (size 3 to 8) (size 9 to 14) (size 15 to 20)
#    0.000    0.923    4.615    2.769    2.154    2.462 
#    0.000    0.000    0.000    0.000    0.000    0.000 
#    0.000    0.000    0.000    0.000    0.000    0.000 
#
# Total GULP energy -144963.188107 kJ/mol
# GULP energy per Si atom -5575.507235 kJ/mol
# Density = 2.384623 g / cm^3
# Si number density = 23.900633 Si / 1000 Ang^3
#
#
#
# Elastic Constant Matrix: (Units=GPa)
#
#
# Indices 1 2 3 4 5 6 
#
# 1 128.1563 22.4125 23.9892 0.0000 -25.3951 0.0000
# 2 22.4125 54.7456 11.7941 0.0000 -4.9285 0.0000
# 3 23.9892 11.7941 56.6520 0.0000 -30.0459 0.0000
# 4 0.0000 0.0000 0.0000 35.0136 0.0000 3.3294
# 5 -25.3951 -4.9285 -30.0459 0.0000 51.0863 0.0000
# 6 0.0000 0.0000 0.0000 3.3294 0.0000 -7.8759
#
#
#
# Elastic Compliance Matrix: (Units=1/GPa)
#
#
# Indices 1 2 3 4 5 6 
#
# 1 0.009320 -0.003193 -0.001436 0.000000 0.003480 0.000000
# 2 -0.003193 0.020236 -0.003876 0.000000 -0.001915 0.000000
# 3 -0.001436 -0.003876 0.026872 0.000000 0.014717 0.000000
# 4 0.000000 0.000000 0.000000 0.027457 0.000000 0.011607
# 5 0.003480 -0.001915 0.014717 0.000000 0.029776 0.000000
# 6 0.000000 0.000000 0.000000 0.011607 0.000000 -0.122063
#
#
# Mechanical properties :
#
#
# Convention : Reuss Voigt Hill
#
# Bulk Modulus (GPa) = 25.36946 39.54949 32.45948
# Shear Modulus (GPa) = 229.92521 27.73532 128.83026
#
# Velocity S-wave (km/s) = 9.81882 3.41022 7.34979
# Velocity P-wave (km/s) = 11.79760 5.66476 9.25400
#
# Compressibility (1/GPa) = 0.03941747
#
# Stress axis : x y z
#
# Youngs Moduli (GPa) = 107.29857 49.41652 37.21381
#
# Poissons Ratio (x) = 0.15778 0.05344
# Poissons Ratio (y) = 0.34258 0.14426
# Poissons Ratio (z) = 0.15407 0.19156
#
# Static dielectric constant tensor:
#      x y z
#    x 1.930630 0.000000 -0.085270 
#    y 0.000000 1.991180 0.000000 
#    z -0.085270 0.000000 2.119420 
# 
# From -- ./inp_files/55296.got.cif
#   From: 2010.05.17/outbox.cif.g08.bks.cpg/sg15_28_cif.got.tgz:55296.got - 2010.06.03 18:47:42.
