data_PCOD9296675
_publ_section_title
;
Structure prediction by ZEFSAII (Michael W. Deem and Ramdas Pophale) SiO2 
 PCOD9296675
Probable space group: C 2/C
;
_chemical_formula_sum "Si O2"
_cell_formula_units_Z 40
_cell_length_a 14.704569
_cell_length_b 24.279063
_cell_length_c 8.443343
_cell_angle_alpha 90.000000
_cell_angle_beta 140.580628
_cell_angle_gamma 90.000000
_cell_volume 1914.109291
_symmetry_space_group_name_H-M "C 2/C"
_symmetry_group_IT_number 15
_symmetry_cell_setting 'monoclinic'
loop_
_space_group_symop_operation_xyz
x,y,z
-x,y,1/2-z
-x,-y,-z
x,-y,1/2+z
1/2+x,1/2+y,z
1/2-x,1/2+y,1/2-z
1/2-x,1/2-y,-z
1/2+x,1/2-y,1/2+z
loop_
_atom_site_type_symbol
_atom_site_label
_atom_site_fract_x
_atom_site_fract_y
_atom_site_fract_z
Si Si1 0.900421 0.541068 0.765311
Si Si2 0.119297 0.289349 0.785582
Si Si3 0.288255 0.125543 0.864401
Si Si4 0.111871 0.972017 0.268140
Si Si5 0.150886 0.768876 0.012792
O O1 0.873297 0.593016 0.842864
O O2 0.748527 0.510568 0.509173
O O3 0.000000 0.555713 0.750000
O O4 0.000000 0.500000 0.000000
O O5 0.105701 0.278802 0.579628
O O6 0.000000 0.268856 0.750000
O O7 0.250000 0.250000 0.000000
O O8 0.143886 0.351418 0.879933
O O9 0.175363 0.080811 0.767912
O O10 0.229195 0.180852 0.705180
O O11 0.000000 0.953532 0.250000
O O12 0.000000 0.000000 0.000000
O O13 0.250000 0.750000 0.000000
O O14 0.000000 0.791256 0.750000
#
# Coordination Sequence:
#
# PCOD9296675 Si02
#       5
#     8   8   8   8   8
#     4  12  25  47  71 108 150 193 246 303 360 443
#     4  10  23  45  72 102 142 185 244 297 368 443
#     4  11  26  43  75 103 144 198 241 293 381 433
#     4  12  25  46  72 104 149 192 242 299 360 444
#     4  11  25  47  72 107 146 185 247 311 366 445
#
# _framework density 20.897449999999999
#
# number of rings (size 3 to 8) (size 9 to 14) (size 15 to 20)
#    0.000    0.800    4.000    2.400    5.600    7.200 
#    0.000    0.000    0.000    0.000    0.000    0.000 
#    0.000    0.000    0.000    0.000    0.000    0.000 
#
# Total GULP energy -111401.510879 kJ/mol
# GULP energy per Si atom -5570.075544 kJ/mol
# Density = 2.084989 g / cm^3
# Si number density = 20.897450 Si / 1000 Ang^3
#
#
#
# Elastic Constant Matrix: (Units=GPa)
#
#
# Indices 1 2 3 4 5 6 
#
# 1 234.6228 81.1786 45.9867 0.0000 -3.1656 0.0000
# 2 81.1786 131.8058 53.0877 0.0000 -7.7671 0.0000
# 3 45.9867 53.0877 107.3192 0.0000 6.3057 0.0000
# 4 0.0000 0.0000 0.0000 41.2899 0.0000 0.6298
# 5 -3.1656 -7.7671 6.3057 0.0000 43.0505 0.0000
# 6 0.0000 0.0000 0.0000 0.6298 0.0000 48.1350
#
#
#
# Elastic Compliance Matrix: (Units=1/GPa)
#
#
# Indices 1 2 3 4 5 6 
#
# 1 0.005477 -0.003034 -0.000845 0.000000 -0.000021 0.000000
# 2 -0.003034 0.011412 -0.004491 0.000000 0.002494 0.000000
# 3 -0.000845 -0.004491 0.012057 0.000000 -0.002638 0.000000
# 4 0.000000 0.000000 0.000000 0.024224 0.000000 -0.000317
# 5 -0.000021 0.002494 -0.002638 0.000000 0.024063 0.000000
# 6 0.000000 0.000000 0.000000 -0.000317 0.000000 0.020779
#
#
# Mechanical properties :
#
#
# Convention : Reuss Voigt Hill
#
# Bulk Modulus (GPa) = 81.93524 92.69485 87.31505
# Shear Modulus (GPa) = 42.07996 46.06141 44.07068
#
# Velocity S-wave (km/s) = 4.49223 4.69995 4.59726
# Velocity P-wave (km/s) = 8.13635 8.59686 8.36977
#
# Compressibility (1/GPa) = 0.01220476
#
# Stress axis : x y z
#
# Youngs Moduli (GPa) = 182.56928 87.62895 82.94121
#
# Poissons Ratio (x) = 0.26591 0.07007
# Poissons Ratio (y) = 0.55400 0.37251
# Poissons Ratio (z) = 0.15423 0.39357
#
# Static dielectric constant tensor:
#      x y z
#    x -13.768000 0.000000 8.621050 
#    y 0.000000 1.735050 0.000000 
#    z 8.621050 0.000000 -2.966600 
# 
# From -- ./inp_files/42417.got.cif
#   From: 2010.05.17/outbox.cif.g08.bks.cpg/sg15_22_cif.got.tgz:42417.got - 2010.06.03 18:47:42.
