data_PCOD9296021
_publ_section_title
;
Structure prediction by ZEFSAII (Michael W. Deem and Ramdas Pophale) SiO2 
 PCOD9296021
Probable space group: C 2/C
;
_chemical_formula_sum "Si O2"
_cell_formula_units_Z 48
_cell_length_a 13.037433
_cell_length_b 21.230053
_cell_length_c 8.524765
_cell_angle_alpha 90.000000
_cell_angle_beta 112.155074
_cell_angle_gamma 90.000000
_cell_volume 2185.318205
_symmetry_space_group_name_H-M "C 2/C"
_symmetry_group_IT_number 15
_symmetry_cell_setting 'monoclinic'
loop_
_space_group_symop_operation_xyz
x,y,z
-x,y,1/2-z
-x,-y,-z
x,-y,1/2+z
1/2+x,1/2+y,z
1/2-x,1/2+y,1/2-z
1/2-x,1/2-y,-z
1/2+x,1/2-y,1/2+z
loop_
_atom_site_type_symbol
_atom_site_label
_atom_site_fract_x
_atom_site_fract_y
_atom_site_fract_z
Si Si1 0.483921 0.430073 0.056537
Si Si2 0.173345 0.149901 0.501756
Si Si3 0.000000 0.559058 0.750000
Si Si4 0.500000 0.741046 0.250000
Si Si5 0.737201 0.082808 0.449067
Si Si6 0.361973 0.163446 0.848849
Si Si7 0.689730 0.961080 0.587679
O O1 0.500000 0.430649 0.250000
O O2 0.576977 0.387906 0.032893
O O3 0.500000 0.500000 0.000000
O O4 0.360490 0.404011 0.956844
O O5 0.105851 0.200275 0.361762
O O6 0.255545 0.178896 0.679372
O O7 0.244297 0.098645 0.445182
O O8 0.083603 0.601896 0.697795
O O9 0.923169 0.529104 0.573302
O O10 0.544301 0.784143 0.130690
O O11 0.678614 0.141069 0.503009
O O12 0.674466 0.054565 0.261297
O O13 0.752668 0.026293 0.586000
#
# Coordination Sequence:
#
# PCOD9296021 Si02
#       7
#     8   8   4   4   8   8   8
#     4  12  23  38  66 103 140 172 209 274 352 405
#     4  11  22  43  68  98 133 176 225 285 336 406
#     4   9  22  42  66  92 132 186 221 278 344 405
#     4  11  24  44  74  92 130 190 235 268 340 405
#     4  12  23  39  65 102 141 173 221 284 337 414
#     4  10  23  44  65  93 131 181 231 278 331 398
#     4  11  23  39  66 104 135 174 225 277 352 405
#
# _framework density 21.964765
#
# number of rings (size 3 to 8) (size 9 to 14) (size 15 to 20)
#    0.000    1.000    3.333    4.500    1.167    3.333 
#    0.000    3.333    7.333    0.000    0.000    0.000 
#    0.000    0.000    0.000    0.000    0.000    0.000 
#
# Total GULP energy -134105.548891 kJ/mol
# GULP energy per Si atom -5587.731204 kJ/mol
# Density = 2.191477 g / cm^3
# Si number density = 21.964765 Si / 1000 Ang^3
#
#
#
# Elastic Constant Matrix: (Units=GPa)
#
#
# Indices 1 2 3 4 5 6 
#
# 1 127.3489 39.8568 49.1362 0.0000 -3.5922 0.0000
# 2 39.8568 71.8253 24.8787 0.0000 -13.5146 0.0000
# 3 49.1362 24.8787 117.7937 0.0000 -8.6154 0.0000
# 4 0.0000 0.0000 0.0000 14.3803 0.0000 0.1313
# 5 -3.5922 -13.5146 -8.6154 0.0000 42.3120 0.0000
# 6 0.0000 0.0000 0.0000 0.1313 0.0000 43.6324
#
#
#
# Elastic Compliance Matrix: (Units=1/GPa)
#
#
# Indices 1 2 3 4 5 6 
#
# 1 0.010739 -0.005002 -0.003526 0.000000 -0.001404 0.000000
# 2 -0.005002 0.018130 -0.001371 0.000000 0.005087 0.000000
# 3 -0.003526 -0.001371 0.010350 0.000000 0.001370 0.000000
# 4 0.000000 0.000000 0.000000 0.069542 0.000000 -0.000209
# 5 -0.001404 0.005087 0.001370 0.000000 0.025419 0.000000
# 6 0.000000 0.000000 0.000000 -0.000209 0.000000 0.022919
#
#
# Mechanical properties :
#
#
# Convention : Reuss Voigt Hill
#
# Bulk Modulus (GPa) = 51.48767 60.52346 56.00556
# Shear Modulus (GPa) = 27.26741 33.60468 30.43605
#
# Velocity S-wave (km/s) = 3.52720 3.91568 3.72651
# Velocity P-wave (km/s) = 6.33088 6.93239 6.63845
#
# Compressibility (1/GPa) = 0.01942213
#
# Stress axis : x y z
#
# Youngs Moduli (GPa) = 93.12122 55.15640 96.61973
#
# Poissons Ratio (x) = 0.27589 0.34066
# Poissons Ratio (y) = 0.46579 0.13243
# Poissons Ratio (z) = 0.32832 0.07560
#
# Static dielectric constant tensor:
#      x y z
#    x 1.761840 0.000000 -0.058810 
#    y 0.000000 1.820640 0.000000 
#    z -0.058810 0.000000 1.727760 
# 
# From -- ./inp_files/32683.got.cif
#   From: 2010.05.17/outbox.cif.g08.bks.cpg/sg15_17_cif.got.tgz:32683.got - 2010.06.03 18:47:42.
