data_PCOD9296605
_publ_section_title
;
Structure prediction by ZEFSAII (Michael W. Deem and Ramdas Pophale) SiO2 
 PCOD9296605
Probable space group: C 2/C
;
_chemical_formula_sum "Si O2"
_cell_formula_units_Z 52
_cell_length_a 24.109182
_cell_length_b 9.303742
_cell_length_c 24.372406
_cell_angle_alpha 90.000000
_cell_angle_beta 155.283390
_cell_angle_gamma 90.000000
_cell_volume 2285.863617
_symmetry_space_group_name_H-M "C 2/C"
_symmetry_group_IT_number 15
_symmetry_cell_setting 'monoclinic'
loop_
_space_group_symop_operation_xyz
x,y,z
-x,y,1/2-z
-x,-y,-z
x,-y,1/2+z
1/2+x,1/2+y,z
1/2-x,1/2+y,1/2-z
1/2-x,1/2-y,-z
1/2+x,1/2-y,1/2+z
loop_
_atom_site_type_symbol
_atom_site_label
_atom_site_fract_x
_atom_site_fract_y
_atom_site_fract_z
Si Si1 0.889276 0.369042 0.835325
Si Si2 0.915807 0.338080 0.589874
Si Si3 0.844503 0.635905 0.856713
Si Si4 0.500000 0.937884 0.250000
Si Si5 0.231205 0.985134 0.852593
Si Si6 0.450258 0.482947 0.143928
Si Si7 0.237819 0.705250 0.925562
O O1 0.862402 0.541937 0.817354
O O2 0.761496 0.266371 0.732561
O O3 0.954970 0.345873 0.833974
O O4 0.011100 0.329745 0.987013
O O5 0.914272 0.456341 0.635970
O O6 0.793179 0.382275 0.441932
O O7 0.908259 0.181971 0.608769
O O8 0.785189 0.507957 0.841145
O O9 0.414206 0.843669 0.214652
O O10 0.272287 0.835312 0.916947
O O11 0.075576 0.997666 0.717512
O O12 0.500000 0.527530 0.250000
O O13 0.334937 0.571741 0.011504
O O14 0.250000 0.750000 0.000000
#
# Coordination Sequence:
#
# PCOD9296605 Si02
#       7
#     8   8   8   4   8   8   8
#     4  10  23  45  69  98 135 170 222 276 337 389
#     4  11  24  40  65  94 131 171 218 269 322 389
#     4  10  23  46  71  99 131 173 219 282 331 401
#     4  12  24  38  64  92 132 180 216 266 320 390
#     4  11  24  44  63  93 135 169 219 271 322 395
#     4  12  23  38  66  92 127 173 216 261 322 392
#     4  12  24  39  59  90 130 172 213 261 323 381
#
# _framework density 22.748512999999999
#
# number of rings (size 3 to 8) (size 9 to 14) (size 15 to 20)
#    0.000    0.923    5.385    0.923    2.154    3.077 
#    5.538    0.000    0.000    0.000    0.000    0.000 
#    0.000    0.000    0.000    0.000    0.000    0.000 
#
# Total GULP energy -145263.308869 kJ/mol
# GULP energy per Si atom -5587.050341 kJ/mol
# Density = 2.269674 g / cm^3
# Si number density = 22.748513 Si / 1000 Ang^3
#
#
#
# Elastic Constant Matrix: (Units=GPa)
#
#
# Indices 1 2 3 4 5 6 
#
# 1 39.8287 8.7180 9.0773 -0.0001 5.8985 0.0000
# 2 8.7180 102.8543 25.9664 -0.0001 2.7352 0.0000
# 3 9.0773 25.9664 70.0261 0.0000 28.2628 0.0000
# 4 -0.0001 -0.0001 0.0000 32.3243 0.0000 2.9555
# 5 5.8985 2.7352 28.2628 0.0000 29.2163 0.0000
# 6 0.0000 0.0000 0.0000 2.9555 0.0000 34.7795
#
#
#
# Elastic Compliance Matrix: (Units=1/GPa)
#
#
# Indices 1 2 3 4 5 6 
#
# 1 0.026367 -0.001856 -0.001069 0.000000 -0.004116 0.000000
# 2 -0.001856 0.011259 -0.006005 0.000000 0.005129 0.000000
# 3 -0.001069 -0.006005 0.026792 0.000000 -0.025140 0.000000
# 4 0.000000 0.000000 0.000000 0.031179 0.000000 -0.002650
# 5 -0.004116 0.005129 -0.025140 0.000000 0.058897 0.000000
# 6 0.000000 0.000000 0.000000 -0.002650 0.000000 0.028978
#
#
# Mechanical properties :
#
#
# Convention : Reuss Voigt Hill
#
# Bulk Modulus (GPa) = 21.47761 33.35915 27.41838
# Shear Modulus (GPa) = 23.05740 30.52719 26.79229
#
# Velocity S-wave (km/s) = 3.18713 3.66723 3.43557
# Velocity P-wave (km/s) = 4.79641 5.71205 5.27414
#
# Compressibility (1/GPa) = 0.04656011
#
# Stress axis : x y z
#
# Youngs Moduli (GPa) = 37.92648 88.81532 37.32452
#
# Poissons Ratio (x) = 0.16481 0.03989
# Poissons Ratio (y) = 0.07038 0.22412
# Poissons Ratio (z) = 0.04053 0.53331
#
# Static dielectric constant tensor:
#      x y z
#    x 2.133470 0.000000 -0.052540 
#    y 0.000000 1.865340 0.000000 
#    z -0.052540 0.000000 1.948650 
# 
# From -- ./inp_files/320210.got.cif
#   From: 2010.05.17/outbox.cif.g08.bks.cpg/sg15_161_cif.got.tgz:320210.got - 2010.06.03 18:47:42.
