data_PCOD9296462
_publ_section_title
;
Structure prediction by ZEFSAII (Michael W. Deem and Ramdas Pophale) SiO2 
 PCOD9296462
Probable space group: C 2/C
;
_chemical_formula_sum "Si O2"
_cell_formula_units_Z 40
_cell_length_a 29.911391
_cell_length_b 6.375736
_cell_length_c 12.356116
_cell_angle_alpha 90.000000
_cell_angle_beta 51.928418
_cell_angle_gamma 90.000000
_cell_volume 1855.054183
_symmetry_space_group_name_H-M "C 2/C"
_symmetry_group_IT_number 15
_symmetry_cell_setting 'monoclinic'
loop_
_space_group_symop_operation_xyz
x,y,z
-x,y,1/2-z
-x,-y,-z
x,-y,1/2+z
1/2+x,1/2+y,z
1/2-x,1/2+y,1/2-z
1/2-x,1/2-y,-z
1/2+x,1/2-y,1/2+z
loop_
_atom_site_type_symbol
_atom_site_label
_atom_site_fract_x
_atom_site_fract_y
_atom_site_fract_z
Si Si1 0.864638 0.885612 0.799870
Si Si2 0.075018 0.724375 0.406993
Si Si3 0.530550 0.872859 0.309766
Si Si4 0.673919 0.934734 0.329688
Si Si5 0.279313 0.353203 0.560759
O O1 0.914659 0.768885 0.788470
O O2 0.838357 0.731997 0.748385
O O3 0.892991 0.080629 0.693880
O O4 0.818438 0.965573 0.953434
O O5 0.052032 0.564362 0.350368
O O6 0.120988 0.593047 0.407489
O O7 0.018154 0.767442 0.559619
O O8 0.500000 0.958183 0.250000
O O9 0.683741 0.813416 0.426879
O O10 0.730813 0.058900 0.212163
O O11 0.250000 0.250000 0.500000
#
# Coordination Sequence:
#
# PCOD9296462 Si02
#       5
#     8   8   8   8   8
#     4  11  24  44  68  98 135 177 222 274 337 401
#     4  10  23  45  63  97 136 171 225 271 335 392
#     4  10  24  40  68  97 133 174 220 277 327 400
#     4  11  26  43  68 100 136 175 223 287 327 408
#     4  12  25  45  70  98 133 179 222 277 343 396
#
# _framework density 21.562712000000001
#
# number of rings (size 3 to 8) (size 9 to 14) (size 15 to 20)
#    0.000    1.200    2.000    2.400    5.600    0.800 
#    0.000    0.000    0.000    0.000    0.000    0.000 
#    0.000    0.000    0.000    0.000    0.000    0.000 
#
# Total GULP energy -111915.839674 kJ/mol
# GULP energy per Si atom -5595.791984 kJ/mol
# Density = 2.151363 g / cm^3
# Si number density = 21.562712 Si / 1000 Ang^3
#
#
#
# Elastic Constant Matrix: (Units=GPa)
#
#
# Indices 1 2 3 4 5 6 
#
# 1 134.0632 20.3815 14.2180 0.0000 -2.4462 0.0000
# 2 20.3815 34.4054 -12.2374 0.0000 -3.8765 0.0000
# 3 14.2180 -12.2374 42.6528 0.0000 -13.2103 0.0000
# 4 0.0000 0.0000 0.0000 26.0060 0.0000 -7.1745
# 5 -2.4462 -3.8765 -13.2103 0.0000 31.8391 0.0000
# 6 0.0000 0.0000 0.0000 -7.1745 0.0000 17.7442
#
#
#
# Elastic Compliance Matrix: (Units=1/GPa)
#
#
# Indices 1 2 3 4 5 6 
#
# 1 0.009305 -0.008085 -0.006317 0.000000 -0.002890 0.000000
# 2 -0.008085 0.041775 0.018432 0.000000 0.012113 0.000000
# 3 -0.006317 0.018432 0.036011 0.000000 0.016700 0.000000
# 4 0.000000 0.000000 0.000000 0.043280 0.000000 0.017500
# 5 -0.002890 0.012113 0.016700 0.000000 0.039590 0.000000
# 6 0.000000 0.000000 0.000000 0.017500 0.000000 0.063432
#
#
# Mechanical properties :
#
#
# Convention : Reuss Voigt Hill
#
# Bulk Modulus (GPa) = 10.50933 28.42729 19.46831
# Shear Modulus (GPa) = 19.45140 27.70181 23.57661
#
# Velocity S-wave (km/s) = 3.00673 3.58817 3.31024
# Velocity P-wave (km/s) = 4.11562 5.51170 4.86401
#
# Compressibility (1/GPa) = 0.09515354
#
# Stress axis : x y z
#
# Youngs Moduli (GPa) = 107.46368 23.93756 27.76899
#
# Poissons Ratio (x) = 0.19353 0.17541
# Poissons Ratio (y) = 0.86883 -0.51184
# Poissons Ratio (z) = 0.67881 -0.44122
#
# Static dielectric constant tensor:
#      x y z
#    x 1.747340 0.000000 0.010560 
#    y 0.000000 1.755110 0.000000 
#    z 0.010560 0.000000 1.782910 
# 
# From -- ./inp_files/179584.got.cif
#   From: 2010.05.17/outbox.cif.g08.bks.cpg/sg15_90_cif.got.tgz:179584.got - 2010.06.03 18:47:42.
