data_PCOD9296336
_publ_section_title
;
Structure prediction by ZEFSAII (Michael W. Deem and Ramdas Pophale) SiO2 
 PCOD9296336
Probable space group: C 2/C
;
_chemical_formula_sum "Si O2"
_cell_formula_units_Z 60
_cell_length_a 6.032284
_cell_length_b 29.928092
_cell_length_c 15.236783
_cell_angle_alpha 90.000000
_cell_angle_beta 89.456740
_cell_angle_gamma 90.000000
_cell_volume 2750.645169
_symmetry_space_group_name_H-M "C 2/C"
_symmetry_group_IT_number 15
_symmetry_cell_setting 'monoclinic'
loop_
_space_group_symop_operation_xyz
x,y,z
-x,y,1/2-z
-x,-y,-z
x,-y,1/2+z
1/2+x,1/2+y,z
1/2-x,1/2+y,1/2-z
1/2-x,1/2-y,-z
1/2+x,1/2-y,1/2+z
loop_
_atom_site_type_symbol
_atom_site_label
_atom_site_fract_x
_atom_site_fract_y
_atom_site_fract_z
Si Si1 0.055074 0.601530 0.505654
Si Si2 0.139887 0.883301 0.913899
Si Si3 0.495119 0.758799 0.641427
Si Si4 0.000000 0.113846 0.750000
Si Si5 0.004612 0.792620 0.848788
Si Si6 0.104086 0.838278 0.422662
Si Si7 0.155711 0.546316 0.832090
Si Si8 0.100136 0.968334 0.574796
O O1 0.156782 0.647291 0.542455
O O2 0.234905 0.567392 0.468001
O O3 0.900495 0.615712 0.426223
O O4 0.950569 0.571364 0.583667
O O5 0.033773 0.846089 0.853234
O O6 0.081084 0.933964 0.888475
O O7 0.056834 0.866258 0.011529
O O8 0.500000 0.755035 0.750000
O O9 0.747534 0.776774 0.617045
O O10 0.469514 0.712344 0.588416
O O11 0.251679 0.782007 0.619304
O O12 0.105503 0.143335 0.824507
O O13 0.171569 0.082014 0.703025
O O14 0.000000 0.774957 0.750000
O O15 0.275932 0.501160 0.860570
O O16 0.000000 0.537155 0.750000
O O17 0.000000 0.000000 0.500000
#
# Coordination Sequence:
#
# PCOD9296336 Si02
#       8
#     8   8   8   4   8   8   8   8
#     4  11  23  42  65  95 133 179 212 282 343 405
#     4  11  25  43  68  95 133 180 223 282 339 409
#     4  10  23  44  71  99 140 182 224 287 348 409
#     4  12  22  40  62 100 140 160 218 276 336 416
#     4  10  25  48  68  98 138 184 234 286 339 403
#     4  11  23  39  67 103 132 174 221 272 349 411
#     4  12  24  39  64  97 132 172 218 281 337 414
#     4  11  24  44  65  91 131 175 228 272 345 405
#
# _framework density 21.813065999999999
#
# number of rings (size 3 to 8) (size 9 to 14) (size 15 to 20)
#    0.000    1.067    4.667    1.200    5.600    1.067 
#    6.000    0.000    0.000    0.000    0.000    0.000 
#    0.000    0.000    0.000    0.000    0.000    0.000 
#
# Total GULP energy -167071.130690 kJ/mol
# GULP energy per Si atom -5569.037690 kJ/mol
# Density = 2.176342 g / cm^3
# Si number density = 21.813066 Si / 1000 Ang^3
#
#
#
# Elastic Constant Matrix: (Units=GPa)
#
#
# Indices 1 2 3 4 5 6 
#
# 1 115.4666 44.0400 7.0100 0.0000 26.1995 0.0000
# 2 44.0400 114.5051 -2.5392 0.0000 26.1539 0.0000
# 3 7.0100 -2.5392 28.6646 0.0000 5.4954 0.0000
# 4 0.0000 0.0000 0.0000 36.6357 0.0000 5.6080
# 5 26.1995 26.1539 5.4954 0.0000 20.1656 0.0000
# 6 0.0000 0.0000 0.0000 5.6080 0.0000 14.2483
#
#
#
# Elastic Compliance Matrix: (Units=1/GPa)
#
#
# Indices 1 2 3 4 5 6 
#
# 1 0.012480 -0.001620 -0.000517 0.000000 -0.013972 0.000000
# 2 -0.001620 0.013173 0.004679 0.000000 -0.016255 0.000000
# 3 -0.000517 0.004679 0.038472 0.000000 -0.015882 0.000000
# 4 0.000000 0.000000 0.000000 0.029046 0.000000 -0.011432
# 5 -0.013972 -0.016255 -0.015882 0.000000 0.093153 0.000000
# 6 0.000000 0.000000 0.000000 -0.011432 0.000000 0.074683
#
#
# Mechanical properties :
#
#
# Convention : Reuss Voigt Hill
#
# Bulk Modulus (GPa) = 14.44880 39.51757 26.98319
# Shear Modulus (GPa) = 17.92167 28.21828 23.06998
#
# Velocity S-wave (km/s) = 2.86947 3.60062 3.25564
# Velocity P-wave (km/s) = 4.19724 5.95330 5.15066
#
# Compressibility (1/GPa) = 0.06920989
#
# Stress axis : x y z
#
# Youngs Moduli (GPa) = 80.12713 75.91345 25.99303
#
# Poissons Ratio (x) = 0.12298 0.01343
# Poissons Ratio (y) = 0.12981 -0.12163
# Poissons Ratio (z) = 0.04141 -0.35523
#
# Static dielectric constant tensor:
#      x y z
#    x 1.885670 0.000000 0.121330 
#    y 0.000000 1.750500 0.000000 
#    z 0.121330 0.000000 2.044500 
# 
# From -- ./inp_files/186182.got.cif
#   From: 2010.05.17/outbox.cif.g08.bks.cpg/sg15_94_cif.got.tgz:186182.got - 2010.06.03 18:47:42.
