data_PCOD9296685
_publ_section_title
;
Structure prediction by ZEFSAII (Michael W. Deem and Ramdas Pophale) SiO2 
 PCOD9296685
Probable space group: C 2/C
;
_chemical_formula_sum "Si O2"
_cell_formula_units_Z 40
_cell_length_a 16.351440
_cell_length_b 9.597895
_cell_length_c 9.834604
_cell_angle_alpha 90.000000
_cell_angle_beta 101.561441
_cell_angle_gamma 90.000000
_cell_volume 1512.121097
_symmetry_space_group_name_H-M "C 2/C"
_symmetry_group_IT_number 15
_symmetry_cell_setting 'monoclinic'
loop_
_space_group_symop_operation_xyz
x,y,z
-x,y,1/2-z
-x,-y,-z
x,-y,1/2+z
1/2+x,1/2+y,z
1/2-x,1/2+y,1/2-z
1/2-x,1/2-y,-z
1/2+x,1/2-y,1/2+z
loop_
_atom_site_type_symbol
_atom_site_label
_atom_site_fract_x
_atom_site_fract_y
_atom_site_fract_z
Si Si1 0.348323 0.909369 0.951137
Si Si2 0.098261 0.915435 0.306991
Si Si3 0.620976 0.212460 0.559555
Si Si4 0.740878 0.923268 0.294574
Si Si5 0.541591 0.353456 0.954798
O O1 0.602590 0.945611 0.006264
O O2 0.301551 0.942707 0.793592
O O3 0.285705 0.903402 0.059230
O O4 0.406772 0.775563 0.964927
O O5 0.000000 0.875035 0.250000
O O6 0.098252 0.071469 0.364014
O O7 0.160822 0.924395 0.201108
O O8 0.698597 0.194929 0.685565
O O9 0.633144 0.311180 0.433346
O O10 0.542213 0.272303 0.612752
O O11 0.500000 0.500000 0.000000
#
# Coordination Sequence:
#
# PCOD9296685 Si02
#       5
#     8   8   8   8   8
#     4  10  24  44  78 108 153 202 264 310 390 459
#     4  11  25  44  74 112 156 201 257 327 396 456
#     4   9  23  46  72 105 154 198 263 312 387 458
#     4  10  25  46  78 110 153 203 262 317 385 470
#     4  10  23  45  72 110 153 201 256 317 388 454
#
# _framework density 26.452908999999998
#
# number of rings (size 3 to 8) (size 9 to 14) (size 15 to 20)
#    1.200    0.800    0.000    1.200    2.800   10.400 
#    0.000    0.000    0.000    0.000    0.000    0.000 
#    0.000    0.000    0.000    0.000    0.000    0.000 
#
# Total GULP energy -111644.727952 kJ/mol
# GULP energy per Si atom -5582.236398 kJ/mol
# Density = 2.639270 g / cm^3
# Si number density = 26.452909 Si / 1000 Ang^3
#
#
#
# Elastic Constant Matrix: (Units=GPa)
#
#
# Indices 1 2 3 4 5 6 
#
# 1 126.4385 75.8179 17.4308 0.0000 12.9927 0.0000
# 2 75.8179 212.3752 53.2859 0.0000 13.6112 0.0000
# 3 17.4308 53.2859 75.7188 0.0000 -1.5654 0.0000
# 4 0.0000 0.0000 0.0000 46.5956 0.0000 26.6236
# 5 12.9927 13.6112 -1.5654 0.0000 22.2292 0.0000
# 6 0.0000 0.0000 0.0000 26.6236 0.0000 42.6172
#
#
#
# Elastic Compliance Matrix: (Units=1/GPa)
#
#
# Indices 1 2 3 4 5 6 
#
# 1 0.010387 -0.003441 -0.000052 0.000000 -0.003968 0.000000
# 2 -0.003441 0.007196 -0.004328 0.000000 -0.002700 0.000000
# 3 -0.000052 -0.004328 0.016343 0.000000 0.003831 0.000000
# 4 0.000000 0.000000 0.000000 0.033374 0.000000 -0.020849
# 5 -0.003968 -0.002700 0.003831 0.000000 0.049228 0.000000
# 6 0.000000 0.000000 0.000000 -0.020849 0.000000 0.036489
#
#
# Mechanical properties :
#
#
# Convention : Reuss Voigt Hill
#
# Bulk Modulus (GPa) = 54.68712 78.62239 66.65475
# Shear Modulus (GPa) = 28.61168 40.15493 34.38330
#
# Velocity S-wave (km/s) = 3.29235 3.90035 3.60918
# Velocity P-wave (km/s) = 5.93052 7.07600 6.52843
#
# Compressibility (1/GPa) = 0.01828584
#
# Stress axis : x y z
#
# Youngs Moduli (GPa) = 96.27241 138.96728 61.18667
#
# Poissons Ratio (x) = 0.47818 0.00316
# Poissons Ratio (y) = 0.33127 0.26480
# Poissons Ratio (z) = 0.00498 0.60141
#
# Static dielectric constant tensor:
#      x y z
#    x 2.083740 0.000000 -0.058970 
#    y 0.000000 2.040710 0.000000 
#    z -0.058970 0.000000 2.357040 
# 
# From -- ./inp_files/208310.got.cif
#   From: 2010.05.17/outbox.cif.g08.bks.cpg/sg15_105_cif.got.tgz:208310.got - 2010.06.03 18:47:42.
