data_PCOD9296059
_publ_section_title
;
Structure prediction by ZEFSAII (Michael W. Deem and Ramdas Pophale) SiO2 
 PCOD9296059
Probable space group: C 2/C
;
_chemical_formula_sum "Si O2"
_cell_formula_units_Z 40
_cell_length_a 8.405319
_cell_length_b 16.619164
_cell_length_c 20.534647
_cell_angle_alpha 90.000000
_cell_angle_beta 40.847055
_cell_angle_gamma 90.000000
_cell_volume 1876.101387
_symmetry_space_group_name_H-M "C 2/C"
_symmetry_group_IT_number 15
_symmetry_cell_setting 'monoclinic'
loop_
_space_group_symop_operation_xyz
x,y,z
-x,y,1/2-z
-x,-y,-z
x,-y,1/2+z
1/2+x,1/2+y,z
1/2-x,1/2+y,1/2-z
1/2-x,1/2-y,-z
1/2+x,1/2-y,1/2+z
loop_
_atom_site_type_symbol
_atom_site_label
_atom_site_fract_x
_atom_site_fract_y
_atom_site_fract_z
Si Si1 0.109489 0.738276 0.477313
Si Si2 0.785650 0.368827 0.665771
Si Si3 0.630186 0.050670 0.145176
Si Si4 0.959789 0.781081 0.338451
Si Si5 0.416996 0.608522 0.584406
O O1 0.250000 0.750000 0.500000
O O2 0.144719 0.654725 0.429197
O O3 0.211267 0.811778 0.403143
O O4 0.819882 0.746029 0.569724
O O5 0.500000 0.377727 0.750000
O O6 0.920261 0.444834 0.655654
O O7 0.878676 0.292290 0.681152
O O8 0.500000 0.088654 0.250000
O O9 0.737921 0.966628 0.137243
O O10 0.860507 0.088412 0.034417
O O11 0.000000 0.795729 0.250000
O O12 0.995050 0.860471 0.372318
#
# Coordination Sequence:
#
# PCOD9296059 Si02
#       5
#     8   8   8   8   8
#     4  11  22  39  66 102 135 170 223 286 332 386
#     4  11  22  39  66 102 133 177 227 275 332 406
#     4  11  23  42  69  91 136 181 218 269 340 399
#     4  11  21  41  70 101 137 171 226 281 334 393
#     4  10  23  44  66  96 133 178 218 275 336 399
#
# _framework density 21.320809000000001
#
# number of rings (size 3 to 8) (size 9 to 14) (size 15 to 20)
#    0.000    1.200    4.000    3.000    2.800    4.800 
#    0.000    4.000    0.000    0.000    0.000    0.000 
#    0.000    0.000    0.000    0.000    0.000    0.000 
#
# Total GULP energy -111451.396741 kJ/mol
# GULP energy per Si atom -5572.569837 kJ/mol
# Density = 2.127228 g / cm^3
# Si number density = 21.320809 Si / 1000 Ang^3
#
#
#
# Elastic Constant Matrix: (Units=GPa)
#
#
# Indices 1 2 3 4 5 6 
#
# 1 170.2311 59.4743 32.1417 -0.0038 1.4190 -0.0033
# 2 59.4743 80.7386 26.4743 -0.0060 0.7454 -0.0007
# 3 32.1417 26.4743 76.5440 -0.0092 0.8987 -0.0057
# 4 -0.0038 -0.0060 -0.0092 13.7284 0.0021 -7.6337
# 5 1.4190 0.7454 0.8987 0.0021 50.8393 0.0037
# 6 -0.0033 -0.0007 -0.0057 -7.6337 0.0037 63.6374
#
#
#
# Elastic Compliance Matrix: (Units=1/GPa)
#
#
# Indices 1 2 3 4 5 6 
#
# 1 0.008061 -0.005445 -0.001500 -0.000001 -0.000119 0.000000
# 2 -0.005445 0.017649 -0.003817 0.000004 -0.000039 0.000000
# 3 -0.001500 -0.003817 0.015017 0.000009 -0.000168 0.000002
# 4 -0.000001 0.000004 0.000009 0.078047 -0.000004 0.009362
# 5 -0.000119 -0.000039 -0.000168 -0.000004 0.019677 -0.000002
# 6 0.000000 0.000000 0.000002 0.009362 -0.000002 0.016837
#
#
# Mechanical properties :
#
#
# Convention : Reuss Voigt Hill
#
# Bulk Modulus (GPa) = 52.07995 62.63272 57.35634
# Shear Modulus (GPa) = 27.29072 39.60259 33.44666
#
# Velocity S-wave (km/s) = 3.58160 4.31450 3.96502
# Velocity P-wave (km/s) = 6.44854 7.36614 6.92256
#
# Compressibility (1/GPa) = 0.01920125
#
# Stress axis : x y z
#
# Youngs Moduli (GPa) = 124.05537 56.66188 66.59294
#
# Poissons Ratio (x) = 0.30852 0.09991
# Poissons Ratio (y) = 0.67546 0.25420
# Poissons Ratio (z) = 0.18612 0.21629
#
# Static dielectric constant tensor:
#      x y z
#    x 1.737750 0.000000 0.054020 
#    y 0.000000 1.812420 0.000000 
#    z 0.054020 0.000000 1.776530 
# 
# From -- ./inp_files/76652.got.cif
#   From: 2010.05.17/outbox.cif.g08.bks.cpg/sg15_39_cif.got.tgz:76652.got - 2010.06.03 18:47:42.
