data_PCOD9296639
_publ_section_title
;
Structure prediction by ZEFSAII (Michael W. Deem and Ramdas Pophale) SiO2 
 PCOD9296639
Probable space group: C 2/C
;
_chemical_formula_sum "Si O2"
_cell_formula_units_Z 32
_cell_length_a 13.139899
_cell_length_b 11.470323
_cell_length_c 9.426515
_cell_angle_alpha 90.000000
_cell_angle_beta 110.459748
_cell_angle_gamma 90.000000
_cell_volume 1331.129828
_symmetry_space_group_name_H-M "C 2/C"
_symmetry_group_IT_number 15
_symmetry_cell_setting 'monoclinic'
loop_
_space_group_symop_operation_xyz
x,y,z
-x,y,1/2-z
-x,-y,-z
x,-y,1/2+z
1/2+x,1/2+y,z
1/2-x,1/2+y,1/2-z
1/2-x,1/2-y,-z
1/2+x,1/2-y,1/2+z
loop_
_atom_site_type_symbol
_atom_site_label
_atom_site_fract_x
_atom_site_fract_y
_atom_site_fract_z
Si Si1 0.046645 0.240754 0.617017
Si Si2 0.561173 0.095146 0.628617
Si Si3 0.199693 0.973186 0.157352
Si Si4 0.249923 0.866144 0.898788
O O1 0.144211 0.332276 0.640003
O O2 0.000000 0.251841 0.750000
O O3 0.000000 0.500000 0.500000
O O4 0.959841 0.283029 0.460094
O O5 0.500000 0.095152 0.750000
O O6 0.688806 0.074755 0.714899
O O7 0.099066 0.885422 0.120942
O O8 0.173582 0.089199 0.234007
O O9 0.234873 0.968235 0.009380
O O10 0.250000 0.750000 0.000000
#
# Coordination Sequence:
#
# PCOD9296639 Si02
#       4
#     8   8   8   8
#     4  11  25  43  68 111 143 189 239 292 370 423
#     4  12  22  39  72 105 139 185 246 299 350 422
#     4  11  23  45  73 103 143 187 246 301 353 432
#     4  10  23  45  71 102 142 186 238 294 361 425
#
# _framework density 24.039729999999999
#
# number of rings (size 3 to 8) (size 9 to 14) (size 15 to 20)
#    0.000    1.000    5.000    0.750    3.500    1.000 
#    4.500    5.000    0.000    0.000    0.000    0.000 
#    0.000    0.000    0.000    0.000    0.000    0.000 
#
# Total GULP energy -89140.354406 kJ/mol
# GULP energy per Si atom -5571.272150 kJ/mol
# Density = 2.398501 g / cm^3
# Si number density = 24.039730 Si / 1000 Ang^3
#
#
#
# Elastic Constant Matrix: (Units=GPa)
#
#
# Indices 1 2 3 4 5 6 
#
# 1 69.8659 31.1435 60.5917 0.0000 -20.6519 0.0000
# 2 31.1435 97.3929 58.3363 0.0000 7.7516 0.0000
# 3 60.5917 58.3363 179.6675 0.0000 -51.2653 0.0000
# 4 0.0000 0.0000 0.0000 46.1355 0.0000 25.7164
# 5 -20.6519 7.7516 -51.2653 0.0000 51.8737 0.0000
# 6 0.0000 0.0000 0.0000 25.7164 0.0000 27.7785
#
#
#
# Elastic Compliance Matrix: (Units=1/GPa)
#
#
# Indices 1 2 3 4 5 6 
#
# 1 0.021675 -0.004744 -0.004324 0.000000 0.005065 0.000000
# 2 -0.004744 0.017046 -0.007243 0.000000 -0.011594 0.000000
# 3 -0.004324 -0.007243 0.012804 0.000000 0.012015 0.000000
# 4 0.000000 0.000000 0.000000 0.044787 0.000000 -0.041462
# 5 0.005065 -0.011594 0.012015 0.000000 0.034900 0.000000
# 6 0.000000 0.000000 0.000000 -0.041462 0.000000 0.074383
#
#
# Mechanical properties :
#
#
# Convention : Reuss Voigt Hill
#
# Bulk Modulus (GPa) = 52.90273 71.89658 62.39966
# Shear Modulus (GPa) = 20.44842 38.28121 29.36482
#
# Velocity S-wave (km/s) = 2.91969 3.99484 3.49881
# Velocity P-wave (km/s) = 5.78102 7.15895 6.50657
#
# Compressibility (1/GPa) = 0.01890262
#
# Stress axis : x y z
#
# Youngs Moduli (GPa) = 46.13564 58.66576 78.10034
#
# Poissons Ratio (x) = 0.27831 0.33774
# Poissons Ratio (y) = 0.21887 0.56566
# Poissons Ratio (z) = 0.19951 0.42490
#
# Static dielectric constant tensor:
#      x y z
#    x 1.996050 0.000000 0.028020 
#    y 0.000000 2.115240 0.000000 
#    z 0.028020 0.000000 1.892990 
# 
# From -- ./inp_files/45715.got.cif
#   From: 2010.05.17/outbox.cif.g08.bks.cpg/sg15_23_cif.got.tgz:45715.got - 2010.06.03 18:47:42.
