data_PCOD9296834
_publ_section_title
;
Structure prediction by ZEFSAII (Michael W. Deem and Ramdas Pophale) SiO2 
 PCOD9296834
Probable space group: C 2/C
;
_chemical_formula_sum "Si O2"
_cell_formula_units_Z 44
_cell_length_a 18.986881
_cell_length_b 7.144986
_cell_length_c 26.832467
_cell_angle_alpha 90.000000
_cell_angle_beta 151.498581
_cell_angle_gamma 90.000000
_cell_volume 1736.994028
_symmetry_space_group_name_H-M "C 2/C"
_symmetry_group_IT_number 15
_symmetry_cell_setting 'monoclinic'
loop_
_space_group_symop_operation_xyz
x,y,z
-x,y,1/2-z
-x,-y,-z
x,-y,1/2+z
1/2+x,1/2+y,z
1/2-x,1/2+y,1/2-z
1/2-x,1/2-y,-z
1/2+x,1/2-y,1/2+z
loop_
_atom_site_type_symbol
_atom_site_label
_atom_site_fract_x
_atom_site_fract_y
_atom_site_fract_z
Si Si1 0.541393 0.435587 0.960697
Si Si2 0.932324 0.508030 0.519833
Si Si3 0.000000 0.470742 0.250000
Si Si4 0.298295 0.263237 0.295801
Si Si5 0.756200 0.712338 0.151436
Si Si6 0.535045 0.215547 0.869115
O O1 0.541352 0.222557 0.981118
O O2 0.389405 0.546108 0.859975
O O3 0.593476 0.396722 0.935741
O O4 0.638525 0.561918 0.056610
O O5 0.086619 0.395421 0.614553
O O6 0.903715 0.541710 0.560452
O O7 0.142951 0.726158 0.729079
O O8 0.901036 0.612178 0.220279
O O9 0.932295 0.327579 0.167258
O O10 0.278018 0.248032 0.223469
O O11 0.698914 0.901551 0.089017
#
# Coordination Sequence:
#
# PCOD9296834 Si02
#       6
#     8   8   4   8   8   8
#     4   9  23  44  71 106 148 181 248 302 348 430
#     4   9  22  44  70 109 141 188 242 303 350 429
#     4  12  26  46  76 104 144 204 232 296 374 432
#     4  11  21  45  74 107 143 194 239 300 351 438
#     4  11  24  44  74 104 145 192 243 291 374 424
#     4  10  23  46  69 102 149 185 241 289 359 421
#
# _framework density 25.331119000000001
#
# number of rings (size 3 to 8) (size 9 to 14) (size 15 to 20)
#    1.091    0.727    1.818    1.091    0.000    5.818 
#    3.273    1.818    0.000    0.000    0.000    0.000 
#    0.000    0.000    0.000    0.000    0.000    0.000 
#
# Total GULP energy -122876.708468 kJ/mol
# GULP energy per Si atom -5585.304930 kJ/mol
# Density = 2.527346 g / cm^3
# Si number density = 25.331119 Si / 1000 Ang^3
#
#
#
# Elastic Constant Matrix: (Units=GPa)
#
#
# Indices 1 2 3 4 5 6 
#
# 1 74.3289 9.9327 23.0851 0.0002 -30.0990 0.0005
# 2 9.9327 153.3399 33.7614 0.0003 -16.3911 0.0011
# 3 23.0851 33.7614 101.1738 0.0007 -20.0532 0.0005
# 4 0.0002 0.0003 0.0007 26.3860 0.0001 -9.7557
# 5 -30.0990 -16.3911 -20.0532 0.0001 54.3543 -0.0001
# 6 0.0005 0.0011 0.0005 -9.7557 -0.0001 32.0260
#
#
#
# Elastic Compliance Matrix: (Units=1/GPa)
#
#
# Indices 1 2 3 4 5 6 
#
# 1 0.017832 0.000341 -0.002379 0.000000 0.009100 0.000000
# 2 0.000341 0.007139 -0.002153 0.000000 0.001547 0.000000
# 3 -0.002379 -0.002153 0.011604 0.000000 0.002314 0.000000
# 4 0.000000 0.000000 0.000000 0.042709 0.000000 0.013010
# 5 0.009100 0.001547 0.002314 0.000000 0.024757 0.000000
# 6 0.000000 0.000000 0.000000 0.013010 0.000000 0.035188
#
#
# Mechanical properties :
#
#
# Convention : Reuss Voigt Hill
#
# Bulk Modulus (GPa) = 35.47009 51.37791 43.42400
# Shear Modulus (GPa) = 31.84536 40.02413 35.93475
#
# Velocity S-wave (km/s) = 3.54950 3.97928 3.77052
# Velocity P-wave (km/s) = 5.55262 6.43735 6.01128
#
# Compressibility (1/GPa) = 0.02819277
#
# Stress axis : x y z
#
# Youngs Moduli (GPa) = 56.07941 140.07801 86.17614
#
# Poissons Ratio (x) = -0.04783 0.20502
# Poissons Ratio (y) = -0.01915 0.18557
# Poissons Ratio (z) = 0.13342 0.30165
#
# Static dielectric constant tensor:
#      x y z
#    x 2.067570 0.000000 0.027850 
#    y 0.000000 2.052990 0.000000 
#    z 0.027850 0.000000 2.068160 
# 
# From -- ./inp_files/317139.got.cif
#   From: 2010.05.17/outbox.cif.g08.bks.cpg/sg15_159_cif.got.tgz:317139.got - 2010.06.03 18:47:42.
