data_PCOD9296446
_publ_section_title
;
Structure prediction by ZEFSAII (Michael W. Deem and Ramdas Pophale) SiO2 
 PCOD9296446
Probable space group: C 2/C
;
_chemical_formula_sum "Si O2"
_cell_formula_units_Z 44
_cell_length_a 9.299362
_cell_length_b 26.845805
_cell_length_c 8.197160
_cell_angle_alpha 90.000000
_cell_angle_beta 118.099749
_cell_angle_gamma 90.000000
_cell_volume 1805.198909
_symmetry_space_group_name_H-M "C 2/C"
_symmetry_group_IT_number 15
_symmetry_cell_setting 'monoclinic'
loop_
_space_group_symop_operation_xyz
x,y,z
-x,y,1/2-z
-x,-y,-z
x,-y,1/2+z
1/2+x,1/2+y,z
1/2-x,1/2+y,1/2-z
1/2-x,1/2-y,-z
1/2+x,1/2-y,1/2+z
loop_
_atom_site_type_symbol
_atom_site_label
_atom_site_fract_x
_atom_site_fract_y
_atom_site_fract_z
Si Si1 0.549322 0.284261 0.599268
Si Si2 0.639924 0.613273 0.548413
Si Si3 0.766941 0.461039 0.875918
Si Si4 0.500000 0.863920 0.250000
Si Si5 0.000000 0.510101 0.250000
Si Si6 0.500000 0.453482 0.250000
Si Si7 0.078250 0.310381 0.633662
O O1 0.500000 0.262939 0.750000
O O2 0.436470 0.332271 0.507279
O O3 0.735591 0.299881 0.719400
O O4 0.514538 0.242062 0.448206
O O5 0.668665 0.585564 0.391474
O O6 0.524041 0.580545 0.603408
O O7 0.824775 0.614284 0.717129
O O8 0.856027 0.457637 0.751582
O O9 0.652202 0.509093 0.823501
O O10 0.915228 0.473431 0.076473
O O11 0.560906 0.837728 0.450816
O O12 0.000000 0.336103 0.750000
#
# Coordination Sequence:
#
# PCOD9296446 Si02
#       7
#     8   8   8   4   4   4   8
#     4  12  25  49  76 111 150 195 247 312 373 456
#     4  12  28  45  73 109 151 198 256 313 377 443
#     4  11  24  49  70 104 142 197 243 309 373 439
#     4  12  27  52  73 112 156 192 255 320 372 455
#     4  10  23  44  76  96 135 195 244 296 374 437
#     4  12  28  44  73 104 153 195 251 314 376 444
#     4  12  27  50  81 110 152 201 248 302 394 450
#
# _framework density 24.374044000000001
#
# number of rings (size 3 to 8) (size 9 to 14) (size 15 to 20)
#    0.000    0.364    4.545    3.273    7.636    0.000 
#    1.636    0.000    0.000    0.000    0.000    0.000 
#    0.000    0.000    0.000    0.000    0.000    0.000 
#
# Total GULP energy -123091.442430 kJ/mol
# GULP energy per Si atom -5595.065565 kJ/mol
# Density = 2.431857 g / cm^3
# Si number density = 24.374044 Si / 1000 Ang^3
#
#
#
# Elastic Constant Matrix: (Units=GPa)
#
#
# Indices 1 2 3 4 5 6 
#
# 1 162.0845 13.5012 41.0749 0.0000 0.2511 0.0000
# 2 13.5012 61.5410 21.0727 0.0000 -7.9760 0.0000
# 3 41.0749 21.0727 72.1151 0.0000 15.4329 0.0000
# 4 0.0000 0.0000 0.0000-3526.6064 0.0000 960.4009
# 5 0.2511 -7.9760 15.4329 0.0000 55.6936 0.0000
# 6 0.0000 0.0000 0.0000 960.4009 0.0000 -233.0864
#
#
#
# Elastic Compliance Matrix: (Units=1/GPa)
#
#
# Indices 1 2 3 4 5 6 
#
# 1 0.007284 0.000075 -0.004428 0.000000 0.001205 0.000000
# 2 0.000075 0.019082 -0.006594 0.000000 0.004560 0.000000
# 3 -0.004428 -0.006594 0.019681 0.000000 -0.006378 0.000000
# 4 0.000000 0.000000 0.000000 0.002322 0.000000 0.009569
# 5 0.001205 0.004560 -0.006378 0.000000 0.020370 0.000000
# 6 0.000000 0.000000 0.000000 0.009569 0.000000 0.035137
#
#
# Mechanical properties :
#
#
# Convention : Reuss Voigt Hill
#
# Bulk Modulus (GPa) = 41.40684 49.67090 45.53887
# Shear Modulus (GPa) = 37.36292 -726.12705 -344.38207
#
# Velocity S-wave (km/s) = 3.91947 -17.27879 -11.89946
# Velocity P-wave (km/s) = 6.12438 19.43329 13.04118
#
# Compressibility (1/GPa) = 0.02415060
#
# Stress axis : x y z
#
# Youngs Moduli (GPa) = 137.29204 52.40571 50.81108
#
# Poissons Ratio (x) = -0.00391 0.22501
# Poissons Ratio (y) = -0.01023 0.33506
# Poissons Ratio (z) = 0.60797 0.34557
#
# Static dielectric constant tensor:
#      x y z
#    x 1.944540 0.000000 -0.023680 
#    y 0.000000 1.988800 0.000000 
#    z -0.023680 0.000000 1.965090 
# 
# From -- ./inp_files/26032.got.cif
#   From: 2010.05.17/outbox.cif.g08.bks.cpg/sg15_14_cif.got.tgz:26032.got - 2010.06.03 18:47:42.
