data_PCOD9296305
_publ_section_title
;
Structure prediction by ZEFSAII (Michael W. Deem and Ramdas Pophale) SiO2 
 PCOD9296305
Probable space group: C 2/C
;
_chemical_formula_sum "Si O2"
_cell_formula_units_Z 52
_cell_length_a 7.923945
_cell_length_b 34.169007
_cell_length_c 12.198999
_cell_angle_alpha 90.000000
_cell_angle_beta 138.922049
_cell_angle_gamma 90.000000
_cell_volume 2170.299621
_symmetry_space_group_name_H-M "C 2/C"
_symmetry_group_IT_number 15
_symmetry_cell_setting 'monoclinic'
loop_
_space_group_symop_operation_xyz
x,y,z
-x,y,1/2-z
-x,-y,-z
x,-y,1/2+z
1/2+x,1/2+y,z
1/2-x,1/2+y,1/2-z
1/2-x,1/2-y,-z
1/2+x,1/2-y,1/2+z
loop_
_atom_site_type_symbol
_atom_site_label
_atom_site_fract_x
_atom_site_fract_y
_atom_site_fract_z
Si Si1 0.103295 0.275820 0.017518
Si Si2 0.646258 0.096900 0.494443
Si Si3 0.000000 0.161051 0.750000
Si Si4 0.245990 0.014798 0.050764
Si Si5 0.365106 0.934287 0.067672
Si Si6 0.415405 0.377473 0.835898
Si Si7 0.087328 0.206537 0.168034
O O1 0.271589 0.308092 0.163737
O O2 0.011559 0.243559 0.059364
O O3 0.250000 0.250000 0.000000
O O4 0.891016 0.296149 0.838899
O O5 0.856105 0.131343 0.597324
O O6 0.774248 0.056801 0.515886
O O7 0.539718 0.088280 0.565349
O O8 0.381215 0.109721 0.304379
O O9 0.500000 0.018926 0.250000
O O10 0.302576 0.978277 0.997173
O O11 0.000000 0.000000 0.000000
O O12 0.500000 0.937296 0.250000
O O13 0.100698 0.911923 0.962030
O O14 0.500000 0.372384 0.750000
O O15 0.484388 0.335129 0.918722
O O16 0.000000 0.211495 0.250000
#
# Coordination Sequence:
#
# PCOD9296305 Si02
#       7
#     8   8   4   8   8   8   8
#     4  12  24  47  67 100 140 184 230 284 345 419
#     4  11  24  45  69  97 142 185 224 290 343 409
#     4  12  26  42  70 102 144 180 246 276 348 414
#     4  11  25  46  69 101 137 178 236 283 348 424
#     4  10  23  44  71 104 137 174 231 286 349 416
#     4   9  20  42  69 101 138 180 228 285 350 415
#     4  11  23  44  70 100 137 181 232 288 345 408
#
# _framework density 23.959824999999999
#
# number of rings (size 3 to 8) (size 9 to 14) (size 15 to 20)
#    0.000    1.231    3.077    1.846    4.308    1.231 
#    6.923    0.000    0.000    0.000    0.000    0.000 
#    0.000    0.000    0.000    0.000    0.000    0.000 
#
# Total GULP energy -145252.300370 kJ/mol
# GULP energy per Si atom -5586.626937 kJ/mol
# Density = 2.390529 g / cm^3
# Si number density = 23.959825 Si / 1000 Ang^3
#
#
#
# Elastic Constant Matrix: (Units=GPa)
#
#
# Indices 1 2 3 4 5 6 
#
# 1 104.6023 32.2713 15.6982 0.0000 -0.9841 0.0000
# 2 32.2713 207.1337 44.1231 0.0000 0.9956 0.0000
# 3 15.6982 44.1231 70.5501 0.0000 20.3398 0.0000
# 4 0.0000 0.0000 0.0000 43.3128 0.0000 -7.4483
# 5 -0.9841 0.9956 20.3398 0.0000 28.9424 0.0000
# 6 0.0000 0.0000 0.0000 -7.4483 0.0000 25.6457
#
#
#
# Elastic Compliance Matrix: (Units=1/GPa)
#
#
# Indices 1 2 3 4 5 6 
#
# 1 0.010249 -0.001160 -0.002090 0.000000 0.001857 0.000000
# 2 -0.001160 0.005892 -0.004210 0.000000 0.002717 0.000000
# 3 -0.002090 -0.004210 0.021635 0.000000 -0.015130 0.000000
# 4 0.000000 0.000000 0.000000 0.024302 0.000000 0.007058
# 5 0.001857 0.002717 -0.015130 0.000000 0.045154 0.000000
# 6 0.000000 0.000000 0.000000 0.007058 0.000000 0.041043
#
#
# Mechanical properties :
#
#
# Convention : Reuss Voigt Hill
#
# Bulk Modulus (GPa) = 43.75523 62.94126 53.34825
# Shear Modulus (GPa) = 29.27146 38.92642 34.09894
#
# Velocity S-wave (km/s) = 3.49906 4.03507 3.77659
# Velocity P-wave (km/s) = 5.88440 6.93077 6.42891
#
# Compressibility (1/GPa) = 0.02285441
#
# Stress axis : x y z
#
# Youngs Moduli (GPa) = 97.56847 169.71052 46.22209
#
# Poissons Ratio (x) = 0.19695 0.09662
# Poissons Ratio (y) = 0.11323 0.19460
# Poissons Ratio (z) = 0.20394 0.71451
#
# Static dielectric constant tensor:
#      x y z
#    x 1.955920 0.000000 0.061040 
#    y 0.000000 1.973770 0.000000 
#    z 0.061040 0.000000 3.317230 
# 
# From -- ./inp_files/139880.got.cif
#   From: 2010.05.17/outbox.cif.g08.bks.cpg/sg15_70_cif.got.tgz:139880.got - 2010.06.03 18:47:42.
