data_PCOD9296558
_publ_section_title
;
Structure prediction by ZEFSAII (Michael W. Deem and Ramdas Pophale) SiO2 
 PCOD9296558
Probable space group: C 2/C
;
_chemical_formula_sum "Si O2"
_cell_formula_units_Z 48
_cell_length_a 14.017157
_cell_length_b 12.753282
_cell_length_c 20.523263
_cell_angle_alpha 90.000000
_cell_angle_beta 140.051651
_cell_angle_gamma 90.000000
_cell_volume 2355.747830
_symmetry_space_group_name_H-M "C 2/C"
_symmetry_group_IT_number 15
_symmetry_cell_setting 'monoclinic'
loop_
_space_group_symop_operation_xyz
x,y,z
-x,y,1/2-z
-x,-y,-z
x,-y,1/2+z
1/2+x,1/2+y,z
1/2-x,1/2+y,1/2-z
1/2-x,1/2-y,-z
1/2+x,1/2-y,1/2+z
loop_
_atom_site_type_symbol
_atom_site_label
_atom_site_fract_x
_atom_site_fract_y
_atom_site_fract_z
Si Si1 0.216872 0.132029 0.463994
Si Si2 0.000000 0.935669 0.750000
Si Si3 0.751836 0.016095 0.713403
Si Si4 0.046084 0.082540 0.076437
Si Si5 0.696649 0.211528 0.607970
Si Si6 0.439754 0.063246 0.074386
Si Si7 0.000000 0.661611 0.250000
O O1 0.250000 0.250000 0.500000
O O2 0.123801 0.133958 0.348950
O O3 0.094376 0.091555 0.450278
O O4 0.348654 0.046758 0.528426
O O5 0.104541 0.003757 0.758011
O O6 0.814105 0.968486 0.812815
O O7 0.599100 0.952832 0.622617
O O8 0.704344 0.135251 0.674921
O O9 0.084943 0.194167 0.065561
O O10 0.000000 0.000000 0.000000
O O11 0.650166 0.144781 0.519209
O O12 0.855559 0.265964 0.682509
O O13 0.469164 0.099185 0.165185
#
# Coordination Sequence:
#
# PCOD9296558 Si02
#       7
#     8   4   8   8   8   8   4
#     4  11  25  45  71 102 140 188 231 292 356 416
#     4  10  23  45  68 102 138 182 241 289 340 428
#     4  11  24  46  70 102 138 185 239 285 350 425
#     4  11  26  45  68 105 143 179 232 300 351 416
#     4  12  25  45  74 100 140 194 234 293 361 421
#     4  12  26  46  74 102 145 184 245 290 352 439
#     4  12  27  45  68 112 136 186 233 297 360 412
#
# _framework density 20.375696000000001
#
# number of rings (size 3 to 8) (size 9 to 14) (size 15 to 20)
#    0.000    0.667    3.333    3.500    7.000    0.667 
#    3.000    0.000    0.000    0.000    0.000    0.000 
#    0.000    0.000    0.000    0.000    0.000    0.000 
#
# Total GULP energy -133839.331763 kJ/mol
# GULP energy per Si atom -5576.638823 kJ/mol
# Density = 2.032932 g / cm^3
# Si number density = 20.375696 Si / 1000 Ang^3
#
#
#
# Elastic Constant Matrix: (Units=GPa)
#
#
# Indices 1 2 3 4 5 6 
#
# 1 59.5501 26.0696 31.1791 0.0000 16.7369 0.0000
# 2 26.0696 140.5048 75.8233 0.0000 -8.2200 0.0000
# 3 31.1791 75.8233 132.2494 0.0000 9.8225 0.0000
# 4 0.0000 0.0000 0.0000 13.0526 0.0000 -2.5380
# 5 16.7369 -8.2200 9.8225 0.0000 34.2513 0.0000
# 6 0.0000 0.0000 0.0000 -2.5380 0.0000 37.2046
#
#
#
# Elastic Compliance Matrix: (Units=1/GPa)
#
#
# Indices 1 2 3 4 5 6 
#
# 1 0.022830 -0.003539 -0.002516 0.000000 -0.011284 0.000000
# 2 -0.003539 0.011500 -0.006225 0.000000 0.006274 0.000000
# 3 -0.002516 -0.006225 0.011999 0.000000 -0.003706 0.000000
# 4 0.000000 0.000000 0.000000 0.077643 0.000000 0.005297
# 5 -0.011284 0.006274 -0.003706 0.000000 0.037278 0.000000
# 6 0.000000 0.000000 0.000000 0.005297 0.000000 0.027240
#
#
# Mechanical properties :
#
#
# Convention : Reuss Voigt Hill
#
# Bulk Modulus (GPa) = 45.93366 66.49428 56.21397
# Shear Modulus (GPa) = 22.69573 30.18388 26.43980
#
# Velocity S-wave (km/s) = 3.34108 3.85303 3.60615
# Velocity P-wave (km/s) = 6.12177 7.24565 6.70729
#
# Compressibility (1/GPa) = 0.02177053
#
# Stress axis : x y z
#
# Youngs Moduli (GPa) = 43.80175 86.95429 83.34057
#
# Poissons Ratio (x) = 0.30769 0.20965
# Poissons Ratio (y) = 0.15500 0.51882
# Poissons Ratio (z) = 0.11019 0.54132
#
# Static dielectric constant tensor:
#      x y z
#    x 1.650810 0.000000 -0.084080 
#    y 0.000000 1.731760 0.000000 
#    z -0.084080 0.000000 1.747670 
# 
# From -- ./inp_files/243936.got.cif
#   From: 2010.05.17/outbox.cif.g08.bks.cpg/sg15_122_cif.got.tgz:243936.got - 2010.06.03 18:47:42.
