data_PCOD9296371
_publ_section_title
;
Structure prediction by ZEFSAII (Michael W. Deem and Ramdas Pophale) SiO2 
 PCOD9296371
Probable space group: C 2/C
;
_chemical_formula_sum "Si O2"
_cell_formula_units_Z 24
_cell_length_a 21.221535
_cell_length_b 9.491427
_cell_length_c 14.185520
_cell_angle_alpha 90.000000
_cell_angle_beta 160.786695
_cell_angle_gamma 90.000000
_cell_volume 940.292323
_symmetry_space_group_name_H-M "C 2/C"
_symmetry_group_IT_number 15
_symmetry_cell_setting 'monoclinic'
loop_
_space_group_symop_operation_xyz
x,y,z
-x,y,1/2-z
-x,-y,-z
x,-y,1/2+z
1/2+x,1/2+y,z
1/2-x,1/2+y,1/2-z
1/2-x,1/2-y,-z
1/2+x,1/2-y,1/2+z
loop_
_atom_site_type_symbol
_atom_site_label
_atom_site_fract_x
_atom_site_fract_y
_atom_site_fract_z
Si Si1 0.000000 0.943712 0.250000
Si Si2 0.925572 0.353086 0.851142
Si Si3 0.858056 0.134514 0.216111
Si Si4 0.500000 0.943711 0.750000
O O1 0.021295 0.041053 0.186759
O O2 0.198024 0.861176 0.537287
O O3 0.980510 0.361175 0.819776
O O4 0.000000 0.500000 0.000000
O O5 0.015247 0.219938 0.030495
O O6 0.750000 0.250000 0.000000
O O7 0.690370 0.041051 0.024904
#
# Coordination Sequence:
#
# PCOD9296371 Si02
#       4
#     4   8   8   4
#     4  10  23  44  72 113 140 187 240 294 363 420
#     4  11  23  40  75 107 146 188 243 292 358 433
#     4  11  21  42  77 107 137 191 238 296 362 422
#     4  10  23  44  72 113 140 187 240 294 363 420
#
# _framework density 25.523976999999999
#
# number of rings (size 3 to 8) (size 9 to 14) (size 15 to 20)
#    0.000    1.333    6.667    1.000    0.000    0.000 
#    0.000   20.000    0.000   36.000    0.000    0.000 
#    0.000    0.000    0.000    0.000    0.000    0.000 
#
# Total GULP energy -67463.771962 kJ/mol
# GULP energy per Si atom -5621.980997 kJ/mol
# Density = 2.546588 g / cm^3
# Si number density = 25.523977 Si / 1000 Ang^3
#
#
#
# Elastic Constant Matrix: (Units=GPa)
#
#
# Indices 1 2 3 4 5 6 
#
# 1 226.6057 123.9584 175.2814 0.0000 21.5479 0.0000
# 2 123.9584 140.3806 127.0288 0.0000 -4.6031 0.0000
# 3 175.2814 127.0288 212.5963 0.0000 -0.6978 0.0000
# 4 0.0000 0.0000 0.0000 68.3065 0.0000 -42.8508
# 5 21.5479 -4.6031 -0.6978 0.0000 51.6335 0.0000
# 6 0.0000 0.0000 0.0000 -42.8508 0.0000 39.5793
#
#
#
# Elastic Compliance Matrix: (Units=1/GPa)
#
#
# Indices 1 2 3 4 5 6 
#
# 1 0.015216 -0.004986 -0.009588 0.000000 -0.006924 0.000000
# 2 -0.004986 0.017225 -0.006169 0.000000 0.003533 0.000000
# 3 -0.009588 -0.006169 0.016307 0.000000 0.003672 0.000000
# 4 0.000000 0.000000 0.000000 0.045633 0.000000 0.049405
# 5 -0.006924 0.003533 0.003672 0.000000 0.022621 0.000000
# 6 0.000000 0.000000 0.000000 0.049405 0.000000 0.078754
#
#
# Mechanical properties :
#
#
# Convention : Reuss Voigt Hill
#
# Bulk Modulus (GPa) = 137.74144 159.12440 148.43292
# Shear Modulus (GPa) = 20.86246 42.12481 31.49363
#
# Velocity S-wave (km/s) = 2.86206 4.06692 3.51648
# Velocity P-wave (km/s) = 8.06254 9.19411 8.64685
#
# Compressibility (1/GPa) = 0.00725998
#
# Stress axis : x y z
#
# Youngs Moduli (GPa) = 65.72194 58.05528 61.32158
#
# Poissons Ratio (x) = 0.28948 0.58797
# Poissons Ratio (y) = 0.32771 0.37832
# Poissons Ratio (z) = 0.63016 0.35817
#
# Static dielectric constant tensor:
#      x y z
#    x 2.044150 0.000000 -0.150260 
#    y 0.000000 2.057780 0.000000 
#    z -0.150260 0.000000 2.144810 
# 
# From -- ./inp_files/27026.got.cif
#   From: 2010.05.17/outbox.cif.g08.bks.cpg/sg15_14_cif.got.tgz:27026.got - 2010.06.03 18:47:42.
