data_PCOD9296775
_publ_section_title
;
Structure prediction by ZEFSAII (Michael W. Deem and Ramdas Pophale) SiO2 
 PCOD9296775
Probable space group: C 2/C
;
_chemical_formula_sum "Si O2"
_cell_formula_units_Z 52
_cell_length_a 21.509996
_cell_length_b 13.456620
_cell_length_c 11.594891
_cell_angle_alpha 90.000000
_cell_angle_beta 34.824376
_cell_angle_gamma 90.000000
_cell_volume 1916.579815
_symmetry_space_group_name_H-M "C 2/C"
_symmetry_group_IT_number 15
_symmetry_cell_setting 'monoclinic'
loop_
_space_group_symop_operation_xyz
x,y,z
-x,y,1/2-z
-x,-y,-z
x,-y,1/2+z
1/2+x,1/2+y,z
1/2-x,1/2+y,1/2-z
1/2-x,1/2-y,-z
1/2+x,1/2-y,1/2+z
loop_
_atom_site_type_symbol
_atom_site_label
_atom_site_fract_x
_atom_site_fract_y
_atom_site_fract_z
Si Si1 0.500000 0.748550 0.250000
Si Si2 0.567584 0.195794 0.410754
Si Si3 0.257829 0.498857 0.343443
Si Si4 0.696465 0.692802 0.335465
Si Si5 0.390635 0.384180 0.299560
Si Si6 0.115143 0.587762 0.892487
Si Si7 0.158999 0.072406 0.020582
O O1 0.499867 0.804892 0.368845
O O2 0.606207 0.679045 0.096049
O O3 0.690545 0.191229 0.265456
O O4 0.553891 0.299709 0.361962
O O5 0.512655 0.103130 0.430570
O O6 0.287788 0.616330 0.295790
O O7 0.277565 0.409920 0.404124
O O8 0.141823 0.484231 0.458485
O O9 0.338695 0.464447 0.115087
O O10 0.618370 0.654400 0.556773
O O11 0.658085 0.801278 0.359148
O O12 0.413393 0.502061 0.286027
O O13 0.210291 0.562727 0.652469
#
# Coordination Sequence:
#
# PCOD9296775 Si02
#       7
#     4   8   8   8   8   8   8
#     4  12  22  42  64 100 134 168 226 280 340 434
#     4  12  25  40  73 100 135 184 231 280 352 412
#     4   9  21  44  64  98 136 173 219 290 340 406
#     4  11  23  45  72  97 139 181 233 284 348 418
#     4  11  22  44  72  99 136 183 227 299 340 407
#     4  10  23  46  65 103 137 179 226 284 354 413
#     4   9  22  41  63  94 140 165 223 280 344 402
#
# _framework density 27.131665000000002
#
# number of rings (size 3 to 8) (size 9 to 14) (size 15 to 20)
#    0.923    0.615    4.615    0.462    2.154    6.154 
#    0.000    0.000    0.000    0.000    0.000    0.000 
#    0.000    0.000    0.000    0.000    0.000    0.000 
#
# Total GULP energy -144877.047473 kJ/mol
# GULP energy per Si atom -5572.194134 kJ/mol
# Density = 2.706991 g / cm^3
# Si number density = 27.131665 Si / 1000 Ang^3
#
#
#
# Elastic Constant Matrix: (Units=GPa)
#
#
# Indices 1 2 3 4 5 6 
#
# 1 47.6328 -3.4489 18.6292 0.0000 -15.7823 0.0000
# 2 -3.4489 108.8062 11.3737 0.0000 12.6583 0.0000
# 3 18.6292 11.3737 62.0903 0.0000 -7.9354 0.0000
# 4 0.0000 0.0000 0.0000 28.4135 0.0000 0.2389
# 5 -15.7823 12.6583 -7.9354 0.0000 49.5598 0.0000
# 6 0.0000 0.0000 0.0000 0.2389 0.0000 30.9833
#
#
#
# Elastic Compliance Matrix: (Units=1/GPa)
#
#
# Indices 1 2 3 4 5 6 
#
# 1 0.026138 0.000755 -0.007087 0.000000 0.006996 0.000000
# 2 0.000755 0.009766 -0.002352 0.000000 -0.002631 0.000000
# 3 -0.007087 -0.002352 0.018836 0.000000 0.001360 0.000000
# 4 0.000000 0.000000 0.000000 0.035197 0.000000 -0.000271
# 5 0.006996 -0.002631 0.001360 0.000000 0.023295 0.000000
# 6 0.000000 0.000000 0.000000 -0.000271 0.000000 0.032278
#
#
# Mechanical properties :
#
#
# Convention : Reuss Voigt Hill
#
# Bulk Modulus (GPa) = 26.75589 30.18194 28.46891
# Shear Modulus (GPa) = 28.51681 34.58967 31.55324
#
# Velocity S-wave (km/s) = 3.24551 3.57442 3.41393
# Velocity P-wave (km/s) = 4.89156 5.30883 5.10446
#
# Compressibility (1/GPa) = 0.03737495
#
# Stress axis : x y z
#
# Youngs Moduli (GPa) = 38.25815 102.39113 53.08859
#
# Poissons Ratio (x) = -0.07735 0.37622
# Poissons Ratio (y) = -0.02890 0.12486
# Poissons Ratio (z) = 0.27112 0.24081
#
# Static dielectric constant tensor:
#      x y z
#    x 2.440740 0.000000 -0.029490 
#    y 0.000000 2.174030 0.000000 
#    z -0.029490 0.000000 2.213010 
# 
# From -- ./inp_files/118728.got.cif
#   From: 2010.05.17/outbox.cif.g08.bks.cpg/sg15_60_cif.got.tgz:118728.got - 2010.06.03 18:47:42.
