data_PCOD9296765
_publ_section_title
;
Structure prediction by ZEFSAII (Michael W. Deem and Ramdas Pophale) SiO2 
 PCOD9296765
Probable space group: C 2/C
;
_chemical_formula_sum "Si O2"
_cell_formula_units_Z 48
_cell_length_a 12.003307
_cell_length_b 16.696588
_cell_length_c 11.412451
_cell_angle_alpha 90.000000
_cell_angle_beta 78.480293
_cell_angle_gamma 90.000000
_cell_volume 2241.144502
_symmetry_space_group_name_H-M "C 2/C"
_symmetry_group_IT_number 15
_symmetry_cell_setting 'monoclinic'
loop_
_space_group_symop_operation_xyz
x,y,z
-x,y,1/2-z
-x,-y,-z
x,-y,1/2+z
1/2+x,1/2+y,z
1/2-x,1/2+y,1/2-z
1/2-x,1/2-y,-z
1/2+x,1/2-y,1/2+z
loop_
_atom_site_type_symbol
_atom_site_label
_atom_site_fract_x
_atom_site_fract_y
_atom_site_fract_z
Si Si1 0.067307 0.920025 0.968880
Si Si2 0.055436 0.653042 0.953485
Si Si3 0.320245 0.914518 0.852343
Si Si4 0.000000 0.459808 0.250000
Si Si5 0.500000 0.326087 0.750000
Si Si6 0.776512 0.750491 0.740018
Si Si7 0.954249 0.215948 0.632604
O O1 0.199314 0.940096 0.929646
O O2 0.027796 0.878458 0.856843
O O3 0.032616 0.858096 0.077538
O O4 0.000000 0.000000 0.000000
O O5 0.003915 0.597618 0.862997
O O6 0.163614 0.702617 0.878688
O O7 0.099725 0.603676 0.054494
O O8 0.971493 0.717270 0.029741
O O9 0.286136 0.832590 0.789882
O O10 0.388898 0.982588 0.768389
O O11 0.386261 0.274385 0.793304
O O12 0.679265 0.699387 0.823186
O O13 0.000000 0.243023 0.750000
#
# Coordination Sequence:
#
# PCOD9296765 Si02
#       7
#     8   8   8   4   4   8   8
#     4  11  27  43  68 101 143 184 242 290 357 429
#     4  12  24  47  71 109 141 180 245 296 352 429
#     4  11  23  47  67 100 143 186 229 293 349 437
#     4  12  29  42  76 109 144 190 232 304 377 404
#     4  10  23  46  62 101 144 180 228 306 353 404
#     4  11  23  44  76  98 145 185 240 292 359 425
#     4  12  24  43  77 105 131 194 242 288 359 433
#
# _framework density 21.417628000000001
#
# number of rings (size 3 to 8) (size 9 to 14) (size 15 to 20)
#    0.000    0.667    5.000    3.500    3.500    4.667 
#    0.000    0.000    0.000    0.000    0.000    0.000 
#    0.000    0.000    0.000    0.000    0.000    0.000 
#
# Total GULP energy -134129.737636 kJ/mol
# GULP energy per Si atom -5588.739068 kJ/mol
# Density = 2.136888 g / cm^3
# Si number density = 21.417628 Si / 1000 Ang^3
#
#
#
# Elastic Constant Matrix: (Units=GPa)
#
#
# Indices 1 2 3 4 5 6 
#
# 1 105.1124 16.0274 25.7878 0.0000 -20.5638 0.0000
# 2 16.0274 74.0950 27.7764 0.0000 -7.7204 0.0000
# 3 25.7878 27.7764 89.7787 0.0000 -7.1923 0.0000
# 4 0.0000 0.0000 0.0000 7.7023 0.0000 -1.4885
# 5 -20.5638 -7.7204 -7.1923 0.0000 52.1838 0.0000
# 6 0.0000 0.0000 0.0000 -1.4885 0.0000 31.8298
#
#
#
# Elastic Compliance Matrix: (Units=1/GPa)
#
#
# Indices 1 2 3 4 5 6 
#
# 1 0.011049 -0.001035 -0.002545 0.000000 0.003850 0.000000
# 2 -0.001035 0.015501 -0.004396 0.000000 0.001280 0.000000
# 3 -0.002545 -0.004396 0.013243 0.000000 0.000172 0.000000
# 4 0.000000 0.000000 0.000000 0.131016 0.000000 0.006127
# 5 0.003850 0.001280 0.000172 0.000000 0.020893 0.000000
# 6 0.000000 0.000000 0.000000 0.006127 0.000000 0.031704
#
#
# Mechanical properties :
#
#
# Convention : Reuss Voigt Hill
#
# Bulk Modulus (GPa) = 41.94320 45.35216 43.64768
# Shear Modulus (GPa) = 20.21784 31.63613 25.92698
#
# Velocity S-wave (km/s) = 3.07576 3.84748 3.48306
# Velocity P-wave (km/s) = 5.67801 6.39989 6.04973
#
# Compressibility (1/GPa) = 0.02384177
#
# Stress axis : x y z
#
# Youngs Moduli (GPa) = 90.50556 64.51034 75.50894
#
# Poissons Ratio (x) = 0.06675 0.19218
# Poissons Ratio (y) = 0.09365 0.33195
# Poissons Ratio (z) = 0.23035 0.28360
#
# Static dielectric constant tensor:
#      x y z
#    x 1.782660 0.000000 -0.027130 
#    y 0.000000 1.888020 0.000000 
#    z -0.027130 0.000000 1.805150 
# 
# From -- ./inp_files/87299.got.cif
#   From: 2010.05.17/outbox.cif.g08.bks.cpg/sg15_44_cif.got.tgz:87299.got - 2010.06.03 18:47:42.
