data_PCOD9296261
_publ_section_title
;
Structure prediction by ZEFSAII (Michael W. Deem and Ramdas Pophale) SiO2 
 PCOD9296261
Probable space group: C 2/C
;
_chemical_formula_sum "Si O2"
_cell_formula_units_Z 44
_cell_length_a 13.414427
_cell_length_b 10.285393
_cell_length_c 14.539546
_cell_angle_alpha 90.000000
_cell_angle_beta 82.440427
_cell_angle_gamma 90.000000
_cell_volume 1988.624299
_symmetry_space_group_name_H-M "C 2/C"
_symmetry_group_IT_number 15
_symmetry_cell_setting 'monoclinic'
loop_
_space_group_symop_operation_xyz
x,y,z
-x,y,1/2-z
-x,-y,-z
x,-y,1/2+z
1/2+x,1/2+y,z
1/2-x,1/2+y,1/2-z
1/2-x,1/2-y,-z
1/2+x,1/2-y,1/2+z
loop_
_atom_site_type_symbol
_atom_site_label
_atom_site_fract_x
_atom_site_fract_y
_atom_site_fract_z
Si Si1 0.298455 0.880521 0.747371
Si Si2 0.500000 0.968180 0.250000
Si Si3 0.610446 0.551127 0.468677
Si Si4 0.258428 0.618539 0.869185
Si Si5 0.657523 0.729881 0.942774
Si Si6 0.956753 0.309634 0.076311
O O1 0.271707 0.761424 0.820876
O O2 0.323524 0.803670 0.652141
O O3 0.400451 0.946278 0.770664
O O4 0.235888 0.004561 0.709993
O O5 0.496543 0.877141 0.161871
O O6 0.500000 0.500000 0.500000
O O7 0.663103 0.598145 0.556716
O O8 0.663301 0.424519 0.424131
O O9 0.589059 0.667195 0.402192
O O10 0.146851 0.611202 0.931296
O O11 0.750000 0.750000 0.000000
O O12 0.550637 0.783521 0.996640
#
# Coordination Sequence:
#
# PCOD9296261 Si02
#       6
#     8   4   8   8   8   8
#     4  11  27  46  72 105 144 191 234 300 360 432
#     4  10  26  46  68 106 140 192 244 292 370 416
#     4  10  23  44  70 105 138 187 238 293 364 425
#     4  11  25  47  70 108 143 189 242 292 369 429
#     4  11  24  46  72 104 143 190 242 297 359 430
#     4  10  25  45  71 101 143 187 241 296 353 433
#
# _framework density 22.125848999999999
#
# number of rings (size 3 to 8) (size 9 to 14) (size 15 to 20)
#    0.000    1.455    1.818    0.545   12.727    2.909 
#    0.000    0.000    0.000    0.000    0.000    0.000 
#    0.000    0.000    0.000    0.000    0.000    0.000 
#
# Total GULP energy -122539.941524 kJ/mol
# GULP energy per Si atom -5569.997342 kJ/mol
# Density = 2.207549 g / cm^3
# Si number density = 22.125849 Si / 1000 Ang^3
#
#
#
# Elastic Constant Matrix: (Units=GPa)
#
#
# Indices 1 2 3 4 5 6 
#
# 1 100.8129 21.6536 42.9760 0.0000 21.4714 0.0000
# 2 21.6536 137.6714 24.6578 0.0000 13.4685 0.0000
# 3 42.9760 24.6578 47.7595 0.0000 4.5536 0.0000
# 4 0.0000 0.0000 0.0000 64.5347 0.0000 10.6003
# 5 21.4714 13.4685 4.5536 0.0000 33.2858 0.0000
# 6 0.0000 0.0000 0.0000 10.6003 0.0000 41.6619
#
#
#
# Elastic Compliance Matrix: (Units=1/GPa)
#
#
# Indices 1 2 3 4 5 6 
#
# 1 0.019007 0.001006 -0.016631 0.000000 -0.010392 0.000000
# 2 0.001006 0.008306 -0.004875 0.000000 -0.003343 0.000000
# 3 -0.016631 -0.004875 0.037701 0.000000 0.007543 0.000000
# 4 0.000000 0.000000 0.000000 0.016171 0.000000 -0.004115
# 5 -0.010392 -0.003343 0.007543 0.000000 0.037067 0.000000
# 6 0.000000 0.000000 0.000000 -0.004115 0.000000 0.025050
#
#
# Mechanical properties :
#
#
# Convention : Reuss Voigt Hill
#
# Bulk Modulus (GPa) = 41.64335 51.64652 46.64493
# Shear Modulus (GPa) = 26.00020 41.02691 33.51356
#
# Velocity S-wave (km/s) = 3.43170 4.31077 3.89611
# Velocity P-wave (km/s) = 5.87912 6.94045 6.43172
#
# Compressibility (1/GPa) = 0.02401344
#
# Stress axis : x y z
#
# Youngs Moduli (GPa) = 52.61351 120.40155 26.52423
#
# Poissons Ratio (x) = -0.12113 0.44114
# Poissons Ratio (y) = -0.05293 0.12930
# Poissons Ratio (z) = 0.87504 0.58691
#
# Static dielectric constant tensor:
#      x y z
#    x 1.741250 0.000000 0.020570 
#    y 0.000000 1.908870 0.000000 
#    z 0.020570 0.000000 1.719080 
# 
# From -- ./inp_files/202698.got.cif
#   From: 2010.05.17/outbox.cif.g08.bks.cpg/sg15_102_cif.got.tgz:202698.got - 2010.06.03 18:47:42.
