data_PCOD9296049
_publ_section_title
;
Structure prediction by ZEFSAII (Michael W. Deem and Ramdas Pophale) SiO2 
 PCOD9296049
Probable space group: C 2/C
;
_chemical_formula_sum "Si O2"
_cell_formula_units_Z 52
_cell_length_a 9.845686
_cell_length_b 26.321234
_cell_length_c 10.311250
_cell_angle_alpha 90.000000
_cell_angle_beta 57.433111
_cell_angle_gamma 90.000000
_cell_volume 2252.004834
_symmetry_space_group_name_H-M "C 2/C"
_symmetry_group_IT_number 15
_symmetry_cell_setting 'monoclinic'
loop_
_space_group_symop_operation_xyz
x,y,z
-x,y,1/2-z
-x,-y,-z
x,-y,1/2+z
1/2+x,1/2+y,z
1/2-x,1/2+y,1/2-z
1/2-x,1/2-y,-z
1/2+x,1/2-y,1/2+z
loop_
_atom_site_type_symbol
_atom_site_label
_atom_site_fract_x
_atom_site_fract_y
_atom_site_fract_z
Si Si1 0.622211 0.804418 0.952476
Si Si2 0.664426 0.638313 0.508397
Si Si3 0.345267 0.476991 0.512885
Si Si4 0.830828 0.485399 0.153497
Si Si5 0.190097 0.363230 0.303435
Si Si6 0.894645 0.811442 0.977092
Si Si7 0.500000 0.829576 0.750000
O O1 0.595246 0.749344 0.027694
O O2 0.573898 0.797322 0.828006
O O3 0.488952 0.843323 0.074349
O O4 0.806190 0.822426 0.884475
O O5 0.607524 0.581003 0.535427
O O6 0.687342 0.655225 0.645341
O O7 0.556505 0.668748 0.462392
O O8 0.850863 0.636825 0.370221
O O9 0.500000 0.500000 0.500000
O O10 0.294318 0.497985 0.398683
O O11 0.207163 0.485511 0.693126
O O12 0.816728 0.424719 0.191447
O O13 0.000000 0.500000 0.000000
O O14 0.258606 0.336234 0.141168
#
# Coordination Sequence:
#
# PCOD9296049 Si02
#       7
#     8   8   8   8   8   8   4
#     4  10  25  40  66  95 133 167 222 271 332 403
#     4  10  24  41  69  91 135 174 221 272 337 403
#     4  11  24  44  66 102 135 178 229 286 341 411
#     4  11  25  43  71  98 137 182 231 279 346 413
#     4  10  23  44  66  94 135 178 224 272 339 412
#     4  11  23  42  66 101 127 174 222 283 331 396
#     4  10  24  44  60  92 132 174 214 266 334 398
#
# _framework density 23.090537000000001
#
# number of rings (size 3 to 8) (size 9 to 14) (size 15 to 20)
#    0.000    1.538    0.000    2.769   10.769    8.000 
#    2.769    0.000    0.000    0.000    0.000    0.000 
#    0.000    0.000    0.000    0.000    0.000    0.000 
#
# Total GULP energy -145126.737041 kJ/mol
# GULP energy per Si atom -5581.797578 kJ/mol
# Density = 2.303798 g / cm^3
# Si number density = 23.090537 Si / 1000 Ang^3
#
#
#
# Elastic Constant Matrix: (Units=GPa)
#
#
# Indices 1 2 3 4 5 6 
#
# 1 183.7680 27.6864 2.2350 0.0000 16.6273 0.0000
# 2 27.6864 48.3182 -3.2155 0.0000 4.5913 0.0000
# 3 2.2350 -3.2155 50.0759 0.0000 19.1400 0.0000
# 4 0.0000 0.0000 0.0000 15.0381 0.0000 8.5008
# 5 16.6273 4.5913 19.1400 0.0000 42.0540 0.0000
# 6 0.0000 0.0000 0.0000 8.5008 0.0000 11.6484
#
#
#
# Elastic Compliance Matrix: (Units=1/GPa)
#
#
# Indices 1 2 3 4 5 6 
#
# 1 0.006133 -0.003277 0.000370 0.000000 -0.002236 0.000000
# 2 -0.003277 0.022966 0.002523 0.000000 -0.002360 0.000000
# 3 0.000370 0.002523 0.024546 0.000000 -0.011594 0.000000
# 4 0.000000 0.000000 0.000000 0.113195 0.000000 -0.082608
# 5 -0.002236 -0.002360 -0.011594 0.000000 0.030197 0.000000
# 6 0.000000 0.000000 0.000000 -0.082608 0.000000 0.146134
#
#
# Mechanical properties :
#
#
# Convention : Reuss Voigt Hill
#
# Bulk Modulus (GPa) = 18.91149 37.28600 28.09874
# Shear Modulus (GPa) = 13.82875 30.77853 22.30364
#
# Velocity S-wave (km/s) = 2.44988 3.65492 3.11130
# Velocity P-wave (km/s) = 4.02623 5.83044 5.01022
#
# Compressibility (1/GPa) = 0.05287791
#
# Stress axis : x y z
#
# Youngs Moduli (GPa) = 163.04786 43.54239 40.73903
#
# Poissons Ratio (x) = 0.14270 -0.01509
# Poissons Ratio (y) = 0.53434 -0.10278
# Poissons Ratio (z) = -0.06038 -0.10985
#
# Static dielectric constant tensor:
#      x y z
#    x 1.941420 0.000000 -0.007540 
#    y 0.000000 1.704050 0.000000 
#    z -0.007540 0.000000 1.963440 
# 
# From -- ./inp_files/81181.got.cif
#   From: 2010.05.17/outbox.cif.g08.bks.cpg/sg15_41_cif.got.tgz:81181.got - 2010.06.03 18:47:42.
