data_PCOD9296073
_publ_section_title
;
Structure prediction by ZEFSAII (Michael W. Deem and Ramdas Pophale) SiO2 
 PCOD9296073
Probable space group: C 2/C
;
_chemical_formula_sum "Si O2"
_cell_formula_units_Z 48
_cell_length_a 13.441205
_cell_length_b 5.163874
_cell_length_c 27.716636
_cell_angle_alpha 90.000000
_cell_angle_beta 103.506109
_cell_angle_gamma 90.000000
_cell_volume 1870.573408
_symmetry_space_group_name_H-M "C 2/C"
_symmetry_group_IT_number 15
_symmetry_cell_setting 'monoclinic'
loop_
_space_group_symop_operation_xyz
x,y,z
-x,y,1/2-z
-x,-y,-z
x,-y,1/2+z
1/2+x,1/2+y,z
1/2-x,1/2+y,1/2-z
1/2-x,1/2-y,-z
1/2+x,1/2-y,1/2+z
loop_
_atom_site_type_symbol
_atom_site_label
_atom_site_fract_x
_atom_site_fract_y
_atom_site_fract_z
Si Si1 0.968623 0.730439 0.044818
Si Si2 0.332487 0.844309 0.970130
Si Si3 0.652547 0.468577 0.885242
Si Si4 0.182866 0.360603 0.236722
Si Si5 0.931299 0.260717 0.704568
Si Si6 0.971635 0.577884 0.859087
O O1 0.071093 0.840921 0.031076
O O2 0.022226 0.507551 0.084962
O O3 0.903208 0.897591 0.074949
O O4 0.889221 0.590198 0.000427
O O5 0.263338 0.886767 0.915467
O O6 0.250000 0.750000 0.000000
O O7 0.656971 0.644304 0.838417
O O8 0.575527 0.238929 0.863649
O O9 0.235143 0.095067 0.259955
O O10 0.110048 0.496178 0.269049
O O11 0.122714 0.298886 0.180010
O O12 0.000000 0.097711 0.750000
O O13 0.012250 0.324121 0.671595
#
# Coordination Sequence:
#
# PCOD9296073 Si02
#       6
#     8   8   8   8   8   8
#     4  10  24  45  66 104 140 177 244 299 354 448
#     4  11  23  45  69 101 143 186 238 300 373 434
#     4  11  23  44  75  98 141 193 238 295 376 427
#     4  11  27  44  69 106 145 189 245 303 369 442
#     4   9  23  43  66  96 135 185 234 297 363 435
#     4  10  23  44  66  98 138 184 238 304 358 437
#
# _framework density 25.66058
#
# number of rings (size 3 to 8) (size 9 to 14) (size 15 to 20)
#    0.000    1.667    1.667    0.500   11.667    1.333 
#    3.000    0.000    0.000    0.000    0.000    0.000 
#    0.000    0.000    0.000    0.000    0.000    0.000 
#
# Total GULP energy -134031.503037 kJ/mol
# GULP energy per Si atom -5584.645960 kJ/mol
# Density = 2.560218 g / cm^3
# Si number density = 25.660580 Si / 1000 Ang^3
#
#
#
# Elastic Constant Matrix: (Units=GPa)
#
#
# Indices 1 2 3 4 5 6 
#
# 1 151.6716 24.7727 35.8710 0.0000 26.8458 0.0000
# 2 24.7727 61.1756 38.7750 0.0000 17.1060 0.0000
# 3 35.8710 38.7750 164.7791 0.0000 46.1892 0.0000
# 4 0.0000 0.0000 0.0000 38.3870 0.0000 4.7043
# 5 26.8458 17.1060 46.1892 0.0000 55.8630 0.0000
# 6 0.0000 0.0000 0.0000 4.7043 0.0000 39.8557
#
#
#
# Elastic Compliance Matrix: (Units=1/GPa)
#
#
# Indices 1 2 3 4 5 6 
#
# 1 0.007489 -0.002034 -0.000413 0.000000 -0.002635 0.000000
# 2 -0.002034 0.020105 -0.003692 0.000000 -0.002126 0.000000
# 3 -0.000413 -0.003692 0.008663 0.000000 -0.005833 0.000000
# 4 0.000000 0.000000 0.000000 0.026433 0.000000 -0.003120
# 5 -0.002635 -0.002126 -0.005833 0.000000 0.024641 0.000000
# 6 0.000000 0.000000 0.000000 -0.003120 0.000000 0.025459
#
#
# Mechanical properties :
#
#
# Convention : Reuss Voigt Hill
#
# Bulk Modulus (GPa) = 41.70538 64.05153 52.87845
# Shear Modulus (GPa) = 37.57656 45.36831 41.47243
#
# Velocity S-wave (km/s) = 3.83086 4.20934 4.02455
# Velocity P-wave (km/s) = 5.98793 6.97424 6.49982
#
# Compressibility (1/GPa) = 0.02397772
#
# Stress axis : x y z
#
# Youngs Moduli (GPa) = 133.52037 49.73932 115.43799
#
# Poissons Ratio (x) = 0.10118 0.04770
# Poissons Ratio (y) = 0.27161 0.42622
# Poissons Ratio (z) = 0.05517 0.18365
#
# Static dielectric constant tensor:
#      x y z
#    x 2.136960 0.000000 -0.058960 
#    y 0.000000 2.135290 0.000000 
#    z -0.058960 0.000000 2.135580 
# 
# From -- ./inp_files/312445.got.cif
#   From: 2010.05.17/outbox.cif.g08.bks.cpg/sg15_157_cif.got.tgz:312445.got - 2010.06.03 18:47:42.
