data_PCOD9296491
_publ_section_title
;
Structure prediction by ZEFSAII (Michael W. Deem and Ramdas Pophale) SiO2 
 PCOD9296491
Probable space group: C 2/C
;
_chemical_formula_sum "Si O2"
_cell_formula_units_Z 64
_cell_length_a 9.253945
_cell_length_b 27.788921
_cell_length_c 14.229529
_cell_angle_alpha 90.000000
_cell_angle_beta 112.536425
_cell_angle_gamma 90.000000
_cell_volume 3379.792231
_symmetry_space_group_name_H-M "C 2/C"
_symmetry_group_IT_number 15
_symmetry_cell_setting 'monoclinic'
loop_
_space_group_symop_operation_xyz
x,y,z
-x,y,1/2-z
-x,-y,-z
x,-y,1/2+z
1/2+x,1/2+y,z
1/2-x,1/2+y,1/2-z
1/2-x,1/2-y,-z
1/2+x,1/2-y,1/2+z
loop_
_atom_site_type_symbol
_atom_site_label
_atom_site_fract_x
_atom_site_fract_y
_atom_site_fract_z
Si Si1 0.211663 0.129561 0.561221
Si Si2 0.922044 0.275622 0.128598
Si Si3 0.522577 0.864794 0.645034
Si Si4 0.679854 0.204069 0.533412
Si Si5 0.351055 0.052724 0.994429
Si Si6 0.150483 0.167703 0.352990
Si Si7 0.575503 0.377673 0.369023
Si Si8 0.566376 0.036683 0.870848
O O1 0.308904 0.178816 0.594614
O O2 0.144348 0.131671 0.439162
O O3 0.329249 0.085027 0.605750
O O4 0.068338 0.129550 0.596700
O O5 0.843399 0.222841 0.107757
O O6 0.000000 0.278479 0.250000
O O7 0.053749 0.281232 0.081009
O O8 0.500000 0.870050 0.750000
O O9 0.406372 0.826497 0.568664
O O10 0.477524 0.913607 0.579455
O O11 0.695252 0.846113 0.665576
O O12 0.750000 0.250000 0.500000
O O13 0.815721 0.170084 0.609967
O O14 0.334613 0.006198 0.056345
O O15 0.191318 0.081455 0.937652
O O16 0.424400 0.042462 0.910103
O O17 0.000000 0.164026 0.250000
O O18 0.500000 0.389651 0.250000
O O19 0.500000 0.026543 0.750000
#
# Coordination Sequence:
#
# PCOD9296491 Si02
#       8
#     8   8   8   8   8   8   8   8
#     4  12  22  41  64  92 128 165 206 275 314 379
#     4  11  23  40  63  88 127 170 218 257 317 386
#     4  11  24  42  65  89 128 169 216 267 317 384
#     4  11  24  40  60  91 127 170 218 266 317 379
#     4  10  23  45  65  97 127 165 214 265 320 392
#     4  11  25  40  61  93 127 172 216 259 319 378
#     4  11  24  40  63  93 131 166 212 265 328 379
#     4  11  22  42  73  94 123 166 217 260 326 391
#
# _framework density 18.936074999999999
#
# number of rings (size 3 to 8) (size 9 to 14) (size 15 to 20)
#    0.000    1.000    2.500    4.125    8.750    1.000 
#    0.000    0.625    0.000    0.000    0.000    0.000 
#    0.000    0.000    0.000    0.000    0.000    0.000 
#
# Total GULP energy -178817.563794 kJ/mol
# GULP energy per Si atom -5588.048869 kJ/mol
# Density = 1.889298 g / cm^3
# Si number density = 18.936075 Si / 1000 Ang^3
#
#
#
# Elastic Constant Matrix: (Units=GPa)
#
#
# Indices 1 2 3 4 5 6 
#
# 1 130.2199 50.7391 56.2128 0.0000 -10.8876 0.0000
# 2 50.7391 88.5243 51.0350 0.0000 4.6716 0.0000
# 3 56.2128 51.0350 138.2505 0.0000 -13.8539 0.0000
# 4 0.0000 0.0000 0.0000 -53.3118 0.0000 -33.4314
# 5 -10.8876 4.6716 -13.8539 0.0000 40.2135 0.0000
# 6 0.0000 0.0000 0.0000 -33.4314 0.0000 -8.1332
#
#
#
# Elastic Compliance Matrix: (Units=1/GPa)
#
#
# Indices 1 2 3 4 5 6 
#
# 1 0.010862 -0.005060 -0.002273 0.000000 0.002745 0.000000
# 2 -0.005060 0.017234 -0.004808 0.000000 -0.005029 0.000000
# 3 -0.002273 -0.004808 0.010282 0.000000 0.003485 0.000000
# 4 0.000000 0.000000 0.000000 0.011890 0.000000 -0.048872
# 5 0.002745 -0.005029 0.003485 0.000000 0.027395 0.000000
# 6 0.000000 0.000000 0.000000 -0.048872 0.000000 0.077934
#
#
# Mechanical properties :
#
#
# Convention : Reuss Voigt Hill
#
# Bulk Modulus (GPa) = 70.95143 74.77427 72.86285
# Shear Modulus (GPa) = 27.08871 9.02088 18.05479
#
# Velocity S-wave (km/s) = 3.78634 2.18499 3.09116
# Velocity P-wave (km/s) = 7.52765 6.77784 7.16256
#
# Compressibility (1/GPa) = 0.01409415
#
# Stress axis : x y z
#
# Youngs Moduli (GPa) = 92.06601 58.02511 97.25792
#
# Poissons Ratio (x) = 0.29360 0.22111
# Poissons Ratio (y) = 0.46583 0.46766
# Poissons Ratio (z) = 0.20931 0.27901
#
# Static dielectric constant tensor:
#      x y z
#    x 1.942670 0.000000 0.216630 
#    y 0.000000 1.675110 0.000000 
#    z 0.216630 0.000000 1.778300 
# 
# From -- ./inp_files/138675.got.cif
#   From: 2010.05.17/outbox.cif.g08.bks.cpg/sg15_70_cif.got.tgz:138675.got - 2010.06.03 18:47:42.
