data_PCOD9296514
_publ_section_title
;
Structure prediction by ZEFSAII (Michael W. Deem and Ramdas Pophale) SiO2 
 PCOD9296514
Probable space group: C 2/C
;
_chemical_formula_sum "Si O2"
_cell_formula_units_Z 32
_cell_length_a 29.390495
_cell_length_b 7.722557
_cell_length_c 14.137750
_cell_angle_alpha 90.000000
_cell_angle_beta 155.600317
_cell_angle_gamma 90.000000
_cell_volume 1325.570638
_symmetry_space_group_name_H-M "C 2/C"
_symmetry_group_IT_number 15
_symmetry_cell_setting 'monoclinic'
loop_
_space_group_symop_operation_xyz
x,y,z
-x,y,1/2-z
-x,-y,-z
x,-y,1/2+z
1/2+x,1/2+y,z
1/2-x,1/2+y,1/2-z
1/2-x,1/2-y,-z
1/2+x,1/2-y,1/2+z
loop_
_atom_site_type_symbol
_atom_site_label
_atom_site_fract_x
_atom_site_fract_y
_atom_site_fract_z
Si Si1 0.029888 0.577368 0.697232
Si Si2 0.707003 0.062710 0.287749
Si Si3 0.886973 0.098157 0.265164
Si Si4 0.742903 0.543956 0.827570
O O1 0.919359 0.501287 0.441899
O O2 0.868822 0.446425 0.601411
O O3 0.000000 0.627672 0.750000
O O4 0.079158 0.736572 0.731784
O O5 0.692195 0.269993 0.253187
O O6 0.795262 0.008210 0.532279
O O7 0.753167 0.996015 0.275371
O O8 0.823394 0.108766 0.245035
O O9 0.000000 0.000000 0.500000
#
# Coordination Sequence:
#
# PCOD9296514 Si02
#       4
#     8   8   8   8
#     4  10  23  45  66  97 134 171 220 272 324 386
#     4  11  24  47  65  96 138 165 222 276 321 390
#     4  12  25  43  70  97 134 178 216 268 330 389
#     4  11  24  45  71  97 130 178 215 274 330 383
#
# _framework density 24.140547999999999
#
# number of rings (size 3 to 8) (size 9 to 14) (size 15 to 20)
#    0.000    1.000    2.500    4.500    0.000    1.000 
#   18.000    0.000    0.000    0.000    0.000    0.000 
#    0.000    0.000    0.000    0.000    0.000    0.000 
#
# Total GULP energy -89614.564010 kJ/mol
# GULP energy per Si atom -5600.910251 kJ/mol
# Density = 2.408560 g / cm^3
# Si number density = 24.140548 Si / 1000 Ang^3
#
#
#
# Elastic Constant Matrix: (Units=GPa)
#
#
# Indices 1 2 3 4 5 6 
#
# 1 130.9531 17.1981 37.2594 0.0000 13.7639 0.0000
# 2 17.1981 49.3917 9.2637 0.0000 -7.4515 0.0000
# 3 37.2594 9.2637 162.5604 0.0000 7.0225 0.0000
# 4 0.0000 0.0000 0.0000 36.9375 0.0000 0.4210
# 5 13.7639 -7.4515 7.0225 0.0000 32.7477 0.0000
# 6 0.0000 0.0000 0.0000 0.4210 0.0000 25.5723
#
#
#
# Elastic Compliance Matrix: (Units=1/GPa)
#
#
# Indices 1 2 3 4 5 6 
#
# 1 0.009013 -0.003458 -0.001687 0.000000 -0.004213 0.000000
# 2 -0.003458 0.022619 -0.000789 0.000000 0.006769 0.000000
# 3 -0.001687 -0.000789 0.006622 0.000000 -0.000891 0.000000
# 4 0.000000 0.000000 0.000000 0.027078 0.000000 -0.000446
# 5 -0.004213 0.006769 -0.000891 0.000000 0.034039 0.000000
# 6 0.000000 0.000000 0.000000 -0.000446 0.000000 0.039112
#
#
# Mechanical properties :
#
#
# Convention : Reuss Voigt Hill
#
# Bulk Modulus (GPa) = 37.89668 52.26083 45.07875
# Shear Modulus (GPa) = 31.41778 37.66376 34.54077
#
# Velocity S-wave (km/s) = 3.61148 3.95420 3.78672
# Velocity P-wave (km/s) = 5.75524 6.52252 6.15085
#
# Compressibility (1/GPa) = 0.02638754
#
# Stress axis : x y z
#
# Youngs Moduli (GPa) = 110.94847 44.20966 151.02070
#
# Poissons Ratio (x) = 0.15286 0.25474
# Poissons Ratio (y) = 0.38362 0.11914
# Poissons Ratio (z) = 0.18715 0.03488
#
# Static dielectric constant tensor:
#      x y z
#    x 1.931630 0.000000 -0.023780 
#    y 0.000000 1.897080 0.000000 
#    z -0.023780 0.000000 1.909390 
# 
# From -- ./inp_files/116617.got.cif
#   From: 2010.05.17/outbox.cif.g08.bks.cpg/sg15_59_cif.got.tgz:116617.got - 2010.06.03 18:47:42.
