data_PCOD9296209
_publ_section_title
;
Structure prediction by ZEFSAII (Michael W. Deem and Ramdas Pophale) SiO2 
 PCOD9296209
Probable space group: C 2/C
;
_chemical_formula_sum "Si O2"
_cell_formula_units_Z 52
_cell_length_a 14.060252
_cell_length_b 5.953589
_cell_length_c 31.861170
_cell_angle_alpha 90.000000
_cell_angle_beta 62.048634
_cell_angle_gamma 90.000000
_cell_volume 2355.940999
_symmetry_space_group_name_H-M "C 2/C"
_symmetry_group_IT_number 15
_symmetry_cell_setting 'monoclinic'
loop_
_space_group_symop_operation_xyz
x,y,z
-x,y,1/2-z
-x,-y,-z
x,-y,1/2+z
1/2+x,1/2+y,z
1/2-x,1/2+y,1/2-z
1/2-x,1/2-y,-z
1/2+x,1/2-y,1/2+z
loop_
_atom_site_type_symbol
_atom_site_label
_atom_site_fract_x
_atom_site_fract_y
_atom_site_fract_z
Si Si1 0.542437 0.039689 0.445207
Si Si2 0.310912 0.274941 0.737032
Si Si3 0.248462 0.158574 0.898932
Si Si4 0.832240 0.698492 0.444668
Si Si5 0.156361 0.221697 0.362770
Si Si6 0.500000 0.553575 0.250000
Si Si7 0.867269 0.042981 0.849835
O O1 0.655295 0.164831 0.428020
O O2 0.449537 0.170616 0.440240
O O3 0.500000 0.000000 0.500000
O O4 0.567323 0.819947 0.412432
O O5 0.245036 0.521331 0.749622
O O6 0.372197 0.279350 0.679633
O O7 0.397225 0.303262 0.756313
O O8 0.354605 0.279074 0.860194
O O9 0.280168 0.017941 0.932973
O O10 0.196648 0.011553 0.872908
O O11 0.750000 0.750000 0.500000
O O12 0.853852 0.853499 0.399058
O O13 0.261939 0.377214 0.346141
O O14 0.534618 0.410451 0.201717
#
# Coordination Sequence:
#
# PCOD9296209 Si02
#       7
#     8   8   8   8   8   4   8
#     4  11  25  43  69 102 137 185 239 294 376 441
#     4  12  28  50  76 111 155 201 260 317 388 456
#     4  10  23  44  69  93 141 178 233 300 364 440
#     4  11  25  43  69 103 138 183 241 301 364 448
#     4  10  23  45  69  99 143 185 240 304 367 444
#     4  12  26  46  76 108 150 202 250 316 390 464
#     4  10  23  46  66 103 137 187 242 297 371 447
#
# _framework density 22.071860000000001
#
# number of rings (size 3 to 8) (size 9 to 14) (size 15 to 20)
#    0.000    1.231    1.538    3.692    6.462    5.538 
#    2.769    0.000    0.000    0.000    0.000    0.000 
#    0.000    0.000    0.000    0.000    0.000    0.000 
#
# Total GULP energy -144930.066187 kJ/mol
# GULP energy per Si atom -5574.233315 kJ/mol
# Density = 2.202162 g / cm^3
# Si number density = 22.071860 Si / 1000 Ang^3
#
#
#
# Elastic Constant Matrix: (Units=GPa)
#
#
# Indices 1 2 3 4 5 6 
#
# 1 97.7282 19.2337 34.5467 0.0014 12.1267 0.0012
# 2 19.2337 84.2868 51.1867 0.0021 -2.8611 0.0019
# 3 34.5467 51.1867 197.0691 0.0007 7.7592 0.0001
# 4 0.0014 0.0021 0.0007 -69.5776 0.0002 -45.2502
# 5 12.1267 -2.8611 7.7592 0.0002 41.0942 0.0002
# 6 0.0012 0.0019 0.0001 -45.2502 0.0002 -4.7064
#
#
#
# Elastic Compliance Matrix: (Units=1/GPa)
#
#
# Indices 1 2 3 4 5 6 
#
# 1 0.011503 -0.001887 -0.001398 0.000000 -0.003262 0.000000
# 2 -0.001887 0.014512 -0.003527 0.000001 0.002233 0.000000
# 3 -0.001398 -0.003527 0.006276 0.000000 -0.001018 0.000000
# 4 0.000000 0.000001 0.000000 0.002736 0.000000 -0.026306
# 5 -0.003262 0.002233 -0.001018 0.000000 0.025645 0.000000
# 6 0.000000 0.000000 0.000000 -0.026306 0.000000 0.040449
#
#
# Mechanical properties :
#
#
# Convention : Reuss Voigt Hill
#
# Bulk Modulus (GPa) = 53.56733 65.44645 59.50689
# Shear Modulus (GPa) = 41.33416 11.63652 26.48534
#
# Velocity S-wave (km/s) = 4.33217 2.29860 3.46780
# Velocity P-wave (km/s) = 7.02466 6.06306 6.56150
#
# Compressibility (1/GPa) = 0.01866810
#
# Stress axis : x y z
#
# Youngs Moduli (GPa) = 86.93623 68.90739 159.34956
#
# Poissons Ratio (x) = 0.13000 0.22277
# Poissons Ratio (y) = 0.16401 0.56196
# Poissons Ratio (z) = 0.12154 0.24301
#
# Static dielectric constant tensor:
#      x y z
#    x 1.802370 0.000000 -0.014560 
#    y 0.000000 1.900090 0.000000 
#    z -0.014560 0.000000 1.806710 
# 
# From -- ./inp_files/312299.got.cif
#   From: 2010.05.17/outbox.cif.g08.bks.cpg/sg15_157_cif.got.tgz:312299.got - 2010.06.03 18:47:42.
