data_PCOD9296898
_publ_section_title
;
Structure prediction by ZEFSAII (Michael W. Deem and Ramdas Pophale) SiO2 
 PCOD9296898
Probable space group: C 2/C
;
_chemical_formula_sum "Si O2"
_cell_formula_units_Z 44
_cell_length_a 19.591336
_cell_length_b 11.879051
_cell_length_c 8.661892
_cell_angle_alpha 90.000000
_cell_angle_beta 69.211698
_cell_angle_gamma 90.000000
_cell_volume 1884.615978
_symmetry_space_group_name_H-M "C 2/C"
_symmetry_group_IT_number 15
_symmetry_cell_setting 'monoclinic'
loop_
_space_group_symop_operation_xyz
x,y,z
-x,y,1/2-z
-x,-y,-z
x,-y,1/2+z
1/2+x,1/2+y,z
1/2-x,1/2+y,1/2-z
1/2-x,1/2-y,-z
1/2+x,1/2-y,1/2+z
loop_
_atom_site_type_symbol
_atom_site_label
_atom_site_fract_x
_atom_site_fract_y
_atom_site_fract_z
Si Si1 0.500000 0.480543 0.750000
Si Si2 0.336875 0.908002 0.425125
Si Si3 0.739989 0.537695 0.719220
Si Si4 0.543374 0.088260 0.066688
Si Si5 0.405074 0.276706 0.698898
Si Si6 0.146421 0.910403 0.014956
O O1 0.451265 0.389551 0.693830
O O2 0.563799 0.560664 0.630914
O O3 0.303600 0.918999 0.279756
O O4 0.377430 0.787778 0.375130
O O5 0.274174 0.928216 0.603024
O O6 0.389372 0.014731 0.417819
O O7 0.676268 0.515313 0.893219
O O8 0.701283 0.606502 0.613653
O O9 0.500000 0.130783 0.250000
O O10 0.552139 0.186650 0.936510
O O11 0.500000 0.000000 0.000000
O O12 0.346431 0.313487 0.617462
#
# Coordination Sequence:
#
# PCOD9296898 Si02
#       6
#     4   8   8   8   8   8
#     4  12  26  48  68 106 148 178 252 298 336 414
#     4  11  22  45  68 106 141 175 232 294 342 436
#     4  10  23  46  71  97 149 182 225 302 348 408
#     4  12  23  42  69 104 144 177 228 294 353 419
#     4  12  25  41  75 101 134 193 228 286 368 406
#     4  11  25  46  68 102 139 190 234 295 340 417
#
# _framework density 23.34693
#
# number of rings (size 3 to 8) (size 9 to 14) (size 15 to 20)
#    0.000    0.727    5.455    1.636    1.273    1.455 
#    0.000    0.000    0.000    0.000    0.000    0.000 
#    0.000    0.000    0.000    0.000    0.000    0.000 
#
# Total GULP energy -122547.811629 kJ/mol
# GULP energy per Si atom -5570.355074 kJ/mol
# Density = 2.329379 g / cm^3
# Si number density = 23.346930 Si / 1000 Ang^3
#
#
#
# Elastic Constant Matrix: (Units=GPa)
#
#
# Indices 1 2 3 4 5 6 
#
# 1 82.8331 5.4131 36.8942 0.0000 7.3452 0.0000
# 2 5.4131 47.0564 3.0381 0.0000 -7.9308 0.0000
# 3 36.8942 3.0381 81.5192 0.0000 -14.5629 0.0000
# 4 0.0000 0.0000 0.0000 24.1903 0.0000 -1.8824
# 5 7.3452 -7.9308 -14.5629 0.0000 49.9473 0.0000
# 6 0.0000 0.0000 0.0000 -1.8824 0.0000 1.5108
#
#
#
# Elastic Compliance Matrix: (Units=1/GPa)
#
#
# Indices 1 2 3 4 5 6 
#
# 1 0.016342 -0.002217 -0.008235 0.000000 -0.005156 0.000000
# 2 -0.002217 0.022140 0.000912 0.000000 0.004107 0.000000
# 3 -0.008235 0.000912 0.017093 0.000000 0.006339 0.000000
# 4 0.000000 0.000000 0.000000 0.045777 0.000000 0.057035
# 5 -0.005156 0.004107 0.006339 0.000000 0.023280 0.000000
# 6 0.000000 0.000000 0.000000 0.057035 0.000000 0.732965
#
#
# Mechanical properties :
#
#
# Convention : Reuss Voigt Hill
#
# Bulk Modulus (GPa) = 27.40134 33.56660 30.48397
# Shear Modulus (GPa) = 5.62530 26.20057 15.91294
#
# Velocity S-wave (km/s) = 1.55392 3.35360 2.61355
# Velocity P-wave (km/s) = 3.87061 5.42255 4.71093
#
# Compressibility (1/GPa) = 0.03649456
#
# Stress axis : x y z
#
# Youngs Moduli (GPa) = 61.19039 45.16805 58.50517
#
# Poissons Ratio (x) = 0.10015 0.48178
# Poissons Ratio (y) = 0.13568 -0.05337
# Poissons Ratio (z) = 0.50389 -0.04120
#
# Static dielectric constant tensor:
#      x y z
#    x 2.096080 0.000000 -0.069630 
#    y 0.000000 2.462430 0.000000 
#    z -0.069630 0.000000 1.907060 
# 
# From -- ./inp_files/60499.got.cif
#   From: 2010.05.17/outbox.cif.g08.bks.cpg/sg15_31_cif.got.tgz:60499.got - 2010.06.03 18:47:42.
