data_PCOD9296697
_publ_section_title
;
Structure prediction by ZEFSAII (Michael W. Deem and Ramdas Pophale) SiO2 
 PCOD9296697
Probable space group: C 2/C
;
_chemical_formula_sum "Si O2"
_cell_formula_units_Z 28
_cell_length_a 8.975825
_cell_length_b 30.236969
_cell_length_c 5.125771
_cell_angle_alpha 90.000000
_cell_angle_beta 61.625920
_cell_angle_gamma 90.000000
_cell_volume 1224.016316
_symmetry_space_group_name_H-M "C 2/C"
_symmetry_group_IT_number 15
_symmetry_cell_setting 'monoclinic'
loop_
_space_group_symop_operation_xyz
x,y,z
-x,y,1/2-z
-x,-y,-z
x,-y,1/2+z
1/2+x,1/2+y,z
1/2-x,1/2+y,1/2-z
1/2-x,1/2-y,-z
1/2+x,1/2-y,1/2+z
loop_
_atom_site_type_symbol
_atom_site_label
_atom_site_fract_x
_atom_site_fract_y
_atom_site_fract_z
Si Si1 0.351452 0.833216 0.071637
Si Si2 0.500000 0.761104 0.250000
Si Si3 0.678919 0.529974 0.177918
Si Si4 0.500000 0.301624 0.250000
Si Si5 0.000000 0.413684 0.250000
O O1 0.353666 0.796966 0.303469
O O2 0.405528 0.880815 0.129526
O O3 0.168739 0.830777 0.096210
O O4 0.500000 0.819484 0.750000
O O5 0.491440 0.729992 0.506775
O O6 0.500000 0.553520 0.250000
O O7 0.679651 0.510346 0.468081
O O8 0.849863 0.557495 0.997282
#
# Coordination Sequence:
#
# PCOD9296697 Si02
#       5
#     8   4   8   4   4
#     4  11  27  43  66 102 134 178 224 272 346 389
#     4  11  24  46  70  94 128 180 234 284 324 388
#     4  10  23  45  73 102 129 174 223 265 323 396
#     4  12  26  44  70  93 132 180 230 283 324 392
#     4  11  26  42  68 101 144 172 214 277 332 400
#
# _framework density 22.875513000000002
#
# number of rings (size 3 to 8) (size 9 to 14) (size 15 to 20)
#    0.000    1.143    1.429    2.571   12.000    2.286 
#    2.571    0.000    0.000    0.000    0.000    0.000 
#    0.000    0.000    0.000    0.000    0.000    0.000 
#
# Total GULP energy -78258.953434 kJ/mol
# GULP energy per Si atom -5589.925245 kJ/mol
# Density = 2.282345 g / cm^3
# Si number density = 22.875513 Si / 1000 Ang^3
#
#
#
# Elastic Constant Matrix: (Units=GPa)
#
#
# Indices 1 2 3 4 5 6 
#
# 1 149.8915 46.6591 51.0639 0.0000 -43.2459 0.0000
# 2 46.6591 59.6395 29.4786 0.0000 -16.7776 0.0000
# 3 51.0639 29.4786 106.8648 0.0000 -1.7529 0.0000
# 4 0.0000 0.0000 0.0000 1.3646 0.0000 1.5258
# 5 -43.2459 -16.7776 -1.7529 0.0000 55.5204 0.0000
# 6 0.0000 0.0000 0.0000 1.5258 0.0000 9.1888
#
#
#
# Elastic Compliance Matrix: (Units=1/GPa)
#
#
# Indices 1 2 3 4 5 6 
#
# 1 0.011846 -0.005101 -0.004129 0.000000 0.007555 0.000000
# 2 -0.005101 0.023599 -0.004023 0.000000 0.003031 0.000000
# 3 -0.004129 -0.004023 0.012374 0.000000 -0.004041 0.000000
# 4 0.000000 0.000000 0.000000 0.899890 0.000000 -0.149429
# 5 0.007555 0.003031 -0.004041 0.000000 0.024685 0.000000
# 6 0.000000 0.000000 0.000000 -0.149429 0.000000 0.133641
#
#
# Mechanical properties :
#
#
# Convention : Reuss Voigt Hill
#
# Bulk Modulus (GPa) = 46.91965 63.42213 55.17089
# Shear Modulus (GPa) = 4.38733 25.82771 15.10752
#
# Velocity S-wave (km/s) = 1.38639 3.36379 2.57266
# Velocity P-wave (km/s) = 4.80813 6.54766 5.74413
#
# Compressibility (1/GPa) = 0.02131303
#
# Stress axis : x y z
#
# Youngs Moduli (GPa) = 84.41701 42.37408 80.81397
#
# Poissons Ratio (x) = 0.21616 0.33371
# Poissons Ratio (y) = 0.43063 0.32508
# Poissons Ratio (z) = 0.34858 0.17045
#
# Static dielectric constant tensor:
#      x y z
#    x 1.913770 0.000000 -0.030270 
#    y 0.000000 1.833940 0.000000 
#    z -0.030270 0.000000 1.938120 
# 
# From -- ./inp_files/2299.got.cif
#   From: 2010.05.17/outbox.cif.g08.bks.cpg/sg15_2_cif.got.tgz:2299.got - 2010.06.03 18:47:42.
