data_PCOD9296396
_publ_section_title
;
Structure prediction by ZEFSAII (Michael W. Deem and Ramdas Pophale) SiO2 
 PCOD9296396
Probable space group: C 2/C
;
_chemical_formula_sum "Si O2"
_cell_formula_units_Z 28
_cell_length_a 6.985065
_cell_length_b 15.551224
_cell_length_c 14.012605
_cell_angle_alpha 90.000000
_cell_angle_beta 42.838018
_cell_angle_gamma 90.000000
_cell_volume 1034.943981
_symmetry_space_group_name_H-M "C 2/C"
_symmetry_group_IT_number 15
_symmetry_cell_setting 'monoclinic'
loop_
_space_group_symop_operation_xyz
x,y,z
-x,y,1/2-z
-x,-y,-z
x,-y,1/2+z
1/2+x,1/2+y,z
1/2-x,1/2+y,1/2-z
1/2-x,1/2-y,-z
1/2+x,1/2-y,1/2+z
loop_
_atom_site_type_symbol
_atom_site_label
_atom_site_fract_x
_atom_site_fract_y
_atom_site_fract_z
Si Si1 0.314771 0.066972 0.124182
Si Si2 0.924440 0.291347 0.071215
Si Si3 0.098894 0.151142 0.868396
Si Si4 0.000000 0.507898 0.250000
O O1 0.000000 0.034780 0.250000
O O2 0.457900 0.068895 0.175059
O O3 0.315191 0.151794 0.060599
O O4 0.500000 0.000000 0.000000
O O5 0.672115 0.335604 0.101448
O O6 0.836257 0.303367 0.213020
O O7 0.996495 0.199187 0.001276
O O8 0.233120 0.058426 0.844452
#
# Coordination Sequence:
#
# PCOD9296396 Si02
#       4
#     8   8   8   4
#     4  12  27  47  72 107 150 192 243 301 366 439
#     4  10  23  46  72 104 149 188 244 305 358 439
#     4  10  23  44  73 107 142 190 244 304 362 435
#     4  12  26  44  76 106 144 192 240 302 370 428
#
# _framework density 27.054604000000001
#
# number of rings (size 3 to 8) (size 9 to 14) (size 15 to 20)
#    0.000    1.143    2.857    1.714    2.000   12.571 
#    0.000    0.000    0.000    0.000    0.000    0.000 
#    0.000    0.000    0.000    0.000    0.000    0.000 
#
# Total GULP energy -78384.633871 kJ/mol
# GULP energy per Si atom -5598.902419 kJ/mol
# Density = 2.699303 g / cm^3
# Si number density = 27.054604 Si / 1000 Ang^3
#
#
#
# Elastic Constant Matrix: (Units=GPa)
#
#
# Indices 1 2 3 4 5 6 
#
# 1 160.0021 13.7959 64.7508 -0.0004 17.2538 0.0008
# 2 13.7959 48.3514 33.3806 -0.0001 -7.3286 0.0001
# 3 64.7508 33.3806 173.0234 -0.0011 16.4749 0.0004
# 4 -0.0004 -0.0001 -0.0011 39.7481 0.0004 9.8088
# 5 17.2538 -7.3286 16.4749 0.0004 63.6132 -0.0002
# 6 0.0008 0.0001 0.0004 9.8088 -0.0002 16.9554
#
#
#
# Elastic Compliance Matrix: (Units=1/GPa)
#
#
# Indices 1 2 3 4 5 6 
#
# 1 0.007489 -0.000594 -0.002551 0.000000 -0.001439 0.000000
# 2 -0.000594 0.024965 -0.005007 0.000000 0.004334 0.000000
# 3 -0.002551 -0.005007 0.007884 0.000000 -0.001927 0.000000
# 4 0.000000 0.000000 0.000000 0.029348 0.000000 -0.016978
# 5 -0.001439 0.004334 -0.001927 0.000000 0.017109 0.000001
# 6 0.000000 0.000000 0.000000 -0.016978 0.000001 0.068800
#
#
# Mechanical properties :
#
#
# Convention : Reuss Voigt Hill
#
# Bulk Modulus (GPa) = 41.60750 67.24794 54.42772
# Shear Modulus (GPa) = 27.79194 42.02664 34.90929
#
# Velocity S-wave (km/s) = 3.20856 3.94560 3.59601
# Velocity P-wave (km/s) = 5.39805 6.75776 6.11581
#
# Compressibility (1/GPa) = 0.02403413
#
# Stress axis : x y z
#
# Youngs Moduli (GPa) = 133.53640 40.05637 126.84560
#
# Poissons Ratio (x) = 0.02378 0.32357
# Poissons Ratio (y) = 0.07928 0.63509
# Poissons Ratio (z) = 0.34064 0.20056
#
# Static dielectric constant tensor:
#      x y z
#    x 2.144490 0.000000 -0.140800 
#    y 0.000000 2.194970 0.000000 
#    z -0.140800 0.000000 2.059530 
# 
# From -- ./inp_files/75418.got.cif
#   From: 2010.05.17/outbox.cif.g08.bks.cpg/sg15_38_cif.got.tgz:75418.got - 2010.06.03 18:47:42.
