data_PCOD9296591
_publ_section_title
;
Structure prediction by ZEFSAII (Michael W. Deem and Ramdas Pophale) SiO2 
 PCOD9296591
Probable space group: C 2/C
;
_chemical_formula_sum "Si O2"
_cell_formula_units_Z 60
_cell_length_a 24.271806
_cell_length_b 13.043033
_cell_length_c 8.889394
_cell_angle_alpha 90.000000
_cell_angle_beta 69.548370
_cell_angle_gamma 90.000000
_cell_volume 2636.801098
_symmetry_space_group_name_H-M "C 2/C"
_symmetry_group_IT_number 15
_symmetry_cell_setting 'monoclinic'
loop_
_space_group_symop_operation_xyz
x,y,z
-x,y,1/2-z
-x,-y,-z
x,-y,1/2+z
1/2+x,1/2+y,z
1/2-x,1/2+y,1/2-z
1/2-x,1/2-y,-z
1/2+x,1/2-y,1/2+z
loop_
_atom_site_type_symbol
_atom_site_label
_atom_site_fract_x
_atom_site_fract_y
_atom_site_fract_z
Si Si1 0.156057 0.482384 0.672716
Si Si2 0.000000 0.994512 0.750000
Si Si3 0.224808 0.616183 0.373962
Si Si4 0.920666 0.057989 0.588240
Si Si5 0.375974 0.255284 0.988479
Si Si6 0.898839 0.643179 0.534351
Si Si7 0.485901 0.111740 0.940133
Si Si8 0.640100 0.343255 0.813963
O O1 0.202961 0.532671 0.514875
O O2 0.193277 0.411968 0.747737
O O3 0.124627 0.569142 0.806573
O O4 0.110288 0.420939 0.610209
O O5 0.028638 0.931493 0.586890
O O6 0.049912 0.062047 0.778198
O O7 0.190165 0.716150 0.459984
O O8 0.293545 0.626564 0.289525
O O9 0.877683 0.150560 0.600317
O O10 0.891930 0.946220 0.602839
O O11 0.421708 0.166461 0.999811
O O12 0.390545 0.299369 0.809018
O O13 0.861966 0.747782 0.570578
O O14 0.965445 0.674750 0.512551
O O15 0.500000 0.105974 0.750000
O O16 0.500000 0.000000 0.000000
#
# Coordination Sequence:
#
# PCOD9296591 Si02
#       8
#     8   4   8   8   8   8   8   8
#     4  10  23  45  69 105 138 185 240 301 363 430
#     4  10  24  44  70  94 140 178 232 300 348 436
#     4  11  25  45  73 101 143 189 245 303 359 437
#     4  11  26  45  71 103 142 187 246 291 364 433
#     4  12  26  45  70 105 143 191 243 297 368 435
#     4  11  23  42  70 102 141 180 234 296 369 431
#     4  12  24  42  71 102 139 178 227 288 363 432
#     4  12  26  44  74 102 143 193 241 297 364 426
#
# _framework density 22.754846000000001
#
# number of rings (size 3 to 8) (size 9 to 14) (size 15 to 20)
#    0.000    0.800    4.000    2.800    6.533    2.667 
#    1.200    0.000    0.000    0.000    0.000    0.000 
#    0.000    0.000    0.000    0.000    0.000    0.000 
#
# Total GULP energy -167696.065205 kJ/mol
# GULP energy per Si atom -5589.868840 kJ/mol
# Density = 2.270305 g / cm^3
# Si number density = 22.754846 Si / 1000 Ang^3
#
#
#
# Elastic Constant Matrix: (Units=GPa)
#
#
# Indices 1 2 3 4 5 6 
#
# 1 104.2667 32.1570 36.8349 0.0000 -6.9435 0.0000
# 2 32.1570 99.0435 23.0238 0.0000 2.2519 0.0000
# 3 36.8349 23.0238 74.0611 0.0000 10.7329 0.0000
# 4 0.0000 0.0000 0.0000 30.6043 0.0000 3.3789
# 5 -6.9435 2.2519 10.7329 0.0000 37.8548 0.0000
# 6 0.0000 0.0000 0.0000 3.3789 0.0000 26.0676
#
#
#
# Elastic Compliance Matrix: (Units=1/GPa)
#
#
# Indices 1 2 3 4 5 6 
#
# 1 0.012939 -0.002865 -0.006167 0.000000 0.004292 0.000000
# 2 -0.002865 0.011521 -0.002066 0.000000 -0.000625 0.000000
# 3 -0.006167 -0.002066 0.018102 0.000000 -0.006140 0.000000
# 4 0.000000 0.000000 0.000000 0.033150 0.000000 -0.004297
# 5 0.004292 -0.000625 -0.006140 0.000000 0.028982 0.000000
# 6 0.000000 0.000000 0.000000 -0.004297 0.000000 0.038919
#
#
# Mechanical properties :
#
#
# Convention : Reuss Voigt Hill
#
# Bulk Modulus (GPa) = 49.10111 51.26697 50.18404
# Shear Modulus (GPa) = 28.96939 31.26240 30.11590
#
# Velocity S-wave (km/s) = 3.57194 3.71061 3.64193
# Velocity P-wave (km/s) = 6.21585 6.39822 6.30769
#
# Compressibility (1/GPa) = 0.02036614
#
# Stress axis : x y z
#
# Youngs Moduli (GPa) = 77.28758 86.79593 55.24397
#
# Poissons Ratio (x) = 0.24867 0.34066
# Poissons Ratio (y) = 0.22143 0.11414
# Poissons Ratio (z) = 0.47660 0.17934
#
# Static dielectric constant tensor:
#      x y z
#    x 1.858080 0.000000 -0.015880 
#    y 0.000000 1.933460 0.000000 
#    z -0.015880 0.000000 1.870180 
# 
# From -- ./inp_files/61902.got.cif
#   From: 2010.05.17/outbox.cif.g08.bks.cpg/sg15_31_cif.got.tgz:61902.got - 2010.06.03 18:47:42.
