data_PCOD9296460
_publ_section_title
;
Structure prediction by ZEFSAII (Michael W. Deem and Ramdas Pophale) SiO2 
 PCOD9296460
Probable space group: C 2/C
;
_chemical_formula_sum "Si O2"
_cell_formula_units_Z 44
_cell_length_a 7.024591
_cell_length_b 12.697009
_cell_length_c 27.232096
_cell_angle_alpha 90.000000
_cell_angle_beta 69.488488
_cell_angle_gamma 90.000000
_cell_volume 2274.880199
_symmetry_space_group_name_H-M "C 2/C"
_symmetry_group_IT_number 15
_symmetry_cell_setting 'monoclinic'
loop_
_space_group_symop_operation_xyz
x,y,z
-x,y,1/2-z
-x,-y,-z
x,-y,1/2+z
1/2+x,1/2+y,z
1/2-x,1/2+y,1/2-z
1/2-x,1/2-y,-z
1/2+x,1/2-y,1/2+z
loop_
_atom_site_type_symbol
_atom_site_label
_atom_site_fract_x
_atom_site_fract_y
_atom_site_fract_z
Si Si1 0.395326 0.813488 0.114864
Si Si2 0.420463 0.592566 0.070379
Si Si3 0.000000 0.071127 0.250000
Si Si4 0.478684 0.437162 0.157337
Si Si5 0.629270 0.225720 0.693991
Si Si6 0.171008 0.550222 0.519402
O O1 0.333882 0.704834 0.094308
O O2 0.208453 0.893763 0.137929
O O3 0.492899 0.780283 0.157858
O O4 0.563429 0.869776 0.066163
O O5 0.440126 0.514081 0.114961
O O6 0.280100 0.539648 0.041899
O O7 0.648178 0.603289 0.028099
O O8 0.843187 0.154333 0.289211
O O9 0.072401 0.999086 0.287952
O O10 0.333694 0.336512 0.166618
O O11 0.500000 0.174339 0.750000
O O12 0.000000 0.500000 0.500000
#
# Coordination Sequence:
#
# PCOD9296460 Si02
#       6
#     8   8   4   8   8   8
#     4  12  24  42  69  98 129 175 218 266 327 391
#     4  11  24  43  66  98 134 170 219 267 321 390
#     4  10  24  44  66  94 132 164 216 272 322 388
#     4  12  23  43  68  95 129 170 218 263 329 392
#     4  10  23  45  63  95 130 168 215 271 326 384
#     4  11  24  44  67  97 135 176 215 273 327 378
#
# _framework density 19.341677000000001
#
# number of rings (size 3 to 8) (size 9 to 14) (size 15 to 20)
#    0.545    0.364    5.455    1.636    0.000    3.636 
#    3.273    0.000    0.000    0.000    0.000    0.000 
#    0.000    0.000    0.000    0.000    0.000    0.000 
#
# Total GULP energy -122828.586506 kJ/mol
# GULP energy per Si atom -5583.117568 kJ/mol
# Density = 1.929765 g / cm^3
# Si number density = 19.341677 Si / 1000 Ang^3
#
#
#
# Elastic Constant Matrix: (Units=GPa)
#
#
# Indices 1 2 3 4 5 6 
#
# 1 75.6686 23.5475 25.0383 0.0000 11.9054 0.0000
# 2 23.5475 80.6708 14.1582 0.0000 -0.5044 0.0000
# 3 25.0383 14.1582 82.0468 0.0000 20.8594 0.0000
# 4 0.0000 0.0000 0.0000 20.4501 0.0000 7.6188
# 5 11.9054 -0.5044 20.8594 0.0000 15.7939 0.0000
# 6 0.0000 0.0000 0.0000 7.6188 0.0000 13.5307
#
#
#
# Elastic Compliance Matrix: (Units=1/GPa)
#
#
# Indices 1 2 3 4 5 6 
#
# 1 0.016912 -0.004722 -0.001606 0.000000 -0.010778 0.000000
# 2 -0.004722 0.014370 -0.003102 0.000000 0.008115 0.000000
# 3 -0.001606 -0.003102 0.019468 0.000000 -0.024600 0.000000
# 4 0.000000 0.000000 0.000000 0.061881 0.000000 -0.034843
# 5 -0.010778 0.008115 -0.024600 0.000000 0.104189 0.000000
# 6 0.000000 0.000000 0.000000 -0.034843 0.000000 0.093526
#
#
# Mechanical properties :
#
#
# Convention : Reuss Voigt Hill
#
# Bulk Modulus (GPa) = 31.35809 40.43047 35.89428
# Shear Modulus (GPa) = 14.71305 21.66442 18.18873
#
# Velocity S-wave (km/s) = 2.76106 3.35041 3.06991
# Velocity P-wave (km/s) = 5.13931 5.99296 5.58248
#
# Compressibility (1/GPa) = 0.03188970
#
# Stress axis : x y z
#
# Youngs Moduli (GPa) = 59.12883 69.59171 51.36692
#
# Poissons Ratio (x) = 0.32862 0.08250
# Poissons Ratio (y) = 0.27921 0.15932
# Poissons Ratio (z) = 0.09497 0.21585
#
# Static dielectric constant tensor:
#      x y z
#    x 1.648230 0.000000 -0.007520 
#    y 0.000000 1.670020 0.000000 
#    z -0.007520 0.000000 1.672630 
# 
# From -- ./inp_files/285429.got.cif
#   From: 2010.05.17/outbox.cif.g08.bks.cpg/sg15_143_cif.got.tgz:285429.got - 2010.06.03 18:47:42.
