data_PCOD9296252
_publ_section_title
;
Structure prediction by ZEFSAII (Michael W. Deem and Ramdas Pophale) SiO2 
 PCOD9296252
Probable space group: C 2/C
;
_chemical_formula_sum "Si O2"
_cell_formula_units_Z 48
_cell_length_a 11.736077
_cell_length_b 15.317323
_cell_length_c 13.668076
_cell_angle_alpha 90.000000
_cell_angle_beta 57.887502
_cell_angle_gamma 90.000000
_cell_volume 2081.132281
_symmetry_space_group_name_H-M "C 2/C"
_symmetry_group_IT_number 15
_symmetry_cell_setting 'monoclinic'
loop_
_space_group_symop_operation_xyz
x,y,z
-x,y,1/2-z
-x,-y,-z
x,-y,1/2+z
1/2+x,1/2+y,z
1/2-x,1/2+y,1/2-z
1/2-x,1/2-y,-z
1/2+x,1/2-y,1/2+z
loop_
_atom_site_type_symbol
_atom_site_label
_atom_site_fract_x
_atom_site_fract_y
_atom_site_fract_z
Si Si1 0.500000 0.438032 0.750000
Si Si2 0.052293 0.499111 0.088163
Si Si3 0.162890 0.082428 0.570267
Si Si4 0.500000 0.720414 0.750000
Si Si5 0.368034 0.812316 0.486245
Si Si6 0.921572 0.160518 0.086808
Si Si7 0.360086 0.141117 0.205909
O O1 0.616356 0.500401 0.655791
O O2 0.537182 0.385720 0.830506
O O3 0.925738 0.547095 0.197243
O O4 0.185092 0.559974 0.029657
O O5 0.091220 0.398747 0.094235
O O6 0.000000 0.500000 0.000000
O O7 0.126124 0.161564 0.659847
O O8 0.069234 0.102945 0.517126
O O9 0.529959 0.785012 0.824887
O O10 0.250000 0.750000 0.500000
O O11 0.495820 0.750161 0.448153
O O12 0.318955 0.850042 0.612267
O O13 0.762289 0.168651 0.170707
#
# Coordination Sequence:
#
# PCOD9296252 Si02
#       7
#     4   8   8   4   8   8   8
#     4  11  24  44  67 106 140 186 243 298 362 443
#     4  10  23  44  70 103 143 188 234 303 362 432
#     4  11  24  44  73 101 145 189 241 302 368 427
#     4  11  24  42  69 108 138 190 249 296 356 441
#     4  11  24  46  74 103 144 189 244 298 371 435
#     4  12  24  45  73 103 146 194 238 307 365 439
#     4  11  24  42  67 105 140 185 242 289 363 434
#
# _framework density 23.064368999999999
#
# number of rings (size 3 to 8) (size 9 to 14) (size 15 to 20)
#    0.000    1.000    1.667    5.500    4.667    1.333 
#    0.000    5.833    0.000    0.000    0.000    0.000 
#    0.000    0.000    0.000    0.000    0.000    0.000 
#
# Total GULP energy -133928.710497 kJ/mol
# GULP energy per Si atom -5580.362937 kJ/mol
# Density = 2.301187 g / cm^3
# Si number density = 23.064369 Si / 1000 Ang^3
#
#
#
# Elastic Constant Matrix: (Units=GPa)
#
#
# Indices 1 2 3 4 5 6 
#
# 1 91.8409 62.4265 19.7636 0.0000 1.2290 0.0000
# 2 62.4265 162.1807 39.4839 0.0000 -7.4929 0.0000
# 3 19.7636 39.4839 83.7879 0.0000 -4.1668 0.0000
# 4 0.0000 0.0000 0.0000 -253.5852 0.0000 88.1276
# 5 1.2290 -7.4929 -4.1668 0.0000 52.5506 0.0000
# 6 0.0000 0.0000 0.0000 88.1276 0.0000 21.3513
#
#
#
# Elastic Compliance Matrix: (Units=1/GPa)
#
#
# Indices 1 2 3 4 5 6 
#
# 1 0.014885 -0.005553 -0.000955 0.000000 -0.001216 0.000000
# 2 -0.005553 0.009065 -0.002903 0.000000 0.001192 0.000000
# 3 -0.000955 -0.002903 0.013562 0.000000 0.000684 0.000000
# 4 0.000000 0.000000 0.000000 -0.001620 0.000000 0.006686
# 5 -0.001216 0.001192 0.000684 0.000000 0.019282 0.000000
# 6 0.000000 0.000000 0.000000 0.006686 0.000000 0.019239
#
#
# Mechanical properties :
#
#
# Convention : Reuss Voigt Hill
#
# Bulk Modulus (GPa) = 53.50170 64.57305 59.03737
# Shear Modulus (GPa) = 50.26940 -21.52762 14.37089
#
# Velocity S-wave (km/s) = 4.67360 -3.05843 2.49886
# Velocity P-wave (km/s) = 7.23675 3.94787 5.82907
#
# Compressibility (1/GPa) = 0.01869099
#
# Stress axis : x y z
#
# Youngs Moduli (GPa) = 67.18302 110.31117 73.73590
#
# Poissons Ratio (x) = 0.61258 0.07038
# Poissons Ratio (y) = 0.37308 0.21403
# Poissons Ratio (z) = 0.06413 0.32020
#
# Static dielectric constant tensor:
#      x y z
#    x 1.902530 0.000000 0.009350 
#    y 0.000000 1.874870 0.000000 
#    z 0.009350 0.000000 2.002670 
# 
# From -- ./inp_files/144118.got.cif
#   From: 2010.05.17/outbox.cif.g08.bks.cpg/sg15_73_cif.got.tgz:144118.got - 2010.06.03 18:47:42.
