data_PCOD9296658
_publ_section_title
;
Structure prediction by ZEFSAII (Michael W. Deem and Ramdas Pophale) SiO2 
 PCOD9296658
Probable space group: C 2/C
;
_chemical_formula_sum "Si O2"
_cell_formula_units_Z 60
_cell_length_a 27.919783
_cell_length_b 8.809522
_cell_length_c 28.319519
_cell_angle_alpha 90.000000
_cell_angle_beta 155.084381
_cell_angle_gamma 90.000000
_cell_volume 2934.433369
_symmetry_space_group_name_H-M "C 2/C"
_symmetry_group_IT_number 15
_symmetry_cell_setting 'monoclinic'
loop_
_space_group_symop_operation_xyz
x,y,z
-x,y,1/2-z
-x,-y,-z
x,-y,1/2+z
1/2+x,1/2+y,z
1/2-x,1/2+y,1/2-z
1/2-x,1/2-y,-z
1/2+x,1/2-y,1/2+z
loop_
_atom_site_type_symbol
_atom_site_label
_atom_site_fract_x
_atom_site_fract_y
_atom_site_fract_z
Si Si1 0.499287 0.408139 0.376091
Si Si2 0.500000 0.221001 0.750000
Si Si3 0.909243 0.506471 0.589593
Si Si4 0.591640 0.558670 0.120012
Si Si5 0.667363 0.100987 0.659624
Si Si6 0.364433 0.686142 0.579356
Si Si7 0.358579 0.483164 0.662182
Si Si8 0.998773 0.581436 0.074602
O O1 0.474996 0.545170 0.389892
O O2 0.622141 0.393658 0.459796
O O3 0.413205 0.430422 0.255370
O O4 0.482183 0.253284 0.390236
O O5 0.431830 0.122882 0.651173
O O6 0.412809 0.318733 0.703601
O O7 0.935592 0.339411 0.634850
O O8 0.777327 0.513874 0.456612
O O9 0.980186 0.517921 0.604997
O O10 0.637478 0.726936 0.148861
O O11 0.701179 0.447400 0.220951
O O12 0.500000 0.500000 0.000000
O O13 0.612542 0.081205 0.558536
O O14 0.599607 0.986157 0.633461
O O15 0.250000 0.750000 0.500000
O O16 0.391460 0.563198 0.642414
#
# Coordination Sequence:
#
# PCOD9296658 Si02
#       8
#     8   4   8   8   8   8   8   8
#     4  11  21  41  70  97 130 181 230 286 354 428
#     4  12  24  38  62  92 144 180 216 284 348 422
#     4  10  24  40  63  97 129 176 230 279 349 419
#     4  12  26  46  72 104 143 187 241 299 367 438
#     4  11  25  46  71 101 141 186 233 309 360 421
#     4   9  20  40  66  93 126 175 224 283 334 411
#     4  11  22  42  65  93 136 176 225 285 344 415
#     4  10  23  45  71  97 135 180 240 296 360 426
#
# _framework density 20.446878999999999
#
# number of rings (size 3 to 8) (size 9 to 14) (size 15 to 20)
#    0.000    1.333    2.667    2.000    7.467    0.000 
#    2.400    0.000    0.000    0.000    0.000    0.000 
#    0.000    0.000    0.000    0.000    0.000    0.000 
#
# Total GULP energy -167280.824043 kJ/mol
# GULP energy per Si atom -5576.027468 kJ/mol
# Density = 2.040034 g / cm^3
# Si number density = 20.446879 Si / 1000 Ang^3
#
#
#
# Elastic Constant Matrix: (Units=GPa)
#
#
# Indices 1 2 3 4 5 6 
#
# 1 124.0613 27.3609 41.9479 -0.0001 -14.4209 0.0000
# 2 27.3609 54.8305 24.2856 0.0001 -15.4695 -0.0001
# 3 41.9479 24.2856 89.7044 -0.0002 -6.1788 0.0000
# 4 -0.0001 0.0001 -0.0002 93.8222 -0.0002 -19.5180
# 5 -14.4209 -15.4695 -6.1788 -0.0002 27.7469 0.0000
# 6 0.0000 -0.0001 0.0000 -19.5180 0.0000 46.8315
#
#
#
# Elastic Compliance Matrix: (Units=1/GPa)
#
#
# Indices 1 2 3 4 5 6 
#
# 1 0.010302 -0.002540 -0.003919 0.000000 0.003065 0.000000
# 2 -0.002540 0.024846 -0.004748 0.000000 0.011475 0.000000
# 3 -0.003919 -0.004748 0.014160 0.000000 -0.001531 0.000000
# 4 0.000000 0.000000 0.000000 0.011670 0.000000 0.004864
# 5 0.003065 0.011475 -0.001531 0.000000 0.043690 0.000000
# 6 0.000000 0.000000 0.000000 0.004864 0.000000 0.023380
#
#
# Mechanical properties :
#
#
# Convention : Reuss Voigt Hill
#
# Bulk Modulus (GPa) = 37.18301 50.64277 43.91289
# Shear Modulus (GPa) = 31.36212 45.34691 38.35451
#
# Velocity S-wave (km/s) = 3.92067 4.71445 4.33576
# Velocity P-wave (km/s) = 6.22255 7.37946 6.82556
#
# Compressibility (1/GPa) = 0.02689400
#
# Stress axis : x y z
#
# Youngs Moduli (GPa) = 97.06782 40.24762 70.62031
#
# Poissons Ratio (x) = 0.10224 0.27673
# Poissons Ratio (y) = 0.24659 0.33533
# Poissons Ratio (z) = 0.38037 0.19111
#
# Static dielectric constant tensor:
#      x y z
#    x 1.727820 0.000000 0.020860 
#    y 0.000000 1.619990 0.000000 
#    z 0.020860 0.000000 1.741610 
# 
# From -- ./inp_files/303118.got.cif
#   From: 2010.05.17/outbox.cif.g08.bks.cpg/sg15_152_cif.got.tgz:303118.got - 2010.06.03 18:47:42.
