data_PCOD9296124
_publ_section_title
;
Structure prediction by ZEFSAII (Michael W. Deem and Ramdas Pophale) SiO2 
 PCOD9296124
Probable space group: C 2/C
;
_chemical_formula_sum "Si O2"
_cell_formula_units_Z 40
_cell_length_a 28.333179
_cell_length_b 4.805360
_cell_length_c 11.504545
_cell_angle_alpha 90.000000
_cell_angle_beta 102.380722
_cell_angle_gamma 90.000000
_cell_volume 1529.930295
_symmetry_space_group_name_H-M "C 2/C"
_symmetry_group_IT_number 15
_symmetry_cell_setting 'monoclinic'
loop_
_space_group_symop_operation_xyz
x,y,z
-x,y,1/2-z
-x,-y,-z
x,-y,1/2+z
1/2+x,1/2+y,z
1/2-x,1/2+y,1/2-z
1/2-x,1/2-y,-z
1/2+x,1/2-y,1/2+z
loop_
_atom_site_type_symbol
_atom_site_label
_atom_site_fract_x
_atom_site_fract_y
_atom_site_fract_z
Si Si1 0.446086 0.438677 0.271787
Si Si2 0.946082 0.440440 0.427082
Si Si3 0.875090 0.254888 0.062593
Si Si4 0.806645 0.928909 0.855120
Si Si5 0.305104 0.928823 0.696291
O O1 0.500000 0.466714 0.250000
O O2 0.437834 0.122647 0.306088
O O3 0.408873 0.565089 0.161662
O O4 0.441858 0.621883 0.386974
O O5 0.909295 0.550333 0.502671
O O6 0.000000 0.500000 0.500000
O O7 0.839690 0.451708 0.117658
O O8 0.842846 0.050747 0.967033
O O9 0.751191 0.964140 0.865898
O O10 0.812502 0.113797 0.740994
O O11 0.813540 0.614338 0.816915
#
# Coordination Sequence:
#
# PCOD9296124 Si02
#       5
#     8   8   8   8   8
#     4  12  27  46  69  98 135 181 235 284 344 407
#     4  12  27  47  68  99 135 182 232 286 341 409
#     4  12  25  43  73 100 139 181 233 282 354 404
#     4  10  23  44  68 102 140 176 228 281 343 416
#     4  10  23  44  68 101 140 178 225 282 342 419
#
# _framework density 26.14498
#
# number of rings (size 3 to 8) (size 9 to 14) (size 15 to 20)
#    0.000    0.800    2.000    4.200    0.000    4.800 
#    0.000    6.000    0.000    0.000    0.000    0.000 
#    0.000    0.000    0.000    0.000    0.000    0.000 
#
# Total GULP energy -112544.682353 kJ/mol
# GULP energy per Si atom -5627.234118 kJ/mol
# Density = 2.608547 g / cm^3
# Si number density = 26.144980 Si / 1000 Ang^3
#
#
#
# Elastic Constant Matrix: (Units=GPa)
#
#
# Indices 1 2 3 4 5 6 
#
# 1 194.3539 28.7143 76.2697 0.0000 -16.4660 0.0000
# 2 28.7143 102.0509 5.5875 0.0000 -1.4961 0.0000
# 3 76.2697 5.5875 88.0998 0.0000 -0.8690 0.0000
# 4 0.0000 0.0000 0.0000 30.6034 0.0000 1.1479
# 5 -16.4660 -1.4961 -0.8690 0.0000 34.7416 0.0000
# 6 0.0000 0.0000 0.0000 1.1479 0.0000 35.6932
#
#
#
# Elastic Compliance Matrix: (Units=1/GPa)
#
#
# Indices 1 2 3 4 5 6 
#
# 1 0.008627 -0.001971 -0.007306 0.000000 0.003821 0.000000
# 2 -0.001971 0.010289 0.001050 0.000000 -0.000465 0.000000
# 3 -0.007306 0.001050 0.017580 0.000000 -0.002978 0.000000
# 4 0.000000 0.000000 0.000000 0.032716 0.000000 -0.001052
# 5 0.003821 -0.000465 -0.002978 0.000000 0.030501 0.000000
# 6 0.000000 0.000000 0.000000 -0.001052 0.000000 0.028050
#
#
# Mechanical properties :
#
#
# Convention : Reuss Voigt Hill
#
# Bulk Modulus (GPa) = 49.89862 67.29416 58.59639
# Shear Modulus (GPa) = 33.13456 38.46983 35.80220
#
# Velocity S-wave (km/s) = 3.56383 3.84005 3.70452
# Velocity P-wave (km/s) = 6.00511 6.74211 6.38425
#
# Compressibility (1/GPa) = 0.02004063
#
# Stress axis : x y z
#
# Youngs Moduli (GPa) = 115.90949 97.18675 56.88305
#
# Poissons Ratio (x) = 0.19160 0.41560
# Poissons Ratio (y) = 0.22851 -0.05970
# Poissons Ratio (z) = 0.84686 -0.10200
#
# Static dielectric constant tensor:
#      x y z
#    x 1.993210 0.000000 -0.001260 
#    y 0.000000 1.950340 0.000000 
#    z -0.001260 0.000000 2.043370 
# 
# From -- ./inp_files/120887.got.cif
#   From: 2010.05.17/outbox.cif.g08.bks.cpg/sg15_61_cif.got.tgz:120887.got - 2010.06.03 18:47:42.
