data_PCOD9296944
_publ_section_title
;
Structure prediction by ZEFSAII (Michael W. Deem and Ramdas Pophale) SiO2 
 PCOD9296944
Probable space group: C 2/C
;
_chemical_formula_sum "Si O2"
_cell_formula_units_Z 24
_cell_length_a 9.792190
_cell_length_b 11.744234
_cell_length_c 8.255464
_cell_angle_alpha 90.000000
_cell_angle_beta 87.615837
_cell_angle_gamma 90.000000
_cell_volume 948.571152
_symmetry_space_group_name_H-M "C 2/C"
_symmetry_group_IT_number 15
_symmetry_cell_setting 'monoclinic'
loop_
_space_group_symop_operation_xyz
x,y,z
-x,y,1/2-z
-x,-y,-z
x,-y,1/2+z
1/2+x,1/2+y,z
1/2-x,1/2+y,1/2-z
1/2-x,1/2-y,-z
1/2+x,1/2-y,1/2+z
loop_
_atom_site_type_symbol
_atom_site_label
_atom_site_fract_x
_atom_site_fract_y
_atom_site_fract_z
Si Si1 0.610950 0.644978 0.469590
Si Si2 0.313272 0.417522 0.901115
Si Si3 0.484462 0.128418 0.058869
O O1 0.686770 0.555588 0.583099
O O2 0.661516 0.616353 0.286457
O O3 0.448849 0.615817 0.492095
O O4 0.596110 0.780652 0.491736
O O5 0.176637 0.357448 0.971053
O O6 0.500000 0.132148 0.250000
O O7 0.500000 0.000000 0.000000
#
# Coordination Sequence:
#
# PCOD9296944 Si02
#       3
#     8   8   8
#     4  10  24  47  74 104 136 192 236 290 359 415
#     4  10  23  46  74 100 142 182 240 291 350 422
#     4  12  28  45  69 108 144 186 234 295 359 421
#
# _framework density 25.301210000000001
#
# number of rings (size 3 to 8) (size 9 to 14) (size 15 to 20)
#    0.000    1.333    0.000    3.000   14.000    5.333 
#    0.000    0.000    0.000    0.000    0.000    0.000 
#    0.000    0.000    0.000    0.000    0.000    0.000 
#
# Total GULP energy -67067.117269 kJ/mol
# GULP energy per Si atom -5588.926439 kJ/mol
# Density = 2.524362 g / cm^3
# Si number density = 25.301210 Si / 1000 Ang^3
#
#
#
# Elastic Constant Matrix: (Units=GPa)
#
#
# Indices 1 2 3 4 5 6 
#
# 1 79.1831 44.2675 -9.8584 0.0000 -8.2687 0.0000
# 2 44.2675 241.5699 63.0194 0.0000 -18.0367 0.0000
# 3 -9.8584 63.0194 52.4274 0.0000 -2.8393 0.0000
# 4 0.0000 0.0000 0.0000 9.7511 0.0000 1.5157
# 5 -8.2687 -18.0367 -2.8393 0.0000 24.7759 0.0000
# 6 0.0000 0.0000 0.0000 1.5157 0.0000 64.4726
#
#
#
# Elastic Compliance Matrix: (Units=1/GPa)
#
#
# Indices 1 2 3 4 5 6 
#
# 1 0.017331 -0.005613 0.010161 0.000000 0.002862 0.000000
# 2 -0.005613 0.008182 -0.010736 0.000000 0.002853 0.000000
# 3 0.010161 -0.010736 0.033860 0.000000 -0.000544 0.000000
# 4 0.000000 0.000000 0.000000 0.102928 0.000000 -0.002420
# 5 0.002862 0.002853 -0.000544 0.000000 0.043332 0.000000
# 6 0.000000 0.000000 0.000000 -0.002420 0.000000 0.015567
#
#
# Mechanical properties :
#
#
# Convention : Reuss Voigt Hill
#
# Bulk Modulus (GPa) = 21.27821 63.11528 42.19674
# Shear Modulus (GPa) = 20.06092 38.18337 29.12214
#
# Velocity S-wave (km/s) = 2.81887 3.88899 3.39635
# Velocity P-wave (km/s) = 4.36153 6.72052 5.66517
#
# Compressibility (1/GPa) = 0.04699644
#
# Stress axis : x y z
#
# Youngs Moduli (GPa) = 57.70116 122.22253 29.53358
#
# Poissons Ratio (x) = 0.68601 -0.30008
# Poissons Ratio (y) = 0.32386 0.31706
# Poissons Ratio (z) = -0.58628 1.31214
#
# Static dielectric constant tensor:
#      x y z
#    x 2.126910 0.000000 0.028660 
#    y 0.000000 2.231030 0.000000 
#    z 0.028660 0.000000 1.918590 
# 
# From -- ./inp_files/26997.got.cif
#   From: 2010.05.17/outbox.cif.g08.bks.cpg/sg15_14_cif.got.tgz:26997.got - 2010.06.03 18:47:42.
