data_PCOD9296785
_publ_section_title
;
Structure prediction by ZEFSAII (Michael W. Deem and Ramdas Pophale) SiO2 
 PCOD9296785
Probable space group: C 2/C
;
_chemical_formula_sum "Si O2"
_cell_formula_units_Z 28
_cell_length_a 10.470921
_cell_length_b 16.860392
_cell_length_c 12.084040
_cell_angle_alpha 90.000000
_cell_angle_beta 143.278691
_cell_angle_gamma 90.000000
_cell_volume 1275.587278
_symmetry_space_group_name_H-M "C 2/C"
_symmetry_group_IT_number 15
_symmetry_cell_setting 'monoclinic'
loop_
_space_group_symop_operation_xyz
x,y,z
-x,y,1/2-z
-x,-y,-z
x,-y,1/2+z
1/2+x,1/2+y,z
1/2-x,1/2+y,1/2-z
1/2-x,1/2-y,-z
1/2+x,1/2-y,1/2+z
loop_
_atom_site_type_symbol
_atom_site_label
_atom_site_fract_x
_atom_site_fract_y
_atom_site_fract_z
Si Si1 0.834992 0.364264 0.849910
Si Si2 0.149583 0.303506 0.250845
Si Si3 0.413793 0.442767 0.536470
Si Si4 0.000000 0.543373 0.250000
O O1 0.751326 0.275060 0.770415
O O2 0.632617 0.416707 0.749399
O O3 0.928905 0.403856 0.805086
O O4 0.011051 0.352592 0.066845
O O5 0.326536 0.361232 0.423832
O O6 0.000000 0.278648 0.250000
O O7 0.500000 0.500000 0.500000
O O8 0.201028 0.489234 0.427023
#
# Coordination Sequence:
#
# PCOD9296785 Si02
#       4
#     8   8   8   4
#     4  11  25  44  74 100 137 181 229 286 338 405
#     4  12  24  44  69 103 135 181 236 276 336 413
#     4  10  23  46  66 103 138 178 229 277 346 403
#     4  10  24  48  68 104 144 174 230 282 350 404
#
# _framework density 21.950673999999999
#
# number of rings (size 3 to 8) (size 9 to 14) (size 15 to 20)
#    0.000    1.143    4.286    0.857    0.000    5.714 
#    5.143    0.000    0.000    0.000    0.000    0.000 
#    0.000    0.000    0.000    0.000    0.000    0.000 
#
# Total GULP energy -78263.113618 kJ/mol
# GULP energy per Si atom -5590.222401 kJ/mol
# Density = 2.190071 g / cm^3
# Si number density = 21.950674 Si / 1000 Ang^3
#
#
#
# Elastic Constant Matrix: (Units=GPa)
#
#
# Indices 1 2 3 4 5 6 
#
# 1 132.6619 61.1576 43.9443 -0.0001 17.3514 0.0000
# 2 61.1576 121.7065 24.0031 -0.0001 15.9814 0.0000
# 3 43.9443 24.0031 129.6730 -0.0001 -1.5169 -0.0001
# 4 -0.0001 -0.0001 -0.0001 -45.8895 -0.0001 -9.9240
# 5 17.3514 15.9814 -1.5169 -0.0001 34.6768 0.0000
# 6 0.0000 0.0000 -0.0001 -9.9240 0.0000 52.4930
#
#
#
# Elastic Compliance Matrix: (Units=1/GPa)
#
#
# Indices 1 2 3 4 5 6 
#
# 1 0.011064 -0.004505 -0.002957 0.000000 -0.003589 0.000000
# 2 -0.004505 0.010956 -0.000534 0.000000 -0.002818 0.000000
# 3 -0.002957 -0.000534 0.008838 0.000000 0.002113 0.000000
# 4 0.000000 0.000000 0.000000 -0.020936 0.000000 -0.003958
# 5 -0.003589 -0.002818 0.002113 0.000000 0.032025 0.000000
# 6 0.000000 0.000000 0.000000 -0.003958 0.000000 0.018302
#
#
# Mechanical properties :
#
#
# Convention : Reuss Voigt Hill
#
# Bulk Modulus (GPa) = 67.27811 71.36126 69.31969
# Shear Modulus (GPa) = 61.57898 25.25183 43.41540
#
# Velocity S-wave (km/s) = 5.30229 3.39542 4.45214
# Velocity P-wave (km/s) = 8.25844 6.92475 7.62083
#
# Compressibility (1/GPa) = 0.01486367
#
# Stress axis : x y z
#
# Youngs Moduli (GPa) = 90.38384 91.27665 113.15345
#
# Poissons Ratio (x) = 0.41121 0.33465
# Poissons Ratio (y) = 0.40718 0.06045
# Poissons Ratio (z) = 0.26731 0.04876
#
# Static dielectric constant tensor:
#      x y z
#    x 1.807240 0.000000 -0.028030 
#    y 0.000000 1.777540 0.000000 
#    z -0.028030 0.000000 1.836540 
# 
# From -- ./inp_files/21518.got.cif
#   From: 2010.05.17/outbox.cif.g08.bks.cpg/sg15_11_cif.got.tgz:21518.got - 2010.06.03 18:47:42.
