data_PCOD9296923
_publ_section_title
;
Structure prediction by ZEFSAII (Michael W. Deem and Ramdas Pophale) SiO2 
 PCOD9296923
Probable space group: C 2/C
;
_chemical_formula_sum "Si O2"
_cell_formula_units_Z 40
_cell_length_a 16.461270
_cell_length_b 20.858235
_cell_length_c 9.561713
_cell_angle_alpha 90.000000
_cell_angle_beta 33.143599
_cell_angle_gamma 90.000000
_cell_volume 1794.968619
_symmetry_space_group_name_H-M "C 2/C"
_symmetry_group_IT_number 15
_symmetry_cell_setting 'monoclinic'
loop_
_space_group_symop_operation_xyz
x,y,z
-x,y,1/2-z
-x,-y,-z
x,-y,1/2+z
1/2+x,1/2+y,z
1/2-x,1/2+y,1/2-z
1/2-x,1/2-y,-z
1/2+x,1/2-y,1/2+z
loop_
_atom_site_type_symbol
_atom_site_label
_atom_site_fract_x
_atom_site_fract_y
_atom_site_fract_z
Si Si1 0.243859 0.931360 0.963534
Si Si2 0.500000 0.326384 0.250000
Si Si3 0.876778 0.246679 0.696762
Si Si4 0.000000 0.034404 0.250000
Si Si5 0.270704 0.380342 0.219500
Si Si6 0.491891 0.115938 0.926780
O O1 0.380786 0.934544 0.660503
O O2 0.296740 0.909364 0.040312
O O3 0.139024 0.873180 0.063762
O O4 0.132136 0.991214 0.123305
O O5 0.489406 0.283478 0.403956
O O6 0.819613 0.192976 0.672523
O O7 0.925549 0.313524 0.560770
O O8 0.750000 0.250000 0.000000
O O9 0.919541 0.079243 0.477911
O O10 0.153019 0.387245 0.265842
O O11 0.500000 0.106777 0.750000
#
# Coordination Sequence:
#
# PCOD9296923 Si02
#       6
#     8   4   8   4   8   8
#     4  10  23  46  72  98 138 191 236 289 352 426
#     4   9  18  36  68  96 130 180 247 268 346 423
#     4  11  21  41  69 103 142 189 228 285 353 437
#     4  11  26  48  74 108 134 182 251 304 340 423
#     4  11  25  45  74 104 143 189 240 288 367 417
#     4  12  27  42  67 111 148 184 238 300 357 419
#
# _framework density 22.284513
#
# number of rings (size 3 to 8) (size 9 to 14) (size 15 to 20)
#    0.000    1.200    4.000    2.400    1.400    8.000 
#    0.000    0.000    0.000    0.000    0.000    0.000 
#    0.000    0.000    0.000    0.000    0.000    0.000 
#
# Total GULP energy -111845.382045 kJ/mol
# GULP energy per Si atom -5592.269102 kJ/mol
# Density = 2.223379 g / cm^3
# Si number density = 22.284513 Si / 1000 Ang^3
#
#
#
# Elastic Constant Matrix: (Units=GPa)
#
#
# Indices 1 2 3 4 5 6 
#
# 1 142.8039 24.6339 45.2411 -0.0003 6.2447 0.0053
# 2 24.6339 88.1511 48.6574 0.0002 -17.2661 0.0044
# 3 45.2411 48.6574 116.1738 0.0001 11.8114 0.0137
# 4 -0.0003 0.0002 0.0001 25.2826 0.0008 -5.5367
# 5 6.2447 -17.2661 11.8114 0.0008 27.6647 -0.0046
# 6 0.0053 0.0044 0.0137 -5.5367 -0.0046 -26.3216
#
#
#
# Elastic Compliance Matrix: (Units=1/GPa)
#
#
# Indices 1 2 3 4 5 6 
#
# 1 0.008060 -0.001159 -0.002503 0.000000 -0.001474 0.000000
# 2 -0.001159 0.020522 -0.009903 -0.000002 0.017298 -0.000005
# 3 -0.002503 -0.009903 0.014950 0.000002 -0.011998 0.000007
# 4 0.000000 -0.000002 0.000002 0.037811 -0.000004 -0.007953
# 5 -0.001474 0.017298 -0.011998 -0.000004 0.052399 -0.000012
# 6 0.000000 -0.000005 0.000007 -0.007953 -0.000012 -0.036319
#
#
# Mechanical properties :
#
#
# Convention : Reuss Voigt Hill
#
# Bulk Modulus (GPa) = 60.96879 64.91040 62.93960
# Shear Modulus (GPa) = 38.45516 20.56491 29.51003
#
# Velocity S-wave (km/s) = 4.15859 3.04111 3.64296
# Velocity P-wave (km/s) = 7.10473 6.44379 6.78232
#
# Compressibility (1/GPa) = 0.01640183
#
# Stress axis : x y z
#
# Youngs Moduli (GPa) = 124.06718 48.72747 66.88937
#
# Poissons Ratio (x) = 0.05649 0.16745
# Poissons Ratio (y) = 0.14384 0.66238
# Poissons Ratio (z) = 0.31059 0.48253
#
# Static dielectric constant tensor:
#      x y z
#    x 1.859590 0.000000 -0.031720 
#    y 0.000000 1.862500 0.000000 
#    z -0.031720 0.000000 1.827060 
# 
# From -- ./inp_files/51685.got.cif
#   From: 2010.05.17/outbox.cif.g08.bks.cpg/sg15_26_cif.got.tgz:51685.got - 2010.06.03 18:47:42.
