data_PCOD9296287
_publ_section_title
;
Structure prediction by ZEFSAII (Michael W. Deem and Ramdas Pophale) SiO2 
 PCOD9296287
Probable space group: C 2/C
;
_chemical_formula_sum "Si O2"
_cell_formula_units_Z 24
_cell_length_a 20.826103
_cell_length_b 10.292272
_cell_length_c 9.687891
_cell_angle_alpha 90.000000
_cell_angle_beta 26.617340
_cell_angle_gamma 90.000000
_cell_volume 930.369127
_symmetry_space_group_name_H-M "C 2/C"
_symmetry_group_IT_number 15
_symmetry_cell_setting 'monoclinic'
loop_
_space_group_symop_operation_xyz
x,y,z
-x,y,1/2-z
-x,-y,-z
x,-y,1/2+z
1/2+x,1/2+y,z
1/2-x,1/2+y,1/2-z
1/2-x,1/2-y,-z
1/2+x,1/2-y,1/2+z
loop_
_atom_site_type_symbol
_atom_site_label
_atom_site_fract_x
_atom_site_fract_y
_atom_site_fract_z
Si Si1 0.954625 0.380601 0.491655
Si Si2 0.609792 0.612721 0.243626
Si Si3 0.166508 0.913377 0.927154
O O1 0.783268 0.355267 0.806275
O O2 0.000000 0.417697 0.250000
O O3 0.000000 0.500000 0.500000
O O4 0.030021 0.247580 0.388154
O O5 0.500000 0.500000 0.500000
O O6 0.335677 0.562477 0.510136
O O7 0.712046 0.610405 0.181047
O O8 0.000000 0.865976 0.250000
#
# Coordination Sequence:
#
# PCOD9296287 Si02
#       3
#     8   8   8
#     4  12  27  45  71 108 145 184 239 299 355 422
#     4  10  23  44  71 100 139 185 234 289 351 420
#     4  10  23  44  73 101 140 189 234 288 356 420
#
# _framework density 25.796212000000001
#
# number of rings (size 3 to 8) (size 9 to 14) (size 15 to 20)
#    0.000    1.333    0.000    5.000    0.000   20.000 
#    0.000    0.000    0.000    0.000    0.000    0.000 
#    0.000    0.000    0.000    0.000    0.000    0.000 
#
# Total GULP energy -67072.906591 kJ/mol
# GULP energy per Si atom -5589.408883 kJ/mol
# Density = 2.573750 g / cm^3
# Si number density = 25.796212 Si / 1000 Ang^3
#
#
#
# Elastic Constant Matrix: (Units=GPa)
#
#
# Indices 1 2 3 4 5 6 
#
# 1 233.6590 112.4112 66.0304 0.0000 -28.5233 0.0000
# 2 112.4112 202.2003 59.0101 0.0000 -15.3561 0.0000
# 3 66.0304 59.0101 114.9138 0.0000 -28.9888 0.0000
# 4 0.0000 0.0000 0.0000 11.7499 0.0000 10.9700
# 5 -28.5233 -15.3561 -28.9888 0.0000 45.5388 0.0000
# 6 0.0000 0.0000 0.0000 10.9700 0.0000 44.4301
#
#
#
# Elastic Compliance Matrix: (Units=1/GPa)
#
#
# Indices 1 2 3 4 5 6 
#
# 1 0.006397 -0.002916 -0.001687 0.000000 0.001950 0.000000
# 2 -0.002916 0.007147 -0.002201 0.000000 -0.000817 0.000000
# 3 -0.001687 -0.002201 0.012327 0.000000 0.006049 0.000000
# 4 0.000000 0.000000 0.000000 0.110603 0.000000 -0.027308
# 5 0.001950 -0.000817 0.006049 0.000000 0.026756 0.000000
# 6 0.000000 0.000000 0.000000 -0.027308 0.000000 0.029250
#
#
# Mechanical properties :
#
#
# Convention : Reuss Voigt Hill
#
# Bulk Modulus (GPa) = 81.53394 113.96406 97.74900
# Shear Modulus (GPa) = 23.78971 41.23185 32.51078
#
# Velocity S-wave (km/s) = 3.04010 4.00230 3.55391
# Velocity P-wave (km/s) = 6.63314 8.10138 7.40374
#
# Compressibility (1/GPa) = 0.01226483
#
# Stress axis : x y z
#
# Youngs Moduli (GPa) = 156.31430 139.91881 81.12143
#
# Poissons Ratio (x) = 0.40804 0.13681
# Poissons Ratio (y) = 0.45585 0.17852
# Poissons Ratio (z) = 0.26363 0.30790
#
# Static dielectric constant tensor:
#      x y z
#    x 2.137740 0.000000 0.025830 
#    y 0.000000 1.976840 0.000000 
#    z 0.025830 0.000000 2.294130 
# 
# From -- ./inp_files/110232.got.cif
#   From: 2010.05.17/outbox.cif.g08.bks.cpg/sg15_56_cif.got.tgz:110232.got - 2010.06.03 18:47:42.
