data_PCOD9296022
_publ_section_title
;
Structure prediction by ZEFSAII (Michael W. Deem and Ramdas Pophale) SiO2 
 PCOD9296022
Probable space group: C 2/C
;
_chemical_formula_sum "Si O2"
_cell_formula_units_Z 48
_cell_length_a 27.180397
_cell_length_b 6.196356
_cell_length_c 14.921183
_cell_angle_alpha 90.000000
_cell_angle_beta 63.013096
_cell_angle_gamma 90.000000
_cell_volume 2239.375190
_symmetry_space_group_name_H-M "C 2/C"
_symmetry_group_IT_number 15
_symmetry_cell_setting 'monoclinic'
loop_
_space_group_symop_operation_xyz
x,y,z
-x,y,1/2-z
-x,-y,-z
x,-y,1/2+z
1/2+x,1/2+y,z
1/2-x,1/2+y,1/2-z
1/2-x,1/2-y,-z
1/2+x,1/2-y,1/2+z
loop_
_atom_site_type_symbol
_atom_site_label
_atom_site_fract_x
_atom_site_fract_y
_atom_site_fract_z
Si Si1 0.328082 0.469862 0.168898
Si Si2 0.512589 0.473051 0.134534
Si Si3 0.729167 0.253127 0.658215
Si Si4 0.293099 0.947770 0.967622
Si Si5 0.611131 0.188074 0.996205
Si Si6 0.058713 0.282722 0.949013
O O1 0.317517 0.582545 0.271875
O O2 0.272554 0.337165 0.194542
O O3 0.380870 0.323433 0.109870
O O4 0.341701 0.677198 0.095299
O O5 0.500000 0.515117 0.250000
O O6 0.570801 0.353907 0.077438
O O7 0.471032 0.307167 0.116806
O O8 0.522213 0.681425 0.061401
O O9 0.766129 0.379744 0.556790
O O10 0.703360 0.045134 0.633849
O O11 0.354212 0.924345 0.955205
O O12 0.250000 0.750000 0.000000
O O13 0.574702 0.028977 0.962923
#
# Coordination Sequence:
#
# PCOD9296022 Si02
#       6
#     8   8   8   8   8   8
#     4  11  23  39  62  93 128 173 213 264 326 400
#     4  10  24  43  67  96 125 166 229 280 339 410
#     4  11  24  38  61  93 132 172 219 261 323 400
#     4  11  23  40  60  93 132 173 215 270 321 400
#     4  11  22  41  66  90 130 172 215 275 338 393
#     4  10  23  44  65  93 133 171 216 285 340 401
#
# _framework density 21.434549000000001
#
# number of rings (size 3 to 8) (size 9 to 14) (size 15 to 20)
#    0.000    1.333    3.333    1.500    0.000    4.667 
#    0.000    0.000    0.000    0.000    0.000    0.000 
#    0.000    0.000    0.000    0.000    0.000    0.000 
#
# Total GULP energy -133754.201861 kJ/mol
# GULP energy per Si atom -5573.091744 kJ/mol
# Density = 2.138576 g / cm^3
# Si number density = 21.434549 Si / 1000 Ang^3
#
#
#
# Elastic Constant Matrix: (Units=GPa)
#
#
# Indices 1 2 3 4 5 6 
#
# 1 50.5785 -2.5036 11.5844 0.0000 4.9900 -0.0002
# 2 -2.5036 56.8331 2.4751 -0.0003 -0.4576 0.0001
# 3 11.5844 2.4751 67.9094 0.0000 3.3486 -0.0001
# 4 0.0000 -0.0003 0.0000 18.8780 0.0000 -15.1080
# 5 4.9900 -0.4576 3.3486 0.0000 22.4249 0.0000
# 6 -0.0002 0.0001 -0.0001 -15.1080 0.0000 -20.6360
#
#
#
# Elastic Compliance Matrix: (Units=1/GPa)
#
#
# Indices 1 2 3 4 5 6 
#
# 1 0.021015 0.001041 -0.003418 0.000000 -0.004144 0.000000
# 2 0.001041 0.017680 -0.000835 0.000000 0.000254 0.000000
# 3 -0.003418 -0.000835 0.015416 0.000000 -0.001558 0.000000
# 4 0.000000 0.000000 0.000000 0.033401 0.000000 -0.024454
# 5 -0.004144 0.000254 -0.001558 0.000000 0.045753 0.000000
# 6 0.000000 0.000000 0.000000 -0.024454 0.000000 -0.030556
#
#
# Mechanical properties :
#
#
# Convention : Reuss Voigt Hill
#
# Bulk Modulus (GPa) = 20.97015 22.04809 21.50912
# Shear Modulus (GPa) = 39.99109 15.05106 27.52107
#
# Velocity S-wave (km/s) = 4.32410 2.65276 3.58712
# Velocity P-wave (km/s) = 5.89364 4.43750 5.21663
#
# Compressibility (1/GPa) = 0.04768683
#
# Stress axis : x y z
#
# Youngs Moduli (GPa) = 47.58594 56.56226 64.86814
#
# Poissons Ratio (x) = -0.05889 0.22174
# Poissons Ratio (y) = -0.04955 0.05413
# Poissons Ratio (z) = 0.16267 0.04720
#
# Static dielectric constant tensor:
#      x y z
#    x 1.783250 0.000000 0.056690 
#    y 0.000000 2.007800 0.000000 
#    z 0.056690 0.000000 1.804910 
# 
# From -- ./inp_files/179957.got.cif
#   From: 2010.05.17/outbox.cif.g08.bks.cpg/sg15_90_cif.got.tgz:179957.got - 2010.06.03 18:47:42.
