data_PCOD9296921
_publ_section_title
;
Structure prediction by ZEFSAII (Michael W. Deem and Ramdas Pophale) SiO2 
 PCOD9296921
Probable space group: C 2/C
;
_chemical_formula_sum "Si O2"
_cell_formula_units_Z 32
_cell_length_a 11.213959
_cell_length_b 22.079030
_cell_length_c 5.309975
_cell_angle_alpha 90.000000
_cell_angle_beta 92.953668
_cell_angle_gamma 90.000000
_cell_volume 1312.967871
_symmetry_space_group_name_H-M "C 2/C"
_symmetry_group_IT_number 15
_symmetry_cell_setting 'monoclinic'
loop_
_space_group_symop_operation_xyz
x,y,z
-x,y,1/2-z
-x,-y,-z
x,-y,1/2+z
1/2+x,1/2+y,z
1/2-x,1/2+y,1/2-z
1/2-x,1/2-y,-z
1/2+x,1/2-y,1/2+z
loop_
_atom_site_type_symbol
_atom_site_label
_atom_site_fract_x
_atom_site_fract_y
_atom_site_fract_z
Si Si1 0.639548 0.476766 0.201531
Si Si2 0.117822 0.777019 0.468283
Si Si3 0.042946 0.655875 0.003648
Si Si4 0.172930 0.154804 0.470373
O O1 0.500000 0.489000 0.250000
O O2 0.691252 0.477999 0.492107
O O3 0.650828 0.413359 0.057794
O O4 0.250000 0.750000 0.500000
O O5 0.033395 0.718789 0.503287
O O6 0.119614 0.826050 0.694784
O O7 0.115486 0.806495 0.190658
O O8 0.000000 0.623297 0.250000
O O9 0.184350 0.666152 0.019011
O O10 0.000000 0.622564 0.750000
#
# Coordination Sequence:
#
# PCOD9296921 Si02
#       4
#     8   8   8   8
#     4  10  23  46  72  96 123 163 228 290 334 382
#     4  12  23  39  61  96 136 183 213 253 316 408
#     4  12  23  38  59  90 136 179 214 257 310 396
#     4  12  24  42  66  96 133 179 214 275 336 381
#
# _framework density 24.372266
#
# number of rings (size 3 to 8) (size 9 to 14) (size 15 to 20)
#    0.000    0.500    5.000    3.750    0.000    3.000 
#    0.000    0.000    0.000    4.500    0.000    0.000 
#    0.000    0.000    0.000    0.000    0.000    0.000 
#
# Total GULP energy -89461.909199 kJ/mol
# GULP energy per Si atom -5591.369325 kJ/mol
# Density = 2.431679 g / cm^3
# Si number density = 24.372266 Si / 1000 Ang^3
#
#
#
# Elastic Constant Matrix: (Units=GPa)
#
#
# Indices 1 2 3 4 5 6 
#
# 1 97.5280 -16.4833 -0.3103 0.0000 -33.3812 0.0000
# 2 -16.4833 66.6824 19.3980 0.0000 -13.6418 0.0000
# 3 -0.3103 19.3980 232.8941 0.0000 -14.5993 0.0000
# 4 0.0000 0.0000 0.0000 29.5806 0.0000 -8.8218
# 5 -33.3812 -13.6418 -14.5993 0.0000 37.7604 0.0000
# 6 0.0000 0.0000 0.0000 -8.8218 0.0000 10.3692
#
#
#
# Elastic Compliance Matrix: (Units=1/GPa)
#
#
# Indices 1 2 3 4 5 6 
#
# 1 0.018306 0.008336 0.000547 0.000000 0.019406 0.000000
# 2 0.008336 0.020223 -0.000772 0.000000 0.014377 0.000000
# 3 0.000547 -0.000772 0.004480 0.000000 0.001936 0.000000
# 4 0.000000 0.000000 0.000000 0.045299 0.000000 0.038539
# 5 0.019406 0.014377 0.001936 0.000000 0.049581 0.000000
# 6 0.000000 0.000000 0.000000 0.038539 0.000000 0.129228
#
#
# Mechanical properties :
#
#
# Convention : Reuss Voigt Hill
#
# Bulk Modulus (GPa) = 16.88294 44.70148 30.79221
# Shear Modulus (GPa) = 18.47473 41.84203 30.15838
#
# Velocity S-wave (km/s) = 2.75621 4.14791 3.52149
# Velocity P-wave (km/s) = 4.13171 6.42815 5.40334
#
# Compressibility (1/GPa) = 0.05923139
#
# Stress axis : x y z
#
# Youngs Moduli (GPa) = 54.62562 49.44867 223.20337
#
# Poissons Ratio (x) = -0.41222 -0.12200
# Poissons Ratio (y) = -0.45538 0.17232
# Poissons Ratio (z) = -0.02986 0.03818
#
# Static dielectric constant tensor:
#      x y z
#    x 2.080230 0.000000 0.184530 
#    y 0.000000 2.036580 0.000000 
#    z 0.184530 0.000000 2.237470 
# 
# From -- ./inp_files/4054.got.cif
#   From: 2010.05.17/outbox.cif.g08.bks.cpg/sg15_3_cif.got.tgz:4054.got - 2010.06.03 18:47:42.
