data_PCOD9296094
_publ_section_title
;
Structure prediction by ZEFSAII (Michael W. Deem and Ramdas Pophale) SiO2 
 PCOD9296094
Probable space group: C 2/C
;
_chemical_formula_sum "Si O2"
_cell_formula_units_Z 64
_cell_length_a 9.101071
_cell_length_b 20.387663
_cell_length_c 17.356867
_cell_angle_alpha 90.000000
_cell_angle_beta 92.808262
_cell_angle_gamma 90.000000
_cell_volume 3216.691557
_symmetry_space_group_name_H-M "C 2/C"
_symmetry_group_IT_number 15
_symmetry_cell_setting 'monoclinic'
loop_
_space_group_symop_operation_xyz
x,y,z
-x,y,1/2-z
-x,-y,-z
x,-y,1/2+z
1/2+x,1/2+y,z
1/2-x,1/2+y,1/2-z
1/2-x,1/2-y,-z
1/2+x,1/2-y,1/2+z
loop_
_atom_site_type_symbol
_atom_site_label
_atom_site_fract_x
_atom_site_fract_y
_atom_site_fract_z
Si Si1 0.317874 0.318785 0.028269
Si Si2 0.627467 0.953888 0.466460
Si Si3 0.128878 0.772391 0.057888
Si Si4 0.172897 0.845569 0.738560
Si Si5 0.130182 0.654885 0.844060
Si Si6 0.175154 0.299671 0.182609
Si Si7 0.614376 0.871130 0.613670
Si Si8 0.209265 0.420005 0.900880
O O1 0.492017 0.312434 0.021731
O O2 0.276889 0.324824 0.116974
O O3 0.250000 0.250000 0.000000
O O4 0.244437 0.374226 0.974813
O O5 0.583078 0.906885 0.394438
O O6 0.675652 0.906824 0.537980
O O7 0.500000 0.000000 0.500000
O O8 0.735866 0.006305 0.430434
O O9 0.219543 0.816281 0.119284
O O10 0.073293 0.704234 0.093227
O O11 0.250000 0.750000 0.000000
O O12 0.221543 0.771934 0.714086
O O13 0.268813 0.867977 0.814418
O O14 0.198795 0.894678 0.668631
O O15 0.000000 0.842101 0.750000
O O16 0.159524 0.650272 0.753658
O O17 0.994154 0.705467 0.851048
O O18 0.461615 0.908299 0.627648
#
# Coordination Sequence:
#
# PCOD9296094 Si02
#       8
#     8   8   8   8   8   8   8   8
#     4  12  23  38  65  95 132 170 211 279 327 396
#     4  10  23  44  67  92 128 177 230 262 314 399
#     4  12  22  35  66  97 125 163 216 269 341 385
#     4  12  23  39  65  99 132 163 206 277 338 392
#     4  11  22  40  65  95 132 165 212 277 324 394
#     4  11  21  39  64  99 130 161 215 269 344 378
#     4  11  21  41  67  94 128 168 218 271 324 394
#     4  11  25  44  64  93 130 173 227 261 329 390
#
# _framework density 19.89622
#
# number of rings (size 3 to 8) (size 9 to 14) (size 15 to 20)
#    0.000    0.750    6.250    2.625    1.750    0.500 
#   11.250    2.500    0.000    0.000    0.000    0.000 
#    0.000    0.000    0.000    0.000    0.000    0.000 
#
# Total GULP energy -178627.589939 kJ/mol
# GULP energy per Si atom -5582.112186 kJ/mol
# Density = 1.985094 g / cm^3
# Si number density = 19.896220 Si / 1000 Ang^3
#
#
#
# Elastic Constant Matrix: (Units=GPa)
#
#
# Indices 1 2 3 4 5 6 
#
# 1 79.8983 6.5769 33.1547 0.0000 12.3642 0.0000
# 2 6.5769 84.4106 41.9805 0.0000 6.8747 0.0000
# 3 33.1547 41.9805 132.0227 0.0000 -5.0363 0.0000
# 4 0.0000 0.0000 0.0000 27.7469 0.0000 -6.3421
# 5 12.3642 6.8747 -5.0363 0.0000 35.3693 0.0000
# 6 0.0000 0.0000 0.0000 -6.3421 0.0000 20.5434
#
#
#
# Elastic Compliance Matrix: (Units=1/GPa)
#
#
# Indices 1 2 3 4 5 6 
#
# 1 0.015260 0.001603 -0.004582 0.000000 -0.006299 0.000000
# 2 0.001603 0.014657 -0.005222 0.000000 -0.004153 0.000000
# 3 -0.004582 -0.005222 0.010543 0.000000 0.004118 0.000000
# 4 0.000000 0.000000 0.000000 0.038776 0.000000 0.011971
# 5 -0.006299 -0.004153 0.004118 0.000000 0.031868 0.000000
# 6 0.000000 0.000000 0.000000 0.011971 0.000000 0.052373
#
#
# Mechanical properties :
#
#
# Convention : Reuss Voigt Hill
#
# Bulk Modulus (GPa) = 41.56625 51.08395 46.32510
# Shear Modulus (GPa) = 26.61009 31.03990 28.82500
#
# Velocity S-wave (km/s) = 3.66108 3.95408 3.81040
# Velocity P-wave (km/s) = 6.22962 6.82476 6.53397
#
# Compressibility (1/GPa) = 0.02405798
#
# Stress axis : x y z
#
# Youngs Moduli (GPa) = 65.53030 68.22646 94.85297
#
# Poissons Ratio (x) = -0.10936 0.43464
# Poissons Ratio (y) = -0.10504 0.49528
# Poissons Ratio (z) = 0.30027 0.35625
#
# Static dielectric constant tensor:
#      x y z
#    x 1.717960 0.000000 -0.009040 
#    y 0.000000 1.714670 0.000000 
#    z -0.009040 0.000000 1.758260 
# 
# From -- ./inp_files/192171.got.cif
#   From: 2010.05.17/outbox.cif.g08.bks.cpg/sg15_97_cif.got.tgz:192171.got - 2010.06.03 18:47:42.
