data_PCOD9296659
_publ_section_title
;
Structure prediction by ZEFSAII (Michael W. Deem and Ramdas Pophale) SiO2 
 PCOD9296659
Probable space group: C 2/C
;
_chemical_formula_sum "Si O2"
_cell_formula_units_Z 52
_cell_length_a 23.352394
_cell_length_b 22.747814
_cell_length_c 5.949438
_cell_angle_alpha 90.000000
_cell_angle_beta 44.749378
_cell_angle_gamma 90.000000
_cell_volume 2224.969220
_symmetry_space_group_name_H-M "C 2/C"
_symmetry_group_IT_number 15
_symmetry_cell_setting 'monoclinic'
loop_
_space_group_symop_operation_xyz
x,y,z
-x,y,1/2-z
-x,-y,-z
x,-y,1/2+z
1/2+x,1/2+y,z
1/2-x,1/2+y,1/2-z
1/2-x,1/2-y,-z
1/2+x,1/2-y,1/2+z
loop_
_atom_site_type_symbol
_atom_site_label
_atom_site_fract_x
_atom_site_fract_y
_atom_site_fract_z
Si Si1 0.381932 0.014131 0.719962
Si Si2 0.324647 0.657893 0.280254
Si Si3 0.575737 0.200458 0.391976
Si Si4 0.000000 0.207514 0.750000
Si Si5 0.804014 0.018793 0.318655
Si Si6 0.596459 0.140514 0.950126
Si Si7 0.296675 0.770741 0.620342
O O1 0.379446 0.084359 0.752909
O O2 0.417200 0.007095 0.363760
O O3 0.288374 0.994014 0.949197
O O4 0.304347 0.589516 0.351477
O O5 0.286956 0.704165 0.564927
O O6 0.280178 0.686170 0.186125
O O7 0.421198 0.668437 0.026046
O O8 0.532758 0.250631 0.359257
O O9 0.617256 0.144714 0.153619
O O10 0.651757 0.229227 0.300385
O O11 0.500000 0.178163 0.750000
O O12 0.838195 0.994077 0.466351
O O13 0.500000 0.142826 0.250000
O O14 0.637180 0.197394 0.729000
#
# Coordination Sequence:
#
# PCOD9296659 Si02
#       7
#     8   8   8   4   8   8   8
#     4  10  24  42  62  91 134 182 234 288 339 399
#     4  11  23  45  68 104 137 173 241 287 351 431
#     4  12  21  40  64  95 144 184 215 274 363 418
#     4  12  24  44  64 104 138 178 222 298 360 420
#     4  10  23  45  71  97 136 188 237 293 354 415
#     4  12  22  39  64  95 136 175 228 278 339 420
#     4  11  24  41  66 103 137 178 224 281 355 428
#
# _framework density 23.371109000000001
#
# number of rings (size 3 to 8) (size 9 to 14) (size 15 to 20)
#    0.000    0.923    6.923    0.000    2.154    3.692 
#    0.000    0.769    0.000    0.000    0.000    0.000 
#    0.000    0.000    0.000    0.000    0.000    0.000 
#
# Total GULP energy -144744.476027 kJ/mol
# GULP energy per Si atom -5567.095232 kJ/mol
# Density = 2.331792 g / cm^3
# Si number density = 23.371109 Si / 1000 Ang^3
#
#
#
# Elastic Constant Matrix: (Units=GPa)
#
#
# Indices 1 2 3 4 5 6 
#
# 1 139.8659 44.2233 17.4237 0.0000 8.8325 0.0000
# 2 44.2233 121.5210 22.6079 0.0000 15.1564 0.0000
# 3 17.4237 22.6079 71.6180 0.0000 14.3288 0.0000
# 4 0.0000 0.0000 0.0000 19.5183 0.0000 -10.1876
# 5 8.8325 15.1564 14.3288 0.0000 47.8236 0.0000
# 6 0.0000 0.0000 0.0000 -10.1876 0.0000 7.0995
#
#
#
# Elastic Compliance Matrix: (Units=1/GPa)
#
#
# Indices 1 2 3 4 5 6 
#
# 1 0.008167 -0.002735 -0.001059 0.000000 -0.000324 0.000000
# 2 -0.002735 0.009855 -0.002044 0.000000 -0.002006 0.000000
# 3 -0.001059 -0.002044 0.015634 0.000000 -0.003841 0.000000
# 4 0.000000 0.000000 0.000000 0.204108 0.000000 0.292890
# 5 -0.000324 -0.002006 -0.003841 0.000000 0.022757 0.000000
# 6 0.000000 0.000000 0.000000 0.292890 0.000000 0.561143
#
#
# Mechanical properties :
#
#
# Convention : Reuss Voigt Hill
#
# Bulk Modulus (GPa) = 45.49478 55.72384 50.60931
# Shear Modulus (GPa) = 5.94767 31.47163 18.70965
#
# Velocity S-wave (km/s) = 1.59700 3.67359 2.83246
# Velocity P-wave (km/s) = 4.78634 6.47213 5.69199
#
# Compressibility (1/GPa) = 0.02198054
#
# Stress axis : x y z
#
# Youngs Moduli (GPa) = 122.44845 101.47497 63.96183
#
# Poissons Ratio (x) = 0.27749 0.06772
# Poissons Ratio (y) = 0.33484 0.13076
# Poissons Ratio (z) = 0.12964 0.20745
#
# Static dielectric constant tensor:
#      x y z
#    x 2.036860 0.000000 0.127160 
#    y 0.000000 1.830320 0.000000 
#    z 0.127160 0.000000 2.108560 
# 
# From -- ./inp_files/16205.got.cif
#   From: 2010.05.17/outbox.cif.g08.bks.cpg/sg15_9_cif.got.tgz:16205.got - 2010.06.03 18:47:42.
