data_PCOD9296195
_publ_section_title
;
Structure prediction by ZEFSAII (Michael W. Deem and Ramdas Pophale) SiO2 
 PCOD9296195
Probable space group: C 2/C
;
_chemical_formula_sum "Si O2"
_cell_formula_units_Z 32
_cell_length_a 23.771671
_cell_length_b 5.078965
_cell_length_c 13.196443
_cell_angle_alpha 90.000000
_cell_angle_beta 128.231678
_cell_angle_gamma 90.000000
_cell_volume 1251.544295
_symmetry_space_group_name_H-M "C 2/C"
_symmetry_group_IT_number 15
_symmetry_cell_setting 'monoclinic'
loop_
_space_group_symop_operation_xyz
x,y,z
-x,y,1/2-z
-x,-y,-z
x,-y,1/2+z
1/2+x,1/2+y,z
1/2-x,1/2+y,1/2-z
1/2-x,1/2-y,-z
1/2+x,1/2-y,1/2+z
loop_
_atom_site_type_symbol
_atom_site_label
_atom_site_fract_x
_atom_site_fract_y
_atom_site_fract_z
Si Si1 0.293179 0.233335 0.265916
Si Si2 0.586100 0.596954 0.476391
Si Si3 0.324134 0.376762 0.619103
Si Si4 0.555017 0.807484 0.118090
O O1 0.251619 0.466234 0.280902
O O2 0.365065 0.184459 0.411495
O O3 0.192227 0.879882 0.323903
O O4 0.628196 0.527143 0.422299
O O5 0.503259 0.669703 0.372250
O O6 0.582708 0.377433 0.559159
O O7 0.250000 0.250000 0.500000
O O8 0.375050 0.161989 0.733741
O O9 0.500000 0.000000 0.000000
#
# Coordination Sequence:
#
# PCOD9296195 Si02
#       4
#     8   8   8   8
#     4  11  25  45  71 106 153 195 248 314 385 450
#     4  10  23  44  69 102 147 192 250 307 381 458
#     4  11  23  44  73 110 145 196 256 313 382 466
#     4  10  24  46  73 102 149 195 247 317 386 455
#
# _framework density 25.568414000000001
#
# number of rings (size 3 to 8) (size 9 to 14) (size 15 to 20)
#    0.000    1.500    2.500    0.750    7.000    1.000 
#    4.500   10.000    0.000    0.000    0.000    0.000 
#    0.000    0.000    0.000    0.000    0.000    0.000 
#
# Total GULP energy -89432.174467 kJ/mol
# GULP energy per Si atom -5589.510904 kJ/mol
# Density = 2.551022 g / cm^3
# Si number density = 25.568414 Si / 1000 Ang^3
#
#
#
# Elastic Constant Matrix: (Units=GPa)
#
#
# Indices 1 2 3 4 5 6 
#
# 1 238.5569 23.4861 74.0229 0.0000 -3.6874 0.0000
# 2 23.4861 68.4703 29.1330 0.0003 24.2290 0.0003
# 3 74.0229 29.1330 180.3446 0.0000 39.3027 0.0000
# 4 0.0000 0.0003 0.0000 13.5543 0.0000 17.8279
# 5 -3.6874 24.2290 39.3027 0.0000 61.7227 0.0000
# 6 0.0000 0.0003 0.0000 17.8279 0.0000 24.1037
#
#
#
# Elastic Compliance Matrix: (Units=1/GPa)
#
#
# Indices 1 2 3 4 5 6 
#
# 1 0.005127 -0.001615 -0.002378 0.000000 0.002455 0.000000
# 2 -0.001615 0.017825 -0.000779 -0.000004 -0.006598 0.000003
# 3 -0.002378 -0.000779 0.007677 0.000000 -0.004725 0.000000
# 4 0.000000 -0.000004 0.000000 2.716210 0.000002 -2.009006
# 5 0.002455 -0.006598 -0.004725 0.000002 0.021947 -0.000002
# 6 0.000000 0.000003 0.000000 -2.009006 -0.000002 1.527421
#
#
# Mechanical properties :
#
#
# Convention : Reuss Voigt Hill
#
# Bulk Modulus (GPa) = 47.42967 82.29510 64.86238
# Shear Modulus (GPa) = 1.15935 43.92480 22.54207
#
# Velocity S-wave (km/s) = 0.67410 4.14929 2.97246
# Velocity P-wave (km/s) = 4.38135 7.43045 6.09950
#
# Compressibility (1/GPa) = 0.02108385
#
# Stress axis : x y z
#
# Youngs Moduli (GPa) = 195.05210 56.10129 130.26661
#
# Poissons Ratio (x) = 0.09062 0.30982
# Poissons Ratio (y) = 0.31506 0.10142
# Poissons Ratio (z) = 0.46391 0.04368
#
# Static dielectric constant tensor:
#      x y z
#    x 2.134510 0.000000 0.065370 
#    y 0.000000 2.126330 0.000000 
#    z 0.065370 0.000000 2.158540 
# 
# From -- ./inp_files/170677.got.cif
#   From: 2010.05.17/outbox.cif.g08.bks.cpg/sg15_86_cif.got.tgz:170677.got - 2010.06.03 18:47:42.
