data_PCOD9296607
_publ_section_title
;
Structure prediction by ZEFSAII (Michael W. Deem and Ramdas Pophale) SiO2 
 PCOD9296607
Probable space group: C 2/C
;
_chemical_formula_sum "Si O2"
_cell_formula_units_Z 40
_cell_length_a 10.140010
_cell_length_b 21.351949
_cell_length_c 15.854424
_cell_angle_alpha 90.000000
_cell_angle_beta 33.826187
_cell_angle_gamma 90.000000
_cell_volume 1910.857814
_symmetry_space_group_name_H-M "C 2/C"
_symmetry_group_IT_number 15
_symmetry_cell_setting 'monoclinic'
loop_
_space_group_symop_operation_xyz
x,y,z
-x,y,1/2-z
-x,-y,-z
x,-y,1/2+z
1/2+x,1/2+y,z
1/2-x,1/2+y,1/2-z
1/2-x,1/2-y,-z
1/2+x,1/2-y,1/2+z
loop_
_atom_site_type_symbol
_atom_site_label
_atom_site_fract_x
_atom_site_fract_y
_atom_site_fract_z
Si Si1 0.240962 0.694615 0.798383
Si Si2 0.000000 0.423185 0.750000
Si Si3 0.165909 0.634703 0.580104
Si Si4 0.500000 0.585568 0.750000
Si Si5 0.869819 0.499607 0.978259
Si Si6 0.400661 0.680291 0.045462
O O1 0.303835 0.632404 0.817254
O O2 0.439125 0.696296 0.620569
O O3 0.237036 0.757620 0.853639
O O4 0.982479 0.684192 0.895742
O O5 0.015004 0.466119 0.825725
O O6 0.775557 0.377071 0.876921
O O7 0.186307 0.570057 0.519276
O O8 0.415842 0.659882 0.479190
O O9 0.000000 0.622569 0.750000
O O10 0.629492 0.540427 0.615644
O O11 0.000000 0.500000 0.000000
#
# Coordination Sequence:
#
# PCOD9296607 Si02
#       6
#     8   4   8   4   8   8
#     4  11  24  45  66 100 136 180 235 284 348 411
#     4  12  27  46  70 104 139 184 232 284 360 410
#     4  10  23  45  69  98 138 182 228 285 348 415
#     4  12  25  42  70 102 137 176 232 290 342 416
#     4  12  26  45  71 104 140 181 230 289 349 420
#     4  11  26  43  70  97 138 186 230 291 346 412
#
# _framework density 20.933005999999999
#
# number of rings (size 3 to 8) (size 9 to 14) (size 15 to 20)
#    0.000    0.800    5.000    1.200    5.600    2.400 
#    0.000    0.000    0.000    0.000    0.000    0.000 
#    0.000    0.000    0.000    0.000    0.000    0.000 
#
# Total GULP energy -111868.651669 kJ/mol
# GULP energy per Si atom -5593.432583 kJ/mol
# Density = 2.088536 g / cm^3
# Si number density = 20.933006 Si / 1000 Ang^3
#
#
#
# Elastic Constant Matrix: (Units=GPa)
#
#
# Indices 1 2 3 4 5 6 
#
# 1 72.3545 30.4007 16.1455 -0.0132 -8.0369 -0.0232
# 2 30.4007 124.2594 45.5739 -0.0206 13.5439 -0.0243
# 3 16.1455 45.5739 62.1580 -0.0768 -2.5987 -0.1044
# 4 -0.0132 -0.0206 -0.0768 8.6210 0.0205 -21.9080
# 5 -8.0369 13.5439 -2.5987 0.0205 35.1123 0.0255
# 6 -0.0232 -0.0243 -0.1044 -21.9080 0.0255 1.5591
#
#
#
# Elastic Compliance Matrix: (Units=1/GPa)
#
#
# Indices 1 2 3 4 5 6 
#
# 1 0.016407 -0.004259 -0.000916 -0.000002 0.005330 0.000002
# 2 -0.004259 0.013007 -0.008707 0.000026 -0.006636 0.000025
# 3 -0.000916 -0.008707 0.022913 -0.000101 0.004845 -0.000107
# 4 -0.000002 0.000026 -0.000101 -0.003342 0.000018 -0.046960
# 5 0.005330 -0.006636 0.004845 0.000018 0.032619 0.000024
# 6 0.000002 0.000025 -0.000107 -0.046960 0.000024 -0.018479
#
#
# Mechanical properties :
#
#
# Convention : Reuss Voigt Hill
#
# Bulk Modulus (GPa) = 40.71543 49.22358 44.96950
# Shear Modulus (GPa) = 50.46610 20.16860 35.31735
#
# Velocity S-wave (km/s) = 4.91536 3.10737 4.11196
# Velocity P-wave (km/s) = 7.19075 6.03657 6.63879
#
# Compressibility (1/GPa) = 0.02456071
#
# Stress axis : x y z
#
# Youngs Moduli (GPa) = 60.95021 76.88386 43.64423
#
# Poissons Ratio (x) = 0.32745 0.03998
# Poissons Ratio (y) = 0.25959 0.38003
# Poissons Ratio (z) = 0.05584 0.66947
#
# Static dielectric constant tensor:
#      x y z
#    x 1.783650 0.000000 -0.001610 
#    y 0.000000 1.695970 0.000000 
#    z -0.001610 0.000000 1.739060 
# 
# From -- ./inp_files/51682.got.cif
#   From: 2010.05.17/outbox.cif.g08.bks.cpg/sg15_26_cif.got.tgz:51682.got - 2010.06.03 18:47:42.
