data_PCOD9296951
_publ_section_title
;
Structure prediction by ZEFSAII (Michael W. Deem and Ramdas Pophale) SiO2 
 PCOD9296951
Probable space group: C 2/C
;
_chemical_formula_sum "Si O2"
_cell_formula_units_Z 40
_cell_length_a 10.613590
_cell_length_b 10.967988
_cell_length_c 27.601925
_cell_angle_alpha 90.000000
_cell_angle_beta 30.043640
_cell_angle_gamma 90.000000
_cell_volume 1608.685262
_symmetry_space_group_name_H-M "C 2/C"
_symmetry_group_IT_number 15
_symmetry_cell_setting 'monoclinic'
loop_
_space_group_symop_operation_xyz
x,y,z
-x,y,1/2-z
-x,-y,-z
x,-y,1/2+z
1/2+x,1/2+y,z
1/2-x,1/2+y,1/2-z
1/2-x,1/2-y,-z
1/2+x,1/2-y,1/2+z
loop_
_atom_site_type_symbol
_atom_site_label
_atom_site_fract_x
_atom_site_fract_y
_atom_site_fract_z
Si Si1 0.338507 0.507865 0.352867
Si Si2 0.144766 0.118513 0.434574
Si Si3 0.973635 0.194328 0.393302
Si Si4 0.405473 0.273178 0.191910
Si Si5 0.016321 0.707720 0.433568
O O1 0.500000 0.512524 0.250000
O O2 0.415315 0.604247 0.368597
O O3 0.396436 0.377980 0.358074
O O4 0.070567 0.564914 0.424506
O O5 0.434219 0.148302 0.352382
O O6 0.130200 0.123413 0.382058
O O7 0.978473 0.221622 0.517726
O O8 0.000000 0.000000 0.500000
O O9 0.750000 0.250000 0.500000
O O10 0.166804 0.290664 0.305878
O O11 0.315446 0.262217 0.166178
O O12 0.750000 0.750000 0.500000
#
# Coordination Sequence:
#
# PCOD9296951 Si02
#       5
#     8   8   8   8   8
#     4  12  24  48  77 108 153 207 254 323 390 465
#     4  11  24  46  71 108 149 198 253 319 391 462
#     4  12  25  46  73 113 151 197 261 319 389 466
#     4  11  26  49  76 112 153 203 260 318 395 470
#     4  10  23  46  74 108 149 194 261 316 389 461
#
# _framework density 24.865026
#
# number of rings (size 3 to 8) (size 9 to 14) (size 15 to 20)
#    0.000    0.800    4.000    3.000    0.000    4.800 
#   14.400    2.000    0.000    0.000    0.000    0.000 
#    0.000    0.000    0.000    0.000    0.000    0.000 
#
# Total GULP energy -111564.934095 kJ/mol
# GULP energy per Si atom -5578.246705 kJ/mol
# Density = 2.480843 g / cm^3
# Si number density = 24.865026 Si / 1000 Ang^3
#
#
#
# Elastic Constant Matrix: (Units=GPa)
#
#
# Indices 1 2 3 4 5 6 
#
# 1 127.9053 18.5478 24.7352 -0.0025 31.9627 0.0004
# 2 18.5478 110.3778 39.7499 -0.0022 -4.3894 -0.0009
# 3 24.7352 39.7499 146.3409 0.0049 19.9830 -0.0033
# 4 -0.0025 -0.0022 0.0049 37.6274 -0.0015 -2.6647
# 5 31.9627 -4.3894 19.9830 -0.0015 47.2832 -0.0017
# 6 0.0004 -0.0009 -0.0033 -2.6647 -0.0017 37.2294
#
#
#
# Elastic Compliance Matrix: (Units=1/GPa)
#
#
# Indices 1 2 3 4 5 6 
#
# 1 0.009803 -0.001824 -0.000248 0.000000 -0.006691 0.000000
# 2 -0.001824 0.010605 -0.003051 0.000001 0.003507 0.000000
# 3 -0.000248 -0.003051 0.008193 -0.000001 -0.003578 0.000000
# 4 0.000000 0.000001 -0.000001 0.026712 0.000001 0.001912
# 5 -0.006691 0.003507 -0.003578 0.000001 0.027510 0.000001
# 6 0.000000 0.000000 0.000000 0.001912 0.000001 0.026997
#
#
# Mechanical properties :
#
#
# Convention : Reuss Voigt Hill
#
# Bulk Modulus (GPa) = 54.48368 61.18776 57.83572
# Shear Modulus (GPa) = 39.62505 44.53409 42.07957
#
# Velocity S-wave (km/s) = 3.99633 4.23665 4.11824
# Velocity P-wave (km/s) = 6.57674 6.97092 6.77670
#
# Compressibility (1/GPa) = 0.01835412
#
# Stress axis : x y z
#
# Youngs Moduli (GPa) = 102.01172 94.29938 122.06186
#
# Poissons Ratio (x) = 0.17201 0.03024
# Poissons Ratio (y) = 0.18608 0.37241
# Poissons Ratio (z) = 0.02527 0.28771
#
# Static dielectric constant tensor:
#      x y z
#    x 2.102920 0.000000 -0.119330 
#    y 0.000000 1.970770 -0.000010 
#    z -0.119330 -0.000010 2.304110 
# 
# From -- ./inp_files/310719.got.cif
#   From: 2010.05.17/outbox.cif.g08.bks.cpg/sg15_156_cif.got.tgz:310719.got - 2010.06.03 18:47:42.
