data_PCOD9296164
_publ_section_title
;
Structure prediction by ZEFSAII (Michael W. Deem and Ramdas Pophale) SiO2 
 PCOD9296164
Probable space group: C 2/C
;
_chemical_formula_sum "Si O2"
_cell_formula_units_Z 48
_cell_length_a 26.299681
_cell_length_b 14.420710
_cell_length_c 9.233143
_cell_angle_alpha 90.000000
_cell_angle_beta 38.668398
_cell_angle_gamma 90.000000
_cell_volume 2187.943600
_symmetry_space_group_name_H-M "C 2/C"
_symmetry_group_IT_number 15
_symmetry_cell_setting 'monoclinic'
loop_
_space_group_symop_operation_xyz
x,y,z
-x,y,1/2-z
-x,-y,-z
x,-y,1/2+z
1/2+x,1/2+y,z
1/2-x,1/2+y,1/2-z
1/2-x,1/2-y,-z
1/2+x,1/2-y,1/2+z
loop_
_atom_site_type_symbol
_atom_site_label
_atom_site_fract_x
_atom_site_fract_y
_atom_site_fract_z
Si Si1 0.197100 0.072928 0.904155
Si Si2 0.550830 0.436681 0.276934
Si Si3 0.828813 0.260376 0.431052
Si Si4 0.513956 0.271609 0.545656
Si Si5 0.551760 0.936276 0.990011
Si Si6 0.703873 0.034255 0.541912
O O1 0.184441 0.183172 0.915196
O O2 0.222731 0.060649 0.014623
O O3 0.265602 0.037107 0.644612
O O4 0.121888 0.002627 0.057938
O O5 0.500000 0.406918 0.250000
O O6 0.500000 0.500000 0.500000
O O7 0.566718 0.347129 0.341841
O O8 0.750000 0.250000 0.500000
O O9 0.922304 0.235348 0.179316
O O10 0.828958 0.370810 0.458491
O O11 0.500000 0.291692 0.750000
O O12 0.554512 0.171172 0.441113
O O13 0.638434 0.985167 0.790228
O O14 0.500000 0.938329 0.250000
O O15 0.500000 0.000000 0.000000
#
# Coordination Sequence:
#
# PCOD9296164 Si02
#       6
#     8   8   8   8   8   8
#     4  11  25  42  70  97 138 175 226 280 344 414
#     4  12  25  44  69 102 137 184 235 282 349 417
#     4  10  23  44  68  96 143 179 222 287 350 401
#     4  11  25  44  71 101 140 183 235 295 347 413
#     4  11  23  43  69  98 134 175 228 282 343 409
#     4  11  24  45  68 101 135 179 223 281 351 409
#
# _framework density 21.938407999999999
#
# number of rings (size 3 to 8) (size 9 to 14) (size 15 to 20)
#    0.000    1.000    3.333    2.500    7.000    2.000 
#    3.000    1.667    0.000    0.000    0.000    0.000 
#    0.000    0.000    0.000    0.000    0.000    0.000 
#
# Total GULP energy -133882.865244 kJ/mol
# GULP energy per Si atom -5578.452719 kJ/mol
# Density = 2.188847 g / cm^3
# Si number density = 21.938408 Si / 1000 Ang^3
#
#
#
# Elastic Constant Matrix: (Units=GPa)
#
#
# Indices 1 2 3 4 5 6 
#
# 1 67.9213 11.8627 2.4386 0.0000 -0.7553 0.0000
# 2 11.8627 174.9211 57.5058 0.0000 13.9003 0.0000
# 3 2.4386 57.5058 77.5041 0.0000 -4.6354 0.0000
# 4 0.0000 0.0000 0.0000 26.4569 0.0000 -3.6734
# 5 -0.7553 13.9003 -4.6354 0.0000 33.6307 0.0000
# 6 0.0000 0.0000 0.0000 -3.6734 0.0000 24.2401
#
#
#
# Elastic Compliance Matrix: (Units=1/GPa)
#
#
# Indices 1 2 3 4 5 6 
#
# 1 0.014934 -0.001257 0.000518 0.000000 0.000926 0.000000
# 2 -0.001257 0.008220 -0.006316 0.000000 -0.004296 0.000000
# 3 0.000518 -0.006316 0.017877 0.000000 0.005086 0.000000
# 4 0.000000 0.000000 0.000000 0.038610 0.000000 0.005851
# 5 0.000926 -0.004296 0.005086 0.000000 0.032232 0.000000
# 6 0.000000 0.000000 0.000000 0.005851 0.000000 0.042141
#
#
# Mechanical properties :
#
#
# Convention : Reuss Voigt Hill
#
# Bulk Modulus (GPa) = 37.14598 51.55120 44.34859
# Shear Modulus (GPa) = 28.23295 33.43483 30.83389
#
# Velocity S-wave (km/s) = 3.59126 3.90812 3.75303
# Velocity P-wave (km/s) = 5.84507 6.62674 6.24814
#
# Compressibility (1/GPa) = 0.02692082
#
# Stress axis : x y z
#
# Youngs Moduli (GPa) = 66.96082 121.65370 55.93752
#
# Poissons Ratio (x) = 0.15288 -0.02897
# Poissons Ratio (y) = 0.08415 0.35333
# Poissons Ratio (z) = -0.03468 0.76842
#
# Static dielectric constant tensor:
#      x y z
#    x 2.095880 0.000000 -0.213140 
#    y 0.000000 2.005710 0.000000 
#    z -0.213140 0.000000 1.905830 
# 
# From -- ./inp_files/66424.got.cif
#   From: 2010.05.17/outbox.cif.g08.bks.cpg/sg15_34_cif.got.tgz:66424.got - 2010.06.03 18:47:42.
