data_PCOD9296863
_publ_section_title
;
Structure prediction by ZEFSAII (Michael W. Deem and Ramdas Pophale) SiO2 
 PCOD9296863
Probable space group: C 2/C
;
_chemical_formula_sum "Si O2"
_cell_formula_units_Z 48
_cell_length_a 13.847893
_cell_length_b 21.776249
_cell_length_c 13.311980
_cell_angle_alpha 90.000000
_cell_angle_beta 147.570554
_cell_angle_gamma 90.000000
_cell_volume 2152.709162
_symmetry_space_group_name_H-M "C 2/C"
_symmetry_group_IT_number 15
_symmetry_cell_setting 'monoclinic'
loop_
_space_group_symop_operation_xyz
x,y,z
-x,y,1/2-z
-x,-y,-z
x,-y,1/2+z
1/2+x,1/2+y,z
1/2-x,1/2+y,1/2-z
1/2-x,1/2-y,-z
1/2+x,1/2-y,1/2+z
loop_
_atom_site_type_symbol
_atom_site_label
_atom_site_fract_x
_atom_site_fract_y
_atom_site_fract_z
Si Si1 0.938219 0.691254 0.966146
Si Si2 0.233767 0.125285 0.219940
Si Si3 0.707652 0.487437 0.204367
Si Si4 0.505967 0.700631 0.367755
Si Si5 0.148642 0.614783 0.797612
Si Si6 0.597893 0.376061 0.229461
O O1 0.938911 0.640615 0.879621
O O2 0.744088 0.679280 0.846733
O O3 0.979225 0.751902 0.936388
O O4 0.108170 0.669761 0.180811
O O5 0.156065 0.152977 0.255818
O O6 0.292015 0.054762 0.287097
O O7 0.061633 0.128274 0.993570
O O8 0.778359 0.451361 0.169448
O O9 0.703820 0.439506 0.294256
O O10 0.500000 0.500000 0.000000
O O11 0.500000 0.728224 0.250000
O O12 0.689131 0.662032 0.537293
O O13 0.000000 0.612218 0.750000
O O14 0.500000 0.377674 0.250000
#
# Coordination Sequence:
#
# PCOD9296863 Si02
#       6
#     8   8   8   8   8   8
#     4  11  24  43  67  96 142 176 227 286 338 411
#     4  11  23  44  68 100 137 180 228 281 347 407
#     4   9  19  44  65  94 141 176 222 286 341 400
#     4  12  24  43  72 103 141 181 219 280 359 422
#     4  11  22  41  64 104 139 175 226 280 343 418
#     4  10  23  46  70  95 136 183 233 287 338 400
#
# _framework density 22.297485000000002
#
# number of rings (size 3 to 8) (size 9 to 14) (size 15 to 20)
#    0.000    1.333    5.000    2.500    0.000    6.000 
#   15.000    0.833    0.000    0.000    0.000    0.000 
#    0.000    0.000    0.000    0.000    0.000    0.000 
#
# Total GULP energy -133928.250749 kJ/mol
# GULP energy per Si atom -5580.343781 kJ/mol
# Density = 2.224673 g / cm^3
# Si number density = 22.297485 Si / 1000 Ang^3
#
#
#
# Elastic Constant Matrix: (Units=GPa)
#
#
# Indices 1 2 3 4 5 6 
#
# 1 165.9563 61.2965 25.8195 0.0000 29.6793 0.0000
# 2 61.2965 162.3800 37.8591 0.0000 20.6540 0.0000
# 3 25.8195 37.8591 73.6279 0.0000 24.1379 0.0000
# 4 0.0000 0.0000 0.0000 -6.5150 0.0000 -4.6215
# 5 29.6793 20.6540 24.1379 0.0000 31.5700 0.0000
# 6 0.0000 0.0000 0.0000 -4.6215 0.0000 21.1155
#
#
#
# Elastic Compliance Matrix: (Units=1/GPa)
#
#
# Indices 1 2 3 4 5 6 
#
# 1 0.007931 -0.002301 0.000471 0.000000 -0.006310 0.000000
# 2 -0.002301 0.007808 -0.002993 0.000000 -0.000657 0.000000
# 3 0.000471 -0.002993 0.019295 0.000000 -0.013237 0.000000
# 4 0.000000 0.000000 0.000000 -0.132863 0.000000 -0.029079
# 5 -0.006310 -0.000657 -0.013237 0.000000 0.048159 0.000000
# 6 0.000000 0.000000 0.000000 -0.029079 0.000000 0.040994
#
#
# Mechanical properties :
#
#
# Convention : Reuss Voigt Hill
#
# Bulk Modulus (GPa) = 39.38747 72.43493 55.91120
# Shear Modulus (GPa) = 530.05253 27.70003 278.87628
#
# Velocity S-wave (km/s) = 15.43485 3.52844 11.19564
# Velocity P-wave (km/s) = 18.31254 7.01114 13.86552
#
# Compressibility (1/GPa) = 0.02538878
#
# Stress axis : x y z
#
# Youngs Moduli (GPa) = 126.09005 128.06914 51.82618
#
# Poissons Ratio (x) = 0.29467 -0.02440
# Poissons Ratio (y) = 0.29012 0.15510
# Poissons Ratio (z) = -0.05936 0.38327
#
# Static dielectric constant tensor:
#      x y z
#    x 1.818430 0.000000 0.065400 
#    y 0.000000 2.062040 0.000000 
#    z 0.065400 0.000000 2.028030 
# 
# From -- ./inp_files/156845.got.cif
#   From: 2010.05.17/outbox.cif.g08.bks.cpg/sg15_79_cif.got.tgz:156845.got - 2010.06.03 18:47:42.
