data_PCOD9296473
_publ_section_title
;
Structure prediction by ZEFSAII (Michael W. Deem and Ramdas Pophale) SiO2 
 PCOD9296473
Probable space group: C 2/C
;
_chemical_formula_sum "Si O2"
_cell_formula_units_Z 40
_cell_length_a 6.751419
_cell_length_b 23.759741
_cell_length_c 11.257683
_cell_angle_alpha 90.000000
_cell_angle_beta 96.024146
_cell_angle_gamma 90.000000
_cell_volume 1795.894633
_symmetry_space_group_name_H-M "C 2/C"
_symmetry_group_IT_number 15
_symmetry_cell_setting 'monoclinic'
loop_
_space_group_symop_operation_xyz
x,y,z
-x,y,1/2-z
-x,-y,-z
x,-y,1/2+z
1/2+x,1/2+y,z
1/2-x,1/2+y,1/2-z
1/2-x,1/2-y,-z
1/2+x,1/2-y,1/2+z
loop_
_atom_site_type_symbol
_atom_site_label
_atom_site_fract_x
_atom_site_fract_y
_atom_site_fract_z
Si Si1 0.412212 0.815629 0.531810
Si Si2 0.433935 0.282987 0.862611
Si Si3 0.374311 0.998352 0.365657
Si Si4 0.592763 0.609340 0.877988
Si Si5 0.699772 0.610436 0.429182
O O1 0.478923 0.757937 0.474947
O O2 0.233636 0.843554 0.444558
O O3 0.586650 0.860191 0.544285
O O4 0.297877 0.799875 0.645645
O O5 0.500000 0.250326 0.750000
O O6 0.561958 0.339673 0.872044
O O7 0.500000 0.996325 0.250000
O O8 0.240111 0.054786 0.356250
O O9 0.500000 0.000000 0.500000
O O10 0.230638 0.944684 0.363595
O O11 0.500000 0.629969 0.750000
O O12 0.412314 0.594285 0.955935
#
# Coordination Sequence:
#
# PCOD9296473 Si02
#       5
#     8   8   8   8   8
#     4  10  23  45  64  99 137 176 231 281 350 414
#     4  10  24  40  66  99 136 177 228 285 344 421
#     4  12  26  45  73 103 143 189 231 294 356 421
#     4  11  25  43  71 102 134 180 237 288 348 425
#     4  11  24  43  70  95 140 179 231 283 351 418
#
# _framework density 22.273021
#
# number of rings (size 3 to 8) (size 9 to 14) (size 15 to 20)
#    0.000    1.200    2.000    2.400    5.600    0.800 
#    0.000    0.000    0.000    0.000    0.000    0.000 
#    0.000    0.000    0.000    0.000    0.000    0.000 
#
# Total GULP energy -111748.223120 kJ/mol
# GULP energy per Si atom -5587.411156 kJ/mol
# Density = 2.222233 g / cm^3
# Si number density = 22.273021 Si / 1000 Ang^3
#
#
#
# Elastic Constant Matrix: (Units=GPa)
#
#
# Indices 1 2 3 4 5 6 
#
# 1 90.8511 15.9939 53.6987 0.0000 -23.7005 0.0000
# 2 15.9939 113.4410 10.0993 0.0000 -16.6205 0.0000
# 3 53.6987 10.0993 112.1647 0.0000 -39.5735 0.0000
# 4 0.0000 0.0000 0.0000 18.1340 0.0000 -10.4828
# 5 -23.7005 -16.6205 -39.5735 0.0000 43.6868 0.0000
# 6 0.0000 0.0000 0.0000 -10.4828 0.0000 79.2968
#
#
#
# Elastic Compliance Matrix: (Units=1/GPa)
#
#
# Indices 1 2 3 4 5 6 
#
# 1 0.015720 -0.001335 -0.006726 0.000000 0.001928 0.000000
# 2 -0.001335 0.009477 0.001179 0.000000 0.003949 0.000000
# 3 -0.006726 0.001179 0.016020 0.000000 0.011312 0.000000
# 4 0.000000 0.000000 0.000000 0.059708 0.000000 0.007893
# 5 0.001928 0.003949 0.011312 0.000000 0.035686 0.000000
# 6 0.000000 0.000000 0.000000 0.007893 0.000000 0.013654
#
#
# Mechanical properties :
#
#
# Convention : Reuss Voigt Hill
#
# Bulk Modulus (GPa) = 36.42372 52.89341 44.65856
# Shear Modulus (GPa) = 28.87179 44.00118 36.43649
#
# Velocity S-wave (km/s) = 3.60428 4.44952 4.04902
# Velocity P-wave (km/s) = 5.80602 7.08498 6.47715
#
# Compressibility (1/GPa) = 0.02745464
#
# Stress axis : x y z
#
# Youngs Moduli (GPa) = 63.61205 105.51806 62.42157
#
# Poissons Ratio (x) = 0.14088 0.41982
# Poissons Ratio (y) = 0.08493 -0.07361
# Poissons Ratio (z) = 0.42783 -0.12444
#
# Static dielectric constant tensor:
#      x y z
#    x 1.849610 0.000000 -0.046350 
#    y 0.000000 1.786300 0.000000 
#    z -0.046350 0.000000 1.981300 
# 
# From -- ./inp_files/73055.got.cif
#   From: 2010.05.17/outbox.cif.g08.bks.cpg/sg15_37_cif.got.tgz:73055.got - 2010.06.03 18:47:42.
