data_PCOD9296991
_publ_section_title
;
Structure prediction by ZEFSAII (Michael W. Deem and Ramdas Pophale) SiO2 
 PCOD9296991
Probable space group: C 2/C
;
_chemical_formula_sum "Si O2"
_cell_formula_units_Z 36
_cell_length_a 11.705081
_cell_length_b 8.822473
_cell_length_c 16.419374
_cell_angle_alpha 90.000000
_cell_angle_beta 86.721361
_cell_angle_gamma 90.000000
_cell_volume 1692.816660
_symmetry_space_group_name_H-M "C 2/C"
_symmetry_group_IT_number 15
_symmetry_cell_setting 'monoclinic'
loop_
_space_group_symop_operation_xyz
x,y,z
-x,y,1/2-z
-x,-y,-z
x,-y,1/2+z
1/2+x,1/2+y,z
1/2-x,1/2+y,1/2-z
1/2-x,1/2-y,-z
1/2+x,1/2-y,1/2+z
loop_
_atom_site_type_symbol
_atom_site_label
_atom_site_fract_x
_atom_site_fract_y
_atom_site_fract_z
Si Si1 0.429188 0.699155 0.126508
Si Si2 0.277190 0.036649 0.325333
Si Si3 0.945402 0.133003 0.662975
Si Si4 0.566864 0.862592 0.538465
Si Si5 0.000000 0.431865 0.250000
O O1 0.312956 0.672829 0.183201
O O2 0.485222 0.532280 0.126064
O O3 0.500916 0.824295 0.171130
O O4 0.400177 0.753816 0.037594
O O5 0.191756 0.892650 0.328125
O O6 0.382398 0.024534 0.259405
O O7 0.331500 0.069613 0.411343
O O8 0.000000 0.147569 0.750000
O O9 0.987949 0.265992 0.603281
O O10 0.500000 0.000000 0.500000
#
# Coordination Sequence:
#
# PCOD9296991 Si02
#       5
#     8   8   8   8   4
#     4  10  23  47  66 105 138 183 232 285 345 412
#     4  10  26  42  70 101 138 186 225 294 338 409
#     4  10  25  46  71 103 138 184 234 285 350 407
#     4  12  24  44  71 105 144 181 232 286 348 421
#     4  12  22  46  68 104 140 178 244 278 350 406
#
# _framework density 21.266331999999998
#
# number of rings (size 3 to 8) (size 9 to 14) (size 15 to 20)
#    1.333    0.000    3.333    1.333    4.667    0.889 
#    0.000    0.000    0.000    0.000    0.000    0.000 
#    0.000    0.000    0.000    0.000    0.000    0.000 
#
# Total GULP energy -100384.013832 kJ/mol
# GULP energy per Si atom -5576.889657 kJ/mol
# Density = 2.121793 g / cm^3
# Si number density = 21.266332 Si / 1000 Ang^3
#
#
#
# Elastic Constant Matrix: (Units=GPa)
#
#
# Indices 1 2 3 4 5 6 
#
# 1 115.2609 49.9850 35.0306 0.0000 -8.5707 0.0000
# 2 49.9850 108.1672 58.2500 0.0000 -5.7850 0.0000
# 3 35.0306 58.2500 110.3383 0.0000 4.1785 0.0000
# 4 0.0000 0.0000 0.0000 30.1151 0.0000 -27.0037
# 5 -8.5707 -5.7850 4.1785 0.0000 31.1055 0.0000
# 6 0.0000 0.0000 0.0000 -27.0037 0.0000 1.7699
#
#
#
# Elastic Compliance Matrix: (Units=1/GPa)
#
#
# Indices 1 2 3 4 5 6 
#
# 1 0.011128 -0.004273 -0.001370 0.000000 0.002455 0.000000
# 2 -0.004273 0.014912 -0.006610 0.000000 0.002484 0.000000
# 3 -0.001370 -0.006610 0.013115 0.000000 -0.003369 0.000000
# 4 0.000000 0.000000 0.000000 -0.002619 0.000000 -0.039952
# 5 0.002455 0.002484 -0.003369 0.000000 0.033740 0.000000
# 6 0.000000 0.000000 0.000000 -0.039952 0.000000 -0.044556
#
#
# Mechanical properties :
#
#
# Convention : Reuss Voigt Hill
#
# Bulk Modulus (GPa) = 68.26400 68.92195 68.59298
# Shear Modulus (GPa) = 90.72874 25.29817 58.01346
#
# Velocity S-wave (km/s) = 6.53878 3.45278 5.22864
# Velocity P-wave (km/s) = 9.44335 6.95521 8.29312
#
# Compressibility (1/GPa) = 0.01464901
#
# Stress axis : x y z
#
# Youngs Moduli (GPa) = 89.86235 67.06019 76.24871
#
# Poissons Ratio (x) = 0.28657 0.10446
# Poissons Ratio (y) = 0.38401 0.50398
# Poissons Ratio (z) = 0.12311 0.44325
#
# Static dielectric constant tensor:
#      x y z
#    x 1.773900 0.000000 -0.024590 
#    y 0.000000 1.796450 0.000000 
#    z -0.024590 0.000000 1.734180 
# 
# From -- ./inp_files/194970.got.cif
#   From: 2010.05.17/outbox.cif.g08.bks.cpg/sg15_98_cif.got.tgz:194970.got - 2010.06.03 18:47:42.
