data_PCOD9296107
_publ_section_title
;
Structure prediction by ZEFSAII (Michael W. Deem and Ramdas Pophale) SiO2 
 PCOD9296107
Probable space group: C 2/C
;
_chemical_formula_sum "Si O2"
_cell_formula_units_Z 32
_cell_length_a 27.294502
_cell_length_b 11.863763
_cell_length_c 14.712922
_cell_angle_alpha 90.000000
_cell_angle_beta 163.286513
_cell_angle_gamma 90.000000
_cell_volume 1370.137882
_symmetry_space_group_name_H-M "C 2/C"
_symmetry_group_IT_number 15
_symmetry_cell_setting 'monoclinic'
loop_
_space_group_symop_operation_xyz
x,y,z
-x,y,1/2-z
-x,-y,-z
x,-y,1/2+z
1/2+x,1/2+y,z
1/2-x,1/2+y,1/2-z
1/2-x,1/2-y,-z
1/2+x,1/2-y,1/2+z
loop_
_atom_site_type_symbol
_atom_site_label
_atom_site_fract_x
_atom_site_fract_y
_atom_site_fract_z
Si Si1 0.510499 0.867044 0.022517
Si Si2 0.866877 0.158287 0.826866
Si Si3 0.847760 0.254223 0.405141
Si Si4 0.218641 0.084648 0.359134
O O1 0.597028 0.825151 0.084377
O O2 0.625797 0.851799 0.317568
O O3 0.352418 0.783368 0.757546
O O4 0.500000 0.000000 0.000000
O O5 0.811899 0.185058 0.831446
O O6 0.756846 0.050284 0.599992
O O7 0.054365 0.115469 0.129729
O O8 0.810407 0.132425 0.293819
O O9 0.000000 0.249834 0.750000
#
# Coordination Sequence:
#
# PCOD9296107 Si02
#       4
#     8   8   8   8
#     4  11  25  44  69  97 137 176 226 280 341 408
#     4  10  23  44  67  96 138 170 227 278 339 404
#     4  11  24  42  66  99 130 176 228 274 341 407
#     4  10  24  45  65 100 133 180 224 280 348 400
#
# _framework density 23.355314
#
# number of rings (size 3 to 8) (size 9 to 14) (size 15 to 20)
#    0.000    1.500    0.000    4.500    3.500   15.000 
#    4.500    0.000    0.000    0.000    0.000    0.000 
#    0.000    0.000    0.000    0.000    0.000    0.000 
#
# Total GULP energy -89260.635006 kJ/mol
# GULP energy per Si atom -5578.789688 kJ/mol
# Density = 2.330216 g / cm^3
# Si number density = 23.355314 Si / 1000 Ang^3
#
#
#
# Elastic Constant Matrix: (Units=GPa)
#
#
# Indices 1 2 3 4 5 6 
#
# 1 140.9893 49.8305 15.2487 0.0000 2.3748 0.0000
# 2 49.8305 204.2562 10.6250 0.0000 -11.4130 0.0000
# 3 15.2487 10.6250 60.7850 0.0000 -30.7136 0.0000
# 4 0.0000 0.0000 0.0000 30.7861 0.0000 -7.1903
# 5 2.3748 -11.4130 -30.7136 0.0000 40.8003 0.0000
# 6 0.0000 0.0000 0.0000 -7.1903 0.0000 24.8914
#
#
#
# Elastic Compliance Matrix: (Units=1/GPa)
#
#
# Indices 1 2 3 4 5 6 
#
# 1 0.008270 -0.002040 -0.003631 0.000000 -0.003785 0.000000
# 2 -0.002040 0.005480 0.000627 0.000000 0.002124 0.000000
# 3 -0.003631 0.000627 0.028159 0.000000 0.021584 0.000000
# 4 0.000000 0.000000 0.000000 0.034832 0.000000 0.010062
# 5 -0.003785 0.002124 0.021584 0.000000 0.041572 0.000000
# 6 0.000000 0.000000 0.000000 0.010062 0.000000 0.043081
#
#
# Mechanical properties :
#
#
# Convention : Reuss Voigt Hill
#
# Bulk Modulus (GPa) = 31.42614 61.93765 46.68190
# Shear Modulus (GPa) = 27.45918 41.31731 34.38825
#
# Velocity S-wave (km/s) = 3.43259 4.21060 3.84134
# Velocity P-wave (km/s) = 5.40325 7.08634 6.30124
#
# Compressibility (1/GPa) = 0.03182064
#
# Stress axis : x y z
#
# Youngs Moduli (GPa) = 120.91501 182.49526 35.51311
#
# Poissons Ratio (x) = 0.37234 0.12894
# Poissons Ratio (y) = 0.24670 -0.02227
# Poissons Ratio (z) = 0.43900 -0.11443
#
# Static dielectric constant tensor:
#      x y z
#    x 1.854380 0.000000 -0.037380 
#    y 0.000000 1.947450 0.000000 
#    z -0.037380 0.000000 1.981780 
# 
# From -- ./inp_files/132050.got.cif
#   From: 2010.05.17/outbox.cif.g08.bks.cpg/sg15_67_cif.got.tgz:132050.got - 2010.06.03 18:47:42.
