data_PCOD9296512
_publ_section_title
;
Structure prediction by ZEFSAII (Michael W. Deem and Ramdas Pophale) SiO2 
 PCOD9296512
Probable space group: C 2/C
;
_chemical_formula_sum "Si O2"
_cell_formula_units_Z 64
_cell_length_a 13.883869
_cell_length_b 13.955086
_cell_length_c 18.154745
_cell_angle_alpha 90.000000
_cell_angle_beta 125.135534
_cell_angle_gamma 90.000000
_cell_volume 2876.580554
_symmetry_space_group_name_H-M "C 2/C"
_symmetry_group_IT_number 15
_symmetry_cell_setting 'monoclinic'
loop_
_space_group_symop_operation_xyz
x,y,z
-x,y,1/2-z
-x,-y,-z
x,-y,1/2+z
1/2+x,1/2+y,z
1/2-x,1/2+y,1/2-z
1/2-x,1/2-y,-z
1/2+x,1/2-y,1/2+z
loop_
_atom_site_type_symbol
_atom_site_label
_atom_site_fract_x
_atom_site_fract_y
_atom_site_fract_z
Si Si1 0.257244 0.361016 0.026646
Si Si2 0.014305 0.584039 0.446466
Si Si3 0.023982 0.759169 0.971604
Si Si4 0.855963 0.070725 0.427844
Si Si5 0.762155 0.600368 0.262643
Si Si6 0.871473 0.085997 0.729347
Si Si7 0.813026 0.139629 0.858874
Si Si8 0.411674 0.773213 0.274283
O O1 0.349209 0.409257 0.010963
O O2 0.137810 0.421344 0.959319
O O3 0.250000 0.250000 0.000000
O O4 0.294242 0.372634 0.127989
O O5 0.030651 0.685413 0.494997
O O6 0.894931 0.592184 0.348349
O O7 0.000000 0.500000 0.500000
O O8 0.955021 0.859279 0.939350
O O9 0.996552 0.711867 0.881395
O O10 0.150469 0.783830 0.062227
O O11 0.743796 0.101063 0.328715
O O12 0.863835 0.960184 0.411376
O O13 0.689936 0.510854 0.266698
O O14 0.688373 0.693364 0.255075
O O15 0.870324 0.152567 0.802426
O O16 0.000000 0.070715 0.750000
O O17 0.672260 0.138106 0.784593
O O18 0.500000 0.742585 0.250000
#
# Coordination Sequence:
#
# PCOD9296512 Si02
#       8
#     8   8   8   8   8   8   8   8
#     4  12  25  42  68 106 141 183 247 299 359 440
#     4  12  24  43  70  97 143 192 230 297 370 430
#     4  11  23  44  72  96 143 181 239 298 359 417
#     4  10  24  43  67 103 140 183 235 300 352 427
#     4  10  23  45  66  96 138 188 237 293 365 425
#     4  11  24  43  71 100 139 184 241 295 361 431
#     4  11  24  45  69 104 141 191 234 294 366 421
#     4  11  25  43  68  99 138 185 242 299 353 430
#
# _framework density 22.248638
#
# number of rings (size 3 to 8) (size 9 to 14) (size 15 to 20)
#    0.000    1.000    3.750    2.250    3.500    5.000 
#    0.000    0.000    0.000    0.000    0.000    0.000 
#    0.000    0.000    0.000    0.000    0.000    0.000 
#
# Total GULP energy -178525.724992 kJ/mol
# GULP energy per Si atom -5578.928906 kJ/mol
# Density = 2.219800 g / cm^3
# Si number density = 22.248638 Si / 1000 Ang^3
#
#
#
# Elastic Constant Matrix: (Units=GPa)
#
#
# Indices 1 2 3 4 5 6 
#
# 1 52.6580 -5.5591 19.2042 0.0000 16.6850 0.0000
# 2 -5.5591 61.9157 13.9680 0.0000 1.5695 0.0000
# 3 19.2042 13.9680 155.4430 0.0000 7.5962 0.0000
# 4 0.0000 0.0000 0.0000 28.1391 0.0000 -0.5945
# 5 16.6850 1.5695 7.5962 0.0000 26.9907 0.0000
# 6 0.0000 0.0000 0.0000 -0.5945 0.0000 24.3195
#
#
#
# Elastic Compliance Matrix: (Units=1/GPa)
#
#
# Indices 1 2 3 4 5 6 
#
# 1 0.025022 0.003223 -0.002652 0.000000 -0.014909 0.000000
# 2 0.003223 0.016908 -0.001797 0.000000 -0.002470 0.000000
# 3 -0.002652 -0.001797 0.006932 0.000000 -0.000207 0.000000
# 4 0.000000 0.000000 0.000000 0.035556 0.000000 0.000869
# 5 -0.014909 -0.002470 -0.000207 0.000000 0.046468 0.000000
# 6 0.000000 0.000000 0.000000 0.000869 0.000000 0.041141
#
#
# Mechanical properties :
#
#
# Convention : Reuss Voigt Hill
#
# Bulk Modulus (GPa) = 21.54703 36.13811 28.84257
# Shear Modulus (GPa) = 26.32268 32.05007 29.18637
#
# Velocity S-wave (km/s) = 3.44337 3.79956 3.62585
# Velocity P-wave (km/s) = 5.05122 5.96045 5.52457
#
# Compressibility (1/GPa) = 0.04641010
#
# Stress axis : x y z
#
# Youngs Moduli (GPa) = 39.96486 59.14243 144.24822
#
# Poissons Ratio (x) = -0.19061 0.38260
# Poissons Ratio (y) = -0.12880 0.25919
# Poissons Ratio (z) = 0.10600 0.10627
#
# Static dielectric constant tensor:
#      x y z
#    x 1.853050 0.000000 0.039490 
#    y 0.000000 1.910300 0.000000 
#    z 0.039490 0.000000 1.890200 
# 
# From -- ./inp_files/205755.got.cif
#   From: 2010.05.17/outbox.cif.g08.bks.cpg/sg15_103_cif.got.tgz:205755.got - 2010.06.03 18:47:42.
