data_PCOD9296023
_publ_section_title
;
Structure prediction by ZEFSAII (Michael W. Deem and Ramdas Pophale) SiO2 
 PCOD9296023
Probable space group: C 2/C
;
_chemical_formula_sum "Si O2"
_cell_formula_units_Z 40
_cell_length_a 7.881695
_cell_length_b 23.691729
_cell_length_c 10.158673
_cell_angle_alpha 90.000000
_cell_angle_beta 92.006758
_cell_angle_gamma 90.000000
_cell_volume 1895.775599
_symmetry_space_group_name_H-M "C 2/C"
_symmetry_group_IT_number 15
_symmetry_cell_setting 'monoclinic'
loop_
_space_group_symop_operation_xyz
x,y,z
-x,y,1/2-z
-x,-y,-z
x,-y,1/2+z
1/2+x,1/2+y,z
1/2-x,1/2+y,1/2-z
1/2-x,1/2-y,-z
1/2+x,1/2-y,1/2+z
loop_
_atom_site_type_symbol
_atom_site_label
_atom_site_fract_x
_atom_site_fract_y
_atom_site_fract_z
Si Si1 0.690573 0.600953 0.720079
Si Si2 0.097395 0.181641 0.481072
Si Si3 0.057510 0.701911 0.112232
Si Si4 0.616862 0.008582 0.376220
Si Si5 0.755286 0.621207 0.021235
O O1 0.500000 0.581496 0.750000
O O2 0.670903 0.651846 0.615691
O O3 0.792422 0.549668 0.659001
O O4 0.232537 0.618491 0.637531
O O5 0.250909 0.178148 0.381717
O O6 0.058198 0.247087 0.508515
O O7 0.920499 0.151491 0.446512
O O8 0.920386 0.654624 0.074153
O O9 0.000000 0.726577 0.250000
O O10 0.500000 0.025631 0.250000
O O11 0.742849 0.058853 0.417919
O O12 0.500000 0.000000 0.500000
#
# Coordination Sequence:
#
# PCOD9296023 Si02
#       5
#     8   8   8   8   8
#     4  10  23  44  65  94 127 177 227 270 332 409
#     4  10  24  42  69  96 131 177 223 276 339 406
#     4  11  23  43  65 100 135 170 223 280 336 406
#     4  12  24  43  67  98 131 175 227 277 338 402
#     4  11  23  43  67  96 134 174 223 278 340 397
#
# _framework density 21.099544999999999
#
# number of rings (size 3 to 8) (size 9 to 14) (size 15 to 20)
#    0.000    1.200    2.000    4.200    0.000    4.000 
#    7.200    4.000    0.000    0.000    0.000    0.000 
#    0.000    0.000    0.000    0.000    0.000    0.000 
#
# Total GULP energy -111863.161922 kJ/mol
# GULP energy per Si atom -5593.158096 kJ/mol
# Density = 2.105152 g / cm^3
# Si number density = 21.099545 Si / 1000 Ang^3
#
#
#
# Elastic Constant Matrix: (Units=GPa)
#
#
# Indices 1 2 3 4 5 6 
#
# 1 82.5603 36.3724 30.5996 0.0000 -39.4801 0.0000
# 2 36.3724 73.2451 -7.4939 0.0000 -12.4268 0.0000
# 3 30.5996 -7.4939 69.5685 0.0000 -20.4706 0.0000
# 4 0.0000 0.0000 0.0000 17.3712 0.0000 -4.9025
# 5 -39.4801 -12.4268 -20.4706 0.0000 34.2892 0.0000
# 6 0.0000 0.0000 0.0000 -4.9025 0.0000 44.2296
#
#
#
# Elastic Compliance Matrix: (Units=1/GPa)
#
#
# Indices 1 2 3 4 5 6 
#
# 1 0.036442 -0.013423 -0.007958 0.000000 0.032343 0.000000
# 2 -0.013423 0.020361 0.006940 0.000000 -0.003933 0.000000
# 3 -0.007958 0.006940 0.020218 0.000000 0.005423 0.000000
# 4 0.000000 0.000000 0.000000 0.059426 0.000000 0.006587
# 5 0.032343 -0.003933 0.005423 0.000000 0.068215 0.000000
# 6 0.000000 0.000000 0.000000 0.006587 0.000000 0.023339
#
#
# Mechanical properties :
#
#
# Convention : Reuss Voigt Hill
#
# Bulk Modulus (GPa) = 20.77303 38.25890 29.51596
# Shear Modulus (GPa) = 18.31974 30.23771 24.27872
#
# Velocity S-wave (km/s) = 2.94981 3.78973 3.39584
# Velocity P-wave (km/s) = 4.63341 6.10912 5.42171
#
# Compressibility (1/GPa) = 0.04813935
#
# Stress axis : x y z
#
# Youngs Moduli (GPa) = 27.44089 49.11236 49.46123
#
# Poissons Ratio (x) = 0.65925 0.39361
# Poissons Ratio (y) = 0.36835 -0.34328
# Poissons Ratio (z) = 0.21837 -0.34086
#
# Static dielectric constant tensor:
#      x y z
#    x 1.756970 0.000000 0.003240 
#    y 0.000000 1.728250 0.000000 
#    z 0.003240 0.000000 1.769650 
# 
# From -- ./inp_files/73044.got.cif
#   From: 2010.05.17/outbox.cif.g08.bks.cpg/sg15_37_cif.got.tgz:73044.got - 2010.06.03 18:47:42.
