data_PCOD9296230
_publ_section_title
;
Structure prediction by ZEFSAII (Michael W. Deem and Ramdas Pophale) SiO2 
 PCOD9296230
Probable space group: C 2/C
;
_chemical_formula_sum "Si O2"
_cell_formula_units_Z 40
_cell_length_a 20.760126
_cell_length_b 11.462988
_cell_length_c 7.795670
_cell_angle_alpha 90.000000
_cell_angle_beta 50.075050
_cell_angle_gamma 90.000000
_cell_volume 1422.695440
_symmetry_space_group_name_H-M "C 2/C"
_symmetry_group_IT_number 15
_symmetry_cell_setting 'monoclinic'
loop_
_space_group_symop_operation_xyz
x,y,z
-x,y,1/2-z
-x,-y,-z
x,-y,1/2+z
1/2+x,1/2+y,z
1/2-x,1/2+y,1/2-z
1/2-x,1/2-y,-z
1/2+x,1/2-y,1/2+z
loop_
_atom_site_type_symbol
_atom_site_label
_atom_site_fract_x
_atom_site_fract_y
_atom_site_fract_z
Si Si1 0.602072 0.866747 0.755248
Si Si2 0.780511 0.290858 0.666196
Si Si3 0.361779 0.129235 0.697153
Si Si4 0.880691 0.054262 0.036369
Si Si5 0.462433 0.350474 0.049345
O O1 0.680951 0.803240 0.711711
O O2 0.594856 0.854811 0.563682
O O3 0.530405 0.788917 0.967395
O O4 0.612817 0.998446 0.795250
O O5 0.731702 0.171110 0.710776
O O6 0.851763 0.310986 0.401391
O O7 0.711881 0.397453 0.767125
O O8 0.910166 0.919274 0.994499
O O9 0.909646 0.112418 0.809545
O O10 0.944889 0.105114 0.067987
#
# Coordination Sequence:
#
# PCOD9296230 Si02
#       5
#     8   8   8   8   8
#     4  12  24  44  69 105 145 184 233 298 350 417
#     4  11  25  41  70  99 144 184 237 289 347 420
#     4  11  25  41  64 108 140 183 233 286 355 414
#     4  10  23  44  69  99 133 186 231 288 358 416
#     4  10  24  44  70  97 141 181 234 294 352 419
#
# _framework density 28.115645000000001
#
# number of rings (size 3 to 8) (size 9 to 14) (size 15 to 20)
#    0.000    1.200    4.000    0.600    5.600    1.600 
#    0.000    1.000    0.000    0.000    0.000    0.000 
#    0.000    0.000    0.000    0.000    0.000    0.000 
#
# Total GULP energy -111712.306920 kJ/mol
# GULP energy per Si atom -5585.615346 kJ/mol
# Density = 2.805165 g / cm^3
# Si number density = 28.115645 Si / 1000 Ang^3
#
#
#
# Elastic Constant Matrix: (Units=GPa)
#
#
# Indices 1 2 3 4 5 6 
#
# 1 130.2557 37.9500 55.6614 0.0000 27.0339 0.0000
# 2 37.9500 173.9611 36.4663 0.0000 7.7608 0.0000
# 3 55.6614 36.4663 174.9500 0.0000 13.7147 0.0000
# 4 0.0000 0.0000 0.0000 31.9085 0.0000 -0.9506
# 5 27.0339 7.7608 13.7147 0.0000 37.9292 0.0000
# 6 0.0000 0.0000 0.0000 -0.9506 0.0000 46.7521
#
#
#
# Elastic Compliance Matrix: (Units=1/GPa)
#
#
# Indices 1 2 3 4 5 6 
#
# 1 0.010491 -0.001477 -0.002539 0.000000 -0.006257 0.000000
# 2 -0.001477 0.006243 -0.000837 0.000000 0.000078 0.000000
# 3 -0.002539 -0.000837 0.006734 0.000000 -0.000454 0.000000
# 4 0.000000 0.000000 0.000000 0.031359 0.000000 0.000638
# 5 -0.006257 0.000078 -0.000454 0.000000 0.030973 0.000000
# 6 0.000000 0.000000 0.000000 0.000638 0.000000 0.021402
#
#
# Mechanical properties :
#
#
# Convention : Reuss Voigt Hill
#
# Bulk Modulus (GPa) = 72.67484 82.14691 77.41088
# Shear Modulus (GPa) = 41.15340 46.59056 43.87198
#
# Velocity S-wave (km/s) = 3.83001 4.07517 3.95449
# Velocity P-wave (km/s) = 6.74265 7.17103 6.96013
#
# Compressibility (1/GPa) = 0.01375992
#
# Stress axis : x y z
#
# Youngs Moduli (GPa) = 95.31579 160.18678 148.50083
#
# Poissons Ratio (x) = 0.23664 0.37712
# Poissons Ratio (y) = 0.14080 0.12435
# Poissons Ratio (z) = 0.24205 0.13414
#
# Static dielectric constant tensor:
#      x y z
#    x 2.301740 0.000000 -0.146800 
#    y 0.000000 2.332560 0.000000 
#    z -0.146800 0.000000 2.238770 
# 
# From -- ./inp_files/60460.got.cif
#   From: 2010.05.17/outbox.cif.g08.bks.cpg/sg15_31_cif.got.tgz:60460.got - 2010.06.03 18:47:42.
