data_PCOD9296906
_publ_section_title
;
Structure prediction by ZEFSAII (Michael W. Deem and Ramdas Pophale) SiO2 
 PCOD9296906
Probable space group: C 2/C
;
_chemical_formula_sum "Si O2"
_cell_formula_units_Z 32
_cell_length_a 9.828439
_cell_length_b 14.539407
_cell_length_c 11.587643
_cell_angle_alpha 90.000000
_cell_angle_beta 122.539061
_cell_angle_gamma 90.000000
_cell_volume 1395.940074
_symmetry_space_group_name_H-M "C 2/C"
_symmetry_group_IT_number 15
_symmetry_cell_setting 'monoclinic'
loop_
_space_group_symop_operation_xyz
x,y,z
-x,y,1/2-z
-x,-y,-z
x,-y,1/2+z
1/2+x,1/2+y,z
1/2-x,1/2+y,1/2-z
1/2-x,1/2-y,-z
1/2+x,1/2-y,1/2+z
loop_
_atom_site_type_symbol
_atom_site_label
_atom_site_fract_x
_atom_site_fract_y
_atom_site_fract_z
Si Si1 0.738252 0.802882 0.646769
Si Si2 0.187295 0.403106 0.848719
Si Si3 0.769824 0.888913 0.411951
Si Si4 0.959849 0.814223 0.096035
O O1 0.770606 0.868574 0.768551
O O2 0.782643 0.852836 0.548948
O O3 0.814325 0.700098 0.688002
O O4 0.548501 0.771130 0.570450
O O5 0.195139 0.511223 0.874649
O O6 0.000000 0.381554 0.750000
O O7 0.277396 0.342893 0.986509
O O8 0.937108 0.895713 0.418137
O O9 0.000000 0.811584 0.250000
#
# Coordination Sequence:
#
# PCOD9296906 Si02
#       4
#     8   8   8   8
#     4   9  23  45  69 102 138 182 229 286 349 408
#     4  12  26  42  74 105 138 185 232 291 342 412
#     4   9  23  48  67 103 138 186 228 288 342 417
#     4  10  23  46  72 100 141 182 231 282 351 409
#
# _framework density 22.923618000000001
#
# number of rings (size 3 to 8) (size 9 to 14) (size 15 to 20)
#    1.500    0.500    0.000    1.500    3.500    8.000 
#    0.000    0.000    0.000    0.000    0.000    0.000 
#    0.000    0.000    0.000    0.000    0.000    0.000 
#
# Total GULP energy -89087.499902 kJ/mol
# GULP energy per Si atom -5567.968744 kJ/mol
# Density = 2.287144 g / cm^3
# Si number density = 22.923618 Si / 1000 Ang^3
#
#
#
# Elastic Constant Matrix: (Units=GPa)
#
#
# Indices 1 2 3 4 5 6 
#
# 1 104.1076 35.5024 53.0126 0.0000 -2.2123 0.0000
# 2 35.5024 187.0834 63.2306 0.0000 -11.4732 0.0000
# 3 53.0126 63.2306 109.8120 0.0000 -11.6771 0.0000
# 4 0.0000 0.0000 0.0000 20.6644 0.0000 -16.1873
# 5 -2.2123 -11.4732 -11.6771 0.0000 47.9284 0.0000
# 6 0.0000 0.0000 0.0000 -16.1873 0.0000 -15.9591
#
#
#
# Elastic Compliance Matrix: (Units=1/GPa)
#
#
# Indices 1 2 3 4 5 6 
#
# 1 0.012808 -0.000454 -0.006027 0.000000 -0.000986 0.000000
# 2 -0.000454 0.006674 -0.003548 0.000000 0.000712 0.000000
# 3 -0.006027 -0.003548 0.014310 0.000000 0.002359 0.000000
# 4 0.000000 0.000000 0.000000 0.026966 0.000000 -0.027352
# 5 -0.000986 0.000712 0.002359 0.000000 0.021564 0.000000
# 6 0.000000 0.000000 0.000000 -0.027352 0.000000 -0.034917
#
#
# Mechanical properties :
#
#
# Convention : Reuss Voigt Hill
#
# Bulk Modulus (GPa) = 72.80948 78.27713 75.54331
# Shear Modulus (GPa) = 69.40452 27.14391 48.27422
#
# Velocity S-wave (km/s) = 5.50837 3.44481 4.59396
# Velocity P-wave (km/s) = 8.50217 7.07413 7.82082
#
# Compressibility (1/GPa) = 0.01373448
#
# Stress axis : x y z
#
# Youngs Moduli (GPa) = 78.07527 149.82914 69.88270
#
# Poissons Ratio (x) = 0.06805 0.42115
# Poissons Ratio (y) = 0.03546 0.24795
# Poissons Ratio (z) = 0.47052 0.53161
#
# Static dielectric constant tensor:
#      x y z
#    x 1.968390 0.000000 0.071700 
#    y 0.000000 1.842850 0.000000 
#    z 0.071700 0.000000 1.874320 
# 
# From -- ./inp_files/85888.got.cif
#   From: 2010.05.17/outbox.cif.g08.bks.cpg/sg15_43_cif.got.tgz:85888.got - 2010.06.03 18:47:42.
