data_PCOD9296221
_publ_section_title
;
Structure prediction by ZEFSAII (Michael W. Deem and Ramdas Pophale) SiO2 
 PCOD9296221
Probable space group: C 2/C
;
_chemical_formula_sum "Si O2"
_cell_formula_units_Z 56
_cell_length_a 11.392070
_cell_length_b 8.868469
_cell_length_c 28.964077
_cell_angle_alpha 90.000000
_cell_angle_beta 113.808092
_cell_angle_gamma 90.000000
_cell_volume 2677.231235
_symmetry_space_group_name_H-M "C 2/C"
_symmetry_group_IT_number 15
_symmetry_cell_setting 'monoclinic'
loop_
_space_group_symop_operation_xyz
x,y,z
-x,y,1/2-z
-x,-y,-z
x,-y,1/2+z
1/2+x,1/2+y,z
1/2-x,1/2+y,1/2-z
1/2-x,1/2-y,-z
1/2+x,1/2-y,1/2+z
loop_
_atom_site_type_symbol
_atom_site_label
_atom_site_fract_x
_atom_site_fract_y
_atom_site_fract_z
Si Si1 0.713201 0.889678 0.065535
Si Si2 0.934713 0.498936 0.883094
Si Si3 0.105512 0.145528 0.729487
Si Si4 0.617906 0.447140 0.550171
Si Si5 0.988282 0.149364 0.889484
Si Si6 0.390641 0.001884 0.769091
Si Si7 0.830859 0.398763 0.025040
O O1 0.699251 0.953566 0.115089
O O2 0.642967 0.729746 0.052212
O O3 0.861847 0.872507 0.076761
O O4 0.655044 0.005892 0.019513
O O5 0.942127 0.519691 0.829650
O O6 0.955925 0.322233 0.897479
O O7 0.035681 0.603218 0.926588
O O8 0.247698 0.073263 0.747529
O O9 0.125392 0.323344 0.743074
O O10 0.000000 0.086976 0.750000
O O11 0.041073 0.133387 0.669050
O O12 0.500000 0.500000 0.500000
O O13 0.591061 0.524663 0.594932
O O14 0.743693 0.514185 0.547520
O O15 0.500000 0.057995 0.750000
O O16 0.750000 0.250000 0.000000
#
# Coordination Sequence:
#
# PCOD9296221 Si02
#       7
#     8   8   8   8   8   8   8
#     4  12  24  44  65  95 136 172 224 275 322 396
#     4  11  24  43  66  95 137 172 217 277 332 392
#     4  10  23  44  69  98 135 171 225 280 339 404
#     4  12  23  40  66  96 131 176 221 265 327 392
#     4  11  24  42  67  97 130 178 221 273 336 397
#     4  10  24  45  68 100 133 173 222 281 340 399
#     4  12  24  42  65  97 136 176 219 270 330 401
#
# _framework density 20.917133
#
# number of rings (size 3 to 8) (size 9 to 14) (size 15 to 20)
#    0.000    0.857    2.857    4.286    2.000    2.857 
#    0.000    0.000    0.000    0.000    0.000    0.000 
#    0.000    0.000    0.000    0.000    0.000    0.000 
#
# Total GULP energy -156398.218711 kJ/mol
# GULP energy per Si atom -5585.650668 kJ/mol
# Density = 2.086952 g / cm^3
# Si number density = 20.917133 Si / 1000 Ang^3
#
#
#
# Elastic Constant Matrix: (Units=GPa)
#
#
# Indices 1 2 3 4 5 6 
#
# 1 134.7407 49.4538 38.2677 0.0000 -22.5247 0.0000
# 2 49.4538 87.8502 42.4906 0.0000 -12.0086 0.0000
# 3 38.2677 42.4906 70.6560 0.0000 -9.8243 0.0000
# 4 0.0000 0.0000 0.0000 23.7130 0.0000 -1.3754
# 5 -22.5247 -12.0086 -9.8243 0.0000 44.0708 0.0000
# 6 0.0000 0.0000 0.0000 -1.3754 0.0000 39.2320
#
#
#
# Elastic Compliance Matrix: (Units=1/GPa)
#
#
# Indices 1 2 3 4 5 6 
#
# 1 0.010233 -0.003995 -0.002646 0.000000 0.003552 0.000000
# 2 -0.003995 0.017840 -0.008434 0.000000 0.000939 0.000000
# 3 -0.002646 -0.008434 0.020795 0.000000 0.000985 0.000000
# 4 0.000000 0.000000 0.000000 0.042257 0.000000 0.001481
# 5 0.003552 0.000939 0.000985 0.000000 0.024982 0.000000
# 6 0.000000 0.000000 0.000000 0.001481 0.000000 0.025541
#
#
# Mechanical properties :
#
#
# Convention : Reuss Voigt Hill
#
# Bulk Modulus (GPa) = 53.42510 61.51899 57.47205
# Shear Modulus (GPa) = 28.08404 32.27215 30.17810
#
# Velocity S-wave (km/s) = 3.66817 3.93218 3.80247
# Velocity P-wave (km/s) = 6.59829 7.07748 6.84208
#
# Compressibility (1/GPa) = 0.01871779
#
# Stress axis : x y z
#
# Youngs Moduli (GPa) = 97.72013 56.05474 48.08875
#
# Poissons Ratio (x) = 0.22397 0.12723
# Poissons Ratio (y) = 0.39044 0.40557
# Poissons Ratio (z) = 0.25855 0.47275
#
# Static dielectric constant tensor:
#      x y z
#    x 1.991860 0.000000 0.063670 
#    y 0.000000 1.767810 0.000000 
#    z 0.063670 0.000000 1.762560 
# 
# From -- ./inp_files/291641.got.cif
#   From: 2010.05.17/outbox.cif.g08.bks.cpg/sg15_146_cif.got.tgz:291641.got - 2010.06.03 18:47:42.
