data_PCOD9296319
_publ_section_title
;
Structure prediction by ZEFSAII (Michael W. Deem and Ramdas Pophale) SiO2 
 PCOD9296319
Probable space group: C 2/C
;
_chemical_formula_sum "Si O2"
_cell_formula_units_Z 32
_cell_length_a 9.522593
_cell_length_b 28.761663
_cell_length_c 5.246835
_cell_angle_alpha 90.000000
_cell_angle_beta 65.035556
_cell_angle_gamma 90.000000
_cell_volume 1302.770474
_symmetry_space_group_name_H-M "C 2/C"
_symmetry_group_IT_number 15
_symmetry_cell_setting 'monoclinic'
loop_
_space_group_symop_operation_xyz
x,y,z
-x,y,1/2-z
-x,-y,-z
x,-y,1/2+z
1/2+x,1/2+y,z
1/2-x,1/2+y,1/2-z
1/2-x,1/2-y,-z
1/2+x,1/2-y,1/2+z
loop_
_atom_site_type_symbol
_atom_site_label
_atom_site_fract_x
_atom_site_fract_y
_atom_site_fract_z
Si Si1 0.664610 0.029429 0.446086
Si Si2 0.000000 0.934977 0.750000
Si Si3 0.254904 0.183925 0.683734
Si Si4 0.500000 0.883944 0.250000
Si Si5 0.000000 0.122918 0.750000
Si Si6 0.000000 0.753083 0.250000
O O1 0.848373 0.037260 0.292150
O O2 0.578620 0.079360 0.492219
O O3 0.634850 0.993057 0.245401
O O4 0.041582 0.905203 0.469280
O O5 0.359186 0.149243 0.770476
O O6 0.378593 0.219783 0.479947
O O7 0.156908 0.151539 0.564860
O O8 0.104770 0.216305 0.868481
#
# Coordination Sequence:
#
# PCOD9296319 Si02
#       6
#     8   4   8   4   4   4
#     4  12  27  48  73 108 150 194 249 309 369 434
#     4  12  24  47  74 106 142 196 248 304 364 437
#     4  10  23  44  71 108 148 198 242 306 368 445
#     4  12  26  44  72 108 147 201 243 307 370 446
#     4  11  24  45  74 108 143 193 254 292 360 447
#     4   9  22  44  72 104 156 190 249 305 370 436
#
# _framework density 24.563037999999999
#
# number of rings (size 3 to 8) (size 9 to 14) (size 15 to 20)
#    0.000    1.000    2.500    3.000    3.500    1.000 
#    0.000    8.750    0.000    0.000    0.000    0.000 
#    0.000    0.000    0.000    0.000    0.000    0.000 
#
# Total GULP energy -89263.668140 kJ/mol
# GULP energy per Si atom -5578.979259 kJ/mol
# Density = 2.450713 g / cm^3
# Si number density = 24.563038 Si / 1000 Ang^3
#
#
#
# Elastic Constant Matrix: (Units=GPa)
#
#
# Indices 1 2 3 4 5 6 
#
# 1 209.2550 95.4988 31.9453 0.0000 -15.3625 0.0000
# 2 95.4988 144.8511 38.5668 0.0000 -0.2916 0.0000
# 3 31.9453 38.5668 67.3788 0.0000 -9.8272 0.0000
# 4 0.0000 0.0000 0.0000 8.6797 0.0000 3.7577
# 5 -15.3625 -0.2916 -9.8272 0.0000 30.1654 0.0000
# 6 0.0000 0.0000 0.0000 3.7577 0.0000 82.7353
#
#
#
# Elastic Compliance Matrix: (Units=1/GPa)
#
#
# Indices 1 2 3 4 5 6 
#
# 1 0.007214 -0.004692 -0.000216 0.000000 0.003558 0.000000
# 2 -0.004692 0.011262 -0.004782 0.000000 -0.003838 0.000000
# 3 -0.000216 -0.004782 0.018539 0.000000 0.005883 0.000000
# 4 0.000000 0.000000 0.000000 0.117522 0.000000 -0.005338
# 5 0.003558 -0.003838 0.005883 0.000000 0.036842 0.000000
# 6 0.000000 0.000000 0.000000 -0.005338 0.000000 0.012329
#
#
# Mechanical properties :
#
#
# Convention : Reuss Voigt Hill
#
# Bulk Modulus (GPa) = 56.70008 83.72298 70.21153
# Shear Modulus (GPa) = 21.83725 41.34767 31.59246
#
# Velocity S-wave (km/s) = 2.98489 4.10729 3.59022
# Velocity P-wave (km/s) = 5.91718 7.52676 6.76997
#
# Compressibility (1/GPa) = 0.01763666
#
# Stress axis : x y z
#
# Youngs Moduli (GPa) = 138.61594 88.79286 53.94041
#
# Poissons Ratio (x) = 0.41658 0.01165
# Poissons Ratio (y) = 0.65033 0.25793
# Poissons Ratio (z) = 0.02994 0.42459
#
# Static dielectric constant tensor:
#      x y z
#    x 2.030830 0.000000 -0.048720 
#    y 0.000000 2.021740 0.000000 
#    z -0.048720 0.000000 1.890230 
# 
# From -- ./inp_files/2624.got.cif
#   From: 2010.05.17/outbox.cif.g08.bks.cpg/sg15_2_cif.got.tgz:2624.got - 2010.06.03 18:47:42.
