data_PCOD9296411
_publ_section_title
;
Structure prediction by ZEFSAII (Michael W. Deem and Ramdas Pophale) SiO2 
 PCOD9296411
Probable space group: C 2/C
;
_chemical_formula_sum "Si O2"
_cell_formula_units_Z 56
_cell_length_a 19.422745
_cell_length_b 22.926310
_cell_length_c 5.446395
_cell_angle_alpha 90.000000
_cell_angle_beta 74.349002
_cell_angle_gamma 90.000000
_cell_volume 2335.314550
_symmetry_space_group_name_H-M "C 2/C"
_symmetry_group_IT_number 15
_symmetry_cell_setting 'monoclinic'
loop_
_space_group_symop_operation_xyz
x,y,z
-x,y,1/2-z
-x,-y,-z
x,-y,1/2+z
1/2+x,1/2+y,z
1/2-x,1/2+y,1/2-z
1/2-x,1/2-y,-z
1/2+x,1/2-y,1/2+z
loop_
_atom_site_type_symbol
_atom_site_label
_atom_site_fract_x
_atom_site_fract_y
_atom_site_fract_z
Si Si1 0.238626 0.119151 0.115347
Si Si2 0.382841 0.535701 0.081265
Si Si3 0.000000 0.895257 0.750000
Si Si4 0.000000 0.614207 0.750000
Si Si5 0.888266 0.803861 0.960278
Si Si6 0.449534 0.783623 0.000140
Si Si7 0.682708 0.789622 0.634175
Si Si8 0.357524 0.962242 0.311614
O O1 0.184162 0.078776 0.319066
O O2 0.187024 0.166113 0.036396
O O3 0.291132 0.156404 0.234448
O O4 0.287421 0.078416 0.899749
O O5 0.379140 0.488843 0.309314
O O6 0.455261 0.568749 0.092038
O O7 0.942173 0.856646 0.952330
O O8 0.999168 0.661842 0.533000
O O9 0.930064 0.574968 0.783820
O O10 0.926586 0.766700 0.710218
O O11 0.867653 0.756133 0.177728
O O12 0.500000 0.754568 0.750000
O O13 0.371423 0.810823 0.021354
O O14 0.750000 0.750000 0.500000
O O15 0.356477 0.005918 0.548522
#
# Coordination Sequence:
#
# PCOD9296411 Si02
#       8
#     8   8   4   4   8   8   8   8
#     4  11  25  46  75 107 147 202 246 313 388 446
#     4  11  25  49  72 108 147 194 261 318 371 444
#     4  10  23  44  74 100 146 200 245 312 388 434
#     4  12  29  48  76 106 148 196 255 316 404 444
#     4  11  24  47  66 115 151 192 250 305 376 480
#     4  12  25  46  75 107 156 195 248 310 385 470
#     4  12  26  44  75 111 154 200 246 305 379 468
#     4  12  29  51  78 109 149 197 265 325 381 452
#
# _framework density 23.97964
#
# number of rings (size 3 to 8) (size 9 to 14) (size 15 to 20)
#    0.000    0.571    1.429    6.000    6.000    2.286 
#    7.714    0.000    0.000    0.000    0.000    0.000 
#    0.000    0.000    0.000    0.000    0.000    0.000 
#
# Total GULP energy -156644.210205 kJ/mol
# GULP energy per Si atom -5594.436079 kJ/mol
# Density = 2.392506 g / cm^3
# Si number density = 23.979640 Si / 1000 Ang^3
#
#
#
# Elastic Constant Matrix: (Units=GPa)
#
#
# Indices 1 2 3 4 5 6 
#
# 1 122.1063 27.4608 5.5707 0.0000 -12.0961 0.0000
# 2 27.4608 92.2622 16.6399 0.0000 -5.8799 0.0000
# 3 5.5707 16.6399 61.8305 0.0000 -21.6247 0.0000
# 4 0.0000 0.0000 0.0000 -16.5164 0.0000 -81.4699
# 5 -12.0961 -5.8799 -21.6247 0.0000 26.4071 0.0000
# 6 0.0000 0.0000 0.0000 -81.4699 0.0000 -139.8656
#
#
#
# Elastic Compliance Matrix: (Units=1/GPa)
#
#
# Indices 1 2 3 4 5 6 
#
# 1 0.009218 -0.002723 0.001635 0.000000 0.004955 0.000000
# 2 -0.002723 0.012196 -0.003536 0.000000 -0.001427 0.000000
# 3 0.001635 -0.003536 0.023773 0.000000 0.019429 0.000000
# 4 0.000000 0.000000 0.000000 0.032322 0.000000 -0.018827
# 5 0.004955 -0.001427 0.019429 0.000000 0.055731 0.000000
# 6 0.000000 0.000000 0.000000 -0.018827 0.000000 0.003817
#
#
# Mechanical properties :
#
#
# Convention : Reuss Voigt Hill
#
# Bulk Modulus (GPa) = 27.82428 41.72687 34.77558
# Shear Modulus (GPa) = 31.58883 -10.89314 10.34785
#
# Velocity S-wave (km/s) = 3.63343 -2.13366 2.07957
# Velocity P-wave (km/s) = 5.40656 3.37175 4.50553
#
# Compressibility (1/GPa) = 0.03593983
#
# Stress axis : x y z
#
# Youngs Moduli (GPa) = 108.48087 81.99492 42.06496
#
# Poissons Ratio (x) = 0.22326 -0.06879
# Poissons Ratio (y) = 0.29537 0.14874
# Poissons Ratio (z) = -0.17741 0.28994
#
# Static dielectric constant tensor:
#      x y z
#    x 1.819200 0.000000 0.074870 
#    y 0.000000 1.980790 0.000000 
#    z 0.074870 0.000000 2.018650 
# 
# From -- ./inp_files/13889.got.cif
#   From: 2010.05.17/outbox.cif.g08.bks.cpg/sg15_7_cif.got.tgz:13889.got - 2010.06.03 18:47:42.
