data_PCOD9296497
_publ_section_title
;
Structure prediction by ZEFSAII (Michael W. Deem and Ramdas Pophale) SiO2 
 PCOD9296497
Probable space group: C 2/C
;
_chemical_formula_sum "Si O2"
_cell_formula_units_Z 40
_cell_length_a 17.572704
_cell_length_b 10.384318
_cell_length_c 14.913707
_cell_angle_alpha 90.000000
_cell_angle_beta 146.152474
_cell_angle_gamma 90.000000
_cell_volume 1515.812399
_symmetry_space_group_name_H-M "C 2/C"
_symmetry_group_IT_number 15
_symmetry_cell_setting 'monoclinic'
loop_
_space_group_symop_operation_xyz
x,y,z
-x,y,1/2-z
-x,-y,-z
x,-y,1/2+z
1/2+x,1/2+y,z
1/2-x,1/2+y,1/2-z
1/2-x,1/2-y,-z
1/2+x,1/2-y,1/2+z
loop_
_atom_site_type_symbol
_atom_site_label
_atom_site_fract_x
_atom_site_fract_y
_atom_site_fract_z
Si Si1 0.209648 0.533793 0.398008
Si Si2 0.000000 0.249921 0.750000
Si Si3 0.702832 0.907495 0.210875
Si Si4 0.000000 0.675565 0.750000
Si Si5 0.025389 0.790601 0.956220
Si Si6 0.877562 0.034655 0.731391
O O1 0.129682 0.657006 0.359800
O O2 0.221555 0.523996 0.301614
O O3 0.337201 0.508864 0.588437
O O4 0.114270 0.412039 0.319504
O O5 0.978854 0.157466 0.817008
O O6 0.567941 0.821795 0.092683
O O7 0.729962 0.947601 0.135452
O O8 0.835891 0.819184 0.357420
O O9 0.934094 0.750673 0.604465
O O10 0.943502 0.922357 0.855254
#
# Coordination Sequence:
#
# PCOD9296497 Si02
#       6
#     8   4   8   4   8   8
#     4  10  23  45  66 102 140 185 231 287 351 418
#     4  11  25  42  68  98 145 185 238 278 356 413
#     4  11  26  43  73 103 144 180 237 288 351 412
#     4   9  19  42  70  94 131 179 230 296 342 409
#     4  11  23  43  67 104 136 179 237 288 349 412
#     4  12  25  40  72  97 142 190 228 294 341 422
#
# _framework density 26.388489
#
# number of rings (size 3 to 8) (size 9 to 14) (size 15 to 20)
#    0.000    1.200    0.000    5.400    5.600    3.200 
#    0.000    4.000    0.000    0.000    0.000    0.000 
#    0.000    0.000    0.000    0.000    0.000    0.000 
#
# Total GULP energy -111757.007794 kJ/mol
# GULP energy per Si atom -5587.850390 kJ/mol
# Density = 2.632843 g / cm^3
# Si number density = 26.388489 Si / 1000 Ang^3
#
#
#
# Elastic Constant Matrix: (Units=GPa)
#
#
# Indices 1 2 3 4 5 6 
#
# 1 130.8136 24.7675 -13.6564 0.0000 -16.8155 0.0000
# 2 24.7675 54.3187 -7.6615 0.0000 -7.3126 0.0000
# 3 -13.6564 -7.6615 61.1014 0.0000 -2.3115 0.0000
# 4 0.0000 0.0000 0.0000 41.1639 0.0000 7.5466
# 5 -16.8155 -7.3126 -2.3115 0.0000 35.2381 0.0000
# 6 0.0000 0.0000 0.0000 7.5466 0.0000 26.8500
#
#
#
# Elastic Compliance Matrix: (Units=1/GPa)
#
#
# Indices 1 2 3 4 5 6 
#
# 1 0.008928 -0.003333 0.001717 0.000000 0.003681 0.000000
# 2 -0.003333 0.020582 0.001942 0.000000 0.002808 0.000000
# 3 0.001717 0.001942 0.017082 0.000000 0.002343 0.000000
# 4 0.000000 0.000000 0.000000 0.025613 0.000000 -0.007199
# 5 0.003681 0.002808 0.002343 0.000000 0.030871 0.000000
# 6 0.000000 0.000000 0.000000 -0.007199 0.000000 0.039267
#
#
# Mechanical properties :
#
#
# Convention : Reuss Voigt Hill
#
# Bulk Modulus (GPa) = 21.16720 28.12589 24.64654
# Shear Modulus (GPa) = 31.75817 36.83599 34.29708
#
# Velocity S-wave (km/s) = 3.47289 3.74024 3.60904
# Velocity P-wave (km/s) = 4.91122 5.41610 5.16983
#
# Compressibility (1/GPa) = 0.04724291
#
# Stress axis : x y z
#
# Youngs Moduli (GPa) = 112.00738 48.58715 58.54090
#
# Poissons Ratio (x) = 0.16195 -0.10050
# Poissons Ratio (y) = 0.37333 -0.11369
# Poissons Ratio (z) = -0.19229 -0.09436
#
# Static dielectric constant tensor:
#      x y z
#    x 2.116600 0.000000 -0.118960 
#    y 0.000000 2.128080 0.000000 
#    z -0.118960 0.000000 2.621530 
# 
# From -- ./inp_files/160691.got.cif
#   From: 2010.05.17/outbox.cif.g08.bks.cpg/sg15_81_cif.got.tgz:160691.got - 2010.06.03 18:47:42.
