data_PCOD9296651
_publ_section_title
;
Structure prediction by ZEFSAII (Michael W. Deem and Ramdas Pophale) SiO2 
 PCOD9296651
Probable space group: C 2/C
;
_chemical_formula_sum "Si O2"
_cell_formula_units_Z 36
_cell_length_a 30.482439
_cell_length_b 11.217140
_cell_length_c 11.369279
_cell_angle_alpha 90.000000
_cell_angle_beta 20.399160
_cell_angle_gamma 90.000000
_cell_volume 1355.002867
_symmetry_space_group_name_H-M "C 2/C"
_symmetry_group_IT_number 15
_symmetry_cell_setting 'monoclinic'
loop_
_space_group_symop_operation_xyz
x,y,z
-x,y,1/2-z
-x,-y,-z
x,-y,1/2+z
1/2+x,1/2+y,z
1/2-x,1/2+y,1/2-z
1/2-x,1/2-y,-z
1/2+x,1/2-y,1/2+z
loop_
_atom_site_type_symbol
_atom_site_label
_atom_site_fract_x
_atom_site_fract_y
_atom_site_fract_z
Si Si1 0.115257 0.676063 0.378483
Si Si2 0.031557 0.085494 0.309125
Si Si3 0.128975 0.450010 0.230128
Si Si4 0.743980 0.254014 0.752087
Si Si5 0.500000 0.195479 0.250000
O O1 0.184416 0.575151 0.129456
O O2 0.218490 0.715300 0.211113
O O3 0.043646 0.787760 0.500257
O O4 0.000000 0.622620 0.750000
O O5 0.000000 0.043367 0.250000
O O6 0.176479 0.130896 0.965740
O O7 0.000000 0.000000 0.500000
O O8 0.201484 0.360738 0.964929
O O9 0.095406 0.377374 0.430188
O O10 0.000000 0.500000 0.500000
O O11 0.596231 0.256184 0.097499
#
# Coordination Sequence:
#
# PCOD9296651 Si02
#       5
#     8   8   8   8   4
#     4   9  18  41  79 103 146 197 256 316 390 461
#     4   9  19  42  76 112 160 207 266 333 401 465
#     4  12  20  45  80 109 138 198 261 311 392 462
#     4  10  23  45  71 111 155 198 257 316 401 466
#     4  12  26  44  68 110 156 200 254 322 384 486
#
# _framework density 26.568209
#
# number of rings (size 3 to 8) (size 9 to 14) (size 15 to 20)
#    0.000    2.222    5.556    0.667    0.000    0.000 
#   10.000    6.667    0.000    0.000    0.000    1.556 
#    0.000    0.000    0.000    0.000    0.000    0.000 
#
# Total GULP energy -100638.889082 kJ/mol
# GULP energy per Si atom -5591.049393 kJ/mol
# Density = 2.650774 g / cm^3
# Si number density = 26.568209 Si / 1000 Ang^3
#
#
#
# Elastic Constant Matrix: (Units=GPa)
#
#
# Indices 1 2 3 4 5 6 
#
# 1 183.5887 90.1139 57.0234 0.0000 -14.5096 0.0000
# 2 90.1139 122.3695 37.9269 0.0000 20.1134 0.0000
# 3 57.0234 37.9269 109.5903 0.0000 -20.7073 0.0000
# 4 0.0000 0.0000 0.0000 33.1450 0.0000 18.0586
# 5 -14.5096 20.1134 -20.7073 0.0000 59.3395 0.0000
# 6 0.0000 0.0000 0.0000 18.0586 0.0000 53.6283
#
#
#
# Elastic Compliance Matrix: (Units=1/GPa)
#
#
# Indices 1 2 3 4 5 6 
#
# 1 0.010077 -0.007595 -0.001780 0.000000 0.004417 0.000000
# 2 -0.007595 0.016161 -0.003241 0.000000 -0.008466 0.000000
# 3 -0.001780 -0.003241 0.012096 0.000000 0.004884 0.000000
# 4 0.000000 0.000000 0.000000 0.036949 0.000000 -0.012442
# 5 0.004417 -0.008466 0.004884 0.000000 0.022506 0.000000
# 6 0.000000 0.000000 0.000000 -0.012442 0.000000 0.022837
#
#
# Mechanical properties :
#
#
# Convention : Reuss Voigt Hill
#
# Bulk Modulus (GPa) = 76.32658 87.29743 81.81201
# Shear Modulus (GPa) = 33.28340 44.58815 38.93577
#
# Velocity S-wave (km/s) = 3.54326 4.10109 3.83234
# Velocity P-wave (km/s) = 6.74763 7.44006 7.10229
#
# Compressibility (1/GPa) = 0.01310160
#
# Stress axis : x y z
#
# Youngs Moduli (GPa) = 99.23546 61.87760 82.67464
#
# Poissons Ratio (x) = 0.46996 0.14719
# Poissons Ratio (y) = 0.75370 0.26792
# Poissons Ratio (z) = 0.17667 0.20052
#
# Static dielectric constant tensor:
#      x y z
#    x 2.256480 0.000000 0.031790 
#    y 0.000000 1.789280 0.000000 
#    z 0.031790 0.000000 2.178410 
# 
# From -- ./inp_files/122946.got.cif
#   From: 2010.05.17/outbox.cif.g08.bks.cpg/sg15_62_cif.got.tgz:122946.got - 2010.06.03 18:47:42.
