data_PCOD9296744
_publ_section_title
;
Structure prediction by ZEFSAII (Michael W. Deem and Ramdas Pophale) SiO2 
 PCOD9296744
Probable space group: C 2/C
;
_chemical_formula_sum "Si O2"
_cell_formula_units_Z 32
_cell_length_a 14.563521
_cell_length_b 11.508634
_cell_length_c 8.135359
_cell_angle_alpha 90.000000
_cell_angle_beta 69.737861
_cell_angle_gamma 90.000000
_cell_volume 1279.158466
_symmetry_space_group_name_H-M "C 2/C"
_symmetry_group_IT_number 15
_symmetry_cell_setting 'monoclinic'
loop_
_space_group_symop_operation_xyz
x,y,z
-x,y,1/2-z
-x,-y,-z
x,-y,1/2+z
1/2+x,1/2+y,z
1/2-x,1/2+y,1/2-z
1/2-x,1/2-y,-z
1/2+x,1/2-y,1/2+z
loop_
_atom_site_type_symbol
_atom_site_label
_atom_site_fract_x
_atom_site_fract_y
_atom_site_fract_z
Si Si1 0.880236 0.707532 0.620201
Si Si2 0.698854 0.388106 0.043688
Si Si3 0.291245 0.120586 0.990484
Si Si4 0.575285 0.791171 0.837605
O O1 0.811144 0.644382 0.523299
O O2 0.833471 0.834980 0.611241
O O3 0.861146 0.626646 0.787867
O O4 0.994234 0.734559 0.527035
O O5 0.629655 0.321828 0.222512
O O6 0.706497 0.525668 0.032834
O O7 0.250000 0.250000 0.000000
O O8 0.352185 0.120449 0.120376
O O9 0.500000 0.840910 0.750000
#
# Coordination Sequence:
#
# PCOD9296744 Si02
#       4
#     8   8   8   8
#     4  10  23  45  76 106 151 198 256 304 382 447
#     4  10  24  46  74 108 156 194 248 322 377 440
#     4  12  25  43  77 112 151 200 252 308 384 454
#     4  10  23  49  74 110 149 198 254 309 375 455
#
# _framework density 25.016445000000001
#
# number of rings (size 3 to 8) (size 9 to 14) (size 15 to 20)
#    0.000    1.500    2.500    0.750    3.500    1.000 
#    0.000   18.750    0.000    0.000    0.000    0.000 
#    0.000    0.000    0.000    0.000    0.000    0.000 
#
# Total GULP energy -89073.518644 kJ/mol
# GULP energy per Si atom -5567.094915 kJ/mol
# Density = 2.495951 g / cm^3
# Si number density = 25.016445 Si / 1000 Ang^3
#
#
#
# Elastic Constant Matrix: (Units=GPa)
#
#
# Indices 1 2 3 4 5 6 
#
# 1 84.9799 8.2660 31.0458 0.0000 -2.6569 0.0000
# 2 8.2660 107.7864 30.7560 0.0000 4.7648 0.0000
# 3 31.0458 30.7560 118.7954 0.0000 -7.0904 0.0000
# 4 0.0000 0.0000 0.0000 24.4571 0.0000 0.9906
# 5 -2.6569 4.7648 -7.0904 0.0000 65.9959 0.0000
# 6 0.0000 0.0000 0.0000 0.9906 0.0000 16.5160
#
#
#
# Elastic Compliance Matrix: (Units=1/GPa)
#
#
# Indices 1 2 3 4 5 6 
#
# 1 0.013011 -0.000041 -0.003380 0.000000 0.000164 0.000000
# 2 -0.000041 0.010085 -0.002661 0.000000 -0.001016 0.000000
# 3 -0.003380 -0.002661 0.010058 0.000000 0.001137 0.000000
# 4 0.000000 0.000000 0.000000 0.040987 0.000000 -0.002458
# 5 0.000164 -0.001016 0.001137 0.000000 0.015354 0.000000
# 6 0.000000 0.000000 0.000000 -0.002458 0.000000 0.060695
#
#
# Mechanical properties :
#
#
# Convention : Reuss Voigt Hill
#
# Bulk Modulus (GPa) = 47.63962 50.18859 48.91411
# Shear Modulus (GPa) = 29.52442 37.49339 33.50891
#
# Velocity S-wave (km/s) = 3.43913 3.87557 3.66385
# Velocity P-wave (km/s) = 5.90380 6.33502 6.12321
#
# Compressibility (1/GPa) = 0.02099093
#
# Stress axis : x y z
#
# Youngs Moduli (GPa) = 76.85562 99.15803 99.42377
#
# Poissons Ratio (x) = 0.00402 0.33606
# Poissons Ratio (y) = 0.00312 0.26457
# Poissons Ratio (z) = 0.25978 0.26386
#
# Static dielectric constant tensor:
#      x y z
#    x 1.971350 0.000000 -0.025850 
#    y 0.000000 2.056040 0.000000 
#    z -0.025850 0.000000 2.519070 
# 
# From -- ./inp_files/36737.got.cif
#   From: 2010.05.17/outbox.cif.g08.bks.cpg/sg15_19_cif.got.tgz:36737.got - 2010.06.03 18:47:42.
