data_PCOD9296122
_publ_section_title
;
Structure prediction by ZEFSAII (Michael W. Deem and Ramdas Pophale) SiO2 
 PCOD9296122
Probable space group: C 2/C
;
_chemical_formula_sum "Si O2"
_cell_formula_units_Z 60
_cell_length_a 18.572922
_cell_length_b 11.892836
_cell_length_c 21.347728
_cell_angle_alpha 90.000000
_cell_angle_beta 147.203557
_cell_angle_gamma 90.000000
_cell_volume 2554.117687
_symmetry_space_group_name_H-M "C 2/C"
_symmetry_group_IT_number 15
_symmetry_cell_setting 'monoclinic'
loop_
_space_group_symop_operation_xyz
x,y,z
-x,y,1/2-z
-x,-y,-z
x,-y,1/2+z
1/2+x,1/2+y,z
1/2-x,1/2+y,1/2-z
1/2-x,1/2-y,-z
1/2+x,1/2-y,1/2+z
loop_
_atom_site_type_symbol
_atom_site_label
_atom_site_fract_x
_atom_site_fract_y
_atom_site_fract_z
Si Si1 0.676473 0.464766 0.744914
Si Si2 0.513287 0.277622 0.950229
Si Si3 0.364506 0.850676 0.547345
Si Si4 0.956338 0.133414 0.547594
Si Si5 0.950688 0.520857 0.894009
Si Si6 0.500000 0.970835 0.750000
Si Si7 0.233098 0.073921 0.567064
Si Si8 0.341438 0.514733 0.128320
O O1 0.584747 0.362337 0.657279
O O2 0.586714 0.576780 0.672972
O O3 0.798015 0.482949 0.786704
O O4 0.714564 0.446238 0.845356
O O5 0.475394 0.152488 0.902489
O O6 0.489324 0.306162 0.006020
O O7 0.662718 0.315008 0.042040
O O8 0.398119 0.728202 0.549618
O O9 0.399810 0.884059 0.643149
O O10 0.217363 0.889272 0.421582
O O11 0.464693 0.939279 0.587415
O O12 0.852895 0.029932 0.467145
O O13 0.000000 0.500000 0.000000
O O14 0.387509 0.054571 0.696120
O O15 0.208997 0.071845 0.473386
O O16 0.500000 0.521320 0.250000
#
# Coordination Sequence:
#
# PCOD9296122 Si02
#       8
#     8   8   8   8   8   4   8   8
#     4  11  24  41  70 102 133 180 234 286 349 412
#     4  11  24  43  70 100 135 179 230 292 349 409
#     4  11  26  44  66 101 142 183 232 289 349 412
#     4  11  23  41  67 102 136 178 232 292 349 411
#     4  12  25  46  68  98 137 176 232 291 346 412
#     4  10  26  44  68 102 146 184 234 292 342 426
#     4  10  23  44  68 101 139 183 235 287 350 413
#     4  11  20  44  67  96 140 183 233 278 348 420
#
# _framework density 23.491479000000002
#
# number of rings (size 3 to 8) (size 9 to 14) (size 15 to 20)
#    0.000    1.067    5.333    1.600    5.600    4.267 
#    1.200    4.000    1.467    0.000    0.000    0.000 
#    0.000    0.000    0.000    0.000    0.000    0.000 
#
# Total GULP energy -167726.418340 kJ/mol
# GULP energy per Si atom -5590.880611 kJ/mol
# Density = 2.343801 g / cm^3
# Si number density = 23.491479 Si / 1000 Ang^3
#
#
#
# Elastic Constant Matrix: (Units=GPa)
#
#
# Indices 1 2 3 4 5 6 
#
# 1 91.2204 22.0841 6.5786 0.0001 14.0678 0.0000
# 2 22.0841 115.1414 8.5493 0.0000 7.2145 0.0000
# 3 6.5786 8.5493 73.8359 0.0002 7.5308 0.0001
# 4 0.0001 0.0000 0.0002 21.1295 0.0000 2.7951
# 5 14.0678 7.2145 7.5308 0.0000 42.4830 0.0000
# 6 0.0000 0.0000 0.0001 2.7951 0.0000 30.3212
#
#
#
# Elastic Compliance Matrix: (Units=1/GPa)
#
#
# Indices 1 2 3 4 5 6 
#
# 1 0.012042 -0.002052 -0.000473 0.000000 -0.003555 0.000000
# 2 -0.002052 0.009185 -0.000805 0.000000 -0.000738 0.000000
# 3 -0.000473 -0.000805 0.013900 0.000000 -0.002171 0.000000
# 4 0.000000 0.000000 0.000000 0.047912 0.000000 -0.004417
# 5 -0.003555 -0.000738 -0.002171 0.000000 0.025226 0.000000
# 6 0.000000 0.000000 0.000000 -0.004417 0.000000 0.033387
#
#
# Mechanical properties :
#
#
# Convention : Reuss Voigt Hill
#
# Bulk Modulus (GPa) = 35.12875 39.40240 37.26558
# Shear Modulus (GPa) = 31.68568 34.98578 33.33573
#
# Velocity S-wave (km/s) = 3.67661 3.86333 3.77112
# Velocity P-wave (km/s) = 5.74539 6.05887 5.90421
#
# Compressibility (1/GPa) = 0.02846671
#
# Stress axis : x y z
#
# Youngs Moduli (GPa) = 83.04588 108.87896 71.94073
#
# Poissons Ratio (x) = 0.22339 0.03401
# Poissons Ratio (y) = 0.17039 0.05794
# Poissons Ratio (z) = 0.03926 0.08769
#
# Static dielectric constant tensor:
#      x y z
#    x 2.151280 0.000000 -0.155940 
#    y 0.000000 1.844540 0.000000 
#    z -0.155940 0.000000 2.050770 
# 
# From -- ./inp_files/280105.got.cif
#   From: 2010.05.17/outbox.cif.g08.bks.cpg/sg15_141_cif.got.tgz:280105.got - 2010.06.03 18:47:42.
