data_PCOD9296629
_publ_section_title
;
Structure prediction by ZEFSAII (Michael W. Deem and Ramdas Pophale) SiO2 
 PCOD9296629
Probable space group: C 2/C
;
_chemical_formula_sum "Si O2"
_cell_formula_units_Z 40
_cell_length_a 5.557286
_cell_length_b 22.687243
_cell_length_c 13.780163
_cell_angle_alpha 90.000000
_cell_angle_beta 110.886426
_cell_angle_gamma 90.000000
_cell_volume 1623.229938
_symmetry_space_group_name_H-M "C 2/C"
_symmetry_group_IT_number 15
_symmetry_cell_setting 'monoclinic'
loop_
_space_group_symop_operation_xyz
x,y,z
-x,y,1/2-z
-x,-y,-z
x,-y,1/2+z
1/2+x,1/2+y,z
1/2-x,1/2+y,1/2-z
1/2-x,1/2-y,-z
1/2+x,1/2-y,1/2+z
loop_
_atom_site_type_symbol
_atom_site_label
_atom_site_fract_x
_atom_site_fract_y
_atom_site_fract_z
Si Si1 0.889136 0.441307 0.871513
Si Si2 0.232011 0.612304 0.846550
Si Si3 0.021027 0.674131 0.009210
Si Si4 0.016191 0.772244 0.148941
Si Si5 0.119718 0.012231 0.135577
O O1 0.985762 0.375509 0.907858
O O2 0.652894 0.455599 0.909549
O O3 0.752086 0.458955 0.750317
O O4 0.153735 0.477812 0.909736
O O5 0.315290 0.670861 0.803321
O O6 0.429931 0.558154 0.870447
O O7 0.000000 0.586217 0.750000
O O8 0.155651 0.640080 0.939342
O O9 0.136593 0.730555 0.083143
O O10 0.748707 0.699686 0.931131
O O11 0.000000 0.739507 0.250000
#
# Coordination Sequence:
#
# PCOD9296629 Si02
#       5
#     8   8   8   8   8
#     4  10  23  45  70 109 150 191 246 303 361 450
#     4  12  24  46  71 103 148 196 246 306 373 453
#     4  11  27  46  72 109 142 194 258 304 379 445
#     4  11  26  48  75 102 144 194 254 317 376 441
#     4  10  24  44  72 107 152 198 240 296 379 435
#
# _framework density 24.642227999999999
#
# number of rings (size 3 to 8) (size 9 to 14) (size 15 to 20)
#    0.000    1.200    4.000    0.600   11.200    1.600 
#    3.600    0.000    0.000    0.000    0.000    0.000 
#    0.000    0.000    0.000    0.000    0.000    0.000 
#
# Total GULP energy -111479.423839 kJ/mol
# GULP energy per Si atom -5573.971192 kJ/mol
# Density = 2.458614 g / cm^3
# Si number density = 24.642228 Si / 1000 Ang^3
#
#
#
# Elastic Constant Matrix: (Units=GPa)
#
#
# Indices 1 2 3 4 5 6 
#
# 1 101.2060 9.8314 19.7040 0.0000 -3.5425 0.0000
# 2 9.8314 118.9815 57.1793 0.0000 -8.9018 0.0000
# 3 19.7040 57.1793 138.5724 0.0000 -8.4371 0.0000
# 4 0.0000 0.0000 0.0000 40.1572 0.0000 -3.1091
# 5 -3.5425 -8.9018 -8.4371 0.0000 16.8115 0.0000
# 6 0.0000 0.0000 0.0000 -3.1091 0.0000 28.1719
#
#
#
# Elastic Compliance Matrix: (Units=1/GPa)
#
#
# Indices 1 2 3 4 5 6 
#
# 1 0.010198 -0.000100 -0.001321 0.000000 0.001433 0.000000
# 2 -0.000100 0.010686 -0.004180 0.000000 0.003540 0.000000
# 3 -0.001321 -0.004180 0.009260 0.000000 0.002156 0.000000
# 4 0.000000 0.000000 0.000000 0.025117 0.000000 0.002772
# 5 0.001433 0.003540 0.002156 0.000000 0.062741 0.000000
# 6 0.000000 0.000000 0.000000 0.002772 0.000000 0.035802
#
#
# Mechanical properties :
#
#
# Convention : Reuss Voigt Hill
#
# Bulk Modulus (GPa) = 52.79404 59.13214 55.96309
# Shear Modulus (GPa) = 29.18477 35.16446 32.17462
#
# Velocity S-wave (km/s) = 3.44516 3.78166 3.61733
# Velocity P-wave (km/s) = 6.10706 6.56630 6.34084
#
# Compressibility (1/GPa) = 0.01894153
#
# Stress axis : x y z
#
# Youngs Moduli (GPa) = 98.05835 93.57611 107.98782
#
# Poissons Ratio (x) = 0.00940 0.14270
# Poissons Ratio (y) = 0.00985 0.45137
# Poissons Ratio (z) = 0.12958 0.39113
#
# Static dielectric constant tensor:
#      x y z
#    x 1.902920 0.000000 0.167860 
#    y 0.000000 1.925660 0.000000 
#    z 0.167860 0.000000 1.573230 
# 
# From -- ./inp_files/129555.got.cif
#   From: 2010.05.17/outbox.cif.g08.bks.cpg/sg15_65_cif.got.tgz:129555.got - 2010.06.03 18:47:42.
