data_PCOD9296397
_publ_section_title
;
Structure prediction by ZEFSAII (Michael W. Deem and Ramdas Pophale) SiO2 
 PCOD9296397
Probable space group: C 2/C
;
_chemical_formula_sum "Si O2"
_cell_formula_units_Z 48
_cell_length_a 12.501341
_cell_length_b 14.185969
_cell_length_c 14.538372
_cell_angle_alpha 90.000000
_cell_angle_beta 126.928704
_cell_angle_gamma 90.000000
_cell_volume 2061.041356
_symmetry_space_group_name_H-M "C 2/C"
_symmetry_group_IT_number 15
_symmetry_cell_setting 'monoclinic'
loop_
_space_group_symop_operation_xyz
x,y,z
-x,y,1/2-z
-x,-y,-z
x,-y,1/2+z
1/2+x,1/2+y,z
1/2-x,1/2+y,1/2-z
1/2-x,1/2-y,-z
1/2+x,1/2-y,1/2+z
loop_
_atom_site_type_symbol
_atom_site_label
_atom_site_fract_x
_atom_site_fract_y
_atom_site_fract_z
Si Si1 0.454549 0.899373 0.632491
Si Si2 0.370887 0.211128 0.913444
Si Si3 0.700072 0.422439 0.598048
Si Si4 0.396169 0.510421 0.121605
Si Si5 0.591528 0.731030 0.391948
Si Si6 0.793816 0.514383 0.817177
O O1 0.500000 0.847434 0.750000
O O2 0.394717 0.828384 0.527727
O O3 0.336532 0.959124 0.619190
O O4 0.567518 0.962101 0.640188
O O5 0.299200 0.311682 0.880277
O O6 0.510606 0.224917 0.934229
O O7 0.300965 0.126926 0.821617
O O8 0.598324 0.446672 0.465575
O O9 0.691179 0.476106 0.688649
O O10 0.500000 0.473480 0.250000
O O11 0.423383 0.618384 0.111695
O O12 0.257130 0.512344 0.108046
O O13 0.500000 0.756780 0.250000
O O14 0.750000 0.750000 0.500000
#
# Coordination Sequence:
#
# PCOD9296397 Si02
#       6
#     8   8   8   8   8   8
#     4  10  23  44  73 108 141 183 247 315 372 456
#     4  12  25  45  76 110 145 196 254 311 390 457
#     4  11  25  46  72 108 145 186 250 308 387 453
#     4  11  25  47  69 102 157 193 243 319 382 446
#     4  11  27  46  74 113 154 204 264 315 380 462
#     4  11  25  46  75 102 143 196 253 311 377 462
#
# _framework density 23.289197999999999
#
# number of rings (size 3 to 8) (size 9 to 14) (size 15 to 20)
#    0.000    1.000    1.667    4.000    4.667    5.333 
#    3.000    0.000    0.000    0.000    0.000    0.000 
#    0.000    0.000    0.000    0.000    0.000    0.000 
#
# Total GULP energy -133822.909662 kJ/mol
# GULP energy per Si atom -5575.954569 kJ/mol
# Density = 2.323619 g / cm^3
# Si number density = 23.289198 Si / 1000 Ang^3
#
#
#
# Elastic Constant Matrix: (Units=GPa)
#
#
# Indices 1 2 3 4 5 6 
#
# 1 90.8364 20.9962 22.0227 0.0000 -1.9169 0.0000
# 2 20.9962 129.6011 68.9781 0.0000 -15.1310 0.0000
# 3 22.0227 68.9781 133.4198 0.0000 -14.1949 0.0000
# 4 0.0000 0.0000 0.0000 34.0678 0.0000 1.9504
# 5 -1.9169 -15.1310 -14.1949 0.0000 43.9206 0.0000
# 6 0.0000 0.0000 0.0000 1.9504 0.0000 29.0547
#
#
#
# Elastic Compliance Matrix: (Units=1/GPa)
#
#
# Indices 1 2 3 4 5 6 
#
# 1 0.011603 -0.001215 -0.001323 0.000000 -0.000340 0.000000
# 2 -0.001215 0.010937 -0.005239 0.000000 0.002022 0.000000
# 3 -0.001323 -0.005239 0.010588 0.000000 0.001559 0.000000
# 4 0.000000 0.000000 0.000000 0.029466 0.000000 -0.001978
# 5 -0.000340 0.002022 0.001559 0.000000 0.023954 0.000000
# 6 0.000000 0.000000 0.000000 -0.001978 0.000000 0.034551
#
#
# Mechanical properties :
#
#
# Convention : Reuss Voigt Hill
#
# Bulk Modulus (GPa) = 56.90243 64.20568 60.55405
# Shear Modulus (GPa) = 35.08476 37.53264 36.30870
#
# Velocity S-wave (km/s) = 3.88555 4.01882 3.95275
# Velocity P-wave (km/s) = 6.67952 7.01165 6.84760
#
# Compressibility (1/GPa) = 0.01757394
#
# Stress axis : x y z
#
# Youngs Moduli (GPa) = 86.18220 91.43110 94.44706
#
# Poissons Ratio (x) = 0.11111 0.12497
# Poissons Ratio (y) = 0.10473 0.49479
# Poissons Ratio (z) = 0.11403 0.47899
#
# Static dielectric constant tensor:
#      x y z
#    x 1.981980 0.000000 0.138070 
#    y 0.000000 1.833090 0.000000 
#    z 0.138070 0.000000 2.020930 
# 
# From -- ./inp_files/154118.got.cif
#   From: 2010.05.17/outbox.cif.g08.bks.cpg/sg15_78_cif.got.tgz:154118.got - 2010.06.03 18:47:42.
