data_PCOD9296106
_publ_section_title
;
Structure prediction by ZEFSAII (Michael W. Deem and Ramdas Pophale) SiO2 
 PCOD9296106
Probable space group: C 2/C
;
_chemical_formula_sum "Si O2"
_cell_formula_units_Z 64
_cell_length_a 8.460668
_cell_length_b 29.470263
_cell_length_c 14.506358
_cell_angle_alpha 90.000000
_cell_angle_beta 51.218213
_cell_angle_gamma 90.000000
_cell_volume 2819.576291
_symmetry_space_group_name_H-M "C 2/C"
_symmetry_group_IT_number 15
_symmetry_cell_setting 'monoclinic'
loop_
_space_group_symop_operation_xyz
x,y,z
-x,y,1/2-z
-x,-y,-z
x,-y,1/2+z
1/2+x,1/2+y,z
1/2-x,1/2+y,1/2-z
1/2-x,1/2-y,-z
1/2+x,1/2-y,1/2+z
loop_
_atom_site_type_symbol
_atom_site_label
_atom_site_fract_x
_atom_site_fract_y
_atom_site_fract_z
Si Si1 0.346945 0.185611 0.636171
Si Si2 0.029917 0.928725 0.630511
Si Si3 0.034953 0.964876 0.126263
Si Si4 0.671851 0.921517 0.623090
Si Si5 0.236029 0.613679 0.691866
Si Si6 0.901237 0.678729 0.413194
Si Si7 0.200920 0.214227 0.300633
Si Si8 0.694357 0.659157 0.014587
O O1 0.258083 0.140348 0.714137
O O2 0.292265 0.187725 0.549099
O O3 0.299222 0.231705 0.706784
O O4 0.589687 0.181799 0.553223
O O5 0.848077 0.910902 0.632837
O O6 0.000000 0.927062 0.750000
O O7 0.206496 0.892504 0.548459
O O8 0.039623 0.981695 0.602290
O O9 0.000000 0.960933 0.250000
O O10 0.854947 0.933681 0.150626
O O11 0.234549 0.946663 0.999871
O O12 0.500000 0.944905 0.750000
O O13 0.590663 0.874213 0.614297
O O14 0.336722 0.648388 0.582282
O O15 0.000000 0.607782 0.750000
O O16 0.788430 0.702953 0.370328
O O17 0.133558 0.695049 0.329892
O O18 0.985049 0.188885 0.376150
#
# Coordination Sequence:
#
# PCOD9296106 Si02
#       8
#     8   8   8   8   8   8   8   8
#     4  11  26  41  67  97 132 177 228 277 335 406
#     4  11  25  44  70 101 135 180 229 284 346 412
#     4  11  24  47  71 104 139 182 230 283 352 416
#     4  12  23  45  71 103 140 181 230 287 346 409
#     4  10  23  44  67  96 136 178 223 278 341 405
#     4  11  23  43  66  97 135 171 225 282 337 402
#     4  11  23  43  63  96 130 178 221 277 341 402
#     4  11  23  43  67  92 135 175 222 280 334 400
#
# _framework density 22.698447000000002
#
# number of rings (size 3 to 8) (size 9 to 14) (size 15 to 20)
#    0.000    1.000    3.750    1.875    5.250    0.500 
#   11.250    1.250    0.000    0.000    0.000    0.000 
#    0.000    0.000    0.000    0.000    0.000    0.000 
#
# Total GULP energy -178840.044553 kJ/mol
# GULP energy per Si atom -5588.751392 kJ/mol
# Density = 2.264678 g / cm^3
# Si number density = 22.698447 Si / 1000 Ang^3
#
#
#
# Elastic Constant Matrix: (Units=GPa)
#
#
# Indices 1 2 3 4 5 6 
#
# 1 34.6324 11.4946 14.3066 0.0000 -0.0014 0.0000
# 2 11.4946 114.7405 52.0696 0.0000 -7.5650 0.0000
# 3 14.3066 52.0696 110.4645 0.0000 0.9748 0.0000
# 4 0.0000 0.0000 0.0000 33.4403 0.0000 0.8725
# 5 -0.0014 -7.5650 0.9748 0.0000 35.1815 0.0000
# 6 0.0000 0.0000 0.0000 0.8725 0.0000 -4.2775
#
#
#
# Elastic Compliance Matrix: (Units=1/GPa)
#
#
# Indices 1 2 3 4 5 6 
#
# 1 0.030744 -0.001643 -0.003205 0.000000 -0.000263 0.000000
# 2 -0.001643 0.011404 -0.005186 0.000000 0.002596 0.000000
# 3 -0.003205 -0.005186 0.011925 0.000000 -0.001446 0.000000
# 4 0.000000 0.000000 0.000000 0.029746 0.000000 0.006068
# 5 -0.000263 0.002596 -0.001446 0.000000 0.029022 0.000000
# 6 0.000000 0.000000 0.000000 0.006068 0.000000 -0.232545
#
#
# Mechanical properties :
#
#
# Convention : Reuss Voigt Hill
#
# Bulk Modulus (GPa) = 29.40662 46.17543 37.79103
# Shear Modulus (GPa) = -56.62444 24.99998 -15.81223
#
# Velocity S-wave (km/s) = -5.00006 3.32233 -2.64222
# Velocity P-wave (km/s) = 4.51116 5.92489 2.71604
#
# Compressibility (1/GPa) = 0.03400595
#
# Stress axis : x y z
#
# Youngs Moduli (GPa) = 32.52678 87.68557 83.85762
#
# Poissons Ratio (x) = 0.14405 0.26877
# Poissons Ratio (y) = 0.05343 0.43487
# Poissons Ratio (z) = 0.10425 0.45472
#
# Static dielectric constant tensor:
#      x y z
#    x 1.879990 0.000000 0.012920 
#    y 0.000000 1.824070 0.000000 
#    z 0.012920 0.000000 1.926720 
# 
# From -- ./inp_files/139819.got.cif
#   From: 2010.05.17/outbox.cif.g08.bks.cpg/sg15_70_cif.got.tgz:139819.got - 2010.06.03 18:47:42.
