data_PCOD9296249
_publ_section_title
;
Structure prediction by ZEFSAII (Michael W. Deem and Ramdas Pophale) SiO2 
 PCOD9296249
Probable space group: C 2/C
;
_chemical_formula_sum "Si O2"
_cell_formula_units_Z 48
_cell_length_a 9.030297
_cell_length_b 23.108248
_cell_length_c 11.336527
_cell_angle_alpha 90.000000
_cell_angle_beta 110.495273
_cell_angle_gamma 90.000000
_cell_volume 2215.899712
_symmetry_space_group_name_H-M "C 2/C"
_symmetry_group_IT_number 15
_symmetry_cell_setting 'monoclinic'
loop_
_space_group_symop_operation_xyz
x,y,z
-x,y,1/2-z
-x,-y,-z
x,-y,1/2+z
1/2+x,1/2+y,z
1/2-x,1/2+y,1/2-z
1/2-x,1/2-y,-z
1/2+x,1/2-y,1/2+z
loop_
_atom_site_type_symbol
_atom_site_label
_atom_site_fract_x
_atom_site_fract_y
_atom_site_fract_z
Si Si1 0.285192 0.604445 0.374011
Si Si2 0.904097 0.986640 0.350193
Si Si3 0.353338 0.620850 0.982913
Si Si4 0.667552 0.836989 0.624400
Si Si5 0.188118 0.310391 0.036882
Si Si6 0.314502 0.783576 0.200919
O O1 0.276917 0.538057 0.328512
O O2 0.471414 0.620024 0.413872
O O3 0.170541 0.639292 0.256964
O O4 0.250137 0.630276 0.493754
O O5 0.842533 0.923351 0.369879
O O6 0.000000 0.988418 0.250000
O O7 0.000000 0.000000 0.500000
O O8 0.295058 0.682125 0.919586
O O9 0.233295 0.612258 0.057955
O O10 0.500600 0.814021 0.532734
O O11 0.788456 0.783559 0.668045
O O12 0.250000 0.250000 0.000000
O O13 0.238455 0.303735 0.185171
O O14 0.500000 0.797818 0.250000
#
# Coordination Sequence:
#
# PCOD9296249 Si02
#       6
#     8   8   8   8   8   8
#     4  11  23  42  70  98 133 176 227 284 344 408
#     4  10  23  44  70 103 135 179 239 291 344 418
#     4  11  24  42  70  97 130 177 229 284 339 402
#     4  12  24  44  68  97 139 180 226 280 349 417
#     4  12  26  43  64 101 136 177 225 280 342 411
#     4  12  25  42  66  96 139 179 224 277 342 418
#
# _framework density 21.661629999999999
#
# number of rings (size 3 to 8) (size 9 to 14) (size 15 to 20)
#    0.000    0.667    3.333    5.500    4.667    1.333 
#    0.000    2.500    0.000    0.000    0.000    0.000 
#    0.000    0.000    0.000    0.000    0.000    0.000 
#
# Total GULP energy -133728.833656 kJ/mol
# GULP energy per Si atom -5572.034736 kJ/mol
# Density = 2.161233 g / cm^3
# Si number density = 21.661630 Si / 1000 Ang^3
#
#
#
# Elastic Constant Matrix: (Units=GPa)
#
#
# Indices 1 2 3 4 5 6 
#
# 1 82.0264 22.3764 20.9614 0.0000 -9.6731 0.0000
# 2 22.3764 88.5491 20.4617 0.0000 -17.0825 0.0000
# 3 20.9614 20.4617 106.7096 0.0000 -20.3192 0.0000
# 4 0.0000 0.0000 0.0000 31.9618 0.0000 -12.5480
# 5 -9.6731 -17.0825 -20.3192 0.0000 45.1166 0.0000
# 6 0.0000 0.0000 0.0000 -12.5480 0.0000 20.4399
#
#
#
# Elastic Compliance Matrix: (Units=1/GPa)
#
#
# Indices 1 2 3 4 5 6 
#
# 1 0.013564 -0.002790 -0.001944 0.000000 0.000976 0.000000
# 2 -0.002790 0.013010 -0.001228 0.000000 0.003775 0.000000
# 3 -0.001944 -0.001228 0.010742 0.000000 0.003956 0.000000
# 4 0.000000 0.000000 0.000000 0.041223 0.000000 0.025306
# 5 0.000976 0.003775 0.003956 0.000000 0.025585 0.000000
# 6 0.000000 0.000000 0.000000 0.025306 0.000000 0.064459
#
#
# Mechanical properties :
#
#
# Convention : Reuss Voigt Hill
#
# Bulk Modulus (GPa) = 39.38090 44.98712 42.18401
# Shear Modulus (GPa) = 26.45913 33.73604 30.09758
#
# Velocity S-wave (km/s) = 3.49875 3.95068 3.73157
# Velocity P-wave (km/s) = 5.87717 6.45165 6.17110
#
# Compressibility (1/GPa) = 0.02539302
#
# Stress axis : x y z
#
# Youngs Moduli (GPa) = 73.72380 76.86274 93.09460
#
# Poissons Ratio (x) = 0.21446 0.18093
# Poissons Ratio (y) = 0.20570 0.11430
# Poissons Ratio (z) = 0.14328 0.09437
#
# Static dielectric constant tensor:
#      x y z
#    x 1.861270 0.000000 -0.112450 
#    y 0.000000 1.887080 0.000000 
#    z -0.112450 0.000000 1.892760 
# 
# From -- ./inp_files/79774.got.cif
#   From: 2010.05.17/outbox.cif.g08.bks.cpg/sg15_40_cif.got.tgz:79774.got - 2010.06.03 18:47:42.
