data_PCOD9296655
_publ_section_title
;
Structure prediction by ZEFSAII (Michael W. Deem and Ramdas Pophale) SiO2 
 PCOD9296655
Probable space group: C 2/C
;
_chemical_formula_sum "Si O2"
_cell_formula_units_Z 44
_cell_length_a 16.642728
_cell_length_b 8.707866
_cell_length_c 17.453670
_cell_angle_alpha 90.000000
_cell_angle_beta 129.829104
_cell_angle_gamma 90.000000
_cell_volume 1942.498253
_symmetry_space_group_name_H-M "C 2/C"
_symmetry_group_IT_number 15
_symmetry_cell_setting 'monoclinic'
loop_
_space_group_symop_operation_xyz
x,y,z
-x,y,1/2-z
-x,-y,-z
x,-y,1/2+z
1/2+x,1/2+y,z
1/2-x,1/2+y,1/2-z
1/2-x,1/2-y,-z
1/2+x,1/2-y,1/2+z
loop_
_atom_site_type_symbol
_atom_site_label
_atom_site_fract_x
_atom_site_fract_y
_atom_site_fract_z
Si Si1 0.759982 0.364283 0.857180
Si Si2 0.500000 0.090060 0.750000
Si Si3 0.048021 0.777099 0.932967
Si Si4 0.825527 0.643765 0.131180
Si Si5 0.142775 0.042082 0.912043
Si Si6 0.825495 0.307475 0.339760
O O1 0.668957 0.434442 0.855451
O O2 0.810146 0.512508 0.846043
O O3 0.714010 0.247894 0.767169
O O4 0.847555 0.281654 0.961774
O O5 0.531549 0.185712 0.843633
O O6 0.596171 0.979462 0.787532
O O7 0.945767 0.743063 0.920413
O O8 0.063709 0.954146 0.918972
O O9 0.887605 0.787366 0.131996
O O10 0.746328 0.718315 0.143120
O O11 0.753805 0.565088 0.022705
#
# Coordination Sequence:
#
# PCOD9296655 Si02
#       6
#     8   4   8   8   8   8
#     4  11  24  46  67 101 141 183 230 294 341 426
#     4  12  24  42  74 100 130 188 234 284 346 414
#     4  12  25  42  73 102 136 183 236 286 352 415
#     4  10  24  46  67 100 138 181 230 291 342 413
#     4  10  23  45  71  96 137 183 235 283 344 414
#     4  11  26  43  67 100 144 177 231 287 361 406
#
# _framework density 22.651243000000001
#
# number of rings (size 3 to 8) (size 9 to 14) (size 15 to 20)
#    0.000    1.091    1.818    3.273    5.091    4.364 
#    0.000    0.000    0.000    0.000    0.000    0.000 
#    0.000    0.000    0.000    0.000    0.000    0.000 
#
# Total GULP energy -123247.465519 kJ/mol
# GULP energy per Si atom -5602.157524 kJ/mol
# Density = 2.259969 g / cm^3
# Si number density = 22.651243 Si / 1000 Ang^3
#
#
#
# Elastic Constant Matrix: (Units=GPa)
#
#
# Indices 1 2 3 4 5 6 
#
# 1 44.9856 37.4291 -23.7528 0.0000 2.3208 0.0000
# 2 37.4291 110.5663 15.5346 0.0000 -3.4061 0.0000
# 3 -23.7528 15.5346 62.0451 0.0000 -17.1683 0.0000
# 4 0.0000 0.0000 0.0000 22.8210 0.0000 -8.1292
# 5 2.3208 -3.4061 -17.1683 0.0000 25.4857 0.0000
# 6 0.0000 0.0000 0.0000 -8.1292 0.0000 40.2439
#
#
#
# Elastic Compliance Matrix: (Units=1/GPa)
#
#
# Indices 1 2 3 4 5 6 
#
# 1 0.058047 -0.023711 0.031735 0.000000 0.012923 0.000000
# 2 -0.023711 0.019063 -0.015423 0.000000 -0.005683 0.000000
# 3 0.031735 -0.015423 0.037805 0.000000 0.020516 0.000000
# 4 0.000000 0.000000 0.000000 0.047217 0.000000 0.009538
# 5 0.012923 -0.005683 0.020516 0.000000 0.051122 0.000000
# 6 0.000000 0.000000 0.000000 0.009538 0.000000 0.026775
#
#
# Mechanical properties :
#
#
# Convention : Reuss Voigt Hill
#
# Bulk Modulus (GPa) = 9.98825 30.66876 20.32851
# Shear Modulus (GPa) = 17.34916 30.26916 23.80916
#
# Velocity S-wave (km/s) = 2.77054 3.65953 3.24561
# Velocity P-wave (km/s) = 3.82801 5.60581 4.79994
#
# Compressibility (1/GPa) = 0.10011759
#
# Stress axis : x y z
#
# Youngs Moduli (GPa) = 17.22743 52.45812 26.45162
#
# Poissons Ratio (x) = 1.24383 -0.83944
# Poissons Ratio (y) = 0.40848 0.40795
# Poissons Ratio (z) = -0.54671 0.80904
#
# Static dielectric constant tensor:
#      x y z
#    x 1.846860 0.000000 -0.023330 
#    y 0.000000 1.810290 0.000000 
#    z -0.023330 0.000000 1.796260 
# 
# From -- ./inp_files/159198.got.cif
#   From: 2010.05.17/outbox.cif.g08.bks.cpg/sg15_80_cif.got.tgz:159198.got - 2010.06.03 18:47:42.
