data_PCOD9296572
_publ_section_title
;
Structure prediction by ZEFSAII (Michael W. Deem and Ramdas Pophale) SiO2 
 PCOD9296572
Probable space group: C 2/C
;
_chemical_formula_sum "Si O2"
_cell_formula_units_Z 48
_cell_length_a 11.498646
_cell_length_b 9.937398
_cell_length_c 16.693590
_cell_angle_alpha 90.000000
_cell_angle_beta 117.829387
_cell_angle_gamma 90.000000
_cell_volume 1686.899502
_symmetry_space_group_name_H-M "C 2/C"
_symmetry_group_IT_number 15
_symmetry_cell_setting 'monoclinic'
loop_
_space_group_symop_operation_xyz
x,y,z
-x,y,1/2-z
-x,-y,-z
x,-y,1/2+z
1/2+x,1/2+y,z
1/2-x,1/2+y,1/2-z
1/2-x,1/2-y,-z
1/2+x,1/2-y,1/2+z
loop_
_atom_site_type_symbol
_atom_site_label
_atom_site_fract_x
_atom_site_fract_y
_atom_site_fract_z
Si Si1 0.680826 0.127878 0.369466
Si Si2 0.940419 0.145075 0.040961
Si Si3 0.664744 0.155438 0.859903
Si Si4 0.042556 0.635344 0.467460
Si Si5 0.111910 0.940166 0.348978
Si Si6 0.272131 0.866144 0.793013
O O1 0.682615 0.119273 0.468275
O O2 0.636698 0.281917 0.347456
O O3 0.755150 0.102158 0.308387
O O4 0.598449 0.987881 0.337464
O O5 0.811065 0.134519 0.943630
O O6 0.046089 0.231764 0.024653
O O7 0.054581 0.999377 0.914113
O O8 0.905778 0.245409 0.101984
O O9 0.687798 0.232954 0.785412
O O10 0.925057 0.661011 0.364595
O O11 0.000000 0.500000 0.500000
O O12 0.000000 0.975753 0.250000
O O13 0.231245 0.024544 0.347213
#
# Coordination Sequence:
#
# PCOD9296572 Si02
#       6
#     8   8   8   8   8   8
#     4  12  23  40  70  99 131 176 228 271 336 404
#     4   9  20  43  64  93 136 171 215 276 335 390
#     4   9  19  40  69  92 126 177 217 274 332 391
#     4  11  22  42  69 100 133 173 225 276 333 406
#     4  11  25  45  66  98 139 179 222 281 341 395
#     4  10  23  45  68  94 137 176 221 282 338 397
#
# _framework density 28.45457
#
# number of rings (size 3 to 8) (size 9 to 14) (size 15 to 20)
#    0.000    1.667    1.667    3.500    0.000    2.667 
#    9.000    0.833    0.000    0.000    0.000    0.000 
#    0.000    0.000    0.000    0.000    0.000    0.000 
#
# Total GULP energy -133978.203202 kJ/mol
# GULP energy per Si atom -5582.425133 kJ/mol
# Density = 2.838981 g / cm^3
# Si number density = 28.454570 Si / 1000 Ang^3
#
#
#
# Elastic Constant Matrix: (Units=GPa)
#
#
# Indices 1 2 3 4 5 6 
#
# 1 83.2908 35.4158 47.9411 0.0000 -29.9271 0.0000
# 2 35.4158 207.5855 39.5579 0.0000 -33.5167 0.0000
# 3 47.9411 39.5579 103.5197 0.0000 -27.5595 0.0000
# 4 0.0000 0.0000 0.0000 23.7411 0.0000 -25.7422
# 5 -29.9271 -33.5167 -27.5595 0.0000 73.4268 0.0000
# 6 0.0000 0.0000 0.0000 -25.7422 0.0000 51.0548
#
#
#
# Elastic Compliance Matrix: (Units=1/GPa)
#
#
# Indices 1 2 3 4 5 6 
#
# 1 0.017870 -0.001078 -0.006728 0.000000 0.004266 0.000000
# 2 -0.001078 0.005486 -0.001164 0.000000 0.001628 0.000000
# 3 -0.006728 -0.001164 0.013720 0.000000 0.001876 0.000000
# 4 0.000000 0.000000 0.000000 0.092922 0.000000 0.046852
# 5 0.004266 0.001628 0.001876 0.000000 0.016805 0.000000
# 6 0.000000 0.000000 0.000000 0.046852 0.000000 0.043210
#
#
# Mechanical properties :
#
#
# Convention : Reuss Voigt Hill
#
# Bulk Modulus (GPa) = 52.25650 71.13615 61.69633
# Shear Modulus (GPa) = 23.32842 47.74329 35.53585
#
# Velocity S-wave (km/s) = 2.86640 4.10063 3.53776
# Velocity P-wave (km/s) = 5.41847 6.89017 6.19815
#
# Compressibility (1/GPa) = 0.01913637
#
# Stress axis : x y z
#
# Youngs Moduli (GPa) = 55.96006 182.28903 72.88611
#
# Poissons Ratio (x) = 0.19648 0.49039
# Poissons Ratio (y) = 0.06032 0.08482
# Poissons Ratio (z) = 0.37651 0.21213
#
# Static dielectric constant tensor:
#      x y z
#    x 2.556280 0.000000 -0.093900 
#    y 0.000000 2.159200 0.000000 
#    z -0.093900 0.000000 2.269190 
# 
# From -- ./inp_files/196244.got.cif
#   From: 2010.05.17/outbox.cif.g08.bks.cpg/sg15_99_cif.got.tgz:196244.got - 2010.06.03 18:47:42.
