data_PCOD9296077
_publ_section_title
;
Structure prediction by ZEFSAII (Michael W. Deem and Ramdas Pophale) SiO2 
 PCOD9296077
Probable space group: C 2/C
;
_chemical_formula_sum "Si O2"
_cell_formula_units_Z 28
_cell_length_a 14.041281
_cell_length_b 5.231639
_cell_length_c 22.790839
_cell_angle_alpha 90.000000
_cell_angle_beta 139.670771
_cell_angle_gamma 90.000000
_cell_volume 1083.500388
_symmetry_space_group_name_H-M "C 2/C"
_symmetry_group_IT_number 15
_symmetry_cell_setting 'monoclinic'
loop_
_space_group_symop_operation_xyz
x,y,z
-x,y,1/2-z
-x,-y,-z
x,-y,1/2+z
1/2+x,1/2+y,z
1/2-x,1/2+y,1/2-z
1/2-x,1/2-y,-z
1/2+x,1/2-y,1/2+z
loop_
_atom_site_type_symbol
_atom_site_label
_atom_site_fract_x
_atom_site_fract_y
_atom_site_fract_z
Si Si1 0.500000 0.900993 0.750000
Si Si2 0.702140 0.577132 0.650798
Si Si3 0.058273 0.275066 0.468062
Si Si4 0.540481 0.288238 0.389121
O O1 0.428047 0.739118 0.664178
O O2 0.374753 0.061614 0.723814
O O3 0.638822 0.748265 0.567779
O O4 0.612674 0.309108 0.601292
O O5 0.635499 0.677917 0.680543
O O6 0.078447 0.536648 0.443626
O O7 0.108750 0.038361 0.450737
#
# Coordination Sequence:
#
# PCOD9296077 Si02
#       4
#     4   8   8   8
#     4  12  26  42  70 108 134 186 214 280 356 396
#     4   9  23  43  69 100 132 176 228 279 330 396
#     4   9  21  46  72  87 139 177 225 280 323 391
#     4  10  23  44  66  99 133 176 223 278 328 403
#
# _framework density 25.842168999999998
#
# number of rings (size 3 to 8) (size 9 to 14) (size 15 to 20)
#    1.714    0.571    0.000    0.857    4.000    3.429 
#    5.143    0.000    0.000    0.000    0.000    0.000 
#    0.000    0.000    0.000    0.000    0.000    0.000 
#
# Total GULP energy -78297.204843 kJ/mol
# GULP energy per Si atom -5592.657489 kJ/mol
# Density = 2.578335 g / cm^3
# Si number density = 25.842169 Si / 1000 Ang^3
#
#
#
# Elastic Constant Matrix: (Units=GPa)
#
#
# Indices 1 2 3 4 5 6 
#
# 1 117.0651 6.7399 18.6699 -0.0001 12.0361 0.0018
# 2 6.7399 143.7242 1.8904 -0.0004 -15.1022 0.0039
# 3 18.6699 1.8904 52.9851 -0.0001 8.4284 0.0002
# 4 -0.0001 -0.0004 -0.0001 8.0430 -0.0001 -1.1438
# 5 12.0361 -15.1022 8.4284 -0.0001 68.5185 -0.0003
# 6 0.0018 0.0039 0.0002 -1.1438 -0.0003 -9.9023
#
#
#
# Elastic Compliance Matrix: (Units=1/GPa)
#
#
# Indices 1 2 3 4 5 6 
#
# 1 0.009192 -0.000535 -0.003003 0.000000 -0.001363 0.000001
# 2 -0.000535 0.007168 -0.000340 0.000001 0.001716 0.000003
# 3 -0.003003 -0.000340 0.020268 0.000000 -0.002041 0.000000
# 4 0.000000 0.000001 0.000000 0.122323 0.000000 -0.014129
# 5 -0.001363 0.001716 -0.002041 0.000000 0.015463 0.000000
# 6 0.000001 0.000003 0.000000 -0.014129 0.000000 -0.099355
#
#
# Mechanical properties :
#
#
# Convention : Reuss Voigt Hill
#
# Bulk Modulus (GPa) = 34.63584 40.93053 37.78318
# Shear Modulus (GPa) = 54.08952 32.43011 43.25981
#
# Velocity S-wave (km/s) = 4.57997 3.54634 4.09589
# Velocity P-wave (km/s) = 6.43429 5.71330 6.08448
#
# Compressibility (1/GPa) = 0.02887183
#
# Stress axis : x y z
#
# Youngs Moduli (GPa) = 108.78869 139.51675 49.33851
#
# Poissons Ratio (x) = 0.07461 0.14816
# Poissons Ratio (y) = 0.05818 0.01678
# Poissons Ratio (z) = 0.32670 0.04746
#
# Static dielectric constant tensor:
#      x y z
#    x 2.040040 0.000000 0.085720 
#    y 0.000000 2.031830 0.000000 
#    z 0.085720 0.000000 2.029290 
# 
# From -- ./inp_files/201611.got.cif
#   From: 2010.05.17/outbox.cif.g08.bks.cpg/sg15_101_cif.got.tgz:201611.got - 2010.06.03 18:47:42.
