data_PCOD9296216
_publ_section_title
;
Structure prediction by ZEFSAII (Michael W. Deem and Ramdas Pophale) SiO2 
 PCOD9296216
Probable space group: C 2/C
;
_chemical_formula_sum "Si O2"
_cell_formula_units_Z 40
_cell_length_a 29.619120
_cell_length_b 13.465641
_cell_length_c 8.988164
_cell_angle_alpha 90.000000
_cell_angle_beta 148.951222
_cell_angle_gamma 90.000000
_cell_volume 1848.946096
_symmetry_space_group_name_H-M "C 2/C"
_symmetry_group_IT_number 15
_symmetry_cell_setting 'monoclinic'
loop_
_space_group_symop_operation_xyz
x,y,z
-x,y,1/2-z
-x,-y,-z
x,-y,1/2+z
1/2+x,1/2+y,z
1/2-x,1/2+y,1/2-z
1/2-x,1/2-y,-z
1/2+x,1/2-y,1/2+z
loop_
_atom_site_type_symbol
_atom_site_label
_atom_site_fract_x
_atom_site_fract_y
_atom_site_fract_z
Si Si1 0.647548 0.661748 0.620012
Si Si2 0.483632 0.383781 0.477626
Si Si3 0.123772 0.379075 0.473893
Si Si4 0.326102 0.949971 0.581884
Si Si5 0.464051 0.179139 0.308659
O O1 0.586865 0.635076 0.589943
O O2 0.581598 0.646907 0.297989
O O3 0.668085 0.778597 0.662149
O O4 0.729930 0.590926 0.842141
O O5 0.500000 0.500000 0.500000
O O6 0.454175 0.299138 0.278451
O O7 0.119898 0.445770 0.611436
O O8 0.175981 0.442312 0.499387
O O9 0.033104 0.351445 0.135015
O O10 0.375867 0.875972 0.608916
O O11 0.500000 0.148130 0.250000
#
# Coordination Sequence:
#
# PCOD9296216 Si02
#       5
#     8   8   8   8   8
#     4  10  24  44  68  99 135 178 223 284 331 400
#     4  10  23  44  69  96 137 178 223 276 347 402
#     4  11  24  45  65 102 137 177 227 279 343 397
#     4  12  24  42  74  95 135 185 224 276 338 406
#     4  11  24  44  67 101 135 176 228 282 338 405
#
# _framework density 21.633946999999999
#
# number of rings (size 3 to 8) (size 9 to 14) (size 15 to 20)
#    0.000    1.200    2.000    3.000    5.600    0.000 
#    0.000    3.000    0.000    0.000    0.000    0.000 
#    0.000    0.000    0.000    0.000    0.000    0.000 
#
# Total GULP energy -111546.832674 kJ/mol
# GULP energy per Si atom -5577.341634 kJ/mol
# Density = 2.158471 g / cm^3
# Si number density = 21.633947 Si / 1000 Ang^3
#
#
#
# Elastic Constant Matrix: (Units=GPa)
#
#
# Indices 1 2 3 4 5 6 
#
# 1 54.2454 33.3843 25.2783 0.0000 -6.1280 0.0000
# 2 33.3843 151.8151 28.9557 0.0000 6.9093 0.0000
# 3 25.2783 28.9557 53.1702 0.0000 19.7665 0.0000
# 4 0.0000 0.0000 0.0000 18.4457 0.0000 -0.8847
# 5 -6.1280 6.9093 19.7665 0.0000 31.4376 0.0000
# 6 0.0000 0.0000 0.0000 -0.8847 0.0000 35.1964
#
#
#
# Elastic Compliance Matrix: (Units=1/GPa)
#
#
# Indices 1 2 3 4 5 6 
#
# 1 0.033274 -0.004210 -0.021248 0.000000 0.020771 0.000000
# 2 -0.004210 0.007916 -0.001772 0.000000 -0.001446 0.000000
# 3 -0.021248 -0.001772 0.040808 0.000000 -0.029411 0.000000
# 4 0.000000 0.000000 0.000000 0.054279 0.000000 0.001364
# 5 0.020771 -0.001446 -0.029411 0.000000 0.054668 0.000000
# 6 0.000000 0.000000 0.000000 0.001364 0.000000 0.028446
#
#
# Mechanical properties :
#
#
# Convention : Reuss Voigt Hill
#
# Bulk Modulus (GPa) = 36.31344 48.27416 42.29380
# Shear Modulus (GPa) = 17.66589 28.45677 23.06133
#
# Velocity S-wave (km/s) = 2.86069 3.63075 3.26848
# Velocity P-wave (km/s) = 5.26624 6.31973 5.81688
#
# Compressibility (1/GPa) = 0.02753801
#
# Stress axis : x y z
#
# Youngs Moduli (GPa) = 30.05383 126.31877 24.50473
#
# Poissons Ratio (x) = 0.53174 0.52069
# Poissons Ratio (y) = 0.12651 0.04343
# Poissons Ratio (z) = 0.63860 0.22388
#
# Static dielectric constant tensor:
#      x y z
#    x 1.796120 0.000000 -0.053770 
#    y 0.000000 1.937130 0.000000 
#    z -0.053770 0.000000 1.782120 
# 
# From -- ./inp_files/61731.got.cif
#   From: 2010.05.17/outbox.cif.g08.bks.cpg/sg15_31_cif.got.tgz:61731.got - 2010.06.03 18:47:42.
