data_PCOD9296851
_publ_section_title
;
Structure prediction by ZEFSAII (Michael W. Deem and Ramdas Pophale) SiO2 
 PCOD9296851
Probable space group: C 2/C
;
_chemical_formula_sum "Si O2"
_cell_formula_units_Z 44
_cell_length_a 14.790003
_cell_length_b 10.576229
_cell_length_c 14.138908
_cell_angle_alpha 90.000000
_cell_angle_beta 55.822690
_cell_angle_gamma 90.000000
_cell_volume 1829.698911
_symmetry_space_group_name_H-M "C 2/C"
_symmetry_group_IT_number 15
_symmetry_cell_setting 'monoclinic'
loop_
_space_group_symop_operation_xyz
x,y,z
-x,y,1/2-z
-x,-y,-z
x,-y,1/2+z
1/2+x,1/2+y,z
1/2-x,1/2+y,1/2-z
1/2-x,1/2-y,-z
1/2+x,1/2-y,1/2+z
loop_
_atom_site_type_symbol
_atom_site_label
_atom_site_fract_x
_atom_site_fract_y
_atom_site_fract_z
Si Si1 0.665367 0.348149 0.002303
Si Si2 0.000000 0.458184 0.750000
Si Si3 0.803766 0.767771 0.726332
Si Si4 0.928588 0.274447 0.644229
Si Si5 0.119463 0.904864 0.638587
Si Si6 0.038148 0.656125 0.582514
O O1 0.539337 0.303454 0.090636
O O2 0.672291 0.483091 0.048474
O O3 0.750000 0.250000 0.000000
O O4 0.679878 0.343593 0.880837
O O5 0.922284 0.369260 0.735143
O O6 0.934801 0.542267 0.863874
O O7 0.685828 0.701466 0.793044
O O8 0.810685 0.858349 0.813189
O O9 0.907806 0.676466 0.672733
O O10 0.940270 0.353812 0.540612
O O11 0.095737 0.783211 0.586594
O O12 0.000000 0.942597 0.750000
#
# Coordination Sequence:
#
# PCOD9296851 Si02
#       6
#     8   4   8   8   8   8
#     4  11  26  47  69 106 144 177 235 288 351 419
#     4  12  22  46  66 100 146 180 222 296 350 412
#     4  10  23  46  70 103 129 186 229 288 337 416
#     4  11  26  42  71 103 138 185 223 295 359 403
#     4  10  23  47  74  99 137 185 230 290 340 419
#     4  10  23  49  69  99 139 181 240 282 343 427
#
# _framework density 24.047671999999999
#
# number of rings (size 3 to 8) (size 9 to 14) (size 15 to 20)
#    0.000    1.455    2.727    1.636    3.818   13.091 
#    9.818    0.000    0.000    0.000    0.000    0.000 
#    0.000    0.000    0.000    0.000    0.000    0.000 
#
# Total GULP energy -123200.542117 kJ/mol
# GULP energy per Si atom -5600.024642 kJ/mol
# Density = 2.399294 g / cm^3
# Si number density = 24.047672 Si / 1000 Ang^3
#
#
#
# Elastic Constant Matrix: (Units=GPa)
#
#
# Indices 1 2 3 4 5 6 
#
# 1 161.6842 57.8865 69.5803 0.0000 -5.7005 0.0000
# 2 57.8865 33.1330 21.9636 0.0000 -2.5553 0.0000
# 3 69.5803 21.9636 75.1441 0.0000 18.8638 0.0000
# 4 0.0000 0.0000 0.0000 34.9302 0.0000 11.0057
# 5 -5.7005 -2.5553 18.8638 0.0000 61.9003 0.0000
# 6 0.0000 0.0000 0.0000 11.0057 0.0000 8.7776
#
#
#
# Elastic Compliance Matrix: (Units=1/GPa)
#
#
# Indices 1 2 3 4 5 6 
#
# 1 0.023855 -0.031974 -0.014037 0.000000 0.005155 0.000000
# 2 -0.031974 0.081959 0.006000 0.000000 -0.001390 0.000000
# 3 -0.014037 0.006000 0.026870 0.000000 -0.009233 0.000000
# 4 0.000000 0.000000 0.000000 0.047324 0.000000 -0.059336
# 5 0.005155 -0.001390 -0.009233 0.000000 0.019386 0.000000
# 6 0.000000 0.000000 0.000000 -0.059336 0.000000 0.188324
#
#
# Mechanical properties :
#
#
# Convention : Reuss Voigt Hill
#
# Bulk Modulus (GPa) = 18.98927 63.20246 41.09587
# Shear Modulus (GPa) = 10.30306 29.15702 19.73004
#
# Velocity S-wave (km/s) = 2.07213 3.48583 2.86747
# Velocity P-wave (km/s) = 3.69305 6.52231 5.29996
#
# Compressibility (1/GPa) = 0.05266132
#
# Stress axis : x y z
#
# Youngs Moduli (GPa) = 41.92003 12.20126 37.21681
#
# Poissons Ratio (x) = 0.39013 0.52241
# Poissons Ratio (y) = 1.34036 -0.22331
# Poissons Ratio (z) = 0.58843 -0.07321
#
# Static dielectric constant tensor:
#      x y z
#    x 1.957150 0.000000 -0.053300 
#    y 0.000000 1.881920 0.000000 
#    z -0.053300 0.000000 1.917940 
# 
# From -- ./inp_files/151768.got.cif
#   From: 2010.05.17/outbox.cif.g08.bks.cpg/sg15_76_cif.got.tgz:151768.got - 2010.06.03 18:47:42.
