data_PCOD9296081
_publ_section_title
;
Structure prediction by ZEFSAII (Michael W. Deem and Ramdas Pophale) SiO2 
 PCOD9296081
Probable space group: C 2/C
;
_chemical_formula_sum "Si O2"
_cell_formula_units_Z 60
_cell_length_a 18.753308
_cell_length_b 24.524866
_cell_length_c 8.037379
_cell_angle_alpha 90.000000
_cell_angle_beta 137.750747
_cell_angle_gamma 90.000000
_cell_volume 2485.415540
_symmetry_space_group_name_H-M "C 2/C"
_symmetry_group_IT_number 15
_symmetry_cell_setting 'monoclinic'
loop_
_space_group_symop_operation_xyz
x,y,z
-x,y,1/2-z
-x,-y,-z
x,-y,1/2+z
1/2+x,1/2+y,z
1/2-x,1/2+y,1/2-z
1/2-x,1/2-y,-z
1/2+x,1/2-y,1/2+z
loop_
_atom_site_type_symbol
_atom_site_label
_atom_site_fract_x
_atom_site_fract_y
_atom_site_fract_z
Si Si1 0.887223 0.568638 0.462334
Si Si2 0.876294 0.317858 0.048709
Si Si3 0.979458 0.845541 0.896520
Si Si4 0.000000 0.230472 0.750000
Si Si5 0.217094 0.510017 0.918051
Si Si6 0.061835 0.950050 0.186716
Si Si7 0.229773 0.272669 0.147703
Si Si8 0.750155 0.627181 0.615634
O O1 0.858106 0.632043 0.387353
O O2 0.803687 0.539730 0.442696
O O3 0.880344 0.529796 0.292338
O O4 0.000000 0.568637 0.750000
O O5 0.844512 0.346499 0.167581
O O6 0.000000 0.303402 0.250000
O O7 0.799467 0.267104 0.885414
O O8 0.856443 0.864182 0.678473
O O9 0.000000 0.821469 0.750000
O O10 0.005999 0.806362 0.094645
O O11 0.049332 0.899522 0.041864
O O12 0.894834 0.264936 0.542975
O O13 0.230456 0.563345 0.823464
O O14 0.320215 0.472143 0.086470
O O15 0.000000 0.935020 0.250000
O O16 0.000000 0.000000 0.000000
O O17 0.258543 0.334555 0.238701
O O18 0.250000 0.250000 0.000000
#
# Coordination Sequence:
#
# PCOD9296081 Si02
#       8
#     8   8   8   4   8   8   8   8
#     4  10  23  44  67 100 134 179 242 289 358 422
#     4  10  24  46  74  98 133 188 235 290 359 431
#     4  12  26  45  74 108 153 193 237 301 374 442
#     4  12  28  50  76 114 148 186 252 314 370 440
#     4  11  24  39  71  99 140 188 228 293 354 435
#     4  12  24  40  65 108 150 189 237 291 361 444
#     4  12  28  47  73 107 140 185 245 306 363 435
#     4  11  25  48  68 102 142 191 237 287 373 433
#
# _framework density 24.140834000000002
#
# number of rings (size 3 to 8) (size 9 to 14) (size 15 to 20)
#    0.000    0.800    3.333    2.800    7.467    1.600 
#    1.200    0.000    0.000    0.000    0.000    0.000 
#    0.000    0.000    0.000    0.000    0.000    0.000 
#
# Total GULP energy -168004.290983 kJ/mol
# GULP energy per Si atom -5600.143033 kJ/mol
# Density = 2.408589 g / cm^3
# Si number density = 24.140834 Si / 1000 Ang^3
#
#
#
# Elastic Constant Matrix: (Units=GPa)
#
#
# Indices 1 2 3 4 5 6 
#
# 1 81.7391 20.8973 29.3713 0.0000 12.5474 0.0000
# 2 20.8973 139.4871 53.6984 0.0000 3.7252 0.0000
# 3 29.3713 53.6984 103.9795 0.0000 18.5433 0.0000
# 4 0.0000 0.0000 0.0000 24.1924 0.0000 5.0952
# 5 12.5474 3.7252 18.5433 0.0000 52.6568 0.0000
# 6 0.0000 0.0000 0.0000 5.0952 0.0000 28.0173
#
#
#
# Elastic Compliance Matrix: (Units=1/GPa)
#
#
# Indices 1 2 3 4 5 6 
#
# 1 0.013895 -0.000825 -0.003114 0.000000 -0.002156 0.000000
# 2 -0.000825 0.009053 -0.004655 0.000000 0.001196 0.000000
# 3 -0.003114 -0.004655 0.013562 0.000000 -0.003704 0.000000
# 4 0.000000 0.000000 0.000000 0.042981 0.000000 -0.007817
# 5 -0.002156 0.001196 -0.003704 0.000000 0.020725 0.000000
# 6 0.000000 0.000000 0.000000 -0.007817 0.000000 0.037114
#
#
# Mechanical properties :
#
#
# Convention : Reuss Voigt Hill
#
# Bulk Modulus (GPa) = 51.75973 59.23774 55.49873
# Shear Modulus (GPa) = 31.06373 35.72256 33.39314
#
# Velocity S-wave (km/s) = 3.59105 3.85093 3.72326
# Velocity P-wave (km/s) = 6.21944 6.66067 6.44384
#
# Compressibility (1/GPa) = 0.01932004
#
# Stress axis : x y z
#
# Youngs Moduli (GPa) = 71.96817 110.46064 73.73649
#
# Poissons Ratio (x) = 0.09115 0.22964
# Poissons Ratio (y) = 0.05939 0.34327
# Poissons Ratio (z) = 0.22413 0.51424
#
# Static dielectric constant tensor:
#      x y z
#    x 2.491570 0.000000 0.129380 
#    y 0.000000 1.890150 0.000000 
#    z 0.129380 0.000000 1.992370 
# 
# From -- ./inp_files/58763.got.cif
#   From: 2010.05.17/outbox.cif.g08.bks.cpg/sg15_30_cif.got.tgz:58763.got - 2010.06.03 18:47:42.
