data_PCOD9296449
_publ_section_title
;
Structure prediction by ZEFSAII (Michael W. Deem and Ramdas Pophale) SiO2 
 PCOD9296449
Probable space group: C 2/C
;
_chemical_formula_sum "Si O2"
_cell_formula_units_Z 24
_cell_length_a 6.866001
_cell_length_b 16.828748
_cell_length_c 8.214400
_cell_angle_alpha 90.000000
_cell_angle_beta 94.856073
_cell_angle_gamma 90.000000
_cell_volume 945.735753
_symmetry_space_group_name_H-M "C 2/C"
_symmetry_group_IT_number 15
_symmetry_cell_setting 'monoclinic'
loop_
_space_group_symop_operation_xyz
x,y,z
-x,y,1/2-z
-x,-y,-z
x,-y,1/2+z
1/2+x,1/2+y,z
1/2-x,1/2+y,1/2-z
1/2-x,1/2-y,-z
1/2+x,1/2-y,1/2+z
loop_
_atom_site_type_symbol
_atom_site_label
_atom_site_fract_x
_atom_site_fract_y
_atom_site_fract_z
Si Si1 0.155228 0.483781 0.153200
Si Si2 0.465195 0.252941 0.438969
Si Si3 0.267655 0.381680 0.913041
O O1 0.000000 0.434603 0.250000
O O2 0.764119 0.559832 0.242581
O O3 0.320391 0.436591 0.071784
O O4 0.000000 0.500000 0.000000
O O5 0.500000 0.279036 0.250000
O O6 0.577813 0.311399 0.570479
O O7 0.569359 0.166901 0.440120
O O8 0.250000 0.250000 0.500000
#
# Coordination Sequence:
#
# PCOD9296449 Si02
#       3
#     8   8   8
#     4   9  18  38  73 109 151 192 248 320 389 460
#     4  11  26  48  77 108 154 207 267 315 388 471
#     4  10  23  44  77 110 151 203 256 325 394 459
#
# _framework density 25.377068999999999
#
# number of rings (size 3 to 8) (size 9 to 14) (size 15 to 20)
#    0.000    2.000    0.000    3.000    4.667    4.000 
#    0.000    5.000    0.000    2.000    0.000    0.000 
#    0.000    0.000    0.000    0.000    0.000    0.000 
#
# Total GULP energy -66812.942397 kJ/mol
# GULP energy per Si atom -5567.745200 kJ/mol
# Density = 2.531931 g / cm^3
# Si number density = 25.377069 Si / 1000 Ang^3
#
#
#
# Elastic Constant Matrix: (Units=GPa)
#
#
# Indices 1 2 3 4 5 6 
#
# 1 131.1461 57.3559 47.0452 0.0000 -18.3045 0.0000
# 2 57.3559 172.1839 71.9106 0.0000 15.8310 0.0000
# 3 47.0452 71.9106 159.7443 0.0000 1.9003 0.0000
# 4 0.0000 0.0000 0.0000 56.4218 0.0000 27.8922
# 5 -18.3045 15.8310 1.9003 0.0000 28.9239 0.0000
# 6 0.0000 0.0000 0.0000 27.8922 0.0000 25.8534
#
#
#
# Elastic Compliance Matrix: (Units=1/GPa)
#
#
# Indices 1 2 3 4 5 6 
#
# 1 0.011238 -0.003911 -0.001660 0.000000 0.009361 0.000000
# 2 -0.003911 0.008934 -0.002784 0.000000 -0.007181 0.000000
# 3 -0.001660 -0.002784 0.008003 0.000000 -0.000053 0.000000
# 4 0.000000 0.000000 0.000000 0.037979 0.000000 -0.040974
# 5 0.009361 -0.007181 -0.000053 0.000000 0.044432 0.000000
# 6 0.000000 0.000000 0.000000 -0.040974 0.000000 0.082885
#
#
# Mechanical properties :
#
#
# Convention : Reuss Voigt Hill
#
# Bulk Modulus (GPa) = 87.23504 90.63308 88.93406
# Shear Modulus (GPa) = 23.36423 41.35733 32.36078
#
# Velocity S-wave (km/s) = 3.03757 4.04135 3.57486
# Velocity P-wave (km/s) = 6.83759 7.58741 7.22223
#
# Compressibility (1/GPa) = 0.01146328
#
# Stress axis : x y z
#
# Youngs Moduli (GPa) = 88.98750 111.93774 124.95167
#
# Poissons Ratio (x) = 0.43773 0.20748
# Poissons Ratio (y) = 0.34799 0.34792
# Poissons Ratio (z) = 0.14776 0.31168
#
# Static dielectric constant tensor:
#      x y z
#    x 2.130010 0.000000 -0.132350 
#    y 0.000000 2.131820 0.000000 
#    z -0.132350 0.000000 2.438870 
# 
# From -- ./inp_files/71383.got.cif
#   From: 2010.05.17/outbox.cif.g08.bks.cpg/sg15_36_cif.got.tgz:71383.got - 2010.06.03 18:47:42.
