data_PCOD9296727
_publ_section_title
;
Structure prediction by ZEFSAII (Michael W. Deem and Ramdas Pophale) SiO2 
 PCOD9296727
Probable space group: C 2/C
;
_chemical_formula_sum "Si O2"
_cell_formula_units_Z 24
_cell_length_a 17.539246
_cell_length_b 4.858083
_cell_length_c 10.705232
_cell_angle_alpha 90.000000
_cell_angle_beta 69.868735
_cell_angle_gamma 90.000000
_cell_volume 856.434825
_symmetry_space_group_name_H-M "C 2/C"
_symmetry_group_IT_number 15
_symmetry_cell_setting 'monoclinic'
loop_
_space_group_symop_operation_xyz
x,y,z
-x,y,1/2-z
-x,-y,-z
x,-y,1/2+z
1/2+x,1/2+y,z
1/2-x,1/2+y,1/2-z
1/2-x,1/2-y,-z
1/2+x,1/2-y,1/2+z
loop_
_atom_site_type_symbol
_atom_site_label
_atom_site_fract_x
_atom_site_fract_y
_atom_site_fract_z
Si Si1 0.918007 0.462864 0.331833
Si Si2 0.569183 0.283324 0.429194
Si Si3 0.253790 0.309749 0.170850
O O1 0.925149 0.696625 0.219918
O O2 0.930584 0.475371 0.473494
O O3 0.826456 0.358014 0.363909
O O4 0.000000 0.290021 0.250000
O O5 0.500000 0.500000 0.500000
O O6 0.656974 0.416808 0.413743
O O7 0.237894 0.488388 0.304784
#
# Coordination Sequence:
#
# PCOD9296727 Si02
#       3
#     8   8   8
#     4  11  24  46  72 105 148 196 249 310 375 448
#     4  11  25  47  74 107 149 199 251 313 380 453
#     4  10  23  45  74 110 149 195 251 313 380 453
#
# _framework density 28.023150000000001
#
# number of rings (size 3 to 8) (size 9 to 14) (size 15 to 20)
#    0.000    1.333    0.000    4.000    0.000    9.333 
#    0.000   31.667    0.000    0.000    0.000    0.000 
#    0.000    0.000    0.000    0.000    0.000    0.000 
#
# Total GULP energy -66908.735989 kJ/mol
# GULP energy per Si atom -5575.727999 kJ/mol
# Density = 2.795937 g / cm^3
# Si number density = 28.023150 Si / 1000 Ang^3
#
#
#
# Elastic Constant Matrix: (Units=GPa)
#
#
# Indices 1 2 3 4 5 6 
#
# 1 295.6157 54.9414 120.2536 0.0000 10.1525 0.0000
# 2 54.9414 127.7637 66.6957 0.0000 11.9202 0.0000
# 3 120.2536 66.6957 129.8246 0.0000 10.2045 0.0000
# 4 0.0000 0.0000 0.0000 18.3372 0.0000 -0.8719
# 5 10.1525 11.9202 10.2045 0.0000 75.9713 0.0000
# 6 0.0000 0.0000 0.0000 -0.8719 0.0000 13.2505
#
#
#
# Elastic Compliance Matrix: (Units=1/GPa)
#
#
# Indices 1 2 3 4 5 6 
#
# 1 0.005443 0.000404 -0.005243 0.000000 -0.000087 0.000000
# 2 0.000404 0.010794 -0.005844 0.000000 -0.000963 0.000000
# 3 -0.005243 -0.005844 0.015599 0.000000 -0.000478 0.000000
# 4 0.000000 0.000000 0.000000 0.054705 0.000000 0.003600
# 5 -0.000087 -0.000963 -0.000478 0.000000 0.013390 0.000000
# 6 0.000000 0.000000 0.000000 0.003600 0.000000 0.075706
#
#
# Mechanical properties :
#
#
# Convention : Reuss Voigt Hill
#
# Bulk Modulus (GPa) = 95.50429 115.22061 105.36245
# Shear Modulus (GPa) = 24.93872 42.26604 33.60238
#
# Velocity S-wave (km/s) = 2.98641 3.88784 3.46655
# Velocity P-wave (km/s) = 6.78572 7.83321 7.32821
#
# Compressibility (1/GPa) = 0.01047073
#
# Stress axis : x y z
#
# Youngs Moduli (GPa) = 183.70872 92.64804 64.10725
#
# Poissons Ratio (x) = -0.03745 0.33611
# Poissons Ratio (y) = -0.07426 0.37463
# Poissons Ratio (z) = 0.96318 0.54142
#
# Static dielectric constant tensor:
#      x y z
#    x 2.299390 0.000000 -0.085830 
#    y 0.000000 2.199720 0.000000 
#    z -0.085830 0.000000 2.292550 
# 
# From -- ./inp_files/101915.got.cif
#   From: 2010.05.17/outbox.cif.g08.bks.cpg/sg15_51_cif.got.tgz:101915.got - 2010.06.03 18:47:42.
