data_PCOD9296579
_publ_section_title
;
Structure prediction by ZEFSAII (Michael W. Deem and Ramdas Pophale) SiO2 
 PCOD9296579
Probable space group: C 2/C
;
_chemical_formula_sum "Si O2"
_cell_formula_units_Z 32
_cell_length_a 10.877363
_cell_length_b 8.809911
_cell_length_c 14.995186
_cell_angle_alpha 90.000000
_cell_angle_beta 71.334117
_cell_angle_gamma 90.000000
_cell_volume 1361.384646
_symmetry_space_group_name_H-M "C 2/C"
_symmetry_group_IT_number 15
_symmetry_cell_setting 'monoclinic'
loop_
_space_group_symop_operation_xyz
x,y,z
-x,y,1/2-z
-x,-y,-z
x,-y,1/2+z
1/2+x,1/2+y,z
1/2-x,1/2+y,1/2-z
1/2-x,1/2-y,-z
1/2+x,1/2-y,1/2+z
loop_
_atom_site_type_symbol
_atom_site_label
_atom_site_fract_x
_atom_site_fract_y
_atom_site_fract_z
Si Si1 0.854482 0.116324 0.373500
Si Si2 0.154002 0.631574 0.974319
Si Si3 0.870985 0.110654 0.156217
Si Si4 0.605640 0.962076 0.145909
O O1 0.856421 0.120998 0.265669
O O2 0.860015 0.293261 0.395083
O O3 0.984738 0.039952 0.385404
O O4 0.735097 0.015863 0.429354
O O5 0.117131 0.726203 0.895280
O O6 0.250000 0.750000 0.000000
O O7 0.060157 0.570501 0.074572
O O8 0.744273 0.026756 0.148853
O O9 0.500000 0.960603 0.250000
#
# Coordination Sequence:
#
# PCOD9296579 Si02
#       4
#     8   8   8   8
#     4  11  22  45  68  98 134 179 223 277 332 399
#     4  10  24  45  68 101 135 178 227 272 337 400
#     4  10  23  45  68  98 138 174 227 272 334 400
#     4  11  23  45  65 102 137 178 225 278 333 393
#
# _framework density 23.505481
#
# number of rings (size 3 to 8) (size 9 to 14) (size 15 to 20)
#    0.000    1.500    2.500    2.250    0.000    5.000 
#   31.500    0.000    0.000    0.000    0.000    0.000 
#    0.000    0.000    0.000    0.000    0.000    0.000 
#
# Total GULP energy -89352.598193 kJ/mol
# GULP energy per Si atom -5584.537387 kJ/mol
# Density = 2.345198 g / cm^3
# Si number density = 23.505481 Si / 1000 Ang^3
#
#
#
# Elastic Constant Matrix: (Units=GPa)
#
#
# Indices 1 2 3 4 5 6 
#
# 1 146.0713 47.8166 38.1099 0.0000 5.8147 0.0000
# 2 47.8166 97.5770 41.2535 0.0000 -7.3235 0.0000
# 3 38.1099 41.2535 120.2347 0.0000 0.5893 0.0000
# 4 0.0000 0.0000 0.0000 36.5004 0.0000 6.3917
# 5 5.8147 -7.3235 0.5893 0.0000 25.1806 0.0000
# 6 0.0000 0.0000 0.0000 6.3917 0.0000 28.1186
#
#
#
# Elastic Compliance Matrix: (Units=1/GPa)
#
#
# Indices 1 2 3 4 5 6 
#
# 1 0.008592 -0.003855 -0.001385 0.000000 -0.003073 0.000000
# 2 -0.003855 0.014049 -0.003623 0.000000 0.005061 0.000000
# 3 -0.001385 -0.003623 0.010004 0.000000 -0.000968 0.000000
# 4 0.000000 0.000000 0.000000 0.028533 0.000000 -0.006486
# 5 -0.003073 0.005061 -0.000968 0.000000 0.041917 0.000000
# 6 0.000000 0.000000 0.000000 -0.006486 0.000000 0.037038
#
#
# Mechanical properties :
#
#
# Convention : Reuss Voigt Hill
#
# Bulk Modulus (GPa) = 67.03634 68.69367 67.86501
# Shear Modulus (GPa) = 30.70624 33.74012 32.22318
#
# Velocity S-wave (km/s) = 3.61826 3.79280 3.70656
# Velocity P-wave (km/s) = 6.78506 6.96192 6.87406
#
# Compressibility (1/GPa) = 0.01491728
#
# Stress axis : x y z
#
# Youngs Moduli (GPa) = 116.39064 71.17846 99.95882
#
# Poissons Ratio (x) = 0.27441 0.13849
# Poissons Ratio (y) = 0.44871 0.36218
# Poissons Ratio (z) = 0.16125 0.25790
#
# Static dielectric constant tensor:
#      x y z
#    x 1.980980 0.000000 0.034570 
#    y 0.000000 1.853720 0.000000 
#    z 0.034570 0.000000 1.924640 
# 
# From -- ./inp_files/140720.got.cif
#   From: 2010.05.17/outbox.cif.g08.bks.cpg/sg15_71_cif.got.tgz:140720.got - 2010.06.03 18:47:42.
