data_PCOD9296432
_publ_section_title
;
Structure prediction by ZEFSAII (Michael W. Deem and Ramdas Pophale) SiO2 
 PCOD9296432
Probable space group: C 2/C
;
_chemical_formula_sum "Si O2"
_cell_formula_units_Z 44
_cell_length_a 19.567944
_cell_length_b 10.815159
_cell_length_c 9.688754
_cell_angle_alpha 90.000000
_cell_angle_beta 119.831937
_cell_angle_gamma 90.000000
_cell_volume 1778.728493
_symmetry_space_group_name_H-M "C 2/C"
_symmetry_group_IT_number 15
_symmetry_cell_setting 'monoclinic'
loop_
_space_group_symop_operation_xyz
x,y,z
-x,y,1/2-z
-x,-y,-z
x,-y,1/2+z
1/2+x,1/2+y,z
1/2-x,1/2+y,1/2-z
1/2-x,1/2-y,-z
1/2+x,1/2-y,1/2+z
loop_
_atom_site_type_symbol
_atom_site_label
_atom_site_fract_x
_atom_site_fract_y
_atom_site_fract_z
Si Si1 0.241423 0.999628 0.598462
Si Si2 0.638144 0.780561 0.333044
Si Si3 0.952176 0.350523 0.519387
Si Si4 0.000000 0.862609 0.250000
Si Si5 0.357800 0.495441 0.244370
Si Si6 0.381337 0.097702 0.410064
O O1 0.288220 0.128162 0.621578
O O2 0.209673 0.941613 0.425157
O O3 0.167303 0.022465 0.624032
O O4 0.301977 0.914157 0.744055
O O5 0.570153 0.828405 0.162371
O O6 0.647688 0.639952 0.298709
O O7 0.619950 0.798569 0.475046
O O8 0.945797 0.227144 0.601586
O O9 0.898908 0.467511 0.506509
O O10 0.044165 0.384800 0.614582
O O11 0.057772 0.941939 0.212160
#
# Coordination Sequence:
#
# PCOD9296432 Si02
#       6
#     8   8   8   4   8   8
#     4  11  25  46  73 107 140 189 240 292 356 416
#     4  11  24  46  75 104 141 195 236 290 359 428
#     4  10  25  43  72 108 141 182 240 295 356 415
#     4  12  30  46  68 106 146 188 234 300 360 418
#     4  12  28  48  71 104 149 191 240 288 363 437
#     4  10  23  44  75 104 138 182 241 299 343 423
#
# _framework density 24.736771999999998
#
# number of rings (size 3 to 8) (size 9 to 14) (size 15 to 20)
#    0.000    1.091    1.818    2.182   12.727    1.455 
#    0.000    3.636    0.000    0.000    0.000    0.000 
#    0.000    0.000    0.000    0.000    0.000    0.000 
#
# Total GULP energy -123262.688053 kJ/mol
# GULP energy per Si atom -5602.849457 kJ/mol
# Density = 2.468047 g / cm^3
# Si number density = 24.736772 Si / 1000 Ang^3
#
#
#
# Elastic Constant Matrix: (Units=GPa)
#
#
# Indices 1 2 3 4 5 6 
#
# 1 67.6973 -4.6501 -27.5847 0.0000 5.4542 0.0000
# 2 -4.6501 62.9828 0.7530 0.0000 5.3565 0.0000
# 3 -27.5847 0.7530 62.4231 0.0000 5.5981 0.0000
# 4 0.0000 0.0000 0.0000 30.1159 0.0000 -2.1594
# 5 5.4542 5.3565 5.5981 0.0000 28.4356 0.0000
# 6 0.0000 0.0000 0.0000 -2.1594 0.0000 28.6215
#
#
#
# Elastic Compliance Matrix: (Units=1/GPa)
#
#
# Indices 1 2 3 4 5 6 
#
# 1 0.018971 0.001781 0.008875 0.000000 -0.005722 0.000000
# 2 0.001781 0.016303 0.000913 0.000000 -0.003592 0.000000
# 3 0.008875 0.000913 0.020460 0.000000 -0.005902 0.000000
# 4 0.000000 0.000000 0.000000 0.033386 0.000000 0.002519
# 5 -0.005722 -0.003592 -0.005902 0.000000 0.038103 0.000000
# 6 0.000000 0.000000 0.000000 0.002519 0.000000 0.035129
#
#
# Mechanical properties :
#
#
# Convention : Reuss Voigt Hill
#
# Bulk Modulus (GPa) = 12.67877 14.45997 13.56937
# Shear Modulus (GPa) = 30.21049 32.40694 31.30872
#
# Velocity S-wave (km/s) = 3.49847 3.62342 3.56149
# Velocity P-wave (km/s) = 4.63203 4.83361 4.73389
#
# Compressibility (1/GPa) = 0.07887198
#
# Stress axis : x y z
#
# Youngs Moduli (GPa) = 52.71135 61.33667 48.87628
#
# Poissons Ratio (x) = -0.10925 -0.43378
# Poissons Ratio (y) = -0.09389 -0.04460
# Poissons Ratio (z) = -0.46781 -0.05597
#
# Static dielectric constant tensor:
#      x y z
#    x 1.953320 0.000000 0.039670 
#    y 0.000000 1.993070 0.000000 
#    z 0.039670 0.000000 1.980750 
# 
# From -- ./inp_files/54538.got.cif
#   From: 2010.05.17/outbox.cif.g08.bks.cpg/sg15_28_cif.got.tgz:54538.got - 2010.06.03 18:47:42.
