data_PCOD9296946
_publ_section_title
;
Structure prediction by ZEFSAII (Michael W. Deem and Ramdas Pophale) SiO2 
 PCOD9296946
Probable space group: C 2/C
;
_chemical_formula_sum "Si O2"
_cell_formula_units_Z 56
_cell_length_a 17.367539
_cell_length_b 7.339007
_cell_length_c 15.661738
_cell_angle_alpha 90.000000
_cell_angle_beta 106.561413
_cell_angle_gamma 90.000000
_cell_volume 1913.437777
_symmetry_space_group_name_H-M "C 2/C"
_symmetry_group_IT_number 15
_symmetry_cell_setting 'monoclinic'
loop_
_space_group_symop_operation_xyz
x,y,z
-x,y,1/2-z
-x,-y,-z
x,-y,1/2+z
1/2+x,1/2+y,z
1/2-x,1/2+y,1/2-z
1/2-x,1/2-y,-z
1/2+x,1/2-y,1/2+z
loop_
_atom_site_type_symbol
_atom_site_label
_atom_site_fract_x
_atom_site_fract_y
_atom_site_fract_z
Si Si1 0.669893 0.125045 0.161066
Si Si2 0.000000 0.911088 0.750000
Si Si3 0.859650 0.438173 0.630833
Si Si4 0.243676 0.728391 0.681432
Si Si5 0.501172 0.279322 0.391409
Si Si6 0.750000 0.250000 0.000000
Si Si7 0.321181 0.346349 0.651948
Si Si8 0.654186 0.617329 0.005094
O O1 0.760004 0.225348 0.217874
O O2 0.587782 0.226085 0.116808
O O3 0.664813 0.120930 0.279423
O O4 0.665038 0.908835 0.151522
O O5 0.001319 0.048570 0.671059
O O6 0.914793 0.810257 0.712296
O O7 0.952592 0.391305 0.641170
O O8 0.819638 0.633806 0.594731
O O9 0.825322 0.289671 0.550733
O O10 0.307225 0.561007 0.680740
O O11 0.204073 0.881730 0.606782
O O12 0.560054 0.345461 0.485368
O O13 0.713684 0.161689 0.076453
O O14 0.325508 0.428241 0.539027
#
# Coordination Sequence:
#
# PCOD9296946 Si02
#       8
#     8   4   8   8   8   4   8   8
#     4  12  27  44  69 111 156 203 237 323 391 454
#     4  12  24  48  72 112 144 204 258 322 360 464
#     4  10  23  46  74 104 134 199 250 311 356 451
#     4  12  24  44  72 107 153 197 258 305 389 450
#     4  10  24  47  72 106 151 196 252 314 382 437
#     4  12  22  48  78 112 134 196 258 310 370 448
#     4  12  26  43  77 107 147 189 260 302 384 452
#     4  10  24  46  80 108 142 198 255 322 360 460
#
# _framework density 29.266696
#
# number of rings (size 3 to 8) (size 9 to 14) (size 15 to 20)
#    0.857    0.000    2.857    4.714    2.000    3.429 
#    0.000    2.143    0.000    0.000    0.000    0.000 
#    0.000    0.000    0.000    0.000    0.000    0.000 
#
# Total GULP energy -156126.418107 kJ/mol
# GULP energy per Si atom -5575.943504 kJ/mol
# Density = 2.920008 g / cm^3
# Si number density = 29.266696 Si / 1000 Ang^3
#
#
#
# Elastic Constant Matrix: (Units=GPa)
#
#
# Indices 1 2 3 4 5 6 
#
# 1 220.0704 71.0663 85.8691 0.0000 30.5875 0.0000
# 2 71.0663 232.8473 69.7327 0.0000 -5.6800 0.0000
# 3 85.8691 69.7327 221.4886 0.0000 17.7633 0.0000
# 4 0.0000 0.0000 0.0000 65.0678 0.0000 -4.3553
# 5 30.5875 -5.6800 17.7633 0.0000 66.6234 0.0000
# 6 0.0000 0.0000 0.0000 -4.3553 0.0000 62.5875
#
#
#
# Elastic Compliance Matrix: (Units=1/GPa)
#
#
# Indices 1 2 3 4 5 6 
#
# 1 0.005985 -0.001379 -0.001693 0.000000 -0.002414 0.000000
# 2 -0.001379 0.005104 -0.001183 0.000000 0.001384 0.000000
# 3 -0.001693 -0.001183 0.005609 0.000000 -0.000819 0.000000
# 4 0.000000 0.000000 0.000000 0.015440 0.000000 0.001074
# 5 -0.002414 0.001384 -0.000819 0.000000 0.016454 0.000000
# 6 0.000000 0.000000 0.000000 0.001074 0.000000 0.016052
#
#
# Mechanical properties :
#
#
# Convention : Reuss Voigt Hill
#
# Bulk Modulus (GPa) = 122.11734 125.30473 123.71103
# Shear Modulus (GPa) = 65.88958 68.70494 67.29726
#
# Velocity S-wave (km/s) = 4.74999 4.85041 4.80046
# Velocity P-wave (km/s) = 8.47935 8.61837 8.54914
#
# Compressibility (1/GPa) = 0.00818885
#
# Stress axis : x y z
#
# Youngs Moduli (GPa) = 167.07774 195.94224 178.27193
#
# Poissons Ratio (x) = 0.27014 0.30177
# Poissons Ratio (y) = 0.23035 0.21094
# Poissons Ratio (z) = 0.28282 0.23185
#
# Static dielectric constant tensor:
#      x y z
#    x 2.503280 0.000000 -0.100640 
#    y 0.000000 2.265120 0.000000 
#    z -0.100640 0.000000 2.528770 
# 
# From -- ./inp_files/251986.got.cif
#   From: 2010.05.17/outbox.cif.g08.bks.cpg/sg15_126_cif.got.tgz:251986.got - 2010.06.03 18:47:42.
