data_PCOD9296630
_publ_section_title
;
Structure prediction by ZEFSAII (Michael W. Deem and Ramdas Pophale) SiO2 
 PCOD9296630
Probable space group: C 2/C
;
_chemical_formula_sum "Si O2"
_cell_formula_units_Z 60
_cell_length_a 24.334246
_cell_length_b 21.408366
_cell_length_c 8.382748
_cell_angle_alpha 90.000000
_cell_angle_beta 137.720909
_cell_angle_gamma 90.000000
_cell_volume 2937.898082
_symmetry_space_group_name_H-M "C 2/C"
_symmetry_group_IT_number 15
_symmetry_cell_setting 'monoclinic'
loop_
_space_group_symop_operation_xyz
x,y,z
-x,y,1/2-z
-x,-y,-z
x,-y,1/2+z
1/2+x,1/2+y,z
1/2-x,1/2+y,1/2-z
1/2-x,1/2-y,-z
1/2+x,1/2-y,1/2+z
loop_
_atom_site_type_symbol
_atom_site_label
_atom_site_fract_x
_atom_site_fract_y
_atom_site_fract_z
Si Si1 0.711161 0.075895 0.864867
Si Si2 0.500000 0.153240 0.750000
Si Si3 0.585122 0.406443 0.365993
Si Si4 0.479447 0.930053 0.513910
Si Si5 0.800641 0.985849 0.303213
Si Si6 0.412188 0.365735 0.477770
Si Si7 0.346438 0.242169 0.493353
Si Si8 0.307922 0.312954 0.711836
O O1 0.752841 0.142574 0.980632
O O2 0.763325 0.027606 0.083297
O O3 0.617762 0.078530 0.709134
O O4 0.723471 0.047809 0.717310
O O5 0.485530 0.114122 0.553962
O O6 0.419197 0.195193 0.606248
O O7 0.500000 0.431837 0.250000
O O8 0.648748 0.463117 0.485892
O O9 0.572637 0.369466 0.176992
O O10 0.623584 0.357231 0.570059
O O11 0.500000 0.920792 0.750000
O O12 0.500000 0.000000 0.500000
O O13 0.863084 0.929255 0.409191
O O14 0.362035 0.305030 0.426083
O O15 0.500000 0.364630 0.750000
O O16 0.348210 0.261771 0.684394
O O17 0.255011 0.212976 0.289925
#
# Coordination Sequence:
#
# PCOD9296630 Si02
#       8
#     8   4   8   8   8   8   8   8
#     4  11  22  43  66 100 135 173 228 284 354 410
#     4  12  26  48  72 110 144 184 238 292 352 424
#     4  11  25  41  63  99 133 174 231 284 348 417
#     4  12  26  48  76 108 142 182 230 298 361 422
#     4  11  23  39  67  97 133 176 221 287 343 416
#     4  12  24  40  66  95 134 180 225 280 340 409
#     4  11  23  45  71  97 137 184 230 284 347 411
#     4  10  23  45  70  91 137 184 227 289 349 410
#
# _framework density 20.422764000000001
#
# number of rings (size 3 to 8) (size 9 to 14) (size 15 to 20)
#    0.000    0.800    5.333    2.000    1.867    1.600 
#    4.800    0.000    0.000    0.000    0.000    0.000 
#    0.000    0.000    0.000    0.000    0.000    0.000 
#
# Total GULP energy -167359.809558 kJ/mol
# GULP energy per Si atom -5578.660319 kJ/mol
# Density = 2.037628 g / cm^3
# Si number density = 20.422764 Si / 1000 Ang^3
#
#
#
# Elastic Constant Matrix: (Units=GPa)
#
#
# Indices 1 2 3 4 5 6 
#
# 1 120.7692 47.7245 25.0760 0.0000 9.2768 0.0000
# 2 47.7245 108.1784 25.0218 0.0000 -5.3201 0.0000
# 3 25.0760 25.0218 59.0485 0.0000 0.4956 0.0000
# 4 0.0000 0.0000 0.0000 8.5434 0.0000 14.3083
# 5 9.2768 -5.3201 0.4956 0.0000 31.0983 0.0000
# 6 0.0000 0.0000 0.0000 14.3083 0.0000 32.4959
#
#
#
# Elastic Compliance Matrix: (Units=1/GPa)
#
#
# Indices 1 2 3 4 5 6 
#
# 1 0.010874 -0.004358 -0.002738 0.000000 -0.003946 0.000000
# 2 -0.004358 0.012099 -0.003305 0.000000 0.003423 0.000000
# 3 -0.002738 -0.003305 0.019499 0.000000 -0.000059 0.000000
# 4 0.000000 0.000000 0.000000 0.445766 0.000000 -0.196276
# 5 -0.003946 0.003423 -0.000059 0.000000 0.033920 0.000000
# 6 0.000000 0.000000 0.000000 -0.196276 0.000000 0.117195
#
#
# Mechanical properties :
#
#
# Convention : Reuss Voigt Hill
#
# Bulk Modulus (GPa) = 46.14648 53.73785 49.94216
# Shear Modulus (GPa) = 7.49200 27.10578 17.29889
#
# Velocity S-wave (km/s) = 1.91740 3.64707 2.91355
# Velocity P-wave (km/s) = 5.24848 6.64114 5.98545
#
# Compressibility (1/GPa) = 0.02167013
#
# Stress axis : x y z
#
# Youngs Moduli (GPa) = 91.96256 82.64898 51.28454
#
# Poissons Ratio (x) = 0.36018 0.14042
# Poissons Ratio (y) = 0.40077 0.16950
# Poissons Ratio (z) = 0.25180 0.27317
#
# Static dielectric constant tensor:
#      x y z
#    x 1.767320 0.000000 -0.031470 
#    y 0.000000 1.714970 0.000000 
#    z -0.031470 0.000000 1.709660 
# 
# From -- ./inp_files/63520.got.cif
#   From: 2010.05.17/outbox.cif.g08.bks.cpg/sg15_32_cif.got.tgz:63520.got - 2010.06.03 18:47:42.
