data_PCOD9296212
_publ_section_title
;
Structure prediction by ZEFSAII (Michael W. Deem and Ramdas Pophale) SiO2 
 PCOD9296212
Probable space group: C 2/C
;
_chemical_formula_sum "Si O2"
_cell_formula_units_Z 56
_cell_length_a 15.625358
_cell_length_b 11.249223
_cell_length_c 13.307042
_cell_angle_alpha 90.000000
_cell_angle_beta 68.896553
_cell_angle_gamma 90.000000
_cell_volume 2182.146792
_symmetry_space_group_name_H-M "C 2/C"
_symmetry_group_IT_number 15
_symmetry_cell_setting 'monoclinic'
loop_
_space_group_symop_operation_xyz
x,y,z
-x,y,1/2-z
-x,-y,-z
x,-y,1/2+z
1/2+x,1/2+y,z
1/2-x,1/2+y,1/2-z
1/2-x,1/2-y,-z
1/2+x,1/2-y,1/2+z
loop_
_atom_site_type_symbol
_atom_site_label
_atom_site_fract_x
_atom_site_fract_y
_atom_site_fract_z
Si Si1 0.223446 0.279681 0.798739
Si Si2 0.075441 0.281742 0.000427
Si Si3 0.343156 0.564594 0.814080
Si Si4 0.501048 0.417719 0.096583
Si Si5 0.604933 0.942494 0.709003
Si Si6 0.149696 0.461673 0.468080
Si Si7 0.413045 0.801978 0.188234
O O1 0.179946 0.246596 0.925865
O O2 0.200661 0.173737 0.729825
O O3 0.166725 0.385422 0.769549
O O4 0.332937 0.288057 0.752054
O O5 0.083150 0.424052 0.996236
O O6 0.025910 0.213419 0.930229
O O7 0.015319 0.251350 0.124619
O O8 0.402727 0.591123 0.887761
O O9 0.423135 0.529287 0.702613
O O10 0.252042 0.499260 0.891533
O O11 0.500000 0.500000 0.000000
O O12 0.500000 0.897041 0.750000
O O13 0.650755 0.919702 0.582538
O O14 0.597348 0.083011 0.735904
O O15 0.112085 0.360864 0.409805
#
# Coordination Sequence:
#
# PCOD9296212 Si02
#       7
#     8   8   8   8   8   8   8
#     4  10  24  40  68 100 135 183 224 290 347 410
#     4  11  22  43  67  97 136 183 225 286 349 404
#     4   9  23  41  64 102 135 166 250 274 336 425
#     4  10  23  44  69  95 137 188 225 284 350 416
#     4  12  24  41  73 101 139 180 235 288 345 411
#     4  11  23  39  68 100 135 177 223 294 343 403
#     4  11  24  44  66 104 142 174 237 284 353 417
#
# _framework density 25.662803
#
# number of rings (size 3 to 8) (size 9 to 14) (size 15 to 20)
#    0.000    1.429    2.857    1.286    8.000    5.714 
#    0.000    5.714    0.000    0.000    0.000    0.000 
#    0.000    0.000    0.000    0.000    0.000    0.000 
#
# Total GULP energy -156438.140594 kJ/mol
# GULP energy per Si atom -5587.076450 kJ/mol
# Density = 2.560439 g / cm^3
# Si number density = 25.662803 Si / 1000 Ang^3
#
#
#
# Elastic Constant Matrix: (Units=GPa)
#
#
# Indices 1 2 3 4 5 6 
#
# 1 127.8411 30.8414 62.6842 0.0000 -40.3214 0.0000
# 2 30.8414 37.6044 13.6632 0.0000 -21.3272 0.0000
# 3 62.6842 13.6632 135.4949 0.0000 -26.3022 0.0000
# 4 0.0000 0.0000 0.0000 39.4317 0.0000 -12.2017
# 5 -40.3214 -21.3272 -26.3022 0.0000 52.8660 0.0000
# 6 0.0000 0.0000 0.0000 -12.2017 0.0000 28.0849
#
#
#
# Elastic Compliance Matrix: (Units=1/GPa)
#
#
# Indices 1 2 3 4 5 6 
#
# 1 0.013169 -0.006152 -0.004432 0.000000 0.005357 0.000000
# 2 -0.006152 0.037447 0.001208 0.000000 0.011016 0.000000
# 3 -0.004432 0.001208 0.009683 0.000000 0.001924 0.000000
# 4 0.000000 0.000000 0.000000 0.029299 0.000000 0.012729
# 5 0.005357 0.011016 0.001924 0.000000 0.028403 0.000000
# 6 0.000000 0.000000 0.000000 0.012729 0.000000 0.041137
#
#
# Mechanical properties :
#
#
# Convention : Reuss Voigt Hill
#
# Bulk Modulus (GPa) = 24.06926 57.25755 40.66340
# Shear Modulus (GPa) = 26.07721 36.99330 31.53526
#
# Velocity S-wave (km/s) = 3.19117 3.80085 3.50927
# Velocity P-wave (km/s) = 4.79348 6.45150 5.68328
#
# Compressibility (1/GPa) = 0.04154678
#
# Stress axis : x y z
#
# Youngs Moduli (GPa) = 75.93380 26.70462 103.27886
#
# Poissons Ratio (x) = 0.16429 0.45775
# Poissons Ratio (y) = 0.46715 -0.12480
# Poissons Ratio (z) = 0.33656 -0.03227
#
# Static dielectric constant tensor:
#      x y z
#    x 2.014190 0.000000 -0.046040 
#    y 0.000000 2.087670 0.000000 
#    z -0.046040 0.000000 2.058280 
# 
# From -- ./inp_files/161222.got.cif
#   From: 2010.05.17/outbox.cif.g08.bks.cpg/sg15_81_cif.got.tgz:161222.got - 2010.06.03 18:47:42.
