data_PCOD9296667
_publ_section_title
;
Structure prediction by ZEFSAII (Michael W. Deem and Ramdas Pophale) SiO2 
 PCOD9296667
Probable space group: C 2/C
;
_chemical_formula_sum "Si O2"
_cell_formula_units_Z 52
_cell_length_a 14.671681
_cell_length_b 12.440666
_cell_length_c 13.535823
_cell_angle_alpha 90.000000
_cell_angle_beta 67.466233
_cell_angle_gamma 90.000000
_cell_volume 2282.009315
_symmetry_space_group_name_H-M "C 2/C"
_symmetry_group_IT_number 15
_symmetry_cell_setting 'monoclinic'
loop_
_space_group_symop_operation_xyz
x,y,z
-x,y,1/2-z
-x,-y,-z
x,-y,1/2+z
1/2+x,1/2+y,z
1/2-x,1/2+y,1/2-z
1/2-x,1/2-y,-z
1/2+x,1/2-y,1/2+z
loop_
_atom_site_type_symbol
_atom_site_label
_atom_site_fract_x
_atom_site_fract_y
_atom_site_fract_z
Si Si1 0.254227 0.900663 0.661874
Si Si2 0.500000 0.133008 0.750000
Si Si3 0.640626 0.758588 0.327680
Si Si4 0.388164 0.849403 0.782882
Si Si5 0.677095 0.383358 0.165230
Si Si6 0.694385 0.028133 0.577517
Si Si7 0.607411 0.449991 0.974809
O O1 0.199867 0.788545 0.707261
O O2 0.340585 0.902655 0.706344
O O3 0.296223 0.923780 0.535748
O O4 0.177726 0.998391 0.712063
O O5 0.461421 0.196582 0.670375
O O6 0.601284 0.076179 0.673233
O O7 0.710185 0.841467 0.358881
O O8 0.622379 0.654530 0.401660
O O9 0.500000 0.877893 0.750000
O O10 0.380036 0.721565 0.774697
O O11 0.328574 0.899484 0.900439
O O12 0.631466 0.408795 0.076267
O O13 0.803974 0.036710 0.577628
O O14 0.500000 0.500000 0.000000
#
# Coordination Sequence:
#
# PCOD9296667 Si02
#       7
#     8   4   8   8   8   8   8
#     4  10  24  44  73  99 147 184 238 304 358 439
#     4  12  28  46  74 102 152 192 234 314 376 438
#     4  11  25  45  70 106 145 189 245 297 378 439
#     4  11  23  44  69 111 138 186 249 289 360 452
#     4  10  23  45  72 100 142 192 231 307 359 424
#     4  11  24  48  71 104 147 185 243 300 369 432
#     4  11  25  47  75 105 146 190 249 305 362 440
#
# _framework density 22.786936000000001
#
# number of rings (size 3 to 8) (size 9 to 14) (size 15 to 20)
#    0.000    1.231    3.846    1.385    6.462    3.692 
#    2.769    0.000    0.000    0.000    0.000    0.000 
#    0.000    0.000    0.000    0.000    0.000    0.000 
#
# Total GULP energy -144962.343208 kJ/mol
# GULP energy per Si atom -5575.474739 kJ/mol
# Density = 2.273507 g / cm^3
# Si number density = 22.786936 Si / 1000 Ang^3
#
#
#
# Elastic Constant Matrix: (Units=GPa)
#
#
# Indices 1 2 3 4 5 6 
#
# 1 202.2653 52.1776 44.9691 0.0000 1.6838 0.0000
# 2 52.1776 85.5958 28.7099 0.0000 6.4738 0.0000
# 3 44.9691 28.7099 86.2816 0.0000 16.2070 0.0000
# 4 0.0000 0.0000 0.0000 26.7574 0.0000 8.4656
# 5 1.6838 6.4738 16.2070 0.0000 36.0882 0.0000
# 6 0.0000 0.0000 0.0000 8.4656 0.0000 41.9707
#
#
#
# Elastic Compliance Matrix: (Units=1/GPa)
#
#
# Indices 1 2 3 4 5 6 
#
# 1 0.006289 -0.003098 -0.002508 0.000000 0.001389 0.000000
# 2 -0.003098 0.014682 -0.003062 0.000000 -0.001114 0.000000
# 3 -0.002508 -0.003062 0.015061 0.000000 -0.006098 0.000000
# 4 0.000000 0.000000 0.000000 0.039920 0.000000 -0.008052
# 5 0.001389 -0.001114 -0.006098 0.000000 0.030583 0.000000
# 6 0.000000 0.000000 0.000000 -0.008052 0.000000 0.025450
#
#
# Mechanical properties :
#
#
# Convention : Reuss Voigt Hill
#
# Bulk Modulus (GPa) = 53.48137 69.53956 61.51047
# Shear Modulus (GPa) = 32.14324 37.51566 34.82945
#
# Velocity S-wave (km/s) = 3.75987 4.06195 3.91382
# Velocity P-wave (km/s) = 6.50922 7.25140 6.89031
#
# Compressibility (1/GPa) = 0.01869810
#
# Stress axis : x y z
#
# Youngs Moduli (GPa) = 159.00574 68.10949 66.39564
#
# Poissons Ratio (x) = 0.21097 0.16652
# Poissons Ratio (y) = 0.49252 0.20329
# Poissons Ratio (z) = 0.39878 0.20854
#
# Static dielectric constant tensor:
#      x y z
#    x 1.817560 0.000000 -0.019550 
#    y 0.000000 1.889690 0.000000 
#    z -0.019550 0.000000 1.927770 
# 
# From -- ./inp_files/152552.got.cif
#   From: 2010.05.17/outbox.cif.g08.bks.cpg/sg15_77_cif.got.tgz:152552.got - 2010.06.03 18:47:42.
