data_PCOD9296644
_publ_section_title
;
Structure prediction by ZEFSAII (Michael W. Deem and Ramdas Pophale) SiO2 
 PCOD9296644
Probable space group: C 2/C
;
_chemical_formula_sum "Si O2"
_cell_formula_units_Z 32
_cell_length_a 22.645406
_cell_length_b 5.192267
_cell_length_c 14.110949
_cell_angle_alpha 90.000000
_cell_angle_beta 52.783944
_cell_angle_gamma 90.000000
_cell_volume 1321.304881
_symmetry_space_group_name_H-M "C 2/C"
_symmetry_group_IT_number 15
_symmetry_cell_setting 'monoclinic'
loop_
_space_group_symop_operation_xyz
x,y,z
-x,y,1/2-z
-x,-y,-z
x,-y,1/2+z
1/2+x,1/2+y,z
1/2-x,1/2+y,1/2-z
1/2-x,1/2-y,-z
1/2+x,1/2-y,1/2+z
loop_
_atom_site_type_symbol
_atom_site_label
_atom_site_fract_x
_atom_site_fract_y
_atom_site_fract_z
Si Si1 0.221406 0.228014 0.830919
Si Si2 0.916764 0.089397 0.067316
Si Si3 0.085151 0.685365 0.132114
Si Si4 0.153378 0.186609 0.160737
O O1 0.261362 0.970535 0.752114
O O2 0.136339 0.147853 0.910304
O O3 0.260793 0.289114 0.891694
O O4 0.887340 0.187614 0.196619
O O5 0.912176 0.283793 0.983714
O O6 0.000000 0.000000 0.000000
O O7 0.119401 0.421234 0.135689
O O8 0.000000 0.709215 0.250000
O O9 0.132478 0.918935 0.131393
#
# Coordination Sequence:
#
# PCOD9296644 Si02
#       4
#     8   8   8   8
#     4  10  23  45  71 103 141 187 233 289 352 417
#     4  11  25  47  75 105 141 192 231 291 358 414
#     4  12  26  43  72 106 139 183 237 290 349 413
#     4  11  25  47  70 101 146 178 236 293 342 421
#
# _framework density 24.218482000000002
#
# number of rings (size 3 to 8) (size 9 to 14) (size 15 to 20)
#    0.000    1.000    2.500    3.750    0.000    9.000 
#    0.000    0.000    0.000    0.000    0.000    0.000 
#    0.000    0.000    0.000    0.000    0.000    0.000 
#
# Total GULP energy -89755.410169 kJ/mol
# GULP energy per Si atom -5609.713136 kJ/mol
# Density = 2.416336 g / cm^3
# Si number density = 24.218482 Si / 1000 Ang^3
#
#
#
# Elastic Constant Matrix: (Units=GPa)
#
#
# Indices 1 2 3 4 5 6 
#
# 1 186.0165 49.8817 60.2548 0.0022 -19.2437 0.0012
# 2 49.8817 141.8690 42.3102 0.0035 -5.9888 0.0071
# 3 60.2548 42.3102 125.0881 -0.0005 30.8577 -0.0009
# 4 0.0022 0.0035 -0.0005 21.4429 0.0013 12.4166
# 5 -19.2437 -5.9888 30.8577 0.0013 59.1749 0.0022
# 6 0.0012 0.0071 -0.0009 12.4166 0.0022 45.8641
#
#
#
# Elastic Compliance Matrix: (Units=1/GPa)
#
#
# Indices 1 2 3 4 5 6 
#
# 1 0.007599 -0.001158 -0.004418 -0.000001 0.004658 0.000000
# 2 -0.001158 0.008351 -0.002735 -0.000001 0.001895 -0.000001
# 3 -0.004418 -0.002735 0.013164 0.000001 -0.008578 0.000001
# 4 -0.000001 -0.000001 0.000001 0.055305 -0.000002 -0.014972
# 5 0.004658 0.001895 -0.008578 -0.000002 0.023079 -0.000001
# 6 0.000000 -0.000001 0.000001 -0.014972 -0.000001 0.025857
#
#
# Mechanical properties :
#
#
# Convention : Reuss Voigt Hill
#
# Bulk Modulus (GPa) = 80.04100 84.20745 82.12423
# Shear Modulus (GPa) = 32.43805 45.33153 38.88479
#
# Velocity S-wave (km/s) = 3.66374 4.33109 4.01132
# Velocity P-wave (km/s) = 7.14273 7.73670 7.44564
#
# Compressibility (1/GPa) = 0.01249360
#
# Stress axis : x y z
#
# Youngs Moduli (GPa) = 131.59114 119.74174 75.96757
#
# Poissons Ratio (x) = 0.13862 0.33563
# Poissons Ratio (y) = 0.15234 0.20773
# Poissons Ratio (z) = 0.58138 0.32743
#
# Static dielectric constant tensor:
#      x y z
#    x 1.904090 0.000000 -0.025090 
#    y 0.000000 1.852630 0.000000 
#    z -0.025090 0.000000 2.020410 
# 
# From -- ./inp_files/164953.got.cif
#   From: 2010.05.17/outbox.cif.g08.bks.cpg/sg15_83_cif.got.tgz:164953.got - 2010.06.03 18:47:42.
