data_PCOD9296076
_publ_section_title
;
Structure prediction by ZEFSAII (Michael W. Deem and Ramdas Pophale) SiO2 
 PCOD9296076
Probable space group: C 2/C
;
_chemical_formula_sum "Si O2"
_cell_formula_units_Z 44
_cell_length_a 5.800404
_cell_length_b 24.159188
_cell_length_c 14.435290
_cell_angle_alpha 90.000000
_cell_angle_beta 69.572791
_cell_angle_gamma 90.000000
_cell_volume 1895.656332
_symmetry_space_group_name_H-M "C 2/C"
_symmetry_group_IT_number 15
_symmetry_cell_setting 'monoclinic'
loop_
_space_group_symop_operation_xyz
x,y,z
-x,y,1/2-z
-x,-y,-z
x,-y,1/2+z
1/2+x,1/2+y,z
1/2-x,1/2+y,1/2-z
1/2-x,1/2-y,-z
1/2+x,1/2-y,1/2+z
loop_
_atom_site_type_symbol
_atom_site_label
_atom_site_fract_x
_atom_site_fract_y
_atom_site_fract_z
Si Si1 0.524305 0.576057 0.443124
Si Si2 0.759310 0.169547 0.569250
Si Si3 0.500000 0.155529 0.250000
Si Si4 0.000000 0.096045 0.250000
Si Si5 0.007528 0.717682 0.059133
Si Si6 0.902319 0.491688 0.412071
Si Si7 0.000000 0.590808 0.750000
O O1 0.487399 0.637936 0.487401
O O2 0.412780 0.566482 0.356034
O O3 0.798335 0.551447 0.397188
O O4 0.351281 0.543230 0.539872
O O5 0.564484 0.174261 0.511658
O O6 0.674331 0.133302 0.669163
O O7 0.805753 0.232881 0.591067
O O8 0.760557 0.126994 0.242560
O O9 0.542227 0.191459 0.153287
O O10 0.250000 0.750000 0.000000
O O11 0.070198 0.454499 0.320559
O O12 0.000000 0.500000 0.500000
#
# Coordination Sequence:
#
# PCOD9296076 Si02
#       7
#     8   8   4   4   8   8   4
#     4  10  23  44  66  98 140 185 241 307 367 444
#     4  10  23  47  66 104 145 192 248 306 378 448
#     4  12  28  45  72 111 144 195 249 298 374 452
#     4  12  26  43  76 105 142 197 239 298 382 442
#     4  11  25  43  71 102 149 196 244 314 367 459
#     4  10  24  44  67  99 139 184 247 309 370 441
#     4  10  24  42  74 100 138 194 244 308 380 444
#
# _framework density 23.21096
#
# number of rings (size 3 to 8) (size 9 to 14) (size 15 to 20)
#    0.000    1.455    1.818    1.091   10.182    2.909 
#    0.000    1.818    0.000    0.000    0.000    0.000 
#    0.000    0.000    0.000    0.000    0.000    0.000 
#
# Total GULP energy -122533.965292 kJ/mol
# GULP energy per Si atom -5569.725695 kJ/mol
# Density = 2.315813 g / cm^3
# Si number density = 23.210960 Si / 1000 Ang^3
#
#
#
# Elastic Constant Matrix: (Units=GPa)
#
#
# Indices 1 2 3 4 5 6 
#
# 1 91.0744 37.0812 44.6913 0.0000 19.6988 0.0000
# 2 37.0812 77.2466 52.8302 0.0000 5.7181 0.0000
# 3 44.6913 52.8302 165.4194 0.0000 12.1930 0.0000
# 4 0.0000 0.0000 0.0000 58.4238 0.0000 -1.3394
# 5 19.6988 5.7181 12.1930 0.0000 41.4982 0.0000
# 6 0.0000 0.0000 0.0000 -1.3394 0.0000 32.1767
#
#
#
# Elastic Compliance Matrix: (Units=1/GPa)
#
#
# Indices 1 2 3 4 5 6 
#
# 1 0.015554 -0.005694 -0.001939 0.000000 -0.006029 0.000000
# 2 -0.005694 0.018670 -0.004532 0.000000 0.001462 0.000000
# 3 -0.001939 -0.004532 0.008078 0.000000 -0.000828 0.000000
# 4 0.000000 0.000000 0.000000 0.017133 0.000000 0.000713
# 5 -0.006029 0.001462 -0.000828 0.000000 0.027001 0.000000
# 6 0.000000 0.000000 0.000000 0.000713 0.000000 0.031108
#
#
# Mechanical properties :
#
#
# Convention : Reuss Voigt Hill
#
# Bulk Modulus (GPa) = 55.64478 66.99398 61.31938
# Shear Modulus (GPa) = 33.81464 39.69561 36.75512
#
# Velocity S-wave (km/s) = 3.82100 4.13995 3.98367
# Velocity P-wave (km/s) = 6.59486 7.19570 6.90182
#
# Compressibility (1/GPa) = 0.01797114
#
# Stress axis : x y z
#
# Youngs Moduli (GPa) = 64.29223 53.56126 123.79753
#
# Poissons Ratio (x) = 0.30497 0.24009
# Poissons Ratio (y) = 0.36607 0.56107
# Poissons Ratio (z) = 0.12469 0.24275
#
# Static dielectric constant tensor:
#      x y z
#    x 1.936140 0.000000 -0.045120 
#    y 0.000000 2.089300 0.000000 
#    z -0.045120 0.000000 1.732480 
# 
# From -- ./inp_files/129413.got.cif
#   From: 2010.05.17/outbox.cif.g08.bks.cpg/sg15_65_cif.got.tgz:129413.got - 2010.06.03 18:47:42.
