data_PCOD9296845
_publ_section_title
;
Structure prediction by ZEFSAII (Michael W. Deem and Ramdas Pophale) SiO2 
 PCOD9296845
Probable space group: C 2/C
;
_chemical_formula_sum "Si O2"
_cell_formula_units_Z 40
_cell_length_a 16.791771
_cell_length_b 20.728476
_cell_length_c 4.986984
_cell_angle_alpha 90.000000
_cell_angle_beta 91.381160
_cell_angle_gamma 90.000000
_cell_volume 1735.304355
_symmetry_space_group_name_H-M "C 2/C"
_symmetry_group_IT_number 15
_symmetry_cell_setting 'monoclinic'
loop_
_space_group_symop_operation_xyz
x,y,z
-x,y,1/2-z
-x,-y,-z
x,-y,1/2+z
1/2+x,1/2+y,z
1/2-x,1/2+y,1/2-z
1/2-x,1/2-y,-z
1/2+x,1/2-y,1/2+z
loop_
_atom_site_type_symbol
_atom_site_label
_atom_site_fract_x
_atom_site_fract_y
_atom_site_fract_z
Si Si1 0.379768 0.844061 0.357867
Si Si2 0.000000 0.261128 0.750000
Si Si3 0.594964 0.541835 0.241885
Si Si4 0.349768 0.266384 0.439178
Si Si5 0.000000 0.546203 0.750000
Si Si6 0.291859 0.658441 0.420947
O O1 0.441647 0.805282 0.560153
O O2 0.360460 0.801705 0.093379
O O3 0.424207 0.907414 0.264145
O O4 0.297611 0.859462 0.503753
O O5 0.056286 0.216586 0.573609
O O6 0.500000 0.555707 0.250000
O O7 0.612966 0.518593 0.545213
O O8 0.647180 0.599818 0.124002
O O9 0.320495 0.289150 0.144210
O O10 0.295769 0.305639 0.638575
O O11 0.000000 0.500000 0.500000
#
# Coordination Sequence:
#
# PCOD9296845 Si02
#       6
#     8   4   8   8   4   8
#     4  12  27  49  73 106 156 191 243 320 372 424
#     4  12  25  46  74  98 158 191 232 296 380 432
#     4  10  23  46  69  99 144 188 235 300 366 432
#     4  12  26  45  70 113 143 191 236 301 385 441
#     4  12  29  48  76 106 140 209 264 292 362 442
#     4  12  28  42  77 111 146 191 253 299 376 457
#
# _framework density 23.050712000000001
#
# number of rings (size 3 to 8) (size 9 to 14) (size 15 to 20)
#    0.000    0.400    4.000    3.000    5.600    1.600 
#    0.000    0.000    0.000    0.000    0.000    0.000 
#    0.000    0.000    0.000    0.000    0.000    0.000 
#
# Total GULP energy -111742.992986 kJ/mol
# GULP energy per Si atom -5587.149649 kJ/mol
# Density = 2.299825 g / cm^3
# Si number density = 23.050712 Si / 1000 Ang^3
#
#
#
# Elastic Constant Matrix: (Units=GPa)
#
#
# Indices 1 2 3 4 5 6 
#
# 1 191.9400 70.8217 66.4197 0.0000 -36.3365 0.0000
# 2 70.8217 105.7130 46.9598 0.0000 0.1315 0.0000
# 3 66.4197 46.9598 166.3539 0.0000 -5.3447 0.0000
# 4 0.0000 0.0000 0.0000 12.9699 0.0000 -25.4077
# 5 -36.3365 0.1315 -5.3447 0.0000 50.7849 0.0000
# 6 0.0000 0.0000 0.0000 -25.4077 0.0000 33.9377
#
#
#
# Elastic Compliance Matrix: (Units=1/GPa)
#
#
# Indices 1 2 3 4 5 6 
#
# 1 0.008952 -0.005152 -0.001920 0.000000 0.006217 0.000000
# 2 -0.005152 0.013787 -0.001961 0.000000 -0.003929 0.000000
# 3 -0.001920 -0.001961 0.007312 0.000000 -0.000599 0.000000
# 4 0.000000 0.000000 0.000000 -0.165239 0.000000 -0.123708
# 5 0.006217 -0.003929 -0.000599 0.000000 0.024086 0.000000
# 6 0.000000 0.000000 0.000000 -0.123708 0.000000 -0.063149
#
#
# Mechanical properties :
#
#
# Convention : Reuss Voigt Hill
#
# Bulk Modulus (GPa) = 83.43895 92.48991 87.96443
# Shear Modulus (GPa) = -32.85412 38.19221 2.66905
#
# Velocity S-wave (km/s) = -3.77941 4.07489 1.07723
# Velocity P-wave (km/s) = 4.15107 7.89628 6.30804
#
# Compressibility (1/GPa) = 0.01198481
#
# Stress axis : x y z
#
# Youngs Moduli (GPa) = 111.70122 72.53005 136.75584
#
# Poissons Ratio (x) = 0.37370 0.26260
# Poissons Ratio (y) = 0.57552 0.26819
# Poissons Ratio (z) = 0.21449 0.14224
#
# Static dielectric constant tensor:
#      x y z
#    x 1.919780 0.000000 0.006390 
#    y 0.000000 1.788980 0.000000 
#    z 0.006390 0.000000 1.880240 
# 
# From -- ./inp_files/9875.got.cif
#   From: 2010.05.17/outbox.cif.g08.bks.cpg/sg15_5_cif.got.tgz:9875.got - 2010.06.03 18:47:42.
