data_PCOD9296989
_publ_section_title
;
Structure prediction by ZEFSAII (Michael W. Deem and Ramdas Pophale) SiO2 
 PCOD9296989
Probable space group: C 2/C
;
_chemical_formula_sum "Si O2"
_cell_formula_units_Z 64
_cell_length_a 16.359877
_cell_length_b 12.532471
_cell_length_c 28.640698
_cell_angle_alpha 90.000000
_cell_angle_beta 150.153619
_cell_angle_gamma 90.000000
_cell_volume 2922.451153
_symmetry_space_group_name_H-M "C 2/C"
_symmetry_group_IT_number 15
_symmetry_cell_setting 'monoclinic'
loop_
_space_group_symop_operation_xyz
x,y,z
-x,y,1/2-z
-x,-y,-z
x,-y,1/2+z
1/2+x,1/2+y,z
1/2-x,1/2+y,1/2-z
1/2-x,1/2-y,-z
1/2+x,1/2-y,1/2+z
loop_
_atom_site_type_symbol
_atom_site_label
_atom_site_fract_x
_atom_site_fract_y
_atom_site_fract_z
Si Si1 0.697519 0.314354 0.601090
Si Si2 0.805154 0.928338 0.164048
Si Si3 0.392944 0.067455 0.589033
Si Si4 0.930013 0.009301 0.317743
Si Si5 0.294174 0.364333 0.003524
Si Si6 0.288047 0.998927 0.702461
Si Si7 0.177551 0.155315 0.565397
Si Si8 0.231182 0.121712 0.419596
O O1 0.737728 0.189584 0.623374
O O2 0.688287 0.355038 0.543338
O O3 0.823883 0.390022 0.691836
O O4 0.516971 0.331440 0.532798
O O5 0.801481 0.970349 0.215113
O O6 0.000000 0.924354 0.250000
O O7 0.732507 0.017958 0.093798
O O8 0.253797 0.102290 0.557034
O O9 0.362933 0.132741 0.526878
O O10 0.350607 0.945771 0.555793
O O11 0.563425 0.062933 0.700134
O O12 0.047504 0.912043 0.392057
O O13 0.832148 0.037088 0.315631
O O14 0.054602 0.096612 0.356841
O O15 0.250000 0.250000 0.000000
O O16 0.214148 0.079864 0.627621
O O17 0.261726 0.272241 0.607893
#
# Coordination Sequence:
#
# PCOD9296989 Si02
#       8
#     8   8   8   8   8   8   8   8
#     4  12  24  42  72 101 140 183 234 296 353 423
#     4  10  24  45  71 101 139 183 236 290 354 419
#     4  11  25  43  70 103 138 183 237 285 350 424
#     4  10  23  47  66 102 139 178 237 285 354 417
#     4  11  22  42  69  96 136 179 228 286 355 410
#     4  12  26  44  70 107 142 179 239 295 347 422
#     4  12  25  46  72 101 144 191 232 288 360 425
#     4  10  24  49  73  97 143 193 230 289 359 425
#
# _framework density 21.899425000000001
#
# number of rings (size 3 to 8) (size 9 to 14) (size 15 to 20)
#    0.000    1.000    2.500    4.875    5.250    3.500 
#    4.500    0.000    0.000    0.000    0.000    0.000 
#    0.000    0.000    0.000    0.000    0.000    0.000 
#
# Total GULP energy -178913.551581 kJ/mol
# GULP energy per Si atom -5591.048487 kJ/mol
# Density = 2.184958 g / cm^3
# Si number density = 21.899425 Si / 1000 Ang^3
#
#
#
# Elastic Constant Matrix: (Units=GPa)
#
#
# Indices 1 2 3 4 5 6 
#
# 1 91.1809 22.0885 17.8529 0.0000 -26.2956 0.0000
# 2 22.0885 98.5639 1.8615 0.0000 -13.7899 0.0000
# 3 17.8529 1.8615 59.3240 -0.0002 -23.7903 0.0000
# 4 0.0000 0.0000 -0.0002 14.9528 0.0000 -4.4614
# 5 -26.2956 -13.7899 -23.7903 0.0000 33.5335 0.0000
# 6 0.0000 0.0000 0.0000 -4.4614 0.0000 13.8905
#
#
#
# Elastic Compliance Matrix: (Units=1/GPa)
#
#
# Indices 1 2 3 4 5 6 
#
# 1 0.014453 -0.001759 -0.000055 0.000000 0.010571 0.000000
# 2 -0.001759 0.011153 0.002048 0.000000 0.004660 0.000000
# 3 -0.000055 0.002048 0.023941 0.000000 0.017784 0.000000
# 4 0.000000 0.000000 0.000000 0.073965 0.000000 0.023756
# 5 0.010571 0.004660 0.017784 0.000000 0.052643 0.000000
# 6 0.000000 0.000000 0.000000 0.023756 0.000000 0.079622
#
#
# Mechanical properties :
#
#
# Convention : Reuss Voigt Hill
#
# Bulk Modulus (GPa) = 19.99392 36.96382 28.47887
# Shear Modulus (GPa) = 18.38371 26.29307 22.33839
#
# Velocity S-wave (km/s) = 2.90049 3.46877 3.19728
# Velocity P-wave (km/s) = 4.51296 5.74096 5.16360
#
# Compressibility (1/GPa) = 0.05001521
#
# Stress axis : x y z
#
# Youngs Moduli (GPa) = 69.19174 89.66012 41.77004
#
# Poissons Ratio (x) = 0.15770 0.00230
# Poissons Ratio (y) = 0.12170 -0.08556
# Poissons Ratio (z) = 0.00381 -0.18365
#
# Static dielectric constant tensor:
#      x y z
#    x 1.828350 0.000000 0.003960 
#    y 0.000000 1.729830 0.000000 
#    z 0.003960 0.000000 1.834320 
# 
# From -- ./inp_files/316231.got.cif
#   From: 2010.05.17/outbox.cif.g08.bks.cpg/sg15_159_cif.got.tgz:316231.got - 2010.06.03 18:47:42.
