data_PCOD9296995
_publ_section_title
;
Structure prediction by ZEFSAII (Michael W. Deem and Ramdas Pophale) SiO2 
 PCOD9296995
Probable space group: C 2/C
;
_chemical_formula_sum "Si O2"
_cell_formula_units_Z 52
_cell_length_a 23.638975
_cell_length_b 8.974861
_cell_length_c 20.920337
_cell_angle_alpha 90.000000
_cell_angle_beta 36.647890
_cell_angle_gamma 90.000000
_cell_volume 2649.253356
_symmetry_space_group_name_H-M "C 2/C"
_symmetry_group_IT_number 15
_symmetry_cell_setting 'monoclinic'
loop_
_space_group_symop_operation_xyz
x,y,z
-x,y,1/2-z
-x,-y,-z
x,-y,1/2+z
1/2+x,1/2+y,z
1/2-x,1/2+y,1/2-z
1/2-x,1/2-y,-z
1/2+x,1/2-y,1/2+z
loop_
_atom_site_type_symbol
_atom_site_label
_atom_site_fract_x
_atom_site_fract_y
_atom_site_fract_z
Si Si1 0.107816 0.653745 0.655862
Si Si2 0.357145 0.915673 0.770016
Si Si3 0.732615 0.151078 0.420467
Si Si4 0.236325 0.656516 0.855478
Si Si5 0.000000 0.000000 0.000000
Si Si6 0.797600 0.111682 0.658560
Si Si7 0.516316 0.153377 0.025785
O O1 0.110458 0.508841 0.698324
O O2 0.178605 0.771048 0.625171
O O3 0.152789 0.621238 0.546017
O O4 0.000000 0.708364 0.750000
O O5 0.190874 0.238923 0.904882
O O6 0.295710 0.022654 0.779495
O O7 0.445420 0.854857 0.650160
O O8 0.766638 0.003042 0.354734
O O9 0.276131 0.676410 0.747756
O O10 0.284475 0.784520 0.853488
O O11 0.123726 0.654816 0.953261
O O12 0.111955 0.004614 0.919130
O O13 0.998133 0.811374 0.006754
O O14 0.500000 0.000000 0.000000
#
# Coordination Sequence:
#
# PCOD9296995 Si02
#       7
#     8   8   8   8   4   8   8
#     4  10  23  47  67  88 124 177 234 279 323 402
#     4  11  23  41  63  92 131 174 221 273 336 395
#     4  10  24  42  68  95 126 175 224 272 340 399
#     4  12  22  39  63  97 135 168 210 276 343 398
#     4  12  24  36  62 102 140 176 216 264 336 416
#     4  11  22  40  62  95 141 166 211 275 335 411
#     4  12  24  38  63  97 137 181 220 265 337 403
#
# _framework density 19.628173
#
# number of rings (size 3 to 8) (size 9 to 14) (size 15 to 20)
#    0.000    0.923    4.615    2.769    0.000    1.846 
#    0.000    0.769    0.000    0.000    0.000    0.000 
#    0.000    0.000    0.000    0.000    0.000    0.000 
#
# Total GULP energy -144750.549119 kJ/mol
# GULP energy per Si atom -5567.328812 kJ/mol
# Density = 1.958350 g / cm^3
# Si number density = 19.628173 Si / 1000 Ang^3
#
#
#
# Elastic Constant Matrix: (Units=GPa)
#
#
# Indices 1 2 3 4 5 6 
#
# 1 62.4542 21.7297 52.8095 -0.0002 -0.7809 0.0001
# 2 21.7297 108.7221 25.1844 0.0001 5.5692 -0.0001
# 3 52.8095 25.1844 99.3062 -0.0001 -10.4951 0.0000
# 4 -0.0002 0.0001 -0.0001 23.2288 0.0000 -2.9964
# 5 -0.7809 5.5692 -10.4951 0.0000 27.5511 0.0000
# 6 0.0001 -0.0001 0.0000 -2.9964 0.0000 11.2885
#
#
#
# Elastic Compliance Matrix: (Units=1/GPa)
#
#
# Indices 1 2 3 4 5 6 
#
# 1 0.030275 -0.002076 -0.016086 0.000000 -0.004850 0.000000
# 2 -0.002076 0.010165 -0.001768 0.000000 -0.002787 0.000000
# 3 -0.016086 -0.001768 0.019862 0.000000 0.007467 0.000000
# 4 0.000000 0.000000 0.000000 0.044576 0.000000 0.011832
# 5 -0.004850 -0.002787 0.007467 0.000000 0.039567 0.000000
# 6 0.000000 0.000000 0.000000 0.011832 0.000000 0.091727
#
#
# Mechanical properties :
#
#
# Convention : Reuss Voigt Hill
#
# Bulk Modulus (GPa) = 48.92124 52.21439 50.56782
# Shear Modulus (GPa) = 17.67740 23.79759 20.73750
#
# Velocity S-wave (km/s) = 3.00428 3.48576 3.25394
# Velocity P-wave (km/s) = 6.08378 6.54677 6.31952
#
# Compressibility (1/GPa) = 0.02044102
#
# Stress axis : x y z
#
# Youngs Moduli (GPa) = 33.03025 98.37541 50.34810
#
# Poissons Ratio (x) = 0.20427 0.80989
# Poissons Ratio (y) = 0.06858 0.08903
# Poissons Ratio (z) = 0.53132 0.17396
#
# Static dielectric constant tensor:
#      x y z
#    x 1.692210 0.000000 -0.004160 
#    y 0.000000 1.712750 0.000000 
#    z -0.004160 0.000000 1.697700 
# 
# From -- ./inp_files/283282.got.cif
#   From: 2010.05.17/outbox.cif.g08.bks.cpg/sg15_142_cif.got.tgz:283282.got - 2010.06.03 18:47:42.
