data_PCOD9296859
_publ_section_title
;
Structure prediction by ZEFSAII (Michael W. Deem and Ramdas Pophale) SiO2 
 PCOD9296859
Probable space group: C 2/C
;
_chemical_formula_sum "Si O2"
_cell_formula_units_Z 44
_cell_length_a 17.640445
_cell_length_b 22.457443
_cell_length_c 5.218292
_cell_angle_alpha 90.000000
_cell_angle_beta 98.417437
_cell_angle_gamma 90.000000
_cell_volume 2045.005806
_symmetry_space_group_name_H-M "C 2/C"
_symmetry_group_IT_number 15
_symmetry_cell_setting 'monoclinic'
loop_
_space_group_symop_operation_xyz
x,y,z
-x,y,1/2-z
-x,-y,-z
x,-y,1/2+z
1/2+x,1/2+y,z
1/2-x,1/2+y,1/2-z
1/2-x,1/2-y,-z
1/2+x,1/2-y,1/2+z
loop_
_atom_site_type_symbol
_atom_site_label
_atom_site_fract_x
_atom_site_fract_y
_atom_site_fract_z
Si Si1 0.190160 0.379339 0.475184
Si Si2 0.409927 0.310366 0.195016
Si Si3 0.534768 0.067282 0.012569
Si Si4 0.000000 0.039655 0.250000
Si Si5 0.179205 0.297397 0.964881
Si Si6 0.141911 0.126723 0.333976
O O1 0.125199 0.428342 0.507878
O O2 0.182883 0.332229 0.701042
O O3 0.276996 0.401440 0.549235
O O4 0.180872 0.343597 0.202748
O O5 0.500000 0.325454 0.250000
O O6 0.396009 0.243690 0.088559
O O7 0.375003 0.322461 0.459787
O O8 0.364890 0.349237 0.959599
O O9 0.500000 0.095485 0.250000
O O10 0.500000 0.099314 0.750000
O O11 0.500000 0.000000 0.000000
O O12 0.925976 0.080314 0.184606
O O13 0.000000 0.000000 0.500000
O O14 0.250000 0.250000 0.000000
#
# Coordination Sequence:
#
# PCOD9296859 Si02
#       6
#     8   8   8   4   8   8
#     4  12  24  42  70 101 133 184 231 277 346 410
#     4  12  23  40  65  96 137 184 218 262 338 413
#     4  10  23  46  70  93 134 179 230 296 353 401
#     4  12  26  46  66 100 134 164 226 298 340 396
#     4  12  23  39  66 100 143 172 228 282 325 408
#     4  12  23  43  69  93 135 177 216 276 343 412
#
# _framework density 21.515833000000001
#
# number of rings (size 3 to 8) (size 9 to 14) (size 15 to 20)
#    0.000    0.364    5.455    3.818    0.000    2.182 
#    6.545    0.000    0.000    0.000    0.000    0.000 
#    0.000    0.000    0.000    0.000    0.000    0.000 
#
# Total GULP energy -122841.839531 kJ/mol
# GULP energy per Si atom -5583.719979 kJ/mol
# Density = 2.146686 g / cm^3
# Si number density = 21.515833 Si / 1000 Ang^3
#
#
#
# Elastic Constant Matrix: (Units=GPa)
#
#
# Indices 1 2 3 4 5 6 
#
# 1 148.4612 27.0911 26.1781 0.0000 25.4358 0.0000
# 2 27.0911 61.3113 14.2284 0.0000 4.3111 0.0000
# 3 26.1781 14.2284 150.5943 0.0000 -14.5901 0.0000
# 4 0.0000 0.0000 0.0000 11.1843 0.0000 -3.4034
# 5 25.4358 4.3111 -14.5901 0.0000 40.1592 0.0000
# 6 0.0000 0.0000 0.0000 -3.4034 0.0000 27.0400
#
#
#
# Elastic Compliance Matrix: (Units=1/GPa)
#
#
# Indices 1 2 3 4 5 6 
#
# 1 0.008576 -0.002975 -0.001767 0.000000 -0.005755 0.000000
# 2 -0.002975 0.017943 -0.001225 0.000000 -0.000487 0.000000
# 3 -0.001767 -0.001225 0.007447 0.000000 0.003956 0.000000
# 4 0.000000 0.000000 0.000000 0.092972 0.000000 0.011702
# 5 -0.005755 -0.000487 0.003956 0.000000 0.030035 0.000000
# 6 0.000000 0.000000 0.000000 0.011702 0.000000 0.038455
#
#
# Mechanical properties :
#
#
# Convention : Reuss Voigt Hill
#
# Bulk Modulus (GPa) = 45.39010 55.04024 50.21517
# Shear Modulus (GPa) = 23.28753 35.20132 29.24442
#
# Velocity S-wave (km/s) = 3.29347 4.04922 3.69074
# Velocity P-wave (km/s) = 5.96695 6.89191 6.44604
#
# Compressibility (1/GPa) = 0.02203124
#
# Stress axis : x y z
#
# Youngs Moduli (GPa) = 116.60234 55.73120 134.28854
#
# Poissons Ratio (x) = 0.16578 0.23733
# Poissons Ratio (y) = 0.34686 0.16456
# Poissons Ratio (z) = 0.20607 0.06829
#
# Static dielectric constant tensor:
#      x y z
#    x 1.814350 0.000000 0.031200 
#    y 0.000000 1.777460 0.000000 
#    z 0.031200 0.000000 1.780560 
# 
# From -- ./inp_files/10807.got.cif
#   From: 2010.05.17/outbox.cif.g08.bks.cpg/sg15_6_cif.got.tgz:10807.got - 2010.06.03 18:47:42.
