data_PCOD9296904
_publ_section_title
;
Structure prediction by ZEFSAII (Michael W. Deem and Ramdas Pophale) SiO2 
 PCOD9296904
Probable space group: C 2/C
;
_chemical_formula_sum "Si O2"
_cell_formula_units_Z 44
_cell_length_a 11.427616
_cell_length_b 28.944311
_cell_length_c 8.581046
_cell_angle_alpha 90.000000
_cell_angle_beta 129.884612
_cell_angle_gamma 90.000000
_cell_volume 2177.937688
_symmetry_space_group_name_H-M "C 2/C"
_symmetry_group_IT_number 15
_symmetry_cell_setting 'monoclinic'
loop_
_space_group_symop_operation_xyz
x,y,z
-x,y,1/2-z
-x,-y,-z
x,-y,1/2+z
1/2+x,1/2+y,z
1/2-x,1/2+y,1/2-z
1/2-x,1/2-y,-z
1/2+x,1/2-y,1/2+z
loop_
_atom_site_type_symbol
_atom_site_label
_atom_site_fract_x
_atom_site_fract_y
_atom_site_fract_z
Si Si1 0.248402 0.056714 0.828679
Si Si2 0.000000 0.600081 0.250000
Si Si3 0.324056 0.299750 0.542270
Si Si4 0.239163 0.373780 0.711240
Si Si5 0.178154 0.041186 0.410253
Si Si6 0.558792 0.649245 0.644161
O O1 0.244057 0.046881 0.640182
O O2 0.146579 0.102444 0.763802
O O3 0.185678 0.011295 0.859669
O O4 0.406165 0.069027 0.047461
O O5 0.116675 0.629378 0.244122
O O6 0.500000 0.297842 0.750000
O O7 0.250000 0.250000 0.500000
O O8 0.229894 0.336277 0.566094
O O9 0.337160 0.319590 0.378551
O O10 0.234067 0.424562 0.630829
O O11 0.407671 0.366159 0.923710
O O12 0.000000 0.055635 0.250000
O O13 0.500000 0.673670 0.750000
#
# Coordination Sequence:
#
# PCOD9296904 Si02
#       6
#     8   4   8   8   8   8
#     4  12  25  40  66 100 138 179 230 280 334 400
#     4  12  28  42  60 100 142 182 218 284 348 400
#     4  10  23  46  72 100 133 172 222 285 344 410
#     4  11  23  44  67  96 136 174 229 274 342 401
#     4  12  23  41  70  96 128 184 239 280 327 399
#     4  11  21  44  71  99 130 177 227 280 326 402
#
# _framework density 20.2026
#
# number of rings (size 3 to 8) (size 9 to 14) (size 15 to 20)
#    0.000    0.727    5.455    2.727    0.000    5.091 
#    1.636    1.818    0.000    0.000    0.000    0.000 
#    0.000    0.000    0.000    0.000    0.000    0.000 
#
# Total GULP energy -122944.904604 kJ/mol
# GULP energy per Si atom -5588.404755 kJ/mol
# Density = 2.015662 g / cm^3
# Si number density = 20.202600 Si / 1000 Ang^3
#
#
#
# Elastic Constant Matrix: (Units=GPa)
#
#
# Indices 1 2 3 4 5 6 
#
# 1 148.7353 71.2662 43.2804 0.0000 -21.3137 0.0000
# 2 71.2662 115.3200 21.4106 0.0000 -11.9746 0.0000
# 3 43.2804 21.4106 104.7461 0.0000 -21.0174 0.0000
# 4 0.0000 0.0000 0.0000 19.6842 0.0000 2.3680
# 5 -21.3137 -11.9746 -21.0174 0.0000 32.5885 0.0000
# 6 0.0000 0.0000 0.0000 2.3680 0.0000 33.9542
#
#
#
# Elastic Compliance Matrix: (Units=1/GPa)
#
#
# Indices 1 2 3 4 5 6 
#
# 1 0.010723 -0.005812 -0.002601 0.000000 0.003201 0.000000
# 2 -0.005812 0.012335 0.000031 0.000000 0.000751 0.000000
# 3 -0.002601 0.000031 0.011804 0.000000 0.005923 0.000000
# 4 0.000000 0.000000 0.000000 0.051232 0.000000 -0.003573
# 5 0.003201 0.000751 0.005923 0.000000 0.036875 0.000000
# 6 0.000000 0.000000 0.000000 -0.003573 0.000000 0.029701
#
#
# Mechanical properties :
#
#
# Convention : Reuss Voigt Hill
#
# Bulk Modulus (GPa) = 55.25142 71.19065 63.22103
# Shear Modulus (GPa) = 28.49543 32.76831 30.63187
#
# Velocity S-wave (km/s) = 3.75971 4.03176 3.89811
# Velocity P-wave (km/s) = 6.80113 7.54906 7.18483
#
# Compressibility (1/GPa) = 0.01809908
#
# Stress axis : x y z
#
# Youngs Moduli (GPa) = 93.25333 81.06723 84.71954
#
# Poissons Ratio (x) = 0.47114 0.22033
# Poissons Ratio (y) = 0.54197 -0.00260
# Poissons Ratio (z) = 0.24253 -0.00249
#
# Static dielectric constant tensor:
#      x y z
#    x 1.744760 0.000000 -0.021560 
#    y 0.000000 1.676420 0.000000 
#    z -0.021560 0.000000 1.741680 
# 
# From -- ./inp_files/34002.got.cif
#   From: 2010.05.17/outbox.cif.g08.bks.cpg/sg15_18_cif.got.tgz:34002.got - 2010.06.03 18:47:42.
