data_PCOD9296144
_publ_section_title
;
Structure prediction by ZEFSAII (Michael W. Deem and Ramdas Pophale) SiO2 
 PCOD9296144
Probable space group: C 2/C
;
_chemical_formula_sum "Si O2"
_cell_formula_units_Z 48
_cell_length_a 10.640538
_cell_length_b 22.372652
_cell_length_c 10.859651
_cell_angle_alpha 90.000000
_cell_angle_beta 122.673382
_cell_angle_gamma 90.000000
_cell_volume 2176.136181
_symmetry_space_group_name_H-M "C 2/C"
_symmetry_group_IT_number 15
_symmetry_cell_setting 'monoclinic'
loop_
_space_group_symop_operation_xyz
x,y,z
-x,y,1/2-z
-x,-y,-z
x,-y,1/2+z
1/2+x,1/2+y,z
1/2-x,1/2+y,1/2-z
1/2-x,1/2-y,-z
1/2+x,1/2-y,1/2+z
loop_
_atom_site_type_symbol
_atom_site_label
_atom_site_fract_x
_atom_site_fract_y
_atom_site_fract_z
Si Si1 0.072214 0.861696 0.455679
Si Si2 0.596351 0.003410 0.675623
Si Si3 0.861200 0.086493 0.248733
Si Si4 0.243754 0.882740 0.327240
Si Si5 0.763609 0.215065 0.135545
Si Si6 0.075623 0.264172 0.042729
O O1 0.073027 0.886962 0.591520
O O2 0.174255 0.902722 0.421713
O O3 0.128821 0.793153 0.492180
O O4 0.903697 0.860225 0.319471
O O5 0.500000 0.994729 0.750000
O O6 0.673338 0.068440 0.710073
O O7 0.500000 0.000000 0.500000
O O8 0.727934 0.955965 0.720980
O O9 0.800723 0.144701 0.142669
O O10 0.000000 0.057304 0.250000
O O11 0.349239 0.828343 0.417882
O O12 0.883803 0.241990 0.295581
O O13 0.750000 0.250000 0.000000
O O14 0.593764 0.223890 0.091060
#
# Coordination Sequence:
#
# PCOD9296144 Si02
#       6
#     8   8   8   8   8   8
#     4  10  23  44  68 109 139 190 237 297 377 441
#     4  12  29  50  74 108 146 197 253 310 377 441
#     4  11  26  45  73 103 148 191 247 302 371 444
#     4  11  24  43  73 101 146 186 248 299 363 450
#     4  11  22  39  64 102 145 187 232 297 369 436
#     4  11  21  40  65 100 142 181 239 296 362 440
#
# _framework density 22.057442999999999
#
# number of rings (size 3 to 8) (size 9 to 14) (size 15 to 20)
#    0.000    1.000    1.667    5.000    4.667    2.000 
#    0.000    0.000    0.000    0.000    0.000    0.000 
#    0.000    0.000    0.000    0.000    0.000    0.000 
#
# Total GULP energy -133943.554286 kJ/mol
# GULP energy per Si atom -5580.981429 kJ/mol
# Density = 2.200724 g / cm^3
# Si number density = 22.057443 Si / 1000 Ang^3
#
#
#
# Elastic Constant Matrix: (Units=GPa)
#
#
# Indices 1 2 3 4 5 6 
#
# 1 142.1460 61.2505 36.1686 0.0000 -2.4583 0.0000
# 2 61.2505 78.9201 17.4166 0.0000 -2.4701 0.0000
# 3 36.1686 17.4166 92.4565 0.0000 -2.2137 0.0000
# 4 0.0000 0.0000 0.0000 24.3213 0.0000 5.6446
# 5 -2.4583 -2.4701 -2.2137 0.0000 24.7666 0.0000
# 6 0.0000 0.0000 0.0000 5.6446 0.0000 42.7110
#
#
#
# Elastic Compliance Matrix: (Units=1/GPa)
#
#
# Indices 1 2 3 4 5 6 
#
# 1 0.011259 -0.008102 -0.002877 0.000000 0.000052 0.000000
# 2 -0.008102 0.019080 -0.000399 0.000000 0.001063 0.000000
# 3 -0.002877 -0.000399 0.012035 0.000000 0.000750 0.000000
# 4 0.000000 0.000000 0.000000 0.042417 0.000000 -0.005606
# 5 0.000052 0.001063 0.000750 0.000000 0.040555 0.000000
# 6 0.000000 0.000000 0.000000 -0.005606 0.000000 0.024154
#
#
# Mechanical properties :
#
#
# Convention : Reuss Voigt Hill
#
# Bulk Modulus (GPa) = 50.97497 60.35487 55.66492
# Shear Modulus (GPa) = 27.96489 31.60557 29.78523
#
# Velocity S-wave (km/s) = 3.56451 3.78944 3.67870
# Velocity P-wave (km/s) = 6.33255 6.82411 6.58292
#
# Compressibility (1/GPa) = 0.01961747
#
# Stress axis : x y z
#
# Youngs Moduli (GPa) = 88.81829 52.41041 83.09373
#
# Poissons Ratio (x) = 0.42461 0.23906
# Poissons Ratio (y) = 0.71957 0.03320
# Poissons Ratio (z) = 0.25553 0.02094
#
# Static dielectric constant tensor:
#      x y z
#    x 1.912350 0.000000 -0.008200 
#    y 0.000000 1.855270 0.000000 
#    z -0.008200 0.000000 1.795780 
# 
# From -- ./inp_files/89763.got.cif
#   From: 2010.05.17/outbox.cif.g08.bks.cpg/sg15_45_cif.got.tgz:89763.got - 2010.06.03 18:47:42.
