data_PCOD9296085
_publ_section_title
;
Structure prediction by ZEFSAII (Michael W. Deem and Ramdas Pophale) SiO2 
 PCOD9296085
Probable space group: C 2/C
;
_chemical_formula_sum "Si O2"
_cell_formula_units_Z 32
_cell_length_a 8.387311
_cell_length_b 12.932773
_cell_length_c 24.776069
_cell_angle_alpha 90.000000
_cell_angle_beta 146.634821
_cell_angle_gamma 90.000000
_cell_volume 1478.047474
_symmetry_space_group_name_H-M "C 2/C"
_symmetry_group_IT_number 15
_symmetry_cell_setting 'monoclinic'
loop_
_space_group_symop_operation_xyz
x,y,z
-x,y,1/2-z
-x,-y,-z
x,-y,1/2+z
1/2+x,1/2+y,z
1/2-x,1/2+y,1/2-z
1/2-x,1/2-y,-z
1/2+x,1/2-y,1/2+z
loop_
_atom_site_type_symbol
_atom_site_label
_atom_site_fract_x
_atom_site_fract_y
_atom_site_fract_z
Si Si1 0.183719 0.503520 0.667499
Si Si2 0.304940 0.663446 0.470642
Si Si3 0.913296 0.271762 0.394673
Si Si4 0.980386 0.338153 0.183145
O O1 0.500000 0.456082 0.750000
O O2 0.160006 0.605941 0.622588
O O3 0.917648 0.428557 0.582082
O O4 0.149635 0.556153 0.716928
O O5 0.250000 0.750000 0.500000
O O6 0.256317 0.707699 0.396475
O O7 0.646113 0.637958 0.573146
O O8 0.250000 0.250000 0.500000
O O9 0.888010 0.256359 0.322818
O O10 0.000000 0.306644 0.250000
#
# Coordination Sequence:
#
# PCOD9296085 Si02
#       4
#     8   8   8   8
#     4  10  23  44  67 100 141 180 237 285 357 407
#     4  11  23  41  69 101 138 187 235 283 354 422
#     4   8  20  41  68  96 133 176 232 288 338 416
#     4   9  21  42  65  95 134 180 228 289 344 410
#
# _framework density 21.650183999999999
#
# number of rings (size 3 to 8) (size 9 to 14) (size 15 to 20)
#    1.500    1.000    0.000    0.750    3.500    2.000 
#    0.000    3.750    0.000    0.000    0.000    0.000 
#    0.000    0.000    0.000    0.000    0.000    0.000 
#
# Total GULP energy -89099.088285 kJ/mol
# GULP energy per Si atom -5568.693018 kJ/mol
# Density = 2.160091 g / cm^3
# Si number density = 21.650184 Si / 1000 Ang^3
#
#
#
# Elastic Constant Matrix: (Units=GPa)
#
#
# Indices 1 2 3 4 5 6 
#
# 1 124.7453 26.7515 60.9883 0.0000 -7.9884 0.0000
# 2 26.7515 52.4586 27.8654 0.0000 5.6478 0.0000
# 3 60.9883 27.8654 105.0119 -0.0004 2.6553 -0.0002
# 4 0.0000 0.0000 -0.0004 -11.2371 0.0000 -18.7610
# 5 -7.9884 5.6478 2.6553 0.0000 50.4066 0.0000
# 6 0.0000 0.0000 -0.0002 -18.7610 0.0000 18.1309
#
#
#
# Elastic Compliance Matrix: (Units=1/GPa)
#
#
# Indices 1 2 3 4 5 6 
#
# 1 0.011827 -0.003052 -0.006123 0.000000 0.002539 0.000000
# 2 -0.003052 0.023220 -0.004317 0.000000 -0.002858 0.000000
# 3 -0.006123 -0.004317 0.014256 0.000000 -0.001238 0.000000
# 4 0.000000 0.000000 0.000000 -0.032626 0.000000 -0.033760
# 5 0.002539 -0.002858 -0.001238 0.000000 0.020626 0.000000
# 6 0.000000 0.000000 0.000000 -0.033760 0.000000 0.020221
#
#
# Mechanical properties :
#
#
# Convention : Reuss Voigt Hill
#
# Bulk Modulus (GPa) = 44.80550 57.04734 50.92642
# Shear Modulus (GPa) = 54.37920 22.56745 38.47333
#
# Velocity S-wave (km/s) = 5.01714 3.23207 4.22007
# Velocity P-wave (km/s) = 7.36902 6.35100 6.87887
#
# Compressibility (1/GPa) = 0.02231869
#
# Stress axis : x y z
#
# Youngs Moduli (GPa) = 84.55182 43.06688 70.14753
#
# Poissons Ratio (x) = 0.13144 0.42953
# Poissons Ratio (y) = 0.25806 0.30280
# Poissons Ratio (z) = 0.51773 0.18590
#
# Static dielectric constant tensor:
#      x y z
#    x 1.911300 0.000000 0.089630 
#    y 0.000000 1.813210 0.000000 
#    z 0.089630 0.000000 1.884260 
# 
# From -- ./inp_files/75539.got.cif
#   From: 2010.05.17/outbox.cif.g08.bks.cpg/sg15_38_cif.got.tgz:75539.got - 2010.06.03 18:47:42.
