data_PCOD9296372
_publ_section_title
;
Structure prediction by ZEFSAII (Michael W. Deem and Ramdas Pophale) SiO2 
 PCOD9296372
Probable space group: C 2/C
;
_chemical_formula_sum "Si O2"
_cell_formula_units_Z 60
_cell_length_a 9.431715
_cell_length_b 24.946285
_cell_length_c 25.136950
_cell_angle_alpha 90.000000
_cell_angle_beta 151.037589
_cell_angle_gamma 90.000000
_cell_volume 2863.953435
_symmetry_space_group_name_H-M "C 2/C"
_symmetry_group_IT_number 15
_symmetry_cell_setting 'monoclinic'
loop_
_space_group_symop_operation_xyz
x,y,z
-x,y,1/2-z
-x,-y,-z
x,-y,1/2+z
1/2+x,1/2+y,z
1/2-x,1/2+y,1/2-z
1/2-x,1/2-y,-z
1/2+x,1/2-y,1/2+z
loop_
_atom_site_type_symbol
_atom_site_label
_atom_site_fract_x
_atom_site_fract_y
_atom_site_fract_z
Si Si1 0.079400 0.104389 0.912178
Si Si2 0.919582 0.995470 0.283894
Si Si3 0.219815 0.650544 0.623541
Si Si4 0.648186 0.682968 0.136402
Si Si5 0.000000 0.336879 0.250000
Si Si6 0.765330 0.517281 0.049423
Si Si7 0.896142 0.279062 0.105095
Si Si8 0.157643 0.922141 0.933417
O O1 0.195133 0.152357 0.911245
O O2 0.783484 0.126006 0.840412
O O3 0.255773 0.075807 0.018168
O O4 0.010043 0.055511 0.848916
O O5 0.575771 0.006442 0.178273
O O6 0.000000 0.984379 0.250000
O O7 0.078432 0.050933 0.351813
O O8 0.500000 0.634218 0.750000
O O9 0.086659 0.697026 0.617931
O O10 0.958664 0.608939 0.535004
O O11 0.489543 0.716805 0.131829
O O12 0.582836 0.619994 0.124296
O O13 0.000000 0.692624 0.250000
O O14 0.439698 0.703152 0.018668
O O15 0.016196 0.302956 0.309644
O O16 0.500000 0.500000 0.000000
O O17 0.716950 0.473826 0.987932
#
# Coordination Sequence:
#
# PCOD9296372 Si02
#       8
#     8   8   8   8   4   8   8   8
#     4  11  23  35  62  94 125 167 222 261 324 379
#     4  11  23  40  59  88 131 175 217 265 315 388
#     4  11  19  38  67  91 125 171 215 264 314 387
#     4  10  23  44  72  91 127 177 218 263 328 399
#     4  12  24  40  64 106 128 160 212 290 324 386
#     4  11  24  37  59  90 133 170 215 267 326 383
#     4  10  24  43  69 101 128 163 226 269 331 393
#     4  10  24  39  61  94 124 170 222 256 317 393
#
# _framework density 20.950061000000002
#
# number of rings (size 3 to 8) (size 9 to 14) (size 15 to 20)
#    0.000    1.333    1.333    4.000    7.467    3.200 
#    1.200    0.667    0.000    0.000    0.000    0.000 
#    0.000    0.000    0.000    0.000    0.000    0.000 
#
# Total GULP energy -167155.457693 kJ/mol
# GULP energy per Si atom -5571.848590 kJ/mol
# Density = 2.090238 g / cm^3
# Si number density = 20.950061 Si / 1000 Ang^3
#
#
#
# Elastic Constant Matrix: (Units=GPa)
#
#
# Indices 1 2 3 4 5 6 
#
# 1 31.2717 -8.8725 -0.9459 -0.0020 7.0483 0.0006
# 2 -8.8725 60.8815 12.2294 -0.0071 -10.7673 -0.0022
# 3 -0.9459 12.2294 85.4963 -0.0003 13.3813 0.0012
# 4 -0.0020 -0.0071 -0.0003 18.0986 -0.0002 -1.8563
# 5 7.0483 -10.7673 13.3813 -0.0002 31.4401 0.0009
# 6 0.0006 -0.0022 0.0012 -1.8563 0.0009 13.9079
#
#
#
# Elastic Compliance Matrix: (Units=1/GPa)
#
#
# Indices 1 2 3 4 5 6 
#
# 1 0.034595 0.003628 0.000946 0.000005 -0.006915 0.000000
# 2 0.003628 0.019019 -0.003827 0.000008 0.007329 0.000004
# 3 0.000946 -0.003827 0.013384 -0.000001 -0.007219 -0.000001
# 4 0.000005 0.000008 -0.000001 0.056020 0.000002 0.007477
# 5 -0.006915 0.007329 -0.007219 0.000002 0.038939 0.000000
# 6 0.000000 0.000004 -0.000001 0.007477 0.000000 0.072899
#
#
# Mechanical properties :
#
#
# Convention : Reuss Voigt Hill
#
# Bulk Modulus (GPa) = 14.60020 20.27464 17.43742
# Shear Modulus (GPa) = 19.51655 24.37191 21.94423
#
# Velocity S-wave (km/s) = 3.05548 3.41447 3.23995
# Velocity P-wave (km/s) = 4.40819 5.02428 4.72629
#
# Compressibility (1/GPa) = 0.06849220
#
# Stress axis : x y z
#
# Youngs Moduli (GPa) = 28.90630 52.57859 74.71448
#
# Poissons Ratio (x) = -0.19078 -0.07069
# Poissons Ratio (y) = -0.10489 0.28597
# Poissons Ratio (z) = -0.02735 0.20124
#
# Static dielectric constant tensor:
#      x y z
#    x 1.890640 0.000000 -0.052910 
#    y 0.000000 1.802000 -0.000010 
#    z -0.052910 -0.000010 1.817370 
# 
# From -- ./inp_files/266665.got.cif
#   From: 2010.05.17/outbox.cif.g08.bks.cpg/sg15_134_cif.got.tgz:266665.got - 2010.06.03 18:47:42.
