data_PCOD9296535
_publ_section_title
;
Structure prediction by ZEFSAII (Michael W. Deem and Ramdas Pophale) SiO2 
 PCOD9296535
Probable space group: C 2/C
;
_chemical_formula_sum "Si O2"
_cell_formula_units_Z 64
_cell_length_a 7.848684
_cell_length_b 18.975556
_cell_length_c 22.344337
_cell_angle_alpha 90.000000
_cell_angle_beta 48.393038
_cell_angle_gamma 90.000000
_cell_volume 2488.263223
_symmetry_space_group_name_H-M "C 2/C"
_symmetry_group_IT_number 15
_symmetry_cell_setting 'monoclinic'
loop_
_space_group_symop_operation_xyz
x,y,z
-x,y,1/2-z
-x,-y,-z
x,-y,1/2+z
1/2+x,1/2+y,z
1/2-x,1/2+y,1/2-z
1/2-x,1/2-y,-z
1/2+x,1/2-y,1/2+z
loop_
_atom_site_type_symbol
_atom_site_label
_atom_site_fract_x
_atom_site_fract_y
_atom_site_fract_z
Si Si1 0.591984 0.786955 0.425444
Si Si2 0.224216 0.952012 0.227931
Si Si3 0.822106 0.549442 0.573314
Si Si4 0.422266 0.835812 0.877789
Si Si5 0.474099 0.427435 0.472047
Si Si6 0.233361 0.793754 0.606580
Si Si7 0.640319 0.394701 0.779594
Si Si8 0.423026 0.161452 0.841820
O O1 0.616112 0.869544 0.432021
O O2 0.810947 0.739395 0.387457
O O3 0.387458 0.763931 0.516440
O O4 0.527688 0.789580 0.370686
O O5 0.323495 0.980021 0.141486
O O6 0.378430 0.892689 0.222255
O O7 0.000000 0.917217 0.250000
O O8 0.172403 0.021100 0.279122
O O9 0.614726 0.556958 0.574561
O O10 0.000000 0.500000 0.500000
O O11 0.573121 0.835811 0.902226
O O12 0.607488 0.862737 0.786356
O O13 0.208185 0.884034 0.945905
O O14 0.500000 0.500000 0.500000
O O15 0.713294 0.386582 0.411353
O O16 0.181499 0.729565 0.666225
O O17 0.030654 0.849730 0.638574
O O18 0.500000 0.387704 0.750000
#
# Coordination Sequence:
#
# PCOD9296535 Si02
#       8
#     8   8   8   8   8   8   8   8
#     4  11  22  39  66  98 137 173 224 283 332 405
#     4  10  23  45  67  95 137 180 223 280 346 410
#     4  11  23  40  68  99 127 174 234 272 339 409
#     4  11  21  40  63  95 134 175 228 275 346 398
#     4  12  23  40  65 100 139 177 225 291 338 400
#     4  11  21  38  66  97 131 179 227 276 341 411
#     4   9  21  39  65  91 127 178 220 271 335 409
#     4  11  24  40  65 101 136 176 226 284 337 400
#
# _framework density 25.720749999999999
#
# number of rings (size 3 to 8) (size 9 to 14) (size 15 to 20)
#    0.000    1.250    2.500    4.500    3.500    2.000 
#    0.000    1.875    0.000    4.500    0.000    0.000 
#    0.000    0.000    0.000    0.000    0.000    0.000 
#
# Total GULP energy -178690.196436 kJ/mol
# GULP energy per Si atom -5584.068639 kJ/mol
# Density = 2.566221 g / cm^3
# Si number density = 25.720750 Si / 1000 Ang^3
#
#
#
# Elastic Constant Matrix: (Units=GPa)
#
#
# Indices 1 2 3 4 5 6 
#
# 1 36.6086 5.9125 16.6517 -0.0002 -15.5799 0.0004
# 2 5.9125 153.4879 31.1624 0.0001 -42.0161 0.0001
# 3 16.6517 31.1624 82.7606 0.0001 -44.4762 0.0000
# 4 -0.0002 0.0001 0.0001 52.2278 0.0002 -17.0475
# 5 -15.5799 -42.0161 -44.4762 0.0002 42.7204 -0.0002
# 6 0.0004 0.0001 0.0000 -17.0475 -0.0002 33.4136
#
#
#
# Elastic Compliance Matrix: (Units=1/GPa)
#
#
# Indices 1 2 3 4 5 6 
#
# 1 0.033194 0.002851 0.000591 0.000000 0.015525 0.000000
# 2 0.002851 0.009519 0.003251 0.000000 0.013787 0.000000
# 3 0.000591 0.003251 0.028545 0.000000 0.033131 0.000000
# 4 0.000000 0.000000 0.000000 0.022973 0.000000 0.011721
# 5 0.015525 0.013787 0.033131 0.000000 0.077123 0.000000
# 6 0.000000 0.000000 0.000000 0.011721 0.000000 0.035908
#
#
# Mechanical properties :
#
#
# Convention : Reuss Voigt Hill
#
# Bulk Modulus (GPa) = 11.81396 42.25669 27.03533
# Shear Modulus (GPa) = 22.51344 40.28106 31.39725
#
# Velocity S-wave (km/s) = 2.96176 3.96168 3.49764
# Velocity P-wave (km/s) = 4.03722 6.11484 5.18124
#
# Compressibility (1/GPa) = 0.08464562
#
# Stress axis : x y z
#
# Youngs Moduli (GPa) = 30.12597 105.04905 35.03239
#
# Poissons Ratio (x) = -0.29952 -0.02071
# Poissons Ratio (y) = -0.08590 -0.11390
# Poissons Ratio (z) = -0.01781 -0.34154
#
# Static dielectric constant tensor:
#      x y z
#    x 4.471160 0.000000 -0.088300 
#    y 0.000000 2.692330 0.000000 
#    z -0.088300 0.000000 2.186630 
# 
# From -- ./inp_files/308777.got.cif
#   From: 2010.05.17/outbox.cif.g08.bks.cpg/sg15_155_cif.got.tgz:308777.got - 2010.06.03 18:47:42.
