data_PCOD9296839
_publ_section_title
;
Structure prediction by ZEFSAII (Michael W. Deem and Ramdas Pophale) SiO2 
 PCOD9296839
Probable space group: C 2/C
;
_chemical_formula_sum "Si O2"
_cell_formula_units_Z 32
_cell_length_a 12.688428
_cell_length_b 5.533604
_cell_length_c 18.884643
_cell_angle_alpha 90.000000
_cell_angle_beta 68.093082
_cell_angle_gamma 90.000000
_cell_volume 1230.197755
_symmetry_space_group_name_H-M "C 2/C"
_symmetry_group_IT_number 15
_symmetry_cell_setting 'monoclinic'
loop_
_space_group_symop_operation_xyz
x,y,z
-x,y,1/2-z
-x,-y,-z
x,-y,1/2+z
1/2+x,1/2+y,z
1/2-x,1/2+y,1/2-z
1/2-x,1/2-y,-z
1/2+x,1/2-y,1/2+z
loop_
_atom_site_type_symbol
_atom_site_label
_atom_site_fract_x
_atom_site_fract_y
_atom_site_fract_z
Si Si1 0.318326 0.845060 0.626908
Si Si2 0.968439 0.749633 0.604296
Si Si3 0.672193 0.529007 0.490721
Si Si4 0.115104 0.954894 0.254357
O O1 0.283628 0.705605 0.564612
O O2 0.214179 0.020142 0.672358
O O3 0.329852 0.683940 0.693808
O O4 0.443963 0.968252 0.593841
O O5 0.893354 0.854650 0.559456
O O6 0.925726 0.800103 0.694869
O O7 0.081278 0.907361 0.566221
O O8 0.750000 0.750000 0.500000
O O9 0.000000 0.847065 0.250000
#
# Coordination Sequence:
#
# PCOD9296839 Si02
#       4
#     8   8   8   8
#     4  11  23  47  73 103 155 194 257 323 377 466
#     4  10  23  46  69 107 145 194 253 314 380 463
#     4  10  24  45  73 106 149 196 254 313 385 459
#     4  11  25  44  70 107 146 194 251 310 390 452
#
# _framework density 26.012079
#
# number of rings (size 3 to 8) (size 9 to 14) (size 15 to 20)
#    0.000    1.500    2.500    0.750    3.500    2.000 
#   13.500    0.000    0.000    0.000    0.000    0.000 
#    0.000    0.000    0.000    0.000    0.000    0.000 
#
# Total GULP energy -89226.163988 kJ/mol
# GULP energy per Si atom -5576.635249 kJ/mol
# Density = 2.595287 g / cm^3
# Si number density = 26.012079 Si / 1000 Ang^3
#
#
#
# Elastic Constant Matrix: (Units=GPa)
#
#
# Indices 1 2 3 4 5 6 
#
# 1 149.7474 49.4356 46.9566 0.0000 10.8753 -0.0001
# 2 49.4356 94.8283 48.5341 -0.0002 -25.9508 -0.0003
# 3 46.9566 48.5341 125.6234 0.0000 -13.0563 0.0000
# 4 0.0000 -0.0002 0.0000 33.5938 0.0000 -1.3106
# 5 10.8753 -25.9508 -13.0563 0.0000 39.1424 -0.0001
# 6 -0.0001 -0.0003 0.0000 -1.3106 -0.0001 44.9259
#
#
#
# Elastic Compliance Matrix: (Units=1/GPa)
#
#
# Indices 1 2 3 4 5 6 
#
# 1 0.009920 -0.006153 -0.002115 0.000000 -0.007541 0.000000
# 2 -0.006153 0.019318 -0.003786 0.000000 0.013254 0.000000
# 3 -0.002115 -0.003786 0.010373 0.000000 0.001537 0.000000
# 4 0.000000 0.000000 0.000000 0.029801 0.000000 0.000869
# 5 -0.007541 0.013254 0.001537 0.000000 0.036943 0.000000
# 6 0.000000 0.000000 0.000000 0.000869 0.000000 0.022284
#
#
# Mechanical properties :
#
#
# Convention : Reuss Voigt Hill
#
# Bulk Modulus (GPa) = 64.49859 73.33908 68.91884
# Shear Modulus (GPa) = 31.66292 38.55060 35.10676
#
# Velocity S-wave (km/s) = 3.49268 3.85389 3.67772
# Velocity P-wave (km/s) = 6.41206 6.93244 6.67732
#
# Compressibility (1/GPa) = 0.01550421
#
# Stress axis : x y z
#
# Youngs Moduli (GPa) = 100.80899 51.76609 96.40224
#
# Poissons Ratio (x) = 0.31850 0.20385
# Poissons Ratio (y) = 0.62024 0.36498
# Poissons Ratio (z) = 0.21316 0.19599
#
# Static dielectric constant tensor:
#      x y z
#    x 2.082660 0.000000 -0.079950 
#    y 0.000000 2.333120 0.000000 
#    z -0.079950 0.000000 2.032300 
# 
# From -- ./inp_files/201804.got.cif
#   From: 2010.05.17/outbox.cif.g08.bks.cpg/sg15_101_cif.got.tgz:201804.got - 2010.06.03 18:47:42.
