data_PCOD9296190
_publ_section_title
;
Structure prediction by ZEFSAII (Michael W. Deem and Ramdas Pophale) SiO2 
 PCOD9296190
Probable space group: C 2/C
;
_chemical_formula_sum "Si O2"
_cell_formula_units_Z 60
_cell_length_a 13.892463
_cell_length_b 17.216725
_cell_length_c 11.177082
_cell_angle_alpha 90.000000
_cell_angle_beta 70.432540
_cell_angle_gamma 90.000000
_cell_volume 2518.972156
_symmetry_space_group_name_H-M "C 2/C"
_symmetry_group_IT_number 15
_symmetry_cell_setting 'monoclinic'
loop_
_space_group_symop_operation_xyz
x,y,z
-x,y,1/2-z
-x,-y,-z
x,-y,1/2+z
1/2+x,1/2+y,z
1/2-x,1/2+y,1/2-z
1/2-x,1/2-y,-z
1/2+x,1/2-y,1/2+z
loop_
_atom_site_type_symbol
_atom_site_label
_atom_site_fract_x
_atom_site_fract_y
_atom_site_fract_z
Si Si1 0.000000 0.500000 0.500000
Si Si2 0.217231 0.116949 0.211603
Si Si3 0.899812 0.300763 0.738699
Si Si4 0.844556 0.717575 0.787462
Si Si5 0.396689 0.505385 0.616539
Si Si6 0.717161 0.012633 0.003152
Si Si7 0.525167 0.821781 0.051084
Si Si8 0.824635 0.139913 0.803636
O O1 0.904684 0.511817 0.437645
O O2 0.010026 0.408711 0.461526
O O3 0.301362 0.144115 0.274163
O O4 0.187823 0.196441 0.160256
O O5 0.267426 0.051702 0.108435
O O6 0.119683 0.075242 0.307326
O O7 0.928385 0.285233 0.588092
O O8 0.878845 0.220434 0.817068
O O9 0.000000 0.339576 0.750000
O O10 0.889890 0.674784 0.881738
O O11 0.754311 0.671156 0.762906
O O12 0.931869 0.724478 0.649376
O O13 0.500000 0.500000 0.500000
O O14 0.293404 0.510878 0.578583
O O15 0.396284 0.577132 0.708456
O O16 0.763380 0.093035 0.930344
#
# Coordination Sequence:
#
# PCOD9296190 Si02
#       8
#     4   8   8   8   8   8   8   8
#     4  12  22  44  68 106 136 180 226 284 364 416
#     4  10  25  44  66 106 135 180 241 287 355 406
#     4  11  26  43  69 101 142 186 230 293 354 428
#     4  10  23  44  69 102 135 176 237 291 344 422
#     4  11  27  43  69  99 137 195 231 292 346 423
#     4  11  24  44  70 101 143 181 232 294 353 428
#     4  11  24  41  72 102 134 186 219 290 355 411
#     4  10  24  43  64  98 134 181 234 283 354 409
#
# _framework density 23.819239
#
# number of rings (size 3 to 8) (size 9 to 14) (size 15 to 20)
#    0.000    1.333    2.667    0.800    7.467    3.733 
#    2.400    2.667    0.000    0.000    0.000    0.000 
#    0.000    0.000    0.000    0.000    0.000    0.000 
#
# Total GULP energy -167258.931911 kJ/mol
# GULP energy per Si atom -5575.297730 kJ/mol
# Density = 2.376503 g / cm^3
# Si number density = 23.819239 Si / 1000 Ang^3
#
#
#
# Elastic Constant Matrix: (Units=GPa)
#
#
# Indices 1 2 3 4 5 6 
#
# 1 83.2390 -2.0589 -3.9485 0.0000 3.5484 0.0000
# 2 -2.0589 120.4423 6.4589 0.0000 -0.6886 0.0000
# 3 -3.9485 6.4589 52.7856 0.0000 -11.4224 0.0000
# 4 0.0000 0.0000 0.0000 19.3291 0.0000 -1.9722
# 5 3.5484 -0.6886 -11.4224 0.0000 32.9064 0.0000
# 6 0.0000 0.0000 0.0000 -1.9722 0.0000 14.9916
#
#
#
# Elastic Compliance Matrix: (Units=1/GPa)
#
#
# Indices 1 2 3 4 5 6 
#
# 1 0.012094 0.000166 0.000652 0.000000 -0.001074 0.000000
# 2 0.000166 0.008361 -0.001056 0.000000 -0.000209 0.000000
# 3 0.000652 -0.001056 0.020654 0.000000 0.007077 0.000000
# 4 0.000000 0.000000 0.000000 0.052439 0.000000 0.006899
# 5 -0.001074 -0.000209 0.007077 0.000000 0.032957 0.000000
# 6 0.000000 0.000000 0.000000 0.006899 0.000000 0.067612
#
#
# Mechanical properties :
#
#
# Convention : Reuss Voigt Hill
#
# Bulk Modulus (GPa) = 24.61084 28.59667 26.60375
# Shear Modulus (GPa) = 24.02243 30.51309 27.26776
#
# Velocity S-wave (km/s) = 3.17918 3.58303 3.38713
# Velocity P-wave (km/s) = 4.88170 5.39900 5.14686
#
# Compressibility (1/GPa) = 0.04063250
#
# Stress axis : x y z
#
# Youngs Moduli (GPa) = 82.68275 119.60296 48.41691
#
# Poissons Ratio (x) = -0.01981 -0.03156
# Poissons Ratio (y) = -0.01370 0.05113
# Poissons Ratio (z) = -0.05390 0.12630
#
# Static dielectric constant tensor:
#      x y z
#    x 1.927980 0.000000 0.008700 
#    y 0.000000 1.871020 0.000000 
#    z 0.008700 0.000000 1.889910 
# 
# From -- ./inp_files/98744.got.cif
#   From: 2010.05.17/outbox.cif.g08.bks.cpg/sg15_50_cif.got.tgz:98744.got - 2010.06.03 18:47:42.
