data_PCOD9296927
_publ_section_title
;
Structure prediction by ZEFSAII (Michael W. Deem and Ramdas Pophale) SiO2 
 PCOD9296927
Probable space group: C 2/C
;
_chemical_formula_sum "Si O2"
_cell_formula_units_Z 60
_cell_length_a 26.496652
_cell_length_b 11.808274
_cell_length_c 23.972463
_cell_angle_alpha 90.000000
_cell_angle_beta 157.949735
_cell_angle_gamma 90.000000
_cell_volume 2815.835773
_symmetry_space_group_name_H-M "C 2/C"
_symmetry_group_IT_number 15
_symmetry_cell_setting 'monoclinic'
loop_
_space_group_symop_operation_xyz
x,y,z
-x,y,1/2-z
-x,-y,-z
x,-y,1/2+z
1/2+x,1/2+y,z
1/2-x,1/2+y,1/2-z
1/2-x,1/2-y,-z
1/2+x,1/2-y,1/2+z
loop_
_atom_site_type_symbol
_atom_site_label
_atom_site_fract_x
_atom_site_fract_y
_atom_site_fract_z
Si Si1 0.901225 0.966032 0.103471
Si Si2 0.342378 0.017668 0.936204
Si Si3 0.984171 0.727227 0.022787
Si Si4 0.500586 0.199501 0.910446
Si Si5 0.250000 0.750000 0.500000
Si Si6 0.149147 0.045587 0.137764
Si Si7 0.626005 0.340017 0.267455
Si Si8 0.710634 0.616484 0.598908
O O1 0.831092 0.863833 0.064027
O O2 0.000000 0.023252 0.250000
O O3 0.995546 0.910925 0.152072
O O4 0.797931 0.047701 0.967106
O O5 0.254602 0.078097 0.893795
O O6 0.238428 0.970521 0.783855
O O7 0.429656 0.115555 0.996587
O O8 0.435395 0.914176 0.049345
O O9 0.095641 0.783039 0.176884
O O10 0.870408 0.824224 0.899499
O O11 0.028014 0.698672 0.005149
O O12 0.341571 0.194532 0.738156
O O13 0.576161 0.308792 0.965193
O O14 0.338142 0.751437 0.649205
O O15 0.209884 0.970455 0.150201
O O16 0.000000 0.000000 0.000000
#
# Coordination Sequence:
#
# PCOD9296927 Si02
#       8
#     8   8   8   8   4   8   8   8
#     4  10  23  46  73 100 133 181 236 297 358 417
#     4  12  26  40  64 103 142 187 238 280 343 430
#     4  12  24  39  63 103 145 188 226 286 349 422
#     4  12  28  43  68 102 150 190 235 283 346 435
#     4  10  24  44  72 104 132 172 228 298 358 414
#     4  12  22  39  65  97 140 189 228 278 353 420
#     4  11  23  42  70  99 137 183 227 295 355 417
#     4  12  25  46  69 102 138 191 234 291 351 424
#
# _framework density 21.308060999999999
#
# number of rings (size 3 to 8) (size 9 to 14) (size 15 to 20)
#    0.000    0.533    5.333    2.000    5.600    0.000 
#    0.000    0.667    0.000    0.000    0.000    0.000 
#    0.000    0.000    0.000    0.000    0.000    0.000 
#
# Total GULP energy -167388.118092 kJ/mol
# GULP energy per Si atom -5579.603936 kJ/mol
# Density = 2.125956 g / cm^3
# Si number density = 21.308061 Si / 1000 Ang^3
#
#
#
# Elastic Constant Matrix: (Units=GPa)
#
#
# Indices 1 2 3 4 5 6 
#
# 1 52.8538 1.5006 14.0770 0.0003 2.3127 0.0002
# 2 1.5006 49.9645 -8.3779 0.0007 15.3912 0.0005
# 3 14.0770 -8.3779 70.1937 0.0008 -7.3603 0.0006
# 4 0.0003 0.0007 0.0008 40.1214 0.0003 10.9563
# 5 2.3127 15.3912 -7.3603 0.0003 22.3545 0.0001
# 6 0.0002 0.0005 0.0006 10.9563 0.0001 10.2311
#
#
#
# Elastic Compliance Matrix: (Units=1/GPa)
#
#
# Indices 1 2 3 4 5 6 
#
# 1 0.020261 -0.000327 -0.004452 0.000000 -0.003337 0.000000
# 2 -0.000327 0.025512 0.001318 0.000000 -0.017097 -0.000001
# 3 -0.004452 0.001318 0.015795 0.000000 0.004754 -0.000001
# 4 0.000000 0.000000 0.000000 0.035225 0.000000 -0.037722
# 5 -0.003337 -0.017097 0.004754 0.000000 0.058416 0.000000
# 6 0.000000 -0.000001 -0.000001 -0.037722 0.000000 0.138137
#
#
# Mechanical properties :
#
#
# Convention : Reuss Voigt Hill
#
# Bulk Modulus (GPa) = 18.30007 20.82347 19.56177
# Shear Modulus (GPa) = 15.69936 25.59556 20.64746
#
# Velocity S-wave (km/s) = 2.71731 3.46961 3.11625
# Velocity P-wave (km/s) = 4.29558 5.08377 4.70621
#
# Compressibility (1/GPa) = 0.05464461
#
# Stress axis : x y z
#
# Youngs Moduli (GPa) = 49.35543 39.19769 63.31148
#
# Poissons Ratio (x) = 0.01282 0.28188
# Poissons Ratio (y) = 0.01615 -0.08343
# Poissons Ratio (z) = 0.21974 -0.05165
#
# Static dielectric constant tensor:
#      x y z
#    x 1.771280 0.000000 0.019840 
#    y 0.000000 1.782930 0.000000 
#    z 0.019840 0.000000 1.796150 
# 
# From -- ./inp_files/304329.got.cif
#   From: 2010.05.17/outbox.cif.g08.bks.cpg/sg15_153_cif.got.tgz:304329.got - 2010.06.03 18:47:42.
