data_PCOD9296242
_publ_section_title
;
Structure prediction by ZEFSAII (Michael W. Deem and Ramdas Pophale) SiO2 
 PCOD9296242
Probable space group: C 2/C
;
_chemical_formula_sum "Si O2"
_cell_formula_units_Z 36
_cell_length_a 13.469946
_cell_length_b 7.429343
_cell_length_c 20.166608
_cell_angle_alpha 90.000000
_cell_angle_beta 44.936707
_cell_angle_gamma 90.000000
_cell_volume 1425.456077
_symmetry_space_group_name_H-M "C 2/C"
_symmetry_group_IT_number 15
_symmetry_cell_setting 'monoclinic'
loop_
_space_group_symop_operation_xyz
x,y,z
-x,y,1/2-z
-x,-y,-z
x,-y,1/2+z
1/2+x,1/2+y,z
1/2-x,1/2+y,1/2-z
1/2-x,1/2-y,-z
1/2+x,1/2-y,1/2+z
loop_
_atom_site_type_symbol
_atom_site_label
_atom_site_fract_x
_atom_site_fract_y
_atom_site_fract_z
Si Si1 0.000000 0.084561 0.750000
Si Si2 0.193139 0.492755 0.893822
Si Si3 0.099499 0.585625 0.289350
Si Si4 0.591792 0.810034 0.070897
Si Si5 0.384326 0.397337 0.597603
O O1 0.140455 0.971069 0.670191
O O2 0.047866 0.222416 0.786367
O O3 0.151826 0.417025 0.841068
O O4 0.168208 0.708438 0.908493
O O5 0.100763 0.402859 0.994079
O O6 0.236651 0.512014 0.185649
O O7 0.965500 0.455268 0.350805
O O8 0.472012 0.659313 0.121460
O O9 0.750000 0.750000 0.000000
O O10 0.500000 0.500000 0.500000
#
# Coordination Sequence:
#
# PCOD9296242 Si02
#       5
#     4   8   8   8   8
#     4  10  24  44  72 106 136 198 234 294 372 422
#     4  10  24  46  69 102 143 183 246 294 361 439
#     4  10  23  45  69 101 141 186 239 294 363 428
#     4  11  26  44  67 109 139 187 242 299 362 434
#     4  10  23  44  70 101 135 187 232 296 369 425
#
# _framework density 25.255074
#
# number of rings (size 3 to 8) (size 9 to 14) (size 15 to 20)
#    0.000    1.778    0.000    2.667    9.333   11.556 
#    0.000    0.000    0.000    0.000    0.000    0.000 
#    0.000    0.000    0.000    0.000    0.000    0.000 
#
# Total GULP energy -100665.004814 kJ/mol
# GULP energy per Si atom -5592.500267 kJ/mol
# Density = 2.519759 g / cm^3
# Si number density = 25.255074 Si / 1000 Ang^3
#
#
#
# Elastic Constant Matrix: (Units=GPa)
#
#
# Indices 1 2 3 4 5 6 
#
# 1 104.2405 21.5701 52.9782 0.0000 -28.0482 0.0000
# 2 21.5701 52.6818 30.3974 0.0000 -2.3742 0.0000
# 3 52.9782 30.3974 172.5295 0.0000 -38.9282 0.0000
# 4 0.0000 0.0000 0.0000 50.3400 0.0000 -10.6683
# 5 -28.0482 -2.3742 -38.9282 0.0000 59.0016 0.0000
# 6 0.0000 0.0000 0.0000 -10.6683 0.0000 41.0628
#
#
#
# Elastic Compliance Matrix: (Units=1/GPa)
#
#
# Indices 1 2 3 4 5 6 
#
# 1 0.012685 -0.003696 -0.002252 0.000000 0.004396 0.000000
# 2 -0.003696 0.022387 -0.003528 0.000000 -0.003184 0.000000
# 3 -0.002252 -0.003528 0.008031 0.000000 0.004086 0.000000
# 4 0.000000 0.000000 0.000000 0.021022 0.000000 0.005462
# 5 0.004396 -0.003184 0.004086 0.000000 0.021606 0.000000
# 6 0.000000 0.000000 0.000000 0.005462 0.000000 0.025772
#
#
# Mechanical properties :
#
#
# Convention : Reuss Voigt Hill
#
# Bulk Modulus (GPa) = 41.40532 59.92702 50.66617
# Shear Modulus (GPa) = 36.09912 45.04796 40.57354
#
# Velocity S-wave (km/s) = 3.78482 4.22799 4.01253
# Velocity P-wave (km/s) = 5.96072 6.90035 6.44767
#
# Compressibility (1/GPa) = 0.02415149
#
# Stress axis : x y z
#
# Youngs Moduli (GPa) = 78.83024 44.66818 124.51406
#
# Poissons Ratio (x) = 0.16511 0.28044
# Poissons Ratio (y) = 0.29138 0.43925
# Poissons Ratio (z) = 0.17755 0.15758
#
# Static dielectric constant tensor:
#      x y z
#    x 2.090510 0.000000 -0.001530 
#    y 0.000000 2.287920 0.000000 
#    z -0.001530 0.000000 1.986640 
# 
# From -- ./inp_files/150245.got.cif
#   From: 2010.05.17/outbox.cif.g08.bks.cpg/sg15_76_cif.got.tgz:150245.got - 2010.06.03 18:47:42.
