data_PCOD9296916
_publ_section_title
;
Structure prediction by ZEFSAII (Michael W. Deem and Ramdas Pophale) SiO2 
 PCOD9296916
Probable space group: C 2/C
;
_chemical_formula_sum "Si O2"
_cell_formula_units_Z 32
_cell_length_a 29.815847
_cell_length_b 7.598429
_cell_length_c 12.133935
_cell_angle_alpha 90.000000
_cell_angle_beta 31.415685
_cell_angle_gamma 90.000000
_cell_volume 1432.890788
_symmetry_space_group_name_H-M "C 2/C"
_symmetry_group_IT_number 15
_symmetry_cell_setting 'monoclinic'
loop_
_space_group_symop_operation_xyz
x,y,z
-x,y,1/2-z
-x,-y,-z
x,-y,1/2+z
1/2+x,1/2+y,z
1/2-x,1/2+y,1/2-z
1/2-x,1/2-y,-z
1/2+x,1/2-y,1/2+z
loop_
_atom_site_type_symbol
_atom_site_label
_atom_site_fract_x
_atom_site_fract_y
_atom_site_fract_z
Si Si1 0.503638 0.262621 0.090196
Si Si2 0.359835 0.410113 0.541370
Si Si3 0.292336 0.769812 0.790428
Si Si4 0.977271 0.366265 0.415103
O O1 0.433568 0.390307 0.292310
O O2 0.478683 0.058197 0.168486
O O3 0.594689 0.302311 0.955186
O O4 0.503848 0.260122 0.958547
O O5 0.332614 0.592068 0.654985
O O6 0.275919 0.336674 0.655767
O O7 0.375016 0.893720 0.633875
O O8 0.250000 0.750000 0.000000
O O9 0.000000 0.288311 0.250000
#
# Coordination Sequence:
#
# PCOD9296916 Si02
#       4
#     8   8   8   8
#     4  10  23  46  72 104 142 188 241 296 359 429
#     4  11  24  46  72 104 149 183 245 296 363 426
#     4  12  27  46  73 108 148 189 244 301 363 429
#     4  11  23  43  77 101 144 192 241 290 363 430
#
# _framework density 22.332474999999999
#
# number of rings (size 3 to 8) (size 9 to 14) (size 15 to 20)
#    0.000    1.000    5.000    1.500    3.500    3.000 
#    0.000    3.750    0.000    0.000    0.000    0.000 
#    0.000    0.000    0.000    0.000    0.000    0.000 
#
# Total GULP energy -89382.726176 kJ/mol
# GULP energy per Si atom -5586.420386 kJ/mol
# Density = 2.228165 g / cm^3
# Si number density = 22.332475 Si / 1000 Ang^3
#
#
#
# Elastic Constant Matrix: (Units=GPa)
#
#
# Indices 1 2 3 4 5 6 
#
# 1 190.2475 41.2867 52.4534 0.0000 19.3066 0.0000
# 2 41.2867 118.2811 49.3558 0.0000 18.1655 0.0000
# 3 52.4534 49.3558 98.5039 0.0000 28.3306 0.0000
# 4 0.0000 0.0000 0.0000 33.4648 0.0000 -0.3409
# 5 19.3066 18.1655 28.3306 0.0000 50.1957 0.0000
# 6 0.0000 0.0000 0.0000 -0.3409 0.0000 29.5421
#
#
#
# Elastic Compliance Matrix: (Units=1/GPa)
#
#
# Indices 1 2 3 4 5 6 
#
# 1 0.006266 -0.000982 -0.002690 0.000000 -0.000536 0.000000
# 2 -0.000982 0.010886 -0.004664 0.000000 -0.000929 0.000000
# 3 -0.002690 -0.004664 0.015684 0.000000 -0.006130 0.000000
# 4 0.000000 0.000000 0.000000 0.029886 0.000000 0.000345
# 5 -0.000536 -0.000929 -0.006130 0.000000 0.023924 0.000000
# 6 0.000000 0.000000 0.000000 0.000345 0.000000 0.033854
#
#
# Mechanical properties :
#
#
# Convention : Reuss Voigt Hill
#
# Bulk Modulus (GPa) = 61.86954 77.02492 69.44723
# Shear Modulus (GPa) = 35.07275 40.23631 37.65453
#
# Velocity S-wave (km/s) = 3.96723 4.24924 4.11066
# Velocity P-wave (km/s) = 6.98206 7.65766 7.32765
#
# Compressibility (1/GPa) = 0.01616304
#
# Stress axis : x y z
#
# Youngs Moduli (GPa) = 159.60273 91.85851 63.75778
#
# Poissons Ratio (x) = 0.09022 0.17151
# Poissons Ratio (y) = 0.15676 0.29739
# Poissons Ratio (z) = 0.42934 0.42846
#
# Static dielectric constant tensor:
#      x y z
#    x 1.842340 0.000000 0.005420 
#    y 0.000000 1.860370 0.000000 
#    z 0.005420 0.000000 1.828110 
# 
# From -- ./inp_files/116106.got.cif
#   From: 2010.05.17/outbox.cif.g08.bks.cpg/sg15_59_cif.got.tgz:116106.got - 2010.06.03 18:47:42.
