data_PCOD9296982
_publ_section_title
;
Structure prediction by ZEFSAII (Michael W. Deem and Ramdas Pophale) SiO2 
 PCOD9296982
Probable space group: C 2/C
;
_chemical_formula_sum "Si O2"
_cell_formula_units_Z 40
_cell_length_a 12.999811
_cell_length_b 8.467980
_cell_length_c 19.558337
_cell_angle_alpha 90.000000
_cell_angle_beta 128.299885
_cell_angle_gamma 90.000000
_cell_volume 1689.644711
_symmetry_space_group_name_H-M "C 2/C"
_symmetry_group_IT_number 15
_symmetry_cell_setting 'monoclinic'
loop_
_space_group_symop_operation_xyz
x,y,z
-x,y,1/2-z
-x,-y,-z
x,-y,1/2+z
1/2+x,1/2+y,z
1/2-x,1/2+y,1/2-z
1/2-x,1/2-y,-z
1/2+x,1/2-y,1/2+z
loop_
_atom_site_type_symbol
_atom_site_label
_atom_site_fract_x
_atom_site_fract_y
_atom_site_fract_z
Si Si1 0.622334 0.164209 0.086385
Si Si2 0.712699 0.640636 0.819839
Si Si3 0.608586 0.822000 0.427965
Si Si4 0.117087 0.688569 0.410201
Si Si5 0.358856 0.674794 0.266678
O O1 0.514009 0.207672 0.098243
O O2 0.762145 0.241414 0.166840
O O3 0.673510 0.980965 0.106413
O O4 0.562094 0.193839 0.987820
O O5 0.373756 0.720246 0.657537
O O6 0.635743 0.512285 0.742534
O O7 0.779400 0.774696 0.801558
O O8 0.750000 0.750000 0.500000
O O9 0.504132 0.738446 0.336213
O O10 0.624077 0.999671 0.408368
O O11 0.250000 0.750000 0.500000
#
# Coordination Sequence:
#
# PCOD9296982 Si02
#       5
#     8   8   8   8   8
#     4  10  24  48  76 108 157 196 269 327 393 470
#     4  10  23  46  79 107 154 206 265 324 402 469
#     4  12  25  46  76 116 156 205 261 337 395 478
#     4  12  22  45  82 113 147 207 260 326 409 474
#     4  10  23  49  72 110 161 200 262 336 395 480
#
# _framework density 23.673617
#
# number of rings (size 3 to 8) (size 9 to 14) (size 15 to 20)
#    1.200    0.000    4.000    1.800    0.000    4.800 
#    3.600    5.000    0.000    0.000    0.000    0.000 
#    0.000    0.000    0.000    0.000    0.000    0.000 
#
# Total GULP energy -111578.001793 kJ/mol
# GULP energy per Si atom -5578.900090 kJ/mol
# Density = 2.361973 g / cm^3
# Si number density = 23.673617 Si / 1000 Ang^3
#
#
#
# Elastic Constant Matrix: (Units=GPa)
#
#
# Indices 1 2 3 4 5 6 
#
# 1 149.1513 78.1915 50.2705 0.0000 22.4654 0.0000
# 2 78.1915 111.3070 65.5391 0.0000 8.9590 0.0000
# 3 50.2705 65.5391 181.5544 0.0000 31.4154 0.0000
# 4 0.0000 0.0000 0.0000 46.8417 0.0000 3.9675
# 5 22.4654 8.9590 31.4154 0.0000 42.1650 0.0000
# 6 0.0000 0.0000 0.0000 3.9675 0.0000 37.7364
#
#
#
# Elastic Compliance Matrix: (Units=1/GPa)
#
#
# Indices 1 2 3 4 5 6 
#
# 1 0.011412 -0.007948 0.000539 0.000000 -0.004793 0.000000
# 2 -0.007948 0.016965 -0.004629 0.000000 0.004079 0.000000
# 3 0.000539 -0.004629 0.007932 0.000000 -0.005213 0.000000
# 4 0.000000 0.000000 0.000000 0.021540 0.000000 -0.002265
# 5 -0.004793 0.004079 -0.005213 0.000000 0.029287 0.000000
# 6 0.000000 0.000000 0.000000 -0.002265 0.000000 0.026738
#
#
# Mechanical properties :
#
#
# Convention : Reuss Voigt Hill
#
# Bulk Modulus (GPa) = 81.75619 92.22390 86.99004
# Shear Modulus (GPa) = 35.20435 41.88272 38.54353
#
# Velocity S-wave (km/s) = 3.86044 4.21072 4.03938
# Velocity P-wave (km/s) = 7.38108 7.91714 7.65381
#
# Compressibility (1/GPa) = 0.01223149
#
# Stress axis : x y z
#
# Youngs Moduli (GPa) = 87.63068 58.94540 126.07100
#
# Poissons Ratio (x) = 0.46849 -0.06791
# Poissons Ratio (y) = 0.69647 0.58362
# Poissons Ratio (z) = -0.04720 0.27287
#
# Static dielectric constant tensor:
#      x y z
#    x 1.991920 0.000000 -0.027280 
#    y 0.000000 1.051360 0.000000 
#    z -0.027280 0.000000 1.916180 
# 
# From -- ./inp_files/315407.got.cif
#   From: 2010.05.17/outbox.cif.g08.bks.cpg/sg15_158_cif.got.tgz:315407.got - 2010.06.03 18:47:42.
