data_PCOD9296585
_publ_section_title
;
Structure prediction by ZEFSAII (Michael W. Deem and Ramdas Pophale) SiO2 
 PCOD9296585
Probable space group: C 2/C
;
_chemical_formula_sum "Si O2"
_cell_formula_units_Z 44
_cell_length_a 11.624256
_cell_length_b 12.850648
_cell_length_c 13.828178
_cell_angle_alpha 90.000000
_cell_angle_beta 105.230304
_cell_angle_gamma 90.000000
_cell_volume 1993.092330
_symmetry_space_group_name_H-M "C 2/C"
_symmetry_group_IT_number 15
_symmetry_cell_setting 'monoclinic'
loop_
_space_group_symop_operation_xyz
x,y,z
-x,y,1/2-z
-x,-y,-z
x,-y,1/2+z
1/2+x,1/2+y,z
1/2-x,1/2+y,1/2-z
1/2-x,1/2-y,-z
1/2+x,1/2-y,1/2+z
loop_
_atom_site_type_symbol
_atom_site_label
_atom_site_fract_x
_atom_site_fract_y
_atom_site_fract_z
Si Si1 0.219204 0.854023 0.933406
Si Si2 0.284526 0.709697 0.277704
Si Si3 0.096024 0.502422 0.436489
Si Si4 0.000000 0.647102 0.750000
Si Si5 0.631001 0.240981 0.409500
Si Si6 0.467587 0.613488 0.455698
O O1 0.257674 0.842198 0.830800
O O2 0.077036 0.858608 0.909954
O O3 0.250000 0.750000 0.000000
O O4 0.280985 0.955135 0.993935
O O5 0.391245 0.787592 0.272093
O O6 0.177115 0.766045 0.311702
O O7 0.348160 0.628146 0.365355
O O8 0.055857 0.424731 0.344507
O O9 0.097070 0.620458 0.401188
O O10 0.000000 0.500000 0.500000
O O11 0.750000 0.250000 0.500000
O O12 0.540888 0.311652 0.451608
O O13 0.500000 0.500000 0.500000
#
# Coordination Sequence:
#
# PCOD9296585 Si02
#       6
#     8   8   8   4   8   8
#     4  12  22  42  70 102 139 183 242 284 357 435
#     4  11  22  45  69 104 143 187 232 301 359 426
#     4  12  26  44  71 102 139 189 234 299 364 434
#     4  12  24  46  72  98 142 188 238 290 366 428
#     4  10  23  45  68  99 143 178 234 298 357 426
#     4  11  23  46  71 101 140 187 232 295 361 429
#
# _framework density 22.076248
#
# number of rings (size 3 to 8) (size 9 to 14) (size 15 to 20)
#    0.000    0.727    3.636    5.455    2.545    0.000 
#    0.000    1.818    0.000    0.000    0.000    0.000 
#    0.000    0.000    0.000    0.000    0.000    0.000 
#
# Total GULP energy -122993.164796 kJ/mol
# GULP energy per Si atom -5590.598400 kJ/mol
# Density = 2.202600 g / cm^3
# Si number density = 22.076248 Si / 1000 Ang^3
#
#
#
# Elastic Constant Matrix: (Units=GPa)
#
#
# Indices 1 2 3 4 5 6 
#
# 1 76.2753 12.5536 19.5663 0.0000 -29.8374 0.0000
# 2 12.5536 122.0325 35.6903 0.0000 -11.3443 0.0000
# 3 19.5663 35.6903 133.8465 0.0000 -22.9409 0.0000
# 4 0.0000 0.0000 0.0000 39.0845 0.0000 -1.8521
# 5 -29.8374 -11.3443 -22.9409 0.0000 44.4248 0.0000
# 6 0.0000 0.0000 0.0000 -1.8521 0.0000 35.3411
#
#
#
# Elastic Compliance Matrix: (Units=1/GPa)
#
#
# Indices 1 2 3 4 5 6 
#
# 1 0.017871 -0.000626 -0.000456 0.000000 0.011608 0.000000
# 2 -0.000626 0.008963 -0.002170 0.000000 0.000748 0.000000
# 3 -0.000456 -0.002170 0.008743 0.000000 0.003654 0.000000
# 4 0.000000 0.000000 0.000000 0.025649 0.000000 0.001344
# 5 0.011608 0.000748 0.003654 0.000000 0.032384 0.000000
# 6 0.000000 0.000000 0.000000 0.001344 0.000000 0.028366
#
#
# Mechanical properties :
#
#
# Convention : Reuss Voigt Hill
#
# Bulk Modulus (GPa) = 34.39686 51.97496 43.18591
# Shear Modulus (GPa) = 36.18669 41.39303 38.78986
#
# Velocity S-wave (km/s) = 4.05306 4.33483 4.19631
# Velocity P-wave (km/s) = 6.12518 6.97487 6.56379
#
# Compressibility (1/GPa) = 0.02907242
#
# Stress axis : x y z
#
# Youngs Moduli (GPa) = 55.95636 111.56735 114.37729
#
# Poissons Ratio (x) = 0.06984 0.05216
# Poissons Ratio (y) = 0.03503 0.24824
# Poissons Ratio (z) = 0.02552 0.24214
#
# Static dielectric constant tensor:
#      x y z
#    x 1.884650 0.000000 -0.025060 
#    y 0.000000 1.822250 0.000000 
#    z -0.025060 0.000000 1.829630 
# 
# From -- ./inp_files/142271.got.cif
#   From: 2010.05.17/outbox.cif.g08.bks.cpg/sg15_72_cif.got.tgz:142271.got - 2010.06.03 18:47:42.
