data_PCOD9296648
_publ_section_title
;
Structure prediction by ZEFSAII (Michael W. Deem and Ramdas Pophale) SiO2 
 PCOD9296648
Probable space group: C 2/C
;
_chemical_formula_sum "Si O2"
_cell_formula_units_Z 32
_cell_length_a 22.559355
_cell_length_b 6.793292
_cell_length_c 14.351122
_cell_angle_alpha 90.000000
_cell_angle_beta 150.982649
_cell_angle_gamma 90.000000
_cell_volume 1066.844757
_symmetry_space_group_name_H-M "C 2/C"
_symmetry_group_IT_number 15
_symmetry_cell_setting 'monoclinic'
loop_
_space_group_symop_operation_xyz
x,y,z
-x,y,1/2-z
-x,-y,-z
x,-y,1/2+z
1/2+x,1/2+y,z
1/2-x,1/2+y,1/2-z
1/2-x,1/2-y,-z
1/2+x,1/2-y,1/2+z
loop_
_atom_site_type_symbol
_atom_site_label
_atom_site_fract_x
_atom_site_fract_y
_atom_site_fract_z
Si Si1 0.322832 0.073062 0.754027
Si Si2 0.946972 0.070451 0.086769
Si Si3 0.095316 0.325150 0.800378
Si Si4 0.282689 0.533279 0.701464
O O1 0.325068 0.039425 0.867993
O O2 0.182545 0.998638 0.548085
O O3 0.403434 0.964555 0.789032
O O4 0.319931 0.307862 0.734057
O O5 0.038130 0.889170 0.194311
O O6 0.000000 0.184978 0.250000
O O7 0.893281 0.136053 0.912569
O O8 0.000000 0.382671 0.750000
O O9 0.224167 0.372740 0.030320
#
# Coordination Sequence:
#
# PCOD9296648 Si02
#       4
#     8   8   8   8
#     4  10  23  45  71 106 147 177 251 292 341 448
#     4   9  22  42  66 101 139 187 232 283 358 411
#     4  11  23  43  76 103 143 195 231 295 363 413
#     4  10  23  45  72 103 142 186 233 297 355 414
#
# _framework density 29.994993000000001
#
# number of rings (size 3 to 8) (size 9 to 14) (size 15 to 20)
#    1.500    0.500    0.000    3.750    0.000    9.000 
#    0.000    5.000    0.000    0.000    0.000    0.000 
#    0.000    0.000    0.000    0.000    0.000    0.000 
#
# Total GULP energy -89379.300937 kJ/mol
# GULP energy per Si atom -5586.206309 kJ/mol
# Density = 2.992672 g / cm^3
# Si number density = 29.994993 Si / 1000 Ang^3
#
#
#
# Elastic Constant Matrix: (Units=GPa)
#
#
# Indices 1 2 3 4 5 6 
#
# 1 167.0705 37.6855 79.9617 0.0000 -36.6912 0.0000
# 2 37.6855 176.3984 29.6071 0.0000 -28.9652 0.0000
# 3 79.9617 29.6071 226.4424 0.0000 -37.6330 0.0000
# 4 0.0000 0.0000 0.0000 -22.9514 0.0000 17.0820
# 5 -36.6912 -28.9652 -37.6330 0.0000 90.3053 0.0000
# 6 0.0000 0.0000 0.0000 17.0820 0.0000 38.8087
#
#
#
# Elastic Compliance Matrix: (Units=1/GPa)
#
#
# Indices 1 2 3 4 5 6 
#
# 1 0.007706 -0.000955 -0.002285 0.000000 0.001872 0.000000
# 2 -0.000955 0.006155 -0.000219 0.000000 0.001495 0.000000
# 3 -0.002285 -0.000219 0.005464 0.000000 0.001278 0.000000
# 4 0.000000 0.000000 0.000000 -0.032819 0.000000 0.014446
# 5 0.001872 0.001495 0.001278 0.000000 0.012846 0.000000
# 6 0.000000 0.000000 0.000000 0.014446 0.000000 0.019409
#
#
# Mechanical properties :
#
#
# Convention : Reuss Voigt Hill
#
# Bulk Modulus (GPa) = 80.60286 96.04667 88.32477
# Shear Modulus (GPa) = 167.69485 49.40964 108.55225
#
# Velocity S-wave (km/s) = 7.48525 4.06305 6.02235
# Velocity P-wave (km/s) = 10.08146 7.35538 8.82432
#
# Compressibility (1/GPa) = 0.01240651
#
# Stress axis : x y z
#
# Youngs Moduli (GPa) = 129.77259 162.46155 183.01197
#
# Poissons Ratio (x) = 0.15520 0.41819
# Poissons Ratio (y) = 0.12397 0.04008
# Poissons Ratio (z) = 0.29653 0.03558
#
# Static dielectric constant tensor:
#      x y z
#    x 2.369030 0.000000 0.047660 
#    y 0.000000 2.306450 0.000000 
#    z 0.047660 0.000000 2.516550 
# 
# From -- ./inp_files/172543.got.cif
#   From: 2010.05.17/outbox.cif.g08.bks.cpg/sg15_87_cif.got.tgz:172543.got - 2010.06.03 18:47:42.
