data_PCOD9296496
_publ_section_title
;
Structure prediction by ZEFSAII (Michael W. Deem and Ramdas Pophale) SiO2 
 PCOD9296496
Probable space group: C 2/C
;
_chemical_formula_sum "Si O2"
_cell_formula_units_Z 36
_cell_length_a 9.817925
_cell_length_b 22.150167
_cell_length_c 7.877330
_cell_angle_alpha 90.000000
_cell_angle_beta 112.622230
_cell_angle_gamma 90.000000
_cell_volume 1581.270535
_symmetry_space_group_name_H-M "C 2/C"
_symmetry_group_IT_number 15
_symmetry_cell_setting 'monoclinic'
loop_
_space_group_symop_operation_xyz
x,y,z
-x,y,1/2-z
-x,-y,-z
x,-y,1/2+z
1/2+x,1/2+y,z
1/2-x,1/2+y,1/2-z
1/2-x,1/2-y,-z
1/2+x,1/2-y,1/2+z
loop_
_atom_site_type_symbol
_atom_site_label
_atom_site_fract_x
_atom_site_fract_y
_atom_site_fract_z
Si Si1 0.500000 0.853030 0.750000
Si Si2 0.000000 0.596476 0.750000
Si Si3 0.817420 0.448995 0.467793
Si Si4 0.198009 0.312029 0.558514
Si Si5 0.132015 0.046761 0.567810
Si Si6 0.500000 0.640551 0.250000
O O1 0.370292 0.898891 0.626708
O O2 0.565103 0.812995 0.629951
O O3 0.054240 0.557205 0.614422
O O4 0.868893 0.640694 0.615087
O O5 0.765644 0.510168 0.537357
O O6 0.679222 0.435817 0.279128
O O7 0.250000 0.250000 0.500000
O O8 0.349425 0.327513 0.731723
O O9 0.066202 0.101306 0.432285
O O10 0.000000 0.000000 0.500000
#
# Coordination Sequence:
#
# PCOD9296496 Si02
#       6
#     4   4   8   8   8   4
#     4  10  26  47  72 104 142 188 241 294 362 430
#     4  10  23  45  66 100 138 184 238 294 344 424
#     4  11  24  41  65 101 144 189 235 277 350 431
#     4  11  24  48  74  99 136 185 244 305 360 412
#     4  12  23  40  65 101 147 187 229 283 352 425
#     4  12  23  42  70 102 142 188 233 298 352 418
#
# _framework density 22.766501999999999
#
# number of rings (size 3 to 8) (size 9 to 14) (size 15 to 20)
#    0.000    0.889    4.444    2.000    0.000    2.667 
#    0.000   12.222    0.000    0.000    0.000    0.000 
#    0.000    0.000    0.000    0.000    0.000    0.000 
#
# Total GULP energy -100334.801794 kJ/mol
# GULP energy per Si atom -5574.155655 kJ/mol
# Density = 2.271468 g / cm^3
# Si number density = 22.766502 Si / 1000 Ang^3
#
#
#
# Elastic Constant Matrix: (Units=GPa)
#
#
# Indices 1 2 3 4 5 6 
#
# 1 126.1131 54.0996 28.3379 0.0000 17.6680 0.0000
# 2 54.0996 92.9713 49.3343 0.0000 0.6392 0.0000
# 3 28.3379 49.3343 133.0936 0.0000 21.0092 0.0000
# 4 0.0000 0.0000 0.0000 -3.5497 0.0000 9.1923
# 5 17.6680 0.6392 21.0092 0.0000 52.6601 0.0000
# 6 0.0000 0.0000 0.0000 9.1923 0.0000 41.0470
#
#
#
# Elastic Compliance Matrix: (Units=1/GPa)
#
#
# Indices 1 2 3 4 5 6 
#
# 1 0.011308 -0.006987 0.000819 0.000000 -0.004036 0.000000
# 2 -0.006987 0.017895 -0.005850 0.000000 0.004461 0.000000
# 3 0.000819 -0.005850 0.010181 0.000000 -0.004266 0.000000
# 4 0.000000 0.000000 0.000000 -0.178309 0.000000 0.039931
# 5 -0.004036 0.004461 -0.004266 0.000000 0.021991 0.000000
# 6 0.000000 0.000000 0.000000 0.039931 0.000000 0.015420
#
#
# Mechanical properties :
#
#
# Convention : Reuss Voigt Hill
#
# Bulk Modulus (GPa) = 65.15104 68.41351 66.78227
# Shear Modulus (GPa) = -69.09710 32.72524 -18.18593
#
# Velocity S-wave (km/s) = -5.51509 3.79546 -2.82938
# Velocity P-wave (km/s) = 3.44613 7.02301 4.32706
#
# Compressibility (1/GPa) = 0.01534895
#
# Stress axis : x y z
#
# Youngs Moduli (GPa) = 88.43276 55.88080 98.22469
#
# Poissons Ratio (x) = 0.39045 -0.08048
# Poissons Ratio (y) = 0.61789 0.57459
# Poissons Ratio (z) = -0.07246 0.32689
#
# Static dielectric constant tensor:
#      x y z
#    x 1.888510 0.000000 0.013520 
#    y 0.000000 1.484780 0.000000 
#    z 0.013520 0.000000 1.834730 
# 
# From -- ./inp_files/23895.got.cif
#   From: 2010.05.17/outbox.cif.g08.bks.cpg/sg15_12_cif.got.tgz:23895.got - 2010.06.03 18:47:42.
