data_PCOD9296066
_publ_section_title
;
Structure prediction by ZEFSAII (Michael W. Deem and Ramdas Pophale) SiO2 
 PCOD9296066
Probable space group: C 2/C
;
_chemical_formula_sum "Si O2"
_cell_formula_units_Z 36
_cell_length_a 25.414974
_cell_length_b 11.447751
_cell_length_c 12.087352
_cell_angle_alpha 90.000000
_cell_angle_beta 22.575548
_cell_angle_gamma 90.000000
_cell_volume 1350.083366
_symmetry_space_group_name_H-M "C 2/C"
_symmetry_group_IT_number 15
_symmetry_cell_setting 'monoclinic'
loop_
_space_group_symop_operation_xyz
x,y,z
-x,y,1/2-z
-x,-y,-z
x,-y,1/2+z
1/2+x,1/2+y,z
1/2-x,1/2+y,1/2-z
1/2-x,1/2-y,-z
1/2+x,1/2-y,1/2+z
loop_
_atom_site_type_symbol
_atom_site_label
_atom_site_fract_x
_atom_site_fract_y
_atom_site_fract_z
Si Si1 0.500000 0.896503 0.250000
Si Si2 0.445127 0.736105 0.969470
Si Si3 0.846059 0.430005 0.883200
Si Si4 0.678052 0.676441 0.886252
Si Si5 0.868641 0.065843 0.301055
O O1 0.381111 0.805591 0.518426
O O2 0.436213 0.975898 0.276414
O O3 0.500000 0.671802 0.750000
O O4 0.563225 0.812330 0.800030
O O5 0.333302 0.818744 0.131815
O O6 0.359551 0.665755 0.225763
O O7 0.709429 0.396019 0.216945
O O8 0.772334 0.491789 0.923004
O O9 0.600104 0.618419 0.139893
O O10 0.000000 0.000000 0.000000
#
# Coordination Sequence:
#
# PCOD9296066 Si02
#       5
#     4   8   8   8   8
#     4  12  22  42  74  94 136 192 216 282 352 388
#     4  10  23  44  66  97 135 175 232 277 331 417
#     4  11  25  46  70 100 138 190 223 283 354 398
#     4  11  24  43  67 103 134 175 240 276 334 427
#     4  12  27  42  70 104 140 181 228 291 342 405
#
# _framework density 26.665019999999998
#
# number of rings (size 3 to 8) (size 9 to 14) (size 15 to 20)
#    0.000    0.889    5.556    2.000    3.111    3.556 
#    0.000    0.000    0.000    0.000    0.000    0.000 
#    0.000    0.000    0.000    0.000    0.000    0.000 
#
# Total GULP energy -100697.311100 kJ/mol
# GULP energy per Si atom -5594.295061 kJ/mol
# Density = 2.660433 g / cm^3
# Si number density = 26.665020 Si / 1000 Ang^3
#
#
#
# Elastic Constant Matrix: (Units=GPa)
#
#
# Indices 1 2 3 4 5 6 
#
# 1 57.5252 15.6962 -3.6539 0.0000 -15.2997 0.0000
# 2 15.6962 63.8117 16.5556 0.0000 -2.1165 0.0000
# 3 -3.6539 16.5556 101.6098 0.0000 -0.4799 0.0000
# 4 0.0000 0.0000 0.0000 48.7985 0.0000 -14.9745
# 5 -15.2997 -2.1165 -0.4799 0.0000 51.8787 0.0000
# 6 0.0000 0.0000 0.0000 -14.9745 0.0000 33.5764
#
#
#
# Elastic Compliance Matrix: (Units=1/GPa)
#
#
# Indices 1 2 3 4 5 6 
#
# 1 0.020476 -0.005264 0.001622 0.000000 0.005839 0.000000
# 2 -0.005264 0.017737 -0.003083 0.000000 -0.000857 0.000000
# 3 0.001622 -0.003083 0.010404 0.000000 0.000449 0.000000
# 4 0.000000 0.000000 0.000000 0.023742 0.000000 0.010588
# 5 0.005839 -0.000857 0.000449 0.000000 0.020967 0.000000
# 6 0.000000 0.000000 0.000000 0.010588 0.000000 0.034505
#
#
# Mechanical properties :
#
#
# Convention : Reuss Voigt Hill
#
# Bulk Modulus (GPa) = 28.43598 31.12692 29.78145
# Shear Modulus (GPa) = 32.67887 39.80732 36.24310
#
# Velocity S-wave (km/s) = 3.50456 3.86795 3.69073
# Velocity P-wave (km/s) = 5.20223 5.62555 5.41802
#
# Compressibility (1/GPa) = 0.03516672
#
# Stress axis : x y z
#
# Youngs Moduli (GPa) = 48.83810 56.37820 96.11342
#
# Poissons Ratio (x) = 0.29675 -0.15585
# Poissons Ratio (y) = 0.25706 0.29635
# Poissons Ratio (z) = -0.07919 0.17383
#
# Static dielectric constant tensor:
#      x y z
#    x 1.852590 0.000000 0.008960 
#    y 0.000000 1.632670 0.000000 
#    z 0.008960 0.000000 2.133610 
# 
# From -- ./inp_files/181681.got.cif
#   From: 2010.05.17/outbox.cif.g08.bks.cpg/sg15_91_cif.got.tgz:181681.got - 2010.06.03 18:47:42.
