data_PCOD9296539
_publ_section_title
;
Structure prediction by ZEFSAII (Michael W. Deem and Ramdas Pophale) SiO2 
 PCOD9296539
Probable space group: C 2/C
;
_chemical_formula_sum "Si O2"
_cell_formula_units_Z 40
_cell_length_a 11.751695
_cell_length_b 17.086716
_cell_length_c 9.037714
_cell_angle_alpha 90.000000
_cell_angle_beta 88.122015
_cell_angle_gamma 90.000000
_cell_volume 1813.779028
_symmetry_space_group_name_H-M "C 2/C"
_symmetry_group_IT_number 15
_symmetry_cell_setting 'monoclinic'
loop_
_space_group_symop_operation_xyz
x,y,z
-x,y,1/2-z
-x,-y,-z
x,-y,1/2+z
1/2+x,1/2+y,z
1/2-x,1/2+y,1/2-z
1/2-x,1/2-y,-z
1/2+x,1/2-y,1/2+z
loop_
_atom_site_type_symbol
_atom_site_label
_atom_site_fract_x
_atom_site_fract_y
_atom_site_fract_z
Si Si1 0.788441 0.413491 0.479388
Si Si2 0.473655 0.583897 0.571798
Si Si3 0.001479 0.351496 0.593571
Si Si4 0.672502 0.072418 0.850325
Si Si5 0.350896 0.299371 0.426973
O O1 0.656499 0.394108 0.457756
O O2 0.790392 0.489820 0.583419
O O3 0.848419 0.436505 0.322187
O O4 0.870625 0.347851 0.546209
O O5 0.500000 0.585390 0.750000
O O6 0.500000 0.500000 0.500000
O O7 0.560016 0.645168 0.492152
O O8 0.074471 0.393547 0.461677
O O9 0.066141 0.270530 0.627003
O O10 0.000000 0.396822 0.750000
O O11 0.775508 0.135546 0.846688
O O12 0.250000 0.250000 0.500000
#
# Coordination Sequence:
#
# PCOD9296539 Si02
#       5
#     8   8   8   8   8
#     4  12  23  42  75 102 134 179 235 277 340 404
#     4  12  23  44  72 101 134 176 228 284 337 402
#     4  11  25  43  69 101 141 181 224 279 341 405
#     4  11  23  44  71 102 141 178 223 286 340 403
#     4  10  23  45  67  95 145 179 216 279 349 395
#
# _framework density 22.053404
#
# number of rings (size 3 to 8) (size 9 to 14) (size 15 to 20)
#    0.000    0.800    4.000    3.000    0.000    0.800 
#    0.000    2.000    0.000    0.000    0.000    0.000 
#    0.000    0.000    0.000    0.000    0.000    0.000 
#
# Total GULP energy -111366.627424 kJ/mol
# GULP energy per Si atom -5568.331371 kJ/mol
# Density = 2.200321 g / cm^3
# Si number density = 22.053404 Si / 1000 Ang^3
#
#
#
# Elastic Constant Matrix: (Units=GPa)
#
#
# Indices 1 2 3 4 5 6 
#
# 1 207.2831 56.9027 51.1131 0.0000 5.7037 0.0000
# 2 56.9027 80.0091 17.9224 0.0000 -10.5478 0.0000
# 3 51.1131 17.9224 93.8508 0.0000 5.4083 0.0000
# 4 0.0000 0.0000 0.0000 1.2359 0.0000 7.3861
# 5 5.7037 -10.5478 5.4083 0.0000 27.9751 0.0000
# 6 0.0000 0.0000 0.0000 7.3861 0.0000 48.2693
#
#
#
# Elastic Compliance Matrix: (Units=1/GPa)
#
#
# Indices 1 2 3 4 5 6 
#
# 1 0.006819 -0.004591 -0.002687 0.000000 -0.002602 0.000000
# 2 -0.004591 0.017030 -0.001189 0.000000 0.007587 0.000000
# 3 -0.002687 -0.001189 0.012479 0.000000 -0.002313 0.000000
# 4 0.000000 0.000000 0.000000 9.463256 0.000000 -1.448056
# 5 -0.002602 0.007587 -0.002313 0.000000 0.039584 0.000000
# 6 0.000000 0.000000 0.000000 -1.448056 0.000000 0.242297
#
#
# Mechanical properties :
#
#
# Convention : Reuss Voigt Hill
#
# Bulk Modulus (GPa) = 51.56232 70.33550 60.94891
# Shear Modulus (GPa) = 0.50995 32.50972 16.50984
#
# Velocity S-wave (km/s) = 0.48139 3.84361 2.73908
# Velocity P-wave (km/s) = 4.87241 7.18751 6.14006
#
# Compressibility (1/GPa) = 0.01939401
#
# Stress axis : x y z
#
# Youngs Moduli (GPa) = 146.65634 58.72008 80.13443
#
# Poissons Ratio (x) = 0.26955 0.21532
# Poissons Ratio (y) = 0.67323 0.09530
# Poissons Ratio (z) = 0.39407 0.06983
#
# Static dielectric constant tensor:
#      x y z
#    x 1.822220 0.000000 -0.004380 
#    y 0.000000 1.858170 0.000000 
#    z -0.004380 0.000000 1.881130 
# 
# From -- ./inp_files/29098.got.cif
#   From: 2010.05.17/outbox.cif.g08.bks.cpg/sg15_15_cif.got.tgz:29098.got - 2010.06.03 18:47:42.
