data_PCOD9296476
_publ_section_title
;
Structure prediction by ZEFSAII (Michael W. Deem and Ramdas Pophale) SiO2 
 PCOD9296476
Probable space group: C 2/C
;
_chemical_formula_sum "Si O2"
_cell_formula_units_Z 36
_cell_length_a 9.000704
_cell_length_b 20.684764
_cell_length_c 9.175784
_cell_angle_alpha 90.000000
_cell_angle_beta 82.575291
_cell_angle_gamma 90.000000
_cell_volume 1694.000561
_symmetry_space_group_name_H-M "C 2/C"
_symmetry_group_IT_number 15
_symmetry_cell_setting 'monoclinic'
loop_
_space_group_symop_operation_xyz
x,y,z
-x,y,1/2-z
-x,-y,-z
x,-y,1/2+z
1/2+x,1/2+y,z
1/2-x,1/2+y,1/2-z
1/2-x,1/2-y,-z
1/2+x,1/2-y,1/2+z
loop_
_atom_site_type_symbol
_atom_site_label
_atom_site_fract_x
_atom_site_fract_y
_atom_site_fract_z
Si Si1 0.632031 0.033950 0.822763
Si Si2 0.989608 0.655269 0.003040
Si Si3 0.171517 0.994049 0.930888
Si Si4 0.000000 0.243157 0.250000
Si Si5 0.738032 0.854948 0.709848
O O1 0.500000 0.996712 0.750000
O O2 0.766685 0.046175 0.692284
O O3 0.547479 0.095139 0.899852
O O4 0.716215 0.002103 0.947175
O O5 0.852590 0.639347 0.127395
O O6 0.125596 0.669162 0.097711
O O7 0.957009 0.711955 0.892973
O O8 0.197581 0.924276 0.850642
O O9 0.000000 0.000000 0.000000
O O10 0.133672 0.196981 0.282462
#
# Coordination Sequence:
#
# PCOD9296476 Si02
#       5
#     8   8   8   4   8
#     4  11  24  41  69  94 131 174 229 272 325 405
#     4  10  23  45  65 100 129 175 226 268 327 397
#     4  11  26  43  65 100 138 174 219 282 345 393
#     4  12  22  42  72  96 134 174 222 272 332 392
#     4  10  25  42  67  97 136 171 217 279 332 388
#
# _framework density 21.251470000000001
#
# number of rings (size 3 to 8) (size 9 to 14) (size 15 to 20)
#    0.000    1.333    1.111    2.667   12.444    0.000 
#    4.000    0.000    0.000    0.000    0.000    0.000 
#    0.000    0.000    0.000    0.000    0.000    0.000 
#
# Total GULP energy -100646.489200 kJ/mol
# GULP energy per Si atom -5591.471622 kJ/mol
# Density = 2.120310 g / cm^3
# Si number density = 21.251470 Si / 1000 Ang^3
#
#
#
# Elastic Constant Matrix: (Units=GPa)
#
#
# Indices 1 2 3 4 5 6 
#
# 1 104.4166 57.1195 71.0360 0.0000 -11.9619 0.0000
# 2 57.1195 82.7496 54.4788 0.0000 6.4911 0.0000
# 3 71.0360 54.4788 179.1960 0.0000 -5.5015 0.0000
# 4 0.0000 0.0000 0.0000 40.3271 0.0000 4.3687
# 5 -11.9619 6.4911 -5.5015 0.0000 39.7606 0.0000
# 6 0.0000 0.0000 0.0000 4.3687 0.0000 34.0581
#
#
#
# Elastic Compliance Matrix: (Units=1/GPa)
#
#
# Indices 1 2 3 4 5 6 
#
# 1 0.019233 -0.011194 -0.004005 0.000000 0.007060 0.000000
# 2 -0.011194 0.022017 -0.002481 0.000000 -0.007305 0.000000
# 3 -0.004005 -0.002481 0.007931 0.000000 0.000298 0.000000
# 4 0.000000 0.000000 0.000000 0.025147 0.000000 -0.003226
# 5 0.007060 -0.007305 0.000298 0.000000 0.028508 0.000000
# 6 0.000000 0.000000 0.000000 -0.003226 0.000000 0.029775
#
#
# Mechanical properties :
#
#
# Convention : Reuss Voigt Hill
#
# Bulk Modulus (GPa) = 72.33580 81.29234 76.81407
# Shear Modulus (GPa) = 28.97234 35.07768 32.02501
#
# Velocity S-wave (km/s) = 3.69631 4.06717 3.88616
# Velocity P-wave (km/s) = 7.23387 7.77119 7.50734
#
# Compressibility (1/GPa) = 0.01382441
#
# Stress axis : x y z
#
# Youngs Moduli (GPa) = 51.99271 45.41849 126.08277
#
# Poissons Ratio (x) = 0.50839 0.50492
# Poissons Ratio (y) = 0.58198 0.31277
# Poissons Ratio (z) = 0.20821 0.11267
#
# Static dielectric constant tensor:
#      x y z
#    x 1.761840 0.000000 0.015220 
#    y 0.000000 1.779060 0.000000 
#    z 0.015220 0.000000 1.802640 
# 
# From -- ./inp_files/23162.got.cif
#   From: 2010.05.17/outbox.cif.g08.bks.cpg/sg15_12_cif.got.tgz:23162.got - 2010.06.03 18:47:42.
