data_PCOD9296907
_publ_section_title
;
Structure prediction by ZEFSAII (Michael W. Deem and Ramdas Pophale) SiO2 
 PCOD9296907
Probable space group: C 2/C
;
_chemical_formula_sum "Si O2"
_cell_formula_units_Z 48
_cell_length_a 5.198175
_cell_length_b 22.170574
_cell_length_c 18.929087
_cell_angle_alpha 90.000000
_cell_angle_beta 61.786717
_cell_angle_gamma 90.000000
_cell_volume 1922.334548
_symmetry_space_group_name_H-M "C 2/C"
_symmetry_group_IT_number 15
_symmetry_cell_setting 'monoclinic'
loop_
_space_group_symop_operation_xyz
x,y,z
-x,y,1/2-z
-x,-y,-z
x,-y,1/2+z
1/2+x,1/2+y,z
1/2-x,1/2+y,1/2-z
1/2-x,1/2-y,-z
1/2+x,1/2-y,1/2+z
loop_
_atom_site_type_symbol
_atom_site_label
_atom_site_fract_x
_atom_site_fract_y
_atom_site_fract_z
Si Si1 0.216220 0.818409 0.982418
Si Si2 0.798497 0.914675 0.067916
Si Si3 0.830622 0.208412 0.177698
Si Si4 0.143479 0.957470 0.882200
Si Si5 0.802368 0.386714 0.640091
Si Si6 0.662999 0.148634 0.802818
O O1 0.161031 0.812956 0.905124
O O2 0.496276 0.861981 0.950349
O O3 0.250000 0.750000 0.000000
O O4 0.969141 0.852103 0.058503
O O5 0.468518 0.892977 0.118538
O O6 0.829329 0.971172 0.115884
O O7 0.945729 0.937482 0.976032
O O8 0.500000 0.194927 0.250000
O O9 0.871312 0.280012 0.176607
O O10 0.109401 0.174087 0.175297
O O11 0.455535 0.923303 0.845952
O O12 0.951103 0.934068 0.843221
O O13 0.500000 0.136507 0.750000
O O14 0.000000 0.136351 0.750000
#
# Coordination Sequence:
#
# PCOD9296907 Si02
#       6
#     8   8   8   8   8   8
#     4  11  25  42  74 109 136 182 237 292 350 410
#     4  10  23  46  72 100 142 175 242 290 342 418
#     4  11  26  45  68 103 147 187 227 291 357 422
#     4  10  24  42  74 103 130 186 226 297 345 400
#     4  11  22  45  65 103 134 175 233 273 352 407
#     4  11  28  45  70 101 142 190 229 285 360 416
#
# _framework density 24.969642
#
# number of rings (size 3 to 8) (size 9 to 14) (size 15 to 20)
#    0.000    1.333    3.333    1.000   11.667   10.000 
#    0.000    2.500    0.000    0.000    0.000    0.000 
#    0.000    0.000    0.000    0.000    0.000    0.000 
#
# Total GULP energy -134042.045796 kJ/mol
# GULP energy per Si atom -5585.085242 kJ/mol
# Density = 2.491281 g / cm^3
# Si number density = 24.969642 Si / 1000 Ang^3
#
#
#
# Elastic Constant Matrix: (Units=GPa)
#
#
# Indices 1 2 3 4 5 6 
#
# 1 156.9388 39.3816 54.5637 0.0000 -31.7187 0.0000
# 2 39.3816 157.5130 49.1505 0.0000 -26.4230 0.0000
# 3 54.5637 49.1505 92.1729 0.0000 -31.9345 0.0000
# 4 0.0000 0.0000 0.0000 37.5261 0.0000 -6.8843
# 5 -31.7187 -26.4230 -31.9345 0.0000 41.0765 0.0000
# 6 0.0000 0.0000 0.0000 -6.8843 0.0000 26.9039
#
#
#
# Elastic Compliance Matrix: (Units=1/GPa)
#
#
# Indices 1 2 3 4 5 6 
#
# 1 0.008413 -0.000411 -0.003561 0.000000 0.003463 0.000000
# 2 -0.000411 0.007810 -0.003135 0.000000 0.002269 0.000000
# 3 -0.003561 -0.003135 0.017762 0.000000 0.009042 0.000000
# 4 0.000000 0.000000 0.000000 0.027961 0.000000 0.007155
# 5 0.003463 0.002269 0.009042 0.000000 0.035509 0.000000
# 6 0.000000 0.000000 0.000000 0.007155 0.000000 0.039000
#
#
# Mechanical properties :
#
#
# Convention : Reuss Voigt Hill
#
# Bulk Modulus (GPa) = 50.58088 76.97957 63.78023
# Shear Modulus (GPa) = 31.79441 38.66991 35.23216
#
# Velocity S-wave (km/s) = 3.57224 3.93959 3.76040
# Velocity P-wave (km/s) = 6.10864 7.18262 6.66729
#
# Compressibility (1/GPa) = 0.01977032
#
# Stress axis : x y z
#
# Youngs Moduli (GPa) = 118.86059 128.03298 56.30043
#
# Poissons Ratio (x) = 0.05266 0.20049
# Poissons Ratio (y) = 0.04888 0.17652
# Poissons Ratio (z) = 0.42328 0.40142
#
# Static dielectric constant tensor:
#      x y z
#    x 2.065270 0.000000 0.105770 
#    y 0.000000 1.954840 0.000000 
#    z 0.105770 0.000000 2.067250 
# 
# From -- ./inp_files/261631.got.cif
#   From: 2010.05.17/outbox.cif.g08.bks.cpg/sg15_131_cif.got.tgz:261631.got - 2010.06.03 18:47:42.
