data_PCOD9296837
_publ_section_title
;
Structure prediction by ZEFSAII (Michael W. Deem and Ramdas Pophale) SiO2 
 PCOD9296837
Probable space group: C 2/C
;
_chemical_formula_sum "Si O2"
_cell_formula_units_Z 44
_cell_length_a 21.830302
_cell_length_b 5.051227
_cell_length_c 17.983705
_cell_angle_alpha 90.000000
_cell_angle_beta 98.429015
_cell_angle_gamma 90.000000
_cell_volume 1961.639191
_symmetry_space_group_name_H-M "C 2/C"
_symmetry_group_IT_number 15
_symmetry_cell_setting 'monoclinic'
loop_
_space_group_symop_operation_xyz
x,y,z
-x,y,1/2-z
-x,-y,-z
x,-y,1/2+z
1/2+x,1/2+y,z
1/2-x,1/2+y,1/2-z
1/2-x,1/2-y,-z
1/2+x,1/2-y,1/2+z
loop_
_atom_site_type_symbol
_atom_site_label
_atom_site_fract_x
_atom_site_fract_y
_atom_site_fract_z
Si Si1 0.205172 0.539673 0.825727
Si Si2 0.578992 0.894865 0.881255
Si Si3 0.476791 0.509359 0.880972
Si Si4 0.500000 0.768748 0.250000
Si Si5 0.083481 0.489379 0.052347
Si Si6 0.212249 0.545347 0.653473
O O1 0.147588 0.435399 0.862611
O O2 0.189732 0.518396 0.735081
O O3 0.232796 0.830458 0.847193
O O4 0.260869 0.337439 0.849487
O O5 0.577001 0.016107 0.963256
O O6 0.536448 0.049173 0.814320
O O7 0.548766 0.601293 0.884832
O O8 0.457816 0.416523 0.794795
O O9 0.453352 0.275121 0.929754
O O10 0.555012 0.229701 0.093526
O O11 0.155007 0.481671 0.088263
#
# Coordination Sequence:
#
# PCOD9296837 Si02
#       6
#     8   8   8   4   8   8
#     4  10  24  43  72 100 144 180 251 283 362 423
#     4  12  28  47  73 110 143 196 238 303 356 444
#     4  12  27  47  69 109 146 190 234 299 360 432
#     4  12  28  46  72 106 142 190 240 290 358 420
#     4  12  27  46  76 102 155 185 242 293 371 427
#     4  10  23  46  69 104 136 195 229 307 350 423
#
# _framework density 22.430221
#
# number of rings (size 3 to 8) (size 9 to 14) (size 15 to 20)
#    0.000    0.727    1.818    3.818    7.636    2.909 
#    0.000    0.000    0.000    0.000    0.000    0.000 
#    0.000    0.000    0.000    0.000    0.000    0.000 
#
# Total GULP energy -123080.133176 kJ/mol
# GULP energy per Si atom -5594.551508 kJ/mol
# Density = 2.237917 g / cm^3
# Si number density = 22.430221 Si / 1000 Ang^3
#
#
#
# Elastic Constant Matrix: (Units=GPa)
#
#
# Indices 1 2 3 4 5 6 
#
# 1 74.6304 8.3768 47.2640 0.0000 -7.6602 0.0000
# 2 8.3768 103.7477 24.6714 0.0000 -6.3473 0.0000
# 3 47.2640 24.6714 151.7944 0.0000 5.9993 0.0000
# 4 0.0000 0.0000 0.0000 28.6747 0.0000 -18.2642
# 5 -7.6602 -6.3473 5.9993 0.0000 45.1245 0.0000
# 6 0.0000 0.0000 0.0000 -18.2642 0.0000 50.0502
#
#
#
# Elastic Compliance Matrix: (Units=1/GPa)
#
#
# Indices 1 2 3 4 5 6 
#
# 1 0.017276 0.000151 -0.005550 0.000000 0.003692 0.000000
# 2 0.000151 0.010149 -0.001763 0.000000 0.001688 0.000000
# 3 -0.005550 -0.001763 0.008695 0.000000 -0.002346 0.000000
# 4 0.000000 0.000000 0.000000 0.045434 0.000000 0.016580
# 5 0.003692 0.001688 -0.002346 0.000000 0.023337 0.000000
# 6 0.000000 0.000000 0.000000 0.016580 0.000000 0.026030
#
#
# Mechanical properties :
#
#
# Convention : Reuss Voigt Hill
#
# Bulk Modulus (GPa) = 45.87991 54.53301 50.20646
# Shear Modulus (GPa) = 32.78449 41.42724 37.10586
#
# Velocity S-wave (km/s) = 3.82726 4.30226 4.07170
# Velocity P-wave (km/s) = 6.32689 7.00317 6.67360
#
# Compressibility (1/GPa) = 0.02179603
#
# Stress axis : x y z
#
# Youngs Moduli (GPa) = 57.88385 98.53061 115.00697
#
# Poissons Ratio (x) = -0.01484 0.63824
# Poissons Ratio (y) = -0.00872 0.20278
# Poissons Ratio (z) = 0.32123 0.17373
#
# Static dielectric constant tensor:
#      x y z
#    x 1.841710 0.000000 -0.002480 
#    y 0.000000 1.843290 0.000000 
#    z -0.002480 0.000000 1.813210 
# 
# From -- ./inp_files/217613.got.cif
#   From: 2010.05.17/outbox.cif.g08.bks.cpg/sg15_109_cif.got.tgz:217613.got - 2010.06.03 18:47:42.
