data_PCOD9296329
_publ_section_title
;
Structure prediction by ZEFSAII (Michael W. Deem and Ramdas Pophale) SiO2 
 PCOD9296329
Probable space group: C 2/C
;
_chemical_formula_sum "Si O2"
_cell_formula_units_Z 36
_cell_length_a 9.837751
_cell_length_b 27.816921
_cell_length_c 8.929121
_cell_angle_alpha 90.000000
_cell_angle_beta 132.229179
_cell_angle_gamma 90.000000
_cell_volume 1809.325106
_symmetry_space_group_name_H-M "C 2/C"
_symmetry_group_IT_number 15
_symmetry_cell_setting 'monoclinic'
loop_
_space_group_symop_operation_xyz
x,y,z
-x,y,1/2-z
-x,-y,-z
x,-y,1/2+z
1/2+x,1/2+y,z
1/2-x,1/2+y,1/2-z
1/2-x,1/2-y,-z
1/2+x,1/2-y,1/2+z
loop_
_atom_site_type_symbol
_atom_site_label
_atom_site_fract_x
_atom_site_fract_y
_atom_site_fract_z
Si Si1 0.214356 0.802641 0.399453
Si Si2 0.209326 0.300421 0.392926
Si Si3 0.000000 0.131175 0.250000
Si Si4 0.189797 0.938885 0.672130
Si Si5 0.500000 0.487759 0.250000
Si Si6 0.500000 0.119819 0.250000
O O1 0.250000 0.750000 0.500000
O O2 0.249132 0.796919 0.250156
O O3 0.348101 0.843923 0.565338
O O4 0.000000 0.815895 0.250000
O O5 0.250000 0.250000 0.500000
O O6 0.331952 0.337614 0.571570
O O7 0.000000 0.314340 0.250000
O O8 0.936724 0.101551 0.347174
O O9 0.387724 0.914905 0.782327
O O10 0.107334 0.957559 0.454618
O O11 0.152004 0.980907 0.768631
#
# Coordination Sequence:
#
# PCOD9296329 Si02
#       6
#     8   8   4   8   4   4
#     4  12  26  43  66  97 142 188 227 273 325 380
#     4  12  25  40  62  91 133 184 223 268 322 378
#     4  11  24  42  64  98 132 174 228 264 322 403
#     4  10  23  44  71  99 130 168 223 280 341 417
#     4   9  22  48  73  94 132 174 207 292 370 389
#     4  12  26  40  71 108 130 176 237 268 324 408
#
# _framework density 19.896920999999999
#
# number of rings (size 3 to 8) (size 9 to 14) (size 15 to 20)
#    0.000    0.889    2.222    4.000    7.778    0.889 
#    0.000    0.000    4.889    0.000    0.000    0.000 
#    0.000    0.000    0.000    0.000    0.000    0.000 
#
# Total GULP energy -100502.606822 kJ/mol
# GULP energy per Si atom -5583.478157 kJ/mol
# Density = 1.985164 g / cm^3
# Si number density = 19.896921 Si / 1000 Ang^3
#
#
#
# Elastic Constant Matrix: (Units=GPa)
#
#
# Indices 1 2 3 4 5 6 
#
# 1 171.6684 69.5547 83.3415 0.0000 3.6149 0.0000
# 2 69.5547 120.0970 77.1269 0.0000 1.5828 0.0000
# 3 83.3415 77.1269 153.2683 0.0000 3.1181 0.0000
# 4 0.0000 0.0000 0.0000 17.6690 0.0000 6.4011
# 5 3.6149 1.5828 3.1181 0.0000 50.1141 0.0000
# 6 0.0000 0.0000 0.0000 6.4011 0.0000 30.2862
#
#
#
# Elastic Compliance Matrix: (Units=1/GPa)
#
#
# Indices 1 2 3 4 5 6 
#
# 1 0.008555 -0.002906 -0.003183 0.000000 -0.000327 0.000000
# 2 -0.002906 0.013290 -0.005109 0.000000 0.000108 0.000000
# 3 -0.003183 -0.005109 0.010832 0.000000 -0.000283 0.000000
# 4 0.000000 0.000000 0.000000 0.061289 0.000000 -0.012954
# 5 -0.000327 0.000108 -0.000283 0.000000 0.019992 0.000000
# 6 0.000000 0.000000 0.000000 -0.012954 0.000000 0.035756
#
#
# Mechanical properties :
#
#
# Convention : Reuss Voigt Hill
#
# Bulk Modulus (GPa) = 97.27867 100.56443 98.92155
# Shear Modulus (GPa) = 28.48400 33.94789 31.21594
#
# Velocity S-wave (km/s) = 3.78773 4.13508 3.96521
# Velocity P-wave (km/s) = 8.25388 8.57036 8.41361
#
# Compressibility (1/GPa) = 0.01027975
#
# Stress axis : x y z
#
# Youngs Moduli (GPa) = 116.89489 75.24635 92.31943
#
# Poissons Ratio (x) = 0.21869 0.29381
# Poissons Ratio (y) = 0.33973 0.47170
# Poissons Ratio (z) = 0.37203 0.38446
#
# Static dielectric constant tensor:
#      x y z
#    x 1.694000 0.000000 0.017750 
#    y 0.000000 1.733300 0.000000 
#    z 0.017750 0.000000 1.650090 
# 
# From -- ./inp_files/25316.got.cif
#   From: 2010.05.17/outbox.cif.g08.bks.cpg/sg15_13_cif.got.tgz:25316.got - 2010.06.03 18:47:42.
