data_PCOD9296392
_publ_section_title
;
Structure prediction by ZEFSAII (Michael W. Deem and Ramdas Pophale) SiO2 
 PCOD9296392
Probable space group: C 2/C
;
_chemical_formula_sum "Si O2"
_cell_formula_units_Z 48
_cell_length_a 24.922912
_cell_length_b 7.067041
_cell_length_c 12.368163
_cell_angle_alpha 90.000000
_cell_angle_beta 125.702756
_cell_angle_gamma 90.000000
_cell_volume 1768.997765
_symmetry_space_group_name_H-M "C 2/C"
_symmetry_group_IT_number 15
_symmetry_cell_setting 'monoclinic'
loop_
_space_group_symop_operation_xyz
x,y,z
-x,y,1/2-z
-x,-y,-z
x,-y,1/2+z
1/2+x,1/2+y,z
1/2-x,1/2+y,1/2-z
1/2-x,1/2-y,-z
1/2+x,1/2-y,1/2+z
loop_
_atom_site_type_symbol
_atom_site_label
_atom_site_fract_x
_atom_site_fract_y
_atom_site_fract_z
Si Si1 0.569370 0.674973 0.282827
Si Si2 0.659523 0.698625 0.959924
Si Si3 0.545804 0.228919 0.207277
Si Si4 0.579305 0.164155 0.560381
Si Si5 0.721904 0.540753 0.838165
Si Si6 0.339639 0.789105 0.910974
O O1 0.500000 0.745040 0.250000
O O2 0.554259 0.455357 0.232449
O O3 0.590335 0.771083 0.195473
O O4 0.618549 0.717292 0.438923
O O5 0.619670 0.833121 0.827210
O O6 0.686833 0.534199 0.913285
O O7 0.609761 0.695260 0.003628
O O8 0.723988 0.795000 0.082461
O O9 0.500000 0.156778 0.250000
O O10 0.500237 0.178438 0.052808
O O11 0.618691 0.968711 0.585397
O O12 0.672443 0.622634 0.689975
O O13 0.766386 0.362530 0.858402
#
# Coordination Sequence:
#
# PCOD9296392 Si02
#       6
#     8   8   8   8   8   8
#     4  11  26  44  71 111 149 182 251 304 370 438
#     4   9  21  41  71  98 138 196 243 291 364 428
#     4   9  20  43  74 104 137 185 237 303 373 435
#     4  10  23  44  73 104 145 193 240 306 378 427
#     4  10  24  45  69 101 149 193 250 292 363 426
#     4  11  27  45  73 108 146 198 244 305 356 443
#
# _framework density 27.134007
#
# number of rings (size 3 to 8) (size 9 to 14) (size 15 to 20)
#    0.000    2.000    0.000    0.500   11.667    6.667 
#    0.000    4.167    0.000    0.000    0.000    0.000 
#    0.000    0.000    0.000    0.000    0.000    0.000 
#
# Total GULP energy -134197.146559 kJ/mol
# GULP energy per Si atom -5591.547773 kJ/mol
# Density = 2.707225 g / cm^3
# Si number density = 27.134007 Si / 1000 Ang^3
#
#
#
# Elastic Constant Matrix: (Units=GPa)
#
#
# Indices 1 2 3 4 5 6 
#
# 1 162.7045 46.7390 72.3839 0.0000 -17.3822 0.0000
# 2 46.7390 140.2691 83.4146 0.0000 -5.4145 0.0000
# 3 72.3839 83.4146 242.5976 0.0000 4.3888 0.0000
# 4 0.0000 0.0000 0.0000 38.8328 0.0000 -2.1278
# 5 -17.3822 -5.4145 4.3888 0.0000 59.5424 0.0000
# 6 0.0000 0.0000 0.0000 -2.1278 0.0000 35.0597
#
#
#
# Elastic Compliance Matrix: (Units=1/GPa)
#
#
# Indices 1 2 3 4 5 6 
#
# 1 0.007591 -0.001348 -0.001842 0.000000 0.002229 0.000000
# 2 -0.001348 0.009266 -0.002796 0.000000 0.000655 0.000000
# 3 -0.001842 -0.002796 0.005655 0.000000 -0.001209 0.000000
# 4 0.000000 0.000000 0.000000 0.025837 0.000000 0.001568
# 5 0.002229 0.000655 -0.001209 0.000000 0.017594 0.000000
# 6 0.000000 0.000000 0.000000 0.001568 0.000000 0.028618
#
#
# Mechanical properties :
#
#
# Convention : Reuss Voigt Hill
#
# Bulk Modulus (GPa) = 94.86975 105.62735 100.24855
# Shear Modulus (GPa) = 45.43566 49.55589 47.49577
#
# Velocity S-wave (km/s) = 4.09649 4.27820 4.18833
# Velocity P-wave (km/s) = 7.57722 7.96345 7.77274
#
# Compressibility (1/GPa) = 0.01054077
#
# Stress axis : x y z
#
# Youngs Moduli (GPa) = 131.73777 107.91940 176.84427
#
# Poissons Ratio (x) = 0.14548 0.32569
# Poissons Ratio (y) = 0.17759 0.49440
# Poissons Ratio (z) = 0.24262 0.30171
#
# Static dielectric constant tensor:
#      x y z
#    x 2.179240 0.000000 0.050000 
#    y 0.000000 2.223230 0.000000 
#    z 0.050000 0.000000 2.151100 
# 
# From -- ./inp_files/116786.got.cif
#   From: 2010.05.17/outbox.cif.g08.bks.cpg/sg15_59_cif.got.tgz:116786.got - 2010.06.03 18:47:42.
