data_PCOD9296713
_publ_section_title
;
Structure prediction by ZEFSAII (Michael W. Deem and Ramdas Pophale) SiO2 
 PCOD9296713
Probable space group: C 2/C
;
_chemical_formula_sum "Si O2"
_cell_formula_units_Z 32
_cell_length_a 7.948305
_cell_length_b 15.364910
_cell_length_c 11.504433
_cell_angle_alpha 90.000000
_cell_angle_beta 98.850906
_cell_angle_gamma 90.000000
_cell_volume 1388.248383
_symmetry_space_group_name_H-M "C 2/C"
_symmetry_group_IT_number 15
_symmetry_cell_setting 'monoclinic'
loop_
_space_group_symop_operation_xyz
x,y,z
-x,y,1/2-z
-x,-y,-z
x,-y,1/2+z
1/2+x,1/2+y,z
1/2-x,1/2+y,1/2-z
1/2-x,1/2-y,-z
1/2+x,1/2-y,1/2+z
loop_
_atom_site_type_symbol
_atom_site_label
_atom_site_fract_x
_atom_site_fract_y
_atom_site_fract_z
Si Si1 0.753709 0.850822 0.214385
Si Si2 0.178563 0.034153 0.972799
Si Si3 0.886875 0.632150 0.558045
Si Si4 0.092339 0.327272 0.870352
O O1 0.744359 0.845440 0.352352
O O2 0.564383 0.870001 0.146065
O O3 0.825141 0.761409 0.168374
O O4 0.848351 0.929076 0.159395
O O5 0.261502 0.111498 0.059567
O O6 0.314868 0.956367 0.995802
O O7 0.000000 0.000000 0.000000
O O8 0.948030 0.688227 0.453607
O O9 0.000000 0.370775 0.750000
#
# Coordination Sequence:
#
# PCOD9296713 Si02
#       4
#     8   8   8   8
#     4  10  23  47  69 100 138 183 231 281 347 419
#     4  11  25  44  72 100 138 181 236 284 343 408
#     4  10  23  45  73  95 139 180 229 284 343 410
#     4  11  25  46  71 100 142 183 230 284 353 412
#
# _framework density 23.050630999999999
#
# number of rings (size 3 to 8) (size 9 to 14) (size 15 to 20)
#    0.000    1.500    0.000    6.000   10.500    1.000 
#    9.000    0.000    0.000    0.000    0.000    0.000 
#    0.000    0.000    0.000    0.000    0.000    0.000 
#
# Total GULP energy -89271.931129 kJ/mol
# GULP energy per Si atom -5579.495696 kJ/mol
# Density = 2.299817 g / cm^3
# Si number density = 23.050631 Si / 1000 Ang^3
#
#
#
# Elastic Constant Matrix: (Units=GPa)
#
#
# Indices 1 2 3 4 5 6 
#
# 1 124.7795 70.5946 78.6021 0.0000 -18.1160 0.0000
# 2 70.5946 123.0630 58.6203 0.0000 -19.5472 0.0000
# 3 78.6021 58.6203 191.6990 0.0000 -36.4391 0.0000
# 4 0.0000 0.0000 0.0000 18.5341 0.0000 1.1397
# 5 -18.1160 -19.5472 -36.4391 0.0000 62.7008 0.0000
# 6 0.0000 0.0000 0.0000 1.1397 0.0000 -52.4394
#
#
#
# Elastic Compliance Matrix: (Units=1/GPa)
#
#
# Indices 1 2 3 4 5 6 
#
# 1 0.013903 -0.006168 -0.003841 0.000000 -0.000138 0.000000
# 2 -0.006168 0.012364 -0.000964 0.000000 0.001512 0.000000
# 3 -0.003841 -0.000964 0.007665 0.000000 0.003044 0.000000
# 4 0.000000 0.000000 0.000000 0.053883 0.000000 0.001171
# 5 -0.000138 0.001512 0.003044 0.000000 0.018149 0.000000
# 6 0.000000 0.000000 0.000000 0.001171 0.000000 -0.019044
#
#
# Mechanical properties :
#
#
# Convention : Reuss Voigt Hill
#
# Bulk Modulus (GPa) = 83.43332 95.01951 89.22642
# Shear Modulus (GPa) = 44.30265 21.20740 32.75503
#
# Velocity S-wave (km/s) = 4.38879 3.03650 3.77371
# Velocity P-wave (km/s) = 7.87122 7.32157 7.60137
#
# Compressibility (1/GPa) = 0.01198562
#
# Stress axis : x y z
#
# Youngs Moduli (GPa) = 71.92717 80.88307 130.46519
#
# Poissons Ratio (x) = 0.49887 0.50109
# Poissons Ratio (y) = 0.44363 0.12581
# Poissons Ratio (z) = 0.27626 0.07800
#
# Static dielectric constant tensor:
#      x y z
#    x 1.920200 0.000000 -0.034370 
#    y 0.000000 1.850070 0.000000 
#    z -0.034370 0.000000 1.949490 
# 
# From -- ./inp_files/75343.got.cif
#   From: 2010.05.17/outbox.cif.g08.bks.cpg/sg15_38_cif.got.tgz:75343.got - 2010.06.03 18:47:42.
