data_PCOD9296872
_publ_section_title
;
Structure prediction by ZEFSAII (Michael W. Deem and Ramdas Pophale) SiO2 
 PCOD9296872
Probable space group: C 2/C
;
_chemical_formula_sum "Si O2"
_cell_formula_units_Z 44
_cell_length_a 16.406009
_cell_length_b 10.975330
_cell_length_c 13.722769
_cell_angle_alpha 90.000000
_cell_angle_beta 128.231249
_cell_angle_gamma 90.000000
_cell_volume 1940.971930
_symmetry_space_group_name_H-M "C 2/C"
_symmetry_group_IT_number 15
_symmetry_cell_setting 'monoclinic'
loop_
_space_group_symop_operation_xyz
x,y,z
-x,y,1/2-z
-x,-y,-z
x,-y,1/2+z
1/2+x,1/2+y,z
1/2-x,1/2+y,1/2-z
1/2-x,1/2-y,-z
1/2+x,1/2-y,1/2+z
loop_
_atom_site_type_symbol
_atom_site_label
_atom_site_fract_x
_atom_site_fract_y
_atom_site_fract_z
Si Si1 0.844531 0.197060 0.290566
Si Si2 0.500000 0.138099 0.250000
Si Si3 0.167345 0.710516 0.019068
Si Si4 0.030196 0.555750 0.627816
Si Si5 0.037489 0.051099 0.424065
Si Si6 0.351020 0.312992 0.027204
O O1 0.735125 0.169100 0.160647
O O2 0.837381 0.182325 0.401129
O O3 0.886477 0.335513 0.310336
O O4 0.931104 0.109918 0.304222
O O5 0.439709 0.222298 0.129932
O O6 0.435347 0.048819 0.272400
O O7 0.250000 0.750000 0.000000
O O8 0.080153 0.615358 0.921020
O O9 0.107125 0.833098 0.000087
O O10 0.000000 0.500000 0.500000
O O11 0.104091 0.948755 0.417011
O O12 0.000000 0.000000 0.500000
O O13 0.250000 0.250000 0.000000
#
# Coordination Sequence:
#
# PCOD9296872 Si02
#       6
#     8   4   8   8   8   8
#     4  10  23  46  70  99 138 187 229 287 361 419
#     4  12  26  46  68 102 146 172 238 292 356 420
#     4  11  25  42  72 100 135 184 242 284 345 430
#     4  11  24  43  69 101 140 183 227 295 356 414
#     4   9  23  46  67 101 140 182 228 289 359 418
#     4  11  26  42  71 105 137 185 233 291 356 419
#
# _framework density 22.669056000000001
#
# number of rings (size 3 to 8) (size 9 to 14) (size 15 to 20)
#    0.000    1.455    1.818    1.091    7.636    5.091 
#    0.000    0.000    0.000    0.000    0.000    0.000 
#    0.000    0.000    0.000    0.000    0.000    0.000 
#
# Total GULP energy -122859.912656 kJ/mol
# GULP energy per Si atom -5584.541484 kJ/mol
# Density = 2.261746 g / cm^3
# Si number density = 22.669056 Si / 1000 Ang^3
#
#
#
# Elastic Constant Matrix: (Units=GPa)
#
#
# Indices 1 2 3 4 5 6 
#
# 1 79.2735 11.0987 15.8327 0.0000 8.3414 0.0000
# 2 11.0987 90.2551 25.7898 0.0000 10.5084 0.0000
# 3 15.8327 25.7898 83.2889 0.0000 -0.1784 0.0000
# 4 0.0000 0.0000 0.0000 22.4462 0.0000 -11.5748
# 5 8.3414 10.5084 -0.1784 0.0000 40.8331 0.0000
# 6 0.0000 0.0000 0.0000 -11.5748 0.0000 37.9815
#
#
#
# Elastic Compliance Matrix: (Units=1/GPa)
#
#
# Indices 1 2 3 4 5 6 
#
# 1 0.013451 -0.000681 -0.002352 0.000000 -0.002583 0.000000
# 2 -0.000681 0.012607 -0.003781 0.000000 -0.003122 0.000000
# 3 -0.002352 -0.003781 0.013627 0.000000 0.001513 0.000000
# 4 0.000000 0.000000 0.000000 0.052858 0.000000 0.016108
# 5 -0.002583 -0.003122 0.001513 0.000000 0.025828 0.000000
# 6 0.000000 0.000000 0.000000 0.016108 0.000000 0.031238
#
#
# Mechanical properties :
#
#
# Convention : Reuss Voigt Hill
#
# Bulk Modulus (GPa) = 38.37554 39.80665 39.09109
# Shear Modulus (GPa) = 29.08283 33.59190 31.33737
#
# Velocity S-wave (km/s) = 3.58569 3.85364 3.72208
# Velocity P-wave (km/s) = 5.84023 6.11545 5.97942
#
# Compressibility (1/GPa) = 0.02605826
#
# Stress axis : x y z
#
# Youngs Moduli (GPa) = 74.34177 79.31877 73.38165
#
# Poissons Ratio (x) = 0.05405 0.17256
# Poissons Ratio (y) = 0.05066 0.27745
# Poissons Ratio (z) = 0.17482 0.29990
#
# Static dielectric constant tensor:
#      x y z
#    x 1.877260 0.000000 -0.040230 
#    y 0.000000 1.849470 0.000000 
#    z -0.040230 0.000000 1.437120 
# 
# From -- ./inp_files/161097.got.cif
#   From: 2010.05.17/outbox.cif.g08.bks.cpg/sg15_81_cif.got.tgz:161097.got - 2010.06.03 18:47:42.
