data_PCOD9296673
_publ_section_title
;
Structure prediction by ZEFSAII (Michael W. Deem and Ramdas Pophale) SiO2 
 PCOD9296673
Probable space group: C 2/C
;
_chemical_formula_sum "Si O2"
_cell_formula_units_Z 56
_cell_length_a 17.443327
_cell_length_b 8.044677
_cell_length_c 16.995762
_cell_angle_alpha 90.000000
_cell_angle_beta 110.551481
_cell_angle_gamma 90.000000
_cell_volume 2233.161354
_symmetry_space_group_name_H-M "C 2/C"
_symmetry_group_IT_number 15
_symmetry_cell_setting 'monoclinic'
loop_
_space_group_symop_operation_xyz
x,y,z
-x,y,1/2-z
-x,-y,-z
x,-y,1/2+z
1/2+x,1/2+y,z
1/2-x,1/2+y,1/2-z
1/2-x,1/2-y,-z
1/2+x,1/2-y,1/2+z
loop_
_atom_site_type_symbol
_atom_site_label
_atom_site_fract_x
_atom_site_fract_y
_atom_site_fract_z
Si Si1 0.125549 0.177788 0.456267
Si Si2 0.523798 0.870635 0.076143
Si Si3 0.756450 0.292097 0.126958
Si Si4 0.812273 0.670174 0.135283
Si Si5 0.068619 0.809049 0.444476
Si Si6 0.165229 0.785275 0.685795
Si Si7 0.568747 0.611447 0.712726
O O1 0.194946 0.174359 0.415480
O O2 0.166621 0.203032 0.556496
O O3 0.059668 0.318253 0.413163
O O4 0.083637 0.002070 0.439373
O O5 0.600313 0.867995 0.162270
O O6 0.553479 0.721289 0.030064
O O7 0.500000 0.000000 0.000000
O O8 0.798406 0.472942 0.135937
O O9 0.770041 0.232223 0.219551
O O10 0.854955 0.713290 0.067311
O O11 0.721146 0.727484 0.127905
O O12 0.872450 0.767514 0.216598
O O13 0.984530 0.777266 0.366807
O O14 0.117946 0.958996 0.689707
O O15 0.500000 0.543471 0.750000
#
# Coordination Sequence:
#
# PCOD9296673 Si02
#       7
#     8   8   8   8   8   8   8
#     4  11  25  48  73 102 142 196 237 290 370 439
#     4  12  28  43  71 105 142 190 244 300 356 431
#     4  11  26  43  72 106 145 182 237 305 356 425
#     4  11  25  43  70 109 139 185 235 300 352 423
#     4  11  24  47  71  97 143 189 242 286 361 438
#     4  12  26  44  72 105 143 189 235 296 366 427
#     4  10  23  45  72 102 139 193 240 294 362 437
#
# _framework density 25.076556
#
# number of rings (size 3 to 8) (size 9 to 14) (size 15 to 20)
#    0.000    0.857    1.429    4.714    6.000    5.714 
#    2.571    0.000    0.000    0.000    0.000    0.000 
#    0.000    0.000    0.000    0.000    0.000    0.000 
#
# Total GULP energy -156539.885830 kJ/mol
# GULP energy per Si atom -5590.710208 kJ/mol
# Density = 2.501948 g / cm^3
# Si number density = 25.076556 Si / 1000 Ang^3
#
#
#
# Elastic Constant Matrix: (Units=GPa)
#
#
# Indices 1 2 3 4 5 6 
#
# 1 126.0725 7.7527 22.7255 0.0000 0.3082 0.0000
# 2 7.7527 28.1494 -20.1479 0.0000 8.6419 0.0000
# 3 22.7255 -20.1479 93.1942 0.0000 11.4102 0.0000
# 4 0.0000 0.0000 0.0000 35.9870 0.0000 -3.0515
# 5 0.3082 8.6419 11.4102 0.0000 37.8210 0.0000
# 6 0.0000 0.0000 0.0000 -3.0515 0.0000 26.4314
#
#
#
# Elastic Compliance Matrix: (Units=1/GPa)
#
#
# Indices 1 2 3 4 5 6 
#
# 1 0.008966 -0.005897 -0.003756 0.000000 0.002407 0.000000
# 2 -0.005897 0.052884 0.014895 0.000000 -0.016529 0.000000
# 3 -0.003756 0.014895 0.015865 0.000000 -0.008159 0.000000
# 4 0.000000 0.000000 0.000000 0.028063 0.000000 0.003240
# 5 0.002407 -0.016529 -0.008159 0.000000 0.032659 0.000000
# 6 0.000000 0.000000 0.000000 0.003240 0.000000 0.038208
#
#
# Mechanical properties :
#
#
# Convention : Reuss Voigt Hill
#
# Bulk Modulus (GPa) = 11.33787 29.78630 20.56209
# Shear Modulus (GPa) = 25.56765 35.85360 30.71063
#
# Velocity S-wave (km/s) = 3.19656 3.78533 3.50333
# Velocity P-wave (km/s) = 4.26088 5.56856 4.95802
#
# Compressibility (1/GPa) = 0.08819997
#
# Stress axis : x y z
#
# Youngs Moduli (GPa) = 111.53650 18.90926 63.03080
#
# Poissons Ratio (x) = 0.11150 0.23673
# Poissons Ratio (y) = 0.65768 -0.93883
# Poissons Ratio (z) = 0.41891 -0.28165
#
# Static dielectric constant tensor:
#      x y z
#    x 2.005580 0.000000 0.042500 
#    y 0.000000 2.008310 0.000000 
#    z 0.042500 0.000000 2.073070 
# 
# From -- ./inp_files/209649.got.cif
#   From: 2010.05.17/outbox.cif.g08.bks.cpg/sg15_105_cif.got.tgz:209649.got - 2010.06.03 18:47:42.
