data_PCOD9296450
_publ_section_title
;
Structure prediction by ZEFSAII (Michael W. Deem and Ramdas Pophale) SiO2 
 PCOD9296450
Probable space group: C 2/C
;
_chemical_formula_sum "Si O2"
_cell_formula_units_Z 40
_cell_length_a 21.172605
_cell_length_b 8.422312
_cell_length_c 9.032565
_cell_angle_alpha 90.000000
_cell_angle_beta 111.694405
_cell_angle_gamma 90.000000
_cell_volume 1496.619073
_symmetry_space_group_name_H-M "C 2/C"
_symmetry_group_IT_number 15
_symmetry_cell_setting 'monoclinic'
loop_
_space_group_symop_operation_xyz
x,y,z
-x,y,1/2-z
-x,-y,-z
x,-y,1/2+z
1/2+x,1/2+y,z
1/2-x,1/2+y,1/2-z
1/2-x,1/2-y,-z
1/2+x,1/2-y,1/2+z
loop_
_atom_site_type_symbol
_atom_site_label
_atom_site_fract_x
_atom_site_fract_y
_atom_site_fract_z
Si Si1 0.291047 0.311464 0.242719
Si Si2 0.155007 0.456310 0.224585
Si Si3 0.366661 0.489362 0.058849
Si Si4 0.544426 0.641465 0.100734
Si Si5 0.055047 0.569591 0.895215
O O1 0.213725 0.339049 0.222807
O O2 0.310732 0.129623 0.232712
O O3 0.336066 0.385485 0.415348
O O4 0.309174 0.588423 0.612292
O O5 0.118305 0.396888 0.340632
O O6 0.092521 0.484531 0.059996
O O7 0.417842 0.572134 0.220594
O O8 0.500000 0.500000 0.000000
O O9 0.401852 0.352738 0.988839
O O10 0.491636 0.784166 0.087982
O O11 0.000000 0.471381 0.750000
#
# Coordination Sequence:
#
# PCOD9296450 Si02
#       5
#     8   8   8   8   8
#     4  11  26  49  75 109 149 196 254 306 366 440
#     4  12  29  49  75 109 150 200 250 307 369 436
#     4  10  23  44  77 111 147 192 247 310 372 439
#     4  11  22  42  74 112 148 188 240 301 370 441
#     4  12  27  48  74 109 153 195 242 303 374 446
#
# _framework density 26.72691
#
# number of rings (size 3 to 8) (size 9 to 14) (size 15 to 20)
#    0.000    0.800    0.000    7.200    0.000   14.400 
#    0.000    2.000    0.000    0.000    0.000    0.000 
#    0.000    0.000    0.000    0.000    0.000    0.000 
#
# Total GULP energy -112156.693811 kJ/mol
# GULP energy per Si atom -5607.834691 kJ/mol
# Density = 2.666608 g / cm^3
# Si number density = 26.726910 Si / 1000 Ang^3
#
#
#
# Elastic Constant Matrix: (Units=GPa)
#
#
# Indices 1 2 3 4 5 6 
#
# 1 246.3450 77.2571 33.9626 0.0000 -21.8174 0.0000
# 2 77.2571 159.9110 52.6385 0.0000 11.6220 0.0000
# 3 33.9626 52.6385 130.9121 0.0000 -15.4291 0.0000
# 4 0.0000 0.0000 0.0000 28.0507 0.0000 16.6616
# 5 -21.8174 11.6220 -15.4291 0.0000 51.2340 0.0000
# 6 0.0000 0.0000 0.0000 16.6616 0.0000 64.8345
#
#
#
# Elastic Compliance Matrix: (Units=1/GPa)
#
#
# Indices 1 2 3 4 5 6 
#
# 1 0.005153 -0.002727 0.000095 0.000000 0.002842 0.000000
# 2 -0.002727 0.009001 -0.003410 0.000000 -0.004230 0.000000
# 3 0.000095 -0.003410 0.009416 0.000000 0.003649 0.000000
# 4 0.000000 0.000000 0.000000 0.042072 0.000000 -0.010812
# 5 0.002842 -0.004230 0.003649 0.000000 0.022787 0.000000
# 6 0.000000 0.000000 0.000000 -0.010812 0.000000 0.018202
#
#
# Mechanical properties :
#
#
# Convention : Reuss Voigt Hill
#
# Bulk Modulus (GPa) = 87.07812 96.09829 91.58820
# Shear Modulus (GPa) = 40.80128 53.71118 47.25623
#
# Velocity S-wave (km/s) = 3.91141 4.48775 4.20946
# Velocity P-wave (km/s) = 7.28356 7.93013 7.61371
#
# Compressibility (1/GPa) = 0.01148394
#
# Stress axis : x y z
#
# Youngs Moduli (GPa) = 194.04999 111.09668 106.20763
#
# Poissons Ratio (x) = 0.30300 -0.01005
# Poissons Ratio (y) = 0.52925 0.36220
# Poissons Ratio (z) = -0.01836 0.37887
#
# Static dielectric constant tensor:
#      x y z
#    x 2.132870 0.000000 -0.023710 
#    y 0.000000 2.123610 0.000000 
#    z -0.023710 0.000000 2.092420 
# 
# From -- ./inp_files/171501.got.cif
#   From: 2010.05.17/outbox.cif.g08.bks.cpg/sg15_86_cif.got.tgz:171501.got - 2010.06.03 18:47:42.
