data_PCOD9296291
_publ_section_title
;
Structure prediction by ZEFSAII (Michael W. Deem and Ramdas Pophale) SiO2 
 PCOD9296291
Probable space group: C 2/C
;
_chemical_formula_sum "Si O2"
_cell_formula_units_Z 24
_cell_length_a 16.692673
_cell_length_b 7.420731
_cell_length_c 12.813313
_cell_angle_alpha 90.000000
_cell_angle_beta 34.401537
_cell_angle_gamma 90.000000
_cell_volume 896.755622
_symmetry_space_group_name_H-M "C 2/C"
_symmetry_group_IT_number 15
_symmetry_cell_setting 'monoclinic'
loop_
_space_group_symop_operation_xyz
x,y,z
-x,y,1/2-z
-x,-y,-z
x,-y,1/2+z
1/2+x,1/2+y,z
1/2-x,1/2+y,1/2-z
1/2-x,1/2-y,-z
1/2+x,1/2-y,1/2+z
loop_
_atom_site_type_symbol
_atom_site_label
_atom_site_fract_x
_atom_site_fract_y
_atom_site_fract_z
Si Si1 0.693329 0.181094 0.950222
Si Si2 0.345346 0.566541 0.580298
Si Si3 0.470414 0.901205 0.143307
O O1 0.623362 0.357477 0.972179
O O2 0.805593 0.112410 0.743217
O O3 0.750000 0.250000 0.000000
O O4 0.584147 0.020577 0.084130
O O5 0.468805 0.700508 0.414977
O O6 0.199735 0.601413 0.671673
O O7 0.500000 0.000000 0.000000
#
# Coordination Sequence:
#
# PCOD9296291 Si02
#       3
#     8   8   8
#     4  11  24  43  70 102 142 189 233 287 360 425
#     4  11  23  47  71 101 146 182 238 297 352 416
#     4  10  23  44  71 101 144 189 233 298 356 412
#
# _framework density 26.763141999999998
#
# number of rings (size 3 to 8) (size 9 to 14) (size 15 to 20)
#    0.000    1.333    6.667    0.000    0.000   10.667 
#    0.000    0.000    0.000    0.000    0.000    0.000 
#    0.000    0.000    0.000    0.000    0.000    0.000 
#
# Total GULP energy -67203.176158 kJ/mol
# GULP energy per Si atom -5600.264680 kJ/mol
# Density = 2.670223 g / cm^3
# Si number density = 26.763142 Si / 1000 Ang^3
#
#
#
# Elastic Constant Matrix: (Units=GPa)
#
#
# Indices 1 2 3 4 5 6 
#
# 1 176.5205 16.3523 20.9057 0.0000 -12.6891 0.0000
# 2 16.3523 189.2492 19.1568 -0.0002 -11.2978 0.0000
# 3 20.9057 19.1568 66.8032 -0.0001 -30.0701 0.0000
# 4 0.0000 -0.0002 -0.0001 -84.7901 0.0000 15.5431
# 5 -12.6891 -11.2978 -30.0701 0.0000 56.6763 0.0000
# 6 0.0000 0.0000 0.0000 15.5431 0.0000 48.7189
#
#
#
# Elastic Compliance Matrix: (Units=1/GPa)
#
#
# Indices 1 2 3 4 5 6 
#
# 1 0.005911 -0.000327 -0.001563 0.000000 0.000429 0.000000
# 2 -0.000327 0.005465 -0.001324 0.000000 0.000314 0.000000
# 3 -0.001563 -0.001324 0.020444 0.000000 0.010233 0.000000
# 4 0.000000 0.000000 0.000000 -0.011142 0.000000 0.003555
# 5 0.000429 0.000314 0.010233 0.000000 0.023232 0.000000
# 6 0.000000 0.000000 0.000000 0.003555 0.000000 0.019392
#
#
# Mechanical properties :
#
#
# Convention : Reuss Voigt Hill
#
# Bulk Modulus (GPa) = 39.38009 60.60028 49.99019
# Shear Modulus (GPa) = 63.94375 29.19823 46.57099
#
# Velocity S-wave (km/s) = 4.89330 3.30659 4.17600
# Velocity P-wave (km/s) = 6.83169 6.10495 6.47852
#
# Compressibility (1/GPa) = 0.02539354
#
# Stress axis : x y z
#
# Youngs Moduli (GPa) = 169.16740 182.98235 48.91347
#
# Poissons Ratio (x) = 0.05982 0.07645
# Poissons Ratio (y) = 0.05531 0.06474
# Poissons Ratio (z) = 0.26442 0.24218
#
# Static dielectric constant tensor:
#      x y z
#    x 2.369530 0.000000 0.118970 
#    y 0.000000 2.022570 0.000000 
#    z 0.118970 0.000000 2.123070 
# 
# From -- ./inp_files/150025.got.cif
#   From: 2010.05.17/outbox.cif.g08.bks.cpg/sg15_76_cif.got.tgz:150025.got - 2010.06.03 18:47:42.
