data_PCOD9296064
_publ_section_title
;
Structure prediction by ZEFSAII (Michael W. Deem and Ramdas Pophale) SiO2 
 PCOD9296064
Probable space group: C 2/C
;
_chemical_formula_sum "Si O2"
_cell_formula_units_Z 36
_cell_length_a 24.055147
_cell_length_b 7.291618
_cell_length_c 14.722201
_cell_angle_alpha 90.000000
_cell_angle_beta 143.695694
_cell_angle_gamma 90.000000
_cell_volume 1528.904891
_symmetry_space_group_name_H-M "C 2/C"
_symmetry_group_IT_number 15
_symmetry_cell_setting 'monoclinic'
loop_
_space_group_symop_operation_xyz
x,y,z
-x,y,1/2-z
-x,-y,-z
x,-y,1/2+z
1/2+x,1/2+y,z
1/2-x,1/2+y,1/2-z
1/2-x,1/2-y,-z
1/2+x,1/2-y,1/2+z
loop_
_atom_site_type_symbol
_atom_site_label
_atom_site_fract_x
_atom_site_fract_y
_atom_site_fract_z
Si Si1 0.153389 0.849651 0.115992
Si Si2 0.455320 0.440252 0.780218
Si Si3 0.800815 0.177045 0.208511
Si Si4 0.582083 0.963088 0.036785
Si Si5 0.500000 0.195390 0.250000
O O1 0.210197 0.810602 0.096335
O O2 0.207636 0.973193 0.260542
O O3 0.047188 0.924735 0.965959
O O4 0.144674 0.641471 0.136116
O O5 0.500000 0.347131 0.750000
O O6 0.364144 0.347068 0.702693
O O7 0.439422 0.652933 0.728421
O O8 0.866771 0.279343 0.367458
O O9 0.549252 0.930274 0.890317
O O10 0.500000 0.000000 0.000000
#
# Coordination Sequence:
#
# PCOD9296064 Si02
#       5
#     8   8   8   8   4
#     4  12  24  40  71 102 135 187 230 285 349 410
#     4  10  23  44  66  96 146 177 224 291 338 408
#     4  12  23  44  69 103 140 181 234 286 345 415
#     4  12  24  43  74  99 136 189 236 286 349 412
#     4  10  24  44  70 104 136 182 236 286 348 414
#
# _framework density 23.546264999999998
#
# number of rings (size 3 to 8) (size 9 to 14) (size 15 to 20)
#    0.667    0.000    6.667    2.000    1.556    0.889 
#    0.000    1.111    0.000    0.000    0.000    0.000 
#    0.000    0.000    0.000    0.000    0.000    0.000 
#
# Total GULP energy -100206.809757 kJ/mol
# GULP energy per Si atom -5567.044986 kJ/mol
# Density = 2.349267 g / cm^3
# Si number density = 23.546265 Si / 1000 Ang^3
#
#
#
# Elastic Constant Matrix: (Units=GPa)
#
#
# Indices 1 2 3 4 5 6 
#
# 1 151.2993 18.9671 20.6000 0.0000 6.3068 0.0000
# 2 18.9671 107.9831 14.7518 -0.0001 -14.7786 -0.0001
# 3 20.6000 14.7518 39.3406 0.0000 -12.0222 0.0000
# 4 0.0000 -0.0001 0.0000 21.0544 0.0000 -10.1864
# 5 6.3068 -14.7786 -12.0222 0.0000 26.3229 0.0000
# 6 0.0000 -0.0001 0.0000 -10.1864 0.0000 38.4034
#
#
#
# Elastic Compliance Matrix: (Units=1/GPa)
#
#
# Indices 1 2 3 4 5 6 
#
# 1 0.007659 -0.001328 -0.004999 0.000000 -0.004864 0.000000
# 2 -0.001328 0.010456 -0.001551 0.000000 0.005480 0.000000
# 3 -0.004999 -0.001551 0.033376 0.000000 0.015571 0.000000
# 4 0.000000 0.000000 0.000000 0.054488 0.000000 0.014453
# 5 -0.004864 0.005480 0.015571 0.000000 0.049343 0.000000
# 6 0.000000 0.000000 0.000000 0.014453 0.000000 0.029873
#
#
# Mechanical properties :
#
#
# Convention : Reuss Voigt Hill
#
# Bulk Modulus (GPa) = 27.98275 45.25117 36.61696
# Shear Modulus (GPa) = 23.48922 33.44309 28.46616
#
# Velocity S-wave (km/s) = 3.16187 3.77279 3.48076
# Velocity P-wave (km/s) = 5.02393 6.18372 5.63375
#
# Compressibility (1/GPa) = 0.03573631
#
# Stress axis : x y z
#
# Youngs Moduli (GPa) = 130.56036 95.64023 29.96131
#
# Poissons Ratio (x) = 0.12702 0.14978
# Poissons Ratio (y) = 0.17340 0.04646
# Poissons Ratio (z) = 0.65267 0.14829
#
# Static dielectric constant tensor:
#      x y z
#    x 2.267530 0.000000 -0.029850 
#    y 0.000000 1.872640 0.000000 
#    z -0.029850 0.000000 2.045740 
# 
# From -- ./inp_files/171142.got.cif
#   From: 2010.05.17/outbox.cif.g08.bks.cpg/sg15_86_cif.got.tgz:171142.got - 2010.06.03 18:47:42.
