data_PCOD9296032
_publ_section_title
;
Structure prediction by ZEFSAII (Michael W. Deem and Ramdas Pophale) SiO2 
 PCOD9296032
Probable space group: C 2/C
;
_chemical_formula_sum "Si O2"
_cell_formula_units_Z 28
_cell_length_a 17.401294
_cell_length_b 7.081351
_cell_length_c 16.198114
_cell_angle_alpha 90.000000
_cell_angle_beta 33.578807
_cell_angle_gamma 90.000000
_cell_volume 1103.958532
_symmetry_space_group_name_H-M "C 2/C"
_symmetry_group_IT_number 15
_symmetry_cell_setting 'monoclinic'
loop_
_space_group_symop_operation_xyz
x,y,z
-x,y,1/2-z
-x,-y,-z
x,-y,1/2+z
1/2+x,1/2+y,z
1/2-x,1/2+y,1/2-z
1/2-x,1/2-y,-z
1/2+x,1/2-y,1/2+z
loop_
_atom_site_type_symbol
_atom_site_label
_atom_site_fract_x
_atom_site_fract_y
_atom_site_fract_z
Si Si1 0.421841 0.735296 0.498521
Si Si2 0.932344 0.671895 0.473800
Si Si3 0.000000 0.291589 0.250000
Si Si4 0.710520 0.049633 0.138014
O O1 0.534570 0.723095 0.469801
O O2 0.484564 0.688975 0.351294
O O3 0.288665 0.603264 0.625736
O O4 0.382992 0.957824 0.533712
O O5 0.825283 0.793977 0.517234
O O6 0.081611 0.649049 0.297632
O O7 0.863634 0.424484 0.365413
#
# Coordination Sequence:
#
# PCOD9296032 Si02
#       4
#     8   8   4   8
#     4  10  23  44  66 100 136 182 227 280 340 408
#     4  10  25  42  73 101 135 183 234 278 341 407
#     4  10  24  44  70 102 142 180 228 284 352 396
#     4  11  24  44  69 103 138 181 227 286 340 411
#
# _framework density 25.363271000000001
#
# number of rings (size 3 to 8) (size 9 to 14) (size 15 to 20)
#    0.000    1.714    0.000    1.714   12.000    9.143 
#    0.000    7.143    0.000    0.000    0.000    0.000 
#    0.000    0.000    0.000    0.000    0.000    0.000 
#
# Total GULP energy -78327.409752 kJ/mol
# GULP energy per Si atom -5594.814982 kJ/mol
# Density = 2.530554 g / cm^3
# Si number density = 25.363271 Si / 1000 Ang^3
#
#
#
# Elastic Constant Matrix: (Units=GPa)
#
#
# Indices 1 2 3 4 5 6 
#
# 1 131.7992 8.5095 40.6150 0.0000 -6.8868 0.0000
# 2 8.5095 88.2492 41.9486 -0.0003 -42.6812 0.0002
# 3 40.6150 41.9486 130.4567 0.0000 -11.9839 0.0001
# 4 0.0000 -0.0003 0.0000 23.9287 0.0000 -8.8826
# 5 -6.8868 -42.6812 -11.9839 0.0000 49.4983 0.0000
# 6 0.0000 0.0002 0.0001 -8.8826 0.0000 16.6367
#
#
#
# Elastic Compliance Matrix: (Units=1/GPa)
#
#
# Indices 1 2 3 4 5 6 
#
# 1 0.008489 0.001379 -0.002934 0.000000 0.001660 0.000000
# 2 0.001379 0.023154 -0.006160 0.000000 0.018666 0.000000
# 3 -0.002934 -0.006160 0.010262 0.000000 -0.003235 0.000000
# 4 0.000000 0.000000 0.000000 0.052121 0.000000 0.027828
# 5 0.001660 0.018666 -0.003235 0.000000 0.035745 0.000000
# 6 0.000000 0.000000 0.000000 0.027828 0.000000 0.074966
#
#
# Mechanical properties :
#
#
# Convention : Reuss Voigt Hill
#
# Bulk Modulus (GPa) = 37.77056 59.18347 48.47702
# Shear Modulus (GPa) = 21.83473 35.30820 28.57147
#
# Velocity S-wave (km/s) = 2.93726 3.73513 3.35996
# Velocity P-wave (km/s) = 5.14077 6.47971 5.84868
#
# Compressibility (1/GPa) = 0.02647565
#
# Stress axis : x y z
#
# Youngs Moduli (GPa) = 117.79868 43.18863 97.44440
#
# Poissons Ratio (x) = -0.05954 0.28588
# Poissons Ratio (y) = -0.16240 0.60024
# Poissons Ratio (z) = 0.34559 0.26603
#
# Static dielectric constant tensor:
#      x y z
#    x 2.019270 0.000000 0.056140 
#    y 0.000000 2.015400 0.000000 
#    z 0.056140 0.000000 2.000310 
# 
# From -- ./inp_files/45483.got.cif
#   From: 2010.05.17/outbox.cif.g08.bks.cpg/sg15_23_cif.got.tgz:45483.got - 2010.06.03 18:47:42.
