data_PCOD9296603
_publ_section_title
;
Structure prediction by ZEFSAII (Michael W. Deem and Ramdas Pophale) SiO2 
 PCOD9296603
Probable space group: C 2/C
;
_chemical_formula_sum "Si O2"
_cell_formula_units_Z 60
_cell_length_a 14.077767
_cell_length_b 7.352815
_cell_length_c 24.583364
_cell_angle_alpha 90.000000
_cell_angle_beta 91.166090
_cell_angle_gamma 90.000000
_cell_volume 2544.126920
_symmetry_space_group_name_H-M "C 2/C"
_symmetry_group_IT_number 15
_symmetry_cell_setting 'monoclinic'
loop_
_space_group_symop_operation_xyz
x,y,z
-x,y,1/2-z
-x,-y,-z
x,-y,1/2+z
1/2+x,1/2+y,z
1/2-x,1/2+y,1/2-z
1/2-x,1/2-y,-z
1/2+x,1/2-y,1/2+z
loop_
_atom_site_type_symbol
_atom_site_label
_atom_site_fract_x
_atom_site_fract_y
_atom_site_fract_z
Si Si1 0.422894 0.797315 0.053862
Si Si2 0.848750 0.014579 0.203631
Si Si3 0.356417 0.006760 0.826624
Si Si4 0.366231 0.416965 0.823982
Si Si5 0.974864 0.079641 0.604856
Si Si6 0.000000 0.588611 0.250000
Si Si7 0.157601 0.572045 0.834456
Si Si8 0.920990 0.586666 0.439805
O O1 0.433644 0.583787 0.067435
O O2 0.372254 0.897993 0.103446
O O3 0.526580 0.893804 0.051033
O O4 0.376964 0.840192 0.995006
O O5 0.892313 0.017063 0.263718
O O6 0.908841 0.913814 0.158019
O O7 0.831268 0.222633 0.186540
O O8 0.741962 0.944646 0.203166
O O9 0.401764 0.207868 0.827779
O O10 0.417399 0.863145 0.792836
O O11 0.350448 0.937142 0.888094
O O12 0.423407 0.515891 0.871634
O O13 0.254339 0.457183 0.830306
O O14 0.996627 0.268759 0.576042
O O15 0.926737 0.503659 0.204424
#
# Coordination Sequence:
#
# PCOD9296603 Si02
#       8
#     8   8   8   8   8   4   8   8
#     4  10  23  45  69  97 134 179 222 284 331 391
#     4  11  23  40  64 101 136 174 222 272 337 406
#     4  12  24  40  67  98 134 179 219 275 334 404
#     4  12  22  41  64  98 141 174 219 274 341 399
#     4  11  24  43  70  98 132 180 224 276 339 392
#     4  12  20  40  64  92 136 174 212 272 344 390
#     4  11  23  41  66  96 131 179 217 276 338 398
#     4  11  23  44  69  99 134 176 232 273 331 396
#
# _framework density 23.583731
#
# number of rings (size 3 to 8) (size 9 to 14) (size 15 to 20)
#    0.000    0.800    5.333    2.400    1.867    0.000 
#    4.800    8.000    0.000    0.000    0.000    0.000 
#    0.000    0.000    0.000    0.000    0.000    0.000 
#
# Total GULP energy -167586.375153 kJ/mol
# GULP energy per Si atom -5586.212505 kJ/mol
# Density = 2.353005 g / cm^3
# Si number density = 23.583731 Si / 1000 Ang^3
#
#
#
# Elastic Constant Matrix: (Units=GPa)
#
#
# Indices 1 2 3 4 5 6 
#
# 1 82.4456 0.1917 10.2176 0.0000 0.1231 0.0000
# 2 0.1917 95.0068 18.8092 0.0000 -7.9674 0.0000
# 3 10.2176 18.8092 154.5745 0.0000 -8.1792 0.0000
# 4 0.0000 0.0000 0.0000 17.8860 0.0000 1.2488
# 5 0.1231 -7.9674 -8.1792 0.0000 24.8716 0.0000
# 6 0.0000 0.0000 0.0000 1.2488 0.0000 23.8383
#
#
#
# Elastic Compliance Matrix: (Units=1/GPa)
#
#
# Indices 1 2 3 4 5 6 
#
# 1 0.012233 0.000116 -0.000839 0.000000 -0.000299 0.000000
# 2 0.000116 0.011023 -0.001183 0.000000 0.003142 0.000000
# 3 -0.000839 -0.001183 0.006767 0.000000 0.001851 0.000000
# 4 0.000000 0.000000 0.000000 0.056115 0.000000 -0.002940
# 5 -0.000299 0.003142 0.001851 0.000000 0.041823 0.000000
# 6 0.000000 0.000000 0.000000 -0.002940 0.000000 0.042103
#
#
# Mechanical properties :
#
#
# Convention : Reuss Voigt Hill
#
# Bulk Modulus (GPa) = 38.14947 43.38485 40.76716
# Shear Modulus (GPa) = 27.38048 33.50640 30.44344
#
# Velocity S-wave (km/s) = 3.41103 3.77336 3.59676
# Velocity P-wave (km/s) = 5.63247 6.11722 5.87985
#
# Compressibility (1/GPa) = 0.02621269
#
# Stress axis : x y z
#
# Youngs Moduli (GPa) = 81.74398 90.71983 147.78368
#
# Poissons Ratio (x) = -0.01055 0.12393
# Poissons Ratio (y) = -0.00950 0.17479
# Poissons Ratio (z) = 0.06855 0.10730
#
# Static dielectric constant tensor:
#      x y z
#    x 1.912810 0.000000 -0.021060 
#    y 0.000000 1.911420 0.000000 
#    z -0.021060 0.000000 1.892220 
# 
# From -- ./inp_files/272801.got.cif
#   From: 2010.05.17/outbox.cif.g08.bks.cpg/sg15_137_cif.got.tgz:272801.got - 2010.06.03 18:47:42.
