data_PCOD9296172
_publ_section_title
;
Structure prediction by ZEFSAII (Michael W. Deem and Ramdas Pophale) SiO2 
 PCOD9296172
Probable space group: C 2/C
;
_chemical_formula_sum "Si O2"
_cell_formula_units_Z 44
_cell_length_a 10.664476
_cell_length_b 13.725284
_cell_length_c 11.598994
_cell_angle_alpha 90.000000
_cell_angle_beta 86.235147
_cell_angle_gamma 90.000000
_cell_volume 1694.115188
_symmetry_space_group_name_H-M "C 2/C"
_symmetry_group_IT_number 15
_symmetry_cell_setting 'monoclinic'
loop_
_space_group_symop_operation_xyz
x,y,z
-x,y,1/2-z
-x,-y,-z
x,-y,1/2+z
1/2+x,1/2+y,z
1/2-x,1/2+y,1/2-z
1/2-x,1/2-y,-z
1/2+x,1/2-y,1/2+z
loop_
_atom_site_type_symbol
_atom_site_label
_atom_site_fract_x
_atom_site_fract_y
_atom_site_fract_z
Si Si1 0.037208 0.624308 0.544905
Si Si2 0.500000 0.505010 0.250000
Si Si3 0.375913 0.681714 0.387368
Si Si4 0.794071 0.945505 0.094750
Si Si5 0.872900 0.309697 0.712484
Si Si6 0.216889 0.363065 0.532775
O O1 0.027676 0.732710 0.597316
O O2 0.142309 0.567437 0.611427
O O3 0.086464 0.634764 0.408460
O O4 0.892837 0.594946 0.543449
O O5 0.428854 0.582917 0.333960
O O6 0.387909 0.445920 0.196276
O O7 0.329037 0.646007 0.513860
O O8 0.264788 0.726334 0.316428
O O9 0.819190 0.050860 0.031094
O O10 0.833536 0.363971 0.832524
O O11 0.000000 0.256539 0.750000
O O12 0.250000 0.250000 0.500000
#
# Coordination Sequence:
#
# PCOD9296172 Si02
#       6
#     8   4   8   8   8   8
#     4  10  23  44  68  98 133 179 223 278 337 404
#     4  12  24  42  68  98 138 176 224 280 340 394
#     4  11  23  46  65  95 138 172 227 279 333 403
#     4  11  23  44  65  98 135 178 221 276 334 407
#     4   9  19  39  66  93 130 174 214 266 332 394
#     4  11  22  42  70 100 138 172 225 280 336 395
#
# _framework density 25.972259999999999
#
# number of rings (size 3 to 8) (size 9 to 14) (size 15 to 20)
#    0.000    1.455    1.818    4.364    0.000    0.000 
#   19.636    0.000    6.000    0.000    0.000    0.000 
#    0.000    0.000    0.000    0.000    0.000    0.000 
#
# Total GULP energy -122624.072463 kJ/mol
# GULP energy per Si atom -5573.821476 kJ/mol
# Density = 2.591315 g / cm^3
# Si number density = 25.972260 Si / 1000 Ang^3
#
#
#
# Elastic Constant Matrix: (Units=GPa)
#
#
# Indices 1 2 3 4 5 6 
#
# 1 114.7507 25.1832 52.5705 0.0000 60.0231 0.0000
# 2 25.1832 105.7742 37.1828 0.0000 31.3784 0.0000
# 3 52.5705 37.1828 99.9766 0.0000 37.7014 0.0000
# 4 0.0000 0.0000 0.0000 -47.1610 0.0000 19.5071
# 5 60.0231 31.3784 37.7014 0.0000 55.4363 0.0000
# 6 0.0000 0.0000 0.0000 19.5071 0.0000 42.3278
#
#
#
# Elastic Compliance Matrix: (Units=1/GPa)
#
#
# Indices 1 2 3 4 5 6 
#
# 1 0.021553 0.002876 -0.004020 0.000000 -0.022231 0.000000
# 2 0.002876 0.012199 -0.003055 0.000000 -0.007942 0.000000
# 3 -0.004020 -0.003055 0.014739 0.000000 -0.003942 0.000000
# 4 0.000000 0.000000 0.000000 -0.017809 0.000000 0.008207
# 5 -0.022231 -0.007942 -0.003942 0.000000 0.049286 0.000000
# 6 0.000000 0.000000 0.000000 0.008207 0.000000 0.019843
#
#
# Mechanical properties :
#
#
# Convention : Reuss Voigt Hill
#
# Bulk Modulus (GPa) = 24.94052 61.15272 43.04662
# Shear Modulus (GPa) = 41.12819 23.82496 32.47658
#
# Velocity S-wave (km/s) = 3.98369 3.03202 3.53998
# Velocity P-wave (km/s) = 5.54827 5.98782 5.77223
#
# Compressibility (1/GPa) = 0.04009540
#
# Stress axis : x y z
#
# Youngs Moduli (GPa) = 46.39663 81.97330 67.84847
#
# Poissons Ratio (x) = -0.23580 0.27274
# Poissons Ratio (y) = -0.13346 0.20725
# Poissons Ratio (z) = 0.18650 0.25039
#
# Static dielectric constant tensor:
#      x y z
#    x 2.197410 0.000000 -0.083510 
#    y 0.000000 2.048140 0.000000 
#    z -0.083510 0.000000 2.111420 
# 
# From -- ./inp_files/86155.got.cif
#   From: 2010.05.17/outbox.cif.g08.bks.cpg/sg15_44_cif.got.tgz:86155.got - 2010.06.03 18:47:42.
