data_PCOD9296657
_publ_section_title
;
Structure prediction by ZEFSAII (Michael W. Deem and Ramdas Pophale) SiO2 
 PCOD9296657
Probable space group: C 2/C
;
_chemical_formula_sum "Si O2"
_cell_formula_units_Z 56
_cell_length_a 12.093137
_cell_length_b 7.812146
_cell_length_c 27.582111
_cell_angle_alpha 90.000000
_cell_angle_beta 108.663361
_cell_angle_gamma 90.000000
_cell_volume 2468.750105
_symmetry_space_group_name_H-M "C 2/C"
_symmetry_group_IT_number 15
_symmetry_cell_setting 'monoclinic'
loop_
_space_group_symop_operation_xyz
x,y,z
-x,y,1/2-z
-x,-y,-z
x,-y,1/2+z
1/2+x,1/2+y,z
1/2-x,1/2+y,1/2-z
1/2-x,1/2-y,-z
1/2+x,1/2-y,1/2+z
loop_
_atom_site_type_symbol
_atom_site_label
_atom_site_fract_x
_atom_site_fract_y
_atom_site_fract_z
Si Si1 0.723888 0.116079 0.696034
Si Si2 0.449001 0.337952 0.387761
Si Si3 0.780738 0.489612 0.192485
Si Si4 0.470987 0.812074 0.156204
Si Si5 0.452534 0.448140 0.191817
Si Si6 0.369869 0.382216 0.552772
Si Si7 0.393114 0.879087 0.969589
O O1 0.771066 0.306674 0.693161
O O2 0.728215 0.076826 0.753665
O O3 0.592221 0.099235 0.660305
O O4 0.816958 0.004845 0.679682
O O5 0.326791 0.419410 0.354161
O O6 0.517874 0.316214 0.346532
O O7 0.532766 0.472661 0.427118
O O8 0.421725 0.185253 0.419880
O O9 0.897037 0.420575 0.183595
O O10 0.509083 0.630628 0.185994
O O11 0.397269 0.757270 0.098829
O O12 0.500000 0.388927 0.250000
O O13 0.384625 0.286070 0.503978
O O14 0.238640 0.452720 0.543043
O O15 0.500000 0.000000 0.000000
#
# Coordination Sequence:
#
# PCOD9296657 Si02
#       7
#     8   8   8   8   8   8   8
#     4  12  24  42  64  96 137 180 224 269 323 394
#     4  11  23  46  68  96 140 177 213 275 338 394
#     4  12  23  42  67  95 138 181 219 271 326 390
#     4  11  23  43  67  97 133 177 221 271 333 392
#     4  11  22  43  65  94 139 176 217 273 327 388
#     4  10  23  45  71  97 132 172 216 278 344 394
#     4  11  25  46  72 100 128 167 229 287 336 403
#
# _framework density 22.683541999999999
#
# number of rings (size 3 to 8) (size 9 to 14) (size 15 to 20)
#    0.000    0.857    5.714    2.571    0.000    5.143 
#    5.143    0.000    0.000    0.000    0.000    0.000 
#    0.000    0.000    0.000    0.000    0.000    0.000 
#
# Total GULP energy -156702.120840 kJ/mol
# GULP energy per Si atom -5596.504316 kJ/mol
# Density = 2.263191 g / cm^3
# Si number density = 22.683542 Si / 1000 Ang^3
#
#
#
# Elastic Constant Matrix: (Units=GPa)
#
#
# Indices 1 2 3 4 5 6 
#
# 1 162.9488 25.9082 31.1314 0.0000 0.6397 0.0000
# 2 25.9082 54.0289 28.9949 0.0000 -6.8884 0.0000
# 3 31.1314 28.9949 92.6602 0.0000 -6.9632 0.0000
# 4 0.0000 0.0000 0.0000 31.5730 0.0000 6.0719
# 5 0.6397 -6.8884 -6.9632 0.0000 49.1754 0.0000
# 6 0.0000 0.0000 0.0000 6.0719 0.0000 29.7702
#
#
#
# Elastic Compliance Matrix: (Units=1/GPa)
#
#
# Indices 1 2 3 4 5 6 
#
# 1 0.006839 -0.002529 -0.001556 0.000000 -0.000664 0.000000
# 2 -0.002529 0.023407 -0.006293 0.000000 0.002421 0.000000
# 3 -0.001556 -0.006293 0.013362 0.000000 0.001031 0.000000
# 4 0.000000 0.000000 0.000000 0.032966 0.000000 -0.006724
# 5 -0.000664 0.002421 0.001031 0.000000 0.020829 0.000000
# 6 0.000000 0.000000 0.000000 -0.006724 0.000000 0.034962
#
#
# Mechanical properties :
#
#
# Convention : Reuss Voigt Hill
#
# Bulk Modulus (GPa) = 43.76082 53.52298 48.64190
# Shear Modulus (GPa) = 31.10667 37.01062 34.05865
#
# Velocity S-wave (km/s) = 3.70717 4.04370 3.87908
# Velocity P-wave (km/s) = 6.13660 6.74157 6.44619
#
# Compressibility (1/GPa) = 0.02285149
#
# Stress axis : x y z
#
# Youngs Moduli (GPa) = 146.22234 42.72233 74.84142
#
# Poissons Ratio (x) = 0.10804 0.11647
# Poissons Ratio (y) = 0.36977 0.47097
# Poissons Ratio (z) = 0.22756 0.26885
#
# Static dielectric constant tensor:
#      x y z
#    x 1.889030 0.000000 0.015840 
#    y 0.000000 1.825950 0.000000 
#    z 0.015840 0.000000 1.830230 
# 
# From -- ./inp_files/291611.got.cif
#   From: 2010.05.17/outbox.cif.g08.bks.cpg/sg15_146_cif.got.tgz:291611.got - 2010.06.03 18:47:42.
