data_PCOD9296789
_publ_section_title
;
Structure prediction by ZEFSAII (Michael W. Deem and Ramdas Pophale) SiO2 
 PCOD9296789
Probable space group: C 2/C
;
_chemical_formula_sum "Si O2"
_cell_formula_units_Z 60
_cell_length_a 9.520938
_cell_length_b 12.724417
_cell_length_c 25.421132
_cell_angle_alpha 90.000000
_cell_angle_beta 65.885400
_cell_angle_gamma 90.000000
_cell_volume 2810.961438
_symmetry_space_group_name_H-M "C 2/C"
_symmetry_group_IT_number 15
_symmetry_cell_setting 'monoclinic'
loop_
_space_group_symop_operation_xyz
x,y,z
-x,y,1/2-z
-x,-y,-z
x,-y,1/2+z
1/2+x,1/2+y,z
1/2-x,1/2+y,1/2-z
1/2-x,1/2-y,-z
1/2+x,1/2-y,1/2+z
loop_
_atom_site_type_symbol
_atom_site_label
_atom_site_fract_x
_atom_site_fract_y
_atom_site_fract_z
Si Si1 0.687742 0.182837 0.320912
Si Si2 0.172622 0.308636 0.327422
Si Si3 0.149941 0.791201 0.935982
Si Si4 0.599807 0.862216 0.190308
Si Si5 0.000000 0.698042 0.250000
Si Si6 0.342495 0.504998 0.755103
Si Si7 0.521227 0.278037 0.068044
Si Si8 0.859014 0.008902 0.626185
O O1 0.766345 0.296766 0.300401
O O2 0.559528 0.154205 0.296942
O O3 0.610359 0.200841 0.389062
O O4 0.822414 0.102004 0.290024
O O5 0.131864 0.297277 0.394406
O O6 0.332247 0.246428 0.293143
O O7 0.209574 0.424270 0.300748
O O8 0.014431 0.282302 0.321219
O O9 0.320869 0.769143 0.932627
O O10 0.125637 0.902160 0.909155
O O11 0.037904 0.783482 0.002970
O O12 0.500000 0.919007 0.250000
O O13 0.691996 0.940081 0.139103
O O14 0.500000 0.557992 0.750000
O O15 0.349453 0.488968 0.691111
O O16 0.480760 0.396970 0.095028
#
# Coordination Sequence:
#
# PCOD9296789 Si02
#       8
#     8   8   8   8   4   8   8   8
#     4  11  24  39  64  92 133 169 215 268 338 400
#     4  12  23  40  63  98 132 168 218 269 334 404
#     4  11  24  42  72  91 128 185 232 270 333 403
#     4  11  22  40  59  95 137 162 204 275 335 403
#     4  12  20  38  64  92 128 172 208 270 332 394
#     4  12  25  38  64 102 137 166 208 282 351 399
#     4  10  23  46  66  95 131 176 236 280 315 408
#     4  11  24  42  68  97 131 177 224 274 348 404
#
# _framework density 21.345009000000001
#
# number of rings (size 3 to 8) (size 9 to 14) (size 15 to 20)
#    0.000    0.800    4.667    3.200    3.733    0.000 
#    1.200    3.333    2.933    0.000    0.000    0.000 
#    0.000    0.000    0.000    0.000    0.000    0.000 
#
# Total GULP energy -167059.479107 kJ/mol
# GULP energy per Si atom -5568.649304 kJ/mol
# Density = 2.129643 g / cm^3
# Si number density = 21.345009 Si / 1000 Ang^3
#
#
#
# Elastic Constant Matrix: (Units=GPa)
#
#
# Indices 1 2 3 4 5 6 
#
# 1 79.1182 10.7626 22.7161 0.0000 2.6200 0.0000
# 2 10.7626 69.4673 56.4615 0.0000 1.8875 0.0000
# 3 22.7161 56.4615 192.8118 0.0000 -1.8174 0.0000
# 4 0.0000 0.0000 0.0000 30.4486 0.0000 -1.4292
# 5 2.6200 1.8875 -1.8174 0.0000 29.1457 0.0000
# 6 0.0000 0.0000 0.0000 -1.4292 0.0000 28.8006
#
#
#
# Elastic Compliance Matrix: (Units=1/GPa)
#
#
# Indices 1 2 3 4 5 6 
#
# 1 0.013178 -0.000968 -0.001280 0.000000 -0.001202 0.000000
# 2 -0.000968 0.019035 -0.005474 0.000000 -0.001487 0.000000
# 3 -0.001280 -0.005474 0.006949 0.000000 0.000903 0.000000
# 4 0.000000 0.000000 0.000000 0.032919 0.000000 0.001634
# 5 -0.001202 -0.001487 0.000903 0.000000 0.034571 0.000000
# 6 0.000000 0.000000 0.000000 0.001634 0.000000 0.034803
#
#
# Mechanical properties :
#
#
# Convention : Reuss Voigt Hill
#
# Bulk Modulus (GPa) = 42.16470 57.91974 50.04222
# Shear Modulus (GPa) = 30.33881 34.44278 32.39080
#
# Velocity S-wave (km/s) = 3.77417 4.02135 3.89972
# Velocity P-wave (km/s) = 6.22811 6.98252 6.61608
#
# Compressibility (1/GPa) = 0.02371652
#
# Stress axis : x y z
#
# Youngs Moduli (GPa) = 75.88133 52.53538 143.91174
#
# Poissons Ratio (x) = 0.05088 0.18426
# Poissons Ratio (y) = 0.07349 0.78776
# Poissons Ratio (z) = 0.09716 0.28757
#
# Static dielectric constant tensor:
#      x y z
#    x 1.829600 0.000000 0.012120 
#    y 0.000000 1.801470 0.000000 
#    z 0.012120 0.000000 1.779070 
# 
# From -- ./inp_files/264673.got.cif
#   From: 2010.05.17/outbox.cif.g08.bks.cpg/sg15_133_cif.got.tgz:264673.got - 2010.06.03 18:47:42.
