data_PCOD9296202
_publ_section_title
;
Structure prediction by ZEFSAII (Michael W. Deem and Ramdas Pophale) SiO2 
 PCOD9296202
Probable space group: C 2/C
;
_chemical_formula_sum "Si O2"
_cell_formula_units_Z 40
_cell_length_a 11.047012
_cell_length_b 13.784236
_cell_length_c 15.417444
_cell_angle_alpha 90.000000
_cell_angle_beta 137.602158
_cell_angle_gamma 90.000000
_cell_volume 1582.984596
_symmetry_space_group_name_H-M "C 2/C"
_symmetry_group_IT_number 15
_symmetry_cell_setting 'monoclinic'
loop_
_space_group_symop_operation_xyz
x,y,z
-x,y,1/2-z
-x,-y,-z
x,-y,1/2+z
1/2+x,1/2+y,z
1/2-x,1/2+y,1/2-z
1/2-x,1/2-y,-z
1/2+x,1/2-y,1/2+z
loop_
_atom_site_type_symbol
_atom_site_label
_atom_site_fract_x
_atom_site_fract_y
_atom_site_fract_z
Si Si1 0.821321 0.917908 0.868511
Si Si2 0.832057 0.099083 0.564918
Si Si3 0.156820 0.554831 0.636535
Si Si4 0.582107 0.756078 0.475782
Si Si5 0.043839 0.714852 0.148695
O O1 0.665089 0.835916 0.783630
O O2 0.985592 0.849025 0.926808
O O3 0.739459 0.998129 0.761824
O O4 0.154917 0.045304 0.020523
O O5 0.810896 0.048531 0.644857
O O6 0.641573 0.157184 0.462552
O O7 0.988228 0.177694 0.643551
O O8 0.000000 0.500000 0.500000
O O9 0.065876 0.657268 0.618360
O O10 0.750000 0.750000 0.500000
O O11 0.639500 0.780233 0.605498
#
# Coordination Sequence:
#
# PCOD9296202 Si02
#       5
#     8   8   8   8   8
#     4  11  21  41  77 102 142 199 238 295 384 426
#     4   9  19  36  66 104 142 177 243 304 345 440
#     4  11  22  43  72 108 143 190 251 300 361 448
#     4  10  23  44  69 105 150 187 239 311 372 438
#     4   9  18  37  66 100 132 185 238 294 362 432
#
# _framework density 25.268723999999999
#
# number of rings (size 3 to 8) (size 9 to 14) (size 15 to 20)
#    0.000    2.000    4.000    1.800    0.000    0.800 
#    0.000    8.000    0.000    9.600    0.000    0.000 
#    0.000    0.000    0.000    0.000    0.000    0.000 
#
# Total GULP energy -111845.070243 kJ/mol
# GULP energy per Si atom -5592.253512 kJ/mol
# Density = 2.521121 g / cm^3
# Si number density = 25.268724 Si / 1000 Ang^3
#
#
#
# Elastic Constant Matrix: (Units=GPa)
#
#
# Indices 1 2 3 4 5 6 
#
# 1 229.7165 71.1088 48.7087 0.0000 -1.3413 0.0000
# 2 71.1088 143.5238 54.9115 0.0000 -12.3562 0.0000
# 3 48.7087 54.9115 88.5044 -0.0001 -1.0959 0.0000
# 4 0.0000 0.0000 -0.0001 53.6838 0.0000 -4.7304
# 5 -1.3413 -12.3562 -1.0959 0.0000 47.0552 0.0000
# 6 0.0000 0.0000 0.0000 -4.7304 0.0000 21.9947
#
#
#
# Elastic Compliance Matrix: (Units=1/GPa)
#
#
# Indices 1 2 3 4 5 6 
#
# 1 0.005338 -0.002039 -0.001678 0.000000 -0.000422 0.000000
# 2 -0.002039 0.010164 -0.005153 0.000000 0.002491 0.000000
# 3 -0.001678 -0.005153 0.015406 0.000000 -0.001042 0.000000
# 4 0.000000 0.000000 0.000000 0.018987 0.000000 0.004084
# 5 -0.000422 0.002491 -0.001042 0.000000 0.021869 0.000000
# 6 0.000000 0.000000 0.000000 0.004084 0.000000 0.046344
#
#
# Mechanical properties :
#
#
# Convention : Reuss Voigt Hill
#
# Bulk Modulus (GPa) = 75.93957 90.13365 83.03661
# Shear Modulus (GPa) = 35.65396 43.68112 39.66754
#
# Velocity S-wave (km/s) = 3.76039 4.16223 3.96640
# Velocity P-wave (km/s) = 6.99801 7.67114 7.34229
#
# Compressibility (1/GPa) = 0.01316837
#
# Stress axis : x y z
#
# Youngs Moduli (GPa) = 187.34856 98.39037 64.90829
#
# Poissons Ratio (x) = 0.20062 0.10890
# Poissons Ratio (y) = 0.38200 0.33446
# Poissons Ratio (z) = 0.31432 0.50699
#
# Static dielectric constant tensor:
#      x y z
#    x 2.021110 0.000000 0.029140 
#    y 0.000000 2.057250 0.000000 
#    z 0.029140 0.000000 2.033270 
# 
# From -- ./inp_files/237800.got.cif
#   From: 2010.05.17/outbox.cif.g08.bks.cpg/sg15_119_cif.got.tgz:237800.got - 2010.06.03 18:47:42.
