data_PCOD9296670
_publ_section_title
;
Structure prediction by ZEFSAII (Michael W. Deem and Ramdas Pophale) SiO2 
 PCOD9296670
Probable space group: C 2/C
;
_chemical_formula_sum "Si O2"
_cell_formula_units_Z 56
_cell_length_a 17.647020
_cell_length_b 7.502469
_cell_length_c 23.808817
_cell_angle_alpha 90.000000
_cell_angle_beta 125.987561
_cell_angle_gamma 90.000000
_cell_volume 2550.583443
_symmetry_space_group_name_H-M "C 2/C"
_symmetry_group_IT_number 15
_symmetry_cell_setting 'monoclinic'
loop_
_space_group_symop_operation_xyz
x,y,z
-x,y,1/2-z
-x,-y,-z
x,-y,1/2+z
1/2+x,1/2+y,z
1/2-x,1/2+y,1/2-z
1/2-x,1/2-y,-z
1/2+x,1/2-y,1/2+z
loop_
_atom_site_type_symbol
_atom_site_label
_atom_site_fract_x
_atom_site_fract_y
_atom_site_fract_z
Si Si1 0.472283 0.373762 0.622248
Si Si2 0.985500 0.704997 0.142864
Si Si3 0.148089 0.362390 0.014116
Si Si4 0.342116 0.215264 0.854573
Si Si5 0.785624 0.032205 0.990170
Si Si6 0.619193 0.898872 0.340153
Si Si7 0.178161 0.531036 0.254219
O O1 0.475566 0.582357 0.639858
O O2 0.563435 0.300073 0.630380
O O3 0.380913 0.363243 0.542471
O O4 0.448379 0.250375 0.664610
O O5 0.923724 0.592611 0.160786
O O6 0.092680 0.659275 0.200565
O O7 0.945124 0.631633 0.065458
O O8 0.137616 0.372099 0.076188
O O9 0.186518 0.162970 0.019836
O O10 0.225113 0.492848 0.020147
O O11 0.263929 0.369307 0.820917
O O12 0.299296 0.072201 0.792741
O O13 0.716711 0.117739 0.915446
O O14 0.638126 0.895232 0.282958
#
# Coordination Sequence:
#
# PCOD9296670 Si02
#       7
#     8   8   8   8   8   8   8
#     4  11  24  42  72 108 131 177 238 285 346 417
#     4  10  23  45  72 101 135 181 237 286 343 407
#     4   9  20  42  72  99 138 182 232 290 346 412
#     4  12  26  45  66 104 146 181 231 293 359 411
#     4   9  19  41  72 103 130 180 235 284 343 412
#     4  11  22  47  71 101 138 184 231 291 338 426
#     4  12  26  47  66  99 152 190 226 294 356 422
#
# _framework density 21.955762
#
# number of rings (size 3 to 8) (size 9 to 14) (size 15 to 20)
#    0.000    1.429    2.857    2.571    0.000    4.000 
#    7.714    0.000    0.000    0.000    0.000    0.000 
#    0.000    0.000    0.000    0.000    0.000    0.000 
#
# Total GULP energy -156537.044343 kJ/mol
# GULP energy per Si atom -5590.608727 kJ/mol
# Density = 2.190579 g / cm^3
# Si number density = 21.955762 Si / 1000 Ang^3
#
#
#
# Elastic Constant Matrix: (Units=GPa)
#
#
# Indices 1 2 3 4 5 6 
#
# 1 76.3821 -1.0528 57.0946 0.0000 3.3475 0.0000
# 2 -1.0528 24.9487 11.5379 0.0000 1.7491 0.0000
# 3 57.0946 11.5379 115.0012 0.0000 0.1578 0.0000
# 4 0.0000 0.0000 0.0000 26.7567 0.0000 5.9857
# 5 3.3475 1.7491 0.1578 0.0000 55.7009 0.0000
# 6 0.0000 0.0000 0.0000 5.9857 0.0000 14.5994
#
#
#
# Elastic Compliance Matrix: (Units=1/GPa)
#
#
# Indices 1 2 3 4 5 6 
#
# 1 0.021811 0.006324 -0.011461 0.000000 -0.001477 0.000000
# 2 0.006324 0.043962 -0.007548 0.000000 -0.001739 0.000000
# 3 -0.011461 -0.007548 0.015142 0.000000 0.000883 0.000000
# 4 0.000000 0.000000 0.000000 0.041148 0.000000 -0.016870
# 5 -0.001477 -0.001739 0.000883 0.000000 0.018094 0.000000
# 6 0.000000 0.000000 0.000000 -0.016870 0.000000 0.075413
#
#
# Mechanical properties :
#
#
# Convention : Reuss Voigt Hill
#
# Bulk Modulus (GPa) = 18.00349 39.05461 28.52905
# Shear Modulus (GPa) = 19.27129 29.32820 24.29975
#
# Velocity S-wave (km/s) = 2.96587 3.65881 3.33041
# Velocity P-wave (km/s) = 4.46612 5.97291 5.27361
#
# Compressibility (1/GPa) = 0.05554480
#
# Stress axis : x y z
#
# Youngs Moduli (GPa) = 45.84884 22.74703 66.04316
#
# Poissons Ratio (x) = -0.14386 0.75691
# Poissons Ratio (y) = -0.28996 0.49850
# Poissons Ratio (z) = 0.52547 0.17170
#
# Static dielectric constant tensor:
#      x y z
#    x 1.793690 0.000000 0.013520 
#    y 0.000000 1.825820 0.000000 
#    z 0.013520 0.000000 1.812610 
# 
# From -- ./inp_files/273262.got.cif
#   From: 2010.05.17/outbox.cif.g08.bks.cpg/sg15_137_cif.got.tgz:273262.got - 2010.06.03 18:47:42.
