data_PCOD9296797
_publ_section_title
;
Structure prediction by ZEFSAII (Michael W. Deem and Ramdas Pophale) SiO2 
 PCOD9296797
Probable space group: C 2/C
;
_chemical_formula_sum "Si O2"
_cell_formula_units_Z 56
_cell_length_a 17.588380
_cell_length_b 4.873711
_cell_length_c 25.213261
_cell_angle_alpha 90.000000
_cell_angle_beta 76.014659
_cell_angle_gamma 90.000000
_cell_volume 2097.231826
_symmetry_space_group_name_H-M "C 2/C"
_symmetry_group_IT_number 15
_symmetry_cell_setting 'monoclinic'
loop_
_space_group_symop_operation_xyz
x,y,z
-x,y,1/2-z
-x,-y,-z
x,-y,1/2+z
1/2+x,1/2+y,z
1/2-x,1/2+y,1/2-z
1/2-x,1/2-y,-z
1/2+x,1/2-y,1/2+z
loop_
_atom_site_type_symbol
_atom_site_label
_atom_site_fract_x
_atom_site_fract_y
_atom_site_fract_z
Si Si1 0.671743 0.447577 0.466902
Si Si2 0.253935 0.540159 0.213564
Si Si3 0.006834 0.670571 0.597617
Si Si4 0.076963 0.189962 0.841265
Si Si5 0.771285 0.063802 0.928219
Si Si6 0.000000 0.000000 0.000000
Si Si7 0.625929 0.787537 0.163821
Si Si8 0.500000 0.437565 0.250000
O O1 0.737292 0.635156 0.427821
O O2 0.676180 0.541575 0.527657
O O3 0.587040 0.523626 0.460840
O O4 0.698995 0.138524 0.454002
O O5 0.261057 0.851473 0.231670
O O6 0.335390 0.426026 0.175975
O O7 0.180383 0.486067 0.188554
O O8 0.938719 0.451496 0.619424
O O9 0.029336 0.738771 0.533835
O O10 0.079655 0.574075 0.622204
O O11 0.981098 0.956412 0.627631
O O12 0.044821 0.239678 0.787010
O O13 0.818591 0.940941 0.871954
O O14 0.564755 0.633959 0.212380
#
# Coordination Sequence:
#
# PCOD9296797 Si02
#       8
#     8   8   8   8   8   4   8   4
#     4  10  24  43  72  96 146 174 239 284 355 412
#     4  12  27  45  70 102 139 185 236 297 345 421
#     4  11  28  45  74 101 145 188 238 295 359 434
#     4  11  26  48  69 106 137 194 237 297 361 423
#     4  10  23  46  67 103 132 193 224 291 349 428
#     4  12  26  50  70 114 140 190 236 308 354 438
#     4  11  25  48  72 106 142 193 239 291 362 430
#     4  10  24  48  74 102 148 190 240 302 354 442
#
# _framework density 26.701862999999999
#
# number of rings (size 3 to 8) (size 9 to 14) (size 15 to 20)
#    0.000    1.143    2.857    0.857    8.000    6.286 
#    0.000    0.000    0.000    0.000    0.000    0.000 
#    0.000    0.000    0.000    0.000    0.000    0.000 
#
# Total GULP energy -156722.786657 kJ/mol
# GULP energy per Si atom -5597.242381 kJ/mol
# Density = 2.664109 g / cm^3
# Si number density = 26.701863 Si / 1000 Ang^3
#
#
#
# Elastic Constant Matrix: (Units=GPa)
#
#
# Indices 1 2 3 4 5 6 
#
# 1 104.1717 -19.2055 46.3484 -0.0004 22.2558 -0.0009
# 2 -19.2055 74.0367 29.3768 -0.0005 11.3764 -0.0009
# 3 46.3484 29.3768 99.4731 0.0001 -1.8806 -0.0010
# 4 -0.0004 -0.0005 0.0001 49.2454 -0.0005 1.0592
# 5 22.2558 11.3764 -1.8806 -0.0005 43.5135 -0.0013
# 6 -0.0009 -0.0009 -0.0010 1.0592 -0.0013 5.8232
#
#
#
# Elastic Compliance Matrix: (Units=1/GPa)
#
#
# Indices 1 2 3 4 5 6 
#
# 1 0.021994 0.013901 -0.014647 0.000000 -0.015517 -0.000001
# 2 0.013901 0.024893 -0.014098 0.000000 -0.014227 0.000000
# 3 -0.014647 -0.014098 0.021269 0.000000 0.012096 0.000002
# 4 0.000000 0.000000 0.000000 0.020386 0.000000 -0.003708
# 5 -0.015517 -0.014227 0.012096 0.000000 0.035160 0.000005
# 6 -0.000001 0.000000 0.000002 -0.003708 0.000005 0.172400
#
#
# Mechanical properties :
#
#
# Convention : Reuss Voigt Hill
#
# Bulk Modulus (GPa) = 25.99390 43.41343 34.70366
# Shear Modulus (GPa) = 14.76614 34.46056 24.61335
#
# Velocity S-wave (km/s) = 2.35415 3.59634 3.03938
# Velocity P-wave (km/s) = 4.14069 5.79127 5.03409
#
# Compressibility (1/GPa) = 0.03847056
#
# Stress axis : x y z
#
# Youngs Moduli (GPa) = 45.46650 40.17222 47.01569
#
# Poissons Ratio (x) = -0.55845 0.68863
# Poissons Ratio (y) = -0.63205 0.66281
# Poissons Ratio (z) = 0.66594 0.56633
#
# Static dielectric constant tensor:
#      x y z
#    x 2.135410 0.000000 0.083120 
#    y 0.000000 2.007660 0.000000 
#    z 0.083120 0.000000 2.305130 
# 
# From -- ./inp_files/297743.got.cif
#   From: 2010.05.17/outbox.cif.g08.bks.cpg/sg15_149_cif.got.tgz:297743.got - 2010.06.03 18:47:42.
