data_PCOD9296641
_publ_section_title
;
Structure prediction by ZEFSAII (Michael W. Deem and Ramdas Pophale) SiO2 
 PCOD9296641
Probable space group: C 2/C
;
_chemical_formula_sum "Si O2"
_cell_formula_units_Z 56
_cell_length_a 13.852601
_cell_length_b 12.105916
_cell_length_c 14.626444
_cell_angle_alpha 90.000000
_cell_angle_beta 111.266490
_cell_angle_gamma 90.000000
_cell_volume 2285.802408
_symmetry_space_group_name_H-M "C 2/C"
_symmetry_group_IT_number 15
_symmetry_cell_setting 'monoclinic'
loop_
_space_group_symop_operation_xyz
x,y,z
-x,y,1/2-z
-x,-y,-z
x,-y,1/2+z
1/2+x,1/2+y,z
1/2-x,1/2+y,1/2-z
1/2-x,1/2-y,-z
1/2+x,1/2-y,1/2+z
loop_
_atom_site_type_symbol
_atom_site_label
_atom_site_fract_x
_atom_site_fract_y
_atom_site_fract_z
Si Si1 0.270514 0.408641 0.630969
Si Si2 0.024582 0.670275 0.632465
Si Si3 0.838342 0.967866 0.458049
Si Si4 0.616489 0.786785 0.705910
Si Si5 0.000000 0.520255 0.250000
Si Si6 0.740922 0.895840 0.235578
Si Si7 0.035365 0.181668 0.972457
Si Si8 0.000000 0.139542 0.250000
O O1 0.280992 0.415301 0.525848
O O2 0.194798 0.314854 0.647021
O O3 0.215037 0.517901 0.648355
O O4 0.387702 0.419405 0.717053
O O5 0.974717 0.558192 0.653812
O O6 0.135373 0.666191 0.720212
O O7 0.043800 0.707197 0.536132
O O8 0.974834 0.779003 0.658031
O O9 0.781329 0.953035 0.341743
O O10 0.942557 0.896415 0.478053
O O11 0.869191 0.095778 0.490653
O O12 0.591146 0.897668 0.750902
O O13 0.679168 0.691839 0.777388
O O14 0.509905 0.730041 0.636879
#
# Coordination Sequence:
#
# PCOD9296641 Si02
#       8
#     8   8   8   8   4   8   8   4
#     4  12  24  44  71 107 139 191 236 301 354 427
#     4  11  22  45  68  98 138 191 232 288 357 422
#     4  10  24  44  72 109 143 179 242 302 352 421
#     4  11  26  45  67 101 147 185 242 294 362 425
#     4  11  26  43  66  98 142 191 228 293 356 430
#     4  11  25  44  70 105 144 186 241 299 351 427
#     4  10  23  45  71 103 140 187 238 297 359 428
#     4  11  22  37  74  98 134 179 244 281 350 418
#
# _framework density 24.499054999999998
#
# number of rings (size 3 to 8) (size 9 to 14) (size 15 to 20)
#    0.000    1.143    4.286    0.857    6.000    5.143 
#    2.571    0.714    0.000    0.000    0.000    0.000 
#    0.000    0.000    0.000    0.000    0.000    0.000 
#
# Total GULP energy -156177.223839 kJ/mol
# GULP energy per Si atom -5577.757994 kJ/mol
# Density = 2.444329 g / cm^3
# Si number density = 24.499055 Si / 1000 Ang^3
#
#
#
# Elastic Constant Matrix: (Units=GPa)
#
#
# Indices 1 2 3 4 5 6 
#
# 1 81.4628 12.8095 16.0656 0.0000 -2.0839 0.0000
# 2 12.8095 104.1986 20.1837 0.0000 3.7689 0.0000
# 3 16.0656 20.1837 43.2313 0.0000 5.0485 0.0000
# 4 0.0000 0.0000 0.0000 30.7378 0.0000 3.6140
# 5 -2.0839 3.7689 5.0485 0.0000 24.5848 0.0000
# 6 0.0000 0.0000 0.0000 3.6140 0.0000 25.1182
#
#
#
# Elastic Compliance Matrix: (Units=1/GPa)
#
#
# Indices 1 2 3 4 5 6 
#
# 1 0.013420 -0.000785 -0.004885 0.000000 0.002261 0.000000
# 2 -0.000785 0.010606 -0.004572 0.000000 -0.000754 0.000000
# 3 -0.004885 -0.004572 0.027712 0.000000 -0.005404 0.000000
# 4 0.000000 0.000000 0.000000 0.033093 0.000000 -0.004761
# 5 0.002261 -0.000754 -0.005404 0.000000 0.042093 0.000000
# 6 0.000000 0.000000 0.000000 -0.004761 0.000000 0.040497
#
#
# Mechanical properties :
#
#
# Convention : Reuss Voigt Hill
#
# Bulk Modulus (GPa) = 31.99498 36.33449 34.16473
# Shear Modulus (GPa) = 25.21130 28.07706 26.64418
#
# Velocity S-wave (km/s) = 3.21140 3.38900 3.30139
# Velocity P-wave (km/s) = 5.18062 5.49336 5.33928
#
# Compressibility (1/GPa) = 0.03125491
#
# Stress axis : x y z
#
# Youngs Moduli (GPa) = 74.51461 94.28187 36.08511
#
# Poissons Ratio (x) = 0.07405 0.17626
# Poissons Ratio (y) = 0.05852 0.16498
# Poissons Ratio (z) = 0.36397 0.43106
#
# Static dielectric constant tensor:
#      x y z
#    x 2.013940 0.000000 -0.062520 
#    y 0.000000 1.950730 0.000000 
#    z -0.062520 0.000000 2.031620 
# 
# From -- ./inp_files/204559.got.cif
#   From: 2010.05.17/outbox.cif.g08.bks.cpg/sg15_103_cif.got.tgz:204559.got - 2010.06.03 18:47:42.
