data_PCOD9296824
_publ_section_title
;
Structure prediction by ZEFSAII (Michael W. Deem and Ramdas Pophale) SiO2 
 PCOD9296824
Probable space group: C 2/C
;
_chemical_formula_sum "Si O2"
_cell_formula_units_Z 36
_cell_length_a 11.911208
_cell_length_b 17.749200
_cell_length_c 7.808670
_cell_angle_alpha 90.000000
_cell_angle_beta 104.240434
_cell_angle_gamma 90.000000
_cell_volume 1600.137582
_symmetry_space_group_name_H-M "C 2/C"
_symmetry_group_IT_number 15
_symmetry_cell_setting 'monoclinic'
loop_
_space_group_symop_operation_xyz
x,y,z
-x,y,1/2-z
-x,-y,-z
x,-y,1/2+z
1/2+x,1/2+y,z
1/2-x,1/2+y,1/2-z
1/2-x,1/2-y,-z
1/2+x,1/2-y,1/2+z
loop_
_atom_site_type_symbol
_atom_site_label
_atom_site_fract_x
_atom_site_fract_y
_atom_site_fract_z
Si Si1 0.258825 0.751514 0.294194
Si Si2 0.635413 0.402160 0.279826
Si Si3 0.736911 0.982562 0.887096
Si Si4 0.500000 0.192954 0.750000
Si Si5 0.128288 0.390971 0.582983
O O1 0.250000 0.750000 0.500000
O O2 0.191697 0.828324 0.218432
O O3 0.388116 0.759461 0.266299
O O4 0.196306 0.681472 0.180513
O O5 0.500000 0.391072 0.250000
O O6 0.702202 0.417513 0.481988
O O7 0.664758 0.479321 0.192675
O O8 0.628231 0.946102 0.747425
O O9 0.694443 0.053223 0.979751
O O10 0.474288 0.141588 0.572246
#
# Coordination Sequence:
#
# PCOD9296824 Si02
#       5
#     8   8   8   4   8
#     4  12  27  48  72 109 142 192 250 298 366 440
#     4  11  23  43  72 105 141 191 241 304 365 427
#     4  10  23  46  68 107 149 185 244 306 362 441
#     4  12  28  48  76 104 150 196 240 314 360 440
#     4  11  25  47  72 105 147 190 250 298 372 433
#
# _framework density 22.498066000000001
#
# number of rings (size 3 to 8) (size 9 to 14) (size 15 to 20)
#    0.000    0.889    4.444    1.333    3.111    0.889 
#    8.000    0.000    0.000    0.000    0.000    0.000 
#    0.000    0.000    0.000    0.000    0.000    0.000 
#
# Total GULP energy -100436.651320 kJ/mol
# GULP energy per Si atom -5579.813962 kJ/mol
# Density = 2.244686 g / cm^3
# Si number density = 22.498066 Si / 1000 Ang^3
#
#
#
# Elastic Constant Matrix: (Units=GPa)
#
#
# Indices 1 2 3 4 5 6 
#
# 1 100.7278 37.9717 19.0155 0.0000 6.9804 0.0000
# 2 37.9717 155.5997 53.2402 0.0000 3.8547 0.0000
# 3 19.0155 53.2402 121.7102 0.0000 2.9819 0.0000
# 4 0.0000 0.0000 0.0000 66.1505 0.0000 -16.5029
# 5 6.9804 3.8547 2.9819 0.0000 18.9750 0.0000
# 6 0.0000 0.0000 0.0000 -16.5029 0.0000 5.8907
#
#
#
# Elastic Compliance Matrix: (Units=1/GPa)
#
#
# Indices 1 2 3 4 5 6 
#
# 1 0.011206 -0.002443 -0.000595 0.000000 -0.003532 0.000000
# 2 -0.002443 0.008110 -0.003160 0.000000 -0.000252 0.000000
# 3 -0.000595 -0.003160 0.009708 0.000000 -0.000665 0.000000
# 4 0.000000 0.000000 0.000000 0.050208 0.000000 0.140658
# 5 -0.003532 -0.000252 -0.000665 0.000000 0.054156 0.000000
# 6 0.000000 0.000000 0.000000 0.140658 0.000000 0.563813
#
#
# Mechanical properties :
#
#
# Convention : Reuss Voigt Hill
#
# Bulk Modulus (GPa) = 60.14350 66.49916 63.32133
# Shear Modulus (GPa) = 6.99163 36.05726 21.52444
#
# Velocity S-wave (km/s) = 1.76477 4.00769 3.09645
# Velocity P-wave (km/s) = 5.56267 7.14404 6.40237
#
# Compressibility (1/GPa) = 0.01662690
#
# Stress axis : x y z
#
# Youngs Moduli (GPa) = 89.23753 123.29754 103.01018
#
# Poissons Ratio (x) = 0.30127 0.06133
# Poissons Ratio (y) = 0.21805 0.32550
# Poissons Ratio (z) = 0.05313 0.38960
#
# Static dielectric constant tensor:
#      x y z
#    x 1.855690 0.000000 -0.079020 
#    y 0.000000 1.807380 0.000000 
#    z -0.079020 0.000000 1.946850 
# 
# From -- ./inp_files/30565.got.cif
#   From: 2010.05.17/outbox.cif.g08.bks.cpg/sg15_16_cif.got.tgz:30565.got - 2010.06.03 18:47:42.
