data_PCOD9296218
_publ_section_title
;
Structure prediction by ZEFSAII (Michael W. Deem and Ramdas Pophale) SiO2 
 PCOD9296218
Probable space group: C 2/C
;
_chemical_formula_sum "Si O2"
_cell_formula_units_Z 48
_cell_length_a 17.901294
_cell_length_b 7.322893
_cell_length_c 27.262720
_cell_angle_alpha 90.000000
_cell_angle_beta 148.443328
_cell_angle_gamma 90.000000
_cell_volume 1870.344512
_symmetry_space_group_name_H-M "C 2/C"
_symmetry_group_IT_number 15
_symmetry_cell_setting 'monoclinic'
loop_
_space_group_symop_operation_xyz
x,y,z
-x,y,1/2-z
-x,-y,-z
x,-y,1/2+z
1/2+x,1/2+y,z
1/2-x,1/2+y,1/2-z
1/2-x,1/2-y,-z
1/2+x,1/2-y,1/2+z
loop_
_atom_site_type_symbol
_atom_site_label
_atom_site_fract_x
_atom_site_fract_y
_atom_site_fract_z
Si Si1 0.250000 0.250000 0.500000
Si Si2 0.451061 0.230179 0.055563
Si Si3 0.797560 0.020786 0.597906
Si Si4 0.715484 0.150551 0.151259
Si Si5 0.292731 0.564780 0.377109
Si Si6 0.500000 0.195222 0.250000
Si Si7 0.448776 0.614410 0.363492
O O1 0.164254 0.170424 0.404193
O O2 0.395993 0.293419 0.548700
O O3 0.368948 0.337213 0.965575
O O4 0.327691 0.099299 0.007771
O O5 0.575516 0.102450 0.104331
O O6 0.521374 0.395506 0.124033
O O7 0.746984 0.986662 0.624917
O O8 0.919245 0.169534 0.667962
O O9 0.679909 0.349175 0.109457
O O10 0.847177 0.169750 0.261901
O O11 0.358219 0.640002 0.363038
O O12 0.123518 0.588820 0.290724
#
# Coordination Sequence:
#
# PCOD9296218 Si02
#       7
#     4   8   8   8   8   4   8
#     4  12  26  44  68  98 134 176 228 276 330 404
#     4  10  23  44  69  97 136 178 226 281 340 401
#     4  11  24  43  69  99 136 180 225 280 338 400
#     4  11  23  43  71 101 136 178 228 283 339 402
#     4  10  23  46  72  98 135 181 225 281 342 403
#     4  10  24  44  72 102 136 178 226 280 342 400
#     4  11  25  42  66 101 137 177 228 279 337 406
#
# _framework density 25.663722
#
# number of rings (size 3 to 8) (size 9 to 14) (size 15 to 20)
#    0.000    1.333    0.000    5.500    0.000   17.333 
#    0.000    1.667    0.000    0.000    0.000    0.000 
#    0.000    0.000    0.000    0.000    0.000    0.000 
#
# Total GULP energy -133897.823973 kJ/mol
# GULP energy per Si atom -5579.075999 kJ/mol
# Density = 2.560531 g / cm^3
# Si number density = 25.663722 Si / 1000 Ang^3
#
#
#
# Elastic Constant Matrix: (Units=GPa)
#
#
# Indices 1 2 3 4 5 6 
#
# 1 112.4351 10.2673 29.4310 0.0000 32.9692 0.0001
# 2 10.2673 29.9550 -5.6248 0.0000 -0.6010 -0.0006
# 3 29.4310 -5.6248 86.8012 0.0000 35.6277 0.0001
# 4 0.0000 0.0000 0.0000 38.4600 0.0000 -0.8363
# 5 32.9692 -0.6010 35.6277 0.0000 54.4832 0.0000
# 6 0.0001 -0.0006 0.0001 -0.8363 0.0000 -16.4919
#
#
#
# Elastic Compliance Matrix: (Units=1/GPa)
#
#
# Indices 1 2 3 4 5 6 
#
# 1 0.011468 -0.004382 -0.001783 0.000000 -0.005822 0.000000
# 2 -0.004382 0.035553 0.003472 0.000000 0.000773 -0.000001
# 3 -0.001783 0.003472 0.016254 0.000000 -0.009512 0.000000
# 4 0.000000 0.000000 0.000000 0.025972 0.000000 -0.001317
# 5 -0.005822 0.000773 -0.009512 0.000000 0.028106 0.000000
# 6 0.000000 -0.000001 0.000000 -0.001317 0.000000 -0.060569
#
#
# Mechanical properties :
#
#
# Convention : Reuss Voigt Hill
#
# Bulk Modulus (GPa) = 17.27414 33.03757 25.15586
# Shear Modulus (GPa) = 61.37479 28.29811 44.83645
#
# Velocity S-wave (km/s) = 4.89560 3.32422 4.18434
# Velocity P-wave (km/s) = 6.22105 5.25691 5.75919
#
# Compressibility (1/GPa) = 0.05789001
#
# Stress axis : x y z
#
# Youngs Moduli (GPa) = 87.19859 28.12700 61.52260
#
# Poissons Ratio (x) = 0.12326 0.10967
# Poissons Ratio (y) = 0.38213 -0.21362
# Poissons Ratio (z) = 0.15544 -0.09766
#
# Static dielectric constant tensor:
#      x y z
#    x 2.150030 0.000000 0.041550 
#    y 0.000000 2.237040 0.000000 
#    z 0.041550 0.000000 2.093680 
# 
# From -- ./inp_files/315801.got.cif
#   From: 2010.05.17/outbox.cif.g08.bks.cpg/sg15_158_cif.got.tgz:315801.got - 2010.06.03 18:47:42.
