data_PCOD9296516
_publ_section_title
;
Structure prediction by ZEFSAII (Michael W. Deem and Ramdas Pophale) SiO2 
 PCOD9296516
Probable space group: C 2/C
;
_chemical_formula_sum "Si O2"
_cell_formula_units_Z 40
_cell_length_a 22.648548
_cell_length_b 6.253254
_cell_length_c 21.509329
_cell_angle_alpha 90.000000
_cell_angle_beta 143.722884
_cell_angle_gamma 90.000000
_cell_volume 1802.471632
_symmetry_space_group_name_H-M "C 2/C"
_symmetry_group_IT_number 15
_symmetry_cell_setting 'monoclinic'
loop_
_space_group_symop_operation_xyz
x,y,z
-x,y,1/2-z
-x,-y,-z
x,-y,1/2+z
1/2+x,1/2+y,z
1/2-x,1/2+y,1/2-z
1/2-x,1/2-y,-z
1/2+x,1/2-y,1/2+z
loop_
_atom_site_type_symbol
_atom_site_label
_atom_site_fract_x
_atom_site_fract_y
_atom_site_fract_z
Si Si1 0.240482 0.605668 0.081578
Si Si2 0.119044 0.441909 0.360024
Si Si3 0.490460 0.198358 0.444309
Si Si4 0.158155 0.034902 0.600607
Si Si5 0.837198 0.706247 0.220287
O O1 0.330010 0.719914 0.119612
O O2 0.178509 0.785566 0.066254
O O3 0.292063 0.442047 0.173398
O O4 0.163103 0.512151 0.965652
O O5 0.163250 0.614524 0.349684
O O6 0.000000 0.432355 0.250000
O O7 0.590840 0.333583 0.523937
O O8 0.404405 0.354473 0.398542
O O9 0.446771 0.158644 0.339369
O O10 0.500000 0.000000 0.500000
O O11 0.265791 0.934310 0.704230
#
# Coordination Sequence:
#
# PCOD9296516 Si02
#       5
#     8   8   8   8   8
#     4  10  23  45  66  98 137 172 229 275 339 405
#     4  10  24  41  68  99 133 175 225 280 337 394
#     4  11  26  43  68 100 135 176 226 273 338 407
#     4  10  25  41  68  97 134 176 217 275 331 397
#     4  11  25  42  71  96 133 177 220 281 338 398
#
# _framework density 22.191748
#
# number of rings (size 3 to 8) (size 9 to 14) (size 15 to 20)
#    0.000    1.600    0.000    1.800   14.000    4.000 
#    0.000    0.000    0.000    0.000    0.000    0.000 
#    0.000    0.000    0.000    0.000    0.000    0.000 
#
# Total GULP energy -111645.952411 kJ/mol
# GULP energy per Si atom -5582.297621 kJ/mol
# Density = 2.214124 g / cm^3
# Si number density = 22.191748 Si / 1000 Ang^3
#
#
#
# Elastic Constant Matrix: (Units=GPa)
#
#
# Indices 1 2 3 4 5 6 
#
# 1 47.0620 10.6785 10.1812 0.0001 19.0082 0.0001
# 2 10.6785 88.3104 40.7812 0.0002 -5.1057 0.0006
# 3 10.1812 40.7812 110.4114 -0.0001 0.0538 -0.0001
# 4 0.0001 0.0002 -0.0001 27.5176 0.0000 5.4555
# 5 19.0082 -5.1057 0.0538 0.0000 42.1070 0.0000
# 6 0.0001 0.0006 -0.0001 5.4555 0.0000 35.3131
#
#
#
# Elastic Compliance Matrix: (Units=1/GPa)
#
#
# Indices 1 2 3 4 5 6 
#
# 1 0.027493 -0.003495 -0.001238 0.000000 -0.012833 0.000000
# 2 -0.003495 0.014214 -0.004929 0.000000 0.003307 0.000000
# 3 -0.001238 -0.004929 0.010992 0.000000 -0.000053 0.000000
# 4 0.000000 0.000000 0.000000 0.037489 0.000000 -0.005792
# 5 -0.012833 0.003307 -0.000053 0.000000 0.029943 0.000000
# 6 0.000000 0.000000 0.000000 -0.005792 0.000000 0.029213
#
#
# Mechanical properties :
#
#
# Convention : Reuss Voigt Hill
#
# Bulk Modulus (GPa) = 29.96327 41.00726 35.48527
# Shear Modulus (GPa) = 27.80995 33.26373 30.53684
#
# Velocity S-wave (km/s) = 3.54385 3.87579 3.71353
# Velocity P-wave (km/s) = 5.50240 6.20868 5.86618
#
# Compressibility (1/GPa) = 0.03337419
#
# Stress axis : x y z
#
# Youngs Moduli (GPa) = 36.37351 70.35406 90.97595
#
# Poissons Ratio (x) = 0.24586 0.11264
# Poissons Ratio (y) = 0.12711 0.44845
# Poissons Ratio (z) = 0.04503 0.34680
#
# Static dielectric constant tensor:
#      x y z
#    x 1.825790 0.000000 -0.028370 
#    y 0.000000 1.848680 0.000000 
#    z -0.028370 0.000000 1.822100 
# 
# From -- ./inp_files/120711.got.cif
#   From: 2010.05.17/outbox.cif.g08.bks.cpg/sg15_61_cif.got.tgz:120711.got - 2010.06.03 18:47:42.
