data_PCOD9296433
_publ_section_title
;
Structure prediction by ZEFSAII (Michael W. Deem and Ramdas Pophale) SiO2 
 PCOD9296433
Probable space group: C 2/C
;
_chemical_formula_sum "Si O2"
_cell_formula_units_Z 48
_cell_length_a 10.335382
_cell_length_b 25.153961
_cell_length_c 13.440379
_cell_angle_alpha 90.000000
_cell_angle_beta 146.655098
_cell_angle_gamma 90.000000
_cell_volume 1920.668967
_symmetry_space_group_name_H-M "C 2/C"
_symmetry_group_IT_number 15
_symmetry_cell_setting 'monoclinic'
loop_
_space_group_symop_operation_xyz
x,y,z
-x,y,1/2-z
-x,-y,-z
x,-y,1/2+z
1/2+x,1/2+y,z
1/2-x,1/2+y,1/2-z
1/2-x,1/2-y,-z
1/2+x,1/2-y,1/2+z
loop_
_atom_site_type_symbol
_atom_site_label
_atom_site_fract_x
_atom_site_fract_y
_atom_site_fract_z
Si Si1 0.000000 0.611822 0.750000
Si Si2 0.413914 0.200010 0.837305
Si Si3 0.429842 0.689534 0.411703
Si Si4 0.500000 0.840037 0.750000
Si Si5 0.728836 0.522170 0.816998
Si Si6 0.768940 0.363993 0.408641
Si Si7 0.487355 0.423406 0.620961
O O1 0.939474 0.655196 0.624889
O O2 0.771931 0.575233 0.594094
O O3 0.468605 0.261644 0.861576
O O4 0.412054 0.183788 0.950805
O O5 0.154899 0.189581 0.627735
O O6 0.199270 0.696528 0.329734
O O7 0.405228 0.631574 0.348418
O O8 0.378753 0.875347 0.586533
O O9 0.500000 0.524998 0.750000
O O10 0.773494 0.585274 0.837644
O O11 0.623793 0.476762 0.678633
O O12 0.000000 0.500000 0.000000
O O13 0.500000 0.348142 0.250000
O O14 0.500000 0.420688 0.750000
#
# Coordination Sequence:
#
# PCOD9296433 Si02
#       7
#     4   8   8   4   8   8   8
#     4  10  26  44  71 110 144 187 248 304 364 454
#     4  11  25  43  68 105 146 185 244 302 364 438
#     4  11  25  40  68 106 138 194 240 298 365 444
#     4  12  24  42  71  98 142 187 242 298 370 434
#     4  10  23  44  75 104 141 197 243 304 375 432
#     4  11  24  45  70 100 143 187 242 303 365 438
#     4  10  24  46  73 103 144 192 243 304 371 434
#
# _framework density 24.991292000000001
#
# number of rings (size 3 to 8) (size 9 to 14) (size 15 to 20)
#    0.000    1.333    1.667    2.000   11.667    2.667 
#    0.000   10.833    0.000    0.000    0.000    0.000 
#    0.000    0.000    0.000    0.000    0.000    0.000 
#
# Total GULP energy -133852.036870 kJ/mol
# GULP energy per Si atom -5577.168203 kJ/mol
# Density = 2.493441 g / cm^3
# Si number density = 24.991292 Si / 1000 Ang^3
#
#
#
# Elastic Constant Matrix: (Units=GPa)
#
#
# Indices 1 2 3 4 5 6 
#
# 1 53.9201 8.4701 27.6478 0.0000 3.4346 0.0000
# 2 8.4701 143.2814 31.3412 0.0000 -4.8719 0.0000
# 3 27.6478 31.3412 126.1136 0.0000 4.9594 0.0000
# 4 0.0000 0.0000 0.0000 24.7402 0.0000 7.0456
# 5 3.4346 -4.8719 4.9594 0.0000 47.6877 0.0000
# 6 0.0000 0.0000 0.0000 7.0456 0.0000 15.4702
#
#
#
# Elastic Compliance Matrix: (Units=1/GPa)
#
#
# Indices 1 2 3 4 5 6 
#
# 1 0.020957 -0.000296 -0.004479 0.000000 -0.001074 0.000000
# 2 -0.000296 0.007428 -0.001819 0.000000 0.000969 0.000000
# 3 -0.004479 -0.001819 0.009396 0.000000 -0.000840 0.000000
# 4 0.000000 0.000000 0.000000 0.046444 0.000000 -0.021152
# 5 -0.001074 0.000969 -0.000840 0.000000 0.021234 0.000000
# 6 0.000000 0.000000 0.000000 -0.021152 0.000000 0.074274
#
#
# Mechanical properties :
#
#
# Convention : Reuss Voigt Hill
#
# Bulk Modulus (GPa) = 40.66027 50.91483 45.78755
# Shear Modulus (GPa) = 24.86106 34.63667 29.74887
#
# Velocity S-wave (km/s) = 3.15745 3.72687 3.45392
# Velocity P-wave (km/s) = 5.44038 6.23993 5.85382
#
# Compressibility (1/GPa) = 0.02459404
#
# Stress axis : x y z
#
# Youngs Moduli (GPa) = 47.71602 134.63232 106.42397
#
# Poissons Ratio (x) = 0.03982 0.47665
# Poissons Ratio (y) = 0.01411 0.19360
# Poissons Ratio (z) = 0.21371 0.24492
#
# Static dielectric constant tensor:
#      x y z
#    x 2.100700 0.000000 -0.016060 
#    y 0.000000 1.963440 0.000000 
#    z -0.016060 0.000000 1.963150 
# 
# From -- ./inp_files/148879.got.cif
#   From: 2010.05.17/outbox.cif.g08.bks.cpg/sg15_75_cif.got.tgz:148879.got - 2010.06.03 18:47:42.
