data_PCOD9296741
_publ_section_title
;
Structure prediction by ZEFSAII (Michael W. Deem and Ramdas Pophale) SiO2 
 PCOD9296741
Probable space group: C 2/C
;
_chemical_formula_sum "Si O2"
_cell_formula_units_Z 44
_cell_length_a 8.920006
_cell_length_b 27.952284
_cell_length_c 7.311325
_cell_angle_alpha 90.000000
_cell_angle_beta 106.874825
_cell_angle_gamma 90.000000
_cell_volume 1744.471181
_symmetry_space_group_name_H-M "C 2/C"
_symmetry_group_IT_number 15
_symmetry_cell_setting 'monoclinic'
loop_
_space_group_symop_operation_xyz
x,y,z
-x,y,1/2-z
-x,-y,-z
x,-y,1/2+z
1/2+x,1/2+y,z
1/2-x,1/2+y,1/2-z
1/2-x,1/2-y,-z
1/2+x,1/2-y,1/2+z
loop_
_atom_site_type_symbol
_atom_site_label
_atom_site_fract_x
_atom_site_fract_y
_atom_site_fract_z
Si Si1 0.097967 0.046573 0.458475
Si Si2 0.825755 0.288854 0.260475
Si Si3 0.537509 0.944844 0.473264
Si Si4 0.308071 0.135518 0.056093
Si Si5 0.500000 0.606558 0.750000
Si Si6 0.813983 0.182164 0.157153
O O1 0.274205 0.050027 0.446292
O O2 0.101449 0.076604 0.643868
O O3 0.000000 0.064087 0.250000
O O4 0.000000 0.000000 0.500000
O O5 0.847394 0.316509 0.457172
O O6 0.768811 0.234191 0.227086
O O7 0.000000 0.285864 0.250000
O O8 0.725336 0.317314 0.072216
O O9 0.500000 0.932211 0.250000
O O10 0.420471 0.908946 0.543300
O O11 0.500000 0.000000 0.500000
O O12 0.129213 0.130058 0.923489
O O13 0.708225 0.145597 0.234554
O O14 0.000000 0.175581 0.250000
#
# Coordination Sequence:
#
# PCOD9296741 Si02
#       6
#     8   8   8   8   4   8
#     4  12  25  49  77 104 148 200 263 329 400 471
#     4  10  23  45  75 113 159 197 257 322 387 479
#     4  12  26  52  76 111 154 204 269 337 398 470
#     4  12  25  47  76 113 157 201 266 325 398 465
#     4  12  26  44  70 114 146 200 256 330 388 470
#     4  10  23  47  78 113 153 210 253 313 401 482
#
# _framework density 25.222546000000001
#
# number of rings (size 3 to 8) (size 9 to 14) (size 15 to 20)
#    0.000    0.727    2.727    4.364    0.000    2.909 
#    9.818    5.455    0.000    0.000    0.000    0.000 
#    0.000    0.000    0.000    0.000    0.000    0.000 
#
# Total GULP energy -122935.675098 kJ/mol
# GULP energy per Si atom -5587.985232 kJ/mol
# Density = 2.516514 g / cm^3
# Si number density = 25.222546 Si / 1000 Ang^3
#
#
#
# Elastic Constant Matrix: (Units=GPa)
#
#
# Indices 1 2 3 4 5 6 
#
# 1 166.1691 73.0702 47.9704 0.0000 10.3447 0.0000
# 2 73.0702 113.3680 13.8945 0.0000 -16.5971 0.0000
# 3 47.9704 13.8945 102.5985 0.0000 10.9659 0.0000
# 4 0.0000 0.0000 0.0000 39.3797 0.0000 -7.3540
# 5 10.3447 -16.5971 10.9659 0.0000 60.2004 0.0000
# 6 0.0000 0.0000 0.0000 -7.3540 0.0000 22.6749
#
#
#
# Elastic Compliance Matrix: (Units=1/GPa)
#
#
# Indices 1 2 3 4 5 6 
#
# 1 0.010059 -0.006472 -0.003520 0.000000 -0.002872 0.000000
# 2 -0.006472 0.013603 0.000677 0.000000 0.004739 0.000000
# 3 -0.003520 0.000677 0.011439 0.000000 -0.001292 0.000000
# 4 0.000000 0.000000 0.000000 0.027031 0.000000 0.008767
# 5 -0.002872 0.004739 -0.001292 0.000000 0.018647 0.000000
# 6 0.000000 0.000000 0.000000 0.008767 0.000000 0.046945
#
#
# Mechanical properties :
#
#
# Convention : Reuss Voigt Hill
#
# Bulk Modulus (GPa) = 60.70999 72.44507 66.57753
# Shear Modulus (GPa) = 32.92867 40.93105 36.92986
#
# Velocity S-wave (km/s) = 3.61713 4.03276 3.83059
# Velocity P-wave (km/s) = 6.44723 7.10415 6.78365
#
# Compressibility (1/GPa) = 0.01647175
#
# Stress axis : x y z
#
# Youngs Moduli (GPa) = 99.41360 73.51101 87.42248
#
# Poissons Ratio (x) = 0.47580 0.30770
# Poissons Ratio (y) = 0.64345 -0.05922
# Poissons Ratio (z) = 0.34990 -0.04980
#
# Static dielectric constant tensor:
#      x y z
#    x 2.036300 0.000000 0.102940 
#    y 0.000000 2.199620 0.000000 
#    z 0.102940 0.000000 1.889060 
# 
# From -- ./inp_files/26259.got.cif
#   From: 2010.05.17/outbox.cif.g08.bks.cpg/sg15_14_cif.got.tgz:26259.got - 2010.06.03 18:47:42.
