data_PCOD9296958
_publ_section_title
;
Structure prediction by ZEFSAII (Michael W. Deem and Ramdas Pophale) SiO2 
 PCOD9296958
Probable space group: C 2/C
;
_chemical_formula_sum "Si O2"
_cell_formula_units_Z 40
_cell_length_a 12.112228
_cell_length_b 14.455247
_cell_length_c 9.220541
_cell_angle_alpha 90.000000
_cell_angle_beta 73.587705
_cell_angle_gamma 90.000000
_cell_volume 1548.600122
_symmetry_space_group_name_H-M "C 2/C"
_symmetry_group_IT_number 15
_symmetry_cell_setting 'monoclinic'
loop_
_space_group_symop_operation_xyz
x,y,z
-x,y,1/2-z
-x,-y,-z
x,-y,1/2+z
1/2+x,1/2+y,z
1/2-x,1/2+y,1/2-z
1/2-x,1/2-y,-z
1/2+x,1/2-y,1/2+z
loop_
_atom_site_type_symbol
_atom_site_label
_atom_site_fract_x
_atom_site_fract_y
_atom_site_fract_z
Si Si1 0.775175 0.876295 0.299671
Si Si2 0.669049 0.700739 0.205915
Si Si3 0.000000 0.244308 0.750000
Si Si4 0.074599 0.319504 0.012608
Si Si5 0.500000 0.017672 0.750000
Si Si6 0.750010 0.045070 0.124366
O O1 0.684326 0.798635 0.284160
O O2 0.888280 0.818498 0.288756
O O3 0.746716 0.932846 0.455431
O O4 0.794407 0.945439 0.158924
O O5 0.791001 0.676317 0.082626
O O6 0.669081 0.619910 0.324949
O O7 0.578617 0.727538 0.113875
O O8 0.001084 0.300626 0.897858
O O9 0.032872 0.411900 0.107639
O O10 0.383029 0.960027 0.771005
#
# Coordination Sequence:
#
# PCOD9296958 Si02
#       6
#     8   8   4   8   4   8
#     4  11  26  48  71 111 147 200 251 312 376 455
#     4  10  23  48  74 100 158 199 248 306 390 437
#     4  10  26  47  79 104 146 204 266 293 385 452
#     4  10  23  46  75 104 146 199 251 315 362 460
#     4  12  26  47  77 122 148 196 262 307 391 446
#     4  12  27  44  75 110 157 197 248 320 370 454
#
# _framework density 25.829781000000001
#
# number of rings (size 3 to 8) (size 9 to 14) (size 15 to 20)
#    0.000    1.200    2.000    1.800    8.400   10.400 
#    0.000    0.000    0.000    0.000    0.000    0.000 
#    0.000    0.000    0.000    0.000    0.000    0.000 
#
# Total GULP energy -112082.219791 kJ/mol
# GULP energy per Si atom -5604.110990 kJ/mol
# Density = 2.577099 g / cm^3
# Si number density = 25.829781 Si / 1000 Ang^3
#
#
#
# Elastic Constant Matrix: (Units=GPa)
#
#
# Indices 1 2 3 4 5 6 
#
# 1 59.7796 26.1290 39.1788 0.0000 34.5224 0.0000
# 2 26.1290 161.2139 75.6178 0.0000 33.9410 0.0000
# 3 39.1788 75.6178 166.6100 0.0000 20.3477 0.0000
# 4 0.0000 0.0000 0.0000 179.4791 0.0000 174.8477
# 5 34.5224 33.9410 20.3477 0.0000 57.9512 0.0000
# 6 0.0000 0.0000 0.0000 174.8477 0.0000 283.8452
#
#
#
# Elastic Compliance Matrix: (Units=1/GPa)
#
#
# Indices 1 2 3 4 5 6 
#
# 1 0.029056 0.001228 -0.005421 0.000000 -0.016125 0.000000
# 2 0.001228 0.008681 -0.003676 0.000000 -0.004525 0.000000
# 3 -0.005421 -0.003676 0.008659 0.000000 0.002342 0.000000
# 4 0.000000 0.000000 0.000000 0.013933 0.000000 -0.008583
# 5 -0.016125 -0.004525 0.002342 0.000000 0.028690 0.000000
# 6 0.000000 0.000000 0.000000 -0.008583 0.000000 0.008810
#
#
# Mechanical properties :
#
#
# Convention : Reuss Voigt Hill
#
# Bulk Modulus (GPa) = 32.61692 74.38387 53.50039
# Shear Modulus (GPa) = 40.39243 120.70030 80.54637
#
# Velocity S-wave (km/s) = 3.95877 6.84329 5.59028
# Velocity P-wave (km/s) = 5.79231 9.55516 7.90101
#
# Compressibility (1/GPa) = 0.03065893
#
# Stress axis : x y z
#
# Youngs Moduli (GPa) = 34.41609 115.19626 115.48462
#
# Poissons Ratio (x) = -0.14148 0.62601
# Poissons Ratio (y) = -0.04227 0.42453
# Poissons Ratio (z) = 0.18656 0.42347
#
# Static dielectric constant tensor:
#      x y z
#    x 2.068890 0.000000 0.001870 
#    y 0.000000 2.015000 0.000000 
#    z 0.001870 0.000000 2.126300 
# 
# From -- ./inp_files/37991.got.cif
#   From: 2010.05.17/outbox.cif.g08.bks.cpg/sg15_19_cif.got.tgz:37991.got - 2010.06.03 18:47:42.
