data_PCOD9296267
_publ_section_title
;
Structure prediction by ZEFSAII (Michael W. Deem and Ramdas Pophale) SiO2 
 PCOD9296267
Probable space group: C 2/C
;
_chemical_formula_sum "Si O2"
_cell_formula_units_Z 56
_cell_length_a 7.117119
_cell_length_b 14.841207
_cell_length_c 22.849201
_cell_angle_alpha 90.000000
_cell_angle_beta 111.907532
_cell_angle_gamma 90.000000
_cell_volume 2239.199822
_symmetry_space_group_name_H-M "C 2/C"
_symmetry_group_IT_number 15
_symmetry_cell_setting 'monoclinic'
loop_
_space_group_symop_operation_xyz
x,y,z
-x,y,1/2-z
-x,-y,-z
x,-y,1/2+z
1/2+x,1/2+y,z
1/2-x,1/2+y,1/2-z
1/2-x,1/2-y,-z
1/2+x,1/2-y,1/2+z
loop_
_atom_site_type_symbol
_atom_site_label
_atom_site_fract_x
_atom_site_fract_y
_atom_site_fract_z
Si Si1 0.147723 0.648234 0.364639
Si Si2 0.433242 0.696510 0.108563
Si Si3 0.198485 0.874524 0.797222
Si Si4 0.620472 0.647020 0.604967
Si Si5 0.198169 0.617157 0.509872
Si Si6 0.221738 0.521709 0.788032
Si Si7 0.231171 0.587970 0.992784
O O1 0.327708 0.712428 0.362983
O O2 0.159738 0.633735 0.436162
O O3 0.190196 0.556615 0.333213
O O4 0.917616 0.672063 0.320437
O O5 0.363067 0.614028 0.142604
O O6 0.283824 0.774180 0.112785
O O7 0.382640 0.659305 0.038926
O O8 0.214880 0.966000 0.762107
O O9 0.000000 0.822968 0.750000
O O10 0.390998 0.668600 0.559055
O O11 0.636543 0.598552 0.669000
O O12 0.702458 0.577095 0.565843
O O13 0.990330 0.629451 0.521291
O O14 0.242136 0.510537 0.521601
O O15 0.000000 0.562090 0.750000
#
# Coordination Sequence:
#
# PCOD9296267 Si02
#       7
#     8   8   8   8   8   8   8
#     4  11  21  42  67 100 129 181 238 290 347 426
#     4  12  25  40  66 101 144 185 226 291 376 429
#     4  11  24  42  72  96 132 185 249 288 341 424
#     4  12  25  42  65 103 145 181 225 303 365 420
#     4  11  23  38  71  99 138 181 243 290 350 432
#     4  10  23  44  70  92 131 184 242 292 336 414
#     4  11  23  40  65 102 138 182 235 288 357 430
#
# _framework density 25.008932999999999
#
# number of rings (size 3 to 8) (size 9 to 14) (size 15 to 20)
#    0.000    0.857    5.714    1.714    0.000    2.286 
#    0.000    0.000    0.000    0.000    0.000    0.000 
#    0.000    0.000    0.000    0.000    0.000    0.000 
#
# Total GULP energy -156538.307423 kJ/mol
# GULP energy per Si atom -5590.653837 kJ/mol
# Density = 2.495201 g / cm^3
# Si number density = 25.008933 Si / 1000 Ang^3
#
#
#
# Elastic Constant Matrix: (Units=GPa)
#
#
# Indices 1 2 3 4 5 6 
#
# 1 178.5018 19.6569 51.7522 0.0000 39.3992 0.0000
# 2 19.6569 59.2611 29.0810 0.0000 22.5522 0.0000
# 3 51.7522 29.0810 102.4156 0.0000 24.5658 0.0000
# 4 0.0000 0.0000 0.0000 8.0981 0.0000 -0.9005
# 5 39.3992 22.5522 24.5658 0.0000 52.9980 0.0000
# 6 0.0000 0.0000 0.0000 -0.9005 0.0000 27.9513
#
#
#
# Elastic Compliance Matrix: (Units=1/GPa)
#
#
# Indices 1 2 3 4 5 6 
#
# 1 0.007323 0.000633 -0.002824 0.000000 -0.004405 0.000000
# 2 0.000633 0.021864 -0.004707 0.000000 -0.007592 0.000000
# 3 -0.002824 -0.004707 0.012988 0.000000 -0.001918 0.000000
# 4 0.000000 0.000000 0.000000 0.123929 0.000000 0.003993
# 5 -0.004405 -0.007592 -0.001918 0.000000 0.026263 0.000000
# 6 0.000000 0.000000 0.000000 0.003993 0.000000 0.035905
#
#
# Mechanical properties :
#
#
# Convention : Reuss Voigt Hill
#
# Bulk Modulus (GPa) = 35.23743 60.12874 47.68308
# Shear Modulus (GPa) = 19.87859 33.78873 26.83366
#
# Velocity S-wave (km/s) = 2.82238 3.67967 3.27917
# Velocity P-wave (km/s) = 4.97410 6.49218 5.78317
#
# Compressibility (1/GPa) = 0.02837891
#
# Stress axis : x y z
#
# Youngs Moduli (GPa) = 136.54878 45.73804 76.99665
#
# Poissons Ratio (x) = -0.02894 0.21742
# Poissons Ratio (y) = -0.08640 0.36241
# Poissons Ratio (z) = 0.38558 0.21528
#
# Static dielectric constant tensor:
#      x y z
#    x 1.967720 0.000000 0.034320 
#    y 0.000000 1.980260 0.000000 
#    z 0.034320 0.000000 2.065860 
# 
# From -- ./inp_files/265591.got.cif
#   From: 2010.05.17/outbox.cif.g08.bks.cpg/sg15_133_cif.got.tgz:265591.got - 2010.06.03 18:47:42.
