data_PCOD9296751
_publ_section_title
;
Structure prediction by ZEFSAII (Michael W. Deem and Ramdas Pophale) SiO2 
 PCOD9296751
Probable space group: C 2/C
;
_chemical_formula_sum "Si O2"
_cell_formula_units_Z 28
_cell_length_a 8.913240
_cell_length_b 17.838158
_cell_length_c 8.472218
_cell_angle_alpha 90.000000
_cell_angle_beta 46.535662
_cell_angle_gamma 90.000000
_cell_volume 977.690272
_symmetry_space_group_name_H-M "C 2/C"
_symmetry_group_IT_number 15
_symmetry_cell_setting 'monoclinic'
loop_
_space_group_symop_operation_xyz
x,y,z
-x,y,1/2-z
-x,-y,-z
x,-y,1/2+z
1/2+x,1/2+y,z
1/2-x,1/2+y,1/2-z
1/2-x,1/2-y,-z
1/2+x,1/2-y,1/2+z
loop_
_atom_site_type_symbol
_atom_site_label
_atom_site_fract_x
_atom_site_fract_y
_atom_site_fract_z
Si Si1 0.500000 0.300078 0.750000
Si Si2 0.242521 0.574911 0.554964
Si Si3 0.429479 0.230379 0.452583
Si Si4 0.175826 0.561308 0.924351
O O1 0.682144 0.361387 0.614100
O O2 0.496683 0.258474 0.583282
O O3 0.325215 0.581933 0.671896
O O4 0.281659 0.489789 0.477636
O O5 0.000000 0.588582 0.750000
O O6 0.660113 0.249646 0.178786
O O7 0.418318 0.139740 0.460534
O O8 0.000000 0.500000 0.000000
#
# Coordination Sequence:
#
# PCOD9296751 Si02
#       4
#     4   8   8   8
#     4  12  30  50  80 120 160 204 266 332 394 472
#     4  10  24  47  78 110 156 207 261 324 394 464
#     4  12  29  50  77 115 160 204 260 328 399 464
#     4  10  23  45  77 107 149 207 260 316 389 470
#
# _framework density 28.638923999999999
#
# number of rings (size 3 to 8) (size 9 to 14) (size 15 to 20)
#    0.000    1.143    0.000    4.286   18.000    3.429 
#    2.571    0.000    0.000    0.000    0.000    0.000 
#    0.000    0.000    0.000    0.000    0.000    0.000 
#
# Total GULP energy -78100.033356 kJ/mol
# GULP energy per Si atom -5578.573811 kJ/mol
# Density = 2.857374 g / cm^3
# Si number density = 28.638924 Si / 1000 Ang^3
#
#
#
# Elastic Constant Matrix: (Units=GPa)
#
#
# Indices 1 2 3 4 5 6 
#
# 1 113.4209 66.3064 72.3803 0.0000 7.6549 0.0000
# 2 66.3064 283.2217 117.0032 0.0000 26.0152 0.0000
# 3 72.3803 117.0032 232.0913 0.0000 53.9660 0.0000
# 4 0.0000 0.0000 0.0000 59.9796 0.0000 11.9315
# 5 7.6549 26.0152 53.9660 0.0000 80.3140 0.0000
# 6 0.0000 0.0000 0.0000 11.9315 0.0000 46.6805
#
#
#
# Elastic Compliance Matrix: (Units=1/GPa)
#
#
# Indices 1 2 3 4 5 6 
#
# 1 0.011671 -0.001544 -0.003223 0.000000 0.001553 0.000000
# 2 -0.001544 0.004664 -0.001840 0.000000 -0.000127 0.000000
# 3 -0.003223 -0.001840 0.007148 0.000000 -0.003900 0.000000
# 4 0.000000 0.000000 0.000000 0.017565 0.000000 -0.004490
# 5 0.001553 -0.000127 -0.003900 0.000000 0.014965 0.000000
# 6 0.000000 0.000000 0.000000 -0.004490 0.000000 0.022570
#
#
# Mechanical properties :
#
#
# Convention : Reuss Voigt Hill
#
# Bulk Modulus (GPa) = 97.37114 126.67927 112.02521
# Shear Modulus (GPa) = 52.51007 62.26441 57.38724
#
# Velocity S-wave (km/s) = 4.28661 4.66780 4.48126
# Velocity P-wave (km/s) = 7.65333 8.56624 8.12262
#
# Compressibility (1/GPa) = 0.01026998
#
# Stress axis : x y z
#
# Youngs Moduli (GPa) = 85.68350 214.40124 139.89479
#
# Poissons Ratio (x) = 0.33096 0.45082
# Poissons Ratio (y) = 0.13227 0.25746
# Poissons Ratio (z) = 0.27612 0.39458
#
# Static dielectric constant tensor:
#      x y z
#    x 2.943950 0.000000 0.048780 
#    y 0.000000 2.122920 0.000000 
#    z 0.048780 0.000000 2.639460 
# 
# From -- ./inp_files/97628.got.cif
#   From: 2010.05.17/outbox.cif.g08.bks.cpg/sg15_49_cif.got.tgz:97628.got - 2010.06.03 18:47:42.
