data_PCOD9296506
_publ_section_title
;
Structure prediction by ZEFSAII (Michael W. Deem and Ramdas Pophale) SiO2 
 PCOD9296506
Probable space group: C 2/C
;
_chemical_formula_sum "Si O2"
_cell_formula_units_Z 52
_cell_length_a 11.748938
_cell_length_b 14.865655
_cell_length_c 25.377165
_cell_angle_alpha 90.000000
_cell_angle_beta 29.380673
_cell_angle_gamma 90.000000
_cell_volume 2174.513091
_symmetry_space_group_name_H-M "C 2/C"
_symmetry_group_IT_number 15
_symmetry_cell_setting 'monoclinic'
loop_
_space_group_symop_operation_xyz
x,y,z
-x,y,1/2-z
-x,-y,-z
x,-y,1/2+z
1/2+x,1/2+y,z
1/2-x,1/2+y,1/2-z
1/2-x,1/2-y,-z
1/2+x,1/2-y,1/2+z
loop_
_atom_site_type_symbol
_atom_site_label
_atom_site_fract_x
_atom_site_fract_y
_atom_site_fract_z
Si Si1 0.196390 0.444816 0.275031
Si Si2 0.000000 0.462286 0.750000
Si Si3 0.662830 0.394061 0.058882
Si Si4 0.573910 0.638320 0.473765
Si Si5 0.207450 0.906786 0.501605
Si Si6 0.428830 0.632723 0.204964
Si Si7 0.366236 0.814806 0.589143
O O1 0.122762 0.475674 0.245188
O O2 0.422857 0.383315 0.186047
O O3 0.271333 0.542068 0.269362
O O4 0.980250 0.393313 0.387606
O O5 0.812520 0.395400 0.852003
O O6 0.624916 0.358960 0.015184
O O7 0.686172 0.500145 0.041195
O O8 0.890941 0.358418 0.993819
O O9 0.385821 0.576368 0.519776
O O10 0.437851 0.732949 0.522655
O O11 0.021033 0.846676 0.608699
O O12 0.273745 0.704890 0.299616
O O13 0.673990 0.625656 0.136856
#
# Coordination Sequence:
#
# PCOD9296506 Si02
#       7
#     8   4   8   8   8   8   8
#     4  11  22  39  71 100 134 165 229 293 341 394
#     4  12  20  40  66 102 134 170 218 302 346 388
#     4  11  22  42  66 102 132 177 226 283 345 408
#     4  12  24  41  70  99 138 177 227 282 353 413
#     4  11  22  42  71 105 124 176 230 297 339 396
#     4  10  23  45  66  94 139 182 224 282 340 407
#     4  11  25  45  64  94 141 196 217 270 350 429
#
# _framework density 23.913401
#
# number of rings (size 3 to 8) (size 9 to 14) (size 15 to 20)
#    0.000    0.923    6.154    1.846    0.000    5.538 
#    2.769    0.000    0.000    0.000    0.000    0.000 
#    0.000    0.000    0.000    0.000    0.000    0.000 
#
# Total GULP energy -144980.405280 kJ/mol
# GULP energy per Si atom -5576.169434 kJ/mol
# Density = 2.385897 g / cm^3
# Si number density = 23.913401 Si / 1000 Ang^3
#
#
#
# Elastic Constant Matrix: (Units=GPa)
#
#
# Indices 1 2 3 4 5 6 
#
# 1 -4.0869 -33.9820 220.1048 -0.0349 65.1763 -0.0101
# 2 -33.9820 6.1901 158.9024 -0.0236 58.3531 -0.0094
# 3 220.1048 158.9024 -356.7726 0.1498 -246.0184 0.0442
# 4 -0.0349 -0.0236 0.1498 25.9841 0.0265 16.4494
# 5 65.1763 58.3531 -246.0184 0.0265 -52.2175 0.0117
# 6 -0.0101 -0.0094 0.0442 16.4494 0.0117 43.5997
#
#
#
# Elastic Compliance Matrix: (Units=1/GPa)
#
#
# Indices 1 2 3 4 5 6 
#
# 1 0.018117 -0.008715 0.000703 0.000004 0.009559 -0.000003
# 2 -0.008715 0.022500 0.002309 -0.000010 0.003387 0.000003
# 3 0.000703 0.002309 0.001657 -0.000003 -0.004346 0.000001
# 4 0.000004 -0.000010 -0.000003 0.050561 0.000029 -0.019076
# 5 0.009559 0.003387 -0.004346 0.000029 0.017043 -0.000008
# 6 -0.000003 0.000003 0.000001 -0.019076 -0.000008 0.030133
#
#
# Mechanical properties :
#
#
# Convention : Reuss Voigt Hill
#
# Bulk Modulus (GPa) = 32.39574 37.26456 34.83015
# Shear Modulus (GPa) = 30.92036 -43.17303 -6.12634
#
# Velocity S-wave (km/s) = 3.59975 -4.25360 -1.60233
# Velocity P-wave (km/s) = 5.55465 2.91671 3.34268
#
# Compressibility (1/GPa) = 0.03086826
#
# Stress axis : x y z
#
# Youngs Moduli (GPa) = 55.19692 44.44385 603.66566
#
# Poissons Ratio (x) = 0.38734 -0.42466
# Poissons Ratio (y) = 0.48106 -1.39390
# Poissons Ratio (z) = -0.03883 -0.10262
#
# Static dielectric constant tensor:
#      x y z
#    x 1.971220 0.000000 0.069600 
#    y 0.000000 1.988640 -0.000010 
#    z 0.069600 -0.000010 1.994500 
# 
# From -- ./inp_files/293452.got.cif
#   From: 2010.05.17/outbox.cif.g08.bks.cpg/sg15_147_cif.got.tgz:293452.got - 2010.06.03 18:47:42.
