data_PCOD9296895
_publ_section_title
;
Structure prediction by ZEFSAII (Michael W. Deem and Ramdas Pophale) SiO2 
 PCOD9296895
Probable space group: C 2/C
;
_chemical_formula_sum "Si O2"
_cell_formula_units_Z 56
_cell_length_a 13.144576
_cell_length_b 14.792697
_cell_length_c 12.395222
_cell_angle_alpha 90.000000
_cell_angle_beta 89.871020
_cell_angle_gamma 90.000000
_cell_volume 2410.167093
_symmetry_space_group_name_H-M "C 2/C"
_symmetry_group_IT_number 15
_symmetry_cell_setting 'monoclinic'
loop_
_space_group_symop_operation_xyz
x,y,z
-x,y,1/2-z
-x,-y,-z
x,-y,1/2+z
1/2+x,1/2+y,z
1/2-x,1/2+y,1/2-z
1/2-x,1/2-y,-z
1/2+x,1/2-y,1/2+z
loop_
_atom_site_type_symbol
_atom_site_label
_atom_site_fract_x
_atom_site_fract_y
_atom_site_fract_z
Si Si1 0.000000 0.824911 0.250000
Si Si2 0.625950 0.209940 0.386007
Si Si3 0.500000 0.065934 0.750000
Si Si4 0.225551 0.497897 0.703346
Si Si5 0.887780 0.045218 0.889592
Si Si6 0.031419 0.397237 0.480480
Si Si7 0.248346 0.148512 0.455266
Si Si8 0.801364 0.113079 0.494628
O O1 0.905035 0.759053 0.225275
O O2 0.979996 0.896361 0.344776
O O3 0.524114 0.165163 0.433288
O O4 0.713982 0.136492 0.406480
O O5 0.657227 0.293397 0.461209
O O6 0.606904 0.010420 0.739560
O O7 0.496732 0.124936 0.642003
O O8 0.303423 0.535129 0.793648
O O9 0.247288 0.394224 0.665079
O O10 0.249322 0.558750 0.595171
O O11 0.890038 0.945217 0.938490
O O12 0.846879 0.103881 0.987819
O O13 0.150379 0.392406 0.493460
O O14 0.000000 0.500000 0.500000
O O15 0.250000 0.250000 0.500000
#
# Coordination Sequence:
#
# PCOD9296895 Si02
#       8
#     4   8   4   8   8   8   8   8
#     4  12  26  45  73 106 140 182 246 283 352 423
#     4  11  24  43  69 102 135 183 234 290 340 422
#     4  12  22  39  71  96 132 180 230 271 338 427
#     4  11  22  44  70  98 132 187 228 281 355 419
#     4  11  24  45  69  97 134 189 229 283 350 424
#     4  12  23  42  66 100 136 174 224 282 353 408
#     4  11  24  43  64  99 139 168 221 298 345 399
#     4  10  23  46  71  91 141 185 233 284 350 410
#
# _framework density 23.234904
#
# number of rings (size 3 to 8) (size 9 to 14) (size 15 to 20)
#    0.000    0.857    5.714    1.714    0.000    3.429 
#    5.143    0.000    0.000    0.000    0.000    0.000 
#    0.000    0.000    0.000    0.000    0.000    0.000 
#
# Total GULP energy -156328.274795 kJ/mol
# GULP energy per Si atom -5583.152671 kJ/mol
# Density = 2.318202 g / cm^3
# Si number density = 23.234904 Si / 1000 Ang^3
#
#
#
# Elastic Constant Matrix: (Units=GPa)
#
#
# Indices 1 2 3 4 5 6 
#
# 1 46.9180 7.4229 -0.4451 0.0000 -10.1681 0.0000
# 2 7.4229 106.9391 13.2752 0.0000 -15.6947 0.0000
# 3 -0.4451 13.2752 77.7275 0.0000 5.1646 0.0000
# 4 0.0000 0.0000 0.0000 28.0846 0.0000 -2.2208
# 5 -10.1681 -15.6947 5.1646 0.0000 41.0284 0.0000
# 6 0.0000 0.0000 0.0000 -2.2208 0.0000 38.7478
#
#
#
# Elastic Compliance Matrix: (Units=1/GPa)
#
#
# Indices 1 2 3 4 5 6 
#
# 1 0.022587 -0.000777 -0.000091 0.000000 0.005312 0.000000
# 2 -0.000777 0.010239 -0.002018 0.000000 0.003978 0.000000
# 3 -0.000091 -0.002018 0.013374 0.000000 -0.002478 0.000000
# 4 0.000000 0.000000 0.000000 0.035769 0.000000 0.002050
# 5 0.005312 0.003978 -0.002478 0.000000 0.027524 0.000000
# 6 0.000000 0.000000 0.000000 0.002050 0.000000 0.025925
#
#
# Mechanical properties :
#
#
# Convention : Reuss Voigt Hill
#
# Bulk Modulus (GPa) = 24.73428 30.23229 27.48328
# Shear Modulus (GPa) = 32.32778 35.66095 33.99437
#
# Velocity S-wave (km/s) = 3.73412 3.92190 3.82916
# Velocity P-wave (km/s) = 5.40925 5.79209 5.60394
#
# Compressibility (1/GPa) = 0.04042972
#
# Stress axis : x y z
#
# Youngs Moduli (GPa) = 44.27318 97.66215 74.77101
#
# Poissons Ratio (x) = 0.07588 0.00680
# Poissons Ratio (y) = 0.03440 0.15086
# Poissons Ratio (z) = 0.00403 0.19704
#
# Static dielectric constant tensor:
#      x y z
#    x 1.856210 0.000000 0.012880 
#    y 0.000000 1.886350 0.000000 
#    z 0.012880 0.000000 1.949720 
# 
# From -- ./inp_files/97083.got.cif
#   From: 2010.05.17/outbox.cif.g08.bks.cpg/sg15_49_cif.got.tgz:97083.got - 2010.06.03 18:47:42.
