data_PCOD9296447
_publ_section_title
;
Structure prediction by ZEFSAII (Michael W. Deem and Ramdas Pophale) SiO2 
 PCOD9296447
Probable space group: C 2/C
;
_chemical_formula_sum "Si O2"
_cell_formula_units_Z 48
_cell_length_a 27.609690
_cell_length_b 10.828752
_cell_length_c 14.087161
_cell_angle_alpha 90.000000
_cell_angle_beta 151.318097
_cell_angle_gamma 90.000000
_cell_volume 2021.418226
_symmetry_space_group_name_H-M "C 2/C"
_symmetry_group_IT_number 15
_symmetry_cell_setting 'monoclinic'
loop_
_space_group_symop_operation_xyz
x,y,z
-x,y,1/2-z
-x,-y,-z
x,-y,1/2+z
1/2+x,1/2+y,z
1/2-x,1/2+y,1/2-z
1/2-x,1/2-y,-z
1/2+x,1/2-y,1/2+z
loop_
_atom_site_type_symbol
_atom_site_label
_atom_site_fract_x
_atom_site_fract_y
_atom_site_fract_z
Si Si1 0.750554 0.507398 0.542478
Si Si2 0.364328 0.830946 0.885983
Si Si3 0.500000 0.804810 0.750000
Si Si4 0.401105 0.430629 0.367693
Si Si5 0.045797 0.485678 0.185963
Si Si6 0.832687 0.167614 0.337283
Si Si7 0.250000 0.750000 0.000000
O O1 0.806208 0.421411 0.711903
O O2 0.677285 0.426836 0.354037
O O3 0.840952 0.568947 0.630914
O O4 0.700765 0.635760 0.482912
O O5 0.408792 0.707723 0.916714
O O6 0.276794 0.805576 0.809146
O O7 0.459973 0.905545 0.087240
O O8 0.416616 0.727561 0.549423
O O9 0.447812 0.889702 0.741752
O O10 0.500000 0.500000 0.500000
O O11 0.353152 0.521121 0.364231
O O12 0.000000 0.500000 0.000000
O O13 0.830843 0.215768 0.226517
#
# Coordination Sequence:
#
# PCOD9296447 Si02
#       7
#     8   8   4   8   8   8   4
#     4  10  23  44  76  99 150 200 253 317 391 471
#     4  11  25  45  75 110 150 194 267 319 392 477
#     4  12  26  46  78 106 154 198 268 306 396 472
#     4  11  27  45  71 110 155 202 249 325 412 465
#     4  10  24  43  76 110 141 198 260 320 381 469
#     4  11  27  46  76 108 154 208 256 324 391 480
#     4  10  24  46  74 102 154 196 260 320 394 442
#
# _framework density 23.745704
#
# number of rings (size 3 to 8) (size 9 to 14) (size 15 to 20)
#    0.000    1.333    0.000    3.500   21.000    0.000 
#    0.000    0.833    0.000    0.000    0.000    0.000 
#    0.000    0.000    0.000    0.000    0.000    0.000 
#
# Total GULP energy -133671.829735 kJ/mol
# GULP energy per Si atom -5569.659572 kJ/mol
# Density = 2.369166 g / cm^3
# Si number density = 23.745704 Si / 1000 Ang^3
#
#
#
# Elastic Constant Matrix: (Units=GPa)
#
#
# Indices 1 2 3 4 5 6 
#
# 1 81.4624 32.6361 64.7069 0.0000 -8.0634 0.0000
# 2 32.6361 112.3762 28.2258 0.0000 -34.6360 0.0000
# 3 64.7069 28.2258 144.1678 0.0000 -24.0350 0.0000
# 4 0.0000 0.0000 0.0000 -84.7498 0.0000 -7.8938
# 5 -8.0634 -34.6360 -24.0350 0.0000 49.7195 0.0000
# 6 0.0000 0.0000 0.0000 -7.8938 0.0000 39.8014
#
#
#
# Elastic Compliance Matrix: (Units=1/GPa)
#
#
# Indices 1 2 3 4 5 6 
#
# 1 0.021351 -0.005323 -0.009334 0.000000 -0.004758 0.000000
# 2 -0.005323 0.012788 0.001334 0.000000 0.008690 0.000000
# 3 -0.009334 0.001334 0.011711 0.000000 0.005077 0.000000
# 4 0.000000 0.000000 0.000000 -0.011585 0.000000 -0.002298
# 5 -0.004758 0.008690 0.005077 0.000000 0.027849 0.000000
# 6 0.000000 0.000000 0.000000 -0.002298 0.000000 0.024669
#
#
# Mechanical properties :
#
#
# Convention : Reuss Voigt Hill
#
# Bulk Modulus (GPa) = 52.07070 65.46044 58.76557
# Shear Modulus (GPa) = 41.72566 15.11672 28.42119
#
# Velocity S-wave (km/s) = 4.19643 2.52585 3.46337
# Velocity P-wave (km/s) = 6.74211 6.01113 6.38709
#
# Compressibility (1/GPa) = 0.01920466
#
# Stress axis : x y z
#
# Youngs Moduli (GPa) = 46.83523 78.19943 85.38951
#
# Poissons Ratio (x) = 0.41623 0.79705
# Poissons Ratio (y) = 0.24929 -0.11392
# Poissons Ratio (z) = 0.43717 -0.10433
#
# Static dielectric constant tensor:
#      x y z
#    x 1.988670 0.000000 -0.029320 
#    y 0.000000 1.687930 0.000000 
#    z -0.029320 0.000000 1.810320 
# 
# From -- ./inp_files/177924.got.cif
#   From: 2010.05.17/outbox.cif.g08.bks.cpg/sg15_89_cif.got.tgz:177924.got - 2010.06.03 18:47:42.
