data_PCOD9296142
_publ_section_title
;
Structure prediction by ZEFSAII (Michael W. Deem and Ramdas Pophale) SiO2 
 PCOD9296142
Probable space group: C 2/C
;
_chemical_formula_sum "Si O2"
_cell_formula_units_Z 64
_cell_length_a 18.203505
_cell_length_b 8.074035
_cell_length_c 30.398267
_cell_angle_alpha 90.000000
_cell_angle_beta 36.763887
_cell_angle_gamma 90.000000
_cell_volume 2674.066829
_symmetry_space_group_name_H-M "C 2/C"
_symmetry_group_IT_number 15
_symmetry_cell_setting 'monoclinic'
loop_
_space_group_symop_operation_xyz
x,y,z
-x,y,1/2-z
-x,-y,-z
x,-y,1/2+z
1/2+x,1/2+y,z
1/2-x,1/2+y,1/2-z
1/2-x,1/2-y,-z
1/2+x,1/2-y,1/2+z
loop_
_atom_site_type_symbol
_atom_site_label
_atom_site_fract_x
_atom_site_fract_y
_atom_site_fract_z
Si Si1 0.698278 0.597126 0.218225
Si Si2 0.228753 0.732317 0.405104
Si Si3 0.021536 0.918081 0.551881
Si Si4 0.129493 0.739662 0.288831
Si Si5 0.555935 0.279580 0.629671
Si Si6 0.243142 0.579464 0.156505
Si Si7 0.686421 0.718356 0.460833
Si Si8 0.388011 0.083596 0.429829
O O1 0.759875 0.606086 0.140758
O O2 0.786487 0.689672 0.210393
O O3 0.673523 0.413754 0.248432
O O4 0.565616 0.685847 0.283685
O O5 0.097087 0.777672 0.489135
O O6 0.324566 0.695098 0.397884
O O7 0.270168 0.906402 0.362197
O O8 0.051614 0.895014 0.588754
O O9 0.876534 0.910890 0.615218
O O10 0.071346 0.094264 0.510472
O O11 0.146652 0.610794 0.240696
O O12 0.990027 0.722371 0.370691
O O13 0.561213 0.094942 0.607007
O O14 0.242805 0.719185 0.118898
O O15 0.648231 0.888112 0.502048
O O16 0.773148 0.623731 0.454048
#
# Coordination Sequence:
#
# PCOD9296142 Si02
#       8
#     8   8   8   8   8   8   8   8
#     4  12  27  47  67 102 136 185 235 291 354 413
#     4  11  24  43  71 101 140 181 230 283 345 420
#     4  11  23  43  73 103 141 183 228 288 348 415
#     4  12  27  47  70  98 139 184 235 291 352 418
#     4  12  23  46  67 105 139 186 228 283 349 410
#     4  11  23  46  71 104 138 185 230 284 351 417
#     4  10  23  44  68 106 139 181 230 281 352 408
#     4  11  24  42  71 100 142 181 227 288 342 415
#
# _framework density 23.933584
#
# number of rings (size 3 to 8) (size 9 to 14) (size 15 to 20)
#    0.000    0.750    3.750    5.250    3.500    1.500 
#    6.750    1.250    0.000    0.000    0.000    0.000 
#    0.000    0.000    0.000    0.000    0.000    0.000 
#
# Total GULP energy -179301.286942 kJ/mol
# GULP energy per Si atom -5603.165217 kJ/mol
# Density = 2.387911 g / cm^3
# Si number density = 23.933584 Si / 1000 Ang^3
#
#
#
# Elastic Constant Matrix: (Units=GPa)
#
#
# Indices 1 2 3 4 5 6 
#
# 1 89.5393 10.4548 12.4396 0.0050 23.5483 0.0359
# 2 10.4548 78.2942 -1.3297 0.0057 7.3211 0.0231
# 3 12.4396 -1.3297 76.1687 0.0058 9.5516 0.0010
# 4 0.0050 0.0057 0.0058 37.1761 -0.0038 7.5203
# 5 23.5483 7.3211 9.5516 -0.0038 33.1869 -0.0008
# 6 0.0359 0.0231 0.0010 7.5203 -0.0008 8.2983
#
#
#
# Elastic Compliance Matrix: (Units=1/GPa)
#
#
# Indices 1 2 3 4 5 6 
#
# 1 0.013890 -0.001003 -0.001118 0.000011 -0.009313 -0.000068
# 2 -0.001003 0.013141 0.000692 0.000005 -0.002387 -0.000037
# 3 -0.001118 0.000692 0.013739 -0.000003 -0.003314 0.000004
# 4 0.000011 0.000005 -0.000003 0.032937 -0.000005 -0.029849
# 5 -0.009313 -0.002387 -0.003314 -0.000005 0.038221 0.000056
# 6 -0.000068 -0.000037 0.000004 -0.029849 0.000056 0.147557
#
#
# Mechanical properties :
#
#
# Convention : Reuss Voigt Hill
#
# Bulk Modulus (GPa) = 26.37615 31.90349 29.13982
# Shear Modulus (GPa) = 18.18315 30.56142 24.37229
#
# Velocity S-wave (km/s) = 2.75932 3.57729 3.19459
# Velocity P-wave (km/s) = 4.60394 5.51558 5.08025
#
# Compressibility (1/GPa) = 0.03791303
#
# Stress axis : x y z
#
# Youngs Moduli (GPa) = 71.99447 76.09658 72.78558
#
# Poissons Ratio (x) = 0.07632 0.08138
# Poissons Ratio (y) = 0.07220 -0.05040
# Poissons Ratio (z) = 0.08050 -0.05270
#
# Static dielectric constant tensor:
#      x y z
#    x 1.870840 0.000000 0.032260 
#    y 0.000000 1.956970 0.000000 
#    z 0.032260 0.000000 1.889730 
# 
# From -- ./inp_files/315657.got.cif
#   From: 2010.05.17/outbox.cif.g08.bks.cpg/sg15_158_cif.got.tgz:315657.got - 2010.06.03 18:47:42.
