data_PCOD9296650
_publ_section_title
;
Structure prediction by ZEFSAII (Michael W. Deem and Ramdas Pophale) SiO2 
 PCOD9296650
Probable space group: C 2/C
;
_chemical_formula_sum "Si O2"
_cell_formula_units_Z 60
_cell_length_a 19.831624
_cell_length_b 23.229064
_cell_length_c 11.260425
_cell_angle_alpha 90.000000
_cell_angle_beta 148.740108
_cell_angle_gamma 90.000000
_cell_volume 2691.819239
_symmetry_space_group_name_H-M "C 2/C"
_symmetry_group_IT_number 15
_symmetry_cell_setting 'monoclinic'
loop_
_space_group_symop_operation_xyz
x,y,z
-x,y,1/2-z
-x,-y,-z
x,-y,1/2+z
1/2+x,1/2+y,z
1/2-x,1/2+y,1/2-z
1/2-x,1/2-y,-z
1/2+x,1/2-y,1/2+z
loop_
_atom_site_type_symbol
_atom_site_label
_atom_site_fract_x
_atom_site_fract_y
_atom_site_fract_z
Si Si1 0.074008 0.316352 0.738249
Si Si2 0.654088 0.154739 0.772250
Si Si3 0.339778 0.311345 0.205803
Si Si4 0.923667 0.865935 0.008726
Si Si5 0.349217 0.483660 0.788603
Si Si6 0.341553 0.550863 0.013177
Si Si7 0.241339 0.256747 0.698296
Si Si8 0.000000 0.319450 0.250000
O O1 0.097225 0.247409 0.752280
O O2 0.000000 0.323744 0.750000
O O3 0.977640 0.346858 0.502377
O O4 0.222382 0.338428 0.953263
O O5 0.768610 0.111702 0.913228
O O6 0.703821 0.220055 0.828272
O O7 0.601497 0.145448 0.825099
O O8 0.456950 0.354180 0.401870
O O9 0.264002 0.290232 0.206516
O O10 0.000000 0.872862 0.250000
O O11 0.847702 0.920556 0.846541
O O12 0.832780 0.809941 0.868639
O O13 0.298947 0.523552 0.821842
O O14 0.302816 0.481628 0.580146
O O15 0.500000 0.500000 0.000000
O O16 0.500000 0.554729 0.250000
O O17 0.094643 0.278617 0.467386
#
# Coordination Sequence:
#
# PCOD9296650 Si02
#       8
#     8   8   8   8   8   8   8   4
#     4  11  20  37  58  94 140 183 228 274 347 422
#     4  12  25  42  68 100 143 191 230 295 360 436
#     4  11  21  36  61  96 143 181 229 285 339 426
#     4  12  23  38  68 104 141 188 238 300 362 423
#     4  10  23  45  71 108 134 183 241 318 368 425
#     4  10  24  47  78 106 143 177 251 312 373 429
#     4  12  24  40  62 101 146 191 237 279 361 435
#     4  12  26  42  58  94 148 194 238 268 354 452
#
# _framework density 22.289757999999999
#
# number of rings (size 3 to 8) (size 9 to 14) (size 15 to 20)
#    0.000    0.800    4.000    4.400    4.667    0.000 
#    0.000    0.000    0.000    3.200    8.667    0.000 
#    0.000    0.000    0.000    0.000    0.000    0.000 
#
# Total GULP energy -167399.839934 kJ/mol
# GULP energy per Si atom -5579.994664 kJ/mol
# Density = 2.223903 g / cm^3
# Si number density = 22.289758 Si / 1000 Ang^3
#
#
#
# Elastic Constant Matrix: (Units=GPa)
#
#
# Indices 1 2 3 4 5 6 
#
# 1 124.0772 44.3389 23.0310 0.0000 -12.3071 0.0000
# 2 44.3389 48.9262 9.8930 0.0000 -1.9882 0.0000
# 3 23.0310 9.8930 84.9717 0.0000 0.7538 0.0000
# 4 0.0000 0.0000 0.0000 22.4778 0.0000 -2.7723
# 5 -12.3071 -1.9882 0.7538 0.0000 36.9505 0.0000
# 6 0.0000 0.0000 0.0000 -2.7723 0.0000 24.1662
#
#
#
# Elastic Compliance Matrix: (Units=1/GPa)
#
#
# Indices 1 2 3 4 5 6 
#
# 1 0.012755 -0.010961 -0.002214 0.000000 0.003704 0.000000
# 2 -0.010961 0.030402 -0.000551 0.000000 -0.002004 0.000000
# 3 -0.002214 -0.000551 0.012442 0.000000 -0.001021 0.000000
# 4 0.000000 0.000000 0.000000 0.045127 0.000000 0.005177
# 5 0.003704 -0.002004 -0.001021 0.000000 0.028210 0.000000
# 6 0.000000 0.000000 0.000000 0.005177 0.000000 0.041974
#
#
# Mechanical properties :
#
#
# Convention : Reuss Voigt Hill
#
# Bulk Modulus (GPa) = 35.52708 45.83342 40.68025
# Shear Modulus (GPa) = 24.06830 28.76636 26.41733
#
# Velocity S-wave (km/s) = 3.28958 3.59634 3.44638
# Velocity P-wave (km/s) = 5.51379 6.15240 5.84183
#
# Compressibility (1/GPa) = 0.02814754
#
# Stress axis : x y z
#
# Youngs Moduli (GPa) = 78.40368 32.89274 80.37376
#
# Poissons Ratio (x) = 0.36052 0.17793
# Poissons Ratio (y) = 0.85935 0.04429
# Poissons Ratio (z) = 0.17357 0.01812
#
# Static dielectric constant tensor:
#      x y z
#    x 1.935200 0.000000 -0.114700 
#    y 0.000000 1.832790 0.000000 
#    z -0.114700 0.000000 1.914910 
# 
# From -- ./inp_files/114841.got.cif
#   From: 2010.05.17/outbox.cif.g08.bks.cpg/sg15_58_cif.got.tgz:114841.got - 2010.06.03 18:47:42.
