data_PCOD9296323
_publ_section_title
;
Structure prediction by ZEFSAII (Michael W. Deem and Ramdas Pophale) SiO2 
 PCOD9296323
Probable space group: C 2/C
;
_chemical_formula_sum "Si O2"
_cell_formula_units_Z 44
_cell_length_a 20.547344
_cell_length_b 7.553914
_cell_length_c 13.681562
_cell_angle_alpha 90.000000
_cell_angle_beta 64.001419
_cell_angle_gamma 90.000000
_cell_volume 1908.661194
_symmetry_space_group_name_H-M "C 2/C"
_symmetry_group_IT_number 15
_symmetry_cell_setting 'monoclinic'
loop_
_space_group_symop_operation_xyz
x,y,z
-x,y,1/2-z
-x,-y,-z
x,-y,1/2+z
1/2+x,1/2+y,z
1/2-x,1/2+y,1/2-z
1/2-x,1/2-y,-z
1/2+x,1/2-y,1/2+z
loop_
_atom_site_type_symbol
_atom_site_label
_atom_site_fract_x
_atom_site_fract_y
_atom_site_fract_z
Si Si1 0.914860 0.930834 0.626387
Si Si2 0.649760 0.089458 0.256579
Si Si3 0.288426 0.206547 0.650819
Si Si4 0.105337 0.405967 0.583095
Si Si5 0.000000 0.884695 0.250000
Si Si6 0.954015 0.286835 0.516471
O O1 0.834006 0.858829 0.677502
O O2 0.962937 0.765102 0.555633
O O3 0.953600 0.998631 0.701297
O O4 0.919395 0.089679 0.543678
O O5 0.703887 0.251836 0.200508
O O6 0.632326 0.003784 0.165184
O O7 0.576528 0.140755 0.360762
O O8 0.693799 0.965162 0.298763
O O9 0.327827 0.175243 0.521423
O O10 0.069221 0.564531 0.545003
O O11 0.054777 0.244724 0.654683
#
# Coordination Sequence:
#
# PCOD9296323 Si02
#       6
#     8   8   8   8   4   8
#     4  11  24  44  67 105 136 179 223 285 331 407
#     4  11  24  46  68 102 135 188 220 282 334 412
#     4  11  26  45  71  96 144 176 229 278 342 397
#     4  11  25  43  71 103 132 183 224 282 331 412
#     4  12  26  40  74  98 142 174 230 286 336 398
#     4  10  23  44  71  96 141 171 229 272 342 388
#
# _framework density 23.052807999999999
#
# number of rings (size 3 to 8) (size 9 to 14) (size 15 to 20)
#    0.000    1.091    1.818    3.818    5.091    2.182 
#    0.000    4.545    0.000    0.000    0.000    0.000 
#    0.000    0.000    0.000    0.000    0.000    0.000 
#
# Total GULP energy -122889.840328 kJ/mol
# GULP energy per Si atom -5585.901833 kJ/mol
# Density = 2.300034 g / cm^3
# Si number density = 23.052808 Si / 1000 Ang^3
#
#
#
# Elastic Constant Matrix: (Units=GPa)
#
#
# Indices 1 2 3 4 5 6 
#
# 1 78.6841 18.0963 63.5331 0.0000 -7.8023 0.0000
# 2 18.0963 87.7625 47.3037 0.0000 -5.5998 0.0000
# 3 63.5331 47.3037 165.7289 0.0000 9.9573 0.0000
# 4 0.0000 0.0000 0.0000 20.0205 0.0000 1.7469
# 5 -7.8023 -5.5998 9.9573 0.0000 28.3224 0.0000
# 6 0.0000 0.0000 0.0000 1.7469 0.0000 32.4153
#
#
#
# Elastic Compliance Matrix: (Units=1/GPa)
#
#
# Indices 1 2 3 4 5 6 
#
# 1 0.020292 0.001012 -0.008598 0.000000 0.008813 0.000000
# 2 0.001012 0.013999 -0.004665 0.000000 0.004687 0.000000
# 3 -0.008598 -0.004665 0.011094 0.000000 -0.007191 0.000000
# 4 0.000000 0.000000 0.000000 0.050185 0.000000 -0.002705
# 5 0.008813 0.004687 -0.007191 0.000000 0.041190 0.000000
# 6 0.000000 0.000000 0.000000 -0.002705 0.000000 0.030995
#
#
# Mechanical properties :
#
#
# Convention : Reuss Voigt Hill
#
# Bulk Modulus (GPa) = 47.88457 65.56019 56.72238
# Shear Modulus (GPa) = 25.09807 29.70112 27.39959
#
# Velocity S-wave (km/s) = 3.30316 3.59332 3.45129
# Velocity P-wave (km/s) = 5.94681 6.76142 6.36716
#
# Compressibility (1/GPa) = 0.02088355
#
# Stress axis : x y z
#
# Youngs Moduli (GPa) = 49.28014 71.43167 90.14243
#
# Poissons Ratio (x) = -0.07230 0.77500
# Poissons Ratio (y) = -0.04988 0.42056
# Poissons Ratio (z) = 0.42369 0.33326
#
# Static dielectric constant tensor:
#      x y z
#    x 1.860970 0.000000 0.027660 
#    y 0.000000 1.885140 0.000000 
#    z 0.027660 0.000000 1.874150 
# 
# From -- ./inp_files/109941.got.cif
#   From: 2010.05.17/outbox.cif.g08.bks.cpg/sg15_55_cif.got.tgz:109941.got - 2010.06.03 18:47:42.
