data_PCOD9296377
_publ_section_title
;
Structure prediction by ZEFSAII (Michael W. Deem and Ramdas Pophale) SiO2 
 PCOD9296377
Probable space group: C 2/C
;
_chemical_formula_sum "Si O2"
_cell_formula_units_Z 56
_cell_length_a 8.370360
_cell_length_b 11.903541
_cell_length_c 25.573493
_cell_angle_alpha 90.000000
_cell_angle_beta 70.665793
_cell_angle_gamma 90.000000
_cell_volume 2404.362157
_symmetry_space_group_name_H-M "C 2/C"
_symmetry_group_IT_number 15
_symmetry_cell_setting 'monoclinic'
loop_
_space_group_symop_operation_xyz
x,y,z
-x,y,1/2-z
-x,-y,-z
x,-y,1/2+z
1/2+x,1/2+y,z
1/2-x,1/2+y,1/2-z
1/2-x,1/2-y,-z
1/2+x,1/2-y,1/2+z
loop_
_atom_site_type_symbol
_atom_site_label
_atom_site_fract_x
_atom_site_fract_y
_atom_site_fract_z
Si Si1 0.073898 0.803871 0.134565
Si Si2 0.747646 0.917257 0.660365
Si Si3 0.749267 0.497304 0.956169
Si Si4 0.005500 0.810818 0.022391
Si Si5 0.984701 0.738913 0.671919
Si Si6 0.558590 0.124889 0.930053
Si Si7 0.764394 0.633951 0.779840
O O1 0.131399 0.687350 0.155429
O O2 0.999212 0.783005 0.084466
O O3 0.242745 0.877534 0.105550
O O4 0.933350 0.858406 0.186785
O O5 0.910526 0.861510 0.669833
O O6 0.788186 0.975931 0.600926
O O7 0.677134 0.012257 0.706059
O O8 0.651520 0.612546 0.979650
O O9 0.947483 0.512970 0.945627
O O10 0.664905 0.394203 0.995360
O O11 0.029348 0.705494 0.982295
O O12 0.021952 0.686548 0.611883
O O13 0.834503 0.666110 0.715768
O O14 0.142895 0.725191 0.692779
#
# Coordination Sequence:
#
# PCOD9296377 Si02
#       7
#     8   8   8   8   8   8   8
#     4  11  24  43  66 101 141 175 228 279 334 407
#     4  11  23  46  68  97 136 174 222 276 340 401
#     4  11  22  40  69  95 133 185 216 269 351 390
#     4  11  22  42  65  98 141 176 227 282 323 413
#     4  10  23  44  72  97 132 175 231 281 338 407
#     4  11  22  40  64 101 137 177 224 275 336 404
#     4  11  24  47  68  97 134 177 227 285 341 398
#
# _framework density 23.291
#
# number of rings (size 3 to 8) (size 9 to 14) (size 15 to 20)
#    0.000    1.143    5.714    0.857    0.000    5.143 
#    2.571    4.286    0.000    0.000    0.000    0.000 
#    0.000    0.000    0.000    0.000    0.000    0.000 
#
# Total GULP energy -156586.406297 kJ/mol
# GULP energy per Si atom -5592.371653 kJ/mol
# Density = 2.323799 g / cm^3
# Si number density = 23.291000 Si / 1000 Ang^3
#
#
#
# Elastic Constant Matrix: (Units=GPa)
#
#
# Indices 1 2 3 4 5 6 
#
# 1 73.0177 47.1628 21.9959 0.0000 -9.9524 0.0000
# 2 47.1628 87.2329 41.3140 0.0000 -11.6126 0.0000
# 3 21.9959 41.3140 88.2257 0.0000 -8.9922 0.0000
# 4 0.0000 0.0000 0.0000 24.5037 0.0000 3.4192
# 5 -9.9524 -11.6126 -8.9922 0.0000 43.0364 0.0000
# 6 0.0000 0.0000 0.0000 3.4192 0.0000 23.4086
#
#
#
# Elastic Compliance Matrix: (Units=1/GPa)
#
#
# Indices 1 2 3 4 5 6 
#
# 1 0.021192 -0.011301 0.000201 0.000000 0.001894 0.000000
# 2 -0.011301 0.021045 -0.006871 0.000000 0.001629 0.000000
# 3 0.000201 -0.006871 0.014629 0.000000 0.001249 0.000000
# 4 0.000000 0.000000 0.000000 0.041659 0.000000 -0.006085
# 5 0.001894 0.001629 0.001249 0.000000 0.024375 0.000000
# 6 0.000000 0.000000 0.000000 -0.006085 0.000000 0.043608
#
#
# Mechanical properties :
#
#
# Convention : Reuss Voigt Hill
#
# Bulk Modulus (GPa) = 47.79032 52.15798 49.97415
# Shear Modulus (GPa) = 23.87501 27.39000 25.63250
#
# Velocity S-wave (km/s) = 3.20515 3.43299 3.32103
# Velocity P-wave (km/s) = 5.85326 6.17710 6.01736
#
# Compressibility (1/GPa) = 0.02092474
#
# Stress axis : x y z
#
# Youngs Moduli (GPa) = 47.18736 47.51819 68.35625
#
# Poissons Ratio (x) = 0.53700 -0.01377
# Poissons Ratio (y) = 0.53326 0.46968
# Poissons Ratio (z) = -0.00951 0.32650
#
# Static dielectric constant tensor:
#      x y z
#    x 1.976620 0.000000 -0.020940 
#    y 0.000000 1.884260 0.000000 
#    z -0.020940 0.000000 1.867540 
# 
# From -- ./inp_files/287966.got.cif
#   From: 2010.05.17/outbox.cif.g08.bks.cpg/sg15_144_cif.got.tgz:287966.got - 2010.06.03 18:47:42.
