data_PCOD9296423
_publ_section_title
;
Structure prediction by ZEFSAII (Michael W. Deem and Ramdas Pophale) SiO2 
 PCOD9296423
Probable space group: C 2/C
;
_chemical_formula_sum "Si O2"
_cell_formula_units_Z 40
_cell_length_a 8.855286
_cell_length_b 11.248300
_cell_length_c 15.416439
_cell_angle_alpha 90.000000
_cell_angle_beta 97.219134
_cell_angle_gamma 90.000000
_cell_volume 1523.411011
_symmetry_space_group_name_H-M "C 2/C"
_symmetry_group_IT_number 15
_symmetry_cell_setting 'monoclinic'
loop_
_space_group_symop_operation_xyz
x,y,z
-x,y,1/2-z
-x,-y,-z
x,-y,1/2+z
1/2+x,1/2+y,z
1/2-x,1/2+y,1/2-z
1/2-x,1/2-y,-z
1/2+x,1/2-y,1/2+z
loop_
_atom_site_type_symbol
_atom_site_label
_atom_site_fract_x
_atom_site_fract_y
_atom_site_fract_z
Si Si1 0.115459 0.608678 0.512565
Si Si2 0.476592 0.287936 0.135342
Si Si3 0.767767 0.704510 0.251033
Si Si4 0.125744 0.964740 0.597334
Si Si5 0.608157 0.736156 0.417553
O O1 0.097003 0.725088 0.450986
O O2 0.034688 0.672141 0.589530
O O3 0.000000 0.500000 0.500000
O O4 0.266935 0.551934 0.479593
O O5 0.341162 0.307242 0.194314
O O6 0.582092 0.181238 0.179650
O O7 0.575286 0.402977 0.121055
O O8 0.658134 0.739241 0.320931
O O9 0.710294 0.600243 0.184746
O O10 0.971321 0.890589 0.573784
O O11 0.750000 0.750000 0.500000
#
# Coordination Sequence:
#
# PCOD9296423 Si02
#       5
#     8   8   8   8   8
#     4  11  25  49  75 114 158 199 262 333 401 473
#     4  10  23  49  77 113 154 206 266 325 397 480
#     4  10  23  44  74 112 149 202 269 314 399 486
#     4  11  26  48  81 109 154 216 262 326 411 481
#     4  12  25  48  73 116 156 203 265 335 399 473
#
# _framework density 26.256868000000001
#
# number of rings (size 3 to 8) (size 9 to 14) (size 15 to 20)
#    0.000    1.200    2.000    2.400    5.600    0.800 
#   10.800    0.000    0.000    0.000    0.000    0.000 
#    0.000    0.000    0.000    0.000    0.000    0.000 
#
# Total GULP energy -111342.980233 kJ/mol
# GULP energy per Si atom -5567.149012 kJ/mol
# Density = 2.619711 g / cm^3
# Si number density = 26.256868 Si / 1000 Ang^3
#
#
#
# Elastic Constant Matrix: (Units=GPa)
#
#
# Indices 1 2 3 4 5 6 
#
# 1 188.3970 72.2739 77.2110 0.0000 -4.4313 0.0000
# 2 72.2739 153.7102 57.2109 0.0000 -16.6517 0.0000
# 3 77.2110 57.2109 175.1454 0.0000 -80.2689 0.0000
# 4 0.0000 0.0000 0.0000 28.7731 0.0000 -3.3134
# 5 -4.4313 -16.6517 -80.2689 0.0000 65.0317 0.0000
# 6 0.0000 0.0000 0.0000 -3.3134 0.0000 62.7021
#
#
#
# Elastic Compliance Matrix: (Units=1/GPa)
#
#
# Indices 1 2 3 4 5 6 
#
# 1 0.009067 -0.002516 -0.007339 0.000000 -0.009085 0.000000
# 2 -0.002516 0.008286 -0.001620 0.000000 -0.000050 0.000000
# 3 -0.007339 -0.001620 0.020848 0.000000 0.024818 0.000000
# 4 0.000000 0.000000 0.000000 0.034968 0.000000 0.001848
# 5 -0.009085 -0.000050 0.024818 0.000000 0.045378 0.000000
# 6 0.000000 0.000000 0.000000 0.001848 0.000000 0.016046
#
#
# Mechanical properties :
#
#
# Convention : Reuss Voigt Hill
#
# Bulk Modulus (GPa) = 65.56827 103.40490 84.48659
# Shear Modulus (GPa) = 30.74507 52.00516 41.37511
#
# Velocity S-wave (km/s) = 3.42560 4.45526 3.97392
# Velocity P-wave (km/s) = 6.37749 8.11993 7.30088
#
# Compressibility (1/GPa) = 0.01525128
#
# Stress axis : x y z
#
# Youngs Moduli (GPa) = 110.28841 120.67844 47.96599
#
# Poissons Ratio (x) = 0.30362 0.35201
# Poissons Ratio (y) = 0.27748 0.07772
# Poissons Ratio (z) = 0.80939 0.19555
#
# Static dielectric constant tensor:
#      x y z
#    x 2.469330 0.000000 0.032710 
#    y 0.000000 2.137880 0.000000 
#    z 0.032710 0.000000 2.439460 
# 
# From -- ./inp_files/230612.got.cif
#   From: 2010.05.17/outbox.cif.g08.bks.cpg/sg15_116_cif.got.tgz:230612.got - 2010.06.03 18:47:42.
