data_PCOD9296192
_publ_section_title
;
Structure prediction by ZEFSAII (Michael W. Deem and Ramdas Pophale) SiO2 
 PCOD9296192
Probable space group: C 2/C
;
_chemical_formula_sum "Si O2"
_cell_formula_units_Z 40
_cell_length_a 11.634619
_cell_length_b 25.867298
_cell_length_c 5.227190
_cell_angle_alpha 90.000000
_cell_angle_beta 75.284100
_cell_angle_gamma 90.000000
_cell_volume 1521.551275
_symmetry_space_group_name_H-M "C 2/C"
_symmetry_group_IT_number 15
_symmetry_cell_setting 'monoclinic'
loop_
_space_group_symop_operation_xyz
x,y,z
-x,y,1/2-z
-x,-y,-z
x,-y,1/2+z
1/2+x,1/2+y,z
1/2-x,1/2+y,1/2-z
1/2-x,1/2-y,-z
1/2+x,1/2-y,1/2+z
loop_
_atom_site_type_symbol
_atom_site_label
_atom_site_fract_x
_atom_site_fract_y
_atom_site_fract_z
Si Si1 0.366061 0.918273 0.771423
Si Si2 0.619088 0.606081 0.538367
Si Si3 0.887404 0.687927 0.981588
Si Si4 0.824887 0.213644 0.771652
Si Si5 0.173674 0.032063 0.122520
O O1 0.500000 0.934200 0.750000
O O2 0.372374 0.857971 0.690737
O O3 0.313219 0.954812 0.577275
O O4 0.252670 0.916727 0.033602
O O5 0.500000 0.588451 0.750000
O O6 0.624716 0.666583 0.593911
O O7 0.619583 0.587194 0.242593
O O8 0.767296 0.691453 0.884719
O O9 0.000000 0.673081 0.750000
O O10 0.909166 0.745166 0.082457
O O11 0.750000 0.250000 0.000000
O O12 0.140072 0.995492 0.382397
#
# Coordination Sequence:
#
# PCOD9296192 Si02
#       5
#     8   8   8   8   8
#     4  10  23  44  69 102 139 185 234 302 358 436
#     4  10  24  42  71  99 137 185 237 301 356 435
#     4  11  25  38  68 100 138 190 233 288 359 428
#     4  11  23  42  63  97 142 181 241 281 354 426
#     4  10  25  47  74 104 142 189 245 307 375 436
#
# _framework density 26.288962000000001
#
# number of rings (size 3 to 8) (size 9 to 14) (size 15 to 20)
#    1.200    0.400    2.000    1.200    5.600    1.600 
#    0.000    2.000    0.000    0.000    0.000    0.000 
#    0.000    0.000    0.000    0.000    0.000    0.000 
#
# Total GULP energy -111692.124813 kJ/mol
# GULP energy per Si atom -5584.606241 kJ/mol
# Density = 2.622913 g / cm^3
# Si number density = 26.288962 Si / 1000 Ang^3
#
#
#
# Elastic Constant Matrix: (Units=GPa)
#
#
# Indices 1 2 3 4 5 6 
#
# 1 149.3979 28.9144 28.5475 0.0000 -30.7930 0.0000
# 2 28.9144 134.8232 38.8124 0.0000 8.1374 0.0000
# 3 28.5475 38.8124 90.2824 0.0000 -17.7986 0.0000
# 4 0.0000 0.0000 0.0000 25.8651 0.0000 -9.7457
# 5 -30.7930 8.1374 -17.7986 0.0000 51.7466 0.0000
# 6 0.0000 0.0000 0.0000 -9.7457 0.0000 23.5061
#
#
#
# Elastic Compliance Matrix: (Units=1/GPa)
#
#
# Indices 1 2 3 4 5 6 
#
# 1 0.008213 -0.001809 -0.000858 0.000000 0.004876 0.000000
# 2 -0.001809 0.009250 -0.004188 0.000000 -0.003971 0.000000
# 3 -0.000858 -0.004188 0.014136 0.000000 0.005010 0.000000
# 4 0.000000 0.000000 0.000000 0.045820 0.000000 0.018997
# 5 0.004876 -0.003971 0.005010 0.000000 0.024575 0.000000
# 6 0.000000 0.000000 0.000000 0.018997 0.000000 0.050418
#
#
# Mechanical properties :
#
#
# Convention : Reuss Voigt Hill
#
# Bulk Modulus (GPa) = 55.89745 63.00580 59.45162
# Shear Modulus (GPa) = 29.05567 38.77216 33.91392
#
# Velocity S-wave (km/s) = 3.32812 3.84454 3.59561
# Velocity P-wave (km/s) = 6.00645 6.61256 6.31678
#
# Compressibility (1/GPa) = 0.01788990
#
# Stress axis : x y z
#
# Youngs Moduli (GPa) = 121.76389 108.10538 70.74316
#
# Poissons Ratio (x) = 0.19552 0.06070
# Poissons Ratio (y) = 0.22023 0.29625
# Poissons Ratio (z) = 0.10447 0.45271
#
# Static dielectric constant tensor:
#      x y z
#    x 2.123820 0.000000 0.090310 
#    y 0.000000 2.079210 0.000000 
#    z 0.090310 0.000000 2.133170 
# 
# From -- ./inp_files/7494.got.cif
#   From: 2010.05.17/outbox.cif.g08.bks.cpg/sg15_4_cif.got.tgz:7494.got - 2010.06.03 18:47:42.
