data_PCOD9296668
_publ_section_title
;
Structure prediction by ZEFSAII (Michael W. Deem and Ramdas Pophale) SiO2 
 PCOD9296668
Probable space group: C 2/C
;
_chemical_formula_sum "Si O2"
_cell_formula_units_Z 48
_cell_length_a 12.495928
_cell_length_b 13.469056
_cell_length_c 13.690066
_cell_angle_alpha 90.000000
_cell_angle_beta 111.656071
_cell_angle_gamma 90.000000
_cell_volume 2141.515682
_symmetry_space_group_name_H-M "C 2/C"
_symmetry_group_IT_number 15
_symmetry_cell_setting 'monoclinic'
loop_
_space_group_symop_operation_xyz
x,y,z
-x,y,1/2-z
-x,-y,-z
x,-y,1/2+z
1/2+x,1/2+y,z
1/2-x,1/2+y,1/2-z
1/2-x,1/2-y,-z
1/2+x,1/2-y,1/2+z
loop_
_atom_site_type_symbol
_atom_site_label
_atom_site_fract_x
_atom_site_fract_y
_atom_site_fract_z
Si Si1 0.032380 0.305829 0.047613
Si Si2 0.192302 0.462990 0.022984
Si Si3 0.382227 0.500506 0.251824
Si Si4 0.739482 0.655936 0.143926
Si Si5 0.632396 0.710220 0.671593
Si Si6 0.174707 0.325466 0.410343
O O1 0.083673 0.414093 0.041320
O O2 0.947839 0.265557 0.933830
O O3 0.140092 0.234277 0.089994
O O4 0.958190 0.298414 0.121685
O O5 0.222038 0.389277 0.945056
O O6 0.178830 0.568312 0.965025
O O7 0.295276 0.474844 0.134904
O O8 0.500000 0.547035 0.250000
O O9 0.314536 0.571658 0.303684
O O10 0.417201 0.396244 0.314273
O O11 0.842105 0.714314 0.232341
O O12 0.758487 0.681225 0.668943
O O13 0.250000 0.250000 0.500000
#
# Coordination Sequence:
#
# PCOD9296668 Si02
#       6
#     8   8   8   8   8   8
#     4  11  25  44  76  99 147 190 235 296 361 422
#     4  12  25  49  71 107 142 191 241 295 359 435
#     4  12  27  43  73 104 143 186 246 293 368 429
#     4  12  27  46  73 106 145 188 241 297 359 426
#     4  11  25  47  67 108 144 188 238 296 355 433
#     4  10  23  45  72 100 144 182 236 293 352 426
#
# _framework density 22.414031000000001
#
# number of rings (size 3 to 8) (size 9 to 14) (size 15 to 20)
#    0.000    0.667    3.333    4.000    9.333    1.333 
#    0.000    1.667    0.000    0.000    0.000    0.000 
#    0.000    0.000    0.000    0.000    0.000    0.000 
#
# Total GULP energy -134278.076800 kJ/mol
# GULP energy per Si atom -5594.919867 kJ/mol
# Density = 2.236302 g / cm^3
# Si number density = 22.414031 Si / 1000 Ang^3
#
#
#
# Elastic Constant Matrix: (Units=GPa)
#
#
# Indices 1 2 3 4 5 6 
#
# 1 66.2466 6.9174 13.5722 0.0000 -9.0157 0.0000
# 2 6.9174 97.1531 19.9038 0.0000 6.1137 0.0000
# 3 13.5722 19.9038 95.0400 0.0000 6.8409 0.0000
# 4 0.0000 0.0000 0.0000 24.4106 0.0000 -13.8861
# 5 -9.0157 6.1137 6.8409 0.0000 33.2550 0.0000
# 6 0.0000 0.0000 0.0000 -13.8861 0.0000 35.4558
#
#
#
# Elastic Compliance Matrix: (Units=1/GPa)
#
#
# Indices 1 2 3 4 5 6 
#
# 1 0.016412 -0.000978 -0.002509 0.000000 0.005145 0.000000
# 2 -0.000978 0.010891 -0.002008 0.000000 -0.001854 0.000000
# 3 -0.002509 -0.002008 0.011493 0.000000 -0.002675 0.000000
# 4 0.000000 0.000000 0.000000 0.052709 0.000000 0.020643
# 5 0.005145 -0.001854 -0.002675 0.000000 0.032357 0.000000
# 6 0.000000 0.000000 0.000000 0.020643 0.000000 0.036289
#
#
# Mechanical properties :
#
#
# Convention : Reuss Voigt Hill
#
# Bulk Modulus (GPa) = 35.96417 37.69183 36.82800
# Shear Modulus (GPa) = 27.71488 33.16070 30.43779
#
# Velocity S-wave (km/s) = 3.52020 3.85055 3.68907
# Velocity P-wave (km/s) = 5.70987 6.05158 5.88321
#
# Compressibility (1/GPa) = 0.02780545
#
# Stress axis : x y z
#
# Youngs Moduli (GPa) = 60.93265 91.82165 87.00779
#
# Poissons Ratio (x) = 0.08982 0.21832
# Poissons Ratio (y) = 0.05961 0.17468
# Poissons Ratio (z) = 0.15289 0.18434
#
# Static dielectric constant tensor:
#      x y z
#    x 1.853730 0.000000 -0.031780 
#    y 0.000000 1.826380 0.000000 
#    z -0.031780 0.000000 1.763450 
# 
# From -- ./inp_files/143416.got.cif
#   From: 2010.05.17/outbox.cif.g08.bks.cpg/sg15_72_cif.got.tgz:143416.got - 2010.06.03 18:47:42.
