data_PCOD9296600
_publ_section_title
;
Structure prediction by ZEFSAII (Michael W. Deem and Ramdas Pophale) SiO2 
 PCOD9296600
Probable space group: C 2/C
;
_chemical_formula_sum "Si O2"
_cell_formula_units_Z 44
_cell_length_a 9.529885
_cell_length_b 25.159058
_cell_length_c 8.544210
_cell_angle_alpha 90.000000
_cell_angle_beta 69.708267
_cell_angle_gamma 90.000000
_cell_volume 1921.447562
_symmetry_space_group_name_H-M "C 2/C"
_symmetry_group_IT_number 15
_symmetry_cell_setting 'monoclinic'
loop_
_space_group_symop_operation_xyz
x,y,z
-x,y,1/2-z
-x,-y,-z
x,-y,1/2+z
1/2+x,1/2+y,z
1/2-x,1/2+y,1/2-z
1/2-x,1/2-y,-z
1/2+x,1/2-y,1/2+z
loop_
_atom_site_type_symbol
_atom_site_label
_atom_site_fract_x
_atom_site_fract_y
_atom_site_fract_z
Si Si1 0.500000 0.803145 0.750000
Si Si2 0.794238 0.224367 0.647219
Si Si3 0.841690 0.528927 0.576787
Si Si4 0.456516 0.364962 0.438180
Si Si5 0.368310 0.535696 0.123191
Si Si6 0.142374 0.352314 0.413681
O O1 0.363393 0.764953 0.748455
O O2 0.519015 0.839582 0.589548
O O3 0.750000 0.250000 0.500000
O O4 0.657237 0.191349 0.773949
O O5 0.925332 0.180591 0.573329
O O6 0.775514 0.541461 0.433149
O O7 0.710190 0.492729 0.701242
O O8 0.860247 0.587159 0.647587
O O9 0.000000 0.500000 0.500000
O O10 0.500000 0.391221 0.250000
O O11 0.441230 0.406089 0.585768
O O12 0.294001 0.343966 0.456452
O O13 0.500000 0.500000 0.000000
#
# Coordination Sequence:
#
# PCOD9296600 Si02
#       6
#     4   8   8   8   8   8
#     4  12  24  44  72  92 140 190 232 282 360 424
#     4  11  23  44  72 106 136 181 237 303 353 419
#     4  11  25  44  69 103 147 182 237 294 364 426
#     4   9  19  41  69  94 137 181 232 281 352 429
#     4  11  21  41  71  98 134 190 233 293 354 426
#     4  10  23  45  69  95 139 189 227 284 364 429
#
# _framework density 22.899404000000001
#
# number of rings (size 3 to 8) (size 9 to 14) (size 15 to 20)
#    0.000    1.455    2.727    4.909    5.091    0.727 
#    9.818    3.636    0.000    0.000    0.000    0.000 
#    0.000    0.000    0.000    0.000    0.000    0.000 
#
# Total GULP energy -122754.315061 kJ/mol
# GULP energy per Si atom -5579.741594 kJ/mol
# Density = 2.284728 g / cm^3
# Si number density = 22.899404 Si / 1000 Ang^3
#
#
#
# Elastic Constant Matrix: (Units=GPa)
#
#
# Indices 1 2 3 4 5 6 
#
# 1 81.2875 23.3356 13.5570 0.0000 -5.2486 0.0000
# 2 23.3356 101.5323 63.7087 0.0000 -6.3372 0.0000
# 3 13.5570 63.7087 91.1447 0.0000 -5.5182 0.0000
# 4 0.0000 0.0000 0.0000 39.3520 0.0000 -7.1430
# 5 -5.2486 -6.3372 -5.5182 0.0000 40.7277 0.0000
# 6 0.0000 0.0000 0.0000 -7.1430 0.0000 28.1753
#
#
#
# Elastic Compliance Matrix: (Units=1/GPa)
#
#
# Indices 1 2 3 4 5 6 
#
# 1 0.013238 -0.003164 0.000319 0.000000 0.001257 0.000000
# 2 -0.003164 0.018347 -0.012306 0.000000 0.000780 0.000000
# 3 0.000319 -0.012306 0.019573 0.000000 0.000778 0.000000
# 4 0.000000 0.000000 0.000000 0.026637 0.000000 0.006753
# 5 0.001257 0.000780 0.000778 0.000000 0.024942 0.000000
# 6 0.000000 0.000000 0.000000 0.006753 0.000000 0.037204
#
#
# Mechanical properties :
#
#
# Convention : Reuss Voigt Hill
#
# Bulk Modulus (GPa) = 47.95046 52.79635 50.37340
# Shear Modulus (GPa) = 28.21714 33.20854 30.71284
#
# Velocity S-wave (km/s) = 3.51411 3.81227 3.66622
# Velocity P-wave (km/s) = 6.11967 6.51795 6.32195
#
# Compressibility (1/GPa) = 0.02085486
#
# Stress axis : x y z
#
# Youngs Moduli (GPa) = 75.53797 54.50524 51.09027
#
# Poissons Ratio (x) = 0.17246 -0.01628
# Poissons Ratio (y) = 0.23901 0.62873
# Poissons Ratio (z) = -0.02407 0.67076
#
# Static dielectric constant tensor:
#      x y z
#    x 1.866260 0.000000 0.009850 
#    y 0.000000 1.940500 0.000000 
#    z 0.009850 0.000000 1.997430 
# 
# From -- ./inp_files/31849.got.cif
#   From: 2010.05.17/outbox.cif.g08.bks.cpg/sg15_16_cif.got.tgz:31849.got - 2010.06.03 18:47:42.
