data_PCOD9296041
_publ_section_title
;
Structure prediction by ZEFSAII (Michael W. Deem and Ramdas Pophale) SiO2 
 PCOD9296041
Probable space group: C 2/C
;
_chemical_formula_sum "Si O2"
_cell_formula_units_Z 40
_cell_length_a 11.721787
_cell_length_b 9.799046
_cell_length_c 14.061948
_cell_angle_alpha 90.000000
_cell_angle_beta 108.750646
_cell_angle_gamma 90.000000
_cell_volume 1529.464434
_symmetry_space_group_name_H-M "C 2/C"
_symmetry_group_IT_number 15
_symmetry_cell_setting 'monoclinic'
loop_
_space_group_symop_operation_xyz
x,y,z
-x,y,1/2-z
-x,-y,-z
x,-y,1/2+z
1/2+x,1/2+y,z
1/2-x,1/2+y,1/2-z
1/2-x,1/2-y,-z
1/2+x,1/2-y,1/2+z
loop_
_atom_site_type_symbol
_atom_site_label
_atom_site_fract_x
_atom_site_fract_y
_atom_site_fract_z
Si Si1 0.500000 0.617223 0.250000
Si Si2 0.806972 0.657933 0.756006
Si Si3 0.058716 0.367736 0.565630
Si Si4 0.118848 0.913084 0.046328
Si Si5 0.500000 0.928748 0.750000
Si Si6 0.786601 0.024078 0.601731
O O1 0.602899 0.714693 0.232975
O O2 0.578599 0.516831 0.335671
O O3 0.685432 0.628123 0.662135
O O4 0.890912 0.531882 0.744028
O O5 0.762695 0.652960 0.854172
O O6 0.071949 0.237447 0.501153
O O7 0.196940 0.409392 0.618596
O O8 0.000000 0.500000 0.500000
O O9 0.992087 0.345310 0.648733
O O10 0.217188 0.996017 0.011026
O O11 0.000000 0.000000 0.000000
#
# Coordination Sequence:
#
# PCOD9296041 Si02
#       6
#     4   8   8   8   4   8
#     4  11  22  44  75 100 142 197 251 304 370 447
#     4  10  23  44  66 105 142 187 245 306 369 432
#     4  11  24  44  72 106 144 195 246 303 369 450
#     4  12  26  45  69 108 150 190 247 308 373 444
#     4   9  22  42  69  98 142 185 243 304 368 431
#     4  11  24  43  74 101 143 194 248 304 369 444
#
# _framework density 26.152946
#
# number of rings (size 3 to 8) (size 9 to 14) (size 15 to 20)
#    0.000    1.200    2.000    3.000    8.400    1.600 
#    0.000    2.000    0.000    0.000    0.000    0.000 
#    0.000    0.000    0.000    0.000    0.000    0.000 
#
# Total GULP energy -111493.068888 kJ/mol
# GULP energy per Si atom -5574.653444 kJ/mol
# Density = 2.609342 g / cm^3
# Si number density = 26.152946 Si / 1000 Ang^3
#
#
#
# Elastic Constant Matrix: (Units=GPa)
#
#
# Indices 1 2 3 4 5 6 
#
# 1 135.6765 41.7480 34.0793 0.0000 -3.6964 0.0000
# 2 41.7480 45.6016 1.5329 0.0000 14.2407 0.0000
# 3 34.0793 1.5329 73.2818 0.0000 -9.8749 0.0000
# 4 0.0000 0.0000 0.0000 16.0449 0.0000 -0.3503
# 5 -3.6964 14.2407 -9.8749 0.0000 62.5196 0.0000
# 6 0.0000 0.0000 0.0000 -0.3503 0.0000 27.2982
#
#
#
# Elastic Compliance Matrix: (Units=1/GPa)
#
#
# Indices 1 2 3 4 5 6 
#
# 1 0.012456 -0.012061 -0.005181 0.000000 0.002665 0.000000
# 2 -0.012061 0.035400 0.003766 0.000000 -0.008182 0.000000
# 3 -0.005181 0.003766 0.016164 0.000000 0.001389 0.000000
# 4 0.000000 0.000000 0.000000 0.062342 0.000000 0.000800
# 5 0.002665 -0.008182 0.001389 0.000000 0.018236 0.000000
# 6 0.000000 0.000000 0.000000 0.000800 0.000000 0.036643
#
#
# Mechanical properties :
#
#
# Convention : Reuss Voigt Hill
#
# Bulk Modulus (GPa) = 26.97858 45.47559 36.22708
# Shear Modulus (GPa) = 22.67083 32.98587 27.82835
#
# Velocity S-wave (km/s) = 2.94744 3.55529 3.26553
# Velocity P-wave (km/s) = 4.68201 5.85487 5.30098
#
# Compressibility (1/GPa) = 0.03706645
#
# Stress axis : x y z
#
# Youngs Moduli (GPa) = 80.28407 28.24897 61.86689
#
# Poissons Ratio (x) = 0.34072 0.32053
# Poissons Ratio (y) = 0.96834 -0.23300
# Poissons Ratio (z) = 0.41595 -0.10639
#
# Static dielectric constant tensor:
#      x y z
#    x 2.083490 0.000000 -0.109920 
#    y 0.000000 2.135100 0.000000 
#    z -0.109920 0.000000 2.325280 
# 
# From -- ./inp_files/142398.got.cif
#   From: 2010.05.17/outbox.cif.g08.bks.cpg/sg15_72_cif.got.tgz:142398.got - 2010.06.03 18:47:42.
