data_PCOD9296128
_publ_section_title
;
Structure prediction by ZEFSAII (Michael W. Deem and Ramdas Pophale) SiO2 
 PCOD9296128
Probable space group: C 2/C
;
_chemical_formula_sum "Si O2"
_cell_formula_units_Z 56
_cell_length_a 23.885744
_cell_length_b 5.544576
_cell_length_c 16.757892
_cell_angle_alpha 90.000000
_cell_angle_beta 98.366646
_cell_angle_gamma 90.000000
_cell_volume 2195.733473
_symmetry_space_group_name_H-M "C 2/C"
_symmetry_group_IT_number 15
_symmetry_cell_setting 'monoclinic'
loop_
_space_group_symop_operation_xyz
x,y,z
-x,y,1/2-z
-x,-y,-z
x,-y,1/2+z
1/2+x,1/2+y,z
1/2-x,1/2+y,1/2-z
1/2-x,1/2-y,-z
1/2+x,1/2-y,1/2+z
loop_
_atom_site_type_symbol
_atom_site_label
_atom_site_fract_x
_atom_site_fract_y
_atom_site_fract_z
Si Si1 0.073119 0.284661 0.794074
Si Si2 0.891718 0.785865 0.771733
Si Si3 0.261563 0.241897 0.713980
Si Si4 0.000187 0.295996 0.933300
Si Si5 0.669320 0.298843 0.441372
Si Si6 0.403148 0.477878 0.948107
Si Si7 0.279957 0.069266 0.447224
O O1 0.081507 0.528224 0.744969
O O2 0.976998 0.329881 0.651853
O O3 0.128943 0.257199 0.860644
O O4 0.072952 0.018907 0.752806
O O5 0.829158 0.784025 0.717748
O O6 0.887091 0.820792 0.866841
O O7 0.246000 0.461535 0.769263
O O8 0.216517 0.297821 0.634953
O O9 0.935795 0.204956 0.918966
O O10 0.000000 0.500000 0.000000
O O11 0.047793 0.123568 0.982819
O O12 0.646840 0.502704 0.498217
O O13 0.731619 0.362370 0.423628
O O14 0.670017 0.065524 0.498761
O O15 0.250000 0.250000 0.500000
#
# Coordination Sequence:
#
# PCOD9296128 Si02
#       7
#     8   8   8   8   8   8   8
#     4  11  26  47  73 102 145 185 234 296 358 427
#     4  12  26  47  71 107 146 187 233 296 365 422
#     4  12  27  45  69 104 150 188 234 294 355 420
#     4  10  25  48  74 100 136 183 237 296 358 431
#     4  10  23  44  68 102 138 192 241 290 346 427
#     4  10  25  45  71 104 136 183 236 295 357 428
#     4  11  24  40  71 100 140 193 245 285 346 424
#
# _framework density 25.504006
#
# number of rings (size 3 to 8) (size 9 to 14) (size 15 to 20)
#    0.000    1.143    1.429    2.571   14.000    1.714 
#    0.000    0.000    0.000    0.000    0.000    0.000 
#    0.000    0.000    0.000    0.000    0.000    0.000 
#
# Total GULP energy -156424.652396 kJ/mol
# GULP energy per Si atom -5586.594728 kJ/mol
# Density = 2.544596 g / cm^3
# Si number density = 25.504006 Si / 1000 Ang^3
#
#
#
# Elastic Constant Matrix: (Units=GPa)
#
#
# Indices 1 2 3 4 5 6 
#
# 1 70.1806 39.1424 -10.2953 0.0000 -6.2396 0.0000
# 2 39.1424 125.7176 35.1025 0.0000 -17.8830 0.0000
# 3 -10.2953 35.1025 90.2742 0.0000 -0.8193 0.0000
# 4 0.0000 0.0000 0.0000 52.8376 0.0000 -4.1247
# 5 -6.2396 -17.8830 -0.8193 0.0000 41.3322 0.0000
# 6 0.0000 0.0000 0.0000 -4.1247 0.0000 33.8342
#
#
#
# Elastic Compliance Matrix: (Units=1/GPa)
#
#
# Indices 1 2 3 4 5 6 
#
# 1 0.019087 -0.007382 0.005045 0.000000 -0.000212 0.000000
# 2 -0.007382 0.012415 -0.005632 0.000000 0.004145 0.000000
# 3 0.005045 -0.005632 0.013830 0.000000 -0.001401 0.000000
# 4 0.000000 0.000000 0.000000 0.019108 0.000000 0.002329
# 5 -0.000212 0.004145 -0.001401 0.000000 0.025928 0.000000
# 6 0.000000 0.000000 0.000000 0.002329 0.000000 0.029840
#
#
# Mechanical properties :
#
#
# Convention : Reuss Voigt Hill
#
# Bulk Modulus (GPa) = 34.01872 46.00796 40.01334
# Shear Modulus (GPa) = 34.26007 40.41566 37.33786
#
# Velocity S-wave (km/s) = 3.66911 3.98512 3.83038
# Velocity P-wave (km/s) = 5.59619 6.26527 5.94016
#
# Compressibility (1/GPa) = 0.02939558
#
# Stress axis : x y z
#
# Youngs Moduli (GPa) = 52.39082 80.54900 72.30733
#
# Poissons Ratio (x) = 0.59460 -0.36481
# Poissons Ratio (y) = 0.38674 0.40721
# Poissons Ratio (z) = -0.26432 0.45362
#
# Static dielectric constant tensor:
#      x y z
#    x 2.205680 0.000000 -0.029280 
#    y 0.000000 2.476310 0.000000 
#    z -0.029280 0.000000 2.067240 
# 
# From -- ./inp_files/223959.got.cif
#   From: 2010.05.17/outbox.cif.g08.bks.cpg/sg15_112_cif.got.tgz:223959.got - 2010.06.03 18:47:42.
