data_PCOD9296983
_publ_section_title
;
Structure prediction by ZEFSAII (Michael W. Deem and Ramdas Pophale) SiO2 
 PCOD9296983
Probable space group: C 2/C
;
_chemical_formula_sum "Si O2"
_cell_formula_units_Z 48
_cell_length_a 20.533186
_cell_length_b 7.366420
_cell_length_c 31.005225
_cell_angle_alpha 90.000000
_cell_angle_beta 24.189961
_cell_angle_gamma 90.000000
_cell_volume 1921.678231
_symmetry_space_group_name_H-M "C 2/C"
_symmetry_group_IT_number 15
_symmetry_cell_setting 'monoclinic'
loop_
_space_group_symop_operation_xyz
x,y,z
-x,y,1/2-z
-x,-y,-z
x,-y,1/2+z
1/2+x,1/2+y,z
1/2-x,1/2+y,1/2-z
1/2-x,1/2-y,-z
1/2+x,1/2-y,1/2+z
loop_
_atom_site_type_symbol
_atom_site_label
_atom_site_fract_x
_atom_site_fract_y
_atom_site_fract_z
Si Si1 0.211653 0.549960 0.181722
Si Si2 0.144567 0.600124 0.889665
Si Si3 0.251361 0.820351 0.934421
Si Si4 0.987834 0.449155 0.611908
Si Si5 0.304024 0.466860 0.950775
Si Si6 0.098871 0.837530 0.734738
O O1 0.357010 0.682173 0.106910
O O2 0.179774 0.620587 0.152502
O O3 0.088193 0.582796 0.295451
O O4 0.202219 0.982068 0.178678
O O5 0.138854 0.533097 0.843901
O O6 0.000000 0.500000 0.000000
O O7 0.927228 0.267760 0.958626
O O8 0.241830 0.986685 0.972995
O O9 0.345110 0.659372 0.902356
O O10 0.143149 0.579252 0.522176
O O11 0.787770 0.333487 0.324620
O O12 0.455567 0.343649 0.855273
O O13 0.000000 0.827118 0.750000
#
# Coordination Sequence:
#
# PCOD9296983 Si02
#       6
#     8   8   8   8   8   8
#     4  12  27  45  77 113 150 207 269 316 395 473
#     4  12  26  53  76 106 163 203 253 330 398 466
#     4   9  20  45  77 114 157 202 260 322 394 466
#     4  10  23  46  79 112 153 215 252 330 401 469
#     4   9  21  47  77 113 157 204 256 332 399 457
#     4  12  28  46  78 118 149 204 268 324 391 482
#
# _framework density 24.978166999999999
#
# number of rings (size 3 to 8) (size 9 to 14) (size 15 to 20)
#    1.000    0.333    1.667    3.000    4.667    2.000 
#    3.000    0.000    0.000    0.000    0.000    0.000 
#    0.000    0.000    0.000    0.000    0.000    0.000 
#
# Total GULP energy -134005.945005 kJ/mol
# GULP energy per Si atom -5583.581042 kJ/mol
# Density = 2.492132 g / cm^3
# Si number density = 24.978167 Si / 1000 Ang^3
#
#
#
# Elastic Constant Matrix: (Units=GPa)
#
#
# Indices 1 2 3 4 5 6 
#
# 1 90.2209 26.8611 34.3815 0.0194 17.7004 -0.0016
# 2 26.8611 108.4403 24.1652 -0.0123 5.0133 -0.1265
# 3 34.3815 24.1652 103.7177 0.0122 22.6424 -0.0091
# 4 0.0194 -0.0123 0.0122 37.4125 -0.0059 -2.4831
# 5 17.7004 5.0133 22.6424 -0.0059 45.2853 -0.0523
# 6 -0.0016 -0.1265 -0.0091 -2.4831 -0.0523 -13.0171
#
#
#
# Elastic Compliance Matrix: (Units=1/GPa)
#
#
# Indices 1 2 3 4 5 6 
#
# 1 0.013742 -0.002529 -0.003205 -0.000005 -0.003489 0.000040
# 2 -0.002529 0.010192 -0.001690 -0.000001 0.000705 -0.000100
# 3 -0.003205 -0.001690 0.012105 -0.000002 -0.004613 0.000027
# 4 -0.000005 -0.000001 -0.000002 0.026395 0.000000 -0.005035
# 5 -0.003489 0.000705 -0.004613 0.000000 0.025674 -0.000107
# 6 0.000040 -0.000100 0.000027 -0.005035 -0.000107 -0.075860
#
#
# Mechanical properties :
#
#
# Convention : Reuss Voigt Hill
#
# Bulk Modulus (GPa) = 47.18776 52.57715 49.88246
# Shear Modulus (GPa) = 146.37384 28.40090 87.38737
#
# Velocity S-wave (km/s) = 7.66341 3.37564 5.92127
# Velocity P-wave (km/s) = 9.86086 6.02397 8.17082
#
# Compressibility (1/GPa) = 0.02119194
#
# Stress axis : x y z
#
# Youngs Moduli (GPa) = 72.76696 98.11639 82.61279
#
# Poissons Ratio (x) = 0.24809 0.26475
# Poissons Ratio (y) = 0.18400 0.13965
# Poissons Ratio (z) = 0.23319 0.16585
#
# Static dielectric constant tensor:
#      x y z
#    x 1.988570 -0.000130 0.005560 
#    y -0.000130 2.722130 -0.000500 
#    z 0.005560 -0.000500 1.977050 
# 
# From -- ./inp_files/300474.got.cif
#   From: 2010.05.17/outbox.cif.g08.bks.cpg/sg15_151_cif.got.tgz:300474.got - 2010.06.03 18:47:42.
