data_PCOD9296410
_publ_section_title
;
Structure prediction by ZEFSAII (Michael W. Deem and Ramdas Pophale) SiO2 
 PCOD9296410
Probable space group: C 2/C
;
_chemical_formula_sum "Si O2"
_cell_formula_units_Z 44
_cell_length_a 5.459450
_cell_length_b 26.089115
_cell_length_c 16.028085
_cell_angle_alpha 90.000000
_cell_angle_beta 114.417776
_cell_angle_gamma 90.000000
_cell_volume 2078.721346
_symmetry_space_group_name_H-M "C 2/C"
_symmetry_group_IT_number 15
_symmetry_cell_setting 'monoclinic'
loop_
_space_group_symop_operation_xyz
x,y,z
-x,y,1/2-z
-x,-y,-z
x,-y,1/2+z
1/2+x,1/2+y,z
1/2-x,1/2+y,1/2-z
1/2-x,1/2-y,-z
1/2+x,1/2-y,1/2+z
loop_
_atom_site_type_symbol
_atom_site_label
_atom_site_fract_x
_atom_site_fract_y
_atom_site_fract_z
Si Si1 0.063948 0.419149 0.978290
Si Si2 0.912491 0.911892 0.329914
Si Si3 0.782694 0.477105 0.067086
Si Si4 0.422650 0.262970 0.606033
Si Si5 0.031585 0.676719 0.352357
Si Si6 0.500000 0.821720 0.250000
O O1 0.034242 0.473770 0.925767
O O2 0.041783 0.373523 0.910905
O O3 0.334402 0.410915 0.071227
O O4 0.843012 0.427390 0.018871
O O5 0.726744 0.955916 0.342315
O O6 0.754192 0.858602 0.301090
O O7 0.000000 0.925996 0.250000
O O8 0.500000 0.500000 0.000000
O O9 0.250000 0.250000 0.500000
O O10 0.683032 0.293595 0.609065
O O11 0.528732 0.213800 0.672485
O O12 0.219043 0.291274 0.643130
O O13 0.000000 0.664280 0.250000
#
# Coordination Sequence:
#
# PCOD9296410 Si02
#       6
#     8   8   8   8   8   4
#     4  10  23  44  73  99 147 191 232 301 370 449
#     4  11  24  40  70 104 141 182 244 300 369 436
#     4   9  21  45  67 103 140 181 239 288 366 443
#     4  12  28  48  75 104 146 194 248 307 371 430
#     4  12  26  50  71 109 146 189 248 299 367 447
#     4  12  26  44  70 100 146 182 252 302 362 434
#
# _framework density 21.16686
#
# number of rings (size 3 to 8) (size 9 to 14) (size 15 to 20)
#    0.000    1.091    1.818    2.727   12.727    0.000 
#   11.455    0.000    0.000    0.000    0.000    0.000 
#    0.000    0.000    0.000    0.000    0.000    0.000 
#
# Total GULP energy -122782.767152 kJ/mol
# GULP energy per Si atom -5581.034871 kJ/mol
# Density = 2.111868 g / cm^3
# Si number density = 21.166860 Si / 1000 Ang^3
#
#
#
# Elastic Constant Matrix: (Units=GPa)
#
#
# Indices 1 2 3 4 5 6 
#
# 1 119.1671 56.0385 47.8359 0.0000 -18.6514 0.0000
# 2 56.0385 122.5647 89.1768 0.0000 -17.0093 0.0000
# 3 47.8359 89.1768 136.5041 0.0000 -4.8829 0.0000
# 4 0.0000 0.0000 0.0000 56.7640 0.0000 -20.1606
# 5 -18.6514 -17.0093 -4.8829 0.0000 43.6725 0.0000
# 6 0.0000 0.0000 0.0000 -20.1606 0.0000 39.7579
#
#
#
# Elastic Compliance Matrix: (Units=1/GPa)
#
#
# Indices 1 2 3 4 5 6 
#
# 1 0.011171 -0.003618 -0.001436 0.000000 0.003201 0.000000
# 2 -0.003618 0.017862 -0.010249 0.000000 0.004266 0.000000
# 3 -0.001436 -0.010249 0.014417 0.000000 -0.002993 0.000000
# 4 0.000000 0.000000 0.000000 0.021486 0.000000 0.010895
# 5 0.003201 0.004266 -0.002993 0.000000 0.025591 0.000000
# 6 0.000000 0.000000 0.000000 0.010895 0.000000 0.030677
#
#
# Mechanical properties :
#
#
# Convention : Reuss Voigt Hill
#
# Bulk Modulus (GPa) = 77.85827 84.92649 81.39238
# Shear Modulus (GPa) = 32.03237 40.38452 36.20845
#
# Velocity S-wave (km/s) = 3.89437 4.37270 4.14045
# Velocity P-wave (km/s) = 7.55542 8.10577 7.83543
#
# Compressibility (1/GPa) = 0.01284385
#
# Stress axis : x y z
#
# Youngs Moduli (GPa) = 89.52102 55.98530 69.36079
#
# Poissons Ratio (x) = 0.20255 0.09964
# Poissons Ratio (y) = 0.32388 0.71084
# Poissons Ratio (z) = 0.12860 0.57377
#
# Static dielectric constant tensor:
#      x y z
#    x 1.874800 0.000000 -0.023670 
#    y 0.000000 1.782970 0.000000 
#    z -0.023670 0.000000 1.742180 
# 
# From -- ./inp_files/129480.got.cif
#   From: 2010.05.17/outbox.cif.g08.bks.cpg/sg15_65_cif.got.tgz:129480.got - 2010.06.03 18:47:42.
