data_PCOD9296807
_publ_section_title
;
Structure prediction by ZEFSAII (Michael W. Deem and Ramdas Pophale) SiO2 
 PCOD9296807
Probable space group: C 2/C
;
_chemical_formula_sum "Si O2"
_cell_formula_units_Z 56
_cell_length_a 11.555916
_cell_length_b 8.294497
_cell_length_c 27.273320
_cell_angle_alpha 90.000000
_cell_angle_beta 108.599672
_cell_angle_gamma 90.000000
_cell_volume 2477.624602
_symmetry_space_group_name_H-M "C 2/C"
_symmetry_group_IT_number 15
_symmetry_cell_setting 'monoclinic'
loop_
_space_group_symop_operation_xyz
x,y,z
-x,y,1/2-z
-x,-y,-z
x,-y,1/2+z
1/2+x,1/2+y,z
1/2-x,1/2+y,1/2-z
1/2-x,1/2-y,-z
1/2+x,1/2-y,1/2+z
loop_
_atom_site_type_symbol
_atom_site_label
_atom_site_fract_x
_atom_site_fract_y
_atom_site_fract_z
Si Si1 0.534277 0.155288 0.536154
Si Si2 0.331322 0.688271 0.055948
Si Si3 0.445204 0.660687 0.556307
Si Si4 0.206688 0.848888 0.125389
Si Si5 0.857304 0.594343 0.742496
Si Si6 0.862329 0.780956 0.220700
Si Si7 0.775020 0.294541 0.602014
O O1 0.446238 0.191775 0.569356
O O2 0.521388 0.301113 0.494954
O O3 0.668408 0.168951 0.575468
O O4 0.500000 0.000000 0.500000
O O5 0.379311 0.509168 0.054197
O O6 0.259947 0.716194 0.096067
O O7 0.250000 0.750000 0.000000
O O8 0.562462 0.670743 0.606797
O O9 0.354992 0.797281 0.563863
O O10 0.278073 0.846758 0.185500
O O11 0.225295 0.027686 0.105507
O O12 0.863994 0.400206 0.742956
O O13 0.764989 0.642806 0.774958
O O14 0.000000 0.647690 0.750000
O O15 0.846142 0.762762 0.159938
O O16 0.000000 0.851675 0.250000
#
# Coordination Sequence:
#
# PCOD9296807 Si02
#       7
#     8   8   8   8   8   8   8
#     4  12  24  42  64  95 133 172 216 267 326 389
#     4  12  23  40  65  94 131 172 215 265 318 383
#     4  12  24  43  64  94 132 170 220 265 319 393
#     4  11  24  43  65  95 131 174 216 270 330 388
#     4  10  24  42  68  98 132 169 220 278 330 395
#     4  10  23  46  67  98 133 170 219 275 333 391
#     4  11  24  42  67  94 132 173 216 266 326 393
#
# _framework density 22.602291999999998
#
# number of rings (size 3 to 8) (size 9 to 14) (size 15 to 20)
#    0.000    0.857    2.857    4.286    2.000    1.714 
#    2.571    0.000    0.000    0.000    0.000    0.000 
#    0.000    0.000    0.000    0.000    0.000    0.000 
#
# Total GULP energy -156416.735592 kJ/mol
# GULP energy per Si atom -5586.311985 kJ/mol
# Density = 2.255085 g / cm^3
# Si number density = 22.602292 Si / 1000 Ang^3
#
#
#
# Elastic Constant Matrix: (Units=GPa)
#
#
# Indices 1 2 3 4 5 6 
#
# 1 124.8564 16.2158 14.2870 0.0000 9.1623 0.0000
# 2 16.2158 70.5203 10.8984 0.0000 -2.7051 0.0000
# 3 14.2870 10.8984 44.2468 0.0000 10.7772 0.0000
# 4 0.0000 0.0000 0.0000 18.6065 0.0000 -7.6577
# 5 9.1623 -2.7051 10.7772 0.0000 43.7249 0.0000
# 6 0.0000 0.0000 0.0000 -7.6577 0.0000 38.2306
#
#
#
# Elastic Compliance Matrix: (Units=1/GPa)
#
#
# Indices 1 2 3 4 5 6 
#
# 1 0.008564 -0.001714 -0.002000 0.000000 -0.001408 0.000000
# 2 -0.001714 0.015238 -0.003741 0.000000 0.002224 0.000000
# 3 -0.002000 -0.003741 0.025663 0.000000 -0.006138 0.000000
# 4 0.000000 0.000000 0.000000 0.058573 0.000000 0.011732
# 5 -0.001408 0.002224 -0.006138 0.000000 0.024816 0.000000
# 6 0.000000 0.000000 0.000000 0.011732 0.000000 0.028507
#
#
# Mechanical properties :
#
#
# Convention : Reuss Voigt Hill
#
# Bulk Modulus (GPa) = 28.94088 35.82510 32.38299
# Shear Modulus (GPa) = 26.62547 33.32721 29.97634
#
# Velocity S-wave (km/s) = 3.43592 3.84409 3.64573
# Velocity P-wave (km/s) = 5.34537 5.96551 5.66393
#
# Compressibility (1/GPa) = 0.03455320
#
# Stress axis : x y z
#
# Youngs Moduli (GPa) = 116.76788 65.62536 38.96681
#
# Poissons Ratio (x) = 0.11249 0.07794
# Poissons Ratio (y) = 0.20016 0.14579
# Poissons Ratio (z) = 0.23356 0.24554
#
# Static dielectric constant tensor:
#      x y z
#    x 1.965750 0.000000 -0.001780 
#    y 0.000000 1.846690 0.000000 
#    z -0.001780 0.000000 1.813690 
# 
# From -- ./inp_files/291632.got.cif
#   From: 2010.05.17/outbox.cif.g08.bks.cpg/sg15_146_cif.got.tgz:291632.got - 2010.06.03 18:47:42.
