data_PCOD9296550
_publ_section_title
;
Structure prediction by ZEFSAII (Michael W. Deem and Ramdas Pophale) SiO2 
 PCOD9296550
Probable space group: C 2/C
;
_chemical_formula_sum "Si O2"
_cell_formula_units_Z 48
_cell_length_a 14.500513
_cell_length_b 11.793305
_cell_length_c 14.852753
_cell_angle_alpha 90.000000
_cell_angle_beta 82.266958
_cell_angle_gamma 90.000000
_cell_volume 2516.855093
_symmetry_space_group_name_H-M "C 2/C"
_symmetry_group_IT_number 15
_symmetry_cell_setting 'monoclinic'
loop_
_space_group_symop_operation_xyz
x,y,z
-x,y,1/2-z
-x,-y,-z
x,-y,1/2+z
1/2+x,1/2+y,z
1/2-x,1/2+y,1/2-z
1/2-x,1/2-y,-z
1/2+x,1/2-y,1/2+z
loop_
_atom_site_type_symbol
_atom_site_label
_atom_site_fract_x
_atom_site_fract_y
_atom_site_fract_z
Si Si1 0.081059 0.501083 0.418049
Si Si2 0.000000 0.009642 0.750000
Si Si3 0.000000 0.597394 0.250000
Si Si4 0.810909 0.267072 0.081622
Si Si5 0.658761 0.757334 0.951359
Si Si6 0.850715 0.207828 0.755226
Si Si7 0.507601 0.612604 0.438296
O O1 0.032870 0.520537 0.328010
O O2 0.138568 0.387754 0.421927
O O3 0.141016 0.611329 0.432609
O O4 0.000000 0.500000 0.500000
O O5 0.003946 0.930855 0.661876
O O6 0.910611 0.094248 0.766741
O O7 0.084595 0.685559 0.223984
O O8 0.742670 0.272511 0.176406
O O9 0.891829 0.172670 0.069965
O O10 0.750000 0.250000 0.000000
O O11 0.666545 0.705200 0.849947
O O12 0.750000 0.750000 0.000000
O O13 0.571574 0.698909 0.014378
O O14 0.500000 0.500000 0.500000
#
# Coordination Sequence:
#
# PCOD9296550 Si02
#       7
#     8   4   4   8   8   8   8
#     4  11  23  44  68  95 133 178 221 282 337 394
#     4  11  24  41  76  96 148 175 231 278 350 412
#     4   9  22  43  68  92 134 177 223 274 338 400
#     4  12  27  42  71 102 137 176 237 277 346 409
#     4  11  26  45  70 100 140 178 232 280 344 404
#     4  10  23  45  68 100 134 184 224 280 344 411
#     4  12  26  47  70 102 138 188 226 285 342 412
#
# _framework density 19.071418999999999
#
# number of rings (size 3 to 8) (size 9 to 14) (size 15 to 20)
#    0.000    1.000    3.333    2.000    9.333    3.333 
#    0.000    0.000    0.000    0.000    0.000    0.000 
#    0.000    0.000    0.000    0.000    0.000    0.000 
#
# Total GULP energy -134048.811102 kJ/mol
# GULP energy per Si atom -5585.367129 kJ/mol
# Density = 1.902801 g / cm^3
# Si number density = 19.071419 Si / 1000 Ang^3
#
#
#
# Elastic Constant Matrix: (Units=GPa)
#
#
# Indices 1 2 3 4 5 6 
#
# 1 164.3524 73.1591 98.7005 0.0000 1.3591 0.0000
# 2 73.1591 125.9872 81.3178 0.0000 12.5911 0.0000
# 3 98.7005 81.3178 165.7904 0.0000 8.2072 0.0000
# 4 0.0000 0.0000 0.0000 34.1400 0.0000 7.2491
# 5 1.3591 12.5911 8.2072 0.0000 52.1212 0.0000
# 6 0.0000 0.0000 0.0000 7.2491 0.0000 19.2891
#
#
#
# Elastic Compliance Matrix: (Units=1/GPa)
#
#
# Indices 1 2 3 4 5 6 
#
# 1 0.010228 -0.003059 -0.004648 0.000000 0.001204 0.000000
# 2 -0.003059 0.012724 -0.004305 0.000000 -0.002316 0.000000
# 3 -0.004648 -0.004305 0.010938 0.000000 -0.000561 0.000000
# 4 0.000000 0.000000 0.000000 0.031831 0.000000 -0.011963
# 5 0.001204 -0.002316 -0.000561 0.000000 0.019803 0.000000
# 6 0.000000 0.000000 0.000000 -0.011963 0.000000 0.056338
#
#
# Mechanical properties :
#
#
# Convention : Reuss Voigt Hill
#
# Bulk Modulus (GPa) = 101.36622 106.94275 104.15449
# Shear Modulus (GPa) = 29.55532 34.64025 32.09779
#
# Velocity S-wave (km/s) = 3.94092 4.26648 4.10693
# Velocity P-wave (km/s) = 8.60081 8.97035 8.78752
#
# Compressibility (1/GPa) = 0.00986522
#
# Stress axis : x y z
#
# Youngs Moduli (GPa) = 97.77436 78.59210 91.42483
#
# Poissons Ratio (x) = 0.24045 0.42493
# Poissons Ratio (y) = 0.29914 0.39357
# Poissons Ratio (z) = 0.45444 0.33833
#
# Static dielectric constant tensor:
#      x y z
#    x 1.667280 0.000000 -0.014790 
#    y 0.000000 1.626660 0.000000 
#    z -0.014790 0.000000 1.685480 
# 
# From -- ./inp_files/151982.got.cif
#   From: 2010.05.17/outbox.cif.g08.bks.cpg/sg15_76_cif.got.tgz:151982.got - 2010.06.03 18:47:42.
