data_PCOD9296567
_publ_section_title
;
Structure prediction by ZEFSAII (Michael W. Deem and Ramdas Pophale) SiO2 
 PCOD9296567
Probable space group: C 2/C
;
_chemical_formula_sum "Si O2"
_cell_formula_units_Z 40
_cell_length_a 10.862131
_cell_length_b 8.956156
_cell_length_c 18.683886
_cell_angle_alpha 90.000000
_cell_angle_beta 98.258501
_cell_angle_gamma 90.000000
_cell_volume 1798.774758
_symmetry_space_group_name_H-M "C 2/C"
_symmetry_group_IT_number 15
_symmetry_cell_setting 'monoclinic'
loop_
_space_group_symop_operation_xyz
x,y,z
-x,y,1/2-z
-x,-y,-z
x,-y,1/2+z
1/2+x,1/2+y,z
1/2-x,1/2+y,1/2-z
1/2-x,1/2-y,-z
1/2+x,1/2-y,1/2+z
loop_
_atom_site_type_symbol
_atom_site_label
_atom_site_fract_x
_atom_site_fract_y
_atom_site_fract_z
Si Si1 0.254452 0.845014 0.395873
Si Si2 0.469771 0.264475 0.392444
Si Si3 0.266865 0.522959 0.378996
Si Si4 0.124523 0.488812 0.723360
Si Si5 0.845179 0.388604 0.003787
O O1 0.307428 0.680395 0.416057
O O2 0.307965 0.898685 0.324560
O O3 0.106905 0.817718 0.384958
O O4 0.288362 0.976875 0.452737
O O5 0.378268 0.405701 0.389408
O O6 0.459915 0.174800 0.467366
O O7 0.416936 0.154440 0.326787
O O8 0.217702 0.550961 0.295331
O O9 0.152659 0.452422 0.415800
O O10 0.000000 0.551485 0.750000
O O11 0.750000 0.250000 0.000000
#
# Coordination Sequence:
#
# PCOD9296567 Si02
#       5
#     8   8   8   8   8
#     4  11  23  44  67  95 131 173 220 264 326 391
#     4  10  23  45  68  90 134 174 214 272 326 388
#     4  11  22  40  67  97 128 171 220 262 331 385
#     4  11  23  44  62  92 134 170 215 275 324 381
#     4   9  22  43  65 100 133 171 215 270 323 390
#
# _framework density 22.237359000000001
#
# number of rings (size 3 to 8) (size 9 to 14) (size 15 to 20)
#    0.000    1.600    2.000    1.800    0.000    4.000 
#   18.000    0.000    0.000    0.000    0.000    0.000 
#    0.000    0.000    0.000    0.000    0.000    0.000 
#
# Total GULP energy -111866.836535 kJ/mol
# GULP energy per Si atom -5593.341827 kJ/mol
# Density = 2.218675 g / cm^3
# Si number density = 22.237359 Si / 1000 Ang^3
#
#
#
# Elastic Constant Matrix: (Units=GPa)
#
#
# Indices 1 2 3 4 5 6 
#
# 1 138.3109 84.9064 45.0213 0.0000 -35.2378 0.0000
# 2 84.9064 150.3436 66.1318 0.0000 -13.2975 0.0000
# 3 45.0213 66.1318 115.9037 0.0000 -22.4204 0.0000
# 4 0.0000 0.0000 0.0000 33.3241 0.0000 -12.2537
# 5 -35.2378 -13.2975 -22.4204 0.0000 39.7031 0.0000
# 6 0.0000 0.0000 0.0000 -12.2537 0.0000 36.1319
#
#
#
# Elastic Compliance Matrix: (Units=1/GPa)
#
#
# Indices 1 2 3 4 5 6 
#
# 1 0.014250 -0.007446 0.000761 0.000000 0.010583 0.000000
# 2 -0.007446 0.012772 -0.005440 0.000000 -0.005403 0.000000
# 3 0.000761 -0.005440 0.012590 0.000000 0.005962 0.000000
# 4 0.000000 0.000000 0.000000 0.034284 0.000000 0.011627
# 5 0.010583 -0.005403 0.005962 0.000000 0.036137 0.000000
# 6 0.000000 0.000000 0.000000 0.011627 0.000000 0.031620
#
#
# Mechanical properties :
#
#
# Convention : Reuss Voigt Hill
#
# Bulk Modulus (GPa) = 65.10416 88.51969 76.81193
# Shear Modulus (GPa) = 29.23600 35.73172 32.48386
#
# Velocity S-wave (km/s) = 3.62985 4.01288 3.82616
# Velocity P-wave (km/s) = 6.84896 7.83352 7.35773
#
# Compressibility (1/GPa) = 0.01536000
#
# Stress axis : x y z
#
# Youngs Moduli (GPa) = 70.17711 78.29895 79.42972
#
# Poissons Ratio (x) = 0.58301 -0.06041
# Poissons Ratio (y) = 0.52254 0.43210
# Poissons Ratio (z) = -0.05337 0.42595
#
# Static dielectric constant tensor:
#      x y z
#    x 1.813190 0.000000 -0.024870 
#    y 0.000000 1.809430 0.000000 
#    z -0.024870 0.000000 1.847800 
# 
# From -- ./inp_files/195053.got.cif
#   From: 2010.05.17/outbox.cif.g08.bks.cpg/sg15_98_cif.got.tgz:195053.got - 2010.06.03 18:47:42.
