data_PCOD9296598
_publ_section_title
;
Structure prediction by ZEFSAII (Michael W. Deem and Ramdas Pophale) SiO2 
 PCOD9296598
Probable space group: C 2/C
;
_chemical_formula_sum "Si O2"
_cell_formula_units_Z 48
_cell_length_a 9.854516
_cell_length_b 11.440523
_cell_length_c 22.800282
_cell_angle_alpha 90.000000
_cell_angle_beta 141.507593
_cell_angle_gamma 90.000000
_cell_volume 1599.921218
_symmetry_space_group_name_H-M "C 2/C"
_symmetry_group_IT_number 15
_symmetry_cell_setting 'monoclinic'
loop_
_space_group_symop_operation_xyz
x,y,z
-x,y,1/2-z
-x,-y,-z
x,-y,1/2+z
1/2+x,1/2+y,z
1/2-x,1/2+y,1/2-z
1/2-x,1/2-y,-z
1/2+x,1/2-y,1/2+z
loop_
_atom_site_type_symbol
_atom_site_label
_atom_site_fract_x
_atom_site_fract_y
_atom_site_fract_z
Si Si1 0.712522 0.276706 0.857696
Si Si2 0.614749 0.645851 0.040782
Si Si3 0.446844 0.036030 0.050922
Si Si4 0.259771 0.658716 0.680623
Si Si5 0.978967 0.041389 0.115662
Si Si6 0.084089 0.611197 0.210673
O O1 0.500000 0.238809 0.750000
O O2 0.898051 0.182089 0.933103
O O3 0.855317 0.371285 0.869534
O O4 0.630291 0.348311 0.887431
O O5 0.700565 0.762012 0.103397
O O6 0.525863 0.569767 0.064008
O O7 0.851256 0.596237 0.097202
O O8 0.539388 0.916196 0.113242
O O9 0.192375 0.060960 0.948579
O O10 0.500000 0.000000 0.000000
O O11 0.500000 0.599970 0.750000
O O12 0.316329 0.757466 0.748667
O O13 0.211080 0.023195 0.223172
O O14 0.000000 0.589785 0.250000
#
# Coordination Sequence:
#
# PCOD9296598 Si02
#       6
#     8   8   8   8   8   8
#     4  12  24  41  69 107 140 176 241 297 340 406
#     4  10  23  45  69  93 140 194 231 277 353 425
#     4  12  24  38  71 107 139 179 237 300 342 416
#     4   9  20  39  68  96 134 185 230 279 349 412
#     4  11  23  43  69  97 139 188 230 285 355 414
#     4  10  24  44  67 105 140 186 236 285 352 421
#
# _framework density 30.001477000000001
#
# number of rings (size 3 to 8) (size 9 to 14) (size 15 to 20)
#    0.000    1.333    3.333    3.000    2.333    2.667 
#    0.000    1.667    0.000    0.000    0.000    0.000 
#    0.000    0.000    0.000    0.000    0.000    0.000 
#
# Total GULP energy -134096.399153 kJ/mol
# GULP energy per Si atom -5587.349965 kJ/mol
# Density = 2.993319 g / cm^3
# Si number density = 30.001477 Si / 1000 Ang^3
#
#
#
# Elastic Constant Matrix: (Units=GPa)
#
#
# Indices 1 2 3 4 5 6 
#
# 1 110.3050 20.8088 64.2840 0.0000 49.8485 0.0000
# 2 20.8088 75.2821 69.9861 0.0000 8.0095 0.0000
# 3 64.2840 69.9861 338.3632 0.0000 20.7738 0.0000
# 4 0.0000 0.0000 0.0000 44.8360 0.0000 -14.6280
# 5 49.8485 8.0095 20.7738 0.0000 62.6989 0.0000
# 6 0.0000 0.0000 0.0000 -14.6280 0.0000 32.4109
#
#
#
# Elastic Compliance Matrix: (Units=1/GPa)
#
#
# Indices 1 2 3 4 5 6 
#
# 1 0.015768 -0.001233 -0.002022 0.000000 -0.011709 0.000000
# 2 -0.001233 0.016603 -0.003195 0.000000 -0.000082 0.000000
# 3 -0.002022 -0.003195 0.003957 0.000000 0.000704 0.000000
# 4 0.000000 0.000000 0.000000 0.026155 0.000000 0.011804
# 5 -0.011709 -0.000082 0.000704 0.000000 0.025035 0.000000
# 6 0.000000 0.000000 0.000000 0.011804 0.000000 0.036182
#
#
# Mechanical properties :
#
#
# Convention : Reuss Voigt Hill
#
# Bulk Modulus (GPa) = 42.68266 92.67866 67.68066
# Shear Modulus (GPa) = 34.62386 52.58058 43.60222
#
# Velocity S-wave (km/s) = 3.40085 4.19095 3.81640
# Velocity P-wave (km/s) = 5.44782 7.37409 6.48290
#
# Compressibility (1/GPa) = 0.02342872
#
# Stress axis : x y z
#
# Youngs Moduli (GPa) = 63.41910 60.22999 252.71247
#
# Poissons Ratio (x) = 0.07427 0.51093
# Poissons Ratio (y) = 0.07821 0.80737
# Poissons Ratio (z) = 0.12822 0.19242
#
# Static dielectric constant tensor:
#      x y z
#    x 2.353370 0.000000 0.164070 
#    y 0.000000 2.390660 0.000000 
#    z 0.164070 0.000000 2.015550 
# 
# From -- ./inp_files/293395.got.cif
#   From: 2010.05.17/outbox.cif.g08.bks.cpg/sg15_147_cif.got.tgz:293395.got - 2010.06.03 18:47:42.
