data_PCOD9296029
_publ_section_title
;
Structure prediction by ZEFSAII (Michael W. Deem and Ramdas Pophale) SiO2 
 PCOD9296029
Probable space group: C 2/C
;
_chemical_formula_sum "Si O2"
_cell_formula_units_Z 44
_cell_length_a 29.498756
_cell_length_b 7.660039
_cell_length_c 22.420063
_cell_angle_alpha 90.000000
_cell_angle_beta 21.662810
_cell_angle_gamma 90.000000
_cell_volume 1870.108669
_symmetry_space_group_name_H-M "C 2/C"
_symmetry_group_IT_number 15
_symmetry_cell_setting 'monoclinic'
loop_
_space_group_symop_operation_xyz
x,y,z
-x,y,1/2-z
-x,-y,-z
x,-y,1/2+z
1/2+x,1/2+y,z
1/2-x,1/2+y,1/2-z
1/2-x,1/2-y,-z
1/2+x,1/2-y,1/2+z
loop_
_atom_site_type_symbol
_atom_site_label
_atom_site_fract_x
_atom_site_fract_y
_atom_site_fract_z
Si Si1 0.642846 0.617363 0.382134
Si Si2 0.000000 0.590283 0.250000
Si Si3 0.384654 0.885703 0.283715
Si Si4 0.412587 0.004887 0.050631
Si Si5 0.394102 0.544484 0.212025
Si Si6 0.761760 0.779748 0.556807
O O1 0.609693 0.809382 0.443308
O O2 0.781887 0.579876 0.228289
O O3 0.635521 0.609509 0.318725
O O4 0.540325 0.488836 0.533435
O O5 0.923492 0.463388 0.299900
O O6 0.900260 0.719641 0.402479
O O7 0.348411 0.684756 0.316976
O O8 0.286294 0.022427 0.375855
O O9 0.512240 0.895952 0.091305
O O10 0.500000 0.000000 0.000000
O O11 0.328580 0.358918 0.301816
O O12 0.750000 0.750000 0.500000
#
# Coordination Sequence:
#
# PCOD9296029 Si02
#       6
#     8   4   8   8   8   8
#     4  11  25  41  71 106 146 181 234 296 360 435
#     4  10  24  44  70  96 140 188 238 300 354 406
#     4  11  23  45  70 100 141 183 238 293 350 432
#     4  12  24  43  69 109 142 188 237 287 368 435
#     4  11  23  46  71 103 140 187 235 295 364 426
#     4  10  23  44  65  98 136 183 237 294 345 417
#
# _framework density 23.528044000000001
#
# number of rings (size 3 to 8) (size 9 to 14) (size 15 to 20)
#    0.000    1.091    3.636    2.182    2.545    4.364 
#    0.000    4.545    0.000    0.000    0.000    0.000 
#    0.000    0.000    0.000    0.000    0.000    0.000 
#
# Total GULP energy -123086.143976 kJ/mol
# GULP energy per Si atom -5594.824726 kJ/mol
# Density = 2.347449 g / cm^3
# Si number density = 23.528044 Si / 1000 Ang^3
#
#
#
# Elastic Constant Matrix: (Units=GPa)
#
#
# Indices 1 2 3 4 5 6 
#
# 1 57.5384 9.5802 15.1572 -0.0001 -11.2696 0.0000
# 2 9.5802 114.6290 25.9998 0.0024 -13.7356 -0.0009
# 3 15.1572 25.9998 137.7854 0.0011 -29.1795 -0.0003
# 4 -0.0001 0.0024 0.0011 39.2383 0.0001 7.8921
# 5 -11.2696 -13.7356 -29.1795 0.0001 29.2753 -0.0001
# 6 0.0000 -0.0009 -0.0003 7.8921 -0.0001 23.3767
#
#
#
# Elastic Compliance Matrix: (Units=1/GPa)
#
#
# Indices 1 2 3 4 5 6 
#
# 1 0.018897 -0.000681 -0.000605 0.000000 0.006352 0.000000
# 2 -0.000681 0.009389 -0.001039 -0.000001 0.003108 0.000001
# 3 -0.000605 -0.001039 0.009339 0.000000 0.008588 0.000000
# 4 0.000000 -0.000001 0.000000 0.027342 -0.000001 -0.009231
# 5 0.006352 0.003108 0.008588 -0.000001 0.046622 0.000001
# 6 0.000000 0.000001 0.000000 -0.009231 0.000001 0.045894
#
#
# Mechanical properties :
#
#
# Convention : Reuss Voigt Hill
#
# Bulk Modulus (GPa) = 30.32610 45.71413 38.02012
# Shear Modulus (GPa) = 28.88123 35.65908 32.27015
#
# Velocity S-wave (km/s) = 3.50740 3.89729 3.70748
# Velocity P-wave (km/s) = 5.41478 6.30267 5.87552
#
# Compressibility (1/GPa) = 0.03297490
#
# Stress axis : x y z
#
# Youngs Moduli (GPa) = 52.91977 106.51144 107.07808
#
# Poissons Ratio (x) = 0.07253 0.06479
# Poissons Ratio (y) = 0.03604 0.11121
# Poissons Ratio (z) = 0.03202 0.11062
#
# Static dielectric constant tensor:
#      x y z
#    x 1.919080 0.000000 -0.004920 
#    y 0.000000 1.951740 0.000000 
#    z -0.004920 0.000000 1.894000 
# 
# From -- ./inp_files/284370.got.cif
#   From: 2010.05.17/outbox.cif.g08.bks.cpg/sg15_143_cif.got.tgz:284370.got - 2010.06.03 18:47:42.
