data_PCOD9296952
_publ_section_title
;
Structure prediction by ZEFSAII (Michael W. Deem and Ramdas Pophale) SiO2 
 PCOD9296952
Probable space group: C 2/C
;
_chemical_formula_sum "Si O2"
_cell_formula_units_Z 32
_cell_length_a 14.628426
_cell_length_b 10.830911
_cell_length_c 17.933105
_cell_angle_alpha 90.000000
_cell_angle_beta 26.627210
_cell_angle_gamma 90.000000
_cell_volume 1273.427167
_symmetry_space_group_name_H-M "C 2/C"
_symmetry_group_IT_number 15
_symmetry_cell_setting 'monoclinic'
loop_
_space_group_symop_operation_xyz
x,y,z
-x,y,1/2-z
-x,-y,-z
x,-y,1/2+z
1/2+x,1/2+y,z
1/2-x,1/2+y,1/2-z
1/2-x,1/2-y,-z
1/2+x,1/2-y,1/2+z
loop_
_atom_site_type_symbol
_atom_site_label
_atom_site_fract_x
_atom_site_fract_y
_atom_site_fract_z
Si Si1 0.804444 0.229237 0.046713
Si Si2 0.797249 0.887553 0.992707
Si Si3 0.395795 0.003386 0.228232
Si Si4 0.829562 0.055604 0.754782
O O1 0.871307 0.532738 0.928025
O O2 0.653758 0.135372 0.199636
O O3 0.788278 0.358440 0.100857
O O4 0.750000 0.250000 0.000000
O O5 0.750000 0.750000 0.000000
O O6 0.022677 0.946983 0.821123
O O7 0.733426 0.906975 0.125845
O O8 0.986627 0.152932 0.602487
O O9 0.316179 0.995030 0.202858
#
# Coordination Sequence:
#
# PCOD9296952 Si02
#       4
#     8   8   8   8
#     4  11  25  47  77 108 154 195 255 319 379 454
#     4  10  23  46  74 108 157 195 247 320 390 454
#     4  10  25  47  73 109 153 196 260 314 375 461
#     4  11  26  46  81 110 150 205 257 315 384 457
#
# _framework density 25.129038000000001
#
# number of rings (size 3 to 8) (size 9 to 14) (size 15 to 20)
#    0.000    1.500    0.000    3.750   21.000    0.000 
#   18.000    1.250    0.000    0.000    0.000    0.000 
#    0.000    0.000    0.000    0.000    0.000    0.000 
#
# Total GULP energy -89658.229872 kJ/mol
# GULP energy per Si atom -5603.639367 kJ/mol
# Density = 2.507184 g / cm^3
# Si number density = 25.129038 Si / 1000 Ang^3
#
#
#
# Elastic Constant Matrix: (Units=GPa)
#
#
# Indices 1 2 3 4 5 6 
#
# 1 216.8578 79.7542 75.1911 -0.0035 32.7869 0.0020
# 2 79.7542 203.7719 80.7798 -0.0026 26.2905 0.0012
# 3 75.1911 80.7798 84.4183 -0.0016 21.6285 0.0012
# 4 -0.0035 -0.0026 -0.0016 47.3285 0.0020 -0.8392
# 5 32.7869 26.2905 21.6285 0.0020 43.6987 -0.0011
# 6 0.0020 0.0012 0.0012 -0.8392 -0.0011 36.7545
#
#
#
# Elastic Compliance Matrix: (Units=1/GPa)
#
#
# Indices 1 2 3 4 5 6 
#
# 1 0.006905 -0.000320 -0.005229 0.000000 -0.002400 0.000000
# 2 -0.000320 0.007973 -0.007074 0.000000 -0.001056 0.000000
# 3 -0.005229 -0.007074 0.024252 0.000000 -0.003824 0.000000
# 4 0.000000 0.000000 0.000000 0.021137 -0.000001 0.000483
# 5 -0.002400 -0.001056 -0.003824 -0.000001 0.027213 0.000001
# 6 0.000000 0.000000 0.000000 0.000483 0.000001 0.027219
#
#
# Mechanical properties :
#
#
# Convention : Reuss Voigt Hill
#
# Bulk Modulus (GPa) = 72.02485 108.49978 90.26232
# Shear Modulus (GPa) = 34.58439 43.51118 39.04779
#
# Velocity S-wave (km/s) = 3.71384 4.16566 3.94622
# Velocity P-wave (km/s) = 6.86399 8.14909 7.53399
#
# Compressibility (1/GPa) = 0.01388410
#
# Stress axis : x y z
#
# Youngs Moduli (GPa) = 144.82347 125.42003 41.23295
#
# Poissons Ratio (x) = 0.04012 0.21561
# Poissons Ratio (y) = 0.04633 0.29169
# Poissons Ratio (z) = 0.75731 0.88724
#
# Static dielectric constant tensor:
#      x y z
#    x 1.936030 0.000000 -0.057880 
#    y 0.000000 2.014950 0.000000 
#    z -0.057880 0.000000 2.132030 
# 
# From -- ./inp_files/158513.got.cif
#   From: 2010.05.17/outbox.cif.g08.bks.cpg/sg15_80_cif.got.tgz:158513.got - 2010.06.03 18:47:42.
