data_PCOD9296452
_publ_section_title
;
Structure prediction by ZEFSAII (Michael W. Deem and Ramdas Pophale) SiO2 
 PCOD9296452
Probable space group: C 2/C
;
_chemical_formula_sum "Si O2"
_cell_formula_units_Z 40
_cell_length_a 16.042327
_cell_length_b 12.302342
_cell_length_c 8.954896
_cell_angle_alpha 90.000000
_cell_angle_beta 106.537642
_cell_angle_gamma 90.000000
_cell_volume 1694.213170
_symmetry_space_group_name_H-M "C 2/C"
_symmetry_group_IT_number 15
_symmetry_cell_setting 'monoclinic'
loop_
_space_group_symop_operation_xyz
x,y,z
-x,y,1/2-z
-x,-y,-z
x,-y,1/2+z
1/2+x,1/2+y,z
1/2-x,1/2+y,1/2-z
1/2-x,1/2-y,-z
1/2+x,1/2-y,1/2+z
loop_
_atom_site_type_symbol
_atom_site_label
_atom_site_fract_x
_atom_site_fract_y
_atom_site_fract_z
Si Si1 0.175932 0.033984 0.393466
Si Si2 0.210908 0.599590 0.315948
Si Si3 0.938365 0.092613 0.906860
Si Si4 0.931464 0.286920 0.610712
Si Si5 0.439478 0.065654 0.852791
O O1 0.232458 0.103469 0.305217
O O2 0.127889 0.110450 0.489825
O O3 0.231024 0.948744 0.520856
O O4 0.111883 0.960238 0.259022
O O5 0.156774 0.706829 0.336444
O O6 0.139358 0.506133 0.247382
O O7 0.003438 0.189772 0.900597
O O8 0.000000 0.000000 0.000000
O O9 0.904485 0.338863 0.440508
O O10 0.000000 0.353779 0.750000
O O11 0.500000 0.106663 0.750000
O O12 0.500000 0.000000 0.000000
#
# Coordination Sequence:
#
# PCOD9296452 Si02
#       5
#     8   8   8   8   8
#     4  10  23  44  78 102 150 191 236 310 364 418
#     4  11  20  41  76 108 145 183 235 307 374 417
#     4  11  25  49  75  98 142 204 254 289 351 449
#     4  12  24  41  74 108 142 191 247 291 365 446
#     4  12  20  37  69 107 146 184 230 292 364 443
#
# _framework density 23.609781000000002
#
# number of rings (size 3 to 8) (size 9 to 14) (size 15 to 20)
#    0.000    0.800    6.000    1.800    0.000    1.600 
#    0.000   10.000    4.400    0.000    0.000    0.000 
#    0.000    0.000    0.000    0.000    0.000    0.000 
#
# Total GULP energy -111700.355420 kJ/mol
# GULP energy per Si atom -5585.017771 kJ/mol
# Density = 2.355604 g / cm^3
# Si number density = 23.609781 Si / 1000 Ang^3
#
#
#
# Elastic Constant Matrix: (Units=GPa)
#
#
# Indices 1 2 3 4 5 6 
#
# 1 169.3873 56.7406 69.2683 0.0000 -45.0054 0.0000
# 2 56.7406 65.0040 34.7244 0.0000 -12.3252 0.0000
# 3 69.2683 34.7244 166.0635 0.0000 -4.7389 0.0000
# 4 0.0000 0.0000 0.0000 25.3529 0.0000 -6.3281
# 5 -45.0054 -12.3252 -4.7389 0.0000 75.6036 0.0000
# 6 0.0000 0.0000 0.0000 -6.3281 0.0000 51.0947
#
#
#
# Elastic Compliance Matrix: (Units=1/GPa)
#
#
# Indices 1 2 3 4 5 6 
#
# 1 0.010741 -0.006861 -0.002900 0.000000 0.005094 0.000000
# 2 -0.006861 0.022226 -0.001802 0.000000 -0.000574 0.000000
# 3 -0.002900 -0.001802 0.007564 0.000000 -0.001546 0.000000
# 4 0.000000 0.000000 0.000000 0.040701 0.000000 0.005041
# 5 0.005094 -0.000574 -0.001546 0.000000 0.016069 0.000000
# 6 0.000000 0.000000 0.000000 0.005041 0.000000 0.020196
#
#
# Mechanical properties :
#
#
# Convention : Reuss Voigt Hill
#
# Bulk Modulus (GPa) = 57.45424 80.21348 68.83386
# Shear Modulus (GPa) = 34.14695 46.39168 40.26932
#
# Velocity S-wave (km/s) = 3.80716 4.43757 4.13440
# Velocity P-wave (km/s) = 6.61163 7.76559 7.21173
#
# Compressibility (1/GPa) = 0.01740516
#
# Stress axis : x y z
#
# Youngs Moduli (GPa) = 93.09889 44.99215 132.19900
#
# Poissons Ratio (x) = 0.30867 0.38344
# Poissons Ratio (y) = 0.63871 0.23825
# Poissons Ratio (z) = 0.27003 0.08109
#
# Static dielectric constant tensor:
#      x y z
#    x 1.991820 0.000000 -0.086820 
#    y 0.000000 2.052220 0.000000 
#    z -0.086820 0.000000 1.951060 
# 
# From -- ./inp_files/38042.got.cif
#   From: 2010.05.17/outbox.cif.g08.bks.cpg/sg15_20_cif.got.tgz:38042.got - 2010.06.03 18:47:42.
