data_PCOD9296959
_publ_section_title
;
Structure prediction by ZEFSAII (Michael W. Deem and Ramdas Pophale) SiO2 
 PCOD9296959
Probable space group: C 2/C
;
_chemical_formula_sum "Si O2"
_cell_formula_units_Z 24
_cell_length_a 22.296671
_cell_length_b 5.027214
_cell_length_c 10.142751
_cell_angle_alpha 90.000000
_cell_angle_beta 127.588910
_cell_angle_gamma 90.000000
_cell_volume 900.890202
_symmetry_space_group_name_H-M "C 2/C"
_symmetry_group_IT_number 15
_symmetry_cell_setting 'monoclinic'
loop_
_space_group_symop_operation_xyz
x,y,z
-x,y,1/2-z
-x,-y,-z
x,-y,1/2+z
1/2+x,1/2+y,z
1/2-x,1/2+y,1/2-z
1/2-x,1/2-y,-z
1/2+x,1/2-y,1/2+z
loop_
_atom_site_type_symbol
_atom_site_label
_atom_site_fract_x
_atom_site_fract_y
_atom_site_fract_z
Si Si1 0.202464 0.371681 0.223371
Si Si2 0.433507 0.214930 0.495718
Si Si3 0.403909 0.627040 0.232549
O O1 0.254912 0.632396 0.292409
O O2 0.173408 0.263835 0.325221
O O3 0.123094 0.472325 0.055469
O O4 0.413988 0.365541 0.334514
O O5 0.523656 0.186960 0.631135
O O6 0.412100 0.409675 0.588912
#
# Coordination Sequence:
#
# PCOD9296959 Si02
#       3
#     8   8   8
#     4  12  25  46  69 108 146 186 230 294 355 422
#     4  10  23  46  75 105 141 187 240 293 349 419
#     4  10  23  46  75 105 141 187 240 293 349 419
#
# _framework density 26.640312999999999
#
# number of rings (size 3 to 8) (size 9 to 14) (size 15 to 20)
#    0.000    1.333    3.333    1.000    0.000    5.333 
#    0.000    6.667    0.000    0.000    0.000    0.000 
#    0.000    0.000    0.000    0.000    0.000    0.000 
#
# Total GULP energy -67197.258829 kJ/mol
# GULP energy per Si atom -5599.771569 kJ/mol
# Density = 2.657968 g / cm^3
# Si number density = 26.640313 Si / 1000 Ang^3
#
#
#
# Elastic Constant Matrix: (Units=GPa)
#
#
# Indices 1 2 3 4 5 6 
#
# 1 196.1535 69.2654 35.5977 0.0000 30.9158 0.0000
# 2 69.2654 165.5766 34.1821 0.0000 33.1447 0.0000
# 3 35.5977 34.1821 64.6499 0.0000 19.5347 0.0000
# 4 0.0000 0.0000 0.0000 43.9042 0.0000 21.8901
# 5 30.9158 33.1447 19.5347 0.0000 57.7963 0.0000
# 6 0.0000 0.0000 0.0000 21.8901 0.0000 54.2293
#
#
#
# Elastic Compliance Matrix: (Units=1/GPa)
#
#
# Indices 1 2 3 4 5 6 
#
# 1 0.006404 -0.001937 -0.002008 0.000000 -0.001636 0.000000
# 2 -0.001937 0.007860 -0.002272 0.000000 -0.002703 0.000000
# 3 -0.002008 -0.002272 0.018997 0.000000 -0.004044 0.000000
# 4 0.000000 0.000000 0.000000 0.028516 0.000000 -0.011511
# 5 -0.001636 -0.002703 -0.004044 0.000000 0.021094 0.000000
# 6 0.000000 0.000000 0.000000 -0.011511 0.000000 0.023087
#
#
# Mechanical properties :
#
#
# Convention : Reuss Voigt Hill
#
# Bulk Modulus (GPa) = 48.01524 78.27448 63.14486
# Shear Modulus (GPa) = 39.89312 50.34160 45.11736
#
# Velocity S-wave (km/s) = 3.87392 4.35176 4.11977
# Velocity P-wave (km/s) = 6.17027 7.39568 6.81060
#
# Compressibility (1/GPa) = 0.02082672
#
# Stress axis : x y z
#
# Youngs Moduli (GPa) = 156.14452 127.22478 52.64055
#
# Poissons Ratio (x) = 0.24644 0.10569
# Poissons Ratio (y) = 0.30246 0.11962
# Poissons Ratio (z) = 0.31350 0.28910
#
# Static dielectric constant tensor:
#      x y z
#    x 2.076240 0.000000 -0.018160 
#    y 0.000000 2.143690 0.000000 
#    z -0.018160 0.000000 2.143910 
# 
# From -- ./inp_files/108778.got.cif
#   From: 2010.05.17/outbox.cif.g08.bks.cpg/sg15_55_cif.got.tgz:108778.got - 2010.06.03 18:47:42.
