data_PCOD9296474
_publ_section_title
;
Structure prediction by ZEFSAII (Michael W. Deem and Ramdas Pophale) SiO2 
 PCOD9296474
Probable space group: C 2/C
;
_chemical_formula_sum "Si O2"
_cell_formula_units_Z 36
_cell_length_a 7.944080
_cell_length_b 23.759591
_cell_length_c 13.820641
_cell_angle_alpha 90.000000
_cell_angle_beta 33.893651
_cell_angle_gamma 90.000000
_cell_volume 1454.704896
_symmetry_space_group_name_H-M "C 2/C"
_symmetry_group_IT_number 15
_symmetry_cell_setting 'monoclinic'
loop_
_space_group_symop_operation_xyz
x,y,z
-x,y,1/2-z
-x,-y,-z
x,-y,1/2+z
1/2+x,1/2+y,z
1/2-x,1/2+y,1/2-z
1/2-x,1/2-y,-z
1/2+x,1/2-y,1/2+z
loop_
_atom_site_type_symbol
_atom_site_label
_atom_site_fract_x
_atom_site_fract_y
_atom_site_fract_z
Si Si1 0.123954 0.706896 0.298585
Si Si2 0.858964 0.190510 0.573683
Si Si3 0.000000 0.999437 0.750000
Si Si4 0.153296 0.389583 0.920909
Si Si5 0.757162 0.422030 0.287604
O O1 0.048439 0.763110 0.392035
O O2 0.012222 0.652249 0.410517
O O3 0.000000 0.705507 0.250000
O O4 0.482964 0.705165 0.102449
O O5 0.500000 0.193249 0.750000
O O6 0.928305 0.125467 0.566637
O O7 0.956738 0.037352 0.674341
O O8 0.717107 0.956173 0.876500
O O9 0.500000 0.369503 0.750000
O O10 0.960805 0.389255 0.110335
O O11 0.000000 0.447258 0.250000
#
# Coordination Sequence:
#
# PCOD9296474 Si02
#       5
#     8   8   4   8   8
#     4  12  25  42  71 107 142 180 230 292 352 418
#     4  11  24  43  70 101 141 184 227 286 350 422
#     4  10  26  42  74  92 150 178 240 284 340 418
#     4  10  23  45  64  99 137 183 229 282 345 409
#     4  11  24  44  70 103 136 186 235 284 349 411
#
# _framework density 24.747288000000001
#
# number of rings (size 3 to 8) (size 9 to 14) (size 15 to 20)
#    0.667    0.444    0.000    6.667    4.667    1.778 
#    0.000    0.000    0.000    0.000    0.000    0.000 
#    0.000    0.000    0.000    0.000    0.000    0.000 
#
# Total GULP energy -100425.359592 kJ/mol
# GULP energy per Si atom -5579.186644 kJ/mol
# Density = 2.469096 g / cm^3
# Si number density = 24.747288 Si / 1000 Ang^3
#
#
#
# Elastic Constant Matrix: (Units=GPa)
#
#
# Indices 1 2 3 4 5 6 
#
# 1 125.4258 79.0994 -12.8974 0.0000 14.4779 0.0000
# 2 79.0994 147.3405 0.3172 0.0000 24.7391 0.0000
# 3 -12.8974 0.3172 63.2161 0.0000 18.1453 0.0000
# 4 0.0000 0.0000 0.0000 17.0748 0.0000 4.5385
# 5 14.4779 24.7391 18.1453 0.0000 43.0828 0.0000
# 6 0.0000 0.0000 0.0000 4.5385 0.0000 24.4631
#
#
#
# Elastic Compliance Matrix: (Units=1/GPa)
#
#
# Indices 1 2 3 4 5 6 
#
# 1 0.012573 -0.006448 0.003125 0.000000 -0.001839 0.000000
# 2 -0.006448 0.010923 -0.000218 0.000000 -0.004013 0.000000
# 3 0.003125 -0.000218 0.019023 0.000000 -0.008937 0.000000
# 4 0.000000 0.000000 0.000000 0.061604 0.000000 -0.011429
# 5 -0.001839 -0.004013 -0.008937 0.000000 0.029898 0.000000
# 6 0.000000 0.000000 0.000000 -0.011429 0.000000 0.042998
#
#
# Mechanical properties :
#
#
# Convention : Reuss Voigt Hill
#
# Bulk Modulus (GPa) = 28.21914 52.11343 40.16629
# Shear Modulus (GPa) = 25.52183 34.88836 30.20509
#
# Velocity S-wave (km/s) = 3.21487 3.75878 3.49742
# Velocity P-wave (km/s) = 5.02077 6.31996 5.70745
#
# Compressibility (1/GPa) = 0.03543694
#
# Stress axis : x y z
#
# Youngs Moduli (GPa) = 79.53809 91.55256 52.56897
#
# Poissons Ratio (x) = 0.59029 -0.16429
# Poissons Ratio (y) = 0.51282 0.01147
# Poissons Ratio (z) = -0.24858 0.01998
#
# Static dielectric constant tensor:
#      x y z
#    x 2.113530 0.000000 -0.159510 
#    y 0.000000 1.960930 0.000000 
#    z -0.159510 0.000000 2.001760 
# 
# From -- ./inp_files/136736.got.cif
#   From: 2010.05.17/outbox.cif.g08.bks.cpg/sg15_69_cif.got.tgz:136736.got - 2010.06.03 18:47:42.
