data_PCOD9296163
_publ_section_title
;
Structure prediction by ZEFSAII (Michael W. Deem and Ramdas Pophale) SiO2 
 PCOD9296163
Probable space group: C 2/C
;
_chemical_formula_sum "Si O2"
_cell_formula_units_Z 36
_cell_length_a 7.895136
_cell_length_b 24.420750
_cell_length_c 14.432285
_cell_angle_alpha 90.000000
_cell_angle_beta 39.439266
_cell_angle_gamma 90.000000
_cell_volume 1767.686215
_symmetry_space_group_name_H-M "C 2/C"
_symmetry_group_IT_number 15
_symmetry_cell_setting 'monoclinic'
loop_
_space_group_symop_operation_xyz
x,y,z
-x,y,1/2-z
-x,-y,-z
x,-y,1/2+z
1/2+x,1/2+y,z
1/2-x,1/2+y,1/2-z
1/2-x,1/2-y,-z
1/2+x,1/2-y,1/2+z
loop_
_atom_site_type_symbol
_atom_site_label
_atom_site_fract_x
_atom_site_fract_y
_atom_site_fract_z
Si Si1 0.121590 0.812561 0.367175
Si Si2 0.032809 0.557134 0.537680
Si Si3 0.000000 0.412737 0.250000
Si Si4 0.214681 0.787700 0.816163
Si Si5 0.500000 0.629575 0.250000
Si Si6 0.500000 0.628735 0.750000
O O1 0.264074 0.868986 0.333606
O O2 0.296052 0.768094 0.238924
O O3 0.993868 0.787260 0.511706
O O4 0.927175 0.832286 0.367408
O O5 0.074079 0.551310 0.630322
O O6 0.270928 0.592224 0.392807
O O7 0.000000 0.500000 0.500000
O O8 0.757779 0.590993 0.650220
O O9 0.500000 0.794617 0.750000
O O10 0.135476 0.834248 0.774823
#
# Coordination Sequence:
#
# PCOD9296163 Si02
#       6
#     8   8   4   8   4   4
#     4  11  23  41  64 100 139 183 223 269 344 414
#     4  11  24  48  70  98 131 180 233 293 352 400
#     4  10  23  44  68  96 134 172 225 290 350 404
#     4  12  25  40  67 104 144 185 226 271 339 419
#     4  12  26  44  72 106 138 176 240 292 332 410
#     4  10  23  44  70  94 146 180 223 286 346 412
#
# _framework density 20.365604999999999
#
# number of rings (size 3 to 8) (size 9 to 14) (size 15 to 20)
#    0.000    0.889    3.333    3.333    6.222    1.778 
#    6.000    3.333    0.000    0.000    0.000    0.000 
#    0.000    0.000    0.000    0.000    0.000    0.000 
#
# Total GULP energy -100446.612385 kJ/mol
# GULP energy per Si atom -5580.367355 kJ/mol
# Density = 2.031925 g / cm^3
# Si number density = 20.365605 Si / 1000 Ang^3
#
#
#
# Elastic Constant Matrix: (Units=GPa)
#
#
# Indices 1 2 3 4 5 6 
#
# 1 88.8518 40.4630 47.0065 0.0000 28.7665 0.0000
# 2 40.4630 106.9229 45.3316 0.0000 32.0487 0.0000
# 3 47.0065 45.3316 142.2612 0.0000 41.3083 0.0000
# 4 0.0000 0.0000 0.0000 30.1151 0.0000 9.9206
# 5 28.7665 32.0487 41.3083 0.0000 49.1402 0.0000
# 6 0.0000 0.0000 0.0000 9.9206 0.0000 35.0322
#
#
#
# Elastic Compliance Matrix: (Units=1/GPa)
#
#
# Indices 1 2 3 4 5 6 
#
# 1 0.015787 -0.003390 -0.002771 0.000000 -0.004701 0.000000
# 2 -0.003390 0.012794 -0.001468 0.000000 -0.005125 0.000000
# 3 -0.002771 -0.001468 0.010138 0.000000 -0.005943 0.000000
# 4 0.000000 0.000000 0.000000 0.036622 0.000000 -0.010371
# 5 -0.004701 -0.005125 -0.005943 0.000000 0.031440 0.000000
# 6 0.000000 0.000000 0.000000 -0.010371 0.000000 0.031482
#
#
# Mechanical properties :
#
#
# Convention : Reuss Voigt Hill
#
# Bulk Modulus (GPa) = 42.62584 67.07087 54.84836
# Shear Modulus (GPa) = 30.98982 36.53981 33.76482
#
# Velocity S-wave (km/s) = 3.90510 4.24039 4.07619
# Velocity P-wave (km/s) = 6.42719 7.54847 7.01028
#
# Compressibility (1/GPa) = 0.02345995
#
# Stress axis : x y z
#
# Youngs Moduli (GPa) = 63.34505 78.15964 98.63469
#
# Poissons Ratio (x) = 0.26498 0.27331
# Poissons Ratio (y) = 0.21476 0.14484
# Poissons Ratio (z) = 0.17552 0.11477
#
# Static dielectric constant tensor:
#      x y z
#    x 1.600810 0.000000 0.028820 
#    y 0.000000 1.698820 0.000000 
#    z 0.028820 0.000000 1.695190 
# 
# From -- ./inp_files/22587.got.cif
#   From: 2010.05.17/outbox.cif.g08.bks.cpg/sg15_12_cif.got.tgz:22587.got - 2010.06.03 18:47:42.
