data_PCOD9296924
_publ_section_title
;
Structure prediction by ZEFSAII (Michael W. Deem and Ramdas Pophale) SiO2 
 PCOD9296924
Probable space group: C 2/C
;
_chemical_formula_sum "Si O2"
_cell_formula_units_Z 36
_cell_length_a 19.568459
_cell_length_b 16.316783
_cell_length_c 14.649381
_cell_angle_alpha 90.000000
_cell_angle_beta 160.746795
_cell_angle_gamma 90.000000
_cell_volume 1542.363087
_symmetry_space_group_name_H-M "C 2/C"
_symmetry_group_IT_number 15
_symmetry_cell_setting 'monoclinic'
loop_
_space_group_symop_operation_xyz
x,y,z
-x,y,1/2-z
-x,-y,-z
x,-y,1/2+z
1/2+x,1/2+y,z
1/2-x,1/2+y,1/2-z
1/2-x,1/2-y,-z
1/2+x,1/2-y,1/2+z
loop_
_atom_site_type_symbol
_atom_site_label
_atom_site_fract_x
_atom_site_fract_y
_atom_site_fract_z
Si Si1 0.265196 0.002202 0.248566
Si Si2 0.787824 0.677562 0.251647
Si Si3 0.000000 0.951145 0.750000
Si Si4 0.370311 0.830891 0.174612
Si Si5 0.940451 0.650422 0.069162
O O1 0.222677 0.095848 0.226212
O O2 0.500000 0.000000 0.500000
O O3 0.290225 0.924647 0.348166
O O4 0.079883 0.993340 0.942381
O O5 0.655852 0.759767 0.074750
O O6 0.997856 0.694745 0.571125
O O7 0.851728 0.648176 0.230777
O O8 0.797188 0.898746 0.515657
O O9 0.500000 0.856073 0.250000
O O10 0.250000 0.750000 0.000000
O O11 0.000000 0.643857 0.250000
#
# Coordination Sequence:
#
# PCOD9296924 Si02
#       5
#     8   8   4   8   8
#     4  10  23  46  72  98 149 194 241 315 369 440
#     4  11  24  47  66 106 148 183 247 312 365 446
#     4  12  22  46  72  98 148 192 244 312 378 428
#     4  12  23  40  72 106 144 191 246 310 378 441
#     4  11  23  44  73 101 144 196 243 299 374 446
#
# _framework density 23.340807999999999
#
# number of rings (size 3 to 8) (size 9 to 14) (size 15 to 20)
#    0.000    0.889    5.556    3.333    1.556    0.889 
#    0.000    2.222    0.000    0.000    0.000    0.000 
#    0.000    0.000    0.000    0.000    0.000    0.000 
#
# Total GULP energy -100430.935351 kJ/mol
# GULP energy per Si atom -5579.496408 kJ/mol
# Density = 2.328768 g / cm^3
# Si number density = 23.340808 Si / 1000 Ang^3
#
#
#
# Elastic Constant Matrix: (Units=GPa)
#
#
# Indices 1 2 3 4 5 6 
#
# 1 83.1200 6.4630 1.8745 0.0000 -7.6699 0.0000
# 2 6.4630 179.8365 38.7582 0.0000 -24.3452 0.0000
# 3 1.8745 38.7582 85.4326 -0.0001 -33.8026 0.0000
# 4 0.0000 0.0000 -0.0001 188.6783 -0.0001 17.5850
# 5 -7.6699 -24.3452 -33.8026 -0.0001 44.4520 0.0000
# 6 0.0000 0.0000 0.0000 17.5850 0.0000 26.7388
#
#
#
# Elastic Compliance Matrix: (Units=1/GPa)
#
#
# Indices 1 2 3 4 5 6 
#
# 1 0.012277 -0.000277 0.000907 0.000000 0.002657 0.000000
# 2 -0.000277 0.006270 -0.002144 0.000000 0.001756 0.000000
# 3 0.000907 -0.002144 0.017529 0.000000 0.012312 0.000000
# 4 0.000000 0.000000 0.000000 0.005646 0.000000 -0.003713
# 5 0.002657 0.001756 0.012312 0.000000 0.033279 0.000000
# 6 0.000000 0.000000 0.000000 -0.003713 0.000000 0.039841
#
#
# Mechanical properties :
#
#
# Convention : Reuss Voigt Hill
#
# Bulk Modulus (GPa) = 30.25739 49.17560 39.71649
# Shear Modulus (GPa) = 38.79397 72.06004 55.42701
#
# Velocity S-wave (km/s) = 4.08127 5.56237 4.87836
# Velocity P-wave (km/s) = 5.93300 7.89732 6.98456
#
# Compressibility (1/GPa) = 0.03304978
#
# Stress axis : x y z
#
# Youngs Moduli (GPa) = 81.45298 159.48155 57.04742
#
# Poissons Ratio (x) = 0.04420 -0.05177
# Poissons Ratio (y) = 0.02258 0.12230
# Poissons Ratio (z) = -0.07392 0.34189
#
# Static dielectric constant tensor:
#      x y z
#    x 1.868890 0.000000 0.103100 
#    y 0.000000 1.978190 0.000000 
#    z 0.103100 0.000000 1.757630 
# 
# From -- ./inp_files/169050.got.cif
#   From: 2010.05.17/outbox.cif.g08.bks.cpg/sg15_85_cif.got.tgz:169050.got - 2010.06.03 18:47:42.
