data_PCOD9296556
_publ_section_title
;
Structure prediction by ZEFSAII (Michael W. Deem and Ramdas Pophale) SiO2 
 PCOD9296556
Probable space group: C 2/C
;
_chemical_formula_sum "Si O2"
_cell_formula_units_Z 40
_cell_length_a 12.627592
_cell_length_b 23.839161
_cell_length_c 8.053541
_cell_angle_alpha 90.000000
_cell_angle_beta 135.655715
_cell_angle_gamma 90.000000
_cell_volume 1694.555628
_symmetry_space_group_name_H-M "C 2/C"
_symmetry_group_IT_number 15
_symmetry_cell_setting 'monoclinic'
loop_
_space_group_symop_operation_xyz
x,y,z
-x,y,1/2-z
-x,-y,-z
x,-y,1/2+z
1/2+x,1/2+y,z
1/2-x,1/2+y,1/2-z
1/2-x,1/2-y,-z
1/2+x,1/2-y,1/2+z
loop_
_atom_site_type_symbol
_atom_site_label
_atom_site_fract_x
_atom_site_fract_y
_atom_site_fract_z
Si Si1 0.881647 0.831182 0.351511
Si Si2 0.142187 0.717020 0.008389
Si Si3 0.797297 0.869597 0.917744
Si Si4 0.169405 0.068338 0.511270
Si Si5 0.819534 0.472228 0.526762
O O1 0.909805 0.767136 0.426048
O O2 0.825942 0.865178 0.450293
O O3 0.032687 0.863580 0.461521
O O4 0.777688 0.837832 0.073344
O O5 0.000000 0.695692 0.750000
O O6 0.250000 0.750000 0.000000
O O7 0.205807 0.665755 0.182920
O O8 0.755020 0.933034 0.914229
O O9 0.282138 0.037247 0.514064
O O10 0.231982 0.046059 0.760493
O O11 0.000000 0.054860 0.250000
O O12 0.000000 0.463133 0.750000
#
# Coordination Sequence:
#
# PCOD9296556 Si02
#       5
#     8   8   8   8   8
#     4  10  23  45  68 101 133 183 233 274 338 418
#     4  12  24  42  68 102 138 174 228 285 343 406
#     4  10  24  44  69  95 140 182 227 280 340 413
#     4  11  25  43  75  99 137 182 235 278 338 418
#     4  11  26  46  68 106 142 181 229 290 350 402
#
# _framework density 23.605008000000002
#
# number of rings (size 3 to 8) (size 9 to 14) (size 15 to 20)
#    0.000    1.200    2.000    2.400    8.400    3.200 
#    3.600    2.000    0.000    0.000    0.000    0.000 
#    0.000    0.000    0.000    0.000    0.000    0.000 
#
# Total GULP energy -111711.915191 kJ/mol
# GULP energy per Si atom -5585.595760 kJ/mol
# Density = 2.355128 g / cm^3
# Si number density = 23.605008 Si / 1000 Ang^3
#
#
#
# Elastic Constant Matrix: (Units=GPa)
#
#
# Indices 1 2 3 4 5 6 
#
# 1 48.9570 7.8122 38.8622 0.0000 -8.8020 0.0000
# 2 7.8122 76.2026 42.4435 0.0000 -13.7749 0.0000
# 3 38.8622 42.4435 198.4545 0.0000 -12.3121 0.0000
# 4 0.0000 0.0000 0.0000 20.5884 0.0000 -4.9099
# 5 -8.8020 -13.7749 -12.3121 0.0000 30.3385 0.0000
# 6 0.0000 0.0000 0.0000 -4.9099 0.0000 5.5277
#
#
#
# Elastic Compliance Matrix: (Units=1/GPa)
#
#
# Indices 1 2 3 4 5 6 
#
# 1 0.025106 0.001160 -0.004801 0.000000 0.005862 0.000000
# 2 0.001160 0.015945 -0.003249 0.000000 0.006258 0.000000
# 3 -0.004801 -0.003249 0.006664 0.000000 -0.000164 0.000000
# 4 0.000000 0.000000 0.000000 0.061625 0.000000 0.054737
# 5 0.005862 0.006258 -0.000164 0.000000 0.037437 0.000000
# 6 0.000000 0.000000 0.000000 0.054737 0.000000 0.229527
#
#
# Mechanical properties :
#
#
# Convention : Reuss Voigt Hill
#
# Bulk Modulus (GPa) = 29.46853 55.76108 42.61481
# Shear Modulus (GPa) = 12.45658 26.92402 19.69030
#
# Velocity S-wave (km/s) = 2.29968 3.38095 2.89131
# Velocity P-wave (km/s) = 4.42295 6.23818 5.40729
#
# Compressibility (1/GPa) = 0.03393450
#
# Stress axis : x y z
#
# Youngs Moduli (GPa) = 39.83147 62.71637 150.06598
#
# Poissons Ratio (x) = -0.07274 0.72042
# Poissons Ratio (y) = -0.04620 0.48757
# Poissons Ratio (z) = 0.19122 0.20377
#
# Static dielectric constant tensor:
#      x y z
#    x 1.971950 0.000000 -0.022860 
#    y 0.000000 1.837520 0.000000 
#    z -0.022860 0.000000 1.939460 
# 
# From -- ./inp_files/42408.got.cif
#   From: 2010.05.17/outbox.cif.g08.bks.cpg/sg15_22_cif.got.tgz:42408.got - 2010.06.03 18:47:42.
