data_PCOD9296232
_publ_section_title
;
Structure prediction by ZEFSAII (Michael W. Deem and Ramdas Pophale) SiO2 
 PCOD9296232
Probable space group: C 2/C
;
_chemical_formula_sum "Si O2"
_cell_formula_units_Z 44
_cell_length_a 14.343848
_cell_length_b 8.898087
_cell_length_c 15.693996
_cell_angle_alpha 90.000000
_cell_angle_beta 110.452257
_cell_angle_gamma 90.000000
_cell_volume 1876.802690
_symmetry_space_group_name_H-M "C 2/C"
_symmetry_group_IT_number 15
_symmetry_cell_setting 'monoclinic'
loop_
_space_group_symop_operation_xyz
x,y,z
-x,y,1/2-z
-x,-y,-z
x,-y,1/2+z
1/2+x,1/2+y,z
1/2-x,1/2+y,1/2-z
1/2-x,1/2-y,-z
1/2+x,1/2-y,1/2+z
loop_
_atom_site_type_symbol
_atom_site_label
_atom_site_fract_x
_atom_site_fract_y
_atom_site_fract_z
Si Si1 0.034911 0.695100 0.605818
Si Si2 0.000000 0.527175 0.250000
Si Si3 0.918412 0.010649 0.897349
Si Si4 0.848532 0.734534 0.271874
Si Si5 0.169079 0.873214 0.984183
Si Si6 0.278625 0.030703 0.872181
O O1 0.012387 0.578809 0.672758
O O2 0.085221 0.853019 0.651376
O O3 0.114389 0.609751 0.569468
O O4 0.929072 0.765223 0.544817
O O5 0.903606 0.633151 0.219931
O O6 0.929824 0.154194 0.841787
O O7 0.821861 0.040913 0.923415
O O8 0.000000 0.000000 0.000000
O O9 0.770005 0.848910 0.207130
O O10 0.805004 0.621278 0.328866
O O11 0.195893 0.989852 0.917167
O O12 0.250000 0.750000 0.000000
#
# Coordination Sequence:
#
# PCOD9296232 Si02
#       6
#     8   4   8   8   8   8
#     4  10  25  44  66 100 139 177 235 281 355 417
#     4  10  26  42  68 106 130 186 234 294 340 420
#     4  10  23  44  69  99 139 183 228 290 355 426
#     4  11  24  43  69 102 138 176 242 287 355 426
#     4  11  24  44  70 100 140 182 227 291 358 426
#     4  11  25  44  71 102 138 184 231 300 352 427
#
# _framework density 23.444126000000001
#
# number of rings (size 3 to 8) (size 9 to 14) (size 15 to 20)
#    0.000    1.455    1.818    1.091   12.727    2.909 
#    3.273    0.000    0.000    0.000    0.000    0.000 
#    0.000    0.000    0.000    0.000    0.000    0.000 
#
# Total GULP energy -122555.535890 kJ/mol
# GULP energy per Si atom -5570.706177 kJ/mol
# Density = 2.339077 g / cm^3
# Si number density = 23.444126 Si / 1000 Ang^3
#
#
#
# Elastic Constant Matrix: (Units=GPa)
#
#
# Indices 1 2 3 4 5 6 
#
# 1 51.1409 36.4335 29.1364 0.0000 15.1508 0.0000
# 2 36.4335 163.9285 33.7246 0.0000 -0.2478 0.0000
# 3 29.1364 33.7246 36.8228 0.0000 -4.6866 0.0000
# 4 0.0000 0.0000 0.0000 28.3171 0.0000 -8.7325
# 5 15.1508 -0.2478 -4.6866 0.0000 30.6203 0.0000
# 6 0.0000 0.0000 0.0000 -8.7325 0.0000 59.0346
#
#
#
# Elastic Compliance Matrix: (Units=1/GPa)
#
#
# Indices 1 2 3 4 5 6 
#
# 1 0.063099 -0.003433 -0.051769 0.000000 -0.039172 0.000000
# 2 -0.003433 0.007734 -0.004225 0.000000 0.001114 0.000000
# 3 -0.051769 -0.004225 0.076741 0.000000 0.037326 0.000000
# 4 0.000000 0.000000 0.000000 0.037002 0.000000 0.005473
# 5 -0.039172 0.001114 0.037326 0.000000 0.057762 0.000000
# 6 0.000000 0.000000 0.000000 0.005473 0.000000 0.017749
#
#
# Mechanical properties :
#
#
# Convention : Reuss Voigt Hill
#
# Bulk Modulus (GPa) = 34.82043 50.05347 42.43695
# Shear Modulus (GPa) = 12.86953 33.76758 23.31856
#
# Velocity S-wave (km/s) = 2.34550 3.79930 3.15722
# Velocity P-wave (km/s) = 4.71380 6.37516 5.60636
#
# Compressibility (1/GPa) = 0.02871877
#
# Stress axis : x y z
#
# Youngs Moduli (GPa) = 15.84817 129.29739 13.03092
#
# Poissons Ratio (x) = 0.44384 0.67460
# Poissons Ratio (y) = 0.05440 0.05506
# Poissons Ratio (z) = 0.82045 0.54633
#
# Static dielectric constant tensor:
#      x y z
#    x 2.005250 0.000000 0.011240 
#    y 0.000000 1.925090 0.000000 
#    z 0.011240 0.000000 1.966130 
# 
# From -- ./inp_files/202727.got.cif
#   From: 2010.05.17/outbox.cif.g08.bks.cpg/sg15_102_cif.got.tgz:202727.got - 2010.06.03 18:47:42.
