data_PCOD9296290
_publ_section_title
;
Structure prediction by ZEFSAII (Michael W. Deem and Ramdas Pophale) SiO2 
 PCOD9296290
Probable space group: C 2/C
;
_chemical_formula_sum "Si O2"
_cell_formula_units_Z 40
_cell_length_a 13.748117
_cell_length_b 5.817922
_cell_length_c 18.737703
_cell_angle_alpha 90.000000
_cell_angle_beta 90.686133
_cell_angle_gamma 90.000000
_cell_volume 1498.636561
_symmetry_space_group_name_H-M "C 2/C"
_symmetry_group_IT_number 15
_symmetry_cell_setting 'monoclinic'
loop_
_space_group_symop_operation_xyz
x,y,z
-x,y,1/2-z
-x,-y,-z
x,-y,1/2+z
1/2+x,1/2+y,z
1/2-x,1/2+y,1/2-z
1/2-x,1/2-y,-z
1/2+x,1/2-y,1/2+z
loop_
_atom_site_type_symbol
_atom_site_label
_atom_site_fract_x
_atom_site_fract_y
_atom_site_fract_z
Si Si1 0.026953 0.633647 0.328718
Si Si2 0.315931 0.187097 0.688776
Si Si3 0.645744 0.197425 0.966202
Si Si4 0.381572 0.483003 0.823539
Si Si5 0.434053 0.801374 0.449839
O O1 0.140745 0.569199 0.327912
O O2 0.000000 0.544761 0.250000
O O3 0.972680 0.482826 0.388521
O O4 0.985526 0.890227 0.328073
O O5 0.344589 0.296033 0.613846
O O6 0.359565 0.309764 0.758343
O O7 0.200210 0.175653 0.689379
O O8 0.536444 0.283345 0.984284
O O9 0.750000 0.250000 0.000000
O O10 0.627794 0.931176 0.990818
O O11 0.371954 0.370972 0.901340
#
# Coordination Sequence:
#
# PCOD9296290 Si02
#       5
#     8   8   8   8   8
#     4  11  23  43  70 102 139 185 240 299 365 418
#     4  11  26  45  72 111 144 191 246 301 369 435
#     4  10  23  44  71 100 149 195 236 299 368 438
#     4  12  26  45  73 108 146 186 248 310 356 441
#     4  10  24  46  69 104 144 189 251 294 359 450
#
# _framework density 26.690926000000001
#
# number of rings (size 3 to 8) (size 9 to 14) (size 15 to 20)
#    0.000    1.200    2.000    2.400    8.400    2.400 
#    0.000   14.000    0.000    0.000    0.000    0.000 
#    0.000    0.000    0.000    0.000    0.000    0.000 
#
# Total GULP energy -111497.353219 kJ/mol
# GULP energy per Si atom -5574.867661 kJ/mol
# Density = 2.663018 g / cm^3
# Si number density = 26.690926 Si / 1000 Ang^3
#
#
#
# Elastic Constant Matrix: (Units=GPa)
#
#
# Indices 1 2 3 4 5 6 
#
# 1 122.6963 45.8902 35.2880 0.0000 27.1597 0.0000
# 2 45.8902 55.2713 23.4359 0.0000 10.1037 0.0000
# 3 35.2880 23.4359 121.5509 0.0000 12.9567 0.0000
# 4 0.0000 0.0000 0.0000 43.3173 0.0000 6.3312
# 5 27.1597 10.1037 12.9567 0.0000 54.6709 0.0000
# 6 0.0000 0.0000 0.0000 6.3312 0.0000 33.0547
#
#
#
# Elastic Compliance Matrix: (Units=1/GPa)
#
#
# Indices 1 2 3 4 5 6 
#
# 1 0.013080 -0.009414 -0.001513 0.000000 -0.004400 0.000000
# 2 -0.009414 0.026910 -0.002487 0.000000 0.000293 0.000000
# 3 -0.001513 -0.002487 0.009250 0.000000 -0.000981 0.000000
# 4 0.000000 0.000000 0.000000 0.023750 0.000000 -0.004549
# 5 -0.004400 0.000293 -0.000981 0.000000 0.020655 0.000000
# 6 0.000000 0.000000 0.000000 -0.004549 0.000000 0.031124
#
#
# Mechanical properties :
#
#
# Convention : Reuss Voigt Hill
#
# Bulk Modulus (GPa) = 44.61861 56.52743 50.57302
# Shear Modulus (GPa) = 31.43278 39.20221 35.31750
#
# Velocity S-wave (km/s) = 3.43543 3.83658 3.64153
# Velocity P-wave (km/s) = 5.69993 6.39142 6.05556
#
# Compressibility (1/GPa) = 0.02241217
#
# Stress axis : x y z
#
# Youngs Moduli (GPa) = 76.44990 37.16113 108.10435
#
# Poissons Ratio (x) = 0.34985 0.16359
# Poissons Ratio (y) = 0.71973 0.26880
# Poissons Ratio (z) = 0.11569 0.09240
#
# Static dielectric constant tensor:
#      x y z
#    x 2.026660 0.000000 -0.006290 
#    y 0.000000 2.212670 0.000000 
#    z -0.006290 0.000000 2.132550 
# 
# From -- ./inp_files/271974.got.cif
#   From: 2010.05.17/outbox.cif.g08.bks.cpg/sg15_136_cif.got.tgz:271974.got - 2010.06.03 18:47:42.
