data_PCOD9296756
_publ_section_title
;
Structure prediction by ZEFSAII (Michael W. Deem and Ramdas Pophale) SiO2 
 PCOD9296756
Probable space group: C 2/C
;
_chemical_formula_sum "Si O2"
_cell_formula_units_Z 28
_cell_length_a 12.517927
_cell_length_b 6.345707
_cell_length_c 13.621944
_cell_angle_alpha 90.000000
_cell_angle_beta 117.529559
_cell_angle_gamma 90.000000
_cell_volume 959.541442
_symmetry_space_group_name_H-M "C 2/C"
_symmetry_group_IT_number 15
_symmetry_cell_setting 'monoclinic'
loop_
_space_group_symop_operation_xyz
x,y,z
-x,y,1/2-z
-x,-y,-z
x,-y,1/2+z
1/2+x,1/2+y,z
1/2-x,1/2+y,1/2-z
1/2-x,1/2-y,-z
1/2+x,1/2-y,1/2+z
loop_
_atom_site_type_symbol
_atom_site_label
_atom_site_fract_x
_atom_site_fract_y
_atom_site_fract_z
Si Si1 0.877847 0.696920 0.102191
Si Si2 0.500000 0.571312 0.250000
Si Si3 0.803899 0.404529 0.238776
Si Si4 0.168904 0.640042 0.052594
O O1 0.945710 0.915519 0.144837
O O2 0.702236 0.965679 0.150783
O O3 0.750000 0.750000 0.000000
O O4 0.922743 0.500617 0.053241
O O5 0.397184 0.716919 0.253802
O O6 0.858385 0.598037 0.200775
O O7 0.678327 0.339809 0.131494
O O8 0.250000 0.750000 0.000000
#
# Coordination Sequence:
#
# PCOD9296756 Si02
#       4
#     8   4   8   8
#     4  11  23  47  74 110 160 212 265 329 411 475
#     4  12  26  44  76 116 160 210 270 344 386 482
#     4  11  24  47  76 115 155 208 272 331 395 487
#     4  10  23  45  79 109 152 214 259 323 407 481
#
# _framework density 29.180603999999999
#
# number of rings (size 3 to 8) (size 9 to 14) (size 15 to 20)
#    0.000    1.143    2.857    2.571    0.000    1.143 
#    0.000   12.857    0.000    0.000    0.000    0.000 
#    0.000    0.000    0.000    0.000    0.000    0.000 
#
# Total GULP energy -78111.782040 kJ/mol
# GULP energy per Si atom -5579.413003 kJ/mol
# Density = 2.911419 g / cm^3
# Si number density = 29.180604 Si / 1000 Ang^3
#
#
#
# Elastic Constant Matrix: (Units=GPa)
#
#
# Indices 1 2 3 4 5 6 
#
# 1 125.4330 81.7153 73.1297 0.0000 -22.3358 0.0000
# 2 81.7153 185.9846 59.7053 0.0000 -3.3853 0.0000
# 3 73.1297 59.7053 205.7436 0.0000 -50.3549 0.0000
# 4 0.0000 0.0000 0.0000 112.3665 0.0000 6.1824
# 5 -22.3358 -3.3853 -50.3549 0.0000 70.7752 0.0000
# 6 0.0000 0.0000 0.0000 6.1824 0.0000 42.8612
#
#
#
# Elastic Compliance Matrix: (Units=1/GPa)
#
#
# Indices 1 2 3 4 5 6 
#
# 1 0.013072 -0.004816 -0.002779 0.000000 0.001918 0.000000
# 2 -0.004816 0.007780 -0.001001 0.000000 -0.001860 0.000000
# 3 -0.002779 -0.001001 0.007159 0.000000 0.004169 0.000000
# 4 0.000000 0.000000 0.000000 0.008971 0.000000 -0.001294
# 5 0.001918 -0.001860 0.004169 0.000000 0.017611 0.000000
# 6 0.000000 0.000000 0.000000 -0.001294 0.000000 0.023518
#
#
# Mechanical properties :
#
#
# Convention : Reuss Voigt Hill
#
# Bulk Modulus (GPa) = 92.43977 105.14020 98.78998
# Shear Modulus (GPa) = 50.55087 65.37465 57.96276
#
# Velocity S-wave (km/s) = 4.16666 4.73836 4.46168
# Velocity P-wave (km/s) = 7.40914 8.12682 7.77626
#
# Compressibility (1/GPa) = 0.01081785
#
# Stress axis : x y z
#
# Youngs Moduli (GPa) = 76.50054 128.52802 139.68287
#
# Poissons Ratio (x) = 0.61901 0.38823
# Poissons Ratio (y) = 0.36844 0.13985
# Poissons Ratio (z) = 0.21262 0.12868
#
# Static dielectric constant tensor:
#      x y z
#    x 2.385950 0.000000 0.187020 
#    y 0.000000 2.351000 0.000000 
#    z 0.187020 0.000000 2.259570 
# 
# From -- ./inp_files/201569.got.cif
#   From: 2010.05.17/outbox.cif.g08.bks.cpg/sg15_101_cif.got.tgz:201569.got - 2010.06.03 18:47:42.
