data_PCOD9296368
_publ_section_title
;
Structure prediction by ZEFSAII (Michael W. Deem and Ramdas Pophale) SiO2 
 PCOD9296368
Probable space group: C 2/C
;
_chemical_formula_sum "Si O2"
_cell_formula_units_Z 36
_cell_length_a 24.877058
_cell_length_b 4.926838
_cell_length_c 10.255372
_cell_angle_alpha 90.000000
_cell_angle_beta 88.085318
_cell_angle_gamma 90.000000
_cell_volume 1256.250303
_symmetry_space_group_name_H-M "C 2/C"
_symmetry_group_IT_number 15
_symmetry_cell_setting 'monoclinic'
loop_
_space_group_symop_operation_xyz
x,y,z
-x,y,1/2-z
-x,-y,-z
x,-y,1/2+z
1/2+x,1/2+y,z
1/2-x,1/2+y,1/2-z
1/2-x,1/2-y,-z
1/2+x,1/2-y,1/2+z
loop_
_atom_site_type_symbol
_atom_site_label
_atom_site_fract_x
_atom_site_fract_y
_atom_site_fract_z
Si Si1 0.914793 0.583670 0.095999
Si Si2 0.811255 0.984844 0.911586
Si Si3 0.803926 0.300446 0.166605
Si Si4 0.500000 0.779225 0.250000
Si Si5 0.571965 0.405520 0.067401
O O1 0.853204 0.486265 0.114063
O O2 0.951985 0.476021 0.207711
O O3 0.918612 0.896577 0.058790
O O4 0.939118 0.395569 0.978451
O O5 0.756225 0.103598 0.857869
O O6 0.812108 0.715186 0.822459
O O7 0.869739 0.101854 0.868044
O O8 0.807227 0.038223 0.067407
O O9 0.527304 0.568445 0.147591
#
# Coordination Sequence:
#
# PCOD9296368 Si02
#       5
#     8   8   8   4   8
#     4  11  26  46  72 110 145 196 247 313 369 451
#     4  10  23  45  70 109 147 196 242 311 368 452
#     4  10  23  44  72 109 151 196 250 305 381 444
#     4  12  24  50  74 110 144 206 244 322 358 458
#     4  11  26  46  73 107 149 191 254 305 377 442
#
# _framework density 28.656711000000001
#
# number of rings (size 3 to 8) (size 9 to 14) (size 15 to 20)
#    0.000    1.333    2.222    1.333    0.000   14.222 
#    4.000    0.000    0.000    0.000    0.000    0.000 
#    0.000    0.000    0.000    0.000    0.000    0.000 
#
# Total GULP energy -100753.069851 kJ/mol
# GULP energy per Si atom -5597.392770 kJ/mol
# Density = 2.859149 g / cm^3
# Si number density = 28.656711 Si / 1000 Ang^3
#
#
#
# Elastic Constant Matrix: (Units=GPa)
#
#
# Indices 1 2 3 4 5 6 
#
# 1 214.9041 41.4829 33.7593 0.0000 10.9183 0.0000
# 2 41.4829 102.7869 32.6223 0.0000 3.1616 0.0000
# 3 33.7593 32.6223 106.5536 0.0000 -6.1965 0.0000
# 4 0.0000 0.0000 0.0000 33.7822 0.0000 5.3207
# 5 10.9183 3.1616 -6.1965 0.0000 48.0414 0.0000
# 6 0.0000 0.0000 0.0000 5.3207 0.0000 57.6184
#
#
#
# Elastic Compliance Matrix: (Units=1/GPa)
#
#
# Indices 1 2 3 4 5 6 
#
# 1 0.005232 -0.001689 -0.001212 0.000000 -0.001234 0.000000
# 2 -0.001689 0.011384 -0.002994 0.000000 -0.000751 0.000000
# 3 -0.001212 -0.002994 0.010794 0.000000 0.001865 0.000000
# 4 0.000000 0.000000 0.000000 0.030038 0.000000 -0.002774
# 5 -0.001234 -0.000751 0.001865 0.000000 0.021386 0.000000
# 6 0.000000 0.000000 0.000000 -0.002774 0.000000 0.017612
#
#
# Mechanical properties :
#
#
# Convention : Reuss Voigt Hill
#
# Bulk Modulus (GPa) = 64.02120 71.10819 67.56470
# Shear Modulus (GPa) = 44.07485 48.98041 46.52763
#
# Velocity S-wave (km/s) = 3.92603 4.13875 4.03379
# Velocity P-wave (km/s) = 6.55292 6.90700 6.73229
#
# Compressibility (1/GPa) = 0.01561983
#
# Stress axis : x y z
#
# Youngs Moduli (GPa) = 191.11546 87.84422 92.64284
#
# Poissons Ratio (x) = 0.14836 0.11233
# Poissons Ratio (y) = 0.32278 0.27736
# Poissons Ratio (z) = 0.23173 0.26299
#
# Static dielectric constant tensor:
#      x y z
#    x 2.151750 0.000000 0.033160 
#    y 0.000000 2.220610 0.000000 
#    z 0.033160 0.000000 2.387660 
# 
# From -- ./inp_files/115573.got.cif
#   From: 2010.05.17/outbox.cif.g08.bks.cpg/sg15_58_cif.got.tgz:115573.got - 2010.06.03 18:47:42.
