data_PCOD9296612
_publ_section_title
;
Structure prediction by ZEFSAII (Michael W. Deem and Ramdas Pophale) SiO2 
 PCOD9296612
Probable space group: C 2/C
;
_chemical_formula_sum "Si O2"
_cell_formula_units_Z 40
_cell_length_a 29.133702
_cell_length_b 5.362608
_cell_length_c 14.215633
_cell_angle_alpha 90.000000
_cell_angle_beta 123.065880
_cell_angle_gamma 90.000000
_cell_volume 1861.249666
_symmetry_space_group_name_H-M "C 2/C"
_symmetry_group_IT_number 15
_symmetry_cell_setting 'monoclinic'
loop_
_space_group_symop_operation_xyz
x,y,z
-x,y,1/2-z
-x,-y,-z
x,-y,1/2+z
1/2+x,1/2+y,z
1/2-x,1/2+y,1/2-z
1/2-x,1/2-y,-z
1/2+x,1/2-y,1/2+z
loop_
_atom_site_type_symbol
_atom_site_label
_atom_site_fract_x
_atom_site_fract_y
_atom_site_fract_z
Si Si1 0.870954 0.884559 0.765728
Si Si2 0.284616 0.503306 0.514903
Si Si3 0.981190 0.587340 0.833884
Si Si4 0.281383 0.322235 0.802366
Si Si5 0.452776 0.299500 0.433207
O O1 0.838578 0.983053 0.639518
O O2 0.926506 0.743893 0.797828
O O3 0.829016 0.734054 0.784063
O O4 0.892346 0.096739 0.861143
O O5 0.250000 0.250000 0.500000
O O6 0.298057 0.552981 0.420316
O O7 0.250000 0.750000 0.500000
O O8 0.962452 0.311825 0.840587
O O9 0.000000 0.628382 0.750000
O O10 0.032529 0.622814 0.963147
O O11 0.252330 0.563865 0.720131
O O12 0.500000 0.500000 0.500000
#
# Coordination Sequence:
#
# PCOD9296612 Si02
#       5
#     8   8   8   8   8
#     4  11  25  42  73  98 141 184 237 280 369 414
#     4  12  25  46  69 107 144 187 239 289 345 430
#     4  10  23  45  70 100 137 178 238 295 351 427
#     4  12  25  46  71 103 149 190 235 298 347 418
#     4   9  22  45  65  98 135 171 232 294 350 420
#
# _framework density 21.490938
#
# number of rings (size 3 to 8) (size 9 to 14) (size 15 to 20)
#    0.000    1.200    4.000    0.000    8.400    3.200 
#    7.200    0.000    0.000    0.000    0.000    0.000 
#    0.000    0.000    0.000    0.000    0.000    0.000 
#
# Total GULP energy -111379.731025 kJ/mol
# GULP energy per Si atom -5568.986551 kJ/mol
# Density = 2.144202 g / cm^3
# Si number density = 21.490938 Si / 1000 Ang^3
#
#
#
# Elastic Constant Matrix: (Units=GPa)
#
#
# Indices 1 2 3 4 5 6 
#
# 1 119.5457 23.5127 46.9506 0.0000 -19.2749 0.0000
# 2 23.5127 95.8899 22.0611 0.0000 11.1198 0.0000
# 3 46.9506 22.0611 134.1862 0.0000 5.3388 0.0000
# 4 0.0000 0.0000 0.0000 18.0061 0.0000 -13.0445
# 5 -19.2749 11.1198 5.3388 0.0000 40.7245 0.0000
# 6 0.0000 0.0000 0.0000 -13.0445 0.0000 15.2132
#
#
#
# Elastic Compliance Matrix: (Units=1/GPa)
#
#
# Indices 1 2 3 4 5 6 
#
# 1 0.011481 -0.002706 -0.003838 0.000000 0.006676 0.000000
# 2 -0.002706 0.011790 -0.000817 0.000000 -0.004393 0.000000
# 3 -0.003838 -0.000817 0.009040 0.000000 -0.002779 0.000000
# 4 0.000000 0.000000 0.000000 0.146603 0.000000 0.125704
# 5 0.006676 -0.004393 -0.002779 0.000000 0.029279 0.000000
# 6 0.000000 0.000000 0.000000 0.125704 0.000000 0.173517
#
#
# Mechanical properties :
#
#
# Convention : Reuss Voigt Hill
#
# Bulk Modulus (GPa) = 56.85373 59.40782 58.13078
# Shear Modulus (GPa) = 12.42873 31.92859 22.17866
#
# Velocity S-wave (km/s) = 2.40745 3.85863 3.21596
# Velocity P-wave (km/s) = 5.85149 6.89603 6.39512
#
# Compressibility (1/GPa) = 0.01758900
#
# Stress axis : x y z
#
# Youngs Moduli (GPa) = 87.10081 84.82085 110.62052
#
# Poissons Ratio (x) = 0.22956 0.42453
# Poissons Ratio (y) = 0.23573 0.09033
# Poissons Ratio (z) = 0.33427 0.06926
#
# Static dielectric constant tensor:
#      x y z
#    x 1.851730 0.000000 -0.010040 
#    y 0.000000 1.904880 0.000000 
#    z -0.010040 0.000000 1.805360 
# 
# From -- ./inp_files/175310.got.cif
#   From: 2010.05.17/outbox.cif.g08.bks.cpg/sg15_88_cif.got.tgz:175310.got - 2010.06.03 18:47:42.
