data_PCOD9296589
_publ_section_title
;
Structure prediction by ZEFSAII (Michael W. Deem and Ramdas Pophale) SiO2 
 PCOD9296589
Probable space group: C 2/C
;
_chemical_formula_sum "Si O2"
_cell_formula_units_Z 64
_cell_length_a 26.973916
_cell_length_b 8.598371
_cell_length_c 20.725625
_cell_angle_alpha 90.000000
_cell_angle_beta 147.352134
_cell_angle_gamma 90.000000
_cell_volume 2593.215780
_symmetry_space_group_name_H-M "C 2/C"
_symmetry_group_IT_number 15
_symmetry_cell_setting 'monoclinic'
loop_
_space_group_symop_operation_xyz
x,y,z
-x,y,1/2-z
-x,-y,-z
x,-y,1/2+z
1/2+x,1/2+y,z
1/2-x,1/2+y,1/2-z
1/2-x,1/2-y,-z
1/2+x,1/2-y,1/2+z
loop_
_atom_site_type_symbol
_atom_site_label
_atom_site_fract_x
_atom_site_fract_y
_atom_site_fract_z
Si Si1 0.260671 0.057268 0.068670
Si Si2 0.523902 0.049168 0.597401
Si Si3 0.462599 0.485904 0.385380
Si Si4 0.671248 0.251350 0.805720
Si Si5 0.785680 0.224991 0.719644
Si Si6 0.947122 0.015880 0.636993
Si Si7 0.678329 0.902585 0.608245
Si Si8 0.442699 0.158728 0.243071
O O1 0.263163 0.153004 0.138722
O O2 0.334854 0.152429 0.107640
O O3 0.305724 0.883052 0.117852
O O4 0.153088 0.035303 0.942417
O O5 0.615032 0.150939 0.691260
O O6 0.429568 0.124076 0.518228
O O7 0.500000 0.000000 0.500000
O O8 0.543563 0.922308 0.673310
O O9 0.500000 0.500000 0.500000
O O10 0.398828 0.604356 0.271845
O O11 0.385027 0.351814 0.311687
O O12 0.554602 0.507717 0.441988
O O13 0.766964 0.318639 0.888271
O O14 0.791514 0.320775 0.792230
O O15 0.711934 0.083158 0.643586
O O16 0.000000 0.916506 0.750000
O O17 0.010009 0.173447 0.700236
O O18 0.500000 0.074333 0.250000
#
# Coordination Sequence:
#
# PCOD9296589 Si02
#       8
#     8   8   8   8   8   8   8   8
#     4  11  23  45  72  98 140 187 237 295 356 431
#     4  11  22  39  66  97 137 176 229 281 350 418
#     4  11  25  43  67 104 146 186 234 296 355 425
#     4  10  25  39  64 102 138 179 232 281 362 422
#     4  11  22  39  63 101 142 177 239 281 360 418
#     4  11  26  46  72 101 141 188 242 295 362 426
#     4  11  22  37  62  98 137 184 220 291 346 423
#     4  10  23  45  69 103 137 182 237 291 354 421
#
# _framework density 24.679781999999999
#
# number of rings (size 3 to 8) (size 9 to 14) (size 15 to 20)
#    0.000    1.250    1.250    4.500    8.750    2.000 
#    4.500    3.125    0.000    0.000    0.000    0.000 
#    0.000    0.000    0.000    0.000    0.000    0.000 
#
# Total GULP energy -178178.233565 kJ/mol
# GULP energy per Si atom -5568.069799 kJ/mol
# Density = 2.462361 g / cm^3
# Si number density = 24.679782 Si / 1000 Ang^3
#
#
#
# Elastic Constant Matrix: (Units=GPa)
#
#
# Indices 1 2 3 4 5 6 
#
# 1 90.2857 5.6345 16.9537 0.0000 9.1283 0.0000
# 2 5.6345 80.4676 4.2812 0.0000 1.2970 0.0000
# 3 16.9537 4.2812 109.7281 0.0000 32.2872 0.0000
# 4 0.0000 0.0000 0.0000 19.2083 0.0000 6.0281
# 5 9.1283 1.2970 32.2872 0.0000 51.9914 0.0000
# 6 0.0000 0.0000 0.0000 6.0281 0.0000 25.2955
#
#
#
# Elastic Compliance Matrix: (Units=1/GPa)
#
#
# Indices 1 2 3 4 5 6 
#
# 1 0.011500 -0.000712 -0.001420 0.000000 -0.001120 0.000000
# 2 -0.000712 0.012497 -0.000395 0.000000 0.000058 0.000000
# 3 -0.001420 -0.000395 0.011345 0.000000 -0.006786 0.000000
# 4 0.000000 0.000000 0.000000 0.056269 0.000000 -0.013409
# 5 -0.001120 0.000058 -0.006786 0.000000 0.023643 0.000000
# 6 0.000000 0.000000 0.000000 -0.013409 0.000000 0.042728
#
#
# Mechanical properties :
#
#
# Convention : Reuss Voigt Hill
#
# Bulk Modulus (GPa) = 33.01392 37.13558 35.07475
# Shear Modulus (GPa) = 28.87968 36.20650 32.54309
#
# Velocity S-wave (km/s) = 3.42449 3.83437 3.63521
# Velocity P-wave (km/s) = 5.38908 5.88921 5.64469
#
# Compressibility (1/GPa) = 0.03029025
#
# Stress axis : x y z
#
# Youngs Moduli (GPa) = 86.95535 80.01753 88.14440
#
# Poissons Ratio (x) = 0.05695 0.12513
# Poissons Ratio (y) = 0.06189 0.03480
# Poissons Ratio (z) = 0.12344 0.03159
#
# Static dielectric constant tensor:
#      x y z
#    x 3.326360 0.000000 -0.873150 
#    y 0.000000 2.109750 0.000000 
#    z -0.873150 0.000000 2.701870 
# 
# From -- ./inp_files/284457.got.cif
#   From: 2010.05.17/outbox.cif.g08.bks.cpg/sg15_143_cif.got.tgz:284457.got - 2010.06.03 18:47:42.
