data_PCOD9296581
_publ_section_title
;
Structure prediction by ZEFSAII (Michael W. Deem and Ramdas Pophale) SiO2 
 PCOD9296581
Probable space group: C 2/C
;
_chemical_formula_sum "Si O2"
_cell_formula_units_Z 44
_cell_length_a 6.289364
_cell_length_b 26.647293
_cell_length_c 14.820507
_cell_angle_alpha 90.000000
_cell_angle_beta 125.577121
_cell_angle_gamma 90.000000
_cell_volume 2020.186014
_symmetry_space_group_name_H-M "C 2/C"
_symmetry_group_IT_number 15
_symmetry_cell_setting 'monoclinic'
loop_
_space_group_symop_operation_xyz
x,y,z
-x,y,1/2-z
-x,-y,-z
x,-y,1/2+z
1/2+x,1/2+y,z
1/2-x,1/2+y,1/2-z
1/2-x,1/2-y,-z
1/2+x,1/2-y,1/2+z
loop_
_atom_site_type_symbol
_atom_site_label
_atom_site_fract_x
_atom_site_fract_y
_atom_site_fract_z
Si Si1 0.000000 0.207415 0.250000
Si Si2 0.562467 0.141567 0.045093
Si Si3 0.745163 0.533859 0.450750
Si Si4 0.790632 0.960483 0.343948
Si Si5 0.479489 0.350841 0.351680
Si Si6 0.124819 0.712062 0.898320
O O1 0.249322 0.175474 0.345219
O O2 0.921671 0.247440 0.307910
O O3 0.688269 0.086641 0.078485
O O4 0.247837 0.142180 0.976959
O O5 0.565353 0.164025 0.944328
O O6 0.498306 0.500915 0.359819
O O7 0.693801 0.543931 0.543973
O O8 0.000000 0.500000 0.500000
O O9 0.500000 0.977400 0.250000
O O10 0.844924 0.905574 0.317478
O O11 0.500000 0.336671 0.250000
O O12 0.308077 0.311269 0.365956
O O13 0.250000 0.750000 0.000000
#
# Coordination Sequence:
#
# PCOD9296581 Si02
#       6
#     4   8   8   8   8   8
#     4  10  24  42  68  96 134 190 228 304 358 424
#     4  11  23  45  69 102 144 186 241 297 369 439
#     4  11  23  44  68 101 145 186 232 296 366 442
#     4  11  25  41  68 105 141 188 241 293 360 435
#     4  12  24  41  77 106 139 193 248 302 362 435
#     4  10  23  45  68  98 141 183 242 302 359 426
#
# _framework density 21.780173000000001
#
# number of rings (size 3 to 8) (size 9 to 14) (size 15 to 20)
#    0.000    1.091    3.636    2.182    1.273    4.364 
#    0.000    7.273    0.000    0.000    0.000    0.000 
#    0.000    0.000    0.000    0.000    0.000    0.000 
#
# Total GULP energy -122571.021417 kJ/mol
# GULP energy per Si atom -5571.410064 kJ/mol
# Density = 2.173060 g / cm^3
# Si number density = 21.780173 Si / 1000 Ang^3
#
#
#
# Elastic Constant Matrix: (Units=GPa)
#
#
# Indices 1 2 3 4 5 6 
#
# 1 83.4718 61.5293 33.5350 0.0000 24.3770 0.0000
# 2 61.5293 172.7883 54.3711 0.0000 17.3913 0.0000
# 3 33.5350 54.3711 103.0198 0.0000 27.9502 0.0000
# 4 0.0000 0.0000 0.0000 26.4053 0.0000 18.9527
# 5 24.3770 17.3913 27.9502 0.0000 55.4800 0.0000
# 6 0.0000 0.0000 0.0000 18.9527 0.0000 16.8347
#
#
#
# Elastic Compliance Matrix: (Units=1/GPa)
#
#
# Indices 1 2 3 4 5 6 
#
# 1 0.018234 -0.005445 -0.001565 0.000000 -0.005516 0.000000
# 2 -0.005445 0.008573 -0.003095 0.000000 0.001264 0.000000
# 3 -0.001565 -0.003095 0.013205 0.000000 -0.004995 0.000000
# 4 0.000000 0.000000 0.000000 0.197309 0.000000 -0.222133
# 5 -0.005516 0.001264 -0.004995 0.000000 0.022568 0.000000
# 6 0.000000 0.000000 0.000000 -0.222133 0.000000 0.309480
#
#
# Mechanical properties :
#
#
# Convention : Reuss Voigt Hill
#
# Bulk Modulus (GPa) = 50.50273 73.12786 61.81530
# Shear Modulus (GPa) = 8.38672 33.73363 21.06018
#
# Velocity S-wave (km/s) = 1.96443 3.93978 3.11294
# Velocity P-wave (km/s) = 5.32758 7.37185 6.43146
#
# Compressibility (1/GPa) = 0.01980091
#
# Stress axis : x y z
#
# Youngs Moduli (GPa) = 54.84371 116.64290 75.72916
#
# Poissons Ratio (x) = 0.63515 0.11851
# Poissons Ratio (y) = 0.29864 0.23440
# Poissons Ratio (z) = 0.08583 0.36103
#
# Static dielectric constant tensor:
#      x y z
#    x 1.864540 0.000000 -0.016700 
#    y 0.000000 1.905250 0.000000 
#    z -0.016700 0.000000 1.878840 
# 
# From -- ./inp_files/130135.got.cif
#   From: 2010.05.17/outbox.cif.g08.bks.cpg/sg15_66_cif.got.tgz:130135.got - 2010.06.03 18:47:42.
