data_PCOD9296836
_publ_section_title
;
Structure prediction by ZEFSAII (Michael W. Deem and Ramdas Pophale) SiO2 
 PCOD9296836
Probable space group: C 2/C
;
_chemical_formula_sum "Si O2"
_cell_formula_units_Z 48
_cell_length_a 17.025474
_cell_length_b 10.415418
_cell_length_c 17.945791
_cell_angle_alpha 90.000000
_cell_angle_beta 137.221128
_cell_angle_gamma 90.000000
_cell_volume 2161.311970
_symmetry_space_group_name_H-M "C 2/C"
_symmetry_group_IT_number 15
_symmetry_cell_setting 'monoclinic'
loop_
_space_group_symop_operation_xyz
x,y,z
-x,y,1/2-z
-x,-y,-z
x,-y,1/2+z
1/2+x,1/2+y,z
1/2-x,1/2+y,1/2-z
1/2-x,1/2-y,-z
1/2+x,1/2-y,1/2+z
loop_
_atom_site_type_symbol
_atom_site_label
_atom_site_fract_x
_atom_site_fract_y
_atom_site_fract_z
Si Si1 0.419829 0.884565 0.413586
Si Si2 0.579677 0.972160 0.737636
Si Si3 0.237960 0.851220 0.420149
Si Si4 0.567102 0.364928 0.034284
Si Si5 0.536455 0.307642 0.169999
Si Si6 0.195275 0.022974 0.018933
O O1 0.391536 0.934666 0.310764
O O2 0.324674 0.854925 0.411133
O O3 0.485704 0.750040 0.452931
O O4 0.500000 0.000000 0.500000
O O5 0.500000 0.024393 0.750000
O O6 0.703517 0.924926 0.856549
O O7 0.247430 0.983699 0.472993
O O8 0.250000 0.750000 0.500000
O O9 0.513643 0.843819 0.663591
O O10 0.112895 0.844799 0.293979
O O11 0.500000 0.500000 0.000000
O O12 0.611546 0.325731 0.146946
O O13 0.658016 0.393683 0.033378
O O14 0.421824 0.391552 0.073949
#
# Coordination Sequence:
#
# PCOD9296836 Si02
#       6
#     8   8   8   8   8   8
#     4  12  26  45  74 111 146 194 252 310 383 449
#     4  12  25  44  73 110 153 197 252 323 386 448
#     4  12  23  42  76 111 147 198 261 310 368 456
#     4  10  23  46  69 103 150 193 250 308 368 451
#     4  11  23  42  75 108 144 203 259 306 369 460
#     4  11  24  43  70 107 152 193 252 315 375 448
#
# _framework density 22.208731
#
# number of rings (size 3 to 8) (size 9 to 14) (size 15 to 20)
#    0.000    0.667    3.333    5.500    0.000    0.000 
#    0.000    6.667    0.000    0.000    0.000    0.000 
#    0.000    0.000    0.000    0.000    0.000    0.000 
#
# Total GULP energy -133746.216764 kJ/mol
# GULP energy per Si atom -5572.759032 kJ/mol
# Density = 2.215818 g / cm^3
# Si number density = 22.208731 Si / 1000 Ang^3
#
#
#
# Elastic Constant Matrix: (Units=GPa)
#
#
# Indices 1 2 3 4 5 6 
#
# 1 185.3155 48.9491 69.2133 0.0000 -24.9629 0.0000
# 2 48.9491 83.0573 46.8265 0.0000 -8.6059 0.0000
# 3 69.2133 46.8265 164.8500 0.0000 -22.4818 0.0000
# 4 0.0000 0.0000 0.0000 32.1534 0.0000 -2.5312
# 5 -24.9629 -8.6059 -22.4818 0.0000 49.0951 0.0000
# 6 0.0000 0.0000 0.0000 -2.5312 0.0000 49.6038
#
#
#
# Elastic Compliance Matrix: (Units=1/GPa)
#
#
# Indices 1 2 3 4 5 6 
#
# 1 0.007177 -0.002941 -0.001867 0.000000 0.002279 0.000000
# 2 -0.002941 0.015563 -0.003219 0.000000 -0.000241 0.000000
# 3 -0.001867 -0.003219 0.008061 0.000000 0.002178 0.000000
# 4 0.000000 0.000000 0.000000 0.031226 0.000000 0.001593
# 5 0.002279 -0.000241 0.002178 0.000000 0.022482 0.000000
# 6 0.000000 0.000000 0.000000 0.001593 0.000000 0.020241
#
#
# Mechanical properties :
#
#
# Convention : Reuss Voigt Hill
#
# Bulk Modulus (GPa) = 67.80847 84.80006 76.30427
# Shear Modulus (GPa) = 39.77043 44.05274 41.91158
#
# Velocity S-wave (km/s) = 4.23632 4.45857 4.34887
# Velocity P-wave (km/s) = 7.38425 8.04806 7.72329
#
# Compressibility (1/GPa) = 0.01474742
#
# Stress axis : x y z
#
# Youngs Moduli (GPa) = 139.32552 64.25541 124.04736
#
# Poissons Ratio (x) = 0.18898 0.23163
# Poissons Ratio (y) = 0.40977 0.39928
# Poissons Ratio (z) = 0.26016 0.20682
#
# Static dielectric constant tensor:
#      x y z
#    x 1.977510 0.000000 0.034950 
#    y 0.000000 1.895570 0.000000 
#    z 0.034950 0.000000 1.872960 
# 
# From -- ./inp_files/248447.got.cif
#   From: 2010.05.17/outbox.cif.g08.bks.cpg/sg15_125_cif.got.tgz:248447.got - 2010.06.03 18:47:42.
