data_PCOD9296337
_publ_section_title
;
Structure prediction by ZEFSAII (Michael W. Deem and Ramdas Pophale) SiO2 
 PCOD9296337
Probable space group: C 2/C
;
_chemical_formula_sum "Si O2"
_cell_formula_units_Z 56
_cell_length_a 14.809633
_cell_length_b 5.118636
_cell_length_c 27.441853
_cell_angle_alpha 90.000000
_cell_angle_beta 108.564297
_cell_angle_gamma 90.000000
_cell_volume 1971.992174
_symmetry_space_group_name_H-M "C 2/C"
_symmetry_group_IT_number 15
_symmetry_cell_setting 'monoclinic'
loop_
_space_group_symop_operation_xyz
x,y,z
-x,y,1/2-z
-x,-y,-z
x,-y,1/2+z
1/2+x,1/2+y,z
1/2-x,1/2+y,1/2-z
1/2-x,1/2-y,-z
1/2+x,1/2-y,1/2+z
loop_
_atom_site_type_symbol
_atom_site_label
_atom_site_fract_x
_atom_site_fract_y
_atom_site_fract_z
Si Si1 0.635055 0.463691 0.194494
Si Si2 0.000000 0.792987 0.250000
Si Si3 0.500000 0.500000 0.000000
Si Si4 0.057593 0.591348 0.090341
Si Si5 0.765200 0.717153 0.889023
Si Si6 0.794487 0.743491 0.670328
Si Si7 0.807349 0.999347 0.528035
Si Si8 0.019465 0.388086 0.338616
O O1 0.593801 0.411457 0.240910
O O2 0.595168 0.280690 0.142057
O O3 0.747618 0.401280 0.209113
O O4 0.581926 0.740614 0.177042
O O5 0.028352 0.620805 0.301624
O O6 0.546896 0.263884 0.041326
O O7 0.410977 0.508335 0.023584
O O8 0.122824 0.345220 0.082024
O O9 0.966548 0.471436 0.103019
O O10 0.738653 0.016498 0.875304
O O11 0.701052 0.560767 0.916374
O O12 0.750144 0.529675 0.840326
O O13 0.903555 0.790656 0.674427
O O14 0.750000 0.750000 0.500000
O O15 0.750000 0.250000 0.500000
#
# Coordination Sequence:
#
# PCOD9296337 Si02
#       8
#     8   4   4   8   8   8   8   8
#     4  10  23  46  69 100 145 185 233 303 357 433
#     4  10  24  46  68 106 142 176 238 296 366 438
#     4  12  26  46  72 108 142 206 246 304 376 442
#     4  10  23  44  71  99 144 190 242 296 371 425
#     4  11  23  48  67 102 144 189 242 314 353 432
#     4  11  25  43  77 102 139 189 244 287 372 439
#     4  12  27  46  67 102 147 188 249 314 361 432
#     4  11  23  45  74 103 140 190 234 300 365 444
#
# _framework density 28.397677999999999
#
# number of rings (size 3 to 8) (size 9 to 14) (size 15 to 20)
#    0.000    1.143    2.857    2.143    8.000    0.571 
#    5.143    0.000    0.000    0.000    0.000    0.000 
#    0.000    0.000    0.000    0.000    0.000    0.000 
#
# Total GULP energy -155868.772538 kJ/mol
# GULP energy per Si atom -5566.741876 kJ/mol
# Density = 2.833304 g / cm^3
# Si number density = 28.397678 Si / 1000 Ang^3
#
#
#
# Elastic Constant Matrix: (Units=GPa)
#
#
# Indices 1 2 3 4 5 6 
#
# 1 171.8067 8.4929 25.0505 0.0000 -66.7688 0.0000
# 2 8.4929 116.8219 24.6764 -0.0001 -7.6452 0.0002
# 3 25.0505 24.6764 115.4609 0.0000 -47.6558 0.0000
# 4 0.0000 -0.0001 0.0000 49.7126 0.0000 -24.9767
# 5 -66.7688 -7.6452 -47.6558 0.0000 56.0803 0.0000
# 6 0.0000 0.0002 0.0000 -24.9767 0.0000 15.0342
#
#
#
# Elastic Compliance Matrix: (Units=1/GPa)
#
#
# Indices 1 2 3 4 5 6 
#
# 1 0.012744 -0.000810 0.005583 0.000000 0.019807 0.000000
# 2 -0.000810 0.009030 -0.002532 0.000000 -0.001885 -0.000001
# 3 0.005583 -0.002532 0.016314 0.000000 0.020166 0.000000
# 4 0.000000 0.000000 0.000000 0.121683 0.000000 0.202155
# 5 0.019807 -0.001885 0.020166 0.000000 0.058294 0.000000
# 6 0.000000 -0.000001 0.000000 0.202155 0.000000 0.402360
#
#
# Mechanical properties :
#
#
# Convention : Reuss Voigt Hill
#
# Bulk Modulus (GPa) = 23.48979 57.83656 40.66318
# Shear Modulus (GPa) = 7.93484 47.22338 27.57911
#
# Velocity S-wave (km/s) = 1.67340 4.08233 3.11975
# Velocity P-wave (km/s) = 3.46747 6.52927 5.22756
#
# Compressibility (1/GPa) = 0.04257168
#
# Stress axis : x y z
#
# Youngs Moduli (GPa) = 78.46768 110.73648 61.29697
#
# Poissons Ratio (x) = 0.08966 -0.34225
# Poissons Ratio (y) = 0.06353 0.15522
# Poissons Ratio (z) = -0.43812 0.28041
#
# Static dielectric constant tensor:
#      x y z
#    x 1.901820 0.000000 -0.627110 
#    y 0.000000 0.994400 0.000000 
#    z -0.627110 0.000000 1.396870 
# 
# From -- ./inp_files/312387.got.cif
#   From: 2010.05.17/outbox.cif.g08.bks.cpg/sg15_157_cif.got.tgz:312387.got - 2010.06.03 18:47:42.
