data_PCOD9296383
_publ_section_title
;
Structure prediction by ZEFSAII (Michael W. Deem and Ramdas Pophale) SiO2 
 PCOD9296383
Probable space group: C 2/C
;
_chemical_formula_sum "Si O2"
_cell_formula_units_Z 32
_cell_length_a 17.918965
_cell_length_b 5.756716
_cell_length_c 15.023391
_cell_angle_alpha 90.000000
_cell_angle_beta 71.264898
_cell_angle_gamma 90.000000
_cell_volume 1467.614344
_symmetry_space_group_name_H-M "C 2/C"
_symmetry_group_IT_number 15
_symmetry_cell_setting 'monoclinic'
loop_
_space_group_symop_operation_xyz
x,y,z
-x,y,1/2-z
-x,-y,-z
x,-y,1/2+z
1/2+x,1/2+y,z
1/2-x,1/2+y,1/2-z
1/2-x,1/2-y,-z
1/2+x,1/2-y,1/2+z
loop_
_atom_site_type_symbol
_atom_site_label
_atom_site_fract_x
_atom_site_fract_y
_atom_site_fract_z
Si Si1 0.618523 0.422979 0.968442
Si Si2 0.977108 0.692007 0.937447
Si Si3 0.927632 0.323796 0.828735
Si Si4 0.735747 0.846412 0.706449
O O1 0.551931 0.362359 0.919143
O O2 0.702660 0.358304 0.898736
O O3 0.602725 0.690525 0.996735
O O4 0.598949 0.302862 0.070270
O O5 0.960809 0.569885 0.851274
O O6 0.000000 0.500000 0.000000
O O7 0.853631 0.347872 0.793187
O O8 0.000000 0.203457 0.750000
O O9 0.749958 0.593657 0.747729
#
# Coordination Sequence:
#
# PCOD9296383 Si02
#       4
#     8   8   8   8
#     4  10  23  44  73 100 143 186 236 297 358 420
#     4   9  21  40  71 100 135 179 235 290 358 415
#     4  11  25  43  71 103 141 188 242 291 356 426
#     4  12  30  47  71 106 148 189 239 295 356 420
#
# _framework density 21.804092000000001
#
# number of rings (size 3 to 8) (size 9 to 14) (size 15 to 20)
#    0.000    1.500    0.000    2.250   21.000    2.000 
#    0.000    0.000    0.000    0.000    0.000    0.000 
#    0.000    0.000    0.000    0.000    0.000    0.000 
#
# Total GULP energy -89267.511256 kJ/mol
# GULP energy per Si atom -5579.219453 kJ/mol
# Density = 2.175446 g / cm^3
# Si number density = 21.804092 Si / 1000 Ang^3
#
#
#
# Elastic Constant Matrix: (Units=GPa)
#
#
# Indices 1 2 3 4 5 6 
#
# 1 153.4299 32.8233 64.3072 0.0000 11.4198 0.0000
# 2 32.8233 106.8527 57.6233 0.0000 15.0346 0.0000
# 3 64.3072 57.6233 141.8809 0.0000 -20.8761 0.0000
# 4 0.0000 0.0000 0.0000 24.6732 0.0000 -11.6138
# 5 11.4198 15.0346 -20.8761 0.0000 45.9988 0.0000
# 6 0.0000 0.0000 0.0000 -11.6138 0.0000 11.0964
#
#
#
# Elastic Compliance Matrix: (Units=1/GPa)
#
#
# Indices 1 2 3 4 5 6 
#
# 1 0.008787 0.000589 -0.004898 0.000000 -0.004597 0.000000
# 2 0.000589 0.014210 -0.007226 0.000000 -0.008070 0.000000
# 3 -0.004898 -0.007226 0.013640 0.000000 0.009768 0.000000
# 4 0.000000 0.000000 0.000000 0.079885 0.000000 0.083610
# 5 -0.004597 -0.008070 0.009768 0.000000 0.029952 0.000000
# 6 0.000000 0.000000 0.000000 0.083610 0.000000 0.177628
#
#
# Mechanical properties :
#
#
# Convention : Reuss Voigt Hill
#
# Bulk Modulus (GPa) = 73.70627 79.07456 76.39041
# Shear Modulus (GPa) = 14.21693 32.84767 23.53230
#
# Velocity S-wave (km/s) = 2.55626 3.88556 3.28877
# Velocity P-wave (km/s) = 6.52609 7.51497 7.03792
#
# Compressibility (1/GPa) = 0.01356737
#
# Stress axis : x y z
#
# Youngs Moduli (GPa) = 113.80761 70.37421 73.31290
#
# Poissons Ratio (x) = -0.04147 0.35911
# Poissons Ratio (y) = -0.06706 0.52973
# Poissons Ratio (z) = 0.55746 0.50850
#
# Static dielectric constant tensor:
#      x y z
#    x 1.787360 0.000000 -0.010590 
#    y 0.000000 1.907420 0.000000 
#    z -0.010590 0.000000 1.818600 
# 
# From -- ./inp_files/158157.got.cif
#   From: 2010.05.17/outbox.cif.g08.bks.cpg/sg15_80_cif.got.tgz:158157.got - 2010.06.03 18:47:42.
