data_PCOD9296017
_publ_section_title
;
Structure prediction by ZEFSAII (Michael W. Deem and Ramdas Pophale) SiO2 
 PCOD9296017
Probable space group: C 2/C
;
_chemical_formula_sum "Si O2"
_cell_formula_units_Z 52
_cell_length_a 31.776340
_cell_length_b 11.331312
_cell_length_c 8.400713
_cell_angle_alpha 90.000000
_cell_angle_beta 60.001012
_cell_angle_gamma 90.000000
_cell_volume 2619.601797
_symmetry_space_group_name_H-M "C 2/C"
_symmetry_group_IT_number 15
_symmetry_cell_setting 'monoclinic'
loop_
_space_group_symop_operation_xyz
x,y,z
-x,y,1/2-z
-x,-y,-z
x,-y,1/2+z
1/2+x,1/2+y,z
1/2-x,1/2+y,1/2-z
1/2-x,1/2-y,-z
1/2+x,1/2-y,1/2+z
loop_
_atom_site_type_symbol
_atom_site_label
_atom_site_fract_x
_atom_site_fract_y
_atom_site_fract_z
Si Si1 0.085252 0.967150 0.725558
Si Si2 0.868106 0.654898 0.420799
Si Si3 0.245022 0.382391 0.951316
Si Si4 0.465868 0.278131 0.158339
Si Si5 0.000000 0.810026 0.750000
Si Si6 0.349180 0.399330 0.621079
Si Si7 0.680623 0.956105 0.789905
O O1 0.046899 0.889680 0.702194
O O2 0.106179 0.898594 0.837874
O O3 0.058432 0.091166 0.814878
O O4 0.132750 0.002264 0.535753
O O5 0.923618 0.686145 0.280096
O O6 0.846050 0.772847 0.541534
O O7 0.858051 0.545374 0.557065
O O8 0.842450 0.623444 0.303201
O O9 0.222060 0.464234 0.129785
O O10 0.250000 0.250000 0.000000
O O11 0.297589 0.426777 0.795585
O O12 0.206655 0.384839 0.879776
O O13 0.500000 0.284844 0.250000
O O14 0.489328 0.248541 0.941340
#
# Coordination Sequence:
#
# PCOD9296017 Si02
#       7
#     8   8   8   8   4   8   8
#     4  11  21  37  60  94 139 169 202 258 329 408
#     4  10  23  44  65  92 121 175 215 273 324 386
#     4  11  22  42  65  95 126 174 218 267 326 389
#     4  11  23  41  65  97 135 171 216 266 329 405
#     4  12  20  38  64  94 132 184 200 258 344 396
#     4  11  22  38  60  98 133 164 215 263 324 400
#     4  10  23  46  67  84 131 171 219 275 328 377
#
# _framework density 19.850345999999998
#
# number of rings (size 3 to 8) (size 9 to 14) (size 15 to 20)
#    0.000    1.231    3.846    3.231    0.000    1.846 
#   11.077    0.769    0.000    0.000    0.000    0.000 
#    0.000    0.000    0.000    0.000    0.000    0.000 
#
# Total GULP energy -145206.696899 kJ/mol
# GULP energy per Si atom -5584.872958 kJ/mol
# Density = 1.980517 g / cm^3
# Si number density = 19.850346 Si / 1000 Ang^3
#
#
#
# Elastic Constant Matrix: (Units=GPa)
#
#
# Indices 1 2 3 4 5 6 
#
# 1 85.9511 62.6154 53.3716 0.0000 9.2729 0.0000
# 2 62.6154 76.5131 43.7774 0.0000 7.8749 0.0000
# 3 53.3716 43.7774 142.2669 0.0000 1.8197 0.0000
# 4 0.0000 0.0000 0.0000 4.5945 0.0000 3.1836
# 5 9.2729 7.8749 1.8197 0.0000 37.8293 0.0000
# 6 0.0000 0.0000 0.0000 3.1836 0.0000 22.7035
#
#
#
# Elastic Compliance Matrix: (Units=1/GPa)
#
#
# Indices 1 2 3 4 5 6 
#
# 1 0.031446 -0.022722 -0.004770 0.000000 -0.002749 0.000000
# 2 -0.022722 0.032645 -0.001506 0.000000 -0.001153 0.000000
# 3 -0.004770 -0.001506 0.009269 0.000000 0.001037 0.000000
# 4 0.000000 0.000000 0.000000 0.241076 0.000000 -0.033804
# 5 -0.002749 -0.001153 0.001037 0.000000 0.027299 0.000000
# 6 0.000000 0.000000 0.000000 -0.033804 0.000000 0.048786
#
#
# Mechanical properties :
#
#
# Convention : Reuss Voigt Hill
#
# Bulk Modulus (GPa) = 65.09126 69.36221 67.22674
# Shear Modulus (GPa) = 11.02199 22.68989 16.85594
#
# Velocity S-wave (km/s) = 2.35894 3.38457 2.91718
# Velocity P-wave (km/s) = 6.34678 7.09170 6.72955
#
# Compressibility (1/GPa) = 0.01536304
#
# Stress axis : x y z
#
# Youngs Moduli (GPa) = 31.80039 30.63233 107.88926
#
# Poissons Ratio (x) = 0.69604 0.51463
# Poissons Ratio (y) = 0.72258 0.16252
# Poissons Ratio (z) = 0.15169 0.04614
#
# Static dielectric constant tensor:
#      x y z
#    x 1.695480 0.000000 0.035930 
#    y 0.000000 1.660800 0.000000 
#    z 0.035930 0.000000 1.779010 
# 
# From -- ./inp_files/65353.got.cif
#   From: 2010.05.17/outbox.cif.g08.bks.cpg/sg15_33_cif.got.tgz:65353.got - 2010.06.03 18:47:42.
