data_PCOD9296301
_publ_section_title
;
Structure prediction by ZEFSAII (Michael W. Deem and Ramdas Pophale) SiO2 
 PCOD9296301
Probable space group: C 2/C
;
_chemical_formula_sum "Si O2"
_cell_formula_units_Z 40
_cell_length_a 7.160525
_cell_length_b 8.758975
_cell_length_c 26.928056
_cell_angle_alpha 90.000000
_cell_angle_beta 83.463036
_cell_angle_gamma 90.000000
_cell_volume 1677.916793
_symmetry_space_group_name_H-M "C 2/C"
_symmetry_group_IT_number 15
_symmetry_cell_setting 'monoclinic'
loop_
_space_group_symop_operation_xyz
x,y,z
-x,y,1/2-z
-x,-y,-z
x,-y,1/2+z
1/2+x,1/2+y,z
1/2-x,1/2+y,1/2-z
1/2-x,1/2-y,-z
1/2+x,1/2-y,1/2+z
loop_
_atom_site_type_symbol
_atom_site_label
_atom_site_fract_x
_atom_site_fract_y
_atom_site_fract_z
Si Si1 0.927712 0.170762 0.882795
Si Si2 0.018958 0.662889 0.476966
Si Si3 0.048649 0.104070 0.046272
Si Si4 0.740438 0.389458 0.297602
Si Si5 0.657384 0.757500 0.308020
O O1 0.736696 0.184307 0.857957
O O2 0.932729 0.292035 0.927079
O O3 0.089642 0.193575 0.837111
O O4 0.971327 0.005983 0.906539
O O5 0.939671 0.753001 0.527446
O O6 0.241647 0.672199 0.457890
O O7 0.000000 0.500000 0.500000
O O8 0.000000 0.000000 0.000000
O O9 0.698450 0.573515 0.302468
O O10 0.731335 0.338598 0.240542
O O11 0.944495 0.321916 0.308459
#
# Coordination Sequence:
#
# PCOD9296301 Si02
#       5
#     8   8   8   8   8
#     4  11  26  45  77 107 154 199 270 313 403 479
#     4  10  23  44  71 102 151 195 258 321 401 458
#     4   9  22  43  64 100 143 195 244 319 381 464
#     4  11  29  50  78 115 158 205 258 332 396 486
#     4  11  29  49  81 114 159 205 261 324 411 474
#
# _framework density 23.839082999999999
#
# number of rings (size 3 to 8) (size 9 to 14) (size 15 to 20)
#    0.000    1.600    0.000    0.600   16.800    9.600 
#    0.000    0.000    0.000    0.000    0.000    0.000 
#    0.000    0.000    0.000    0.000    0.000    0.000 
#
# Total GULP energy -111457.717683 kJ/mol
# GULP energy per Si atom -5572.885884 kJ/mol
# Density = 2.378482 g / cm^3
# Si number density = 23.839083 Si / 1000 Ang^3
#
#
#
# Elastic Constant Matrix: (Units=GPa)
#
#
# Indices 1 2 3 4 5 6 
#
# 1 76.6517 -7.2891 32.3446 0.0000 27.1032 0.0000
# 2 -7.2891 146.7754 36.5171 0.0000 23.0220 0.0000
# 3 32.3446 36.5171 154.8575 0.0000 39.2764 0.0000
# 4 0.0000 0.0000 0.0000 40.4029 0.0000 2.3693
# 5 27.1032 23.0220 39.2764 0.0000 49.2808 0.0000
# 6 0.0000 0.0000 0.0000 2.3693 0.0000 30.0615
#
#
#
# Elastic Compliance Matrix: (Units=1/GPa)
#
#
# Indices 1 2 3 4 5 6 
#
# 1 0.017441 0.002816 -0.001931 0.000000 -0.009369 0.000000
# 2 0.002816 0.007954 -0.001414 0.000000 -0.004137 0.000000
# 3 -0.001931 -0.001414 0.008469 0.000000 -0.005027 0.000000
# 4 0.000000 0.000000 0.000000 0.024866 0.000000 -0.001960
# 5 -0.009369 -0.004137 -0.005027 0.000000 0.031384 0.000000
# 6 0.000000 0.000000 0.000000 -0.001960 0.000000 0.033420
#
#
# Mechanical properties :
#
#
# Convention : Reuss Voigt Hill
#
# Bulk Modulus (GPa) = 30.48186 55.71442 43.09814
# Shear Modulus (GPa) = 36.89282 45.06317 40.97800
#
# Velocity S-wave (km/s) = 3.93819 4.35248 4.15051
# Velocity P-wave (km/s) = 5.78735 6.97715 6.40991
#
# Compressibility (1/GPa) = 0.03280640
#
# Stress axis : x y z
#
# Youngs Moduli (GPa) = 57.33512 125.72579 118.07103
#
# Poissons Ratio (x) = -0.35405 0.22796
# Poissons Ratio (y) = -0.16146 0.16701
# Poissons Ratio (z) = 0.11070 0.17784
#
# Static dielectric constant tensor:
#      x y z
#    x 1.995310 0.000000 0.020550 
#    y 0.000000 1.947800 0.000000 
#    z 0.020550 0.000000 1.896200 
# 
# From -- ./inp_files/287034.got.cif
#   From: 2010.05.17/outbox.cif.g08.bks.cpg/sg15_144_cif.got.tgz:287034.got - 2010.06.03 18:47:42.
