data_PCOD9296407
_publ_section_title
;
Structure prediction by ZEFSAII (Michael W. Deem and Ramdas Pophale) SiO2 
 PCOD9296407
Probable space group: C 2/C
;
_chemical_formula_sum "Si O2"
_cell_formula_units_Z 60
_cell_length_a 16.166108
_cell_length_b 8.615867
_cell_length_c 19.159261
_cell_angle_alpha 90.000000
_cell_angle_beta 84.691683
_cell_angle_gamma 90.000000
_cell_volume 2657.153493
_symmetry_space_group_name_H-M "C 2/C"
_symmetry_group_IT_number 15
_symmetry_cell_setting 'monoclinic'
loop_
_space_group_symop_operation_xyz
x,y,z
-x,y,1/2-z
-x,-y,-z
x,-y,1/2+z
1/2+x,1/2+y,z
1/2-x,1/2+y,1/2-z
1/2-x,1/2-y,-z
1/2+x,1/2-y,1/2+z
loop_
_atom_site_type_symbol
_atom_site_label
_atom_site_fract_x
_atom_site_fract_y
_atom_site_fract_z
Si Si1 0.273284 0.223285 0.661103
Si Si2 0.258370 0.862003 0.696424
Si Si3 0.597534 0.144008 0.121394
Si Si4 0.582540 0.395831 0.491073
Si Si5 0.109691 0.276496 0.130321
Si Si6 0.428881 0.693286 0.667606
Si Si7 0.000000 0.916111 0.750000
Si Si8 0.342277 0.710780 0.015234
O O1 0.288803 0.324873 0.728087
O O2 0.182499 0.276149 0.640890
O O3 0.343410 0.251155 0.597032
O O4 0.267979 0.042962 0.680707
O O5 0.203300 0.779270 0.641275
O O6 0.349103 0.787369 0.699132
O O7 0.516148 0.214895 0.163459
O O8 0.602943 0.961543 0.134337
O O9 0.596319 0.192037 0.039129
O O10 0.500000 0.500000 0.500000
O O11 0.585896 0.277315 0.554299
O O12 0.588909 0.331921 0.413069
O O13 0.650806 0.527992 0.497696
O O14 0.051060 0.188627 0.190988
O O15 0.443735 0.534592 0.708482
O O16 0.250000 0.750000 0.000000
#
# Coordination Sequence:
#
# PCOD9296407 Si02
#       8
#     8   8   8   8   8   8   4   8
#     4  11  26  47  72 106 148 192 246 298 370 433
#     4  12  27  45  73 107 147 191 242 302 365 434
#     4  11  25  49  73 108 147 192 241 302 362 440
#     4  12  25  48  74 107 140 193 245 299 365 439
#     4  12  28  46  75 110 149 189 250 298 368 436
#     4  12  27  47  77 105 148 192 242 302 368 435
#     4  12  26  50  76 106 150 200 238 308 370 438
#     4  10  23  44  73  97 142 188 236 298 358 426
#
# _framework density 22.580555
#
# number of rings (size 3 to 8) (size 9 to 14) (size 15 to 20)
#    0.000    0.533    2.667    4.800    9.333    4.800 
#    0.000    0.000    0.000    0.000    0.000    0.000 
#    0.000    0.000    0.000    0.000    0.000    0.000 
#
# Total GULP energy -167951.953227 kJ/mol
# GULP energy per Si atom -5598.398441 kJ/mol
# Density = 2.252916 g / cm^3
# Si number density = 22.580555 Si / 1000 Ang^3
#
#
#
# Elastic Constant Matrix: (Units=GPa)
#
#
# Indices 1 2 3 4 5 6 
#
# 1 88.9091 46.2064 22.3082 0.0000 -1.4436 0.0000
# 2 46.2064 157.6477 49.2405 0.0000 -25.6113 0.0000
# 3 22.3082 49.2405 148.5081 0.0000 -15.7892 0.0000
# 4 0.0000 0.0000 0.0000 34.9751 0.0000 5.2390
# 5 -1.4436 -25.6113 -15.7892 0.0000 28.2161 0.0000
# 6 0.0000 0.0000 0.0000 5.2390 0.0000 38.6491
#
#
#
# Elastic Compliance Matrix: (Units=1/GPa)
#
#
# Indices 1 2 3 4 5 6 
#
# 1 0.013681 -0.004302 -0.001031 0.000000 -0.003782 0.000000
# 2 -0.004302 0.009310 -0.001665 0.000000 0.007299 0.000000
# 3 -0.001031 -0.001665 0.007734 0.000000 0.002764 0.000000
# 4 0.000000 0.000000 0.000000 0.029184 0.000000 -0.003956
# 5 -0.003782 0.007299 0.002764 0.000000 0.043419 0.000000
# 6 0.000000 0.000000 0.000000 -0.003956 0.000000 0.026410
#
#
# Mechanical properties :
#
#
# Convention : Reuss Voigt Hill
#
# Bulk Modulus (GPa) = 59.77350 70.06387 64.91869
# Shear Modulus (GPa) = 33.48738 38.85537 36.17137
#
# Velocity S-wave (km/s) = 3.85518 4.15269 4.00669
# Velocity P-wave (km/s) = 6.80773 7.35451 7.08640
#
# Compressibility (1/GPa) = 0.01672982
#
# Stress axis : x y z
#
# Youngs Moduli (GPa) = 73.09663 107.41207 129.29446
#
# Poissons Ratio (x) = 0.46211 0.13325
# Poissons Ratio (y) = 0.31448 0.21522
# Poissons Ratio (z) = 0.07534 0.17880
#
# Static dielectric constant tensor:
#      x y z
#    x 1.905520 0.000000 -0.006170 
#    y 0.000000 1.738670 0.000000 
#    z -0.006170 0.000000 1.982580 
# 
# From -- ./inp_files/209605.got.cif
#   From: 2010.05.17/outbox.cif.g08.bks.cpg/sg15_105_cif.got.tgz:209605.got - 2010.06.03 18:47:42.
