data_PCOD9296125
_publ_section_title
;
Structure prediction by ZEFSAII (Michael W. Deem and Ramdas Pophale) SiO2 
 PCOD9296125
Probable space group: C 2/C
;
_chemical_formula_sum "Si O2"
_cell_formula_units_Z 40
_cell_length_a 17.423986
_cell_length_b 16.459700
_cell_length_c 11.698115
_cell_angle_alpha 90.000000
_cell_angle_beta 26.550720
_cell_angle_gamma 90.000000
_cell_volume 1499.626093
_symmetry_space_group_name_H-M "C 2/C"
_symmetry_group_IT_number 15
_symmetry_cell_setting 'monoclinic'
loop_
_space_group_symop_operation_xyz
x,y,z
-x,y,1/2-z
-x,-y,-z
x,-y,1/2+z
1/2+x,1/2+y,z
1/2-x,1/2+y,1/2-z
1/2-x,1/2-y,-z
1/2+x,1/2-y,1/2+z
loop_
_atom_site_type_symbol
_atom_site_label
_atom_site_fract_x
_atom_site_fract_y
_atom_site_fract_z
Si Si1 0.470924 0.344365 0.475379
Si Si2 0.186814 0.039674 0.821334
Si Si3 0.333394 0.188939 0.756333
Si Si4 0.000000 0.533775 0.250000
Si Si5 0.765030 0.901041 0.567811
Si Si6 0.500000 0.798531 0.250000
O O1 0.509613 0.420916 0.506695
O O2 0.467245 0.257626 0.537697
O O3 0.291629 0.346976 0.644995
O O4 0.615558 0.359722 0.187298
O O5 0.277712 0.122685 0.740965
O O6 0.325899 0.001255 0.546610
O O7 0.172318 0.985156 0.954886
O O8 0.423599 0.149583 0.747298
O O9 0.159870 0.238315 0.015635
O O10 0.907700 0.581969 0.268875
#
# Coordination Sequence:
#
# PCOD9296125 Si02
#       6
#     8   8   8   4   8   4
#     4  10  23  45  70 100 138 188 234 288 352 431
#     4  11  23  44  70 102 143 187 238 291 353 425
#     4  11  23  45  69 105 139 188 240 295 353 423
#     4  10  24  41  64 106 135 186 232 300 354 415
#     4  10  23  44  68 101 140 187 234 290 357 422
#     4  10  24  43  64 102 143 188 228 298 356 425
#
# _framework density 26.673316
#
# number of rings (size 3 to 8) (size 9 to 14) (size 15 to 20)
#    0.000    1.600    2.000    1.200    2.800    4.000 
#   14.400    7.000    0.000    0.000    0.000    0.000 
#    0.000    0.000    0.000    0.000    0.000    0.000 
#
# Total GULP energy -111550.158481 kJ/mol
# GULP energy per Si atom -5577.507924 kJ/mol
# Density = 2.661261 g / cm^3
# Si number density = 26.673316 Si / 1000 Ang^3
#
#
#
# Elastic Constant Matrix: (Units=GPa)
#
#
# Indices 1 2 3 4 5 6 
#
# 1 183.7126 -6.7480 25.7562 -0.0001 -30.5827 0.0000
# 2 -6.7480 64.4349 26.1368 -0.0005 13.8547 -0.0001
# 3 25.7562 26.1368 167.7670 -0.0002 -17.6826 -0.0002
# 4 -0.0001 -0.0005 -0.0002 34.3391 -0.0002 -6.6658
# 5 -30.5827 13.8547 -17.6826 -0.0002 30.9056 0.0003
# 6 0.0000 -0.0001 -0.0002 -6.6658 0.0003 -13.0531
#
#
#
# Elastic Compliance Matrix: (Units=1/GPa)
#
#
# Indices 1 2 3 4 5 6 
#
# 1 0.006558 -0.000668 -0.000199 0.000000 0.006675 0.000000
# 2 -0.000668 0.019728 -0.004228 0.000000 -0.011924 0.000000
# 3 -0.000199 -0.004228 0.007267 0.000000 0.005856 0.000000
# 4 0.000000 0.000000 0.000000 0.026495 0.000000 -0.013530
# 5 0.006675 -0.011924 0.005856 0.000000 0.047657 0.000001
# 6 0.000000 0.000000 0.000000 -0.013530 0.000001 -0.069701
#
#
# Mechanical properties :
#
#
# Convention : Reuss Voigt Hill
#
# Bulk Modulus (GPa) = 42.80079 56.24496 49.52287
# Shear Modulus (GPa) = 89.31458 35.15628 62.23543
#
# Velocity S-wave (km/s) = 5.79287 3.63441 4.83561
# Velocity P-wave (km/s) = 7.79899 6.22449 7.05580
#
# Compressibility (1/GPa) = 0.02336406
#
# Stress axis : x y z
#
# Youngs Moduli (GPa) = 152.48979 50.68845 137.60611
#
# Poissons Ratio (x) = 0.03384 0.02742
# Poissons Ratio (y) = 0.10179 0.58177
# Poissons Ratio (z) = 0.03039 0.21430
#
# Static dielectric constant tensor:
#      x y z
#    x 2.126730 0.000000 -0.025330 
#    y 0.000000 2.054510 0.000000 
#    z -0.025330 0.000000 2.175140 
# 
# From -- ./inp_files/106864.got.cif
#   From: 2010.05.17/outbox.cif.g08.bks.cpg/sg15_54_cif.got.tgz:106864.got - 2010.06.03 18:47:42.
