data_PCOD9296724
_publ_section_title
;
Structure prediction by ZEFSAII (Michael W. Deem and Ramdas Pophale) SiO2 
 PCOD9296724
Probable space group: C 2/C
;
_chemical_formula_sum "Si O2"
_cell_formula_units_Z 36
_cell_length_a 19.295760
_cell_length_b 6.573223
_cell_length_c 18.881942
_cell_angle_alpha 90.000000
_cell_angle_beta 38.975340
_cell_angle_gamma 90.000000
_cell_volume 1506.356584
_symmetry_space_group_name_H-M "C 2/C"
_symmetry_group_IT_number 15
_symmetry_cell_setting 'monoclinic'
loop_
_space_group_symop_operation_xyz
x,y,z
-x,y,1/2-z
-x,-y,-z
x,-y,1/2+z
1/2+x,1/2+y,z
1/2-x,1/2+y,1/2-z
1/2-x,1/2-y,-z
1/2+x,1/2-y,1/2+z
loop_
_atom_site_type_symbol
_atom_site_label
_atom_site_fract_x
_atom_site_fract_y
_atom_site_fract_z
Si Si1 0.665836 0.397189 0.027412
Si Si2 0.000000 0.828638 0.750000
Si Si3 0.690875 0.177853 0.685471
Si Si4 0.828625 0.001596 0.696785
Si Si5 0.023726 0.287051 0.517586
O O1 0.582718 0.521301 0.143288
O O2 0.601159 0.252959 0.023530
O O3 0.750000 0.250000 0.000000
O O4 0.730845 0.577463 0.934914
O O5 0.068816 0.688974 0.750145
O O6 0.709065 0.409549 0.698722
O O7 0.728081 0.051495 0.724991
O O8 0.913591 0.843352 0.592905
O O9 0.907058 0.195670 0.635516
O O10 0.000000 0.500000 0.500000
#
# Coordination Sequence:
#
# PCOD9296724 Si02
#       5
#     8   4   8   8   8
#     4  11  27  49  76 117 161 215 271 327 412 485
#     4  12  26  50  76 112 166 212 268 330 406 480
#     4  11  26  48  75 112 158 209 266 333 397 483
#     4  10  24  45  72 111 148 202 267 327 397 467
#     4  10  23  45  74 107 149 199 266 334 394 466
#
# _framework density 23.898724000000001
#
# number of rings (size 3 to 8) (size 9 to 14) (size 15 to 20)
#    0.000    1.333    2.222    0.667    6.222    6.222 
#    0.000    1.111    0.000    0.000    0.000    0.000 
#    0.000    0.000    0.000    0.000    0.000    0.000 
#
# Total GULP energy -100614.854682 kJ/mol
# GULP energy per Si atom -5589.714149 kJ/mol
# Density = 2.384433 g / cm^3
# Si number density = 23.898724 Si / 1000 Ang^3
#
#
#
# Elastic Constant Matrix: (Units=GPa)
#
#
# Indices 1 2 3 4 5 6 
#
# 1 214.6648 88.7684 67.4673 0.0004 -25.0132 -0.0002
# 2 88.7684 154.3672 85.6879 0.0014 -18.2319 -0.0009
# 3 67.4673 85.6879 139.7204 0.0003 -11.1676 0.0000
# 4 0.0004 0.0014 0.0003 47.6976 -0.0002 -12.4121
# 5 -25.0132 -18.2319 -11.1676 -0.0002 25.0578 0.0002
# 6 -0.0002 -0.0009 0.0000 -12.4121 0.0002 49.4573
#
#
#
# Elastic Compliance Matrix: (Units=1/GPa)
#
#
# Indices 1 2 3 4 5 6 
#
# 1 0.006620 -0.002618 -0.001260 0.000000 0.004141 0.000000
# 2 -0.002618 0.011403 -0.005470 0.000000 0.003246 0.000000
# 3 -0.001260 -0.005470 0.011097 0.000000 -0.000292 0.000000
# 4 0.000000 0.000000 0.000000 0.022430 0.000000 0.005629
# 5 0.004141 0.003246 -0.000292 0.000000 0.046273 0.000000
# 6 0.000000 0.000000 0.000000 0.005629 0.000000 0.021632
#
#
# Mechanical properties :
#
#
# Convention : Reuss Voigt Hill
#
# Bulk Modulus (GPa) = 95.93114 110.28886 103.11000
# Shear Modulus (GPa) = 35.30452 42.23111 38.76782
#
# Velocity S-wave (km/s) = 3.84768 4.20823 4.03199
# Velocity P-wave (km/s) = 7.74386 8.35828 8.05693
#
# Compressibility (1/GPa) = 0.01042414
#
# Stress axis : x y z
#
# Youngs Moduli (GPa) = 151.06681 87.69516 90.11796
#
# Poissons Ratio (x) = 0.22960 0.11352
# Poissons Ratio (y) = 0.39552 0.49291
# Poissons Ratio (z) = 0.19030 0.47966
#
# Static dielectric constant tensor:
#      x y z
#    x 1.910080 0.000000 0.007480 
#    y 0.000000 1.937370 0.000000 
#    z 0.007480 0.000000 1.923260 
# 
# From -- ./inp_files/250957.got.cif
#   From: 2010.05.17/outbox.cif.g08.bks.cpg/sg15_126_cif.got.tgz:250957.got - 2010.06.03 18:47:42.
