data_PCOD9296980
_publ_section_title
;
Structure prediction by ZEFSAII (Michael W. Deem and Ramdas Pophale) SiO2 
 PCOD9296980
Probable space group: C 2/C
;
_chemical_formula_sum "Si O2"
_cell_formula_units_Z 32
_cell_length_a 17.974121
_cell_length_b 5.333128
_cell_length_c 19.517867
_cell_angle_alpha 90.000000
_cell_angle_beta 44.864023
_cell_angle_gamma 90.000000
_cell_volume 1319.817513
_symmetry_space_group_name_H-M "C 2/C"
_symmetry_group_IT_number 15
_symmetry_cell_setting 'monoclinic'
loop_
_space_group_symop_operation_xyz
x,y,z
-x,y,1/2-z
-x,-y,-z
x,-y,1/2+z
1/2+x,1/2+y,z
1/2-x,1/2+y,1/2-z
1/2-x,1/2-y,-z
1/2+x,1/2-y,1/2+z
loop_
_atom_site_type_symbol
_atom_site_label
_atom_site_fract_x
_atom_site_fract_y
_atom_site_fract_z
Si Si1 0.724285 0.859049 0.443070
Si Si2 0.390967 0.615666 0.099054
Si Si3 0.089866 0.064338 0.772539
Si Si4 0.494715 0.073565 0.877258
O O1 0.750000 0.750000 0.500000
O O2 0.687841 0.649672 0.411628
O O3 0.826466 0.974846 0.341294
O O4 0.622798 0.034068 0.519258
O O5 0.353895 0.458524 0.189171
O O6 0.425970 0.880278 0.110436
O O7 0.500000 0.500000 0.000000
O O8 0.031770 0.330854 0.811163
O O9 0.008326 0.834313 0.828596
#
# Coordination Sequence:
#
# PCOD9296980 Si02
#       4
#     8   8   8   8
#     4  12  26  47  79 118 154 194 260 327 387 443
#     4  10  23  46  79 101 153 199 258 299 377 459
#     4  10  26  45  81 102 149 205 254 298 383 458
#     4  10  24  48  75 105 150 197 257 301 371 466
#
# _framework density 24.245777
#
# number of rings (size 3 to 8) (size 9 to 14) (size 15 to 20)
#    1.500    0.000    2.500    0.750    3.500    5.000 
#    0.000   16.250    0.000    0.000    0.000    0.000 
#    0.000    0.000    0.000    0.000    0.000    0.000 
#
# Total GULP energy -89467.160682 kJ/mol
# GULP energy per Si atom -5591.697543 kJ/mol
# Density = 2.419059 g / cm^3
# Si number density = 24.245777 Si / 1000 Ang^3
#
#
#
# Elastic Constant Matrix: (Units=GPa)
#
#
# Indices 1 2 3 4 5 6 
#
# 1 128.5471 19.0443 32.1261 0.0043 35.6461 0.0048
# 2 19.0443 132.3666 47.3982 -0.0090 -6.9429 -0.0060
# 3 32.1261 47.3982 182.2605 -0.0037 13.5975 -0.0026
# 4 0.0043 -0.0090 -0.0037 19.1913 -0.0005 -10.0310
# 5 35.6461 -6.9429 13.5975 -0.0005 31.2511 -0.0043
# 6 0.0048 -0.0060 -0.0026 -10.0310 -0.0043 12.3282
#
#
#
# Elastic Compliance Matrix: (Units=1/GPa)
#
#
# Indices 1 2 3 4 5 6 
#
# 1 0.012183 -0.002325 -0.000483 -0.000017 -0.014202 -0.000025
# 2 -0.002325 0.009034 -0.002364 0.000014 0.005687 0.000018
# 3 -0.000483 -0.002364 0.006392 0.000000 -0.002755 -0.000001
# 4 -0.000017 0.000014 0.000000 0.090667 0.000035 0.073772
# 5 -0.014202 0.005687 -0.002755 0.000035 0.050661 0.000054
# 6 -0.000025 0.000018 -0.000001 0.073772 0.000054 0.141141
#
#
# Mechanical properties :
#
#
# Convention : Reuss Voigt Hill
#
# Bulk Modulus (GPa) = 57.92013 71.14572 64.53293
# Shear Modulus (GPa) = 15.32915 35.52781 25.42848
#
# Velocity S-wave (km/s) = 2.51717 3.83210 3.24200
# Velocity P-wave (km/s) = 5.69111 6.99909 6.37872
#
# Compressibility (1/GPa) = 0.01726515
#
# Stress axis : x y z
#
# Youngs Moduli (GPa) = 82.08356 110.69276 156.44219
#
# Poissons Ratio (x) = 0.25732 0.07561
# Poissons Ratio (y) = 0.19082 0.36981
# Poissons Ratio (z) = 0.03967 0.26167
#
# Static dielectric constant tensor:
#      x y z
#    x 1.920110 0.000000 0.019440 
#    y 0.000000 1.935600 0.000000 
#    z 0.019440 0.000000 1.895820 
# 
# From -- ./inp_files/278431.got.cif
#   From: 2010.05.17/outbox.cif.g08.bks.cpg/sg15_140_cif.got.tgz:278431.got - 2010.06.03 18:47:42.
