data_PCOD9296394
_publ_section_title
;
Structure prediction by ZEFSAII (Michael W. Deem and Ramdas Pophale) SiO2 
 PCOD9296394
Probable space group: C 2/C
;
_chemical_formula_sum "Si O2"
_cell_formula_units_Z 32
_cell_length_a 10.944454
_cell_length_b 22.905136
_cell_length_c 5.419463
_cell_angle_alpha 90.000000
_cell_angle_beta 67.968394
_cell_angle_gamma 90.000000
_cell_volume 1259.366747
_symmetry_space_group_name_H-M "C 2/C"
_symmetry_group_IT_number 15
_symmetry_cell_setting 'monoclinic'
loop_
_space_group_symop_operation_xyz
x,y,z
-x,y,1/2-z
-x,-y,-z
x,-y,1/2+z
1/2+x,1/2+y,z
1/2-x,1/2+y,1/2-z
1/2-x,1/2-y,-z
1/2+x,1/2-y,1/2+z
loop_
_atom_site_type_symbol
_atom_site_label
_atom_site_fract_x
_atom_site_fract_y
_atom_site_fract_z
Si Si1 0.789308 0.969614 0.944255
Si Si2 0.500000 0.937627 0.250000
Si Si3 0.385170 0.361437 0.171727
Si Si4 0.000000 0.238274 0.250000
Si Si5 0.109873 0.332626 0.477162
O O1 0.629057 0.970863 0.060229
O O2 0.835942 0.905755 0.996777
O O3 0.832435 0.010531 0.140876
O O4 0.552808 0.893461 0.418699
O O5 0.500000 0.387823 0.250000
O O6 0.259213 0.345322 0.436461
O O7 0.442426 0.303974 0.000958
O O8 0.889971 0.282950 0.231761
O O9 0.000000 0.311939 0.750000
#
# Coordination Sequence:
#
# PCOD9296394 Si02
#       5
#     8   4   8   4   8
#     4  11  26  45  72 104 144 191 246 299 358 424
#     4   9  22  40  72 106 140 182 234 303 358 428
#     4  11  27  44  71 102 145 189 235 295 362 435
#     4  11  24  44  68 102 142 188 240 289 364 422
#     4  10  23  44  73 106 140 180 237 299 359 434
#
# _framework density 25.409596000000001
#
# number of rings (size 3 to 8) (size 9 to 14) (size 15 to 20)
#    0.000    1.500    0.000    2.250   10.500    9.000 
#    0.000    0.000    0.000    0.000    0.000    0.000 
#    0.000    0.000    0.000    0.000    0.000    0.000 
#
# Total GULP energy -89625.335708 kJ/mol
# GULP energy per Si atom -5601.583482 kJ/mol
# Density = 2.535176 g / cm^3
# Si number density = 25.409596 Si / 1000 Ang^3
#
#
#
# Elastic Constant Matrix: (Units=GPa)
#
#
# Indices 1 2 3 4 5 6 
#
# 1 155.5600 25.9135 44.3046 0.0000 -14.3569 0.0000
# 2 25.9135 103.1079 25.3706 0.0000 -0.7177 0.0000
# 3 44.3046 25.3706 81.0248 0.0000 -6.6500 0.0000
# 4 0.0000 0.0000 0.0000 42.4704 0.0000 0.3261
# 5 -14.3569 -0.7177 -6.6500 0.0000 23.7564 0.0000
# 6 0.0000 0.0000 0.0000 0.3261 0.0000 9.5744
#
#
#
# Elastic Compliance Matrix: (Units=1/GPa)
#
#
# Indices 1 2 3 4 5 6 
#
# 1 0.008020 -0.001069 -0.003741 0.000000 0.003767 0.000000
# 2 -0.001069 0.010659 -0.002845 0.000000 -0.001120 0.000000
# 3 -0.003741 -0.002845 0.015441 0.000000 0.001975 0.000000
# 4 0.000000 0.000000 0.000000 0.023552 0.000000 -0.000802
# 5 0.003767 -0.001120 0.001975 0.000000 0.044890 0.000000
# 6 0.000000 0.000000 0.000000 -0.000802 0.000000 0.104472
#
#
# Mechanical properties :
#
#
# Convention : Reuss Voigt Hill
#
# Bulk Modulus (GPa) = 53.16570 58.98559 56.07564
# Shear Modulus (GPa) = 21.87091 31.43384 26.65237
#
# Velocity S-wave (km/s) = 2.93701 3.52104 3.24220
# Velocity P-wave (km/s) = 5.69827 6.30829 6.01102
#
# Compressibility (1/GPa) = 0.01880912
#
# Stress axis : x y z
#
# Youngs Moduli (GPa) = 124.69371 93.81323 64.76385
#
# Poissons Ratio (x) = 0.10026 0.24231
# Poissons Ratio (y) = 0.13326 0.18427
# Poissons Ratio (z) = 0.46652 0.26692
#
# Static dielectric constant tensor:
#      x y z
#    x 1.991770 0.000000 -0.022560 
#    y 0.000000 1.927650 0.000000 
#    z -0.022560 0.000000 2.066890 
# 
# From -- ./inp_files/4010.got.cif
#   From: 2010.05.17/outbox.cif.g08.bks.cpg/sg15_3_cif.got.tgz:4010.got - 2010.06.03 18:47:42.
