data_PCOD9296160
_publ_section_title
;
Structure prediction by ZEFSAII (Michael W. Deem and Ramdas Pophale) SiO2 
 PCOD9296160
Probable space group: C 2/C
;
_chemical_formula_sum "Si O2"
_cell_formula_units_Z 56
_cell_length_a 15.280344
_cell_length_b 18.953073
_cell_length_c 8.395315
_cell_angle_alpha 90.000000
_cell_angle_beta 96.405027
_cell_angle_gamma 90.000000
_cell_volume 2416.186535
_symmetry_space_group_name_H-M "C 2/C"
_symmetry_group_IT_number 15
_symmetry_cell_setting 'monoclinic'
loop_
_space_group_symop_operation_xyz
x,y,z
-x,y,1/2-z
-x,-y,-z
x,-y,1/2+z
1/2+x,1/2+y,z
1/2-x,1/2+y,1/2-z
1/2-x,1/2-y,-z
1/2+x,1/2-y,1/2+z
loop_
_atom_site_type_symbol
_atom_site_label
_atom_site_fract_x
_atom_site_fract_y
_atom_site_fract_z
Si Si1 0.366187 0.361519 0.522792
Si Si2 0.068652 0.992838 0.378652
Si Si3 0.183512 0.870610 0.359650
Si Si4 0.002497 0.622029 0.562973
Si Si5 0.166896 0.442343 0.965362
Si Si6 0.189460 0.402606 0.602737
Si Si7 0.468350 0.270735 0.060920
O O1 0.396796 0.428558 0.637170
O O2 0.338630 0.376042 0.332379
O O3 0.269814 0.348607 0.581449
O O4 0.453082 0.313294 0.515613
O O5 0.000000 0.953989 0.250000
O O6 0.146304 0.941787 0.431593
O O7 0.000000 0.000000 0.500000
O O8 0.285366 0.882878 0.414875
O O9 0.124892 0.810798 0.431808
O O10 0.904337 0.626597 0.472148
O O11 0.000000 0.606399 0.750000
O O12 0.063727 0.565998 0.484036
O O13 0.042945 0.698669 0.535051
O O14 0.186355 0.422260 0.787754
O O15 0.196309 0.522288 0.011186
O O16 0.500000 0.258023 0.250000
#
# Coordination Sequence:
#
# PCOD9296160 Si02
#       7
#     8   8   8   8   8   8   8
#     4  11  23  39  64  99 136 174 217 267 324 392
#     4  12  21  34  59  93 136 177 212 263 325 386
#     4  11  22  40  63 100 135 175 215 268 326 387
#     4  12  27  49  70  93 126 173 226 277 326 390
#     4  12  26  44  71  99 133 169 219 274 333 387
#     4  12  26  44  70 100 132 170 219 274 332 387
#     4  10  23  44  68  95 137 178 220 266 323 388
#
# _framework density 23.177019000000001
#
# number of rings (size 3 to 8) (size 9 to 14) (size 15 to 20)
#    0.000    0.571    4.286    4.714    2.000    2.857 
#    0.000    0.000    0.000    0.000    0.000    0.000 
#    0.000    0.000    0.000    0.000    0.000    0.000 
#
# Total GULP energy -156136.073935 kJ/mol
# GULP energy per Si atom -5576.288355 kJ/mol
# Density = 2.312427 g / cm^3
# Si number density = 23.177019 Si / 1000 Ang^3
#
#
#
# Elastic Constant Matrix: (Units=GPa)
#
#
# Indices 1 2 3 4 5 6 
#
# 1 109.4980 15.6785 -9.5318 0.0000 -6.3795 0.0000
# 2 15.6785 49.3338 5.6563 0.0000 -5.2165 0.0000
# 3 -9.5318 5.6563 56.3270 0.0000 -17.4970 0.0000
# 4 0.0000 0.0000 0.0000 18.8115 0.0000 2.2316
# 5 -6.3795 -5.2165 -17.4970 0.0000 38.7624 0.0000
# 6 0.0000 0.0000 0.0000 2.2316 0.0000 22.7759
#
#
#
# Elastic Compliance Matrix: (Units=1/GPa)
#
#
# Indices 1 2 3 4 5 6 
#
# 1 0.009980 -0.003230 0.002778 0.000000 0.002462 0.000000
# 2 -0.003230 0.021704 -0.002307 0.000000 0.001348 0.000000
# 3 0.002778 -0.002307 0.021518 0.000000 0.009860 0.000000
# 4 0.000000 0.000000 0.000000 0.053784 0.000000 -0.005270
# 5 0.002462 0.001348 0.009860 0.000000 0.030835 0.000000
# 6 0.000000 0.000000 0.000000 -0.005270 0.000000 0.044422
#
#
# Mechanical properties :
#
#
# Convention : Reuss Voigt Hill
#
# Bulk Modulus (GPa) = 20.97178 26.52942 23.75060
# Shear Modulus (GPa) = 24.55109 29.62701 27.08905
#
# Velocity S-wave (km/s) = 3.25820 3.57920 3.42246
# Velocity P-wave (km/s) = 4.81899 5.34342 5.08797
#
# Compressibility (1/GPa) = 0.04768313
#
# Stress axis : x y z
#
# Youngs Moduli (GPa) = 100.19720 46.07525 46.47266
#
# Poissons Ratio (x) = 0.14882 -0.12910
# Poissons Ratio (y) = 0.32363 0.10723
# Poissons Ratio (z) = -0.27834 0.10631
#
# Static dielectric constant tensor:
#      x y z
#    x 1.988700 0.000000 0.013660 
#    y 0.000000 1.952500 0.000000 
#    z 0.013660 0.000000 1.858660 
# 
# From -- ./inp_files/41223.got.cif
#   From: 2010.05.17/outbox.cif.g08.bks.cpg/sg15_21_cif.got.tgz:41223.got - 2010.06.03 18:47:42.
