data_PCOD9296875
_publ_section_title
;
Structure prediction by ZEFSAII (Michael W. Deem and Ramdas Pophale) SiO2 
 PCOD9296875
Probable space group: C 2/C
;
_chemical_formula_sum "Si O2"
_cell_formula_units_Z 44
_cell_length_a 18.192333
_cell_length_b 9.077427
_cell_length_c 10.512024
_cell_angle_alpha 90.000000
_cell_angle_beta 101.627282
_cell_angle_gamma 90.000000
_cell_volume 1700.328402
_symmetry_space_group_name_H-M "C 2/C"
_symmetry_group_IT_number 15
_symmetry_cell_setting 'monoclinic'
loop_
_space_group_symop_operation_xyz
x,y,z
-x,y,1/2-z
-x,-y,-z
x,-y,1/2+z
1/2+x,1/2+y,z
1/2-x,1/2+y,1/2-z
1/2-x,1/2-y,-z
1/2+x,1/2-y,1/2+z
loop_
_atom_site_type_symbol
_atom_site_label
_atom_site_fract_x
_atom_site_fract_y
_atom_site_fract_z
Si Si1 0.855436 0.733383 0.846174
Si Si2 0.013251 0.671483 0.980700
Si Si3 0.166496 0.772086 0.029476
Si Si4 0.231929 0.457545 0.709648
Si Si5 0.500000 0.333976 0.250000
Si Si6 0.649332 0.585222 0.927928
O O1 0.822283 0.588824 0.764382
O O2 0.803927 0.868143 0.783607
O O3 0.848306 0.759593 0.997738
O O4 0.945365 0.735304 0.872525
O O5 0.013963 0.747398 0.121535
O O6 0.093735 0.697076 0.943795
O O7 0.000000 0.500000 0.000000
O O8 0.145369 0.942593 0.019587
O O9 0.250000 0.750000 0.000000
O O10 0.177042 0.678515 0.160902
O O11 0.272657 0.552182 0.613450
O O12 0.423167 0.419229 0.188183
#
# Coordination Sequence:
#
# PCOD9296875 Si02
#       6
#     8   8   8   8   4   8
#     4  11  24  41  71 100 139 190 231 300 359 431
#     4  11  24  49  72 106 149 191 244 301 368 443
#     4  10  23  46  71 100 146 183 242 296 359 432
#     4  11  23  42  65 103 135 187 231 289 360 431
#     4  10  26  42  72 104 140 190 230 302 364 422
#     4  10  24  42  66 100 140 182 238 288 358 429
#
# _framework density 25.877355000000001
#
# number of rings (size 3 to 8) (size 9 to 14) (size 15 to 20)
#    0.000    1.455    1.818    1.636    7.636    1.455 
#    6.545    0.000    0.000    0.000    0.000    0.000 
#    0.000    0.000    0.000    0.000    0.000    0.000 
#
# Total GULP energy -122530.832606 kJ/mol
# GULP energy per Si atom -5569.583300 kJ/mol
# Density = 2.581846 g / cm^3
# Si number density = 25.877355 Si / 1000 Ang^3
#
#
#
# Elastic Constant Matrix: (Units=GPa)
#
#
# Indices 1 2 3 4 5 6 
#
# 1 150.5778 51.8819 66.4234 0.0000 55.6402 0.0000
# 2 51.8819 133.9674 89.8852 0.0000 42.4912 0.0000
# 3 66.4234 89.8852 115.0794 0.0000 47.3615 0.0000
# 4 0.0000 0.0000 0.0000 38.2425 0.0000 18.3898
# 5 55.6402 42.4912 47.3615 0.0000 57.9053 0.0000
# 6 0.0000 0.0000 0.0000 18.3898 0.0000 32.9275
#
#
#
# Elastic Compliance Matrix: (Units=1/GPa)
#
#
# Indices 1 2 3 4 5 6 
#
# 1 0.010974 0.000706 -0.003516 0.000000 -0.008187 0.000000
# 2 0.000706 0.015925 -0.011694 0.000000 -0.002800 0.000000
# 3 -0.003516 -0.011694 0.022507 0.000000 -0.006449 0.000000
# 4 0.000000 0.000000 0.000000 0.035750 0.000000 -0.019966
# 5 -0.008187 -0.002800 -0.006449 0.000000 0.032465 0.000000
# 6 0.000000 0.000000 0.000000 -0.019966 0.000000 0.041521
#
#
# Mechanical properties :
#
#
# Convention : Reuss Voigt Hill
#
# Bulk Modulus (GPa) = 49.02459 90.66728 69.84594
# Shear Modulus (GPa) = 25.64758 38.57735 32.11246
#
# Velocity S-wave (km/s) = 3.15162 3.86525 3.52653
# Velocity P-wave (km/s) = 5.67712 7.41846 6.60542
#
# Compressibility (1/GPa) = 0.02039793
#
# Stress axis : x y z
#
# Youngs Moduli (GPa) = 91.12379 62.79408 44.43037
#
# Poissons Ratio (x) = -0.04433 0.15623
# Poissons Ratio (y) = -0.06433 0.51956
# Poissons Ratio (z) = 0.32041 0.73430
#
# Static dielectric constant tensor:
#      x y z
#    x 2.298950 0.000000 0.468830 
#    y 0.000000 2.058610 0.000000 
#    z 0.468830 0.000000 3.831010 
# 
# From -- ./inp_files/109985.got.cif
#   From: 2010.05.17/outbox.cif.g08.bks.cpg/sg15_55_cif.got.tgz:109985.got - 2010.06.03 18:47:42.
