data_PCOD9296039
_publ_section_title
;
Structure prediction by ZEFSAII (Michael W. Deem and Ramdas Pophale) SiO2 
 PCOD9296039
Probable space group: C 2/C
;
_chemical_formula_sum "Si O2"
_cell_formula_units_Z 48
_cell_length_a 5.697317
_cell_length_b 29.890678
_cell_length_c 12.877130
_cell_angle_alpha 90.000000
_cell_angle_beta 113.155235
_cell_angle_gamma 90.000000
_cell_volume 2016.275940
_symmetry_space_group_name_H-M "C 2/C"
_symmetry_group_IT_number 15
_symmetry_cell_setting 'monoclinic'
loop_
_space_group_symop_operation_xyz
x,y,z
-x,y,1/2-z
-x,-y,-z
x,-y,1/2+z
1/2+x,1/2+y,z
1/2-x,1/2+y,1/2-z
1/2-x,1/2-y,-z
1/2+x,1/2-y,1/2+z
loop_
_atom_site_type_symbol
_atom_site_label
_atom_site_fract_x
_atom_site_fract_y
_atom_site_fract_z
Si Si1 0.198924 0.797368 0.685291
Si Si2 0.385527 0.433141 0.419330
Si Si3 0.787317 0.142851 0.053947
Si Si4 0.084636 0.696600 0.641331
Si Si5 0.000000 0.125341 0.750000
Si Si6 0.500000 0.412081 0.750000
Si Si7 0.733474 0.965791 0.869243
O O1 0.500000 0.804531 0.750000
O O2 0.173683 0.747096 0.637093
O O3 0.000000 0.795606 0.750000
O O4 0.075524 0.837438 0.597326
O O5 0.248314 0.398183 0.470588
O O6 0.375491 0.407757 0.309917
O O7 0.681876 0.441966 0.508338
O O8 0.256761 0.481591 0.392492
O O9 0.778626 0.120956 0.167629
O O10 0.621799 0.183295 0.981519
O O11 0.301158 0.659441 0.664446
O O12 0.000000 0.693401 0.750000
O O13 0.455736 0.445440 0.836449
O O14 0.500000 0.956762 0.750000
#
# Coordination Sequence:
#
# PCOD9296039 Si02
#       7
#     8   8   8   8   4   4   8
#     4  11  25  48  74 108 149 193 241 301 367 428
#     4  10  24  42  65 102 131 175 238 285 365 423
#     4  11  23  44  71 102 140 184 237 301 347 441
#     4  11  24  44  66 104 143 187 233 291 355 423
#     4  12  23  42  68 100 138 184 236 294 347 446
#     4  10  23  44  66 104 130 176 240 278 367 422
#     4  10  23  44  66  93 138 178 220 299 354 438
#
# _framework density 23.806262
#
# number of rings (size 3 to 8) (size 9 to 14) (size 15 to 20)
#    0.000    1.333    3.333    1.000    4.667    4.000 
#    0.000    6.667    0.000    0.000    0.000    0.000 
#    0.000    0.000    0.000    0.000    0.000    0.000 
#
# Total GULP energy -133746.696989 kJ/mol
# GULP energy per Si atom -5572.779041 kJ/mol
# Density = 2.375208 g / cm^3
# Si number density = 23.806262 Si / 1000 Ang^3
#
#
#
# Elastic Constant Matrix: (Units=GPa)
#
#
# Indices 1 2 3 4 5 6 
#
# 1 39.0463 12.4698 3.4824 0.0000 15.1534 0.0000
# 2 12.4698 132.4704 0.9961 0.0000 -3.9867 0.0000
# 3 3.4824 0.9961 66.6329 0.0000 9.5260 0.0000
# 4 0.0000 0.0000 0.0000 38.7881 0.0000 -0.7063
# 5 15.1534 -3.9867 9.5260 0.0000 40.5175 0.0000
# 6 0.0000 0.0000 0.0000 -0.7063 0.0000 12.5444
#
#
#
# Elastic Compliance Matrix: (Units=1/GPa)
#
#
# Indices 1 2 3 4 5 6 
#
# 1 0.031346 -0.003315 0.000139 0.000000 -0.012082 0.000000
# 2 -0.003315 0.007925 -0.000242 0.000000 0.002077 0.000000
# 3 0.000139 -0.000242 0.015537 0.000000 -0.003729 0.000000
# 4 0.000000 0.000000 0.000000 0.025808 0.000000 0.001453
# 5 -0.012082 0.002077 -0.003729 0.000000 0.030280 0.000000
# 6 0.000000 0.000000 0.000000 0.001453 0.000000 0.079798
#
#
# Mechanical properties :
#
#
# Convention : Reuss Voigt Hill
#
# Bulk Modulus (GPa) = 20.84611 30.22735 25.53673
# Shear Modulus (GPa) = 23.41676 33.11676 28.26676
#
# Velocity S-wave (km/s) = 3.13970 3.73378 3.44956
# Velocity P-wave (km/s) = 4.68180 5.59580 5.15908
#
# Compressibility (1/GPa) = 0.04797059
#
# Stress axis : x y z
#
# Youngs Moduli (GPa) = 31.90209 126.17891 64.36247
#
# Poissons Ratio (x) = 0.41832 -0.00892
# Poissons Ratio (y) = 0.10577 0.01558
# Poissons Ratio (z) = -0.00442 0.03055
#
# Static dielectric constant tensor:
#      x y z
#    x 1.901330 0.000000 0.110520 
#    y 0.000000 1.841150 0.000000 
#    z 0.110520 0.000000 1.998800 
# 
# From -- ./inp_files/130962.got.cif
#   From: 2010.05.17/outbox.cif.g08.bks.cpg/sg15_66_cif.got.tgz:130962.got - 2010.06.03 18:47:42.
