data_PCOD9296517
_publ_section_title
;
Structure prediction by ZEFSAII (Michael W. Deem and Ramdas Pophale) SiO2 
 PCOD9296517
Probable space group: C 2/C
;
_chemical_formula_sum "Si O2"
_cell_formula_units_Z 48
_cell_length_a 28.050954
_cell_length_b 14.615582
_cell_length_c 9.555506
_cell_angle_alpha 90.000000
_cell_angle_beta 144.979591
_cell_angle_gamma 90.000000
_cell_volume 2248.172277
_symmetry_space_group_name_H-M "C 2/C"
_symmetry_group_IT_number 15
_symmetry_cell_setting 'monoclinic'
loop_
_space_group_symop_operation_xyz
x,y,z
-x,y,1/2-z
-x,-y,-z
x,-y,1/2+z
1/2+x,1/2+y,z
1/2-x,1/2+y,1/2-z
1/2-x,1/2-y,-z
1/2+x,1/2-y,1/2+z
loop_
_atom_site_type_symbol
_atom_site_label
_atom_site_fract_x
_atom_site_fract_y
_atom_site_fract_z
Si Si1 0.463840 0.399220 0.936620
Si Si2 0.107390 0.595967 0.604680
Si Si3 0.718455 0.340032 0.005606
Si Si4 0.684572 0.243372 0.216581
Si Si5 0.000000 0.206020 0.250000
Si Si6 0.582124 0.083214 0.870132
Si Si7 0.000000 0.763933 0.250000
O O1 0.367679 0.385368 0.752658
O O2 0.463104 0.351716 0.786776
O O3 0.500000 0.500000 0.000000
O O4 0.517361 0.334089 0.166487
O O5 0.206280 0.592143 0.841702
O O6 0.073604 0.583568 0.681861
O O7 0.084569 0.516700 0.441494
O O8 0.072941 0.693582 0.468626
O O9 0.712197 0.307213 0.152635
O O10 0.750000 0.250000 0.000000
O O11 0.750000 0.250000 0.500000
O O12 0.590462 0.265836 0.036770
O O13 0.664170 0.141730 0.104984
O O14 0.500000 0.127432 0.750000
#
# Coordination Sequence:
#
# PCOD9296517 Si02
#       7
#     8   8   8   8   4   8   4
#     4  11  25  46  72 103 140 193 247 311 379 463
#     4  12  27  46  72 108 150 200 246 319 381 467
#     4  11  23  49  68 101 151 189 246 309 388 444
#     4  11  25  41  74 103 139 195 247 309 379 452
#     4  10  23  45  66  98 144 176 246 311 357 448
#     4  12  26  46  72 108 151 191 257 312 374 462
#     4  12  25  43  78 102 144 200 240 305 411 444
#
# _framework density 21.350676
#
# number of rings (size 3 to 8) (size 9 to 14) (size 15 to 20)
#    0.000    0.667    5.000    2.000    4.667    1.333 
#    6.000    0.000    0.000    0.000    0.000    0.000 
#    0.000    0.000    0.000    0.000    0.000    0.000 
#
# Total GULP energy -133611.397585 kJ/mol
# GULP energy per Si atom -5567.141566 kJ/mol
# Density = 2.130208 g / cm^3
# Si number density = 21.350676 Si / 1000 Ang^3
#
#
#
# Elastic Constant Matrix: (Units=GPa)
#
#
# Indices 1 2 3 4 5 6 
#
# 1 111.1787 3.0485 62.4747 0.0000 2.5334 0.0000
# 2 3.0485 -281.4745 178.7544 0.0000 -7.7217 0.0000
# 3 62.4747 178.7544 99.8970 0.0000 -0.2183 0.0000
# 4 0.0000 0.0000 0.0000 51.3416 0.0000 -3.2787
# 5 2.5334 -7.7217 -0.2183 0.0000 48.2768 0.0000
# 6 0.0000 0.0000 0.0000 -3.2787 0.0000 30.9371
#
#
#
# Elastic Compliance Matrix: (Units=1/GPa)
#
#
# Indices 1 2 3 4 5 6 
#
# 1 0.010936 -0.001967 -0.003322 0.000000 -0.000903 0.000000
# 2 -0.001967 -0.001306 0.003567 0.000000 -0.000090 0.000000
# 3 -0.003322 0.003567 0.005707 0.000000 0.000771 0.000000
# 4 0.000000 0.000000 0.000000 0.019610 0.000000 0.002078
# 5 -0.000903 -0.000090 0.000771 0.000000 0.020750 0.000000
# 6 0.000000 0.000000 0.000000 0.002078 0.000000 0.032544
#
#
# Mechanical properties :
#
#
# Convention : Reuss Voigt Hill
#
# Bulk Modulus (GPa) = 84.08302 46.46184 65.27243
# Shear Modulus (GPa) = 52.27464 5.13268 28.70366
#
# Velocity S-wave (km/s) = 4.95348 1.55216 3.67057
# Velocity P-wave (km/s) = 8.49608 5.00208 6.97152
#
# Compressibility (1/GPa) = 0.01189301
#
# Stress axis : x y z
#
# Youngs Moduli (GPa) = 91.44210 -765.55354 175.22937
#
# Poissons Ratio (x) = -1.50553 0.58215
# Poissons Ratio (y) = 0.17983 -0.62505
# Poissons Ratio (z) = 0.30379 2.73078
#
# Static dielectric constant tensor:
#      x y z
#    x 1.721490 0.000000 0.088040 
#    y 0.000000 1.861130 0.000000 
#    z 0.088040 0.000000 1.884060 
# 
# From -- ./inp_files/66544.got.cif
#   From: 2010.05.17/outbox.cif.g08.bks.cpg/sg15_34_cif.got.tgz:66544.got - 2010.06.03 18:47:42.
