data_PCOD9296740
_publ_section_title
;
Structure prediction by ZEFSAII (Michael W. Deem and Ramdas Pophale) SiO2 
 PCOD9296740
Probable space group: C 2/C
;
_chemical_formula_sum "Si O2"
_cell_formula_units_Z 36
_cell_length_a 5.329042
_cell_length_b 25.532297
_cell_length_c 11.190037
_cell_angle_alpha 90.000000
_cell_angle_beta 90.939155
_cell_angle_gamma 90.000000
_cell_volume 1522.341926
_symmetry_space_group_name_H-M "C 2/C"
_symmetry_group_IT_number 15
_symmetry_cell_setting 'monoclinic'
loop_
_space_group_symop_operation_xyz
x,y,z
-x,y,1/2-z
-x,-y,-z
x,-y,1/2+z
1/2+x,1/2+y,z
1/2-x,1/2+y,1/2-z
1/2-x,1/2-y,-z
1/2+x,1/2-y,1/2+z
loop_
_atom_site_type_symbol
_atom_site_label
_atom_site_fract_x
_atom_site_fract_y
_atom_site_fract_z
Si Si1 0.846316 0.149016 0.124622
Si Si2 0.755559 0.507031 0.578831
Si Si3 0.500000 0.071297 0.250000
Si Si4 0.639141 0.377249 0.124934
Si Si5 0.247128 0.263702 0.326693
O O1 0.620288 0.108890 0.150316
O O2 0.749510 0.208586 0.103001
O O3 0.000000 0.147157 0.250000
O O4 0.992630 0.129402 0.007071
O O5 0.500000 0.500000 0.500000
O O6 0.767152 0.566644 0.623627
O O7 0.000000 0.500000 0.500000
O O8 0.791888 0.466188 0.687632
O O9 0.500000 0.376870 0.250000
O O10 0.789324 0.322865 0.127412
O O11 0.500000 0.263576 0.250000
O O12 0.000000 0.255703 0.250000
#
# Coordination Sequence:
#
# PCOD9296740 Si02
#       5
#     8   8   4   8   8
#     4  11  23  49  76 109 152 203 264 313 388 473
#     4  12  29  49  76 110 153 205 261 318 388 464
#     4  12  26  46  80 108 154 208 266 316 392 472
#     4  11  26  47  76 111 158 195 258 321 395 449
#     4  10  23  45  75 113 152 201 255 321 387 461
#
# _framework density 23.647777000000001
#
# number of rings (size 3 to 8) (size 9 to 14) (size 15 to 20)
#    0.000    0.889    3.333    2.000    4.667    1.778 
#    8.000   10.000    0.000    0.000    0.000    0.000 
#    0.000    0.000    0.000    0.000    0.000    0.000 
#
# Total GULP energy -100381.531997 kJ/mol
# GULP energy per Si atom -5576.751778 kJ/mol
# Density = 2.359395 g / cm^3
# Si number density = 23.647777 Si / 1000 Ang^3
#
#
#
# Elastic Constant Matrix: (Units=GPa)
#
#
# Indices 1 2 3 4 5 6 
#
# 1 107.2387 43.9331 34.6569 0.0000 8.5669 0.0000
# 2 43.9331 268.8323 70.5080 0.0000 -1.7500 0.0000
# 3 34.6569 70.5080 129.1215 0.0000 -8.1985 0.0000
# 4 0.0000 0.0000 0.0000 38.5164 0.0000 -8.5033
# 5 8.5669 -1.7500 -8.1985 0.0000 26.8225 0.0000
# 6 0.0000 0.0000 0.0000 -8.5033 0.0000 34.0446
#
#
#
# Elastic Compliance Matrix: (Units=1/GPa)
#
#
# Indices 1 2 3 4 5 6 
#
# 1 0.010983 -0.001141 -0.002603 0.000000 -0.004378 0.000000
# 2 -0.001141 0.004465 -0.002132 0.000000 0.000004 0.000000
# 3 -0.002603 -0.002132 0.009842 0.000000 0.003701 0.000000
# 4 0.000000 0.000000 0.000000 0.027478 0.000000 0.006863
# 5 -0.004378 0.000004 0.003701 0.000000 0.039812 0.000000
# 6 0.000000 0.000000 0.000000 0.006863 0.000000 0.031087
#
#
# Mechanical properties :
#
#
# Convention : Reuss Voigt Hill
#
# Bulk Modulus (GPa) = 73.85668 89.26538 81.56103
# Shear Modulus (GPa) = 35.73131 43.61634 39.67382
#
# Velocity S-wave (km/s) = 3.89135 4.29933 4.10041
# Velocity P-wave (km/s) = 7.17565 7.90414 7.54869
#
# Compressibility (1/GPa) = 0.01353974
#
# Stress axis : x y z
#
# Youngs Moduli (GPa) = 91.04734 223.94474 101.60054
#
# Poissons Ratio (x) = 0.25545 0.26447
# Poissons Ratio (y) = 0.10386 0.21661
# Poissons Ratio (z) = 0.23700 0.47744
#
# Static dielectric constant tensor:
#      x y z
#    x 1.833340 0.000000 0.064610 
#    y 0.000000 1.923880 0.000000 
#    z 0.064610 0.000000 1.928710 
# 
# From -- ./inp_files/72584.got.cif
#   From: 2010.05.17/outbox.cif.g08.bks.cpg/sg15_37_cif.got.tgz:72584.got - 2010.06.03 18:47:42.
