data_PCOD9296894
_publ_section_title
;
Structure prediction by ZEFSAII (Michael W. Deem and Ramdas Pophale) SiO2 
 PCOD9296894
Probable space group: C 2/C
;
_chemical_formula_sum "Si O2"
_cell_formula_units_Z 60
_cell_length_a 18.389275
_cell_length_b 18.044538
_cell_length_c 17.948517
_cell_angle_alpha 90.000000
_cell_angle_beta 25.665697
_cell_angle_gamma 90.000000
_cell_volume 2579.566417
_symmetry_space_group_name_H-M "C 2/C"
_symmetry_group_IT_number 15
_symmetry_cell_setting 'monoclinic'
loop_
_space_group_symop_operation_xyz
x,y,z
-x,y,1/2-z
-x,-y,-z
x,-y,1/2+z
1/2+x,1/2+y,z
1/2-x,1/2+y,1/2-z
1/2-x,1/2-y,-z
1/2+x,1/2-y,1/2+z
loop_
_atom_site_type_symbol
_atom_site_label
_atom_site_fract_x
_atom_site_fract_y
_atom_site_fract_z
Si Si1 0.566048 0.357413 0.406532
Si Si2 0.326448 0.828367 0.953887
Si Si3 0.398544 0.098969 0.040095
Si Si4 0.000000 0.935423 0.750000
Si Si5 0.184033 0.667214 0.541936
Si Si6 0.256150 0.990949 0.287941
Si Si7 0.406651 0.567435 0.925449
Si Si8 0.600896 0.789398 0.441452
O O1 0.605843 0.431995 0.414175
O O2 0.529477 0.377138 0.354462
O O3 0.427887 0.296372 0.550452
O O4 0.738462 0.313929 0.252667
O O5 0.500000 0.842259 0.750000
O O6 0.250000 0.750000 0.000000
O O7 0.196533 0.891939 0.045124
O O8 0.368453 0.813542 0.001598
O O9 0.279750 0.040594 0.192048
O O10 0.337085 0.143922 0.025004
O O11 0.568075 0.052669 0.863472
O O12 0.450794 0.159818 0.052029
O O13 0.161744 0.887014 0.579119
O O14 0.989202 0.994923 0.693627
O O15 0.250000 0.750000 0.500000
O O16 0.000000 0.656634 0.750000
O O17 0.220113 0.041434 0.392455
#
# Coordination Sequence:
#
# PCOD9296894 Si02
#       8
#     8   8   8   4   8   8   8   8
#     4  11  24  42  66 100 140 184 238 299 359 441
#     4  12  25  41  68 102 150 196 246 303 372 456
#     4  10  24  46  77 103 150 192 247 318 375 452
#     4  12  28  48  78 114 150 202 262 320 396 462
#     4  12  27  53  80 113 152 200 259 325 393 469
#     4  10  23  46  71 111 146 195 253 308 387 448
#     4  12  25  43  74 106 154 197 251 318 383 455
#     4  11  24  42  67 102 139 187 239 290 363 433
#
# _framework density 23.259723000000001
#
# number of rings (size 3 to 8) (size 9 to 14) (size 15 to 20)
#    0.000    0.800    2.000    4.400    2.800    6.933 
#    0.000    0.000    0.000    0.000    0.000    0.000 
#    0.000    0.000    0.000    0.000    0.000    0.000 
#
# Total GULP energy -167594.795833 kJ/mol
# GULP energy per Si atom -5586.493194 kJ/mol
# Density = 2.320678 g / cm^3
# Si number density = 23.259723 Si / 1000 Ang^3
#
#
#
# Elastic Constant Matrix: (Units=GPa)
#
#
# Indices 1 2 3 4 5 6 
#
# 1 95.4387 53.1827 -6.1077 -0.0053 1.0620 0.0024
# 2 53.1827 163.9379 55.2965 0.0143 -12.8980 0.0036
# 3 -6.1077 55.2965 98.2452 0.0277 -11.7051 0.0032
# 4 -0.0053 0.0143 0.0277 34.3446 -0.0011 0.8216
# 5 1.0620 -12.8980 -11.7051 -0.0011 31.9315 -0.0025
# 6 0.0024 0.0036 0.0032 0.8216 -0.0025 44.1323
#
#
#
# Elastic Compliance Matrix: (Units=1/GPa)
#
#
# Indices 1 2 3 4 5 6 
#
# 1 0.014161 -0.006104 0.004147 0.000001 -0.001416 -0.000001
# 2 -0.006104 0.010235 -0.005880 0.000000 0.002182 0.000000
# 3 0.004147 -0.005880 0.014061 -0.000008 0.002641 0.000000
# 4 0.000001 0.000000 -0.000008 0.029130 -0.000002 -0.000542
# 5 -0.001416 0.002182 0.002641 -0.000002 0.033214 0.000002
# 6 -0.000001 0.000000 0.000000 -0.000542 0.000002 0.022669
#
#
# Mechanical properties :
#
#
# Convention : Reuss Voigt Hill
#
# Bulk Modulus (GPa) = 43.89400 62.48497 53.18948
# Shear Modulus (GPa) = 34.07447 39.09836 36.58642
#
# Velocity S-wave (km/s) = 3.83163 4.10438 3.97035
# Velocity P-wave (km/s) = 6.20382 7.02735 6.62839
#
# Compressibility (1/GPa) = 0.02278216
#
# Stress axis : x y z
#
# Youngs Moduli (GPa) = 70.61864 97.70228 71.11972
#
# Poissons Ratio (x) = 0.59638 -0.29495
# Poissons Ratio (y) = 0.43106 0.41821
# Poissons Ratio (z) = -0.29287 0.57452
#
# Static dielectric constant tensor:
#      x y z
#    x 1.847810 -0.000010 -0.021280 
#    y -0.000010 1.877260 0.000000 
#    z -0.021280 0.000000 1.923430 
# 
# From -- ./inp_files/211727.got.cif
#   From: 2010.05.17/outbox.cif.g08.bks.cpg/sg15_106_cif.got.tgz:211727.got - 2010.06.03 18:47:42.
