data_PCOD9296955
_publ_section_title
;
Structure prediction by ZEFSAII (Michael W. Deem and Ramdas Pophale) SiO2 
 PCOD9296955
Probable space group: C 2/C
;
_chemical_formula_sum "Si O2"
_cell_formula_units_Z 40
_cell_length_a 20.389980
_cell_length_b 18.982961
_cell_length_c 13.542545
_cell_angle_alpha 90.000000
_cell_angle_beta 160.625425
_cell_angle_gamma 90.000000
_cell_volume 1738.930455
_symmetry_space_group_name_H-M "C 2/C"
_symmetry_group_IT_number 15
_symmetry_cell_setting 'monoclinic'
loop_
_space_group_symop_operation_xyz
x,y,z
-x,y,1/2-z
-x,-y,-z
x,-y,1/2+z
1/2+x,1/2+y,z
1/2-x,1/2+y,1/2-z
1/2-x,1/2-y,-z
1/2+x,1/2-y,1/2+z
loop_
_atom_site_type_symbol
_atom_site_label
_atom_site_fract_x
_atom_site_fract_y
_atom_site_fract_z
Si Si1 0.885341 0.424204 0.189002
Si Si2 0.360766 0.453515 0.233781
Si Si3 0.000000 0.111545 0.750000
Si Si4 0.000000 0.868280 0.750000
Si Si5 0.278626 0.682579 0.749953
Si Si6 0.583085 0.172691 0.139837
O O1 0.000000 0.400066 0.250000
O O2 0.007720 0.388730 0.454994
O O3 0.831320 0.506451 0.085891
O O4 0.660994 0.403568 0.904356
O O5 0.500000 0.500000 0.500000
O O6 0.512225 0.436045 0.362100
O O7 0.311658 0.383767 0.225992
O O8 0.803096 0.154265 0.483765
O O9 0.865038 0.827195 0.482539
O O10 0.391288 0.751478 0.873533
O O11 0.048101 0.684046 0.449303
#
# Coordination Sequence:
#
# PCOD9296955 Si02
#       6
#     8   8   4   4   8   8
#     4  11  25  45  75 112 156 200 259 319 393 469
#     4  12  26  47  75 110 155 204 252 320 393 468
#     4  12  29  50  76 104 159 200 260 328 394 471
#     4  10  23  46  74 114 157 202 256 328 382 481
#     4  11  26  47  77 113 154 202 261 322 394 471
#     4  11  28  48  77 114 149 207 264 323 396 473
#
# _framework density 23.002645999999999
#
# number of rings (size 3 to 8) (size 9 to 14) (size 15 to 20)
#    0.000    0.800    2.000    3.000    9.800    5.600 
#    0.000    0.000    0.000    0.000    0.000    0.000 
#    0.000    0.000    0.000    0.000    0.000    0.000 
#
# Total GULP energy -111394.068061 kJ/mol
# GULP energy per Si atom -5569.703403 kJ/mol
# Density = 2.295029 g / cm^3
# Si number density = 23.002646 Si / 1000 Ang^3
#
#
#
# Elastic Constant Matrix: (Units=GPa)
#
#
# Indices 1 2 3 4 5 6 
#
# 1 143.5635 37.9264 10.2351 0.0000 29.8909 0.0000
# 2 37.9264 94.6659 20.6608 0.0000 -12.0858 0.0000
# 3 10.2351 20.6608 77.8712 0.0000 26.1184 0.0000
# 4 0.0000 0.0000 0.0000 16.9412 0.0000 16.5746
# 5 29.8909 -12.0858 26.1184 0.0000 47.1644 0.0000
# 6 0.0000 0.0000 0.0000 16.5746 0.0000 43.1654
#
#
#
# Elastic Compliance Matrix: (Units=1/GPa)
#
#
# Indices 1 2 3 4 5 6 
#
# 1 0.010556 -0.006393 0.003810 0.000000 -0.010438 0.000000
# 2 -0.006393 0.016408 -0.007715 0.000000 0.012529 0.000000
# 3 0.003810 -0.007715 0.019479 0.000000 -0.015179 0.000000
# 4 0.000000 0.000000 0.000000 0.094546 0.000000 -0.036304
# 5 -0.010438 0.012529 -0.015179 0.000000 0.039434 0.000000
# 6 0.000000 0.000000 0.000000 -0.036304 0.000000 0.037106
#
#
# Mechanical properties :
#
#
# Convention : Reuss Voigt Hill
#
# Bulk Modulus (GPa) = 38.69121 50.41613 44.55367
# Shear Modulus (GPa) = 20.26402 37.93940 29.10171
#
# Velocity S-wave (km/s) = 2.97129 4.06562 3.56075
# Velocity P-wave (km/s) = 5.35054 6.63356 6.02629
#
# Compressibility (1/GPa) = 0.02584567
#
# Stress axis : x y z
#
# Youngs Moduli (GPa) = 94.73089 60.94477 51.33729
#
# Poissons Ratio (x) = 0.38964 -0.19559
# Poissons Ratio (y) = 0.60564 0.39609
# Poissons Ratio (z) = -0.36091 0.47022
#
# Static dielectric constant tensor:
#      x y z
#    x 2.304070 0.000000 -0.004780 
#    y 0.000000 2.057110 0.000000 
#    z -0.004780 0.000000 1.928570 
# 
# From -- ./inp_files/169246.got.cif
#   From: 2010.05.17/outbox.cif.g08.bks.cpg/sg15_85_cif.got.tgz:169246.got - 2010.06.03 18:47:42.
