data_PCOD9296687
_publ_section_title
;
Structure prediction by ZEFSAII (Michael W. Deem and Ramdas Pophale) SiO2 
 PCOD9296687
Probable space group: C 2/C
;
_chemical_formula_sum "Si O2"
_cell_formula_units_Z 40
_cell_length_a 10.772022
_cell_length_b 17.582855
_cell_length_c 10.829574
_cell_angle_alpha 90.000000
_cell_angle_beta 38.110418
_cell_angle_gamma 90.000000
_cell_volume 1265.928293
_symmetry_space_group_name_H-M "C 2/C"
_symmetry_group_IT_number 15
_symmetry_cell_setting 'monoclinic'
loop_
_space_group_symop_operation_xyz
x,y,z
-x,y,1/2-z
-x,-y,-z
x,-y,1/2+z
1/2+x,1/2+y,z
1/2-x,1/2+y,1/2-z
1/2-x,1/2-y,-z
1/2+x,1/2-y,1/2+z
loop_
_atom_site_type_symbol
_atom_site_label
_atom_site_fract_x
_atom_site_fract_y
_atom_site_fract_z
Si Si1 0.540570 0.307785 0.842278
Si Si2 0.701588 0.948689 0.819778
Si Si3 0.570356 0.771198 0.580734
Si Si4 0.792484 0.912988 0.356247
Si Si5 0.771702 0.567095 0.879538
O O1 0.500000 0.257760 0.750000
O O2 0.734531 0.362613 0.714734
O O3 0.512135 0.262154 0.991752
O O4 0.368330 0.370440 0.951214
O O5 0.805802 0.995473 0.851587
O O6 0.772147 0.978640 0.628967
O O7 0.393172 0.863373 0.950893
O O8 0.342053 0.755383 0.840256
O O9 0.269007 0.599763 0.728925
O O10 0.000000 0.883892 0.250000
O O11 0.500000 0.000000 0.500000
O O12 0.000000 0.570865 0.750000
#
# Coordination Sequence:
#
# PCOD9296687 Si02
#       5
#     8   8   8   8   8
#     4  12  26  49  82 121 161 222 278 347 420 494
#     4  10  24  47  79 118 163 211 277 348 416 492
#     4  12  28  50  77 119 164 221 274 334 418 497
#     4  10  24  50  78 111 162 219 274 336 414 501
#     4  10  23  45  72 114 161 208 274 336 416 493
#
# _framework density 31.597363999999999
#
# number of rings (size 3 to 8) (size 9 to 14) (size 15 to 20)
#    1.200    0.000    0.000    5.400    2.800    0.800 
#    7.200    5.000    0.000    0.000    0.000    0.000 
#    0.000    0.000    0.000    0.000    0.000    0.000 
#
# Total GULP energy -111357.634575 kJ/mol
# GULP energy per Si atom -5567.881729 kJ/mol
# Density = 3.152545 g / cm^3
# Si number density = 31.597364 Si / 1000 Ang^3
#
#
#
# Elastic Constant Matrix: (Units=GPa)
#
#
# Indices 1 2 3 4 5 6 
#
# 1 258.4988 54.0757 74.0435 0.0010 -11.2751 0.0004
# 2 54.0757 203.3985 51.9836 0.0018 3.7688 -0.0012
# 3 74.0435 51.9836 126.1959 0.0047 -26.4401 0.0007
# 4 0.0010 0.0018 0.0047 -19.9308 -0.0001 -85.9540
# 5 -11.2751 3.7688 -26.4401 -0.0001 81.5885 0.0008
# 6 0.0004 -0.0012 0.0007 -85.9540 0.0008 -54.6591
#
#
#
# Elastic Compliance Matrix: (Units=1/GPa)
#
#
# Indices 1 2 3 4 5 6 
#
# 1 0.004719 -0.000599 -0.002553 0.000000 -0.000147 0.000000
# 2 -0.000599 0.005658 -0.002200 0.000000 -0.001057 0.000000
# 3 -0.002553 -0.002200 0.011024 0.000000 0.003321 0.000001
# 4 0.000000 0.000000 0.000000 0.008678 0.000000 -0.013646
# 5 -0.000147 -0.001057 0.003321 0.000000 0.013361 0.000000
# 6 0.000000 0.000000 0.000001 -0.013646 0.000000 0.003164
#
#
# Mechanical properties :
#
#
# Convention : Reuss Voigt Hill
#
# Bulk Modulus (GPa) = 93.49450 105.36653 99.43052
# Shear Modulus (GPa) = 82.13673 28.59908 55.36791
#
# Velocity S-wave (km/s) = 5.10404 3.01177 4.19058
# Velocity P-wave (km/s) = 8.02425 6.74636 7.41289
#
# Compressibility (1/GPa) = 0.01069582
#
# Stress axis : x y z
#
# Youngs Moduli (GPa) = 211.92782 176.74790 90.70982
#
# Poissons Ratio (x) = 0.10594 0.23154
# Poissons Ratio (y) = 0.12703 0.19960
# Poissons Ratio (z) = 0.54095 0.38892
#
# Static dielectric constant tensor:
#      x y z
#    x 2.632470 0.000000 0.328780 
#    y 0.000000 2.545480 -0.000010 
#    z 0.328780 -0.000010 3.702110 
# 
# From -- ./inp_files/148325.got.cif
#   From: 2010.05.17/outbox.cif.g08.bks.cpg/sg15_75_cif.got.tgz:148325.got - 2010.06.03 18:47:42.
