data_PCOD9296016
_publ_section_title
;
Structure prediction by ZEFSAII (Michael W. Deem and Ramdas Pophale) SiO2 
 PCOD9296016
Probable space group: C 2/C
;
_chemical_formula_sum "Si O2"
_cell_formula_units_Z 56
_cell_length_a 14.094518
_cell_length_b 12.647655
_cell_length_c 17.857916
_cell_angle_alpha 90.000000
_cell_angle_beta 58.108270
_cell_angle_gamma 90.000000
_cell_volume 2702.858027
_symmetry_space_group_name_H-M "C 2/C"
_symmetry_group_IT_number 15
_symmetry_cell_setting 'monoclinic'
loop_
_space_group_symop_operation_xyz
x,y,z
-x,y,1/2-z
-x,-y,-z
x,-y,1/2+z
1/2+x,1/2+y,z
1/2-x,1/2+y,1/2-z
1/2-x,1/2-y,-z
1/2+x,1/2-y,1/2+z
loop_
_atom_site_type_symbol
_atom_site_label
_atom_site_fract_x
_atom_site_fract_y
_atom_site_fract_z
Si Si1 0.076222 0.326188 0.284026
Si Si2 0.243068 0.168308 0.572710
Si Si3 0.067043 0.839698 0.443624
Si Si4 0.807692 0.756958 0.244920
Si Si5 0.509913 0.121115 0.971123
Si Si6 0.834376 0.961415 0.519128
Si Si7 0.128759 0.443006 0.714555
O O1 0.178574 0.258985 0.273051
O O2 0.003810 0.366196 0.384266
O O3 0.130839 0.433551 0.230893
O O4 0.000000 0.279301 0.250000
O O5 0.250000 0.250000 0.500000
O O6 0.179225 0.207204 0.673722
O O7 0.367054 0.149876 0.550561
O O8 0.192732 0.062964 0.555918
O O9 0.121618 0.833065 0.338504
O O10 0.066372 0.717082 0.467876
O O11 0.941701 0.888024 0.494077
O O12 0.133611 0.919641 0.470136
O O13 0.844017 0.634951 0.228790
O O14 0.500000 0.000000 0.000000
O O15 0.724379 0.928692 0.612168
O O16 0.000000 0.418278 0.750000
#
# Coordination Sequence:
#
# PCOD9296016 Si02
#       7
#     8   8   8   8   8   8   8
#     4  10  23  44  65  91 136 180 223 281 342 410
#     4  11  22  41  67  99 137 172 229 297 338 405
#     4  11  24  42  67  98 146 187 218 290 355 418
#     4  11  23  39  66 106 130 172 244 280 348 417
#     4  11  24  41  67 103 133 175 237 283 337 408
#     4  11  23  43  66  97 140 181 227 278 364 407
#     4  11  23  39  72  98 131 177 230 286 345 399
#
# _framework density 20.718807999999999
#
# number of rings (size 3 to 8) (size 9 to 14) (size 15 to 20)
#    0.000    1.143    4.286    1.714    8.000    0.000 
#    0.000    5.714    0.000    0.857    0.000    0.000 
#    0.000    0.000    0.000    0.000    0.000    0.000 
#
# Total GULP energy -156158.946451 kJ/mol
# GULP energy per Si atom -5577.105230 kJ/mol
# Density = 2.067165 g / cm^3
# Si number density = 20.718808 Si / 1000 Ang^3
#
#
#
# Elastic Constant Matrix: (Units=GPa)
#
#
# Indices 1 2 3 4 5 6 
#
# 1 95.8948 31.3490 29.7772 0.0000 8.6551 0.0000
# 2 31.3490 89.3790 18.7047 0.0000 -0.9427 0.0000
# 3 29.7772 18.7047 108.2549 0.0000 5.1352 0.0000
# 4 0.0000 0.0000 0.0000 21.9170 0.0000 6.4776
# 5 8.6551 -0.9427 5.1352 0.0000 33.2971 0.0000
# 6 0.0000 0.0000 0.0000 6.4776 0.0000 27.9186
#
#
#
# Elastic Compliance Matrix: (Units=1/GPa)
#
#
# Indices 1 2 3 4 5 6 
#
# 1 0.012838 -0.003970 -0.002702 0.000000 -0.003033 0.000000
# 2 -0.003970 0.012849 -0.001203 0.000000 0.001581 0.000000
# 3 -0.002702 -0.001203 0.010232 0.000000 -0.000910 0.000000
# 4 0.000000 0.000000 0.000000 0.048986 0.000000 -0.011366
# 5 -0.003033 0.001581 -0.000910 0.000000 0.031006 0.000000
# 6 0.000000 0.000000 0.000000 -0.011366 0.000000 0.038455
#
#
# Mechanical properties :
#
#
# Convention : Reuss Voigt Hill
#
# Bulk Modulus (GPa) = 49.57800 50.35449 49.96625
# Shear Modulus (GPa) = 28.27434 30.87308 29.57371
#
# Velocity S-wave (km/s) = 3.69815 3.86437 3.78217
# Velocity P-wave (km/s) = 6.49739 6.65339 6.57585
#
# Compressibility (1/GPa) = 0.02017024
#
# Stress axis : x y z
#
# Youngs Moduli (GPa) = 77.89100 77.82653 97.73599
#
# Poissons Ratio (x) = 0.30894 0.26405
# Poissons Ratio (y) = 0.30919 0.11760
# Poissons Ratio (z) = 0.21044 0.09364
#
# Static dielectric constant tensor:
#      x y z
#    x 1.737300 0.000000 -0.026290 
#    y 0.000000 1.789660 0.000000 
#    z -0.026290 0.000000 1.788470 
# 
# From -- ./inp_files/204345.got.cif
#   From: 2010.05.17/outbox.cif.g08.bks.cpg/sg15_103_cif.got.tgz:204345.got - 2010.06.03 18:47:42.
