data_PCOD9296852
_publ_section_title
;
Structure prediction by ZEFSAII (Michael W. Deem and Ramdas Pophale) SiO2 
 PCOD9296852
Probable space group: C 2/C
;
_chemical_formula_sum "Si O2"
_cell_formula_units_Z 36
_cell_length_a 21.752192
_cell_length_b 7.458370
_cell_length_c 8.059803
_cell_angle_alpha 90.000000
_cell_angle_beta 103.962653
_cell_angle_gamma 90.000000
_cell_volume 1268.954297
_symmetry_space_group_name_H-M "C 2/C"
_symmetry_group_IT_number 15
_symmetry_cell_setting 'monoclinic'
loop_
_space_group_symop_operation_xyz
x,y,z
-x,y,1/2-z
-x,-y,-z
x,-y,1/2+z
1/2+x,1/2+y,z
1/2-x,1/2+y,1/2-z
1/2-x,1/2-y,-z
1/2+x,1/2-y,1/2+z
loop_
_atom_site_type_symbol
_atom_site_label
_atom_site_fract_x
_atom_site_fract_y
_atom_site_fract_z
Si Si1 0.593223 0.775694 0.921906
Si Si2 0.706743 0.310307 0.317569
Si Si3 0.942979 0.669420 0.582774
Si Si4 0.000000 0.000000 0.000000
Si Si5 0.822128 0.774463 0.694829
O O1 0.637727 0.765873 0.113524
O O2 0.642345 0.801182 0.801536
O O3 0.555391 0.589285 0.913625
O O4 0.552869 0.955674 0.923534
O O5 0.750000 0.250000 0.500000
O O6 0.751332 0.298363 0.184688
O O7 0.686130 0.513886 0.325998
O O8 0.870501 0.702650 0.589801
O O9 0.000000 0.727572 0.750000
O O10 0.959973 0.812965 0.455135
#
# Coordination Sequence:
#
# PCOD9296852 Si02
#       5
#     8   8   8   4   8
#     4  11  25  46  70 107 142 187 240 293 353 429
#     4  10  23  46  70 104 140 185 242 294 353 423
#     4  12  26  45  71 106 145 189 235 295 358 426
#     4  12  24  46  66 110 144 184 240 290 352 434
#     4  11  23  47  69 104 141 187 238 294 359 417
#
# _framework density 28.369814999999999
#
# number of rings (size 3 to 8) (size 9 to 14) (size 15 to 20)
#    0.000    0.889    4.444    2.000    0.000    2.667 
#    8.000    6.667    0.000    0.000    0.000    0.000 
#    0.000    0.000    0.000    0.000    0.000    0.000 
#
# Total GULP energy -100365.982834 kJ/mol
# GULP energy per Si atom -5575.887935 kJ/mol
# Density = 2.830524 g / cm^3
# Si number density = 28.369815 Si / 1000 Ang^3
#
#
#
# Elastic Constant Matrix: (Units=GPa)
#
#
# Indices 1 2 3 4 5 6 
#
# 1 204.0363 83.9242 53.2668 0.0000 -40.9783 0.0000
# 2 83.9242 190.5417 -8.2436 0.0000 -37.6655 0.0000
# 3 53.2668 -8.2436 78.5041 0.0000 -25.9941 0.0000
# 4 0.0000 0.0000 0.0000 22.7977 0.0000 -21.1336
# 5 -40.9783 -37.6655 -25.9941 0.0000 62.3736 0.0000
# 6 0.0000 0.0000 0.0000 -21.1336 0.0000 62.8675
#
#
#
# Elastic Compliance Matrix: (Units=1/GPa)
#
#
# Indices 1 2 3 4 5 6 
#
# 1 0.007985 -0.003607 -0.005546 0.000000 0.000756 0.000000
# 2 -0.003607 0.007906 0.004726 0.000000 0.004374 0.000000
# 3 -0.005546 0.004726 0.019415 0.000000 0.007302 0.000000
# 4 0.000000 0.000000 0.000000 0.063721 0.000000 0.021420
# 5 0.000756 0.004374 0.007302 0.000000 0.022213 0.000000
# 6 0.000000 0.000000 0.000000 0.021420 0.000000 0.023107
#
#
# Mechanical properties :
#
#
# Convention : Reuss Voigt Hill
#
# Bulk Modulus (GPa) = 37.80519 81.21966 59.51242
# Shear Modulus (GPa) = 30.86050 52.55007 41.70528
#
# Velocity S-wave (km/s) = 3.30175 4.30853 3.83829
# Velocity P-wave (km/s) = 5.28112 7.31042 6.37701
#
# Compressibility (1/GPa) = 0.02645140
#
# Stress axis : x y z
#
# Youngs Moduli (GPa) = 125.24079 126.48379 51.50549
#
# Poissons Ratio (x) = 0.45627 0.28566
# Poissons Ratio (y) = 0.45179 -0.24342
# Poissons Ratio (z) = 0.69461 -0.59778
#
# Static dielectric constant tensor:
#      x y z
#    x 2.139960 0.000000 -0.049720 
#    y 0.000000 1.900550 0.000000 
#    z -0.049720 0.000000 2.525430 
# 
# From -- ./inp_files/115576.got.cif
#   From: 2010.05.17/outbox.cif.g08.bks.cpg/sg15_58_cif.got.tgz:115576.got - 2010.06.03 18:47:42.
