data_PCOD9296990
_publ_section_title
;
Structure prediction by ZEFSAII (Michael W. Deem and Ramdas Pophale) SiO2 
 PCOD9296990
Probable space group: C 2/C
;
_chemical_formula_sum "Si O2"
_cell_formula_units_Z 56
_cell_length_a 26.138644
_cell_length_b 12.160823
_cell_length_c 7.275881
_cell_angle_alpha 90.000000
_cell_angle_beta 83.130566
_cell_angle_gamma 90.000000
_cell_volume 2296.162874
_symmetry_space_group_name_H-M "C 2/C"
_symmetry_group_IT_number 15
_symmetry_cell_setting 'monoclinic'
loop_
_space_group_symop_operation_xyz
x,y,z
-x,y,1/2-z
-x,-y,-z
x,-y,1/2+z
1/2+x,1/2+y,z
1/2-x,1/2+y,1/2-z
1/2-x,1/2-y,-z
1/2+x,1/2-y,1/2+z
loop_
_atom_site_type_symbol
_atom_site_label
_atom_site_fract_x
_atom_site_fract_y
_atom_site_fract_z
Si Si1 0.809383 0.191364 0.264796
Si Si2 0.354251 0.253268 0.358664
Si Si3 0.797042 0.367354 0.569917
Si Si4 0.384299 0.953618 0.063449
Si Si5 0.549825 0.392665 0.107284
Si Si6 0.075878 0.136816 0.178545
Si Si7 0.054610 0.370341 0.132943
O O1 0.797250 0.307354 0.372574
O O2 0.760799 0.115559 0.334497
O O3 0.862719 0.140319 0.316360
O O4 0.818112 0.212574 0.045355
O O5 0.322435 0.224163 0.192924
O O6 0.381337 0.138956 0.409219
O O7 0.398775 0.342949 0.322964
O O8 0.832128 0.475543 0.574781
O O9 0.399234 0.889004 0.240135
O O10 0.431288 0.038839 0.020546
O O11 0.500000 0.365263 0.250000
O O12 0.556714 0.524227 0.100022
O O13 0.551379 0.352310 0.894772
O O14 0.060329 0.244747 0.072635
O O15 0.000000 0.386136 0.250000
#
# Coordination Sequence:
#
# PCOD9296990 Si02
#       7
#     8   8   8   8   8   8   8
#     4  10  23  47  66 104 134 179 233 287 343 414
#     4  11  24  45  69 103 142 177 236 289 343 430
#     4  11  23  43  76  94 140 186 224 283 355 412
#     4  12  22  45  66 103 141 177 228 286 350 427
#     4  11  25  44  69  97 135 184 231 291 350 408
#     4  11  24  47  66 100 140 172 244 297 334 427
#     4  12  25  43  69  99 140 183 228 291 350 417
#
# _framework density 24.388511999999999
#
# number of rings (size 3 to 8) (size 9 to 14) (size 15 to 20)
#    0.000    0.857    5.714    1.714    2.000    1.714 
#    7.714    0.000    0.000    0.000    0.000    0.000 
#    0.000    0.000    0.000    0.000    0.000    0.000 
#
# Total GULP energy -156914.408483 kJ/mol
# GULP energy per Si atom -5604.086017 kJ/mol
# Density = 2.433300 g / cm^3
# Si number density = 24.388512 Si / 1000 Ang^3
#
#
#
# Elastic Constant Matrix: (Units=GPa)
#
#
# Indices 1 2 3 4 5 6 
#
# 1 110.4894 40.1473 16.0895 0.0000 -41.8972 0.0000
# 2 40.1473 94.2718 16.1178 0.0000 -22.0343 0.0000
# 3 16.0895 16.1178 81.8685 0.0000 -23.8665 0.0000
# 4 0.0000 0.0000 0.0000 28.1550 0.0000 -1.8259
# 5 -41.8972 -22.0343 -23.8665 0.0000 51.2371 0.0000
# 6 0.0000 0.0000 0.0000 -1.8259 0.0000 29.6062
#
#
#
# Elastic Compliance Matrix: (Units=1/GPa)
#
#
# Indices 1 2 3 4 5 6 
#
# 1 0.014264 -0.003792 0.001005 0.000000 0.010501 0.000000
# 2 -0.003792 0.012869 -0.001248 0.000000 0.001852 0.000000
# 3 0.001005 -0.001248 0.014286 0.000000 0.006939 0.000000
# 4 0.000000 0.000000 0.000000 0.035660 0.000000 0.002199
# 5 0.010501 0.001852 0.006939 0.000000 0.032133 0.000000
# 6 0.000000 0.000000 0.000000 0.002199 0.000000 0.033912
#
#
# Mechanical properties :
#
#
# Convention : Reuss Voigt Hill
#
# Bulk Modulus (GPa) = 29.98745 47.92656 38.95700
# Shear Modulus (GPa) = 30.80493 36.08468 33.44480
#
# Velocity S-wave (km/s) = 3.55786 3.85070 3.70717
# Velocity P-wave (km/s) = 5.40372 6.28207 5.85938
#
# Compressibility (1/GPa) = 0.03334728
#
# Stress axis : x y z
#
# Youngs Moduli (GPa) = 70.10552 77.70739 69.99888
#
# Poissons Ratio (x) = 0.29466 -0.07032
# Poissons Ratio (y) = 0.26584 0.08739
# Poissons Ratio (z) = -0.07042 0.09701
#
# Static dielectric constant tensor:
#      x y z
#    x 1.918970 0.000000 -0.014120 
#    y 0.000000 1.916570 0.000000 
#    z -0.014120 0.000000 2.002490 
# 
# From -- ./inp_files/65420.got.cif
#   From: 2010.05.17/outbox.cif.g08.bks.cpg/sg15_33_cif.got.tgz:65420.got - 2010.06.03 18:47:42.
