data_PCOD9296046
_publ_section_title
;
Structure prediction by ZEFSAII (Michael W. Deem and Ramdas Pophale) SiO2 
 PCOD9296046
Probable space group: C 2/C
;
_chemical_formula_sum "Si O2"
_cell_formula_units_Z 52
_cell_length_a 8.067393
_cell_length_b 20.036340
_cell_length_c 17.424680
_cell_angle_alpha 90.000000
_cell_angle_beta 109.302017
_cell_angle_gamma 90.000000
_cell_volume 2658.223386
_symmetry_space_group_name_H-M "C 2/C"
_symmetry_group_IT_number 15
_symmetry_cell_setting 'monoclinic'
loop_
_space_group_symop_operation_xyz
x,y,z
-x,y,1/2-z
-x,-y,-z
x,-y,1/2+z
1/2+x,1/2+y,z
1/2-x,1/2+y,1/2-z
1/2-x,1/2-y,-z
1/2+x,1/2-y,1/2+z
loop_
_atom_site_type_symbol
_atom_site_label
_atom_site_fract_x
_atom_site_fract_y
_atom_site_fract_z
Si Si1 0.043324 0.427271 0.428684
Si Si2 0.064970 0.425618 0.915399
Si Si3 0.000000 0.348424 0.750000
Si Si4 0.812815 0.876134 0.186382
Si Si5 0.204898 0.248925 0.264767
Si Si6 0.162619 0.822293 0.477477
Si Si7 0.781523 0.801499 0.438137
O O1 0.120580 0.497562 0.413177
O O2 0.141170 0.361093 0.414385
O O3 0.051000 0.425841 0.523391
O O4 0.842723 0.425616 0.365075
O O5 0.997002 0.394043 0.825940
O O6 0.218395 0.377053 0.965049
O O7 0.826115 0.301449 0.733503
O O8 0.724912 0.821637 0.228866
O O9 0.856866 0.837046 0.115284
O O10 0.000000 0.900635 0.250000
O O11 0.287714 0.259057 0.361164
O O12 0.000000 0.231441 0.250000
O O13 0.250000 0.750000 0.500000
O O14 0.972409 0.829507 0.483532
O O15 0.750000 0.750000 0.500000
#
# Coordination Sequence:
#
# PCOD9296046 Si02
#       7
#     8   8   4   8   8   8   8
#     4  10  23  44  66  93 131 171 227 265 331 408
#     4  10  24  44  65  89 131 183 213 270 337 400
#     4  12  24  44  64  94 138 172 218 276 344 388
#     4  11  20  39  63  93 126 167 213 277 330 393
#     4  12  23  37  63 100 129 164 220 278 332 392
#     4  11  22  39  63  92 127 170 217 269 341 387
#     4  12  23  36  64  97 126 163 215 278 325 389
#
# _framework density 19.561938999999999
#
# number of rings (size 3 to 8) (size 9 to 14) (size 15 to 20)
#    0.000    0.923    3.846    4.615    2.154    1.846 
#    0.000    0.769    0.000    0.000    0.000    0.000 
#    0.000    0.000    0.000    0.000    0.000    0.000 
#
# Total GULP energy -144994.044184 kJ/mol
# GULP energy per Si atom -5576.694007 kJ/mol
# Density = 1.951742 g / cm^3
# Si number density = 19.561939 Si / 1000 Ang^3
#
#
#
# Elastic Constant Matrix: (Units=GPa)
#
#
# Indices 1 2 3 4 5 6 
#
# 1 82.6116 32.4301 8.4996 0.0000 13.1431 0.0000
# 2 32.4301 98.3675 32.3019 0.0000 9.9051 0.0000
# 3 8.4996 32.3019 92.4025 0.0000 -3.8594 0.0000
# 4 0.0000 0.0000 0.0000 24.1723 0.0000 -5.2583
# 5 13.1431 9.9051 -3.8594 0.0000 33.7581 0.0000
# 6 0.0000 0.0000 0.0000 -5.2583 0.0000 20.0401
#
#
#
# Elastic Compliance Matrix: (Units=1/GPa)
#
#
# Indices 1 2 3 4 5 6 
#
# 1 0.014505 -0.004342 0.000001 0.000000 -0.004373 0.000000
# 2 -0.004342 0.013304 -0.004365 0.000000 -0.002712 0.000000
# 3 0.000001 -0.004365 0.012461 0.000000 0.002705 0.000000
# 4 0.000000 0.000000 0.000000 0.043874 0.000000 0.011512
# 5 -0.004373 -0.002712 0.002705 0.000000 0.032430 0.000000
# 6 0.000000 0.000000 0.000000 0.011512 0.000000 0.052921
#
#
# Mechanical properties :
#
#
# Convention : Reuss Voigt Hill
#
# Bulk Modulus (GPa) = 43.74762 46.64944 45.19853
# Shear Modulus (GPa) = 25.70366 28.93744 27.32055
#
# Velocity S-wave (km/s) = 3.62879 3.85030 3.74119
# Velocity P-wave (km/s) = 6.32216 6.60797 6.46664
#
# Compressibility (1/GPa) = 0.02285839
#
# Stress axis : x y z
#
# Youngs Moduli (GPa) = 68.94183 75.16658 80.25127
#
# Poissons Ratio (x) = 0.32638 -0.00008
# Poissons Ratio (y) = 0.29935 0.35026
# Poissons Ratio (z) = -0.00007 0.32807
#
# Static dielectric constant tensor:
#      x y z
#    x 1.711500 0.000000 0.009290 
#    y 0.000000 1.677240 0.000000 
#    z 0.009290 0.000000 1.730240 
# 
# From -- ./inp_files/191116.got.cif
#   From: 2010.05.17/outbox.cif.g08.bks.cpg/sg15_96_cif.got.tgz:191116.got - 2010.06.03 18:47:42.
