data_PCOD9296945
_publ_section_title
;
Structure prediction by ZEFSAII (Michael W. Deem and Ramdas Pophale) SiO2 
 PCOD9296945
Probable space group: C 2/C
;
_chemical_formula_sum "Si O2"
_cell_formula_units_Z 44
_cell_length_a 18.273040
_cell_length_b 7.848484
_cell_length_c 14.416297
_cell_angle_alpha 90.000000
_cell_angle_beta 60.543908
_cell_angle_gamma 90.000000
_cell_volume 1800.259906
_symmetry_space_group_name_H-M "C 2/C"
_symmetry_group_IT_number 15
_symmetry_cell_setting 'monoclinic'
loop_
_space_group_symop_operation_xyz
x,y,z
-x,y,1/2-z
-x,-y,-z
x,-y,1/2+z
1/2+x,1/2+y,z
1/2-x,1/2+y,1/2-z
1/2-x,1/2-y,-z
1/2+x,1/2-y,1/2+z
loop_
_atom_site_type_symbol
_atom_site_label
_atom_site_fract_x
_atom_site_fract_y
_atom_site_fract_z
Si Si1 0.143159 0.334722 0.468960
Si Si2 0.171057 0.693891 0.355418
Si Si3 0.682400 0.297869 0.622329
Si Si4 0.500000 0.256062 0.750000
Si Si5 0.991502 0.825446 0.957615
Si Si6 0.669685 0.287365 0.148721
O O1 0.169865 0.504554 0.397741
O O2 0.231346 0.231038 0.410457
O O3 0.126364 0.311896 0.590013
O O4 0.058337 0.291443 0.467793
O O5 0.266741 0.749788 0.315458
O O6 0.104191 0.778191 0.465717
O O7 0.141282 0.734497 0.269861
O O8 0.750000 0.250000 0.500000
O O9 0.595574 0.190242 0.672911
O O10 0.663564 0.505046 0.634232
O O11 0.514271 0.348518 0.837279
O O12 0.000000 0.000000 0.000000
#
# Coordination Sequence:
#
# PCOD9296945 Si02
#       6
#     8   8   8   4   8   8
#     4  10  24  45  69 102 146 196 251 307 384 456
#     4  11  24  45  71 106 147 198 251 315 382 459
#     4  11  23  46  73 107 152 202 256 314 389 463
#     4  12  24  42  70 110 144 192 248 320 376 452
#     4  12  25  42  69 106 149 193 259 312 383 461
#     4  10  23  46  74 103 151 201 254 317 389 462
#
# _framework density 24.440915
#
# number of rings (size 3 to 8) (size 9 to 14) (size 15 to 20)
#    0.000    1.091    1.818    3.818    0.000    3.636 
#   16.364    0.000    0.000    0.000    0.000    0.000 
#    0.000    0.000    0.000    0.000    0.000    0.000 
#
# Total GULP energy -122538.869627 kJ/mol
# GULP energy per Si atom -5569.948619 kJ/mol
# Density = 2.438529 g / cm^3
# Si number density = 24.440915 Si / 1000 Ang^3
#
#
#
# Elastic Constant Matrix: (Units=GPa)
#
#
# Indices 1 2 3 4 5 6 
#
# 1 147.6664 34.1172 36.7281 0.0000 -5.1479 0.0000
# 2 34.1172 65.6147 37.3866 0.0000 9.3555 0.0000
# 3 36.7281 37.3866 168.5696 0.0000 34.0928 0.0000
# 4 0.0000 0.0000 0.0000 26.1355 0.0000 -1.3197
# 5 -5.1479 9.3555 34.0928 0.0000 66.2942 0.0000
# 6 0.0000 0.0000 0.0000 -1.3197 0.0000 10.1057
#
#
#
# Elastic Compliance Matrix: (Units=1/GPa)
#
#
# Indices 1 2 3 4 5 6 
#
# 1 0.008008 -0.003685 -0.001293 0.000000 0.001807 0.000000
# 2 -0.003685 0.019157 -0.003171 0.000000 -0.001359 0.000000
# 3 -0.001293 -0.003171 0.007642 0.000000 -0.003583 0.000000
# 4 0.000000 0.000000 0.000000 0.038516 0.000000 0.005030
# 5 0.001807 -0.001359 -0.003583 0.000000 0.017259 0.000000
# 6 0.000000 0.000000 0.000000 0.005030 0.000000 0.099611
#
#
# Mechanical properties :
#
#
# Convention : Reuss Voigt Hill
#
# Bulk Modulus (GPa) = 54.02715 66.47940 60.25327
# Shear Modulus (GPa) = 23.51168 38.74832 31.13000
#
# Velocity S-wave (km/s) = 3.10495 3.98601 3.57274
# Velocity P-wave (km/s) = 5.91671 6.96014 6.45953
#
# Compressibility (1/GPa) = 0.01850921
#
# Stress axis : x y z
#
# Youngs Moduli (GPa) = 124.87640 52.20021 130.85705
#
# Poissons Ratio (x) = 0.19234 0.16919
# Poissons Ratio (y) = 0.46013 0.41497
# Poissons Ratio (z) = 0.16146 0.16553
#
# Static dielectric constant tensor:
#      x y z
#    x 1.885430 0.000000 -0.002620 
#    y 0.000000 1.923160 0.000000 
#    z -0.002620 0.000000 1.964840 
# 
# From -- ./inp_files/159670.got.cif
#   From: 2010.05.17/outbox.cif.g08.bks.cpg/sg15_80_cif.got.tgz:159670.got - 2010.06.03 18:47:42.
