data_PCOD9296781
_publ_section_title
;
Structure prediction by ZEFSAII (Michael W. Deem and Ramdas Pophale) SiO2 
 PCOD9296781
Probable space group: C 2/C
;
_chemical_formula_sum "Si O2"
_cell_formula_units_Z 56
_cell_length_a 11.006355
_cell_length_b 9.289545
_cell_length_c 24.217514
_cell_angle_alpha 90.000000
_cell_angle_beta 106.133460
_cell_angle_gamma 90.000000
_cell_volume 2378.580236
_symmetry_space_group_name_H-M "C 2/C"
_symmetry_group_IT_number 15
_symmetry_cell_setting 'monoclinic'
loop_
_space_group_symop_operation_xyz
x,y,z
-x,y,1/2-z
-x,-y,-z
x,-y,1/2+z
1/2+x,1/2+y,z
1/2-x,1/2+y,1/2-z
1/2-x,1/2-y,-z
1/2+x,1/2-y,1/2+z
loop_
_atom_site_type_symbol
_atom_site_label
_atom_site_fract_x
_atom_site_fract_y
_atom_site_fract_z
Si Si1 0.768923 0.281859 0.906491
Si Si2 0.210398 0.840345 0.774456
Si Si3 0.500000 0.901419 0.250000
Si Si4 0.956279 0.284155 0.542336
Si Si5 0.000000 0.915117 0.250000
Si Si6 0.730533 0.896586 0.069047
Si Si7 0.589548 0.017675 0.876714
Si Si8 0.317457 0.231897 0.172182
O O1 0.772987 0.325515 0.842108
O O2 0.752829 0.433403 0.935382
O O3 0.654368 0.169010 0.898914
O O4 0.903860 0.219599 0.942479
O O5 0.120030 0.701575 0.762349
O O6 0.293238 0.822103 0.730631
O O7 0.119882 0.980032 0.755823
O O8 0.493283 0.976633 0.189679
O O9 0.855902 0.179572 0.559620
O O10 0.889500 0.333147 0.477837
O O11 0.969663 0.431189 0.580212
O O12 0.047178 0.813652 0.305959
O O13 0.726005 0.848376 0.132576
O O14 0.696191 0.906138 0.868538
#
# Coordination Sequence:
#
# PCOD9296781 Si02
#       8
#     8   8   4   8   4   8   8   8
#     4  11  23  42  65  95 129 167 218 267 325 386
#     4  10  24  37  62  95 128 164 214 259 326 389
#     4   9  21  40  54  92 134 154 210 272 316 388
#     4  10  24  45  70  89 134 171 215 278 318 371
#     4  11  23  42  62  92 130 174 206 264 326 382
#     4  10  23  46  65  99 127 174 224 259 324 393
#     4  10  24  39  61 100 123 168 224 260 326 391
#     4  11  24  39  65  93 130 167 214 262 320 384
#
# _framework density 23.543455000000002
#
# number of rings (size 3 to 8) (size 9 to 14) (size 15 to 20)
#    0.000    1.714    1.429    0.857   12.000    0.571 
#    0.000    7.857    0.000    0.000    0.000    0.000 
#    0.000    0.000    0.000    0.000    0.000    0.000 
#
# Total GULP energy -156406.233430 kJ/mol
# GULP energy per Si atom -5585.936908 kJ/mol
# Density = 2.348987 g / cm^3
# Si number density = 23.543455 Si / 1000 Ang^3
#
#
#
# Elastic Constant Matrix: (Units=GPa)
#
#
# Indices 1 2 3 4 5 6 
#
# 1 46.9704 14.8174 27.8487 0.0000 16.3665 0.0000
# 2 14.8174 70.8155 5.0851 0.0000 8.8799 0.0000
# 3 27.8487 5.0851 100.1954 0.0000 36.1649 0.0000
# 4 0.0000 0.0000 0.0000 36.8630 0.0000 1.6369
# 5 16.3665 8.8799 36.1649 0.0000 35.5191 0.0000
# 6 0.0000 0.0000 0.0000 1.6369 0.0000 25.4054
#
#
#
# Elastic Compliance Matrix: (Units=1/GPa)
#
#
# Indices 1 2 3 4 5 6 
#
# 1 0.028133 -0.004702 -0.005259 0.000000 -0.006433 0.000000
# 2 -0.004702 0.015417 0.001792 0.000000 -0.003513 0.000000
# 3 -0.005259 0.001792 0.016820 0.000000 -0.015150 0.000000
# 4 0.000000 0.000000 0.000000 0.027205 0.000000 -0.001753
# 5 -0.006433 -0.003513 -0.015150 0.000000 0.047422 0.000000
# 6 0.000000 0.000000 0.000000 -0.001753 0.000000 0.039475
#
#
# Mechanical properties :
#
#
# Convention : Reuss Voigt Hill
#
# Bulk Modulus (GPa) = 22.71071 34.83156 28.77113
# Shear Modulus (GPa) = 24.33257 30.90616 27.61937
#
# Velocity S-wave (km/s) = 3.21832 3.62709 3.42880
# Velocity P-wave (km/s) = 4.84535 5.68927 5.28418
#
# Compressibility (1/GPa) = 0.04403209
#
# Stress axis : x y z
#
# Youngs Moduli (GPa) = 35.54568 64.86417 59.45447
#
# Poissons Ratio (x) = 0.30500 0.31265
# Poissons Ratio (y) = 0.16714 -0.10656
# Poissons Ratio (z) = 0.18692 -0.11626
#
# Static dielectric constant tensor:
#      x y z
#    x 1.918130 0.000000 -0.017990 
#    y 0.000000 1.929900 0.000000 
#    z -0.017990 0.000000 1.920910 
# 
# From -- ./inp_files/291659.got.cif
#   From: 2010.05.17/outbox.cif.g08.bks.cpg/sg15_146_cif.got.tgz:291659.got - 2010.06.03 18:47:42.
