data_PCOD9296537
_publ_section_title
;
Structure prediction by ZEFSAII (Michael W. Deem and Ramdas Pophale) SiO2 
 PCOD9296537
Probable space group: C 2/C
;
_chemical_formula_sum "Si O2"
_cell_formula_units_Z 40
_cell_length_a 8.143532
_cell_length_b 11.813086
_cell_length_c 19.500478
_cell_angle_alpha 90.000000
_cell_angle_beta 120.103647
_cell_angle_gamma 90.000000
_cell_volume 1622.921559
_symmetry_space_group_name_H-M "C 2/C"
_symmetry_group_IT_number 15
_symmetry_cell_setting 'monoclinic'
loop_
_space_group_symop_operation_xyz
x,y,z
-x,y,1/2-z
-x,-y,-z
x,-y,1/2+z
1/2+x,1/2+y,z
1/2-x,1/2+y,1/2-z
1/2-x,1/2-y,-z
1/2+x,1/2-y,1/2+z
loop_
_atom_site_type_symbol
_atom_site_label
_atom_site_fract_x
_atom_site_fract_y
_atom_site_fract_z
Si Si1 0.492860 0.484671 0.850485
Si Si2 0.282998 0.134539 0.964739
Si Si3 0.110723 0.417410 0.704341
Si Si4 0.677549 0.806858 0.576403
Si Si5 0.223054 0.451110 0.418054
O O1 0.326433 0.457038 0.761686
O O2 0.630947 0.378081 0.886249
O O3 0.367941 0.499716 0.892370
O O4 0.632219 0.595018 0.875776
O O5 0.505430 0.144798 0.993673
O O6 0.260902 0.032984 0.014102
O O7 0.250000 0.250000 0.000000
O O8 0.110432 0.328212 0.641500
O O9 0.000000 0.376176 0.750000
O O10 0.987176 0.525874 0.655155
O O11 0.718359 0.678778 0.565323
#
# Coordination Sequence:
#
# PCOD9296537 Si02
#       5
#     8   8   8   8   8
#     4  11  22  40  67  99 133 174 229 273 338 396
#     4  11  23  44  68  99 141 180 221 278 335 401
#     4   9  22  43  65  97 133 175 224 278 341 401
#     4  11  23  43  69  96 135 175 227 279 335 407
#     4  10  23  45  67  95 139 179 222 276 340 397
#
# _framework density 24.646910999999999
#
# number of rings (size 3 to 8) (size 9 to 14) (size 15 to 20)
#    0.000    1.600    2.000    1.800    0.000    5.600 
#    7.200    4.000    0.000    0.000    0.000    0.000 
#    0.000    0.000    0.000    0.000    0.000    0.000 
#
# Total GULP energy -111855.839361 kJ/mol
# GULP energy per Si atom -5592.791968 kJ/mol
# Density = 2.459081 g / cm^3
# Si number density = 24.646911 Si / 1000 Ang^3
#
#
#
# Elastic Constant Matrix: (Units=GPa)
#
#
# Indices 1 2 3 4 5 6 
#
# 1 133.3673 59.2818 61.4188 0.0000 34.7793 0.0000
# 2 59.2818 170.2505 51.6544 0.0000 5.2298 0.0000
# 3 61.4188 51.6544 109.0008 0.0000 34.5294 0.0000
# 4 0.0000 0.0000 0.0000 24.8145 0.0000 1.5935
# 5 34.7793 5.2298 34.5294 0.0000 66.5261 0.0000
# 6 0.0000 0.0000 0.0000 1.5935 0.0000 54.0291
#
#
#
# Elastic Compliance Matrix: (Units=1/GPa)
#
#
# Indices 1 2 3 4 5 6 
#
# 1 0.011516 -0.002667 -0.004050 0.000000 -0.003709 0.000000
# 2 -0.002667 0.007584 -0.002805 0.000000 0.002254 0.000000
# 3 -0.004050 -0.002805 0.014415 0.000000 -0.005144 0.000000
# 4 0.000000 0.000000 0.000000 0.040376 0.000000 -0.001191
# 5 -0.003709 0.002254 -0.005144 0.000000 0.019463 0.000000
# 6 0.000000 0.000000 0.000000 -0.001191 0.000000 0.018544
#
#
# Mechanical properties :
#
#
# Convention : Reuss Voigt Hill
#
# Bulk Modulus (GPa) = 69.10694 84.14762 76.62728
# Shear Modulus (GPa) = 36.82779 45.09149 40.95964
#
# Velocity S-wave (km/s) = 3.86970 4.28190 4.08101
# Velocity P-wave (km/s) = 6.93295 7.65909 7.30505
#
# Compressibility (1/GPa) = 0.01447033
#
# Stress axis : x y z
#
# Youngs Moduli (GPa) = 86.83604 131.85104 69.37018
#
# Poissons Ratio (x) = 0.35167 0.28096
# Poissons Ratio (y) = 0.23160 0.19461
# Poissons Ratio (z) = 0.35170 0.36989
#
# Static dielectric constant tensor:
#      x y z
#    x 2.046360 0.000000 -0.020250 
#    y 0.000000 1.885090 0.000000 
#    z -0.020250 0.000000 2.120090 
# 
# From -- ./inp_files/263348.got.cif
#   From: 2010.05.17/outbox.cif.g08.bks.cpg/sg15_132_cif.got.tgz:263348.got - 2010.06.03 18:47:42.
