data_PCOD9296869
_publ_section_title
;
Structure prediction by ZEFSAII (Michael W. Deem and Ramdas Pophale) SiO2 
 PCOD9296869
Probable space group: C 2/C
;
_chemical_formula_sum "Si O2"
_cell_formula_units_Z 36
_cell_length_a 11.424639
_cell_length_b 9.257641
_cell_length_c 14.207385
_cell_angle_alpha 90.000000
_cell_angle_beta 69.104141
_cell_angle_gamma 90.000000
_cell_volume 1403.818296
_symmetry_space_group_name_H-M "C 2/C"
_symmetry_group_IT_number 15
_symmetry_cell_setting 'monoclinic'
loop_
_space_group_symop_operation_xyz
x,y,z
-x,y,1/2-z
-x,-y,-z
x,-y,1/2+z
1/2+x,1/2+y,z
1/2-x,1/2+y,1/2-z
1/2-x,1/2-y,-z
1/2+x,1/2-y,1/2+z
loop_
_atom_site_type_symbol
_atom_site_label
_atom_site_fract_x
_atom_site_fract_y
_atom_site_fract_z
Si Si1 0.263323 0.896446 0.355300
Si Si2 0.100852 0.693868 0.501753
Si Si3 0.485763 0.466096 0.642913
Si Si4 0.000000 0.517794 0.250000
Si Si5 0.107750 0.275290 0.564939
O O1 0.189445 0.743747 0.388853
O O2 0.323718 0.899533 0.444080
O O3 0.157203 0.009657 0.352782
O O4 0.384951 0.912257 0.253393
O O5 0.057928 0.838826 0.569311
O O6 0.969630 0.647737 0.495986
O O7 0.500000 0.443970 0.750000
O O8 0.551260 0.616932 0.598613
O O9 0.924031 0.628936 0.336170
O O10 0.250000 0.250000 0.500000
#
# Coordination Sequence:
#
# PCOD9296869 Si02
#       5
#     8   8   8   4   8
#     4  10  24  42  65 101 137 177 244 288 352 440
#     4  10  23  46  70  98 142 192 230 298 370 427
#     4  11  23  43  70 100 136 189 232 295 365 433
#     4  12  24  42  68 108 136 186 242 302 354 432
#     4  11  23  44  70 102 143 185 236 298 366 433
#
# _framework density 25.644345000000001
#
# number of rings (size 3 to 8) (size 9 to 14) (size 15 to 20)
#    0.000    1.333    1.111    5.333    1.556    8.000 
#    0.000    0.000    0.000    0.000    0.000    0.000 
#    0.000    0.000    0.000    0.000    0.000    0.000 
#
# Total GULP energy -100563.909518 kJ/mol
# GULP energy per Si atom -5586.883862 kJ/mol
# Density = 2.558598 g / cm^3
# Si number density = 25.644345 Si / 1000 Ang^3
#
#
#
# Elastic Constant Matrix: (Units=GPa)
#
#
# Indices 1 2 3 4 5 6 
#
# 1 204.6913 41.2901 36.1098 0.0000 -41.6651 0.0000
# 2 41.2901 100.2178 48.3172 0.0000 -12.3419 0.0000
# 3 36.1098 48.3172 85.7256 0.0000 -26.7463 0.0000
# 4 0.0000 0.0000 0.0000 38.3664 0.0000 -0.7157
# 5 -41.6651 -12.3419 -26.7463 0.0000 54.0225 0.0000
# 6 0.0000 0.0000 0.0000 -0.7157 0.0000 26.5412
#
#
#
# Elastic Compliance Matrix: (Units=1/GPa)
#
#
# Indices 1 2 3 4 5 6 
#
# 1 0.006168 -0.001927 -0.000195 0.000000 0.004220 0.000000
# 2 -0.001927 0.014335 -0.007935 0.000000 -0.002140 0.000000
# 3 -0.000195 -0.007935 0.018459 0.000000 0.007175 0.000000
# 4 0.000000 0.000000 0.000000 0.026078 0.000000 0.000703
# 5 0.004220 -0.002140 0.007175 0.000000 0.024829 0.000000
# 6 0.000000 0.000000 0.000000 0.000703 0.000000 0.037696
#
#
# Mechanical properties :
#
#
# Convention : Reuss Voigt Hill
#
# Bulk Modulus (GPa) = 53.06351 71.34099 62.20225
# Shear Modulus (GPa) = 32.47590 41.44719 36.96154
#
# Velocity S-wave (km/s) = 3.56251 4.02460 3.80058
# Velocity P-wave (km/s) = 6.13669 7.03394 6.60058
#
# Compressibility (1/GPa) = 0.01884534
#
# Stress axis : x y z
#
# Youngs Moduli (GPa) = 162.13895 69.76173 54.17552
#
# Poissons Ratio (x) = 0.13445 0.01057
# Poissons Ratio (y) = 0.31250 0.42990
# Poissons Ratio (z) = 0.03162 0.55358
#
# Static dielectric constant tensor:
#      x y z
#    x 2.161390 0.000000 0.018810 
#    y 0.000000 2.124420 0.000000 
#    z 0.018810 0.000000 2.088120 
# 
# From -- ./inp_files/141659.got.cif
#   From: 2010.05.17/outbox.cif.g08.bks.cpg/sg15_71_cif.got.tgz:141659.got - 2010.06.03 18:47:42.
