data_PCOD9296864
_publ_section_title
;
Structure prediction by ZEFSAII (Michael W. Deem and Ramdas Pophale) SiO2 
 PCOD9296864
Probable space group: C 2/C
;
_chemical_formula_sum "Si O2"
_cell_formula_units_Z 56
_cell_length_a 22.403560
_cell_length_b 11.189173
_cell_length_c 19.545964
_cell_angle_alpha 90.000000
_cell_angle_beta 25.265554
_cell_angle_gamma 90.000000
_cell_volume 2091.274462
_symmetry_space_group_name_H-M "C 2/C"
_symmetry_group_IT_number 15
_symmetry_cell_setting 'monoclinic'
loop_
_space_group_symop_operation_xyz
x,y,z
-x,y,1/2-z
-x,-y,-z
x,-y,1/2+z
1/2+x,1/2+y,z
1/2-x,1/2+y,1/2-z
1/2-x,1/2-y,-z
1/2+x,1/2-y,1/2+z
loop_
_atom_site_type_symbol
_atom_site_label
_atom_site_fract_x
_atom_site_fract_y
_atom_site_fract_z
Si Si1 0.000000 0.810651 0.250000
Si Si2 0.885523 0.863636 0.672970
Si Si3 0.513021 0.380352 0.400989
Si Si4 0.136529 0.504101 0.948306
Si Si5 0.705736 0.763553 0.426918
Si Si6 0.272192 0.479045 0.960457
Si Si7 0.094870 0.369673 0.264907
Si Si8 0.000000 0.217622 0.250000
O O1 0.105543 0.722567 0.098006
O O2 0.121549 0.909479 0.143017
O O3 0.846817 0.742399 0.752420
O O4 0.996869 0.849572 0.497158
O O5 0.948383 0.980220 0.648067
O O6 0.741460 0.923125 0.796798
O O7 0.360353 0.361629 0.527188
O O8 0.628261 0.289039 0.248329
O O9 0.154943 0.644104 0.920798
O O10 0.982266 0.457035 0.103631
O O11 0.191257 0.491814 0.971981
O O12 0.369122 0.361941 0.865648
O O13 0.175441 0.451955 0.126630
O O14 0.980494 0.299438 0.336311
#
# Coordination Sequence:
#
# PCOD9296864 Si02
#       8
#     4   8   8   8   8   8   8   4
#     4  11  26  41  72  92 140 185 223 278 354 414
#     4  10  23  46  70  96 136 186 222 283 355 398
#     4  10  25  49  72  98 138 180 239 284 336 410
#     4  11  23  40  65  97 137 174 225 280 344 405
#     4  11  26  46  69 100 134 182 234 281 339 414
#     4  11  23  39  58 104 137 174 219 280 346 405
#     4  12  22  37  66  99 135 176 222 282 341 412
#     4  11  20  35  58  90 138 169 217 274 326 414
#
# _framework density 26.777930000000001
#
# number of rings (size 3 to 8) (size 9 to 14) (size 15 to 20)
#    0.000    1.143    2.857    3.000    8.000    1.143 
#    0.000    0.714    0.000    0.000    0.000    0.000 
#    0.000    0.000    0.000    0.000    0.000    0.000 
#
# Total GULP energy -155985.769985 kJ/mol
# GULP energy per Si atom -5570.920357 kJ/mol
# Density = 2.671698 g / cm^3
# Si number density = 26.777930 Si / 1000 Ang^3
#
#
#
# Elastic Constant Matrix: (Units=GPa)
#
#
# Indices 1 2 3 4 5 6 
#
# 1 35.9786 21.4492 22.4220 -0.0001 5.4979 0.0000
# 2 21.4492 69.9752 47.6145 -0.0003 -17.5545 0.0001
# 3 22.4220 47.6145 168.5279 -0.0003 16.5260 0.0001
# 4 -0.0001 -0.0003 -0.0003 42.5673 0.0001 -10.1093
# 5 5.4979 -17.5545 16.5260 0.0001 29.7564 -0.0001
# 6 0.0000 0.0001 0.0001 -10.1093 -0.0001 22.4863
#
#
#
# Elastic Compliance Matrix: (Units=1/GPa)
#
#
# Indices 1 2 3 4 5 6 
#
# 1 0.040732 -0.018522 0.001717 0.000000 -0.019406 0.000000
# 2 -0.018522 0.034084 -0.010018 0.000000 0.029094 0.000000
# 3 0.001717 -0.010018 0.009673 0.000000 -0.011600 0.000000
# 4 0.000000 0.000000 0.000000 0.026300 0.000000 0.011824
# 5 -0.019406 0.029094 -0.011600 0.000000 0.060798 0.000000
# 6 0.000000 0.000000 0.000000 0.011824 0.000000 0.049787
#
#
# Mechanical properties :
#
#
# Convention : Reuss Voigt Hill
#
# Bulk Modulus (GPa) = 32.42333 50.82812 41.62573
# Shear Modulus (GPa) = 17.52527 31.16174 24.34350
#
# Velocity S-wave (km/s) = 2.56103 3.41502 3.01838
# Velocity P-wave (km/s) = 4.56943 5.87983 5.26555
#
# Compressibility (1/GPa) = 0.03084199
#
# Stress axis : x y z
#
# Youngs Moduli (GPa) = 24.55078 29.33933 103.37660
#
# Poissons Ratio (x) = 0.54342 -0.17747
# Poissons Ratio (y) = 0.45473 1.03568
# Poissons Ratio (z) = -0.04215 0.29394
#
# Static dielectric constant tensor:
#      x y z
#    x 2.325740 0.000000 0.086750 
#    y 0.000000 2.158360 0.000000 
#    z 0.086750 0.000000 2.142060 
# 
# From -- ./inp_files/284620.got.cif
#   From: 2010.05.17/outbox.cif.g08.bks.cpg/sg15_143_cif.got.tgz:284620.got - 2010.06.03 18:47:42.
