data_PCOD9296307
_publ_section_title
;
Structure prediction by ZEFSAII (Michael W. Deem and Ramdas Pophale) SiO2 
 PCOD9296307
Probable space group: C 2/C
;
_chemical_formula_sum "Si O2"
_cell_formula_units_Z 44
_cell_length_a 23.685301
_cell_length_b 5.560713
_cell_length_c 14.057931
_cell_angle_alpha 90.000000
_cell_angle_beta 112.695572
_cell_angle_gamma 90.000000
_cell_volume 1708.162334
_symmetry_space_group_name_H-M "C 2/C"
_symmetry_group_IT_number 15
_symmetry_cell_setting 'monoclinic'
loop_
_space_group_symop_operation_xyz
x,y,z
-x,y,1/2-z
-x,-y,-z
x,-y,1/2+z
1/2+x,1/2+y,z
1/2-x,1/2+y,1/2-z
1/2-x,1/2-y,-z
1/2+x,1/2-y,1/2+z
loop_
_atom_site_type_symbol
_atom_site_label
_atom_site_fract_x
_atom_site_fract_y
_atom_site_fract_z
Si Si1 0.753403 0.219682 0.616888
Si Si2 0.922681 0.243909 0.981906
Si Si3 0.500000 0.228820 0.250000
Si Si4 0.207473 0.776752 0.064747
Si Si5 0.613150 0.469353 0.246990
Si Si6 0.044756 0.643070 0.628269
O O1 0.750000 0.250000 0.500000
O O2 0.728972 0.481795 0.633588
O O3 0.822391 0.146305 0.687186
O O4 0.714919 0.982026 0.620644
O O5 0.863727 0.203361 0.008594
O O6 0.904498 0.113055 0.871883
O O7 0.930464 0.519544 0.950813
O O8 0.988285 0.179209 0.068031
O O9 0.561708 0.381709 0.287133
O O10 0.489929 0.056303 0.332490
O O11 0.250000 0.750000 0.000000
O O12 0.600577 0.752841 0.226418
#
# Coordination Sequence:
#
# PCOD9296307 Si02
#       6
#     8   8   4   8   8   8
#     4  10  25  43  70 102 141 189 243 293 363 425
#     4  10  24  43  70 101 144 182 248 299 381 440
#     4  10  24  38  68 102 132 184 234 306 366 436
#     4  10  24  44  69 103 135 194 234 299 354 445
#     4  11  24  42  68 100 141 184 247 299 370 451
#     4  10  23  44  71 104 139 189 234 319 373 438
#
# _framework density 25.758676000000001
#
# number of rings (size 3 to 8) (size 9 to 14) (size 15 to 20)
#    0.000    1.818    0.000    1.091   12.727    5.818 
#    0.000    0.000    0.000    0.000    0.000    0.000 
#    0.000    0.000    0.000    0.000    0.000    0.000 
#
# Total GULP energy -122903.536517 kJ/mol
# GULP energy per Si atom -5586.524387 kJ/mol
# Density = 2.570005 g / cm^3
# Si number density = 25.758676 Si / 1000 Ang^3
#
#
#
# Elastic Constant Matrix: (Units=GPa)
#
#
# Indices 1 2 3 4 5 6 
#
# 1 155.2289 37.6363 39.4767 0.0000 36.4694 0.0000
# 2 37.6363 147.3872 28.1228 0.0000 20.7931 0.0000
# 3 39.4767 28.1228 101.8492 0.0000 27.4730 0.0000
# 4 0.0000 0.0000 0.0000 27.2002 0.0000 5.5614
# 5 36.4694 20.7931 27.4730 0.0000 50.6569 0.0000
# 6 0.0000 0.0000 0.0000 5.5614 0.0000 26.6620
#
#
#
# Elastic Compliance Matrix: (Units=1/GPa)
#
#
# Indices 1 2 3 4 5 6 
#
# 1 0.008204 -0.001141 -0.001638 0.000000 -0.004550 0.000000
# 2 -0.001141 0.007534 -0.001201 0.000000 -0.001620 0.000000
# 3 -0.001638 -0.001201 0.012105 0.000000 -0.004893 0.000000
# 4 0.000000 0.000000 0.000000 0.038402 0.000000 -0.008010
# 5 -0.004550 -0.001620 -0.004893 0.000000 0.026335 0.000000
# 6 0.000000 0.000000 0.000000 -0.008010 0.000000 0.039177
#
#
# Mechanical properties :
#
#
# Convention : Reuss Voigt Hill
#
# Bulk Modulus (GPa) = 50.29253 68.32632 59.30942
# Shear Modulus (GPa) = 34.16618 40.85247 37.50932
#
# Velocity S-wave (km/s) = 3.64592 3.98674 3.82014
# Velocity P-wave (km/s) = 6.10660 6.91197 6.52173
#
# Compressibility (1/GPa) = 0.01988367
#
# Stress axis : x y z
#
# Youngs Moduli (GPa) = 121.89040 132.73460 82.61288
#
# Poissons Ratio (x) = 0.15139 0.13529
# Poissons Ratio (y) = 0.13903 0.09924
# Poissons Ratio (z) = 0.19961 0.15945
#
# Static dielectric constant tensor:
#      x y z
#    x 1.986270 0.000000 0.005560 
#    y 0.000000 2.343830 0.000000 
#    z 0.005560 0.000000 2.036850 
# 
# From -- ./inp_files/217843.got.cif
#   From: 2010.05.17/outbox.cif.g08.bks.cpg/sg15_109_cif.got.tgz:217843.got - 2010.06.03 18:47:42.
