data_PCOD9296151
_publ_section_title
;
Structure prediction by ZEFSAII (Michael W. Deem and Ramdas Pophale) SiO2 
 PCOD9296151
Probable space group: C 2/C
;
_chemical_formula_sum "Si O2"
_cell_formula_units_Z 64
_cell_length_a 26.673743
_cell_length_b 15.143431
_cell_length_c 12.588376
_cell_angle_alpha 90.000000
_cell_angle_beta 37.299842
_cell_angle_gamma 90.000000
_cell_volume 3081.347585
_symmetry_space_group_name_H-M "C 2/C"
_symmetry_group_IT_number 15
_symmetry_cell_setting 'monoclinic'
loop_
_space_group_symop_operation_xyz
x,y,z
-x,y,1/2-z
-x,-y,-z
x,-y,1/2+z
1/2+x,1/2+y,z
1/2-x,1/2+y,1/2-z
1/2-x,1/2-y,-z
1/2+x,1/2-y,1/2+z
loop_
_atom_site_type_symbol
_atom_site_label
_atom_site_fract_x
_atom_site_fract_y
_atom_site_fract_z
Si Si1 0.073109 0.095112 0.714159
Si Si2 0.878780 0.321463 0.671582
Si Si3 0.591051 0.896387 0.648772
Si Si4 0.776156 0.257136 0.575386
Si Si5 0.378005 0.592720 0.424090
Si Si6 0.974710 0.856452 0.968080
Si Si7 0.097252 0.404730 0.079795
Si Si8 0.802170 0.237111 0.082716
O O1 0.130719 0.178215 0.591206
O O2 0.000000 0.092692 0.750000
O O3 0.128283 0.007510 0.603877
O O4 0.037514 0.102815 0.893917
O O5 0.907354 0.362746 0.733283
O O6 0.940736 0.243266 0.532450
O O7 0.878646 0.398417 0.584370
O O8 0.787204 0.277641 0.821713
O O9 0.500000 0.883546 0.750000
O O10 0.660875 0.835099 0.478745
O O11 0.613070 0.999295 0.601389
O O12 0.750000 0.250000 0.500000
O O13 0.802142 0.158491 0.565689
O O14 0.852074 0.325171 0.454300
O O15 0.710572 0.290706 0.773081
O O16 0.434752 0.637632 0.236273
O O17 0.422360 0.593956 0.464396
O O18 0.000000 0.387972 0.250000
#
# Coordination Sequence:
#
# PCOD9296151 Si02
#       8
#     8   8   8   8   8   8   8   8
#     4  12  26  40  68 106 138 177 229 283 334 401
#     4  11  23  44  68  93 132 181 215 274 347 395
#     4  11  25  42  68  97 127 174 230 279 323 390
#     4  11  26  43  66 101 135 176 222 285 338 401
#     4  11  24  43  69 101 132 183 228 274 344 409
#     4  11  22  43  71  94 136 181 228 273 339 412
#     4  10  23  44  68  94 128 175 231 268 330 397
#     4  11  25  43  62  98 138 178 220 269 348 411
#
# _framework density 20.770133000000001
#
# number of rings (size 3 to 8) (size 9 to 14) (size 15 to 20)
#    0.000    1.000    5.000    1.875    1.750    7.000 
#    0.000    0.000    0.000    0.000    0.000    0.000 
#    0.000    0.000    0.000    0.000    0.000    0.000 
#
# Total GULP energy -178718.772293 kJ/mol
# GULP energy per Si atom -5584.961634 kJ/mol
# Density = 2.072286 g / cm^3
# Si number density = 20.770133 Si / 1000 Ang^3
#
#
#
# Elastic Constant Matrix: (Units=GPa)
#
#
# Indices 1 2 3 4 5 6 
#
# 1 102.7662 27.9322 35.6695 0.0000 33.3184 0.0000
# 2 27.9322 109.2011 30.2902 0.0000 11.9007 0.0000
# 3 35.6695 30.2902 93.5857 0.0000 24.2605 0.0000
# 4 0.0000 0.0000 0.0000 27.1839 0.0000 12.2463
# 5 33.3184 11.9007 24.2605 0.0000 35.0318 0.0000
# 6 0.0000 0.0000 0.0000 12.2463 0.0000 23.7336
#
#
#
# Elastic Compliance Matrix: (Units=1/GPa)
#
#
# Indices 1 2 3 4 5 6 
#
# 1 0.014858 -0.001954 -0.001876 0.000000 -0.012169 0.000000
# 2 -0.001954 0.010376 -0.002659 0.000000 0.000175 0.000000
# 3 -0.001876 -0.002659 0.014095 0.000000 -0.007073 0.000000
# 4 0.000000 0.000000 0.000000 0.047927 0.000000 -0.024730
# 5 -0.012169 0.000175 -0.007073 0.000000 0.044958 0.000000
# 6 0.000000 0.000000 0.000000 -0.024730 0.000000 0.054895
#
#
# Mechanical properties :
#
#
# Convention : Reuss Voigt Hill
#
# Bulk Modulus (GPa) = 37.94991 54.81521 46.38256
# Shear Modulus (GPa) = 23.93830 31.30060 27.61945
#
# Velocity S-wave (km/s) = 3.39858 3.88622 3.65055
# Velocity P-wave (km/s) = 5.80616 6.82537 6.33629
#
# Compressibility (1/GPa) = 0.02635052
#
# Stress axis : x y z
#
# Youngs Moduli (GPa) = 67.30204 96.37934 70.94867
#
# Poissons Ratio (x) = 0.18833 0.13312
# Poissons Ratio (y) = 0.13151 0.18864
# Poissons Ratio (z) = 0.12628 0.25626
#
# Static dielectric constant tensor:
#      x y z
#    x 1.750210 0.000000 0.000030 
#    y 0.000000 1.729340 0.000000 
#    z 0.000030 0.000000 1.744190 
# 
# From -- ./inp_files/123500.got.cif
#   From: 2010.05.17/outbox.cif.g08.bks.cpg/sg15_62_cif.got.tgz:123500.got - 2010.06.03 18:47:42.
