data_PCOD9296653
_publ_section_title
;
Structure prediction by ZEFSAII (Michael W. Deem and Ramdas Pophale) SiO2 
 PCOD9296653
Probable space group: C 2/C
;
_chemical_formula_sum "Si O2"
_cell_formula_units_Z 56
_cell_length_a 9.755422
_cell_length_b 14.827985
_cell_length_c 18.581412
_cell_angle_alpha 90.000000
_cell_angle_beta 93.336167
_cell_angle_gamma 90.000000
_cell_volume 2683.306486
_symmetry_space_group_name_H-M "C 2/C"
_symmetry_group_IT_number 15
_symmetry_cell_setting 'monoclinic'
loop_
_space_group_symop_operation_xyz
x,y,z
-x,y,1/2-z
-x,-y,-z
x,-y,1/2+z
1/2+x,1/2+y,z
1/2-x,1/2+y,1/2-z
1/2-x,1/2-y,-z
1/2+x,1/2-y,1/2+z
loop_
_atom_site_type_symbol
_atom_site_label
_atom_site_fract_x
_atom_site_fract_y
_atom_site_fract_z
Si Si1 0.374999 0.032879 0.690361
Si Si2 0.983058 0.746126 0.437312
Si Si3 0.905608 0.576401 0.530465
Si Si4 0.289506 0.176069 0.160668
Si Si5 0.023929 0.155887 0.329533
Si Si6 0.270160 0.712758 0.802149
Si Si7 0.592883 0.580265 0.478029
O O1 0.500000 0.031606 0.750000
O O2 0.427623 0.071907 0.616044
O O3 0.258939 0.106273 0.709280
O O4 0.324700 0.929734 0.676154
O O5 0.938813 0.667479 0.489858
O O6 0.872914 0.764830 0.370335
O O7 0.975542 0.833747 0.486146
O O8 0.122750 0.715350 0.402537
O O9 0.744712 0.562595 0.511676
O O10 0.000000 0.500000 0.500000
O O11 0.125739 0.182721 0.146021
O O12 0.321157 0.236368 0.232131
O O13 0.000000 0.112186 0.250000
O O14 0.124702 0.239560 0.317120
O O15 0.093579 0.094861 0.392295
O O16 0.500000 0.500000 0.500000
#
# Coordination Sequence:
#
# PCOD9296653 Si02
#       7
#     8   8   8   8   8   8   8
#     4  12  24  44  73 105 139 179 241 287 346 428
#     4  12  24  46  71 100 146 186 233 295 352 424
#     4  12  25  46  76 103 136 188 238 287 356 420
#     4  11  25  45  69 110 142 182 236 294 351 417
#     4  10  23  45  71  95 141 185 233 282 352 414
#     4  11  23  47  72  98 141 192 230 285 357 421
#     4  12  26  47  68 104 145 184 232 294 357 421
#
# _framework density 20.869772999999999
#
# number of rings (size 3 to 8) (size 9 to 14) (size 15 to 20)
#    0.000    0.571    4.286    4.714    0.000    0.571 
#   10.286    0.000    0.000    0.000    0.000    0.000 
#    0.000    0.000    0.000    0.000    0.000    0.000 
#
# Total GULP energy -156575.972444 kJ/mol
# GULP energy per Si atom -5591.999016 kJ/mol
# Density = 2.082227 g / cm^3
# Si number density = 20.869773 Si / 1000 Ang^3
#
#
#
# Elastic Constant Matrix: (Units=GPa)
#
#
# Indices 1 2 3 4 5 6 
#
# 1 121.9248 33.9641 38.7640 0.0000 -17.0182 0.0000
# 2 33.9641 138.9003 21.7349 0.0000 -22.1673 0.0000
# 3 38.7640 21.7349 114.2477 0.0000 2.4741 0.0000
# 4 0.0000 0.0000 0.0000 21.7439 0.0000 -10.9158
# 5 -17.0182 -22.1673 2.4741 0.0000 31.3009 0.0000
# 6 0.0000 0.0000 0.0000 -10.9158 0.0000 10.1300
#
#
#
# Elastic Compliance Matrix: (Units=1/GPa)
#
#
# Indices 1 2 3 4 5 6 
#
# 1 0.010310 -0.001189 -0.003381 0.000000 0.005031 0.000000
# 2 -0.001189 0.008586 -0.001350 0.000000 0.005540 0.000000
# 3 -0.003381 -0.001350 0.010235 0.000000 -0.003603 0.000000
# 4 0.000000 0.000000 0.000000 0.100187 0.000000 0.107958
# 5 0.005031 0.005540 -0.003603 0.000000 0.038892 0.000000
# 6 0.000000 0.000000 0.000000 0.107958 0.000000 0.215049
#
#
# Mechanical properties :
#
#
# Convention : Reuss Voigt Hill
#
# Bulk Modulus (GPa) = 57.83438 62.66651 60.25045
# Shear Modulus (GPa) = 12.47315 31.34229 21.90772
#
# Velocity S-wave (km/s) = 2.44737 3.87951 3.24348
# Velocity P-wave (km/s) = 5.97983 7.08238 6.55433
#
# Compressibility (1/GPa) = 0.01729075
#
# Stress axis : x y z
#
# Youngs Moduli (GPa) = 96.99212 116.47377 97.70507
#
# Poissons Ratio (x) = 0.13851 0.33033
# Poissons Ratio (y) = 0.11534 0.13189
# Poissons Ratio (z) = 0.32792 0.15722
#
# Static dielectric constant tensor:
#      x y z
#    x 1.730080 0.000000 0.007740 
#    y 0.000000 1.722670 0.000000 
#    z 0.007740 0.000000 1.763040 
# 
# From -- ./inp_files/231576.got.cif
#   From: 2010.05.17/outbox.cif.g08.bks.cpg/sg15_116_cif.got.tgz:231576.got - 2010.06.03 18:47:42.
