data_PCOD9296819
_publ_section_title
;
Structure prediction by ZEFSAII (Michael W. Deem and Ramdas Pophale) SiO2 
 PCOD9296819
Probable space group: C 2/C
;
_chemical_formula_sum "Si O2"
_cell_formula_units_Z 32
_cell_length_a 13.186108
_cell_length_b 4.974368
_cell_length_c 18.651675
_cell_angle_alpha 90.000000
_cell_angle_beta 94.444705
_cell_angle_gamma 90.000000
_cell_volume 1219.731694
_symmetry_space_group_name_H-M "C 2/C"
_symmetry_group_IT_number 15
_symmetry_cell_setting 'monoclinic'
loop_
_space_group_symop_operation_xyz
x,y,z
-x,y,1/2-z
-x,-y,-z
x,-y,1/2+z
1/2+x,1/2+y,z
1/2-x,1/2+y,1/2-z
1/2-x,1/2-y,-z
1/2+x,1/2-y,1/2+z
loop_
_atom_site_type_symbol
_atom_site_label
_atom_site_fract_x
_atom_site_fract_y
_atom_site_fract_z
Si Si1 0.009371 0.591908 0.672631
Si Si2 0.277414 0.943345 0.799664
Si Si3 0.810757 0.649231 0.091364
Si Si4 0.400242 0.608482 0.455648
O O1 0.102736 0.382437 0.683742
O O2 0.052225 0.781004 0.613991
O O3 0.000000 0.722090 0.750000
O O4 0.904065 0.470764 0.640457
O O5 0.270056 0.185920 0.741020
O O6 0.224850 0.081005 0.867008
O O7 0.707126 0.475784 0.075207
O O8 0.856042 0.692920 0.014386
O O9 0.500000 0.500000 0.500000
#
# Coordination Sequence:
#
# PCOD9296819 Si02
#       4
#     8   8   8   8
#     4  11  23  44  69 108 143 192 244 306 369 439
#     4  11  25  46  72 108 148 194 245 304 373 440
#     4  10  23  46  68 102 146 189 244 306 362 444
#     4  10  24  43  68 102 143 196 246 298 372 442
#
# _framework density 26.235275999999999
#
# number of rings (size 3 to 8) (size 9 to 14) (size 15 to 20)
#    0.000    1.500    2.500    0.750    3.500    5.000 
#    0.000    0.000    0.000    0.000    0.000    0.000 
#    0.000    0.000    0.000    0.000    0.000    0.000 
#
# Total GULP energy -89432.284822 kJ/mol
# GULP energy per Si atom -5589.517801 kJ/mol
# Density = 2.617556 g / cm^3
# Si number density = 26.235276 Si / 1000 Ang^3
#
#
#
# Elastic Constant Matrix: (Units=GPa)
#
#
# Indices 1 2 3 4 5 6 
#
# 1 292.7794 67.5607 90.2310 0.0000 31.8413 0.0000
# 2 67.5607 66.7982 31.4330 0.0000 -0.1702 0.0000
# 3 90.2310 31.4330 218.5515 0.0000 -20.9549 0.0000
# 4 0.0000 0.0000 0.0000 27.3088 0.0000 4.1578
# 5 31.8413 -0.1702 -20.9549 0.0000 69.6952 0.0000
# 6 0.0000 0.0000 0.0000 4.1578 0.0000 33.0829
#
#
#
# Elastic Compliance Matrix: (Units=1/GPa)
#
#
# Indices 1 2 3 4 5 6 
#
# 1 0.005367 -0.004566 -0.001849 0.000000 -0.003019 0.000000
# 2 -0.004566 0.019973 -0.000806 0.000000 0.001893 0.000000
# 3 -0.001849 -0.000806 0.005700 0.000000 0.002556 0.000000
# 4 0.000000 0.000000 0.000000 0.037333 0.000000 -0.004692
# 5 -0.003019 0.001893 0.002556 0.000000 0.016501 0.000000
# 6 0.000000 0.000000 0.000000 -0.004692 0.000000 0.030817
#
#
# Mechanical properties :
#
#
# Convention : Reuss Voigt Hill
#
# Bulk Modulus (GPa) = 60.24690 106.28648 83.26669
# Shear Modulus (GPa) = 36.85553 51.94435 44.39994
#
# Velocity S-wave (km/s) = 3.75214 4.45448 4.11831
# Velocity P-wave (km/s) = 6.46416 8.18885 7.37708
#
# Compressibility (1/GPa) = 0.01659836
#
# Stress axis : x y z
#
# Youngs Moduli (GPa) = 186.31148 50.06754 175.44365
#
# Poissons Ratio (x) = 0.22863 0.32434
# Poissons Ratio (y) = 0.85077 0.14138
# Poissons Ratio (z) = 0.34443 0.04035
#
# Static dielectric constant tensor:
#      x y z
#    x 2.128720 0.000000 0.044370 
#    y 0.000000 2.149720 0.000000 
#    z 0.044370 0.000000 2.153270 
# 
# From -- ./inp_files/235206.got.cif
#   From: 2010.05.17/outbox.cif.g08.bks.cpg/sg15_118_cif.got.tgz:235206.got - 2010.06.03 18:47:42.
