data_PCOD9296811
_publ_section_title
;
Structure prediction by ZEFSAII (Michael W. Deem and Ramdas Pophale) SiO2 
 PCOD9296811
Probable space group: C 2/C
;
_chemical_formula_sum "Si O2"
_cell_formula_units_Z 48
_cell_length_a 13.986060
_cell_length_b 8.163270
_cell_length_c 27.647735
_cell_angle_alpha 90.000000
_cell_angle_beta 41.605816
_cell_angle_gamma 90.000000
_cell_volume 2095.986930
_symmetry_space_group_name_H-M "C 2/C"
_symmetry_group_IT_number 15
_symmetry_cell_setting 'monoclinic'
loop_
_space_group_symop_operation_xyz
x,y,z
-x,y,1/2-z
-x,-y,-z
x,-y,1/2+z
1/2+x,1/2+y,z
1/2-x,1/2+y,1/2-z
1/2-x,1/2-y,-z
1/2+x,1/2-y,1/2+z
loop_
_atom_site_type_symbol
_atom_site_label
_atom_site_fract_x
_atom_site_fract_y
_atom_site_fract_z
Si Si1 0.483445 0.752976 0.407180
Si Si2 0.541040 0.108622 0.681584
Si Si3 0.413646 0.948615 0.579126
Si Si4 0.137916 0.885216 0.450188
Si Si5 0.781780 0.645863 0.260479
Si Si6 0.855738 0.980139 0.275644
O O1 0.443582 0.753034 0.365719
O O2 0.378768 0.687285 0.488444
O O3 0.637556 0.656775 0.348550
O O4 0.506009 0.949153 0.408921
O O5 0.500000 0.172370 0.750000
O O6 0.704191 0.037823 0.618796
O O7 0.406558 0.986399 0.722930
O O8 0.386593 0.756717 0.580950
O O9 0.260497 0.036465 0.637863
O O10 0.500000 0.000000 0.500000
O O11 0.000000 0.000000 0.500000
O O12 0.718341 0.616785 0.230759
O O13 0.854496 0.821794 0.241507
O O14 0.000000 0.995422 0.250000
#
# Coordination Sequence:
#
# PCOD9296811 Si02
#       6
#     8   8   8   8   8   8
#     4  10  23  46  67  99 142 186 245 301 358 452
#     4  12  25  41  73 100 141 191 244 303 366 436
#     4   9  21  43  71  93 137 185 235 292 366 445
#     4  11  25  44  72 105 142 190 240 304 381 448
#     4  11  23  45  68 104 144 184 248 304 365 444
#     4  11  25  43  72 107 144 190 243 311 373 436
#
# _framework density 22.900905000000002
#
# number of rings (size 3 to 8) (size 9 to 14) (size 15 to 20)
#    0.000    1.333    3.333    2.000    4.667    4.000 
#    0.000    0.833    0.000    0.000    0.000    0.000 
#    0.000    0.000    0.000    0.000    0.000    0.000 
#
# Total GULP energy -133655.791794 kJ/mol
# GULP energy per Si atom -5568.991325 kJ/mol
# Density = 2.284878 g / cm^3
# Si number density = 22.900905 Si / 1000 Ang^3
#
#
#
# Elastic Constant Matrix: (Units=GPa)
#
#
# Indices 1 2 3 4 5 6 
#
# 1 147.8620 55.6911 66.2832 -0.0001 -4.6165 0.0003
# 2 55.6911 72.8177 29.3381 -0.0001 1.4601 0.0004
# 3 66.2832 29.3381 171.1776 0.0000 -3.3146 0.0000
# 4 -0.0001 -0.0001 0.0000 33.7446 0.0000 0.1829
# 5 -4.6165 1.4601 -3.3146 0.0000 46.4937 0.0000
# 6 0.0003 0.0004 0.0000 0.1829 0.0000 24.5941
#
#
#
# Elastic Compliance Matrix: (Units=1/GPa)
#
#
# Indices 1 2 3 4 5 6 
#
# 1 0.010783 -0.007084 -0.002940 0.000000 0.001084 0.000000
# 2 -0.007084 0.019425 -0.000612 0.000000 -0.001357 0.000000
# 3 -0.002940 -0.000612 0.007090 0.000000 0.000233 0.000000
# 4 0.000000 0.000000 0.000000 0.029636 0.000000 -0.000220
# 5 0.001084 -0.001357 0.000233 0.000000 0.021675 0.000000
# 6 0.000000 0.000000 0.000000 -0.000220 0.000000 0.040662
#
#
# Mechanical properties :
#
#
# Convention : Reuss Voigt Hill
#
# Bulk Modulus (GPa) = 62.40540 77.16468 69.78504
# Shear Modulus (GPa) = 32.07490 37.00281 34.53885
#
# Velocity S-wave (km/s) = 3.74651 4.02404 3.88775
# Velocity P-wave (km/s) = 6.78413 7.44034 7.11980
#
# Compressibility (1/GPa) = 0.01602425
#
# Stress axis : x y z
#
# Youngs Moduli (GPa) = 92.73760 51.48075 141.04573
#
# Poissons Ratio (x) = 0.36469 0.41472
# Poissons Ratio (y) = 0.65696 0.08638
# Poissons Ratio (z) = 0.27268 0.03153
#
# Static dielectric constant tensor:
#      x y z
#    x 1.925960 0.000000 0.021190 
#    y 0.000000 1.963830 0.000000 
#    z 0.021190 0.000000 1.889910 
# 
# From -- ./inp_files/312801.got.cif
#   From: 2010.05.17/outbox.cif.g08.bks.cpg/sg15_157_cif.got.tgz:312801.got - 2010.06.03 18:47:42.
