data_PCOD9296182
_publ_section_title
;
Structure prediction by ZEFSAII (Michael W. Deem and Ramdas Pophale) SiO2 
 PCOD9296182
Probable space group: C 2/C
;
_chemical_formula_sum "Si O2"
_cell_formula_units_Z 56
_cell_length_a 15.160169
_cell_length_b 11.572428
_cell_length_c 16.657566
_cell_angle_alpha 90.000000
_cell_angle_beta 127.597835
_cell_angle_gamma 90.000000
_cell_volume 2315.456834
_symmetry_space_group_name_H-M "C 2/C"
_symmetry_group_IT_number 15
_symmetry_cell_setting 'monoclinic'
loop_
_space_group_symop_operation_xyz
x,y,z
-x,y,1/2-z
-x,-y,-z
x,-y,1/2+z
1/2+x,1/2+y,z
1/2-x,1/2+y,1/2-z
1/2-x,1/2-y,-z
1/2+x,1/2-y,1/2+z
loop_
_atom_site_type_symbol
_atom_site_label
_atom_site_fract_x
_atom_site_fract_y
_atom_site_fract_z
Si Si1 0.578220 0.739759 0.061150
Si Si2 0.638493 0.905589 0.958469
Si Si3 0.339966 0.685486 0.948691
Si Si4 0.761336 0.922049 0.649391
Si Si5 0.799416 0.406296 0.253541
Si Si6 0.635521 0.436360 0.477693
Si Si7 0.000000 0.464278 0.250000
Si Si8 0.000000 0.981254 0.250000
O O1 0.665357 0.804545 0.165751
O O2 0.593673 0.609150 0.040084
O O3 0.579740 0.809471 0.978704
O O4 0.457036 0.744958 0.031678
O O5 0.747781 0.870574 0.969709
O O6 0.553478 0.962309 0.850822
O O7 0.691256 0.996319 0.050487
O O8 0.256968 0.793333 0.893863
O O9 0.318812 0.627430 0.850092
O O10 0.335557 0.573126 0.002539
O O11 0.712642 0.970369 0.707553
O O12 0.892911 0.948369 0.722215
O O13 0.893355 0.406169 0.235405
O O14 0.553547 0.416283 0.356795
#
# Coordination Sequence:
#
# PCOD9296182 Si02
#       8
#     8   8   8   8   8   8   4   4
#     4  11  25  45  71  99 145 187 234 297 359 419
#     4  10  23  44  69 100 137 182 236 297 348 430
#     4  12  25  41  69 100 139 184 236 287 346 427
#     4  10  24  47  67 103 141 182 236 287 361 422
#     4  11  26  44  71 102 142 189 235 297 349 425
#     4  11  24  45  68 108 139 184 237 290 357 430
#     4  12  22  44  68 102 140 184 242 282 362 406
#     4  10  24  44  76  98 148 180 228 300 354 416
#
# _framework density 24.185293000000001
#
# number of rings (size 3 to 8) (size 9 to 14) (size 15 to 20)
#    0.000    1.143    1.429    3.429    4.000    6.857 
#    2.571    0.000    0.000    0.000    0.000    1.000 
#    0.000    0.000    0.000    0.000    0.000    0.000 
#
# Total GULP energy -156279.262214 kJ/mol
# GULP energy per Si atom -5581.402222 kJ/mol
# Density = 2.413025 g / cm^3
# Si number density = 24.185293 Si / 1000 Ang^3
#
#
#
# Elastic Constant Matrix: (Units=GPa)
#
#
# Indices 1 2 3 4 5 6 
#
# 1 60.6132 29.9955 -12.2479 0.0000 -4.6260 0.0000
# 2 29.9955 99.2931 17.5227 0.0000 9.2209 0.0000
# 3 -12.2479 17.5227 111.1959 0.0000 7.8258 0.0000
# 4 0.0000 0.0000 0.0000 15.7656 0.0000 5.0624
# 5 -4.6260 9.2209 7.8258 0.0000 29.0944 0.0000
# 6 0.0000 0.0000 0.0000 5.0624 0.0000 1.5352
#
#
#
# Elastic Compliance Matrix: (Units=1/GPa)
#
#
# Indices 1 2 3 4 5 6 
#
# 1 0.021171 -0.007404 0.003156 0.000000 0.004864 0.000000
# 2 -0.007404 0.013194 -0.002566 0.000000 -0.004669 0.000000
# 3 0.003156 -0.002566 0.009839 0.000000 -0.001331 0.000000
# 4 0.000000 0.000000 0.000000 -1.077289 0.000000 3.552465
# 5 0.004864 -0.004669 -0.001331 0.000000 0.036982 0.000000
# 6 0.000000 0.000000 0.000000 3.552465 0.000000-11.063218
#
#
# Mechanical properties :
#
#
# Convention : Reuss Voigt Hill
#
# Bulk Modulus (GPa) = 32.70502 37.96029 35.33266
# Shear Modulus (GPa) = -0.41544 25.00115 12.29286
#
# Velocity S-wave (km/s) = -0.41490 3.21866 2.25695
# Velocity P-wave (km/s) = 3.65000 5.43532 4.62954
#
# Compressibility (1/GPa) = 0.03057634
#
# Stress axis : x y z
#
# Youngs Moduli (GPa) = 47.23386 75.78967 101.63738
#
# Poissons Ratio (x) = 0.56117 -0.32081
# Poissons Ratio (y) = 0.34974 0.26082
# Poissons Ratio (z) = -0.14909 0.19449
#
# Static dielectric constant tensor:
#      x y z
#    x 2.043010 0.000000 -0.037530 
#    y 0.000000 1.986030 0.000000 
#    z -0.037530 0.000000 1.872700 
# 
# From -- ./inp_files/210725.got.cif
#   From: 2010.05.17/outbox.cif.g08.bks.cpg/sg15_106_cif.got.tgz:210725.got - 2010.06.03 18:47:42.
