data_PCOD9296175
_publ_section_title
;
Structure prediction by ZEFSAII (Michael W. Deem and Ramdas Pophale) SiO2 
 PCOD9296175
Probable space group: C 2/C
;
_chemical_formula_sum "Si O2"
_cell_formula_units_Z 64
_cell_length_a 15.817232
_cell_length_b 31.570718
_cell_length_c 8.081010
_cell_angle_alpha 90.000000
_cell_angle_beta 42.303425
_cell_angle_gamma 90.000000
_cell_volume 2716.015576
_symmetry_space_group_name_H-M "C 2/C"
_symmetry_group_IT_number 15
_symmetry_cell_setting 'monoclinic'
loop_
_space_group_symop_operation_xyz
x,y,z
-x,y,1/2-z
-x,-y,-z
x,-y,1/2+z
1/2+x,1/2+y,z
1/2-x,1/2+y,1/2-z
1/2-x,1/2-y,-z
1/2+x,1/2-y,1/2+z
loop_
_atom_site_type_symbol
_atom_site_label
_atom_site_fract_x
_atom_site_fract_y
_atom_site_fract_z
Si Si1 0.578816 0.832671 0.465608
Si Si2 0.265155 0.631159 0.904519
Si Si3 0.399104 0.745670 0.248844
Si Si4 0.067317 0.575994 0.829021
Si Si5 0.479206 0.591072 0.087035
Si Si6 0.621061 0.665641 0.457690
Si Si7 0.351088 0.952226 0.834892
Si Si8 0.228807 0.034657 0.156501
O O1 0.723754 0.838176 0.316999
O O2 0.559748 0.790378 0.389878
O O3 0.552499 0.875211 0.400302
O O4 0.500000 0.830435 0.750000
O O5 0.392578 0.605139 0.687379
O O6 0.268787 0.657763 0.069325
O O7 0.165538 0.593437 0.059028
O O8 0.500000 0.736366 0.250000
O O9 0.250000 0.750000 0.500000
O O10 0.396483 0.707863 0.120071
O O11 0.208436 0.561965 0.584214
O O12 0.000000 0.568894 0.750000
O O13 0.996099 0.546355 0.065762
O O14 0.500000 0.595059 0.250000
O O15 0.380692 0.625876 0.162639
O O16 0.418402 0.545589 0.136272
O O17 0.500000 0.663883 0.750000
O O18 0.275668 0.951913 0.769865
O O19 0.284900 0.988515 0.036987
#
# Coordination Sequence:
#
# PCOD9296175 Si02
#       8
#     8   8   8   8   8   8   8   8
#     4  12  26  45  77 108 146 192 246 306 383 453
#     4  11  25  45  72 103 143 191 245 307 368 458
#     4  12  31  49  77 117 153 193 252 318 378 464
#     4  10  23  44  68  98 140 191 238 305 369 445
#     4  11  24  43  71 100 136 194 242 298 376 448
#     4  10  24  48  75  97 146 193 243 299 376 450
#     4  11  24  44  64 104 138 188 242 302 374 425
#     4  11  25  41  68  95 142 188 244 309 359 449
#
# _framework density 23.563927
#
# number of rings (size 3 to 8) (size 9 to 14) (size 15 to 20)
#    0.000    1.000    2.500    2.250   12.250    1.000 
#    0.000    0.000    0.000    0.000    0.000    0.000 
#    0.000    0.000    0.000    0.000    0.000    0.000 
#
# Total GULP energy -178864.452218 kJ/mol
# GULP energy per Si atom -5589.514132 kJ/mol
# Density = 2.351029 g / cm^3
# Si number density = 23.563927 Si / 1000 Ang^3
#
#
#
# Elastic Constant Matrix: (Units=GPa)
#
#
# Indices 1 2 3 4 5 6 
#
# 1 99.3042 29.1974 32.7246 0.0000 2.2772 0.0000
# 2 29.1974 128.0271 23.1410 0.0000 8.1196 0.0000
# 3 32.7246 23.1410 63.3737 0.0000 -5.8749 0.0000
# 4 0.0000 0.0000 0.0000 34.4026 0.0000 7.9169
# 5 2.2772 8.1196 -5.8749 0.0000 29.1634 0.0000
# 6 0.0000 0.0000 0.0000 7.9169 0.0000 35.9650
#
#
#
# Elastic Compliance Matrix: (Units=1/GPa)
#
#
# Indices 1 2 3 4 5 6 
#
# 1 0.012596 -0.001668 -0.006057 0.000000 -0.001739 0.000000
# 2 -0.001668 0.008849 -0.002636 0.000000 -0.002865 0.000000
# 3 -0.006057 -0.002636 0.020362 0.000000 0.005309 0.000000
# 4 0.000000 0.000000 0.000000 0.030619 0.000000 -0.006740
# 5 -0.001739 -0.002865 0.005309 0.000000 0.036292 0.000000
# 6 0.000000 0.000000 0.000000 -0.006740 0.000000 0.029288
#
#
# Mechanical properties :
#
#
# Convention : Reuss Voigt Hill
#
# Bulk Modulus (GPa) = 47.42288 51.20346 49.31317
# Shear Modulus (GPa) = 30.16496 33.61568 31.89032
#
# Velocity S-wave (km/s) = 3.58178 3.78110 3.68279
# Velocity P-wave (km/s) = 6.10528 6.39054 6.24954
#
# Compressibility (1/GPa) = 0.02108687
#
# Stress axis : x y z
#
# Youngs Moduli (GPa) = 79.38919 113.00416 49.11229
#
# Poissons Ratio (x) = 0.18844 0.29746
# Poissons Ratio (y) = 0.13239 0.12945
# Poissons Ratio (z) = 0.48084 0.29785
#
# Static dielectric constant tensor:
#      x y z
#    x 1.997640 0.000000 -0.073250 
#    y 0.000000 1.879570 0.000000 
#    z -0.073250 0.000000 1.953930 
# 
# From -- ./inp_files/52805.got.cif
#   From: 2010.05.17/outbox.cif.g08.bks.cpg/sg15_27_cif.got.tgz:52805.got - 2010.06.03 18:47:42.
