data_PCOD9296197
_publ_section_title
;
Structure prediction by ZEFSAII (Michael W. Deem and Ramdas Pophale) SiO2 
 PCOD9296197
Probable space group: C 2/C
;
_chemical_formula_sum "Si O2"
_cell_formula_units_Z 44
_cell_length_a 25.306619
_cell_length_b 4.750940
_cell_length_c 16.275288
_cell_angle_alpha 90.000000
_cell_angle_beta 119.839723
_cell_angle_gamma 90.000000
_cell_volume 1697.352849
_symmetry_space_group_name_H-M "C 2/C"
_symmetry_group_IT_number 15
_symmetry_cell_setting 'monoclinic'
loop_
_space_group_symop_operation_xyz
x,y,z
-x,y,1/2-z
-x,-y,-z
x,-y,1/2+z
1/2+x,1/2+y,z
1/2-x,1/2+y,1/2-z
1/2-x,1/2-y,-z
1/2+x,1/2-y,1/2+z
loop_
_atom_site_type_symbol
_atom_site_label
_atom_site_fract_x
_atom_site_fract_y
_atom_site_fract_z
Si Si1 0.205455 0.409544 0.403711
Si Si2 0.000000 0.802206 0.750000
Si Si3 0.623359 0.378810 0.310692
Si Si4 0.774795 0.777665 0.813080
Si Si5 0.898624 0.068975 0.883110
Si Si6 0.515768 0.201506 0.937441
O O1 0.250000 0.250000 0.500000
O O2 0.155612 0.644930 0.392030
O O3 0.246819 0.594069 0.373985
O O4 0.164858 0.157408 0.336019
O O5 0.990822 0.614285 0.661594
O O6 0.059032 0.002589 0.790797
O O7 0.619406 0.260103 0.213369
O O8 0.739240 0.953195 0.714152
O O9 0.845373 0.849743 0.859734
O O10 0.962461 0.933213 0.903854
O O11 0.916589 0.205339 0.983996
O O12 0.500000 0.000000 0.000000
#
# Coordination Sequence:
#
# PCOD9296197 Si02
#       6
#     8   4   8   8   8   8
#     4  12  26  47  70 110 154 197 250 317 378 460
#     4  10  26  48  74 116 150 214 256 326 404 452
#     4  11  25  48  73 105 154 198 257 318 380 461
#     4  12  24  43  72 103 139 198 242 301 381 446
#     4  10  23  44  69 103 141 188 261 309 379 450
#     4  10  24  47  74 106 151 197 257 324 377 465
#
# _framework density 25.922719000000001
#
# number of rings (size 3 to 8) (size 9 to 14) (size 15 to 20)
#    0.000    1.091    3.636    0.545   10.182    0.727 
#    6.545    0.000    0.000    0.000    0.000    0.000 
#    0.000    0.000    0.000    0.000    0.000    0.000 
#
# Total GULP energy -123052.886124 kJ/mol
# GULP energy per Si atom -5593.313006 kJ/mol
# Density = 2.586372 g / cm^3
# Si number density = 25.922719 Si / 1000 Ang^3
#
#
#
# Elastic Constant Matrix: (Units=GPa)
#
#
# Indices 1 2 3 4 5 6 
#
# 1 93.5708 11.0202 40.2962 0.0000 14.4615 0.0001
# 2 11.0202 88.1936 30.5978 -0.0007 0.9520 0.0002
# 3 40.2962 30.5978 151.2825 0.0001 -2.8367 0.0000
# 4 0.0000 -0.0007 0.0001 32.7073 0.0000 -7.2042
# 5 14.4615 0.9520 -2.8367 0.0000 47.5828 0.0000
# 6 0.0001 0.0002 0.0000 -7.2042 0.0000 29.8117
#
#
#
# Elastic Compliance Matrix: (Units=1/GPa)
#
#
# Indices 1 2 3 4 5 6 
#
# 1 0.012838 -0.000373 -0.003421 0.000000 -0.004098 0.000000
# 2 -0.000373 0.012213 -0.002376 0.000000 -0.000273 0.000000
# 3 -0.003421 -0.002376 0.008031 0.000000 0.001566 0.000000
# 4 0.000000 0.000000 0.000000 0.032293 0.000000 0.007804
# 5 -0.004098 -0.000273 0.001566 0.000000 0.022360 0.000000
# 6 0.000000 0.000000 0.000000 0.007804 0.000000 0.035430
#
#
# Mechanical properties :
#
#
# Convention : Reuss Voigt Hill
#
# Bulk Modulus (GPa) = 48.21158 55.20837 51.70998
# Shear Modulus (GPa) = 35.10796 38.76253 36.93525
#
# Velocity S-wave (km/s) = 3.68412 3.87112 3.77878
# Velocity P-wave (km/s) = 6.06098 6.42840 6.24739
#
# Compressibility (1/GPa) = 0.02074190
#
# Stress axis : x y z
#
# Youngs Moduli (GPa) = 77.89620 81.88329 124.51396
#
# Poissons Ratio (x) = 0.03055 0.42595
# Poissons Ratio (y) = 0.02906 0.29582
# Poissons Ratio (z) = 0.26647 0.19454
#
# Static dielectric constant tensor:
#      x y z
#    x 2.074440 0.000000 -0.055960 
#    y 0.000000 2.053350 0.000000 
#    z -0.055960 0.000000 2.206500 
# 
# From -- ./inp_files/221407.got.cif
#   From: 2010.05.17/outbox.cif.g08.bks.cpg/sg15_111_cif.got.tgz:221407.got - 2010.06.03 18:47:42.
