data_PCOD9296418
_publ_section_title
;
Structure prediction by ZEFSAII (Michael W. Deem and Ramdas Pophale) SiO2 
 PCOD9296418
Probable space group: C 2/C
;
_chemical_formula_sum "Si O2"
_cell_formula_units_Z 40
_cell_length_a 15.740862
_cell_length_b 15.057038
_cell_length_c 11.448735
_cell_angle_alpha 90.000000
_cell_angle_beta 34.899807
_cell_angle_gamma 90.000000
_cell_volume 1552.495085
_symmetry_space_group_name_H-M "C 2/C"
_symmetry_group_IT_number 15
_symmetry_cell_setting 'monoclinic'
loop_
_space_group_symop_operation_xyz
x,y,z
-x,y,1/2-z
-x,-y,-z
x,-y,1/2+z
1/2+x,1/2+y,z
1/2-x,1/2+y,1/2-z
1/2-x,1/2-y,-z
1/2+x,1/2-y,1/2+z
loop_
_atom_site_type_symbol
_atom_site_label
_atom_site_fract_x
_atom_site_fract_y
_atom_site_fract_z
Si Si1 0.673845 0.438295 0.762538
Si Si2 0.209689 0.663469 0.975069
Si Si3 0.275966 0.507372 0.549703
Si Si4 0.000240 0.775374 0.043271
Si Si5 0.010904 0.619988 0.605681
O O1 0.634305 0.486231 0.931730
O O2 0.643496 0.457322 0.659081
O O3 0.622429 0.338649 0.848708
O O4 0.854033 0.448327 0.560310
O O5 0.075564 0.703897 0.049006
O O6 0.367255 0.657108 0.728703
O O7 0.250000 0.750000 0.000000
O O8 0.199977 0.582195 0.077902
O O9 0.147615 0.574798 0.735983
O O10 0.942456 0.705845 0.016538
O O11 0.000000 0.648860 0.750000
#
# Coordination Sequence:
#
# PCOD9296418 Si02
#       5
#     8   8   8   8   8
#     4  11  24  44  73 107 147 193 250 304 372 440
#     4  12  25  43  75 102 148 191 247 305 366 440
#     4  11  24  44  69 110 144 193 245 311 365 441
#     4  12  24  47  71 110 149 194 248 304 374 445
#     4  10  23  44  74 106 147 194 251 302 371 448
#
# _framework density 25.764977999999999
#
# number of rings (size 3 to 8) (size 9 to 14) (size 15 to 20)
#    0.000    0.800    4.000    2.400    0.000   12.000 
#    3.600    2.000    0.000    0.000    0.000    0.000 
#    0.000    0.000    0.000    0.000    0.000    0.000 
#
# Total GULP energy -111457.038464 kJ/mol
# GULP energy per Si atom -5572.851923 kJ/mol
# Density = 2.570634 g / cm^3
# Si number density = 25.764978 Si / 1000 Ang^3
#
#
#
# Elastic Constant Matrix: (Units=GPa)
#
#
# Indices 1 2 3 4 5 6 
#
# 1 97.8953 4.1009 45.1902 0.0000 27.9665 0.0000
# 2 4.1009 57.5873 7.5393 0.0000 17.3549 0.0000
# 3 45.1902 7.5393 138.0411 0.0000 9.0107 0.0000
# 4 0.0000 0.0000 0.0000 38.5512 0.0000 29.6365
# 5 27.9665 17.3549 9.0107 0.0000 47.0198 0.0000
# 6 0.0000 0.0000 0.0000 29.6365 0.0000 13.5843
#
#
#
# Elastic Compliance Matrix: (Units=1/GPa)
#
#
# Indices 1 2 3 4 5 6 
#
# 1 0.014591 0.002130 -0.004329 0.000000 -0.008635 0.000000
# 2 0.002130 0.019899 -0.001237 0.000000 -0.008374 0.000000
# 3 -0.004329 -0.001237 0.008639 0.000000 0.001376 0.000000
# 4 0.000000 0.000000 0.000000 -0.038305 0.000000 0.083570
# 5 -0.008635 -0.008374 0.001376 0.000000 0.029231 0.000000
# 6 0.000000 0.000000 0.000000 0.083570 0.000000 -0.108707
#
#
# Mechanical properties :
#
#
# Convention : Reuss Voigt Hill
#
# Bulk Modulus (GPa) = 27.58171 45.24272 36.41222
# Shear Modulus (GPa) = -89.77687 35.61060 -27.08313
#
# Velocity S-wave (km/s) = -5.90933 3.72174 -3.24568
# Velocity P-wave (km/s) = 5.98597 6.00552 0.34238
#
# Compressibility (1/GPa) = 0.03625591
#
# Stress axis : x y z
#
# Youngs Moduli (GPa) = 68.53493 50.25360 115.75068
#
# Poissons Ratio (x) = -0.10704 0.50112
# Poissons Ratio (y) = -0.14598 0.14324
# Poissons Ratio (z) = 0.29671 0.06219
#
# Static dielectric constant tensor:
#      x y z
#    x 1.872330 0.000000 0.146220 
#    y 0.000000 2.099390 0.000000 
#    z 0.146220 0.000000 1.524070 
# 
# From -- ./inp_files/105137.got.cif
#   From: 2010.05.17/outbox.cif.g08.bks.cpg/sg15_53_cif.got.tgz:105137.got - 2010.06.03 18:47:42.
