data_PCOD9296488
_publ_section_title
;
Structure prediction by ZEFSAII (Michael W. Deem and Ramdas Pophale) SiO2 
 PCOD9296488
Probable space group: C 2/C
;
_chemical_formula_sum "Si O2"
_cell_formula_units_Z 40
_cell_length_a 7.288691
_cell_length_b 20.788400
_cell_length_c 16.212751
_cell_angle_alpha 90.000000
_cell_angle_beta 46.164195
_cell_angle_gamma 90.000000
_cell_volume 1771.984179
_symmetry_space_group_name_H-M "C 2/C"
_symmetry_group_IT_number 15
_symmetry_cell_setting 'monoclinic'
loop_
_space_group_symop_operation_xyz
x,y,z
-x,y,1/2-z
-x,-y,-z
x,-y,1/2+z
1/2+x,1/2+y,z
1/2-x,1/2+y,1/2-z
1/2-x,1/2-y,-z
1/2+x,1/2-y,1/2+z
loop_
_atom_site_type_symbol
_atom_site_label
_atom_site_fract_x
_atom_site_fract_y
_atom_site_fract_z
Si Si1 0.393491 0.811591 0.101437
Si Si2 0.847915 0.574987 0.210084
Si Si3 0.272622 0.931707 0.254528
Si Si4 0.009373 0.823142 0.604141
Si Si5 0.674074 0.364923 0.019370
O O1 0.318558 0.874439 0.176078
O O2 0.380163 0.746339 0.158379
O O3 0.216686 0.811189 0.075918
O O4 0.688500 0.817132 0.982840
O O5 0.773269 0.502022 0.214095
O O6 0.613901 0.622194 0.301195
O O7 0.000000 0.572597 0.250000
O O8 0.052041 0.604057 0.084092
O O9 0.500000 0.928718 0.250000
O O10 0.014627 0.917778 0.384098
O O11 0.944245 0.839883 0.528975
#
# Coordination Sequence:
#
# PCOD9296488 Si02
#       5
#     8   8   8   8   8
#     4  11  24  41  68  99 127 170 214 263 321 381
#     4   9  23  41  67  93 128 175 211 264 321 382
#     4  11  23  42  67  93 131 172 214 265 319 384
#     4  10  23  45  65  96 133 165 215 264 317 382
#     4  11  23  42  66  94 127 172 212 266 323 378
#
# _framework density 22.573566
#
# number of rings (size 3 to 8) (size 9 to 14) (size 15 to 20)
#    0.000    1.600    2.000    1.200    2.800   10.400 
#    3.600    0.000    0.000    0.000    0.000    0.000 
#    0.000    0.000    0.000    0.000    0.000    0.000 
#
# Total GULP energy -111928.692904 kJ/mol
# GULP energy per Si atom -5596.434645 kJ/mol
# Density = 2.252219 g / cm^3
# Si number density = 22.573566 Si / 1000 Ang^3
#
#
#
# Elastic Constant Matrix: (Units=GPa)
#
#
# Indices 1 2 3 4 5 6 
#
# 1 92.5821 2.9549 3.4427 0.0000 7.3277 0.0000
# 2 2.9549 133.1699 23.6164 0.0000 5.2388 0.0000
# 3 3.4427 23.6164 66.0403 0.0000 -12.2054 0.0000
# 4 0.0000 0.0000 0.0000 27.4847 0.0000 -0.0680
# 5 7.3277 5.2388 -12.2054 0.0000 23.4342 0.0000
# 6 0.0000 0.0000 0.0000 -0.0680 0.0000 15.7379
#
#
#
# Elastic Compliance Matrix: (Units=1/GPa)
#
#
# Indices 1 2 3 4 5 6 
#
# 1 0.011188 0.000175 -0.001438 0.000000 -0.004287 0.000000
# 2 0.000175 0.008310 -0.003690 0.000000 -0.003834 0.000000
# 3 -0.001438 -0.003690 0.018559 0.000000 0.010941 0.000000
# 4 0.000000 0.000000 0.000000 0.036384 0.000000 0.000157
# 5 -0.004287 -0.003834 0.010941 0.000000 0.050569 0.000000
# 6 0.000000 0.000000 0.000000 0.000157 0.000000 0.063542
#
#
# Mechanical properties :
#
#
# Convention : Reuss Voigt Hill
#
# Bulk Modulus (GPa) = 35.52075 39.09116 37.30596
# Shear Modulus (GPa) = 24.05679 30.78323 27.42001
#
# Velocity S-wave (km/s) = 3.26806 3.69682 3.48903
# Velocity P-wave (km/s) = 5.47814 5.96463 5.72655
#
# Compressibility (1/GPa) = 0.02815256
#
# Stress axis : x y z
#
# Youngs Moduli (GPa) = 89.37823 120.32995 53.88296
#
# Poissons Ratio (x) = -0.02111 0.07750
# Poissons Ratio (y) = -0.01568 0.19881
# Poissons Ratio (z) = 0.12855 0.44398
#
# Static dielectric constant tensor:
#      x y z
#    x 1.838090 0.000000 0.010520 
#    y 0.000000 1.827990 0.000000 
#    z 0.010520 0.000000 1.793580 
# 
# From -- ./inp_files/76937.got.cif
#   From: 2010.05.17/outbox.cif.g08.bks.cpg/sg15_39_cif.got.tgz:76937.got - 2010.06.03 18:47:42.
