data_PCOD9296201
_publ_section_title
;
Structure prediction by ZEFSAII (Michael W. Deem and Ramdas Pophale) SiO2 
 PCOD9296201
Probable space group: C 2/C
;
_chemical_formula_sum "Si O2"
_cell_formula_units_Z 36
_cell_length_a 21.810855
_cell_length_b 10.807116
_cell_length_c 10.168283
_cell_angle_alpha 90.000000
_cell_angle_beta 38.696581
_cell_angle_gamma 90.000000
_cell_volume 1498.464222
_symmetry_space_group_name_H-M "C 2/C"
_symmetry_group_IT_number 15
_symmetry_cell_setting 'monoclinic'
loop_
_space_group_symop_operation_xyz
x,y,z
-x,y,1/2-z
-x,-y,-z
x,-y,1/2+z
1/2+x,1/2+y,z
1/2-x,1/2+y,1/2-z
1/2-x,1/2-y,-z
1/2+x,1/2-y,1/2+z
loop_
_atom_site_type_symbol
_atom_site_label
_atom_site_fract_x
_atom_site_fract_y
_atom_site_fract_z
Si Si1 0.211354 0.754711 0.876620
Si Si2 0.947778 0.078843 0.200316
Si Si3 0.500000 0.805094 0.750000
Si Si4 0.262691 0.039867 0.469168
Si Si5 0.103416 0.333746 0.323240
O O1 0.098108 0.773010 0.116828
O O2 0.246068 0.630383 0.891137
O O3 0.273372 0.868819 0.825219
O O4 0.194522 0.731211 0.751609
O O5 0.949753 0.224721 0.164036
O O6 0.000000 0.055965 0.250000
O O7 0.835707 0.035846 0.388179
O O8 0.000000 0.000000 0.000000
O O9 0.534761 0.875053 0.560995
O O10 0.352540 0.946437 0.329769
#
# Coordination Sequence:
#
# PCOD9296201 Si02
#       5
#     8   8   4   8   8
#     4   9  22  41  69  98 144 190 236 300 378 419
#     4  12  27  45  76 105 148 194 250 302 361 447
#     4   8  20  42  66 102 138 190 230 302 360 442
#     4  11  23  43  68 104 141 193 242 308 361 443
#     4  10  23  44  69 105 142 187 253 291 375 435
#
# _framework density 24.0246
#
# number of rings (size 3 to 8) (size 9 to 14) (size 15 to 20)
#    1.333    0.444    0.000    3.333    9.333    0.889 
#    2.000    0.000    0.000    0.000    0.000    0.000 
#    0.000    0.000    0.000    0.000    0.000    0.000 
#
# Total GULP energy -100603.112946 kJ/mol
# GULP energy per Si atom -5589.061830 kJ/mol
# Density = 2.396992 g / cm^3
# Si number density = 24.024600 Si / 1000 Ang^3
#
#
#
# Elastic Constant Matrix: (Units=GPa)
#
#
# Indices 1 2 3 4 5 6 
#
# 1 112.8225 26.6281 25.8342 0.0000 6.4094 0.0000
# 2 26.6281 95.2563 68.0862 0.0000 -7.7959 0.0000
# 3 25.8342 68.0862 78.6306 0.0000 2.9449 0.0000
# 4 0.0000 0.0000 0.0000 20.5393 0.0000 -16.2750
# 5 6.4094 -7.7959 2.9449 0.0000 29.6819 0.0000
# 6 0.0000 0.0000 0.0000 -16.2750 0.0000 18.9641
#
#
#
# Elastic Compliance Matrix: (Units=1/GPa)
#
#
# Indices 1 2 3 4 5 6 
#
# 1 0.009787 -0.001845 -0.001526 0.000000 -0.002447 0.000000
# 2 -0.001845 0.030947 -0.026609 0.000000 0.011167 0.000000
# 3 -0.001526 -0.026609 0.036645 0.000000 -0.010295 0.000000
# 4 0.000000 0.000000 0.000000 0.152158 0.000000 0.130582
# 5 -0.002447 0.011167 -0.010295 0.000000 0.038173 0.000000
# 6 0.000000 0.000000 0.000000 0.130582 0.000000 0.164796
#
#
# Mechanical properties :
#
#
# Convention : Reuss Voigt Hill
#
# Bulk Modulus (GPa) = 57.40881 58.64516 58.02699
# Shear Modulus (GPa) = 10.03463 24.91446 17.47455
#
# Velocity S-wave (km/s) = 2.04594 3.22380 2.69989
# Velocity P-wave (km/s) = 5.43405 6.19037 5.82450
#
# Compressibility (1/GPa) = 0.01741893
#
# Stress axis : x y z
#
# Youngs Moduli (GPa) = 102.17136 32.31342 27.28870
#
# Poissons Ratio (x) = 0.05963 0.04164
# Poissons Ratio (y) = 0.18855 0.72612
# Poissons Ratio (z) = 0.15592 0.85982
#
# Static dielectric constant tensor:
#      x y z
#    x 1.772900 0.000000 -0.221610 
#    y 0.000000 1.952610 0.000000 
#    z -0.221610 0.000000 1.697200 
# 
# From -- ./inp_files/117086.got.cif
#   From: 2010.05.17/outbox.cif.g08.bks.cpg/sg15_59_cif.got.tgz:117086.got - 2010.06.03 18:47:42.
