data_PCOD9296665
_publ_section_title
;
Structure prediction by ZEFSAII (Michael W. Deem and Ramdas Pophale) SiO2 
 PCOD9296665
Probable space group: C 2/C
;
_chemical_formula_sum "Si O2"
_cell_formula_units_Z 40
_cell_length_a 18.876878
_cell_length_b 7.252314
_cell_length_c 18.534869
_cell_angle_alpha 90.000000
_cell_angle_beta 135.941495
_cell_angle_gamma 90.000000
_cell_volume 1764.518882
_symmetry_space_group_name_H-M "C 2/C"
_symmetry_group_IT_number 15
_symmetry_cell_setting 'monoclinic'
loop_
_space_group_symop_operation_xyz
x,y,z
-x,y,1/2-z
-x,-y,-z
x,-y,1/2+z
1/2+x,1/2+y,z
1/2-x,1/2+y,1/2-z
1/2-x,1/2-y,-z
1/2+x,1/2-y,1/2+z
loop_
_atom_site_type_symbol
_atom_site_label
_atom_site_fract_x
_atom_site_fract_y
_atom_site_fract_z
Si Si1 0.519607 0.360624 0.347251
Si Si2 0.668333 0.370685 0.898166
Si Si3 0.324733 0.738431 0.786531
Si Si4 0.199918 0.420350 0.314728
Si Si5 0.791656 0.277412 0.431910
O O1 0.500000 0.292327 0.250000
O O2 0.574116 0.556699 0.375208
O O3 0.416825 0.373198 0.318144
O O4 0.599949 0.236852 0.450764
O O5 0.638751 0.238362 0.809835
O O6 0.724451 0.557022 0.912959
O O7 0.750000 0.250000 0.000000
O O8 0.295616 0.680100 0.845341
O O9 0.221007 0.706245 0.663727
O O10 0.351100 0.948422 0.783094
O O11 0.237314 0.576609 0.399078
#
# Coordination Sequence:
#
# PCOD9296665 Si02
#       5
#     8   8   8   8   8
#     4  12  24  43  73 104 141 183 245 292 350 432
#     4  12  23  45  71 101 141 190 228 300 367 411
#     4  10  23  45  72 100 140 189 238 286 357 424
#     4  10  23  46  74  96 149 188 229 298 364 418
#     4  10  24  45  68  98 150 178 234 298 354 414
#
# _framework density 22.669070000000001
#
# number of rings (size 3 to 8) (size 9 to 14) (size 15 to 20)
#    1.200    0.000    4.000    1.800    2.800    0.800 
#    3.600    4.000    0.000    0.000    0.000    0.000 
#    0.000    0.000    0.000    0.000    0.000    0.000 
#
# Total GULP energy -111356.203797 kJ/mol
# GULP energy per Si atom -5567.810190 kJ/mol
# Density = 2.261747 g / cm^3
# Si number density = 22.669070 Si / 1000 Ang^3
#
#
#
# Elastic Constant Matrix: (Units=GPa)
#
#
# Indices 1 2 3 4 5 6 
#
# 1 68.7149 56.5178 -1.3320 0.0000 2.6561 0.0000
# 2 56.5178 137.7080 34.5064 0.0000 0.9535 0.0000
# 3 -1.3320 34.5064 78.1316 0.0000 13.2542 0.0000
# 4 0.0000 0.0000 0.0000 27.1007 0.0000 5.3181
# 5 2.6561 0.9535 13.2542 0.0000 23.5552 0.0000
# 6 0.0000 0.0000 0.0000 5.3181 0.0000 39.5748
#
#
#
# Elastic Compliance Matrix: (Units=1/GPa)
#
#
# Indices 1 2 3 4 5 6 
#
# 1 0.024510 -0.011669 0.006589 0.000000 -0.005999 0.000000
# 2 -0.011669 0.013797 -0.007098 0.000000 0.004751 0.000000
# 3 0.006589 -0.007098 0.017825 0.000000 -0.010485 0.000000
# 4 0.000000 0.000000 0.000000 0.037899 0.000000 -0.005093
# 5 -0.005999 0.004751 -0.010485 0.000000 0.048838 0.000000
# 6 0.000000 0.000000 0.000000 -0.005093 0.000000 0.025953
#
#
# Mechanical properties :
#
#
# Convention : Reuss Voigt Hill
#
# Bulk Modulus (GPa) = 31.47075 51.54878 41.50977
# Shear Modulus (GPa) = 24.53758 31.03696 27.78727
#
# Velocity S-wave (km/s) = 3.29359 3.70419 3.50491
# Velocity P-wave (km/s) = 5.32696 6.40966 5.89323
#
# Compressibility (1/GPa) = 0.03177554
#
# Stress axis : x y z
#
# Youngs Moduli (GPa) = 40.79940 72.48153 56.10142
#
# Poissons Ratio (x) = 0.84578 -0.36965
# Poissons Ratio (y) = 0.47609 0.39822
# Poissons Ratio (z) = -0.26883 0.51448
#
# Static dielectric constant tensor:
#      x y z
#    x 1.871260 0.000000 -0.064090 
#    y 0.000000 1.886290 0.000000 
#    z -0.064090 0.000000 1.961940 
# 
# From -- ./inp_files/242091.got.cif
#   From: 2010.05.17/outbox.cif.g08.bks.cpg/sg15_122_cif.got.tgz:242091.got - 2010.06.03 18:47:42.
