data_PCOD9296236
_publ_section_title
;
Structure prediction by ZEFSAII (Michael W. Deem and Ramdas Pophale) SiO2 
 PCOD9296236
Probable space group: C 2/C
;
_chemical_formula_sum "Si O2"
_cell_formula_units_Z 36
_cell_length_a 11.273306
_cell_length_b 20.874695
_cell_length_c 7.943911
_cell_angle_alpha 90.000000
_cell_angle_beta 129.274701
_cell_angle_gamma 90.000000
_cell_volume 1447.151444
_symmetry_space_group_name_H-M "C 2/C"
_symmetry_group_IT_number 15
_symmetry_cell_setting 'monoclinic'
loop_
_space_group_symop_operation_xyz
x,y,z
-x,y,1/2-z
-x,-y,-z
x,-y,1/2+z
1/2+x,1/2+y,z
1/2-x,1/2+y,1/2-z
1/2-x,1/2-y,-z
1/2+x,1/2-y,1/2+z
loop_
_atom_site_type_symbol
_atom_site_label
_atom_site_fract_x
_atom_site_fract_y
_atom_site_fract_z
Si Si1 0.801738 0.985830 0.142014
Si Si2 0.453403 0.841430 0.020699
Si Si3 0.614565 0.283294 0.693256
Si Si4 0.500000 0.935319 0.750000
Si Si5 0.962666 0.914048 0.979156
O O1 0.865132 0.940726 0.350822
O O2 0.869868 0.055869 0.238755
O O3 0.625256 0.980287 0.949394
O O4 0.874062 0.949148 0.049454
O O5 0.500000 0.866310 0.250000
O O6 0.584071 0.787780 0.098696
O O7 0.289976 0.803503 0.887154
O O8 0.444645 0.890211 0.856046
O O9 0.500000 0.289233 0.750000
O O10 0.552333 0.339229 0.517658
#
# Coordination Sequence:
#
# PCOD9296236 Si02
#       5
#     8   8   8   4   8
#     4  10  24  43  67 106 137 187 239 288 361 428
#     4  11  26  46  70 108 143 192 235 295 367 418
#     4  11  24  44  73 102 140 191 237 293 357 430
#     4  12  26  46  74 110 150 176 244 304 356 428
#     4  10  23  44  69  99 143 188 236 287 359 433
#
# _framework density 24.876456999999998
#
# number of rings (size 3 to 8) (size 9 to 14) (size 15 to 20)
#    0.000    1.333    2.222    2.667   12.444    3.556 
#    2.000    0.000    0.000    0.000    0.000    0.000 
#    0.000    0.000    0.000    0.000    0.000    0.000 
#
# Total GULP energy -100530.589288 kJ/mol
# GULP energy per Si atom -5585.032738 kJ/mol
# Density = 2.481984 g / cm^3
# Si number density = 24.876457 Si / 1000 Ang^3
#
#
#
# Elastic Constant Matrix: (Units=GPa)
#
#
# Indices 1 2 3 4 5 6 
#
# 1 69.0080 9.3831 46.1445 0.0000 6.1744 0.0000
# 2 9.3831 90.4155 46.1591 0.0000 -9.3009 0.0000
# 3 46.1445 46.1591 173.5254 0.0000 26.1131 0.0000
# 4 0.0000 0.0000 0.0000 39.6722 0.0000 3.4806
# 5 6.1744 -9.3009 26.1131 0.0000 56.7297 0.0000
# 6 0.0000 0.0000 0.0000 3.4806 0.0000 20.7989
#
#
#
# Elastic Compliance Matrix: (Units=1/GPa)
#
#
# Indices 1 2 3 4 5 6 
#
# 1 0.017670 0.000756 -0.004974 0.000000 0.000490 0.000000
# 2 0.000756 0.013705 -0.004483 0.000000 0.004228 0.000000
# 3 -0.004974 -0.004483 0.008925 0.000000 -0.004302 0.000000
# 4 0.000000 0.000000 0.000000 0.025582 0.000000 -0.004281
# 5 0.000490 0.004228 -0.004302 0.000000 0.020248 0.000000
# 6 0.000000 0.000000 0.000000 -0.004281 0.000000 0.048796
#
#
# Mechanical properties :
#
#
# Convention : Reuss Voigt Hill
#
# Bulk Modulus (GPa) = 43.66979 59.59138 51.63058
# Shear Modulus (GPa) = 31.25749 38.85761 35.05755
#
# Velocity S-wave (km/s) = 3.54857 3.95653 3.75809
# Velocity P-wave (km/s) = 5.86367 6.69919 6.29530
#
# Compressibility (1/GPa) = 0.02289913
#
# Stress axis : x y z
#
# Youngs Moduli (GPa) = 56.59204 72.96480 112.03967
#
# Poissons Ratio (x) = -0.05515 0.55726
# Poissons Ratio (y) = -0.04278 0.50227
# Poissons Ratio (z) = 0.28148 0.32710
#
# Static dielectric constant tensor:
#      x y z
#    x 2.107630 0.000000 -0.038220 
#    y 0.000000 1.989980 0.000000 
#    z -0.038220 0.000000 2.221810 
# 
# From -- ./inp_files/33204.got.cif
#   From: 2010.05.17/outbox.cif.g08.bks.cpg/sg15_17_cif.got.tgz:33204.got - 2010.06.03 18:47:42.
