data_PCOD9296592
_publ_section_title
;
Structure prediction by ZEFSAII (Michael W. Deem and Ramdas Pophale) SiO2 
 PCOD9296592
Probable space group: C 2/C
;
_chemical_formula_sum "Si O2"
_cell_formula_units_Z 44
_cell_length_a 10.396529
_cell_length_b 9.047907
_cell_length_c 20.862329
_cell_angle_alpha 90.000000
_cell_angle_beta 59.114395
_cell_angle_gamma 90.000000
_cell_volume 1684.165284
_symmetry_space_group_name_H-M "C 2/C"
_symmetry_group_IT_number 15
_symmetry_cell_setting 'monoclinic'
loop_
_space_group_symop_operation_xyz
x,y,z
-x,y,1/2-z
-x,-y,-z
x,-y,1/2+z
1/2+x,1/2+y,z
1/2-x,1/2+y,1/2-z
1/2-x,1/2-y,-z
1/2+x,1/2-y,1/2+z
loop_
_atom_site_type_symbol
_atom_site_label
_atom_site_fract_x
_atom_site_fract_y
_atom_site_fract_z
Si Si1 0.627466 0.090213 0.505602
Si Si2 0.556703 0.638618 0.944399
Si Si3 0.324075 0.658673 0.908080
Si Si4 0.500000 0.233902 0.250000
Si Si5 0.608202 0.809865 0.349607
Si Si6 0.221191 0.977395 0.788235
O O1 0.639210 0.248896 0.469791
O O2 0.772750 0.995229 0.451973
O O3 0.550472 0.114051 0.594474
O O4 0.500000 0.000000 0.500000
O O5 0.417113 0.724717 0.944384
O O6 0.666853 0.577288 0.861276
O O7 0.500000 0.500000 0.000000
O O8 0.452675 0.663885 0.821144
O O9 0.186350 0.720883 0.899883
O O10 0.634281 0.123582 0.232446
O O11 0.599908 0.656017 0.313428
O O12 0.719355 0.922611 0.285106
#
# Coordination Sequence:
#
# PCOD9296592 Si02
#       6
#     8   8   8   4   8   8
#     4  10  24  44  71 107 137 186 243 295 358 439
#     4  12  25  46  69 106 147 186 238 316 361 437
#     4  10  24  44  75  98 143 192 244 289 378 436
#     4  10  24  48  70 110 134 200 240 298 378 446
#     4  10  23  45  69 105 140 191 245 298 364 443
#     4  11  24  45  71 101 148 187 243 300 367 439
#
# _framework density 26.125700999999999
#
# number of rings (size 3 to 8) (size 9 to 14) (size 15 to 20)
#    0.000    1.455    1.818    2.182   10.182    5.091 
#    3.273    0.000    0.000    0.000    0.000    0.000 
#    0.000    0.000    0.000    0.000    0.000    0.000 
#
# Total GULP energy -122909.618861 kJ/mol
# GULP energy per Si atom -5586.800857 kJ/mol
# Density = 2.606624 g / cm^3
# Si number density = 26.125701 Si / 1000 Ang^3
#
#
#
# Elastic Constant Matrix: (Units=GPa)
#
#
# Indices 1 2 3 4 5 6 
#
# 1 77.5281 11.0090 26.9667 0.0000 2.6900 0.0000
# 2 11.0090 137.3812 72.6654 0.0000 1.8507 0.0000
# 3 26.9667 72.6654 197.1073 0.0000 -3.4673 0.0000
# 4 0.0000 0.0000 0.0000 63.2598 0.0000 -5.6729
# 5 2.6900 1.8507 -3.4673 0.0000 39.1667 0.0000
# 6 0.0000 0.0000 0.0000 -5.6729 0.0000 39.7036
#
#
#
# Elastic Compliance Matrix: (Units=1/GPa)
#
#
# Indices 1 2 3 4 5 6 
#
# 1 0.013591 -0.000100 -0.001842 0.000000 -0.001092 0.000000
# 2 -0.000100 0.009063 -0.003340 0.000000 -0.000717 0.000000
# 3 -0.001842 -0.003340 0.006572 0.000000 0.000866 0.000000
# 4 0.000000 0.000000 0.000000 0.016013 0.000000 0.002288
# 5 -0.001092 -0.000717 0.000866 0.000000 0.025717 0.000000
# 6 0.000000 0.000000 0.000000 0.002288 0.000000 0.025514
#
#
# Mechanical properties :
#
#
# Convention : Reuss Voigt Hill
#
# Bulk Modulus (GPa) = 53.58393 70.36654 61.97524
# Shear Modulus (GPa) = 44.14784 48.51772 46.33278
#
# Velocity S-wave (km/s) = 4.11521 4.31407 4.21581
# Velocity P-wave (km/s) = 6.56768 7.19772 6.88991
#
# Compressibility (1/GPa) = 0.01866231
#
# Stress axis : x y z
#
# Youngs Moduli (GPa) = 73.57664 110.33308 152.16105
#
# Poissons Ratio (x) = 0.01107 0.28023
# Poissons Ratio (y) = 0.00738 0.50825
# Poissons Ratio (z) = 0.13551 0.36854
#
# Static dielectric constant tensor:
#      x y z
#    x 2.171040 0.000000 -0.070180 
#    y 0.000000 2.040380 0.000000 
#    z -0.070180 0.000000 2.103510 
# 
# From -- ./inp_files/267981.got.cif
#   From: 2010.05.17/outbox.cif.g08.bks.cpg/sg15_134_cif.got.tgz:267981.got - 2010.06.03 18:47:42.
