data_PCOD9296130
_publ_section_title
;
Structure prediction by ZEFSAII (Michael W. Deem and Ramdas Pophale) SiO2 
 PCOD9296130
Probable space group: C 2/C
;
_chemical_formula_sum "Si O2"
_cell_formula_units_Z 44
_cell_length_a 12.724049
_cell_length_b 22.161897
_cell_length_c 8.042789
_cell_angle_alpha 90.000000
_cell_angle_beta 118.169206
_cell_angle_gamma 90.000000
_cell_volume 1999.353036
_symmetry_space_group_name_H-M "C 2/C"
_symmetry_group_IT_number 15
_symmetry_cell_setting 'monoclinic'
loop_
_space_group_symop_operation_xyz
x,y,z
-x,y,1/2-z
-x,-y,-z
x,-y,1/2+z
1/2+x,1/2+y,z
1/2-x,1/2+y,1/2-z
1/2-x,1/2-y,-z
1/2+x,1/2-y,1/2+z
loop_
_atom_site_type_symbol
_atom_site_label
_atom_site_fract_x
_atom_site_fract_y
_atom_site_fract_z
Si Si1 0.285391 0.186312 0.453816
Si Si2 0.233561 0.497008 0.852220
Si Si3 0.634304 0.789688 0.857337
Si Si4 0.894989 0.579060 0.998353
Si Si5 0.131644 0.922889 0.786357
Si Si6 0.000000 0.385720 0.250000
O O1 0.250000 0.250000 0.500000
O O2 0.342523 0.192502 0.315434
O O3 0.169014 0.145812 0.338369
O O4 0.381663 0.154454 0.645472
O O5 0.204512 0.544400 0.684760
O O6 0.332655 0.448971 0.866522
O O7 0.122116 0.458471 0.841315
O O8 0.282272 0.540294 0.029089
O O9 0.500000 0.761031 0.750000
O O10 0.750000 0.750000 0.000000
O O11 0.623450 0.851439 0.958567
O O12 0.994506 0.579513 0.923918
O O13 0.000000 0.933966 0.750000
#
# Coordination Sequence:
#
# PCOD9296130 Si02
#       6
#     8   8   8   8   8   4
#     4  12  27  46  72 103 140 185 240 299 368 427
#     4  10  23  44  68 102 144 181 236 291 361 431
#     4  12  27  50  75 106 145 189 246 306 366 437
#     4  11  23  46  70 105 142 188 236 295 366 427
#     4  11  23  43  70  99 136 186 234 293 355 432
#     4  12  24  46  74 102 144 184 238 298 352 450
#
# _framework density 22.007121000000001
#
# number of rings (size 3 to 8) (size 9 to 14) (size 15 to 20)
#    0.000    0.727    5.455    1.636    1.273    0.727 
#    1.636    0.909    0.000    0.000    0.000    0.000 
#    0.000    0.000    0.000    0.000    0.000    0.000 
#
# Total GULP energy -122643.743765 kJ/mol
# GULP energy per Si atom -5574.715626 kJ/mol
# Density = 2.195703 g / cm^3
# Si number density = 22.007121 Si / 1000 Ang^3
#
#
#
# Elastic Constant Matrix: (Units=GPa)
#
#
# Indices 1 2 3 4 5 6 
#
# 1 131.0393 39.2074 16.5494 0.0000 -11.3589 0.0000
# 2 39.2074 97.7977 11.7521 0.0000 -8.7996 0.0000
# 3 16.5494 11.7521 76.9913 0.0000 -22.2954 0.0000
# 4 0.0000 0.0000 0.0000 51.2357 0.0000 -9.4877
# 5 -11.3589 -8.7996 -22.2954 0.0000 45.9508 0.0000
# 6 0.0000 0.0000 0.0000 -9.4877 0.0000 30.0117
#
#
#
# Elastic Compliance Matrix: (Units=1/GPa)
#
#
# Indices 1 2 3 4 5 6 
#
# 1 0.008854 -0.003326 -0.001101 0.000000 0.001018 0.000000
# 2 -0.003326 0.011746 -0.000773 0.000000 0.001052 0.000000
# 3 -0.001101 -0.000773 0.015383 0.000000 0.007044 0.000000
# 4 0.000000 0.000000 0.000000 0.020731 0.000000 0.006554
# 5 0.001018 0.001052 0.007044 0.000000 0.025633 0.000000
# 6 0.000000 0.000000 0.000000 0.006554 0.000000 0.035392
#
#
# Mechanical properties :
#
#
# Convention : Reuss Voigt Hill
#
# Bulk Modulus (GPa) = 39.08872 48.98289 44.03580
# Shear Modulus (GPa) = 36.58551 41.32760 38.95655
#
# Velocity S-wave (km/s) = 4.08173 4.33820 4.21191
# Velocity P-wave (km/s) = 6.32569 6.88472 6.61112
#
# Compressibility (1/GPa) = 0.02558283
#
# Stress axis : x y z
#
# Youngs Moduli (GPa) = 112.94906 85.13516 65.00749
#
# Poissons Ratio (x) = 0.28312 0.07156
# Poissons Ratio (y) = 0.37562 0.05028
# Poissons Ratio (z) = 0.12433 0.06585
#
# Static dielectric constant tensor:
#      x y z
#    x 1.801530 0.000000 -0.015580 
#    y 0.000000 1.860470 0.000000 
#    z -0.015580 0.000000 1.860210 
# 
# From -- ./inp_files/31022.got.cif
#   From: 2010.05.17/outbox.cif.g08.bks.cpg/sg15_16_cif.got.tgz:31022.got - 2010.06.03 18:47:42.
