data_PCOD9296442
_publ_section_title
;
Structure prediction by ZEFSAII (Michael W. Deem and Ramdas Pophale) SiO2 
 PCOD9296442
Probable space group: C 2/C
;
_chemical_formula_sum "Si O2"
_cell_formula_units_Z 44
_cell_length_a 19.117155
_cell_length_b 9.148663
_cell_length_c 10.615964
_cell_angle_alpha 90.000000
_cell_angle_beta 73.439430
_cell_angle_gamma 90.000000
_cell_volume 1779.676368
_symmetry_space_group_name_H-M "C 2/C"
_symmetry_group_IT_number 15
_symmetry_cell_setting 'monoclinic'
loop_
_space_group_symop_operation_xyz
x,y,z
-x,y,1/2-z
-x,-y,-z
x,-y,1/2+z
1/2+x,1/2+y,z
1/2-x,1/2+y,1/2-z
1/2-x,1/2-y,-z
1/2+x,1/2-y,1/2+z
loop_
_atom_site_type_symbol
_atom_site_label
_atom_site_fract_x
_atom_site_fract_y
_atom_site_fract_z
Si Si1 0.809511 0.731441 0.076980
Si Si2 0.286079 0.809656 0.165874
Si Si3 0.358958 0.308210 0.393703
Si Si4 0.115308 0.462558 0.802032
Si Si5 0.500000 0.827914 0.250000
Si Si6 0.435460 0.570326 0.449300
O O1 0.758035 0.700250 0.223918
O O2 0.867197 0.598700 0.066140
O O3 0.750000 0.750000 0.000000
O O4 0.861370 0.875250 0.059293
O O5 0.221089 0.864485 0.108717
O O6 0.319449 0.922109 0.247488
O O7 0.347416 0.745287 0.043341
O O8 0.412757 0.443216 0.364953
O O9 0.385070 0.173561 0.293968
O O10 0.045981 0.563251 0.814478
O O11 0.457267 0.714249 0.360919
O O12 0.500000 0.500000 0.500000
#
# Coordination Sequence:
#
# PCOD9296442 Si02
#       6
#     8   8   8   8   4   8
#     4  11  26  45  79 112 150 193 255 322 389 456
#     4  10  23  44  76 111 142 193 244 321 385 451
#     4  10  25  47  77 106 154 189 249 316 391 458
#     4  11  26  46  78 108 150 196 255 312 382 460
#     4  12  30  48  74 104 154 206 262 308 380 470
#     4  12  29  48  73 110 154 205 252 310 392 461
#
# _framework density 24.723597000000002
#
# number of rings (size 3 to 8) (size 9 to 14) (size 15 to 20)
#    0.000    1.091    0.000    3.273   20.364    2.182 
#    0.000    0.000    0.000    0.000    0.000    0.000 
#    0.000    0.000    0.000    0.000    0.000    0.000 
#
# Total GULP energy -122762.336447 kJ/mol
# GULP energy per Si atom -5580.106202 kJ/mol
# Density = 2.466732 g / cm^3
# Si number density = 24.723597 Si / 1000 Ang^3
#
#
#
# Elastic Constant Matrix: (Units=GPa)
#
#
# Indices 1 2 3 4 5 6 
#
# 1 142.7232 80.0493 26.7403 0.0000 26.8722 0.0000
# 2 80.0493 157.4502 29.4604 0.0000 3.5481 0.0000
# 3 26.7403 29.4604 79.1524 0.0000 2.9779 0.0000
# 4 0.0000 0.0000 0.0000 35.2612 0.0000 13.6115
# 5 26.8722 3.5481 2.9779 0.0000 31.8516 0.0000
# 6 0.0000 0.0000 0.0000 13.6115 0.0000 59.8167
#
#
#
# Elastic Compliance Matrix: (Units=1/GPa)
#
#
# Indices 1 2 3 4 5 6 
#
# 1 0.012361 -0.005754 -0.001672 0.000000 -0.009631 0.000000
# 2 -0.005754 0.009514 -0.001746 0.000000 0.003958 0.000000
# 3 -0.001672 -0.001746 0.013837 0.000000 0.000311 0.000000
# 4 0.000000 0.000000 0.000000 0.031091 0.000000 -0.007075
# 5 -0.009631 0.003958 0.000311 0.000000 0.039051 0.000000
# 6 0.000000 0.000000 0.000000 -0.007075 0.000000 0.018328
#
#
# Mechanical properties :
#
#
# Convention : Reuss Voigt Hill
#
# Bulk Modulus (GPa) = 57.57954 72.42509 65.00231
# Shear Modulus (GPa) = 33.71210 41.59095 37.65152
#
# Velocity S-wave (km/s) = 3.69665 4.10596 3.90667
# Velocity P-wave (km/s) = 6.44671 7.19972 6.83360
#
# Compressibility (1/GPa) = 0.01736728
#
# Stress axis : x y z
#
# Youngs Moduli (GPa) = 80.90208 105.10445 72.27105
#
# Poissons Ratio (x) = 0.60482 0.12082
# Poissons Ratio (y) = 0.46555 0.12619
# Poissons Ratio (z) = 0.13524 0.18352
#
# Static dielectric constant tensor:
#      x y z
#    x 2.096180 0.000000 0.001900 
#    y 0.000000 2.013230 0.000000 
#    z 0.001900 0.000000 2.063930 
# 
# From -- ./inp_files/109938.got.cif
#   From: 2010.05.17/outbox.cif.g08.bks.cpg/sg15_55_cif.got.tgz:109938.got - 2010.06.03 18:47:42.
