data_PCOD9296365
_publ_section_title
;
Structure prediction by ZEFSAII (Michael W. Deem and Ramdas Pophale) SiO2 
 PCOD9296365
Probable space group: C 2/C
;
_chemical_formula_sum "Si O2"
_cell_formula_units_Z 44
_cell_length_a 9.391142
_cell_length_b 19.037246
_cell_length_c 11.141625
_cell_angle_alpha 90.000000
_cell_angle_beta 97.100941
_cell_angle_gamma 90.000000
_cell_volume 1976.638031
_symmetry_space_group_name_H-M "C 2/C"
_symmetry_group_IT_number 15
_symmetry_cell_setting 'monoclinic'
loop_
_space_group_symop_operation_xyz
x,y,z
-x,y,1/2-z
-x,-y,-z
x,-y,1/2+z
1/2+x,1/2+y,z
1/2-x,1/2+y,1/2-z
1/2-x,1/2-y,-z
1/2+x,1/2-y,1/2+z
loop_
_atom_site_type_symbol
_atom_site_label
_atom_site_fract_x
_atom_site_fract_y
_atom_site_fract_z
Si Si1 0.000000 0.383371 0.750000
Si Si2 0.668758 0.357847 0.044613
Si Si3 0.142694 0.761163 0.819738
Si Si4 0.092690 0.937483 0.446500
Si Si5 0.149460 0.472133 0.575941
Si Si6 0.271297 0.183764 0.090567
O O1 0.112984 0.433683 0.696199
O O2 0.064476 0.337869 0.866160
O O3 0.756241 0.298693 0.120612
O O4 0.538808 0.388634 0.109718
O O5 0.608742 0.318182 0.919170
O O6 0.776884 0.417637 0.008940
O O7 0.218819 0.797686 0.717127
O O8 0.000000 0.728540 0.750000
O O9 0.184934 0.884393 0.538319
O O10 0.221409 0.972643 0.385249
O O11 0.000000 0.000000 0.500000
O O12 0.000000 0.500000 0.500000
O O13 0.250000 0.250000 0.000000
#
# Coordination Sequence:
#
# PCOD9296365 Si02
#       6
#     4   8   8   8   8   8
#     4  12  26  46  72 102 150 200 238 314 374 438
#     4  10  23  44  72 108 142 185 241 300 370 442
#     4  11  23  41  74 102 144 190 236 300 372 437
#     4  10  23  47  72 100 143 187 248 304 360 447
#     4  11  23  45  70 101 143 191 245 298 365 443
#     4  12  27  44  71 107 148 194 245 301 377 445
#
# _framework density 22.260017000000001
#
# number of rings (size 3 to 8) (size 9 to 14) (size 15 to 20)
#    0.000    1.091    5.455    0.000    5.091    0.000 
#    4.909    1.818    0.000    0.000    0.000    0.000 
#    0.000    0.000    0.000    0.000    0.000    0.000 
#
# Total GULP energy -122794.332421 kJ/mol
# GULP energy per Si atom -5581.560565 kJ/mol
# Density = 2.220935 g / cm^3
# Si number density = 22.260017 Si / 1000 Ang^3
#
#
#
# Elastic Constant Matrix: (Units=GPa)
#
#
# Indices 1 2 3 4 5 6 
#
# 1 140.3754 57.6957 38.9426 0.0000 7.7288 0.0000
# 2 57.6957 110.4096 47.8841 0.0000 7.6748 0.0000
# 3 38.9426 47.8841 74.6198 0.0000 0.7636 0.0000
# 4 0.0000 0.0000 0.0000 21.0641 0.0000 11.7163
# 5 7.7288 7.6748 0.7636 0.0000 31.1090 0.0000
# 6 0.0000 0.0000 0.0000 11.7163 0.0000 39.8077
#
#
#
# Elastic Compliance Matrix: (Units=1/GPa)
#
#
# Indices 1 2 3 4 5 6 
#
# 1 0.009434 -0.003750 -0.002503 0.000000 -0.001357 0.000000
# 2 -0.003750 0.014307 -0.007199 0.000000 -0.002421 0.000000
# 3 -0.002503 -0.007199 0.019308 0.000000 0.001924 0.000000
# 4 0.000000 0.000000 0.000000 0.056767 0.000000 -0.016708
# 5 -0.001357 -0.002421 0.001924 0.000000 0.033032 0.000000
# 6 0.000000 0.000000 0.000000 -0.016708 0.000000 0.030038
#
#
# Mechanical properties :
#
#
# Convention : Reuss Voigt Hill
#
# Bulk Modulus (GPa) = 61.94128 68.27217 65.10673
# Shear Modulus (GPa) = 25.61815 30.45499 28.03657
#
# Velocity S-wave (km/s) = 3.39611 3.70286 3.55280
# Velocity P-wave (km/s) = 6.57760 7.00132 6.79276
#
# Compressibility (1/GPa) = 0.01614432
#
# Stress axis : x y z
#
# Youngs Moduli (GPa) = 105.99744 69.89397 51.79237
#
# Poissons Ratio (x) = 0.26210 0.12965
# Poissons Ratio (y) = 0.39748 0.37287
# Poissons Ratio (z) = 0.26534 0.50319
#
# Static dielectric constant tensor:
#      x y z
#    x 2.475920 0.000000 -0.001420 
#    y 0.000000 1.807660 0.000000 
#    z -0.001420 0.000000 1.805470 
# 
# From -- ./inp_files/78299.got.cif
#   From: 2010.05.17/outbox.cif.g08.bks.cpg/sg15_40_cif.got.tgz:78299.got - 2010.06.03 18:47:42.
