data_PCOD9296702
_publ_section_title
;
Structure prediction by ZEFSAII (Michael W. Deem and Ramdas Pophale) SiO2 
 PCOD9296702
Probable space group: C 2/C
;
_chemical_formula_sum "Si O2"
_cell_formula_units_Z 56
_cell_length_a 7.865885
_cell_length_b 25.659707
_cell_length_c 11.557003
_cell_angle_alpha 90.000000
_cell_angle_beta 84.002021
_cell_angle_gamma 90.000000
_cell_volume 2319.853023
_symmetry_space_group_name_H-M "C 2/C"
_symmetry_group_IT_number 15
_symmetry_cell_setting 'monoclinic'
loop_
_space_group_symop_operation_xyz
x,y,z
-x,y,1/2-z
-x,-y,-z
x,-y,1/2+z
1/2+x,1/2+y,z
1/2-x,1/2+y,1/2-z
1/2-x,1/2-y,-z
1/2+x,1/2-y,1/2+z
loop_
_atom_site_type_symbol
_atom_site_label
_atom_site_fract_x
_atom_site_fract_y
_atom_site_fract_z
Si Si1 0.909026 0.548938 0.939939
Si Si2 0.025128 0.061335 0.998321
Si Si3 0.197148 0.312472 0.262575
Si Si4 0.500000 0.975594 0.750000
Si Si5 0.500000 0.391198 0.250000
Si Si6 0.076067 0.346476 0.490968
Si Si7 0.227340 0.108272 0.300739
Si Si8 0.662814 0.795199 0.826804
O O1 0.727259 0.568823 0.994252
O O2 0.883150 0.518150 0.823652
O O3 0.026329 0.599667 0.930282
O O4 0.000000 0.500000 0.000000
O O5 0.961253 0.080081 0.875179
O O6 0.931266 0.084271 0.118419
O O7 0.000000 0.000000 0.000000
O O8 0.337232 0.355977 0.226733
O O9 0.247033 0.259809 0.194563
O O10 0.000000 0.324599 0.250000
O O11 0.196416 0.310973 0.402923
O O12 0.650215 0.934258 0.770863
O O13 0.916531 0.312000 0.544982
O O14 0.163636 0.368858 0.599155
O O15 0.211615 0.158260 0.220649
O O16 0.500000 0.792512 0.750000
#
# Coordination Sequence:
#
# PCOD9296702 Si02
#       8
#     8   8   8   4   4   8   8   8
#     4  12  25  42  70 103 146 192 238 297 356 429
#     4  12  26  45  68 103 145 192 237 296 359 425
#     4  12  27  46  77 105 139 192 240 302 369 430
#     4  12  22  41  70 100 144 195 238 282 368 430
#     4  12  28  49  70 110 150 181 250 300 358 438
#     4  11  23  44  69 100 144 183 235 299 359 428
#     4  11  21  45  71 101 142 189 237 290 360 436
#     4  10  23  45  73 104 139 189 239 298 369 429
#
# _framework density 24.139458999999999
#
# number of rings (size 3 to 8) (size 9 to 14) (size 15 to 20)
#    0.000    0.571    7.143    0.857    3.000    5.143 
#    2.571    0.000    0.000    0.000    0.000    0.000 
#    0.000    0.000    0.000    0.000    0.000    0.000 
#
# Total GULP energy -156274.591426 kJ/mol
# GULP energy per Si atom -5581.235408 kJ/mol
# Density = 2.408452 g / cm^3
# Si number density = 24.139459 Si / 1000 Ang^3
#
#
#
# Elastic Constant Matrix: (Units=GPa)
#
#
# Indices 1 2 3 4 5 6 
#
# 1 93.4195 29.9738 9.1388 0.0000 -24.3406 0.0000
# 2 29.9738 146.4079 54.6054 0.0000 -15.4493 0.0000
# 3 9.1388 54.6054 75.0787 0.0000 -24.0911 0.0000
# 4 0.0000 0.0000 0.0000 26.0588 0.0000 -4.2501
# 5 -24.3406 -15.4493 -24.0911 0.0000 38.9827 0.0000
# 6 0.0000 0.0000 0.0000 -4.2501 0.0000 18.0501
#
#
#
# Elastic Compliance Matrix: (Units=1/GPa)
#
#
# Indices 1 2 3 4 5 6 
#
# 1 0.013909 -0.003230 0.003782 0.000000 0.009742 0.000000
# 2 -0.003230 0.010135 -0.007904 0.000000 -0.002885 0.000000
# 3 0.003782 -0.007904 0.022902 0.000000 0.013382 0.000000
# 4 0.000000 0.000000 0.000000 0.039907 0.000000 0.009397
# 5 0.009742 -0.002885 0.013382 0.000000 0.038862 0.000000
# 6 0.000000 0.000000 0.000000 0.009397 0.000000 0.057614
#
#
# Mechanical properties :
#
#
# Convention : Reuss Voigt Hill
#
# Bulk Modulus (GPa) = 31.01508 55.81578 43.41543
# Shear Modulus (GPa) = 23.94863 31.36418 27.65641
#
# Velocity S-wave (km/s) = 3.15317 3.60848 3.38848
# Velocity P-wave (km/s) = 5.11203 6.36662 5.77351
#
# Compressibility (1/GPa) = 0.03224239
#
# Stress axis : x y z
#
# Youngs Moduli (GPa) = 71.89501 98.66803 43.66520
#
# Poissons Ratio (x) = 0.31873 -0.16516
# Poissons Ratio (y) = 0.23224 0.34512
# Poissons Ratio (z) = -0.27194 0.77985
#
# Static dielectric constant tensor:
#      x y z
#    x 2.039860 0.000000 -0.042630 
#    y 0.000000 1.906060 0.000000 
#    z -0.042630 0.000000 1.886760 
# 
# From -- ./inp_files/81310.got.cif
#   From: 2010.05.17/outbox.cif.g08.bks.cpg/sg15_41_cif.got.tgz:81310.got - 2010.06.03 18:47:42.
