data_PCOD9296768
_publ_section_title
;
Structure prediction by ZEFSAII (Michael W. Deem and Ramdas Pophale) SiO2 
 PCOD9296768
Probable space group: C 2/C
;
_chemical_formula_sum "Si O2"
_cell_formula_units_Z 44
_cell_length_a 11.071837
_cell_length_b 8.942518
_cell_length_c 19.672465
_cell_angle_alpha 90.000000
_cell_angle_beta 73.078600
_cell_angle_gamma 90.000000
_cell_volume 1863.443821
_symmetry_space_group_name_H-M "C 2/C"
_symmetry_group_IT_number 15
_symmetry_cell_setting 'monoclinic'
loop_
_space_group_symop_operation_xyz
x,y,z
-x,y,1/2-z
-x,-y,-z
x,-y,1/2+z
1/2+x,1/2+y,z
1/2-x,1/2+y,1/2-z
1/2-x,1/2-y,-z
1/2+x,1/2-y,1/2+z
loop_
_atom_site_type_symbol
_atom_site_label
_atom_site_fract_x
_atom_site_fract_y
_atom_site_fract_z
Si Si1 0.000000 0.489927 0.750000
Si Si2 0.112638 0.679153 0.534984
Si Si3 0.326740 0.768848 0.327581
Si Si4 0.831415 0.927905 0.325222
Si Si5 0.068954 0.221875 0.825409
Si Si6 0.650406 0.151974 0.974333
O O1 0.119702 0.598537 0.726986
O O2 0.013931 0.383592 0.813871
O O3 0.250000 0.750000 0.500000
O O4 0.093377 0.714382 0.617231
O O5 0.127961 0.503162 0.517446
O O6 0.986340 0.726191 0.515459
O O7 0.338251 0.599182 0.300532
O O8 0.176642 0.785014 0.363697
O O9 0.855938 0.824565 0.256029
O O10 0.711632 0.890622 0.391100
O O11 0.953396 0.890405 0.352183
O O12 0.750000 0.250000 0.000000
#
# Coordination Sequence:
#
# PCOD9296768 Si02
#       6
#     4   8   8   8   8   8
#     4  10  24  40  66 100 126 188 210 268 342 394
#     4  11  27  46  67 104 129 178 228 282 328 403
#     4  12  24  41  71  93 139 168 225 278 336 388
#     4  10  23  46  64 101 132 176 220 274 327 410
#     4  10  25  43  66  99 139 167 224 272 337 396
#     4  11  27  46  72  92 140 178 228 275 341 395
#
# _framework density 23.612196000000001
#
# number of rings (size 3 to 8) (size 9 to 14) (size 15 to 20)
#    0.000    1.455    1.818    2.182   12.727    2.182 
#    0.000    0.000    0.000    0.000    0.000    0.000 
#    0.000    0.000    0.000    0.000    0.000    0.000 
#
# Total GULP energy -122950.812446 kJ/mol
# GULP energy per Si atom -5588.673293 kJ/mol
# Density = 2.355845 g / cm^3
# Si number density = 23.612196 Si / 1000 Ang^3
#
#
#
# Elastic Constant Matrix: (Units=GPa)
#
#
# Indices 1 2 3 4 5 6 
#
# 1 185.9888 34.7535 -3.0950 0.0000 17.2955 0.0000
# 2 34.7535 86.2438 5.9731 0.0000 -3.7342 0.0000
# 3 -3.0950 5.9731 56.8014 0.0000 -9.9405 0.0000
# 4 0.0000 0.0000 0.0000 14.2650 0.0000 -3.0581
# 5 17.2955 -3.7342 -9.9405 0.0000 39.8752 0.0000
# 6 0.0000 0.0000 0.0000 -3.0581 0.0000 35.6834
#
#
#
# Elastic Compliance Matrix: (Units=1/GPa)
#
#
# Indices 1 2 3 4 5 6 
#
# 1 0.006132 -0.002603 0.000104 0.000000 -0.002878 0.000000
# 2 -0.002603 0.012811 -0.001131 0.000000 0.002047 0.000000
# 3 0.000104 -0.001131 0.018511 0.000000 0.004464 0.000000
# 4 0.000000 0.000000 0.000000 0.071414 0.000000 0.006120
# 5 -0.002878 0.002047 0.004464 0.000000 0.027631 0.000000
# 6 0.000000 0.000000 0.000000 0.006120 0.000000 0.028549
#
#
# Mechanical properties :
#
#
# Convention : Reuss Voigt Hill
#
# Bulk Modulus (GPa) = 33.11783 44.92189 39.01986
# Shear Modulus (GPa) = 27.41657 37.39154 32.40406
#
# Velocity S-wave (km/s) = 3.41122 3.98373 3.70854
# Velocity P-wave (km/s) = 5.43796 6.34242 5.90752
#
# Compressibility (1/GPa) = 0.03019522
#
# Stress axis : x y z
#
# Youngs Moduli (GPa) = 163.06862 78.05855 54.02213
#
# Poissons Ratio (x) = 0.20318 -0.00563
# Poissons Ratio (y) = 0.42446 0.06109
# Poissons Ratio (z) = -0.01700 0.08827
#
# Static dielectric constant tensor:
#      x y z
#    x 1.951560 0.000000 0.034140 
#    y 0.000000 1.841500 0.000000 
#    z 0.034140 0.000000 1.907530 
# 
# From -- ./inp_files/236113.got.cif
#   From: 2010.05.17/outbox.cif.g08.bks.cpg/sg15_119_cif.got.tgz:236113.got - 2010.06.03 18:47:42.
