data_PCOD9296950
_publ_section_title
;
Structure prediction by ZEFSAII (Michael W. Deem and Ramdas Pophale) SiO2 
 PCOD9296950
Probable space group: C 2/C
;
_chemical_formula_sum "Si O2"
_cell_formula_units_Z 32
_cell_length_a 20.087326
_cell_length_b 5.349128
_cell_length_c 12.760821
_cell_angle_alpha 90.000000
_cell_angle_beta 116.296414
_cell_angle_gamma 90.000000
_cell_volume 1229.251899
_symmetry_space_group_name_H-M "C 2/C"
_symmetry_group_IT_number 15
_symmetry_cell_setting 'monoclinic'
loop_
_space_group_symop_operation_xyz
x,y,z
-x,y,1/2-z
-x,-y,-z
x,-y,1/2+z
1/2+x,1/2+y,z
1/2-x,1/2+y,1/2-z
1/2-x,1/2-y,-z
1/2+x,1/2-y,1/2+z
loop_
_atom_site_type_symbol
_atom_site_label
_atom_site_fract_x
_atom_site_fract_y
_atom_site_fract_z
Si Si1 0.125688 0.234698 0.462707
Si Si2 0.390455 0.040379 0.334247
Si Si3 0.974459 0.970189 0.860730
Si Si4 0.737591 0.953972 0.900674
O O1 0.102287 0.432954 0.534897
O O2 0.180710 0.352324 0.416410
O O3 0.053924 0.101000 0.364902
O O4 0.179672 0.047506 0.562695
O O5 0.438160 0.261371 0.313111
O O6 0.306723 0.097008 0.236688
O O7 0.420960 0.769754 0.325130
O O8 0.000000 0.000000 0.000000
O O9 0.750000 0.750000 0.000000
#
# Coordination Sequence:
#
# PCOD9296950 Si02
#       4
#     8   8   8   8
#     4  10  25  46  70 102 145 177 233 292 348 419
#     4  11  26  46  77 101 142 189 233 287 362 411
#     4  10  23  46  74 107 136 187 235 286 351 420
#     4  11  28  44  69 107 140 188 238 287 352 424
#
# _framework density 26.032093
#
# number of rings (size 3 to 8) (size 9 to 14) (size 15 to 20)
#    0.000    1.500    0.000    3.000   21.000    1.000 
#    0.000    0.000    0.000    0.000    0.000    0.000 
#    0.000    0.000    0.000    0.000    0.000    0.000 
#
# Total GULP energy -89530.896069 kJ/mol
# GULP energy per Si atom -5595.681004 kJ/mol
# Density = 2.597284 g / cm^3
# Si number density = 26.032093 Si / 1000 Ang^3
#
#
#
# Elastic Constant Matrix: (Units=GPa)
#
#
# Indices 1 2 3 4 5 6 
#
# 1 104.7304 32.5209 13.2041 0.0000 23.0654 0.0000
# 2 32.5209 125.1686 30.8734 0.0000 18.7858 0.0000
# 3 13.2041 30.8734 98.8787 0.0000 44.1327 0.0000
# 4 0.0000 0.0000 0.0000 32.7351 0.0000 0.0051
# 5 23.0654 18.7858 44.1327 0.0000 61.1858 0.0000
# 6 0.0000 0.0000 0.0000 0.0051 0.0000 59.2503
#
#
#
# Elastic Compliance Matrix: (Units=1/GPa)
#
#
# Indices 1 2 3 4 5 6 
#
# 1 0.011132 -0.002550 0.001229 0.000000 -0.004300 0.000000
# 2 -0.002550 0.009285 -0.002530 0.000000 -0.000065 0.000000
# 3 0.001229 -0.002530 0.015632 0.000000 -0.010961 0.000000
# 4 0.000000 0.000000 0.000000 0.030548 0.000000 -0.000003
# 5 -0.004300 -0.000065 -0.010961 0.000000 0.025891 0.000000
# 6 0.000000 0.000000 0.000000 -0.000003 0.000000 0.016878
#
#
# Mechanical properties :
#
#
# Convention : Reuss Voigt Hill
#
# Bulk Modulus (GPa) = 35.27658 53.55274 44.41466
# Shear Modulus (GPa) = 39.52028 47.44618 43.48323
#
# Velocity S-wave (km/s) = 3.90055 4.27383 4.09145
# Velocity P-wave (km/s) = 5.81948 6.70601 6.27841
#
# Compressibility (1/GPa) = 0.02834742
#
# Stress axis : x y z
#
# Youngs Moduli (GPa) = 89.82906 107.69484 63.97282
#
# Poissons Ratio (x) = 0.27463 -0.07861
# Poissons Ratio (y) = 0.22907 0.16184
# Poissons Ratio (z) = -0.11039 0.27244
#
# Static dielectric constant tensor:
#      x y z
#    x 2.115850 0.000000 -0.124330 
#    y 0.000000 2.087880 0.000000 
#    z -0.124330 0.000000 2.238090 
# 
# From -- ./inp_files/165157.got.cif
#   From: 2010.05.17/outbox.cif.g08.bks.cpg/sg15_83_cif.got.tgz:165157.got - 2010.06.03 18:47:42.
