data_PCOD9296587
_publ_section_title
;
Structure prediction by ZEFSAII (Michael W. Deem and Ramdas Pophale) SiO2 
 PCOD9296587
Probable space group: C 2/C
;
_chemical_formula_sum "Si O2"
_cell_formula_units_Z 60
_cell_length_a 9.243513
_cell_length_b 19.592380
_cell_length_c 18.435122
_cell_angle_alpha 90.000000
_cell_angle_beta 121.675281
_cell_angle_gamma 90.000000
_cell_volume 2841.313038
_symmetry_space_group_name_H-M "C 2/C"
_symmetry_group_IT_number 15
_symmetry_cell_setting 'monoclinic'
loop_
_space_group_symop_operation_xyz
x,y,z
-x,y,1/2-z
-x,-y,-z
x,-y,1/2+z
1/2+x,1/2+y,z
1/2-x,1/2+y,1/2-z
1/2-x,1/2-y,-z
1/2+x,1/2-y,1/2+z
loop_
_atom_site_type_symbol
_atom_site_label
_atom_site_fract_x
_atom_site_fract_y
_atom_site_fract_z
Si Si1 0.985303 0.074810 0.531402
Si Si2 0.223584 0.570871 0.582785
Si Si3 0.779448 0.676881 0.636054
Si Si4 0.855492 0.824019 0.651919
Si Si5 0.923908 0.565396 0.388224
Si Si6 0.156854 0.317690 0.181799
Si Si7 0.649457 0.336478 0.626946
Si Si8 0.000000 0.592044 0.250000
O O1 0.899654 0.065088 0.586721
O O2 0.869390 0.128170 0.455636
O O3 0.160942 0.115512 0.581104
O O4 0.000000 0.000000 0.500000
O O5 0.169028 0.501422 0.607086
O O6 0.230331 0.628980 0.644831
O O7 0.076072 0.583495 0.483658
O O8 0.760232 0.754848 0.602074
O O9 0.753917 0.685532 0.716202
O O10 0.967558 0.660361 0.656680
O O11 0.716095 0.874815 0.645804
O O12 0.000000 0.803682 0.750000
O O13 0.975324 0.857878 0.622737
O O14 0.991394 0.553127 0.324406
O O15 0.150986 0.244718 0.139751
O O16 0.827886 0.363778 0.703648
#
# Coordination Sequence:
#
# PCOD9296587 Si02
#       8
#     8   8   8   8   8   8   8   4
#     4  12  28  46  66 101 141 180 230 287 348 416
#     4  11  27  45  62 101 140 177 231 281 350 411
#     4  10  23  45  71  99 138 177 230 287 338 412
#     4  11  20  44  72 102 131 177 236 280 339 415
#     4  11  25  43  69  97 137 182 226 291 340 413
#     4  10  23  45  69 102 133 183 229 278 346 410
#     4  11  24  42  71 105 134 178 234 280 343 416
#     4  12  22  44  72  96 138 182 226 290 346 406
#
# _framework density 21.116999
#
# number of rings (size 3 to 8) (size 9 to 14) (size 15 to 20)
#    0.000    1.067    5.333    0.800    7.467    6.400 
#    2.400    0.000    0.000    0.000    0.000    0.000 
#    0.000    0.000    0.000    0.000    0.000    0.000 
#
# Total GULP energy -167446.402613 kJ/mol
# GULP energy per Si atom -5581.546754 kJ/mol
# Density = 2.106894 g / cm^3
# Si number density = 21.116999 Si / 1000 Ang^3
#
#
#
# Elastic Constant Matrix: (Units=GPa)
#
#
# Indices 1 2 3 4 5 6 
#
# 1 110.9240 45.0632 23.2739 0.0000 -26.9294 0.0000
# 2 45.0632 90.3612 39.7041 0.0000 -3.1915 0.0000
# 3 23.2739 39.7041 49.7270 0.0000 -11.4734 0.0000
# 4 0.0000 0.0000 0.0000 21.7219 0.0000 -15.5572
# 5 -26.9294 -3.1915 -11.4734 0.0000 39.3631 0.0000
# 6 0.0000 0.0000 0.0000 -15.5572 0.0000 8.3774
#
#
#
# Elastic Compliance Matrix: (Units=1/GPa)
#
#
# Indices 1 2 3 4 5 6 
#
# 1 0.013930 -0.007241 0.001420 0.000000 0.009357 0.000000
# 2 -0.007241 0.021098 -0.015229 0.000000 -0.007682 0.000000
# 3 0.001420 -0.015229 0.033818 0.000000 0.009594 0.000000
# 4 0.000000 0.000000 0.000000 -0.139501 0.000000 -0.259059
# 5 0.009357 -0.007682 0.009594 0.000000 0.033980 0.000000
# 6 0.000000 0.000000 0.000000 -0.259059 0.000000 -0.361716
#
#
# Mechanical properties :
#
#
# Convention : Reuss Voigt Hill
#
# Bulk Modulus (GPa) = 37.38639 51.89939 44.64289
# Shear Modulus (GPa) = -14.39361 23.42388 4.51513
#
# Velocity S-wave (km/s) = -2.61360 3.33414 1.46383
# Velocity P-wave (km/s) = 2.93853 6.28112 4.90344
#
# Compressibility (1/GPa) = 0.02674770
#
# Stress axis : x y z
#
# Youngs Moduli (GPa) = 71.78556 47.39828 29.57002
#
# Poissons Ratio (x) = 0.34320 -0.04200
# Poissons Ratio (y) = 0.51978 0.45032
# Poissons Ratio (z) = -0.10196 0.72182
#
# Static dielectric constant tensor:
#      x y z
#    x 1.759770 0.000000 -0.000640 
#    y 0.000000 1.716380 0.000000 
#    z -0.000640 0.000000 1.841530 
# 
# From -- ./inp_files/192564.got.cif
#   From: 2010.05.17/outbox.cif.g08.bks.cpg/sg15_97_cif.got.tgz:192564.got - 2010.06.03 18:47:42.
