data_PCOD9296051
_publ_section_title
;
Structure prediction by ZEFSAII (Michael W. Deem and Ramdas Pophale) SiO2 
 PCOD9296051
Probable space group: C 2/C
;
_chemical_formula_sum "Si O2"
_cell_formula_units_Z 52
_cell_length_a 15.544318
_cell_length_b 18.363064
_cell_length_c 8.491004
_cell_angle_alpha 90.000000
_cell_angle_beta 96.006239
_cell_angle_gamma 90.000000
_cell_volume 2410.378482
_symmetry_space_group_name_H-M "C 2/C"
_symmetry_group_IT_number 15
_symmetry_cell_setting 'monoclinic'
loop_
_space_group_symop_operation_xyz
x,y,z
-x,y,1/2-z
-x,-y,-z
x,-y,1/2+z
1/2+x,1/2+y,z
1/2-x,1/2+y,1/2-z
1/2-x,1/2-y,-z
1/2+x,1/2-y,1/2+z
loop_
_atom_site_type_symbol
_atom_site_label
_atom_site_fract_x
_atom_site_fract_y
_atom_site_fract_z
Si Si1 0.159289 0.338888 0.077080
Si Si2 0.046287 0.932709 0.425612
Si Si3 0.318663 0.245243 0.239150
Si Si4 0.433952 0.314003 0.517175
Si Si5 0.270031 0.392229 0.622807
Si Si6 0.261184 0.468614 0.956038
Si Si7 0.500000 0.810092 0.250000
O O1 0.235848 0.295832 0.183533
O O2 0.192058 0.416507 0.023856
O O3 0.074252 0.348922 0.164825
O O4 0.146562 0.289526 0.916873
O O5 0.147116 0.949214 0.445228
O O6 0.000000 0.926831 0.250000
O O7 0.021817 0.859124 0.512521
O O8 0.000000 0.000000 0.500000
O O9 0.389822 0.291780 0.344292
O O10 0.286435 0.178663 0.344528
O O11 0.364803 0.363786 0.595486
O O12 0.451218 0.242335 0.618697
O O13 0.241298 0.446462 0.477952
O O14 0.270284 0.442540 0.778267
#
# Coordination Sequence:
#
# PCOD9296051 Si02
#       7
#     8   8   8   8   8   8   4
#     4  10  24  44  65  94 134 172 221 271 331 385
#     4  12  25  37  58  94 134 170 204 256 324 395
#     4  10  23  44  66  95 129 172 220 270 325 390
#     4  12  25  39  64  97 133 170 218 266 319 389
#     4  11  23  41  65  95 127 172 217 265 321 391
#     4  11  24  41  63  94 134 173 210 268 333 391
#     4  12  26  40  66  96 128 170 218 278 316 386
#
# _framework density 21.573376
#
# number of rings (size 3 to 8) (size 9 to 14) (size 15 to 20)
#    0.000    0.923    3.077    3.231    9.692    0.000 
#    0.000    0.000    0.000    8.308    0.000    0.000 
#    0.000    0.000    0.000    0.000    0.000    0.000 
#
# Total GULP energy -145550.329107 kJ/mol
# GULP energy per Si atom -5598.089581 kJ/mol
# Density = 2.152427 g / cm^3
# Si number density = 21.573376 Si / 1000 Ang^3
#
#
#
# Elastic Constant Matrix: (Units=GPa)
#
#
# Indices 1 2 3 4 5 6 
#
# 1 80.6436 20.3897 30.6879 0.0000 -29.5965 0.0000
# 2 20.3897 65.6089 12.1388 0.0000 -10.5583 0.0000
# 3 30.6879 12.1388 56.6574 0.0000 -1.6312 0.0000
# 4 0.0000 0.0000 0.0000 31.9024 0.0000 -1.6297
# 5 -29.5965 -10.5583 -1.6312 0.0000 34.4626 0.0000
# 6 0.0000 0.0000 0.0000 -1.6297 0.0000 31.1417
#
#
#
# Elastic Compliance Matrix: (Units=1/GPa)
#
#
# Indices 1 2 3 4 5 6 
#
# 1 0.025253 -0.002230 -0.012613 0.000000 0.020407 0.000000
# 2 -0.002230 0.016869 -0.002316 0.000000 0.003143 0.000000
# 3 -0.012613 -0.002316 0.024679 0.000000 -0.010373 0.000000
# 4 0.000000 0.000000 0.000000 0.031430 0.000000 0.001645
# 5 0.020407 0.003143 -0.010373 0.000000 0.047015 0.000000
# 6 0.000000 0.000000 0.000000 0.001645 0.000000 0.032197
#
#
# Mechanical properties :
#
#
# Convention : Reuss Voigt Hill
#
# Bulk Modulus (GPa) = 30.78453 36.59362 33.68907
# Shear Modulus (GPa) = 22.46293 28.81425 25.63859
#
# Velocity S-wave (km/s) = 3.23032 3.65860 3.45111
# Velocity P-wave (km/s) = 5.31168 5.90308 5.61517
#
# Compressibility (1/GPa) = 0.03248385
#
# Stress axis : x y z
#
# Youngs Moduli (GPa) = 39.59871 59.27942 40.52027
#
# Poissons Ratio (x) = 0.13222 0.51107
# Poissons Ratio (y) = 0.08832 0.09383
# Poissons Ratio (z) = 0.49945 0.13727
#
# Static dielectric constant tensor:
#      x y z
#    x 1.754750 0.000000 -0.005510 
#    y 0.000000 1.766460 0.000000 
#    z -0.005510 0.000000 1.772780 
# 
# From -- ./inp_files/40822.got.cif
#   From: 2010.05.17/outbox.cif.g08.bks.cpg/sg15_21_cif.got.tgz:40822.got - 2010.06.03 18:47:42.
