data_PCOD9296309
_publ_section_title
;
Structure prediction by ZEFSAII (Michael W. Deem and Ramdas Pophale) SiO2 
 PCOD9296309
Probable space group: C 2/C
;
_chemical_formula_sum "Si O2"
_cell_formula_units_Z 24
_cell_length_a 12.822771
_cell_length_b 14.226470
_cell_length_c 4.945432
_cell_angle_alpha 90.000000
_cell_angle_beta 94.920457
_cell_angle_gamma 90.000000
_cell_volume 898.834693
_symmetry_space_group_name_H-M "C 2/C"
_symmetry_group_IT_number 15
_symmetry_cell_setting 'monoclinic'
loop_
_space_group_symop_operation_xyz
x,y,z
-x,y,1/2-z
-x,-y,-z
x,-y,1/2+z
1/2+x,1/2+y,z
1/2-x,1/2+y,1/2-z
1/2-x,1/2-y,-z
1/2+x,1/2-y,1/2+z
loop_
_atom_site_type_symbol
_atom_site_label
_atom_site_fract_x
_atom_site_fract_y
_atom_site_fract_z
Si Si1 0.500000 0.573091 0.250000
Si Si2 0.627007 0.061442 0.619281
Si Si3 0.669653 0.333545 0.429449
Si Si4 0.000000 0.712787 0.250000
O O1 0.500000 0.500000 0.500000
O O2 0.401402 0.635401 0.332959
O O3 0.750740 0.084904 0.636334
O O4 0.558078 0.147130 0.483309
O O5 0.606891 0.026394 0.916083
O O6 0.750000 0.250000 0.500000
O O7 0.591218 0.286729 0.194501
#
# Coordination Sequence:
#
# PCOD9296309 Si02
#       4
#     4   8   8   4
#     4  12  25  46  73 106 148 200 252 310 381 460
#     4  11  24  45  70 102 142 193 248 307 374 453
#     4  10  24  45  72 107 150 197 251 315 383 456
#     4  10  23  44  71 104 144 192 246 310 377 450
#
# _framework density 26.701239999999999
#
# number of rings (size 3 to 8) (size 9 to 14) (size 15 to 20)
#    0.000    1.333    0.000    4.000    0.000    8.000 
#    0.000   16.667    0.000    0.000    0.000    0.000 
#    0.000    0.000    0.000    0.000    0.000    0.000 
#
# Total GULP energy -67030.665315 kJ/mol
# GULP energy per Si atom -5585.888776 kJ/mol
# Density = 2.664047 g / cm^3
# Si number density = 26.701240 Si / 1000 Ang^3
#
#
#
# Elastic Constant Matrix: (Units=GPa)
#
#
# Indices 1 2 3 4 5 6 
#
# 1 229.7837 89.6440 68.6728 0.0000 -7.4844 0.0000
# 2 89.6440 127.4179 43.7103 0.0000 -15.1913 0.0000
# 3 68.6728 43.7103 89.1058 0.0000 -30.4943 0.0000
# 4 0.0000 0.0000 0.0000 18.2322 0.0000 5.3043
# 5 -7.4844 -15.1913 -30.4943 0.0000 58.4503 0.0000
# 6 0.0000 0.0000 0.0000 5.3043 0.0000 93.1006
#
#
#
# Elastic Compliance Matrix: (Units=1/GPa)
#
#
# Indices 1 2 3 4 5 6 
#
# 1 0.007048 -0.003727 -0.004414 0.000000 -0.002369 0.000000
# 2 -0.003727 0.011407 -0.002279 0.000000 0.001298 0.000000
# 3 -0.004414 -0.002279 0.018682 0.000000 0.008589 0.000000
# 4 0.000000 0.000000 0.000000 0.055772 0.000000 -0.003178
# 5 -0.002369 0.001298 0.008589 0.000000 0.021624 0.000000
# 6 0.000000 0.000000 0.000000 -0.003178 0.000000 0.010922
#
#
# Mechanical properties :
#
#
# Convention : Reuss Voigt Hill
#
# Bulk Modulus (GPa) = 61.36293 94.48464 77.92379
# Shear Modulus (GPa) = 32.95385 50.24199 41.59792
#
# Velocity S-wave (km/s) = 3.51689 4.34249 3.95131
# Velocity P-wave (km/s) = 6.28669 7.78496 7.07560
#
# Compressibility (1/GPa) = 0.01629648
#
# Stress axis : x y z
#
# Youngs Moduli (GPa) = 141.88666 87.66828 53.52693
#
# Poissons Ratio (x) = 0.32670 0.23629
# Poissons Ratio (y) = 0.52875 0.12199
# Poissons Ratio (z) = 0.62635 0.19980
#
# Static dielectric constant tensor:
#      x y z
#    x 1.974930 0.000000 -0.122380 
#    y 0.000000 2.193070 0.000000 
#    z -0.122380 0.000000 1.789850 
# 
# From -- ./inp_files/6102.got.cif
#   From: 2010.05.17/outbox.cif.g08.bks.cpg/sg15_4_cif.got.tgz:6102.got - 2010.06.03 18:47:42.
