data_PCOD9296101
_publ_section_title
;
Structure prediction by ZEFSAII (Michael W. Deem and Ramdas Pophale) SiO2 
 PCOD9296101
Probable space group: C 2/C
;
_chemical_formula_sum "Si O2"
_cell_formula_units_Z 40
_cell_length_a 9.381123
_cell_length_b 13.633305
_cell_length_c 16.128563
_cell_angle_alpha 90.000000
_cell_angle_beta 61.454971
_cell_angle_gamma 90.000000
_cell_volume 1812.027018
_symmetry_space_group_name_H-M "C 2/C"
_symmetry_group_IT_number 15
_symmetry_cell_setting 'monoclinic'
loop_
_space_group_symop_operation_xyz
x,y,z
-x,y,1/2-z
-x,-y,-z
x,-y,1/2+z
1/2+x,1/2+y,z
1/2-x,1/2+y,1/2-z
1/2-x,1/2-y,-z
1/2+x,1/2-y,1/2+z
loop_
_atom_site_type_symbol
_atom_site_label
_atom_site_fract_x
_atom_site_fract_y
_atom_site_fract_z
Si Si1 0.200270 0.334740 0.310626
Si Si2 0.946149 0.108900 0.413705
Si Si3 0.500000 0.468979 0.250000
Si Si4 0.761977 0.831410 0.569830
Si Si5 0.000000 0.740433 0.750000
Si Si6 0.595692 0.028323 0.556219
O O1 0.337896 0.407729 0.299530
O O2 0.253507 0.235433 0.343599
O O3 0.171533 0.310627 0.222870
O O4 0.029961 0.393155 0.371196
O O5 0.764417 0.081564 0.488522
O O6 0.057920 0.125202 0.463229
O O7 0.960851 0.198692 0.344427
O O8 0.013511 0.026169 0.332811
O O9 0.750000 0.750000 0.500000
O O10 0.643560 0.924842 0.588546
O O11 0.500000 0.000000 0.500000
#
# Coordination Sequence:
#
# PCOD9296101 Si02
#       6
#     8   8   4   8   4   8
#     4  11  25  45  66  99 135 176 225 275 339 410
#     4  10  23  44  67  94 134 175 219 276 336 401
#     4  11  22  44  65  92 138 174 215 276 342 401
#     4  11  23  43  65 102 131 171 227 276 343 403
#     4   9  24  44  65  98 130 174 219 268 342 401
#     4  12  23  43  69  99 132 175 226 280 331 405
#
# _framework density 22.074728
#
# number of rings (size 3 to 8) (size 9 to 14) (size 15 to 20)
#    0.000    1.200    4.000    0.600    2.800    4.800 
#    7.200    0.000    0.000    0.000    0.000    0.000 
#    0.000    0.000    0.000    0.000    0.000    0.000 
#
# Total GULP energy -111335.624792 kJ/mol
# GULP energy per Si atom -5566.781240 kJ/mol
# Density = 2.202448 g / cm^3
# Si number density = 22.074728 Si / 1000 Ang^3
#
#
#
# Elastic Constant Matrix: (Units=GPa)
#
#
# Indices 1 2 3 4 5 6 
#
# 1 166.3087 64.6373 26.9736 0.0000 18.7921 0.0000
# 2 64.6373 124.2713 21.6661 0.0000 -3.9083 0.0000
# 3 26.9736 21.6661 29.9162 0.0000 -3.0484 0.0000
# 4 0.0000 0.0000 0.0000 97.6531 0.0000 -4.8000
# 5 18.7921 -3.9083 -3.0484 0.0000 42.5036 0.0000
# 6 0.0000 0.0000 0.0000 -4.8000 0.0000 33.8610
#
#
#
# Elastic Compliance Matrix: (Units=1/GPa)
#
#
# Indices 1 2 3 4 5 6 
#
# 1 0.008967 -0.003799 -0.005816 0.000000 -0.004731 0.000000
# 2 -0.003799 0.010825 -0.004172 0.000000 0.002376 0.000000
# 3 -0.005816 -0.004172 0.042224 0.000000 0.005216 0.000000
# 4 0.000000 0.000000 0.000000 0.010312 0.000000 0.001462
# 5 -0.004731 0.002376 0.005216 0.000000 0.026212 0.000000
# 6 0.000000 0.000000 0.000000 0.001462 0.000000 0.029740
#
#
# Mechanical properties :
#
#
# Convention : Reuss Voigt Hill
#
# Bulk Modulus (GPa) = 29.03480 60.78335 44.90908
# Shear Modulus (GPa) = 29.88016 48.61818 39.24917
#
# Velocity S-wave (km/s) = 3.68311 4.69810 4.22122
# Velocity P-wave (km/s) = 5.59183 7.55146 6.64429
#
# Compressibility (1/GPa) = 0.03444143
#
# Stress axis : x y z
#
# Youngs Moduli (GPa) = 111.51601 92.37864 23.68328
#
# Poissons Ratio (x) = 0.35094 0.13774
# Poissons Ratio (y) = 0.42365 0.09881
# Poissons Ratio (z) = 0.64859 0.38544
#
# Static dielectric constant tensor:
#      x y z
#    x 1.833320 0.000000 0.025750 
#    y 0.000000 2.081470 0.000000 
#    z 0.025750 0.000000 1.858550 
# 
# From -- ./inp_files/133225.got.cif
#   From: 2010.05.17/outbox.cif.g08.bks.cpg/sg15_67_cif.got.tgz:133225.got - 2010.06.03 18:47:42.
