data_PCOD9296510
_publ_section_title
;
Structure prediction by ZEFSAII (Michael W. Deem and Ramdas Pophale) SiO2 
 PCOD9296510
Probable space group: C 2/C
;
_chemical_formula_sum "Si O2"
_cell_formula_units_Z 48
_cell_length_a 12.396809
_cell_length_b 20.829058
_cell_length_c 13.882909
_cell_angle_alpha 90.000000
_cell_angle_beta 38.351122
_cell_angle_gamma 90.000000
_cell_volume 2224.267947
_symmetry_space_group_name_H-M "C 2/C"
_symmetry_group_IT_number 15
_symmetry_cell_setting 'monoclinic'
loop_
_space_group_symop_operation_xyz
x,y,z
-x,y,1/2-z
-x,-y,-z
x,-y,1/2+z
1/2+x,1/2+y,z
1/2-x,1/2+y,1/2-z
1/2-x,1/2-y,-z
1/2+x,1/2-y,1/2+z
loop_
_atom_site_type_symbol
_atom_site_label
_atom_site_fract_x
_atom_site_fract_y
_atom_site_fract_z
Si Si1 0.802523 0.080348 0.425840
Si Si2 0.663856 0.306428 0.998176
Si Si3 0.965078 0.613597 0.541155
Si Si4 0.700775 0.562123 0.575353
Si Si5 0.142526 0.269546 0.823524
Si Si6 0.818128 0.679930 0.833134
O O1 0.652133 0.088850 0.449620
O O2 0.775363 0.134639 0.524887
O O3 0.000000 0.084236 0.250000
O O4 0.774439 0.008394 0.486920
O O5 0.718635 0.295274 0.849321
O O6 0.750000 0.250000 0.000000
O O7 0.719932 0.376503 0.992791
O O8 0.459947 0.290946 0.150266
O O9 0.010431 0.674174 0.441833
O O10 0.838646 0.569244 0.566264
O O11 0.863328 0.638608 0.706322
O O12 0.500000 0.564824 0.750000
O O13 0.218746 0.242895 0.868915
O O14 0.000000 0.700528 0.750000
#
# Coordination Sequence:
#
# PCOD9296510 Si02
#       6
#     8   8   8   8   8   8
#     4  10  25  45  69  99 131 178 224 270 329 394
#     4  12  23  41  66  97 133 167 218 275 337 389
#     4  11  23  44  67  98 134 175 220 276 330 395
#     4  11  23  46  69  98 137 174 221 275 329 398
#     4  12  24  41  66 100 130 172 224 272 334 391
#     4  10  23  45  66  95 136 176 219 272 335 390
#
# _framework density 21.580133
#
# number of rings (size 3 to 8) (size 9 to 14) (size 15 to 20)
#    0.000    1.000    3.333    3.000    2.333    3.333 
#   12.000    2.500    0.000    0.000    0.000    0.000 
#    0.000    0.000    0.000    0.000    0.000    0.000 
#
# Total GULP energy -134149.465230 kJ/mol
# GULP energy per Si atom -5589.561051 kJ/mol
# Density = 2.153102 g / cm^3
# Si number density = 21.580133 Si / 1000 Ang^3
#
#
#
# Elastic Constant Matrix: (Units=GPa)
#
#
# Indices 1 2 3 4 5 6 
#
# 1 74.4043 37.7922 28.9886 0.0006 -18.3821 -0.0032
# 2 37.7922 91.5459 23.0881 0.0010 -3.8431 0.0060
# 3 28.9886 23.0881 66.7692 0.0002 -13.7012 0.0046
# 4 0.0006 0.0010 0.0002 20.2377 0.0011 1.1978
# 5 -18.3821 -3.8431 -13.7012 0.0011 29.8616 -0.0005
# 6 -0.0032 0.0060 0.0046 1.1978 -0.0005 24.1225
#
#
#
# Elastic Compliance Matrix: (Units=1/GPa)
#
#
# Indices 1 2 3 4 5 6 
#
# 1 0.021460 -0.007240 -0.004741 -0.000001 0.010104 0.000006
# 2 -0.007240 0.014414 -0.002622 0.000000 -0.003804 -0.000004
# 3 -0.004741 -0.002622 0.019069 0.000000 0.005494 -0.000003
# 4 -0.000001 0.000000 0.000000 0.049558 -0.000003 -0.002461
# 5 0.010104 -0.003804 0.005494 -0.000003 0.041739 0.000002
# 6 0.000006 -0.000004 -0.000003 -0.002461 0.000002 0.041577
#
#
# Mechanical properties :
#
#
# Convention : Reuss Voigt Hill
#
# Bulk Modulus (GPa) = 38.85083 45.82859 42.33971
# Shear Modulus (GPa) = 22.16304 24.36772 23.26538
#
# Velocity S-wave (km/s) = 3.20818 3.36396 3.28699
# Velocity P-wave (km/s) = 5.63608 6.03083 5.83679
#
# Compressibility (1/GPa) = 0.02573947
#
# Stress axis : x y z
#
# Youngs Moduli (GPa) = 46.59724 69.37878 52.44113
#
# Poissons Ratio (x) = 0.50228 0.24860
# Poissons Ratio (y) = 0.33735 0.13748
# Poissons Ratio (z) = 0.22090 0.18188
#
# Static dielectric constant tensor:
#      x y z
#    x 1.834100 0.000000 -0.028630 
#    y 0.000000 1.777630 0.000000 
#    z -0.028630 0.000000 1.782540 
# 
# From -- ./inp_files/63953.got.cif
#   From: 2010.05.17/outbox.cif.g08.bks.cpg/sg15_32_cif.got.tgz:63953.got - 2010.06.03 18:47:42.
