data_PCOD9296508
_publ_section_title
;
Structure prediction by ZEFSAII (Michael W. Deem and Ramdas Pophale) SiO2 
 PCOD9296508
Probable space group: C 2/C
;
_chemical_formula_sum "Si O2"
_cell_formula_units_Z 56
_cell_length_a 12.167996
_cell_length_b 7.643886
_cell_length_c 26.297608
_cell_angle_alpha 90.000000
_cell_angle_beta 68.569713
_cell_angle_gamma 90.000000
_cell_volume 2276.854017
_symmetry_space_group_name_H-M "C 2/C"
_symmetry_group_IT_number 15
_symmetry_cell_setting 'monoclinic'
loop_
_space_group_symop_operation_xyz
x,y,z
-x,y,1/2-z
-x,-y,-z
x,-y,1/2+z
1/2+x,1/2+y,z
1/2-x,1/2+y,1/2-z
1/2-x,1/2-y,-z
1/2+x,1/2-y,1/2+z
loop_
_atom_site_type_symbol
_atom_site_label
_atom_site_fract_x
_atom_site_fract_y
_atom_site_fract_z
Si Si1 0.331196 0.278742 0.173336
Si Si2 0.575218 0.719221 0.189853
Si Si3 0.371083 0.326978 0.281117
Si Si4 0.023841 0.445686 0.376103
Si Si5 0.958611 0.220762 0.034012
Si Si6 0.205161 0.677724 0.104954
Si Si7 0.952774 0.905109 0.428002
O O1 0.206682 0.297972 0.166549
O O2 0.316348 0.334809 0.234452
O O3 0.438103 0.383351 0.129129
O O4 0.375516 0.076302 0.161800
O O5 0.500000 0.789483 0.250000
O O6 0.598310 0.515035 0.198902
O O7 0.498611 0.773196 0.154190
O O8 0.500000 0.240817 0.250000
O O9 0.297485 0.220478 0.334846
O O10 0.901344 0.549620 0.390694
O O11 0.047381 0.390165 0.429855
O O12 0.832295 0.126434 0.063962
O O13 0.975791 0.227650 0.971184
O O14 0.052442 0.092103 0.044301
O O15 0.165361 0.852951 0.081345
#
# Coordination Sequence:
#
# PCOD9296508 Si02
#       7
#     8   8   8   8   8   8   8
#     4  11  25  44  67  97 136 170 213 274 324 377
#     4  11  27  40  65  97 131 172 217 258 322 395
#     4  11  22  44  64  94 138 174 206 268 327 387
#     4  11  25  42  66 100 125 168 225 266 316 394
#     4  11  24  43  70  94 129 176 217 268 325 378
#     4  11  23  42  68  95 133 167 217 268 325 381
#     4  10  23  45  66  95 134 171 217 269 324 386
#
# _framework density 24.59534
#
# number of rings (size 3 to 8) (size 9 to 14) (size 15 to 20)
#    0.000    1.143    2.857    3.000    8.000    2.286 
#    0.000    7.857    0.000    0.000    0.000    0.000 
#    0.000    0.000    0.000    0.000    0.000    0.000 
#
# Total GULP energy -156708.566730 kJ/mol
# GULP energy per Si atom -5596.734526 kJ/mol
# Density = 2.453936 g / cm^3
# Si number density = 24.595340 Si / 1000 Ang^3
#
#
#
# Elastic Constant Matrix: (Units=GPa)
#
#
# Indices 1 2 3 4 5 6 
#
# 1 73.8760 9.2820 9.2987 0.0000 7.2600 0.0000
# 2 9.2820 80.1826 28.1566 0.0000 6.0566 0.0000
# 3 9.2987 28.1566 102.0146 0.0000 31.3073 0.0000
# 4 0.0000 0.0000 0.0000 18.4132 0.0000 10.1240
# 5 7.2600 6.0566 31.3073 0.0000 41.1130 0.0000
# 6 0.0000 0.0000 0.0000 10.1240 0.0000 27.8762
#
#
#
# Elastic Compliance Matrix: (Units=1/GPa)
#
#
# Indices 1 2 3 4 5 6 
#
# 1 0.013943 -0.001367 -0.000261 0.000000 -0.002062 0.000000
# 2 -0.001367 0.013985 -0.004146 0.000000 0.001338 0.000000
# 3 -0.000261 -0.004146 0.014053 0.000000 -0.010045 0.000000
# 4 0.000000 0.000000 0.000000 0.067859 0.000000 -0.024645
# 5 -0.002062 0.001338 -0.010045 0.000000 0.032139 0.000000
# 6 0.000000 0.000000 0.000000 -0.024645 0.000000 0.044823
#
#
# Mechanical properties :
#
#
# Convention : Reuss Voigt Hill
#
# Bulk Modulus (GPa) = 32.85789 38.83866 35.84828
# Shear Modulus (GPa) = 23.98141 31.43620 27.70881
#
# Velocity S-wave (km/s) = 3.12595 3.57898 3.36011
# Velocity P-wave (km/s) = 5.13976 5.73622 5.44616
#
# Compressibility (1/GPa) = 0.03043409
#
# Stress axis : x y z
#
# Youngs Moduli (GPa) = 71.71847 71.50756 71.15826
#
# Poissons Ratio (x) = 0.09773 0.01856
# Poissons Ratio (y) = 0.09802 0.29502
# Poissons Ratio (z) = 0.01871 0.29647
#
# Static dielectric constant tensor:
#      x y z
#    x 1.889730 0.000000 0.025560 
#    y 0.000000 2.078070 0.000000 
#    z 0.025560 0.000000 1.923050 
# 
# From -- ./inp_files/295065.got.cif
#   From: 2010.05.17/outbox.cif.g08.bks.cpg/sg15_148_cif.got.tgz:295065.got - 2010.06.03 18:47:42.
