data_PCOD9296979
_publ_section_title
;
Structure prediction by ZEFSAII (Michael W. Deem and Ramdas Pophale) SiO2 
 PCOD9296979
Probable space group: C 2/C
;
_chemical_formula_sum "Si O2"
_cell_formula_units_Z 48
_cell_length_a 7.688995
_cell_length_b 23.902446
_cell_length_c 13.011326
_cell_angle_alpha 90.000000
_cell_angle_beta 52.619899
_cell_angle_gamma 90.000000
_cell_volume 1900.185453
_symmetry_space_group_name_H-M "C 2/C"
_symmetry_group_IT_number 15
_symmetry_cell_setting 'monoclinic'
loop_
_space_group_symop_operation_xyz
x,y,z
-x,y,1/2-z
-x,-y,-z
x,-y,1/2+z
1/2+x,1/2+y,z
1/2-x,1/2+y,1/2-z
1/2-x,1/2-y,-z
1/2+x,1/2-y,1/2+z
loop_
_atom_site_type_symbol
_atom_site_label
_atom_site_fract_x
_atom_site_fract_y
_atom_site_fract_z
Si Si1 0.750991 0.276007 0.697382
Si Si2 0.658814 0.146373 0.497718
Si Si3 0.599881 0.485395 0.352342
Si Si4 0.732149 0.902127 0.467052
Si Si5 0.500000 0.689360 0.750000
Si Si6 0.000000 0.081369 0.250000
Si Si7 0.000000 0.365764 0.750000
Si Si8 0.000000 0.598464 0.750000
O O1 0.500000 0.270135 0.750000
O O2 0.873508 0.294122 0.546659
O O3 0.841243 0.225225 0.733104
O O4 0.833876 0.327548 0.741258
O O5 0.485440 0.100581 0.520768
O O6 0.879914 0.120830 0.374233
O O7 0.626717 0.140895 0.628642
O O8 0.500000 0.500000 0.500000
O O9 0.387483 0.452985 0.386055
O O10 0.645546 0.539885 0.267597
O O11 0.805095 0.443583 0.285338
O O12 0.863157 0.848048 0.378932
O O13 0.649866 0.897897 0.613631
#
# Coordination Sequence:
#
# PCOD9296979 Si02
#       8
#     8   8   8   8   4   4   4   4
#     4  10  23  46  78 111 144 200 252 313 385 460
#     4  11  25  46  78 105 154 196 252 313 384 446
#     4  12  28  44  75 114 147 202 254 304 378 453
#     4  11  26  50  74 103 155 201 242 323 376 452
#     4  11  25  54  77 110 152 201 263 310 391 458
#     4  12  25  48  73 107 156 198 251 310 378 462
#     4   9  24  43  79 104 154 199 248 305 397 448
#     4  12  26  45  71 119 148 194 256 317 368 450
#
# _framework density 25.260691999999999
#
# number of rings (size 3 to 8) (size 9 to 14) (size 15 to 20)
#    0.000    1.000    2.500    2.500    9.333    7.333 
#    6.000    4.167    3.667    0.000    0.000    0.000 
#    0.000    0.000    0.000    0.000    0.000    0.000 
#
# Total GULP energy -134148.582243 kJ/mol
# GULP energy per Si atom -5589.524260 kJ/mol
# Density = 2.520320 g / cm^3
# Si number density = 25.260692 Si / 1000 Ang^3
#
#
#
# Elastic Constant Matrix: (Units=GPa)
#
#
# Indices 1 2 3 4 5 6 
#
# 1 113.7732 21.0058 23.4433 0.0000 -14.8831 0.0000
# 2 21.0058 70.8072 47.2178 0.0000 9.1261 0.0000
# 3 23.4433 47.2178 193.0112 0.0000 16.7814 0.0000
# 4 0.0000 0.0000 0.0000 12.8500 0.0000 -1.4735
# 5 -14.8831 9.1261 16.7814 0.0000 46.4255 0.0000
# 6 0.0000 0.0000 0.0000 -1.4735 0.0000 28.6496
#
#
#
# Elastic Compliance Matrix: (Units=1/GPa)
#
#
# Indices 1 2 3 4 5 6 
#
# 1 0.010046 -0.002937 -0.000859 0.000000 0.004108 0.000000
# 2 -0.002937 0.017896 -0.003751 0.000000 -0.003103 0.000000
# 3 -0.000859 -0.003751 0.006363 0.000000 -0.001838 0.000000
# 4 0.000000 0.000000 0.000000 0.078283 0.000000 0.004026
# 5 0.004108 -0.003103 -0.001838 0.000000 0.024131 0.000000
# 6 0.000000 0.000000 0.000000 0.004026 0.000000 0.035112
#
#
# Mechanical properties :
#
#
# Convention : Reuss Voigt Hill
#
# Bulk Modulus (GPa) = 52.05613 62.32506 57.19060
# Shear Modulus (GPa) = 25.86273 36.64666 31.25470
#
# Velocity S-wave (km/s) = 3.20321 3.81299 3.52132
# Velocity P-wave (km/s) = 5.85944 6.64165 6.26277
#
# Compressibility (1/GPa) = 0.01921003
#
# Stress axis : x y z
#
# Youngs Moduli (GPa) = 99.54119 55.87908 157.16096
#
# Poissons Ratio (x) = 0.16412 0.13498
# Poissons Ratio (y) = 0.29236 0.58958
# Poissons Ratio (z) = 0.08550 0.20963
#
# Static dielectric constant tensor:
#      x y z
#    x 2.105720 0.000000 0.079090 
#    y 0.000000 1.993660 0.000000 
#    z 0.079090 0.000000 2.104570 
# 
# From -- ./inp_files/138983.got.cif
#   From: 2010.05.17/outbox.cif.g08.bks.cpg/sg15_70_cif.got.tgz:138983.got - 2010.06.03 18:47:42.
