data_PCOD9296981
_publ_section_title
;
Structure prediction by ZEFSAII (Michael W. Deem and Ramdas Pophale) SiO2 
 PCOD9296981
Probable space group: C 2/C
;
_chemical_formula_sum "Si O2"
_cell_formula_units_Z 32
_cell_length_a 11.152905
_cell_length_b 8.718016
_cell_length_c 13.869349
_cell_angle_alpha 90.000000
_cell_angle_beta 69.596973
_cell_angle_gamma 90.000000
_cell_volume 1263.931331
_symmetry_space_group_name_H-M "C 2/C"
_symmetry_group_IT_number 15
_symmetry_cell_setting 'monoclinic'
loop_
_space_group_symop_operation_xyz
x,y,z
-x,y,1/2-z
-x,-y,-z
x,-y,1/2+z
1/2+x,1/2+y,z
1/2-x,1/2+y,1/2-z
1/2-x,1/2-y,-z
1/2+x,1/2-y,1/2+z
loop_
_atom_site_type_symbol
_atom_site_label
_atom_site_fract_x
_atom_site_fract_y
_atom_site_fract_z
Si Si1 0.148417 0.389765 0.514157
Si Si2 0.000000 0.992593 0.750000
Si Si3 0.269703 0.860396 0.663611
Si Si4 0.000000 0.577559 0.250000
Si Si5 0.041352 0.851147 0.433825
O O1 0.250000 0.250000 0.500000
O O2 0.204828 0.512116 0.425015
O O3 0.086010 0.460282 0.628614
O O4 0.029657 0.295014 0.502108
O O5 0.876573 0.887138 0.767518
O O6 0.009879 0.109638 0.658443
O O7 0.370711 0.878334 0.722362
O O8 0.310375 0.693759 0.611917
O O9 0.000000 0.000000 0.500000
#
# Coordination Sequence:
#
# PCOD9296981 Si02
#       5
#     8   4   8   4   8
#     4  11  23  46  79 109 154 211 267 320 403 473
#     4  12  27  46  77 114 161 204 265 330 413 474
#     4  11  26  48  81 115 153 217 265 328 407 479
#     4  10  23  46  79 104 155 208 267 326 393 464
#     4  11  25  46  74 108 158 200 264 337 394 470
#
# _framework density 25.317831000000002
#
# number of rings (size 3 to 8) (size 9 to 14) (size 15 to 20)
#    0.000    1.000    2.500    6.000    3.500    1.000 
#    0.000    8.750    0.000    0.000    0.000    0.000 
#    0.000    0.000    0.000    0.000    0.000    0.000 
#
# Total GULP energy -89104.568577 kJ/mol
# GULP energy per Si atom -5569.035536 kJ/mol
# Density = 2.526021 g / cm^3
# Si number density = 25.317831 Si / 1000 Ang^3
#
#
#
# Elastic Constant Matrix: (Units=GPa)
#
#
# Indices 1 2 3 4 5 6 
#
# 1 197.4570 49.9790 37.8690 0.0000 -27.8245 0.0000
# 2 49.9790 82.5031 34.8065 0.0000 2.2881 0.0000
# 3 37.8690 34.8065 122.5857 0.0000 11.9783 0.0000
# 4 0.0000 0.0000 0.0000 16.7853 0.0000 -19.8869
# 5 -27.8245 2.2881 11.9783 0.0000 39.5624 0.0000
# 6 0.0000 0.0000 0.0000 -19.8869 0.0000 55.9021
#
#
#
# Elastic Compliance Matrix: (Units=1/GPa)
#
#
# Indices 1 2 3 4 5 6 
#
# 1 0.007161 -0.003780 -0.001703 0.000000 0.005770 0.000000
# 2 -0.003780 0.015771 -0.003052 0.000000 -0.002646 0.000000
# 3 -0.001703 -0.003052 0.009944 0.000000 -0.004032 0.000000
# 4 0.000000 0.000000 0.000000 0.102979 0.000000 0.036634
# 5 0.005770 -0.002646 -0.004032 0.000000 0.030709 0.000000
# 6 0.000000 0.000000 0.000000 0.036634 0.000000 0.030921
#
#
# Mechanical properties :
#
#
# Convention : Reuss Voigt Hill
#
# Bulk Modulus (GPa) = 63.26033 71.98389 67.62211
# Shear Modulus (GPa) = 22.74565 41.10938 31.92751
#
# Velocity S-wave (km/s) = 3.00059 4.03393 3.55500
# Velocity P-wave (km/s) = 6.08650 7.08453 6.60439
#
# Compressibility (1/GPa) = 0.01580769
#
# Stress axis : x y z
#
# Youngs Moduli (GPa) = 139.65071 63.40651 100.56228
#
# Poissons Ratio (x) = 0.23965 0.17124
# Poissons Ratio (y) = 0.52781 0.30691
# Poissons Ratio (z) = 0.23779 0.19351
#
# Static dielectric constant tensor:
#      x y z
#    x 2.061670 0.000000 -0.065190 
#    y 0.000000 1.862160 0.000000 
#    z -0.065190 0.000000 1.997310 
# 
# From -- ./inp_files/140483.got.cif
#   From: 2010.05.17/outbox.cif.g08.bks.cpg/sg15_71_cif.got.tgz:140483.got - 2010.06.03 18:47:42.
