data_PCOD9296704
_publ_section_title
;
Structure prediction by ZEFSAII (Michael W. Deem and Ramdas Pophale) SiO2 
 PCOD9296704
Probable space group: C 2/C
;
_chemical_formula_sum "Si O2"
_cell_formula_units_Z 32
_cell_length_a 14.099931
_cell_length_b 16.924176
_cell_length_c 8.420086
_cell_angle_alpha 90.000000
_cell_angle_beta 36.099841
_cell_angle_gamma 90.000000
_cell_volume 1183.857550
_symmetry_space_group_name_H-M "C 2/C"
_symmetry_group_IT_number 15
_symmetry_cell_setting 'monoclinic'
loop_
_space_group_symop_operation_xyz
x,y,z
-x,y,1/2-z
-x,-y,-z
x,-y,1/2+z
1/2+x,1/2+y,z
1/2-x,1/2+y,1/2-z
1/2-x,1/2-y,-z
1/2+x,1/2-y,1/2+z
loop_
_atom_site_type_symbol
_atom_site_label
_atom_site_fract_x
_atom_site_fract_y
_atom_site_fract_z
Si Si1 0.631536 0.065530 0.781032
Si Si2 0.353145 0.817865 0.638026
Si Si3 0.966929 0.157396 0.107077
Si Si4 0.800023 0.071141 0.885262
O O1 0.712379 0.085707 0.836950
O O2 0.754864 0.017801 0.501340
O O3 0.520484 0.137056 0.877495
O O4 0.500000 0.000000 0.000000
O O5 0.215385 0.818576 0.689203
O O6 0.413785 0.730369 0.595455
O O7 0.271584 0.866722 0.892310
O O8 0.000000 0.142817 0.250000
O O9 0.017577 0.088578 0.914086
#
# Coordination Sequence:
#
# PCOD9296704 Si02
#       4
#     8   8   8   8
#     4  10  23  45  73 105 144 194 244 302 372 443
#     4  11  24  47  74 108 147 196 249 312 374 444
#     4  12  27  46  74 110 149 196 253 310 372 447
#     4  11  25  46  73 107 148 198 249 306 374 446
#
# _framework density 27.030277999999999
#
# number of rings (size 3 to 8) (size 9 to 14) (size 15 to 20)
#    0.000    1.000    0.000    6.750    0.000   12.000 
#    0.000   20.000    0.000    0.000    0.000    0.000 
#    0.000    0.000    0.000    0.000    0.000    0.000 
#
# Total GULP energy -89677.571995 kJ/mol
# GULP energy per Si atom -5604.848250 kJ/mol
# Density = 2.696876 g / cm^3
# Si number density = 27.030278 Si / 1000 Ang^3
#
#
#
# Elastic Constant Matrix: (Units=GPa)
#
#
# Indices 1 2 3 4 5 6 
#
# 1 195.8549 42.0823 76.6886 -0.0009 -2.7824 0.0006
# 2 42.0823 139.4154 65.1997 -0.0004 -1.6204 0.0004
# 3 76.6886 65.1997 182.6317 -0.0012 1.4167 0.0011
# 4 -0.0009 -0.0004 -0.0012 54.4586 0.0009 -1.8258
# 5 -2.7824 -1.6204 1.4167 0.0009 54.6169 -0.0007
# 6 0.0006 0.0004 0.0011 -1.8258 -0.0007 43.7046
#
#
#
# Elastic Compliance Matrix: (Units=1/GPa)
#
#
# Indices 1 2 3 4 5 6 
#
# 1 0.006188 -0.000777 -0.002324 0.000000 0.000352 0.000000
# 2 -0.000777 0.008714 -0.002787 0.000000 0.000291 0.000000
# 3 -0.002324 -0.002787 0.007449 0.000000 -0.000394 0.000000
# 4 0.000000 0.000000 0.000000 0.018388 0.000000 0.000768
# 5 0.000352 0.000291 -0.000394 0.000000 0.018346 0.000000
# 6 0.000000 0.000000 0.000000 0.000768 0.000000 0.022913
#
#
# Mechanical properties :
#
#
# Convention : Reuss Voigt Hill
#
# Bulk Modulus (GPa) = 94.55467 98.42701 96.49084
# Shear Modulus (GPa) = 51.38820 52.81811 52.10316
#
# Velocity S-wave (km/s) = 4.36493 4.42524 4.39519
# Velocity P-wave (km/s) = 7.77563 7.91221 7.84422
#
# Compressibility (1/GPa) = 0.01057589
#
# Stress axis : x y z
#
# Youngs Moduli (GPa) = 161.61398 114.75699 134.24285
#
# Poissons Ratio (x) = 0.08916 0.31192
# Poissons Ratio (y) = 0.12557 0.37413
# Poissons Ratio (z) = 0.37552 0.31982
#
# Static dielectric constant tensor:
#      x y z
#    x 2.088220 0.000000 0.047110 
#    y 0.000000 2.133590 0.000000 
#    z 0.047110 0.000000 2.027210 
# 
# From -- ./inp_files/41150.got.cif
#   From: 2010.05.17/outbox.cif.g08.bks.cpg/sg15_21_cif.got.tgz:41150.got - 2010.06.03 18:47:42.
