data_PCOD9296038
_publ_section_title
;
Structure prediction by ZEFSAII (Michael W. Deem and Ramdas Pophale) SiO2 
 PCOD9296038
Probable space group: C 2/C
;
_chemical_formula_sum "Si O2"
_cell_formula_units_Z 44
_cell_length_a 5.903800
_cell_length_b 24.266413
_cell_length_c 15.155516
_cell_angle_alpha 90.000000
_cell_angle_beta 123.364327
_cell_angle_gamma 90.000000
_cell_volume 1813.399375
_symmetry_space_group_name_H-M "C 2/C"
_symmetry_group_IT_number 15
_symmetry_cell_setting 'monoclinic'
loop_
_space_group_symop_operation_xyz
x,y,z
-x,y,1/2-z
-x,-y,-z
x,-y,1/2+z
1/2+x,1/2+y,z
1/2-x,1/2+y,1/2-z
1/2-x,1/2-y,-z
1/2+x,1/2-y,1/2+z
loop_
_atom_site_type_symbol
_atom_site_label
_atom_site_fract_x
_atom_site_fract_y
_atom_site_fract_z
Si Si1 0.757498 0.609651 0.642992
Si Si2 0.401287 0.332585 0.566351
Si Si3 0.000000 0.139251 0.750000
Si Si4 0.842602 0.512894 0.126937
Si Si5 0.347587 0.230407 0.926030
Si Si6 0.342289 0.549554 0.129057
O O1 0.608778 0.643279 0.535788
O O2 0.561907 0.598889 0.682237
O O3 0.874089 0.553354 0.629521
O O4 0.000000 0.639818 0.750000
O O5 0.631894 0.286785 0.626484
O O6 0.382398 0.384956 0.624651
O O7 0.131547 0.297100 0.511736
O O8 0.801938 0.182761 0.659526
O O9 0.525876 0.525843 0.086122
O O10 0.000000 0.532167 0.250000
O O11 0.022692 0.537676 0.084355
O O12 0.250000 0.250000 0.000000
O O13 0.500000 0.530432 0.250000
#
# Coordination Sequence:
#
# PCOD9296038 Si02
#       6
#     8   8   4   8   8   8
#     4  11  23  41  68 100 132 181 222 289 345 409
#     4  11  25  43  68  96 141 173 232 286 348 413
#     4  12  24  42  74  94 136 184 236 280 366 402
#     4   9  22  40  67 100 141 178 232 278 341 418
#     4  11  25  44  64  99 132 176 232 292 335 420
#     4  10  23  44  66 103 141 185 222 283 348 417
#
# _framework density 24.263822000000001
#
# number of rings (size 3 to 8) (size 9 to 14) (size 15 to 20)
#    0.000    1.455    3.636    0.000    8.909    2.909 
#    1.636    0.000    0.000    0.000    0.000    0.000 
#    0.000    0.000    0.000    0.000    0.000    0.000 
#
# Total GULP energy -122554.300823 kJ/mol
# GULP energy per Si atom -5570.650037 kJ/mol
# Density = 2.420860 g / cm^3
# Si number density = 24.263822 Si / 1000 Ang^3
#
#
#
# Elastic Constant Matrix: (Units=GPa)
#
#
# Indices 1 2 3 4 5 6 
#
# 1 144.9777 40.8103 18.1164 0.0000 -21.6340 0.0000
# 2 40.8103 106.8176 -4.1999 0.0000 -8.7074 0.0000
# 3 18.1164 -4.1999 57.6781 0.0000 -11.0216 0.0000
# 4 0.0000 0.0000 0.0000 33.3342 0.0000 3.1465
# 5 -21.6340 -8.7074 -11.0216 0.0000 33.6652 0.0000
# 6 0.0000 0.0000 0.0000 3.1465 0.0000 27.0420
#
#
#
# Elastic Compliance Matrix: (Units=1/GPa)
#
#
# Indices 1 2 3 4 5 6 
#
# 1 0.008631 -0.003052 -0.002159 0.000000 0.004050 0.000000
# 2 -0.003052 0.010728 0.002022 0.000000 0.001475 0.000000
# 3 -0.002159 0.002022 0.019199 0.000000 0.005421 0.000000
# 4 0.000000 0.000000 0.000000 0.030332 0.000000 -0.003529
# 5 0.004050 0.001475 0.005421 0.000000 0.034463 0.000000
# 6 0.000000 0.000000 0.000000 -0.003529 0.000000 0.037390
#
#
# Mechanical properties :
#
#
# Convention : Reuss Voigt Hill
#
# Bulk Modulus (GPa) = 31.07727 46.54744 38.81236
# Shear Modulus (GPa) = 31.67587 35.79139 33.73363
#
# Velocity S-wave (km/s) = 3.61706 3.84486 3.73270
# Velocity P-wave (km/s) = 5.50273 6.23988 5.88286
#
# Compressibility (1/GPa) = 0.03217785
#
# Stress axis : x y z
#
# Youngs Moduli (GPa) = 115.86145 93.21727 52.08633
#
# Poissons Ratio (x) = 0.28452 0.11247
# Poissons Ratio (y) = 0.35364 -0.10530
# Poissons Ratio (z) = 0.25018 -0.18846
#
# Static dielectric constant tensor:
#      x y z
#    x 2.198550 0.000000 0.064340 
#    y 0.000000 1.939680 0.000000 
#    z 0.064340 0.000000 1.909090 
# 
# From -- ./inp_files/129349.got.cif
#   From: 2010.05.17/outbox.cif.g08.bks.cpg/sg15_65_cif.got.tgz:129349.got - 2010.06.03 18:47:42.
