data_PCOD9296503
_publ_section_title
;
Structure prediction by ZEFSAII (Michael W. Deem and Ramdas Pophale) SiO2 
 PCOD9296503
Probable space group: C 2/C
;
_chemical_formula_sum "Si O2"
_cell_formula_units_Z 64
_cell_length_a 8.400864
_cell_length_b 24.645509
_cell_length_c 15.552525
_cell_angle_alpha 90.000000
_cell_angle_beta 101.922802
_cell_angle_gamma 90.000000
_cell_volume 3150.583642
_symmetry_space_group_name_H-M "C 2/C"
_symmetry_group_IT_number 15
_symmetry_cell_setting 'monoclinic'
loop_
_space_group_symop_operation_xyz
x,y,z
-x,y,1/2-z
-x,-y,-z
x,-y,1/2+z
1/2+x,1/2+y,z
1/2-x,1/2+y,1/2-z
1/2-x,1/2-y,-z
1/2+x,1/2-y,1/2+z
loop_
_atom_site_type_symbol
_atom_site_label
_atom_site_fract_x
_atom_site_fract_y
_atom_site_fract_z
Si Si1 0.647686 0.079974 0.817215
Si Si2 0.018019 0.946767 0.057667
Si Si3 0.773882 0.787172 0.616574
Si Si4 0.423090 0.181003 0.569048
Si Si5 0.171090 0.678753 0.293522
Si Si6 0.804671 0.788413 0.100452
Si Si7 0.351289 0.602191 0.683082
Si Si8 0.569784 0.341616 0.554552
O O1 0.500000 0.048931 0.750000
O O2 0.806464 0.050636 0.874578
O O3 0.594797 0.122946 0.885429
O O4 0.715700 0.109886 0.739498
O O5 0.856461 0.935690 0.099420
O O6 0.015317 0.892352 0.999696
O O7 0.000000 0.000000 0.000000
O O8 0.637409 0.811632 0.536598
O O9 0.802138 0.722827 0.605517
O O10 0.749105 0.802591 0.712268
O O11 0.940495 0.811733 0.599213
O O12 0.612668 0.198421 0.591862
O O13 0.144925 0.733268 0.347628
O O14 0.283987 0.642078 0.366003
O O15 0.000000 0.653223 0.250000
O O16 0.896055 0.838349 0.155992
O O17 0.859656 0.799193 0.008342
O O18 0.500000 0.576730 0.750000
#
# Coordination Sequence:
#
# PCOD9296503 Si02
#       8
#     8   8   8   8   8   8   8   8
#     4  11  20  37  66  99 120 153 206 268 312 369
#     4  10  23  45  66  88 123 162 205 268 331 375
#     4  11  24  37  55  90 129 172 209 243 303 390
#     4  11  22  35  59  88 132 162 202 252 313 367
#     4  12  25  37  55  87 133 175 214 244 299 383
#     4  11  21  35  58  87 127 169 201 257 307 361
#     4   9  19  34  59  90 119 151 204 251 305 362
#     4  11  23  41  62  88 122 169 219 257 312 379
#
# _framework density 20.313694999999999
#
# number of rings (size 3 to 8) (size 9 to 14) (size 15 to 20)
#    0.000    1.250    3.750    2.625    3.500    0.000 
#    0.000    5.000    0.000    0.000    0.000    0.000 
#    0.000    0.000    0.000    0.000    0.000    0.000 
#
# Total GULP energy -178179.701095 kJ/mol
# GULP energy per Si atom -5568.115659 kJ/mol
# Density = 2.026746 g / cm^3
# Si number density = 20.313695 Si / 1000 Ang^3
#
#
#
# Elastic Constant Matrix: (Units=GPa)
#
#
# Indices 1 2 3 4 5 6 
#
# 1 68.3840 4.5480 35.4064 0.0000 18.2125 0.0000
# 2 4.5480 39.9880 16.9524 0.0000 3.7265 0.0000
# 3 35.4064 16.9524 119.8181 0.0000 8.1796 0.0000
# 4 0.0000 0.0000 0.0000 19.1482 0.0000 4.0323
# 5 18.2125 3.7265 8.1796 0.0000 49.3950 0.0000
# 6 0.0000 0.0000 0.0000 4.0323 0.0000 13.2414
#
#
#
# Elastic Compliance Matrix: (Units=1/GPa)
#
#
# Indices 1 2 3 4 5 6 
#
# 1 0.018951 0.000654 -0.005272 0.000000 -0.006164 0.000000
# 2 0.000654 0.026722 -0.003864 0.000000 -0.001617 0.000000
# 3 -0.005272 -0.003864 0.010416 0.000000 0.000510 0.000000
# 4 0.000000 0.000000 0.000000 0.055803 0.000000 -0.016993
# 5 -0.006164 -0.001617 0.000510 0.000000 0.022555 0.000000
# 6 0.000000 0.000000 0.000000 -0.016993 0.000000 0.080695
#
#
# Mechanical properties :
#
#
# Convention : Reuss Voigt Hill
#
# Bulk Modulus (GPa) = 25.55878 38.00041 31.77960
# Shear Modulus (GPa) = 20.39602 27.77582 24.08592
#
# Velocity S-wave (km/s) = 3.17212 3.70177 3.44713
# Velocity P-wave (km/s) = 5.10155 6.08426 5.61445
#
# Compressibility (1/GPa) = 0.03912549
#
# Stress axis : x y z
#
# Youngs Moduli (GPa) = 52.76798 37.42271 96.01005
#
# Poissons Ratio (x) = -0.02447 0.50614
# Poissons Ratio (y) = -0.03451 0.37094
# Poissons Ratio (z) = 0.27818 0.14458
#
# Static dielectric constant tensor:
#      x y z
#    x 1.848200 0.000000 0.015790 
#    y 0.000000 1.691370 0.000000 
#    z 0.015790 0.000000 1.814790 
# 
# From -- ./inp_files/138638.got.cif
#   From: 2010.05.17/outbox.cif.g08.bks.cpg/sg15_70_cif.got.tgz:138638.got - 2010.06.03 18:47:42.
