data_PCOD9296487
_publ_section_title
;
Structure prediction by ZEFSAII (Michael W. Deem and Ramdas Pophale) SiO2 
 PCOD9296487
Probable space group: C 2/C
;
_chemical_formula_sum "Si O2"
_cell_formula_units_Z 44
_cell_length_a 30.968238
_cell_length_b 8.411692
_cell_length_c 25.616584
_cell_angle_alpha 90.000000
_cell_angle_beta 162.723975
_cell_angle_gamma 90.000000
_cell_volume 1981.716181
_symmetry_space_group_name_H-M "C 2/C"
_symmetry_group_IT_number 15
_symmetry_cell_setting 'monoclinic'
loop_
_space_group_symop_operation_xyz
x,y,z
-x,y,1/2-z
-x,-y,-z
x,-y,1/2+z
1/2+x,1/2+y,z
1/2-x,1/2+y,1/2-z
1/2-x,1/2-y,-z
1/2+x,1/2-y,1/2+z
loop_
_atom_site_type_symbol
_atom_site_label
_atom_site_fract_x
_atom_site_fract_y
_atom_site_fract_z
Si Si1 0.000000 0.356078 0.250000
Si Si2 0.336008 0.127809 0.397896
Si Si3 0.842478 0.873307 0.487888
Si Si4 0.026439 0.847564 0.414580
Si Si5 0.405885 0.039582 0.237951
Si Si6 0.166173 0.814896 0.205212
O O1 0.904458 0.243772 0.103060
O O2 0.907704 0.465154 0.182673
O O3 0.270711 0.262524 0.360677
O O4 0.464536 0.044279 0.579020
O O5 0.391493 0.214796 0.410165
O O6 0.222344 0.989156 0.253415
O O7 0.736963 0.993925 0.395388
O O8 0.963973 0.977283 0.598369
O O9 0.189854 0.780626 0.610077
O O10 0.940937 0.725465 0.278629
O O11 0.944954 0.835305 0.375782
#
# Coordination Sequence:
#
# PCOD9296487 Si02
#       6
#     4   8   8   8   8   8
#     4  10  24  44  70  96 124 166 222 272 344 380
#     4  10  25  39  69  96 135 172 222 264 324 386
#     4  11  23  44  67  97 129 173 214 278 323 394
#     4  11  24  43  67  99 137 171 219 265 325 389
#     4  10  23  45  65  96 130 171 217 277 323 390
#     4  11  24  41  66 102 134 178 216 264 321 390
#
# _framework density 22.202977000000001
#
# number of rings (size 3 to 8) (size 9 to 14) (size 15 to 20)
#    0.000    1.455    1.818    1.636    7.636    3.636 
#    3.273    1.818    0.000    0.000    0.000    0.000 
#    0.000    0.000    0.000    0.000    0.000    0.000 
#
# Total GULP energy -123070.408520 kJ/mol
# GULP energy per Si atom -5594.109478 kJ/mol
# Density = 2.215244 g / cm^3
# Si number density = 22.202977 Si / 1000 Ang^3
#
#
#
# Elastic Constant Matrix: (Units=GPa)
#
#
# Indices 1 2 3 4 5 6 
#
# 1 152.7869 53.6686 24.8503 0.0000 5.2968 0.0033
# 2 53.6686 116.0150 6.3847 -0.0002 -15.7223 0.0061
# 3 24.8503 6.3847 25.4402 -0.0003 2.1673 0.0086
# 4 0.0000 -0.0002 -0.0003 15.6334 -0.0001 2.7651
# 5 5.2968 -15.7223 2.1673 -0.0001 26.9820 0.0062
# 6 0.0033 0.0061 0.0086 2.7651 0.0062 177.3212
#
#
#
# Elastic Compliance Matrix: (Units=1/GPa)
#
#
# Indices 1 2 3 4 5 6 
#
# 1 0.009540 -0.004504 -0.007858 0.000000 -0.003866 0.000000
# 2 -0.004504 0.011693 0.000815 0.000000 0.007632 -0.000001
# 3 -0.007858 0.000815 0.046929 0.000001 -0.001752 -0.000002
# 4 0.000000 0.000000 0.000001 0.064142 0.000001 -0.001000
# 5 -0.003866 0.007632 -0.001752 0.000001 0.042409 -0.000002
# 6 0.000000 -0.000001 -0.000002 -0.001000 -0.000002 0.005655
#
#
# Mechanical properties :
#
#
# Convention : Reuss Voigt Hill
#
# Bulk Modulus (GPa) = 22.18981 51.56105 36.87543
# Shear Modulus (GPa) = 22.88493 57.94322 40.41407
#
# Velocity S-wave (km/s) = 3.21396 5.11407 4.27102
# Velocity P-wave (km/s) = 4.87734 7.62526 6.40051
#
# Compressibility (1/GPa) = 0.04506574
#
# Stress axis : x y z
#
# Youngs Moduli (GPa) = 104.82726 85.52294 21.30891
#
# Poissons Ratio (x) = 0.38523 0.16746
# Poissons Ratio (y) = 0.47219 -0.01737
# Poissons Ratio (z) = 0.82378 -0.06972
#
# Static dielectric constant tensor:
#      x y z
#    x 1.783530 0.000000 -0.003560 
#    y 0.000000 1.821710 0.000000 
#    z -0.003560 0.000000 1.814220 
# 
# From -- ./inp_files/109958.got.cif
#   From: 2010.05.17/outbox.cif.g08.bks.cpg/sg15_55_cif.got.tgz:109958.got - 2010.06.03 18:47:42.
