data_PCOD9296043
_publ_section_title
;
Structure prediction by ZEFSAII (Michael W. Deem and Ramdas Pophale) SiO2 
 PCOD9296043
Probable space group: C 2/C
;
_chemical_formula_sum "Si O2"
_cell_formula_units_Z 48
_cell_length_a 8.968416
_cell_length_b 21.171780
_cell_length_c 12.376647
_cell_angle_alpha 90.000000
_cell_angle_beta 79.378644
_cell_angle_gamma 90.000000
_cell_volume 2309.780710
_symmetry_space_group_name_H-M "C 2/C"
_symmetry_group_IT_number 15
_symmetry_cell_setting 'monoclinic'
loop_
_space_group_symop_operation_xyz
x,y,z
-x,y,1/2-z
-x,-y,-z
x,-y,1/2+z
1/2+x,1/2+y,z
1/2-x,1/2+y,1/2-z
1/2-x,1/2-y,-z
1/2+x,1/2-y,1/2+z
loop_
_atom_site_type_symbol
_atom_site_label
_atom_site_fract_x
_atom_site_fract_y
_atom_site_fract_z
Si Si1 0.360118 0.208608 0.561021
Si Si2 0.120892 0.623621 0.515626
Si Si3 0.000000 0.920097 0.750000
Si Si4 0.274560 0.997569 0.628355
Si Si5 0.948883 0.174075 0.445731
Si Si6 0.500000 0.925026 0.250000
Si Si7 0.392952 0.619743 0.865253
O O1 0.250000 0.250000 0.500000
O O2 0.469661 0.157101 0.489858
O O3 0.479244 0.258433 0.593488
O O4 0.243853 0.167569 0.647561
O O5 0.152066 0.554692 0.459833
O O6 0.267647 0.666340 0.471034
O O7 0.090969 0.614880 0.647643
O O8 0.148670 0.961600 0.715027
O O9 0.987911 0.875971 0.647770
O O10 0.391818 0.030972 0.692417
O O11 0.184802 0.055121 0.583109
O O12 0.009407 0.152676 0.554631
O O13 0.500000 0.606071 0.750000
#
# Coordination Sequence:
#
# PCOD9296043 Si02
#       7
#     8   8   4   8   8   4   8
#     4  10  23  44  66  90 132 174 224 272 327 391
#     4  11  24  41  65  99 129 177 219 279 328 395
#     4  10  24  43  64  96 129 182 212 274 334 400
#     4  11  24  40  65  98 136 167 225 265 342 392
#     4  10  24  43  68  92 136 172 223 272 326 399
#     4  12  24  37  64 100 131 170 216 282 326 396
#     4  11  22  43  68  99 129 175 219 271 332 396
#
# _framework density 20.781192999999998
#
# number of rings (size 3 to 8) (size 9 to 14) (size 15 to 20)
#    0.000    1.333    2.500    2.000    2.333    3.333 
#   12.000    0.000    0.000    0.000    0.000    0.000 
#    0.000    0.000    0.000    0.000    0.000    0.000 
#
# Total GULP energy -133971.260421 kJ/mol
# GULP energy per Si atom -5582.135851 kJ/mol
# Density = 2.073389 g / cm^3
# Si number density = 20.781193 Si / 1000 Ang^3
#
#
#
# Elastic Constant Matrix: (Units=GPa)
#
#
# Indices 1 2 3 4 5 6 
#
# 1 89.4035 47.7670 25.3594 0.0000 -22.3215 0.0000
# 2 47.7670 112.8549 24.3245 0.0000 -26.3302 0.0000
# 3 25.3594 24.3245 70.3991 0.0000 -14.8138 0.0000
# 4 0.0000 0.0000 0.0000 28.6483 0.0000 -13.9453
# 5 -22.3215 -26.3302 -14.8138 0.0000 26.8925 0.0000
# 6 0.0000 0.0000 0.0000 -13.9453 0.0000 68.9364
#
#
#
# Elastic Compliance Matrix: (Units=1/GPa)
#
#
# Indices 1 2 3 4 5 6 
#
# 1 0.016265 -0.004536 -0.002698 0.000000 0.007573 0.000000
# 2 -0.004536 0.012957 -0.001092 0.000000 0.008320 0.000000
# 3 -0.002698 -0.001092 0.016806 0.000000 0.005948 0.000000
# 4 0.000000 0.000000 0.000000 0.038719 0.000000 0.007833
# 5 0.007573 0.008320 0.005948 0.000000 0.054893 0.000000
# 6 0.000000 0.000000 0.000000 0.007833 0.000000 0.016091
#
#
# Mechanical properties :
#
#
# Convention : Reuss Voigt Hill
#
# Bulk Modulus (GPa) = 34.04258 51.95105 42.99681
# Shear Modulus (GPa) = 27.44614 36.57588 32.01101
#
# Velocity S-wave (km/s) = 3.63811 4.19984 3.92903
# Velocity P-wave (km/s) = 5.83651 6.96933 6.42792
#
# Compressibility (1/GPa) = 0.02937498
#
# Stress axis : x y z
#
# Youngs Moduli (GPa) = 61.48270 77.17650 59.50315
#
# Poissons Ratio (x) = 0.35006 0.16055
# Poissons Ratio (y) = 0.27888 0.06500
# Poissons Ratio (z) = 0.16589 0.08431
#
# Static dielectric constant tensor:
#      x y z
#    x 1.787720 0.000000 -0.007120 
#    y 0.000000 1.783360 0.000000 
#    z -0.007120 0.000000 1.700960 
# 
# From -- ./inp_files/79815.got.cif
#   From: 2010.05.17/outbox.cif.g08.bks.cpg/sg15_40_cif.got.tgz:79815.got - 2010.06.03 18:47:42.
