data_PCOD9296691
_publ_section_title
;
Structure prediction by ZEFSAII (Michael W. Deem and Ramdas Pophale) SiO2 
 PCOD9296691
Probable space group: C 2/C
;
_chemical_formula_sum "Si O2"
_cell_formula_units_Z 44
_cell_length_a 11.352360
_cell_length_b 24.421970
_cell_length_c 10.808051
_cell_angle_alpha 90.000000
_cell_angle_beta 141.958883
_cell_angle_gamma 90.000000
_cell_volume 1846.523444
_symmetry_space_group_name_H-M "C 2/C"
_symmetry_group_IT_number 15
_symmetry_cell_setting 'monoclinic'
loop_
_space_group_symop_operation_xyz
x,y,z
-x,y,1/2-z
-x,-y,-z
x,-y,1/2+z
1/2+x,1/2+y,z
1/2-x,1/2+y,1/2-z
1/2-x,1/2-y,-z
1/2+x,1/2-y,1/2+z
loop_
_atom_site_type_symbol
_atom_site_label
_atom_site_fract_x
_atom_site_fract_y
_atom_site_fract_z
Si Si1 0.103349 0.800273 0.095425
Si Si2 0.030147 0.313609 0.418762
Si Si3 0.500000 0.646056 0.750000
Si Si4 0.286259 0.951509 0.436449
Si Si5 0.236541 0.473567 0.813909
Si Si6 0.618104 0.614791 0.237302
O O1 0.316638 0.822915 0.289695
O O2 0.983065 0.814747 0.117395
O O3 0.112843 0.737007 0.065601
O O4 0.004718 0.832544 0.902575
O O5 0.173105 0.364526 0.548269
O O6 0.000000 0.298692 0.250000
O O7 0.321432 0.605269 0.625979
O O8 0.516683 0.952353 0.624760
O O9 0.231653 0.985844 0.515638
O O10 0.233831 0.978525 0.261717
O O11 0.360798 0.423851 0.863384
O O12 0.500000 0.588220 0.250000
#
# Coordination Sequence:
#
# PCOD9296691 Si02
#       6
#     8   8   4   8   8   8
#     4  12  25  43  68 100 138 182 229 283 355 401
#     4  12  24  45  69 100 140 178 235 300 331 414
#     4  12  26  44  66 102 136 184 224 286 340 432
#     4  10  23  45  72  98 144 173 237 284 347 414
#     4  10  23  46  70 103 135 188 222 292 349 414
#     4  12  24  43  72 104 137 184 236 283 356 408
#
# _framework density 23.828562999999999
#
# number of rings (size 3 to 8) (size 9 to 14) (size 15 to 20)
#    0.000    0.727    5.455    2.182    1.273    2.909 
#    6.545    0.000    0.000    0.000    0.000    0.000 
#    0.000    0.000    0.000    0.000    0.000    0.000 
#
# Total GULP energy -123109.367315 kJ/mol
# GULP energy per Si atom -5595.880333 kJ/mol
# Density = 2.377433 g / cm^3
# Si number density = 23.828563 Si / 1000 Ang^3
#
#
#
# Elastic Constant Matrix: (Units=GPa)
#
#
# Indices 1 2 3 4 5 6 
#
# 1 177.1193 57.3653 44.1894 0.0000 -17.2908 0.0000
# 2 57.3653 58.8690 28.4822 0.0000 2.9009 0.0000
# 3 44.1894 28.4822 94.4442 0.0000 7.2581 0.0000
# 4 0.0000 0.0000 0.0000 25.0752 0.0000 -7.1112
# 5 -17.2908 2.9009 7.2581 0.0000 44.7711 0.0000
# 6 0.0000 0.0000 0.0000 -7.1112 0.0000 43.6898
#
#
#
# Elastic Compliance Matrix: (Units=1/GPa)
#
#
# Indices 1 2 3 4 5 6 
#
# 1 0.009294 -0.008204 -0.002219 0.000000 0.004481 0.000000
# 2 -0.008204 0.027135 -0.004016 0.000000 -0.004275 0.000000
# 3 -0.002219 -0.004016 0.013046 0.000000 -0.002712 0.000000
# 4 0.000000 0.000000 0.000000 0.041810 0.000000 0.006805
# 5 0.004481 -0.004275 -0.002712 0.000000 0.024783 0.000000
# 6 0.000000 0.000000 0.000000 0.006805 0.000000 0.023996
#
#
# Mechanical properties :
#
#
# Convention : Reuss Voigt Hill
#
# Bulk Modulus (GPa) = 48.55025 65.61182 57.08103
# Shear Modulus (GPa) = 28.44021 36.06692 32.25356
#
# Velocity S-wave (km/s) = 3.45850 3.89472 3.68308
# Velocity P-wave (km/s) = 6.03054 6.91519 6.48796
#
# Compressibility (1/GPa) = 0.02059722
#
# Stress axis : x y z
#
# Youngs Moduli (GPa) = 107.59708 36.85285 76.65187
#
# Poissons Ratio (x) = 0.30233 0.17007
# Poissons Ratio (y) = 0.88271 0.30785
# Poissons Ratio (z) = 0.23874 0.14801
#
# Static dielectric constant tensor:
#      x y z
#    x 1.903360 0.000000 -0.002560 
#    y 0.000000 1.881970 0.000000 
#    z -0.002560 0.000000 1.940840 
# 
# From -- ./inp_files/91389.got.cif
#   From: 2010.05.17/outbox.cif.g08.bks.cpg/sg15_46_cif.got.tgz:91389.got - 2010.06.03 18:47:42.
