data_PCOD9296873
_publ_section_title
;
Structure prediction by ZEFSAII (Michael W. Deem and Ramdas Pophale) SiO2 
 PCOD9296873
Probable space group: C 2/C
;
_chemical_formula_sum "Si O2"
_cell_formula_units_Z 40
_cell_length_a 16.018508
_cell_length_b 8.327220
_cell_length_c 11.916856
_cell_angle_alpha 90.000000
_cell_angle_beta 80.994518
_cell_angle_gamma 90.000000
_cell_volume 1569.990904
_symmetry_space_group_name_H-M "C 2/C"
_symmetry_group_IT_number 15
_symmetry_cell_setting 'monoclinic'
loop_
_space_group_symop_operation_xyz
x,y,z
-x,y,1/2-z
-x,-y,-z
x,-y,1/2+z
1/2+x,1/2+y,z
1/2-x,1/2+y,1/2-z
1/2-x,1/2-y,-z
1/2+x,1/2-y,1/2+z
loop_
_atom_site_type_symbol
_atom_site_label
_atom_site_fract_x
_atom_site_fract_y
_atom_site_fract_z
Si Si1 0.256248 0.508396 0.625225
Si Si2 0.000000 0.389796 0.250000
Si Si3 0.848726 0.313480 0.675509
Si Si4 0.935487 0.151108 0.103722
Si Si5 0.401106 0.950847 0.974373
Si Si6 0.500000 0.604084 0.750000
O O1 0.205685 0.438766 0.741658
O O2 0.280176 0.694575 0.633620
O O3 0.348192 0.433334 0.600647
O O4 0.197639 0.448583 0.536669
O O5 0.931429 0.272975 0.209054
O O6 0.951086 0.483349 0.356404
O O7 0.899258 0.415324 0.572502
O O8 0.916186 0.210649 0.738276
O O9 0.940418 0.281278 0.003047
O O10 0.001393 0.016472 0.138576
#
# Coordination Sequence:
#
# PCOD9296873 Si02
#       6
#     8   4   8   8   8   4
#     4  11  24  44  71 106 143 185 241 295 359 440
#     4  11  24  43  68 103 142 185 242 293 350 429
#     4  11  24  46  73 105 145 192 237 298 364 429
#     4  10  23  46  71 100 142 189 239 297 357 424
#     4  12  24  42  73 106 142 191 241 299 359 421
#     4   9  24  47  70 103 148 189 238 293 358 437
#
# _framework density 25.477855000000002
#
# number of rings (size 3 to 8) (size 9 to 14) (size 15 to 20)
#    0.000    1.200    0.000    5.400    0.000    5.600 
#    0.000   24.000    0.000    7.200    0.000    0.000 
#    0.000    0.000    0.000    0.000    0.000    0.000 
#
# Total GULP energy -111747.359524 kJ/mol
# GULP energy per Si atom -5587.367976 kJ/mol
# Density = 2.541987 g / cm^3
# Si number density = 25.477855 Si / 1000 Ang^3
#
#
#
# Elastic Constant Matrix: (Units=GPa)
#
#
# Indices 1 2 3 4 5 6 
#
# 1 121.6172 36.5574 22.9091 0.0000 24.0026 0.0000
# 2 36.5574 161.2098 56.6920 0.0000 -4.3590 0.0000
# 3 22.9091 56.6920 78.9958 0.0000 3.1499 0.0000
# 4 0.0000 0.0000 0.0000 43.8011 0.0000 14.6303
# 5 24.0026 -4.3590 3.1499 0.0000 44.5751 0.0000
# 6 0.0000 0.0000 0.0000 14.6303 0.0000 51.1058
#
#
#
# Elastic Compliance Matrix: (Units=1/GPa)
#
#
# Indices 1 2 3 4 5 6 
#
# 1 0.010169 -0.002004 -0.001288 0.000000 -0.005581 0.000000
# 2 -0.002004 0.008760 -0.005799 0.000000 0.002345 0.000000
# 3 -0.001288 -0.005799 0.017238 0.000000 -0.001091 0.000000
# 4 0.000000 0.000000 0.000000 0.025244 0.000000 -0.007227
# 5 -0.005581 0.002345 -0.001091 0.000000 0.025746 0.000000
# 6 0.000000 0.000000 0.000000 -0.007227 0.000000 0.021636
#
#
# Mechanical properties :
#
#
# Convention : Reuss Voigt Hill
#
# Bulk Modulus (GPa) = 55.60466 66.01553 60.81010
# Shear Modulus (GPa) = 37.60207 44.27401 40.93804
#
# Velocity S-wave (km/s) = 3.84588 4.17315 4.01285
# Velocity P-wave (km/s) = 6.44927 7.01337 6.73723
#
# Compressibility (1/GPa) = 0.01798411
#
# Stress axis : x y z
#
# Youngs Moduli (GPa) = 98.33844 114.15061 58.01117
#
# Poissons Ratio (x) = 0.22873 0.07475
# Poissons Ratio (y) = 0.19705 0.33643
# Poissons Ratio (z) = 0.12671 0.66200
#
# Static dielectric constant tensor:
#      x y z
#    x 1.997180 0.000000 0.111240 
#    y 0.000000 2.062990 0.000000 
#    z 0.111240 0.000000 2.083720 
# 
# From -- ./inp_files/102742.got.cif
#   From: 2010.05.17/outbox.cif.g08.bks.cpg/sg15_52_cif.got.tgz:102742.got - 2010.06.03 18:47:42.
