data_PCOD9296089
_publ_section_title
;
Structure prediction by ZEFSAII (Michael W. Deem and Ramdas Pophale) SiO2 
 PCOD9296089
Probable space group: C 2/C
;
_chemical_formula_sum "Si O2"
_cell_formula_units_Z 48
_cell_length_a 15.644291
_cell_length_b 11.557219
_cell_length_c 29.604997
_cell_angle_alpha 90.000000
_cell_angle_beta 157.097398
_cell_angle_gamma 90.000000
_cell_volume 2083.094151
_symmetry_space_group_name_H-M "C 2/C"
_symmetry_group_IT_number 15
_symmetry_cell_setting 'monoclinic'
loop_
_space_group_symop_operation_xyz
x,y,z
-x,y,1/2-z
-x,-y,-z
x,-y,1/2+z
1/2+x,1/2+y,z
1/2-x,1/2+y,1/2-z
1/2-x,1/2-y,-z
1/2+x,1/2-y,1/2+z
loop_
_atom_site_type_symbol
_atom_site_label
_atom_site_fract_x
_atom_site_fract_y
_atom_site_fract_z
Si Si1 0.038048 0.674512 0.982802
Si Si2 0.117961 0.471241 0.438392
Si Si3 0.826085 0.081718 0.809532
Si Si4 0.541911 0.562618 0.473314
Si Si5 0.942892 0.693508 0.035835
Si Si6 0.464903 0.623520 0.781580
O O1 0.777682 0.676629 0.843200
O O2 0.165534 0.594150 0.009330
O O3 0.107428 0.806735 0.012675
O O4 0.050853 0.644734 0.042124
O O5 0.284716 0.486474 0.478470
O O6 0.039371 0.596716 0.417042
O O7 0.924465 0.392530 0.323691
O O8 0.943819 0.188922 0.892037
O O9 0.939248 0.056921 0.816203
O O10 0.823405 0.966975 0.838799
O O11 0.500000 0.500000 0.500000
O O12 0.681216 0.702974 0.896093
O O13 0.500000 0.563195 0.750000
#
# Coordination Sequence:
#
# PCOD9296089 Si02
#       6
#     8   8   8   8   8   8
#     4  10  23  44  67 105 136 171 227 279 350 406
#     4  11  26  42  73  96 138 183 228 283 340 405
#     4  11  24  40  66 101 136 174 231 277 343 398
#     4  12  25  45  66  97 140 181 220 283 347 408
#     4  11  21  44  71  98 137 178 231 282 330 411
#     4   9  20  38  70  98 127 176 229 279 329 400
#
# _framework density 23.042646000000001
#
# number of rings (size 3 to 8) (size 9 to 14) (size 15 to 20)
#    0.000    1.333    3.333    1.500    4.667    0.667 
#    3.000    0.000    0.000    0.000    0.000    0.000 
#    0.000    0.000    0.000    0.000    0.000    0.000 
#
# Total GULP energy -133729.935957 kJ/mol
# GULP energy per Si atom -5572.080665 kJ/mol
# Density = 2.299020 g / cm^3
# Si number density = 23.042646 Si / 1000 Ang^3
#
#
#
# Elastic Constant Matrix: (Units=GPa)
#
#
# Indices 1 2 3 4 5 6 
#
# 1 189.7138 47.6343 44.7614 0.0001 -24.8212 0.0000
# 2 47.6343 72.3933 1.9234 -0.0002 1.4642 -0.0001
# 3 44.7614 1.9234 67.3011 -0.0005 -16.6864 -0.0014
# 4 0.0001 -0.0002 -0.0005 14.9892 0.0001 1.5016
# 5 -24.8212 1.4642 -16.6864 0.0001 28.3041 -0.0002
# 6 0.0000 -0.0001 -0.0014 1.5016 -0.0002 31.7349
#
#
#
# Elastic Compliance Matrix: (Units=1/GPa)
#
#
# Indices 1 2 3 4 5 6 
#
# 1 0.008268 -0.005436 -0.004071 0.000000 0.005132 0.000000
# 2 -0.005436 0.017428 0.002005 0.000000 -0.004487 0.000000
# 3 -0.004071 0.002005 0.019440 0.000001 0.007786 0.000001
# 4 0.000000 0.000000 0.000001 0.067032 0.000000 -0.003172
# 5 0.005132 -0.004487 0.007786 0.000000 0.044653 0.000001
# 6 0.000000 0.000000 0.000001 -0.003172 0.000001 0.031661
#
#
# Mechanical properties :
#
#
# Convention : Reuss Voigt Hill
#
# Bulk Modulus (GPa) = 33.18873 57.56072 45.37473
# Shear Modulus (GPa) = 23.41594 30.67826 27.04710
#
# Velocity S-wave (km/s) = 3.19125 3.65275 3.42977
# Velocity P-wave (km/s) = 5.29275 6.54404 5.95137
#
# Compressibility (1/GPa) = 0.03013071
#
# Stress axis : x y z
#
# Youngs Moduli (GPa) = 120.94925 57.38000 51.44144
#
# Poissons Ratio (x) = 0.31191 0.20943
# Poissons Ratio (y) = 0.65746 -0.10313
# Poissons Ratio (z) = 0.49242 -0.11504
#
# Static dielectric constant tensor:
#      x y z
#    x 1.914750 0.000000 0.065050 
#    y 0.000000 1.856720 0.000000 
#    z 0.065050 0.000000 1.991250 
# 
# From -- ./inp_files/296196.got.cif
#   From: 2010.05.17/outbox.cif.g08.bks.cpg/sg15_149_cif.got.tgz:296196.got - 2010.06.03 18:47:42.
