data_PCOD9296523
_publ_section_title
;
Structure prediction by ZEFSAII (Michael W. Deem and Ramdas Pophale) SiO2 
 PCOD9296523
Probable space group: C 2/C
;
_chemical_formula_sum "Si O2"
_cell_formula_units_Z 32
_cell_length_a 26.234910
_cell_length_b 6.991640
_cell_length_c 11.743172
_cell_angle_alpha 90.000000
_cell_angle_beta 42.892734
_cell_angle_gamma 90.000000
_cell_volume 1466.067102
_symmetry_space_group_name_H-M "C 2/C"
_symmetry_group_IT_number 15
_symmetry_cell_setting 'monoclinic'
loop_
_space_group_symop_operation_xyz
x,y,z
-x,y,1/2-z
-x,-y,-z
x,-y,1/2+z
1/2+x,1/2+y,z
1/2-x,1/2+y,1/2-z
1/2-x,1/2-y,-z
1/2+x,1/2-y,1/2+z
loop_
_atom_site_type_symbol
_atom_site_label
_atom_site_fract_x
_atom_site_fract_y
_atom_site_fract_z
Si Si1 0.896756 0.521656 0.268215
Si Si2 0.663052 0.730263 0.441703
Si Si3 0.247422 0.597892 0.607945
Si Si4 0.531984 0.703665 0.474814
O O1 0.862407 0.587709 0.443046
O O2 0.827613 0.526067 0.293454
O O3 0.931197 0.311365 0.193787
O O4 0.963987 0.664765 0.129467
O O5 0.685656 0.552392 0.484871
O O6 0.733082 0.786832 0.247655
O O7 0.595471 0.684713 0.466966
O O8 0.250000 0.750000 0.500000
O O9 0.500000 0.500000 0.500000
#
# Coordination Sequence:
#
# PCOD9296523 Si02
#       4
#     8   8   8   8
#     4  10  23  45  67 101 140 172 236 283 343 411
#     4  11  24  43  69 102 134 187 233 280 363 405
#     4  11  25  43  70 102 140 184 232 292 348 414
#     4  10  24  45  71 101 138 183 231 287 340 419
#
# _framework density 21.827106000000001
#
# number of rings (size 3 to 8) (size 9 to 14) (size 15 to 20)
#    0.000    1.500    0.000    3.000   10.500    0.000 
#    9.000    0.000    0.000    0.000    0.000    0.000 
#    0.000    0.000    0.000    0.000    0.000    0.000 
#
# Total GULP energy -89414.363442 kJ/mol
# GULP energy per Si atom -5588.397715 kJ/mol
# Density = 2.177743 g / cm^3
# Si number density = 21.827106 Si / 1000 Ang^3
#
#
#
# Elastic Constant Matrix: (Units=GPa)
#
#
# Indices 1 2 3 4 5 6 
#
# 1 75.8612 69.0656 23.2450 0.0000 -13.4150 0.0000
# 2 69.0656 148.3415 57.2869 0.0000 4.1937 0.0000
# 3 23.2450 57.2869 106.9104 0.0000 17.2303 0.0000
# 4 0.0000 0.0000 0.0000 25.5109 0.0000 1.9140
# 5 -13.4150 4.1937 17.2303 0.0000 42.6093 0.0000
# 6 0.0000 0.0000 0.0000 1.9140 0.0000 48.7126
#
#
#
# Elastic Compliance Matrix: (Units=1/GPa)
#
#
# Indices 1 2 3 4 5 6 
#
# 1 0.026257 -0.012216 -0.000737 0.000000 0.009767 0.000000
# 2 -0.012216 0.014230 -0.004411 0.000000 -0.003463 0.000000
# 3 -0.000737 -0.004411 0.012671 0.000000 -0.004922 0.000000
# 4 0.000000 0.000000 0.000000 0.039315 0.000000 -0.001545
# 5 0.009767 -0.003463 -0.004922 0.000000 0.028875 0.000000
# 6 0.000000 0.000000 0.000000 -0.001545 0.000000 0.020589
#
#
# Mechanical properties :
#
#
# Convention : Reuss Voigt Hill
#
# Bulk Modulus (GPa) = 54.26131 70.03423 62.14777
# Shear Modulus (GPa) = 27.35096 35.46758 31.40927
#
# Velocity S-wave (km/s) = 3.54372 4.03542 3.79753
# Velocity P-wave (km/s) = 6.45426 7.33951 6.91107
#
# Compressibility (1/GPa) = 0.01842934
#
# Stress axis : x y z
#
# Youngs Moduli (GPa) = 38.08506 70.27269 78.92287
#
# Poissons Ratio (x) = 0.85848 0.05817
# Poissons Ratio (y) = 0.46526 0.34812
# Poissons Ratio (z) = 0.02807 0.30996
#
# Static dielectric constant tensor:
#      x y z
#    x 1.818010 0.000000 -0.019680 
#    y 0.000000 1.824470 0.000000 
#    z -0.019680 0.000000 1.861090 
# 
# From -- ./inp_files/121034.got.cif
#   From: 2010.05.17/outbox.cif.g08.bks.cpg/sg15_61_cif.got.tgz:121034.got - 2010.06.03 18:47:42.
