data_PCOD9296008
_publ_section_title
;
Structure prediction by ZEFSAII (Michael W. Deem and Ramdas Pophale) SiO2 
 PCOD9296008
Probable space group: C 2/C
;
_chemical_formula_sum "Si O2"
_cell_formula_units_Z 56
_cell_length_a 6.378208
_cell_length_b 22.960166
_cell_length_c 16.308854
_cell_angle_alpha 90.000000
_cell_angle_beta 103.667724
_cell_angle_gamma 90.000000
_cell_volume 2320.713213
_symmetry_space_group_name_H-M "C 2/C"
_symmetry_group_IT_number 15
_symmetry_cell_setting 'monoclinic'
loop_
_space_group_symop_operation_xyz
x,y,z
-x,y,1/2-z
-x,-y,-z
x,-y,1/2+z
1/2+x,1/2+y,z
1/2-x,1/2+y,1/2-z
1/2-x,1/2-y,-z
1/2+x,1/2-y,1/2+z
loop_
_atom_site_type_symbol
_atom_site_label
_atom_site_fract_x
_atom_site_fract_y
_atom_site_fract_z
Si Si1 0.230624 0.432659 0.309033
Si Si2 0.271917 0.638068 0.435422
Si Si3 0.553824 0.285356 0.849503
Si Si4 0.841816 0.945512 0.495295
Si Si5 0.340178 0.101008 0.366571
Si Si6 0.500000 0.668553 0.750000
Si Si7 0.814157 0.709371 0.925836
Si Si8 0.000000 0.027254 0.250000
O O1 0.206877 0.431233 0.403289
O O2 0.327026 0.373533 0.278963
O O3 0.408087 0.482792 0.308524
O O4 0.000000 0.446474 0.250000
O O5 0.346574 0.686141 0.376056
O O6 0.491981 0.606615 0.474568
O O7 0.173719 0.651748 0.516545
O O8 0.090041 0.602706 0.372089
O O9 0.500000 0.273284 0.750000
O O10 0.748857 0.332224 0.870914
O O11 0.542204 0.226705 0.903561
O O12 0.693791 0.942666 0.560604
O O13 0.000000 0.000000 0.500000
O O14 0.191426 0.071164 0.286697
O O15 0.632922 0.701585 0.836220
O O16 0.750000 0.750000 0.000000
#
# Coordination Sequence:
#
# PCOD9296008 Si02
#       8
#     8   8   8   8   8   4   8   4
#     4  11  26  43  71 102 140 190 236 295 360 427
#     4  10  24  44  69  97 141 189 226 302 364 420
#     4  10  23  44  65 103 134 176 243 290 353 436
#     4  11  23  43  65 103 140 181 242 286 347 437
#     4  11  24  41  68  96 142 186 232 294 361 426
#     4  11  24  48  70 104 150 180 248 301 354 444
#     4  10  23  46  72  99 140 189 234 304 363 426
#     4  11  24  44  62 106 144 176 242 301 348 442
#
# _framework density 24.130514000000002
#
# number of rings (size 3 to 8) (size 9 to 14) (size 15 to 20)
#    0.000    1.429    3.571    0.000    4.000    4.571 
#    0.000    0.000    0.000    0.000    0.000    0.000 
#    0.000    0.000    0.000    0.000    0.000    0.000 
#
# Total GULP energy -156155.651370 kJ/mol
# GULP energy per Si atom -5576.987549 kJ/mol
# Density = 2.407559 g / cm^3
# Si number density = 24.130514 Si / 1000 Ang^3
#
#
#
# Elastic Constant Matrix: (Units=GPa)
#
#
# Indices 1 2 3 4 5 6 
#
# 1 33.6173 2.4081 31.2898 0.0000 -3.7584 0.0000
# 2 2.4081 33.9059 21.5675 0.0000 -2.0945 0.0000
# 3 31.2898 21.5675 142.4195 0.0000 -0.2516 0.0000
# 4 0.0000 0.0000 0.0000 29.4958 0.0000 -4.0678
# 5 -3.7584 -2.0945 -0.2516 0.0000 48.1112 0.0000
# 6 0.0000 0.0000 0.0000 -4.0678 0.0000 2.6350
#
#
#
# Elastic Compliance Matrix: (Units=1/GPa)
#
#
# Indices 1 2 3 4 5 6 
#
# 1 0.038088 0.003102 -0.008832 0.000000 0.003064 0.000000
# 2 0.003102 0.032984 -0.005674 0.000000 0.001649 0.000000
# 3 -0.008832 -0.005674 0.009820 0.000000 -0.000886 0.000000
# 4 0.000000 0.000000 0.000000 0.043074 0.000000 0.066496
# 5 0.003064 0.001649 -0.000886 0.000000 0.021092 0.000000
# 6 0.000000 0.000000 0.000000 0.066496 0.000000 0.482162
#
#
# Mechanical properties :
#
#
# Convention : Reuss Voigt Hill
#
# Bulk Modulus (GPa) = 17.21640 35.60815 26.41228
# Shear Modulus (GPa) = 7.46952 26.36023 16.91487
#
# Velocity S-wave (km/s) = 1.76130 3.30874 2.65046
# Velocity P-wave (km/s) = 3.35953 5.42084 4.50954
#
# Compressibility (1/GPa) = 0.05808414
#
# Stress axis : x y z
#
# Youngs Moduli (GPa) = 26.25513 30.31786 101.83687
#
# Poissons Ratio (x) = -0.09406 0.89946
# Poissons Ratio (y) = -0.08145 0.57779
# Poissons Ratio (z) = 0.23189 0.17201
#
# Static dielectric constant tensor:
#      x y z
#    x 1.973880 0.000000 -0.115110 
#    y 0.000000 2.154580 0.000000 
#    z -0.115110 0.000000 1.878530 
# 
# From -- ./inp_files/186258.got.cif
#   From: 2010.05.17/outbox.cif.g08.bks.cpg/sg15_94_cif.got.tgz:186258.got - 2010.06.03 18:47:42.
