data_PCOD9296091
_publ_section_title
;
Structure prediction by ZEFSAII (Michael W. Deem and Ramdas Pophale) SiO2 
 PCOD9296091
Probable space group: C 2/C
;
_chemical_formula_sum "Si O2"
_cell_formula_units_Z 44
_cell_length_a 14.845121
_cell_length_b 17.257814
_cell_length_c 7.252175
_cell_angle_alpha 90.000000
_cell_angle_beta 89.352779
_cell_angle_gamma 90.000000
_cell_volume 1857.847627
_symmetry_space_group_name_H-M "C 2/C"
_symmetry_group_IT_number 15
_symmetry_cell_setting 'monoclinic'
loop_
_space_group_symop_operation_xyz
x,y,z
-x,y,1/2-z
-x,-y,-z
x,-y,1/2+z
1/2+x,1/2+y,z
1/2-x,1/2+y,1/2-z
1/2-x,1/2-y,-z
1/2+x,1/2-y,1/2+z
loop_
_atom_site_type_symbol
_atom_site_label
_atom_site_fract_x
_atom_site_fract_y
_atom_site_fract_z
Si Si1 0.308019 0.046800 0.821780
Si Si2 0.331535 0.881310 0.926409
Si Si3 0.500000 0.451578 0.750000
Si Si4 0.171401 0.251709 0.845331
Si Si5 0.118068 0.912435 0.419854
Si Si6 0.029716 0.642292 0.550437
O O1 0.297834 0.095098 0.631844
O O2 0.222232 0.067164 0.948638
O O3 0.403845 0.071092 0.904584
O O4 0.309026 0.954946 0.801726
O O5 0.298980 0.802105 0.832463
O O6 0.439152 0.877463 0.946789
O O7 0.553264 0.401989 0.597331
O O8 0.425613 0.512021 0.674016
O O9 0.128833 0.167339 0.807501
O O10 0.250000 0.250000 0.000000
O O11 0.090646 0.299025 0.938708
O O12 0.000000 0.675002 0.750000
#
# Coordination Sequence:
#
# PCOD9296091 Si02
#       6
#     8   8   4   8   8   8
#     4  11  22  45  73 110 147 191 242 297 363 447
#     4  11  25  41  75 106 148 191 237 299 366 431
#     4  10  26  48  72  98 132 194 244 306 344 428
#     4  12  26  45  66 103 145 191 239 299 358 429
#     4  11  25  47  71 101 140 186 247 295 363 423
#     4  10  23  44  67 110 147 191 236 295 368 431
#
# _framework density 23.683320999999999
#
# number of rings (size 3 to 8) (size 9 to 14) (size 15 to 20)
#    0.000    1.091    1.818    3.273    6.364    3.636 
#    0.000    0.000    0.000    0.000    0.000    0.000 
#    0.000    0.000    0.000    0.000    0.000    0.000 
#
# Total GULP energy -122975.573219 kJ/mol
# GULP energy per Si atom -5589.798783 kJ/mol
# Density = 2.362942 g / cm^3
# Si number density = 23.683321 Si / 1000 Ang^3
#
#
#
# Elastic Constant Matrix: (Units=GPa)
#
#
# Indices 1 2 3 4 5 6 
#
# 1 107.5765 30.6586 52.5633 0.0000 -2.5097 0.0000
# 2 30.6586 121.5334 41.4291 0.0000 -4.0015 0.0000
# 3 52.5633 41.4291 78.9779 0.0000 -6.1406 0.0000
# 4 0.0000 0.0000 0.0000 32.7515 0.0000 1.9147
# 5 -2.5097 -4.0015 -6.1406 0.0000 34.7515 0.0000
# 6 0.0000 0.0000 0.0000 1.9147 0.0000 24.0426
#
#
#
# Elastic Compliance Matrix: (Units=1/GPa)
#
#
# Indices 1 2 3 4 5 6 
#
# 1 0.013808 -0.000432 -0.009013 0.000000 -0.000645 0.000000
# 2 -0.000432 0.010035 -0.004957 0.000000 0.000248 0.000000
# 3 -0.009013 -0.004957 0.021461 0.000000 0.002570 0.000000
# 4 0.000000 0.000000 0.000000 0.030676 0.000000 -0.002443
# 5 -0.000645 0.000248 0.002570 0.000000 0.029212 0.000000
# 6 0.000000 0.000000 0.000000 -0.002443 0.000000 0.041787
#
#
# Mechanical properties :
#
#
# Convention : Reuss Voigt Hill
#
# Bulk Modulus (GPa) = 60.61096 61.93223 61.27159
# Shear Modulus (GPa) = 27.58109 30.53823 29.05966
#
# Velocity S-wave (km/s) = 3.41629 3.59477 3.50667
# Velocity P-wave (km/s) = 6.41944 6.59066 6.50561
#
# Compressibility (1/GPa) = 0.01649867
#
# Stress axis : x y z
#
# Youngs Moduli (GPa) = 72.42301 99.64900 46.59660
#
# Poissons Ratio (x) = 0.04304 0.41999
# Poissons Ratio (y) = 0.03128 0.23099
# Poissons Ratio (z) = 0.65277 0.49399
#
# Static dielectric constant tensor:
#      x y z
#    x 1.861570 0.000000 0.048380 
#    y 0.000000 1.925070 0.000000 
#    z 0.048380 0.000000 1.975850 
# 
# From -- ./inp_files/39086.got.cif
#   From: 2010.05.17/outbox.cif.g08.bks.cpg/sg15_20_cif.got.tgz:39086.got - 2010.06.03 18:47:42.
