data_PCOD9296090
_publ_section_title
;
Structure prediction by ZEFSAII (Michael W. Deem and Ramdas Pophale) SiO2 
 PCOD9296090
Probable space group: C 2/C
;
_chemical_formula_sum "Si O2"
_cell_formula_units_Z 60
_cell_length_a 22.612621
_cell_length_b 14.042665
_cell_length_c 15.697198
_cell_angle_alpha 90.000000
_cell_angle_beta 33.915659
_cell_angle_gamma 90.000000
_cell_volume 2781.217338
_symmetry_space_group_name_H-M "C 2/C"
_symmetry_group_IT_number 15
_symmetry_cell_setting 'monoclinic'
loop_
_space_group_symop_operation_xyz
x,y,z
-x,y,1/2-z
-x,-y,-z
x,-y,1/2+z
1/2+x,1/2+y,z
1/2-x,1/2+y,1/2-z
1/2-x,1/2-y,-z
1/2+x,1/2-y,1/2+z
loop_
_atom_site_type_symbol
_atom_site_label
_atom_site_fract_x
_atom_site_fract_y
_atom_site_fract_z
Si Si1 0.213743 0.185102 0.121669
Si Si2 0.102068 0.458159 0.431264
Si Si3 0.458881 0.757598 0.060581
Si Si4 0.313132 0.156690 0.183310
Si Si5 0.272504 0.663625 0.033507
Si Si6 0.953776 0.930533 0.125730
Si Si7 0.000000 0.924043 0.250000
Si Si8 0.280903 0.031279 0.541372
O O1 0.094611 0.210452 0.292401
O O2 0.267235 0.196420 0.150917
O O3 0.245454 0.076641 0.065128
O O4 0.250000 0.250000 0.000000
O O5 0.108393 0.347830 0.395433
O O6 0.189213 0.540788 0.308517
O O7 0.118299 0.458955 0.515610
O O8 0.000000 0.500000 0.500000
O O9 0.568200 0.806710 0.955069
O O10 0.491418 0.672367 0.956688
O O11 0.255855 0.187834 0.336974
O O12 0.250000 0.750000 0.000000
O O13 0.394566 0.637192 0.881458
O O14 0.206218 0.579799 0.066322
O O15 0.989657 0.975600 0.172888
O O16 0.825313 0.924937 0.285118
O O17 0.000000 0.000000 0.000000
#
# Coordination Sequence:
#
# PCOD9296090 Si02
#       8
#     8   8   8   8   8   8   4   8
#     4  11  25  44  69 100 141 181 235 288 353 436
#     4   9  22  43  68  97 135 182 232 287 350 419
#     4  11  23  42  70  99 134 184 234 275 366 410
#     4  10  23  45  68  99 136 182 232 291 344 424
#     4  11  24  42  69 103 138 183 236 292 362 419
#     4  11  22  42  65  99 139 180 226 292 343 424
#     4  10  24  40  64  98 142 174 234 286 354 414
#     4  10  23  44  67 105 139 181 240 292 360 420
#
# _framework density 21.573287000000001
#
# number of rings (size 3 to 8) (size 9 to 14) (size 15 to 20)
#    0.000    1.600    1.333    2.400    9.333    0.533 
#    4.800    0.000    0.000    0.000    0.000    0.000 
#    0.000    0.000    0.000    0.000    0.000    0.000 
#
# Total GULP energy -167112.355309 kJ/mol
# GULP energy per Si atom -5570.411844 kJ/mol
# Density = 2.152419 g / cm^3
# Si number density = 21.573287 Si / 1000 Ang^3
#
#
#
# Elastic Constant Matrix: (Units=GPa)
#
#
# Indices 1 2 3 4 5 6 
#
# 1 137.6103 45.8297 49.6404 0.0000 25.4455 0.0000
# 2 45.8297 134.0119 20.0029 0.0000 17.5628 0.0000
# 3 49.6404 20.0029 75.4366 0.0000 23.7703 0.0000
# 4 0.0000 0.0000 0.0000 37.8559 0.0000 8.5207
# 5 25.4455 17.5628 23.7703 0.0000 36.3667 0.0000
# 6 0.0000 0.0000 0.0000 8.5207 0.0000 31.5096
#
#
#
# Elastic Compliance Matrix: (Units=1/GPa)
#
#
# Indices 1 2 3 4 5 6 
#
# 1 0.010535 -0.002444 -0.005458 0.000000 -0.002623 0.000000
# 2 -0.002444 0.008611 0.000122 0.000000 -0.002528 0.000000
# 3 -0.005458 0.000122 0.019685 0.000000 -0.009107 0.000000
# 4 0.000000 0.000000 0.000000 0.028128 0.000000 -0.007606
# 5 -0.002623 -0.002528 -0.009107 0.000000 0.036506 0.000000
# 6 0.000000 0.000000 0.000000 -0.007606 0.000000 0.033793
#
#
# Mechanical properties :
#
#
# Convention : Reuss Voigt Hill
#
# Bulk Modulus (GPa) = 42.97339 64.22278 53.59808
# Shear Modulus (GPa) = 31.13809 36.58551 33.86180
#
# Velocity S-wave (km/s) = 3.80328 4.12256 3.96614
# Velocity P-wave (km/s) = 6.26495 7.24534 6.77291
#
# Compressibility (1/GPa) = 0.02327022
#
# Stress axis : x y z
#
# Youngs Moduli (GPa) = 94.92403 116.12983 50.80089
#
# Poissons Ratio (x) = 0.28385 0.27725
# Poissons Ratio (y) = 0.23202 -0.00618
# Poissons Ratio (z) = 0.51805 -0.01413
#
# Static dielectric constant tensor:
#      x y z
#    x 1.796470 0.000000 0.058530 
#    y 0.000000 1.849760 0.000000 
#    z 0.058530 0.000000 1.587530 
# 
# From -- ./inp_files/168631.got.cif
#   From: 2010.05.17/outbox.cif.g08.bks.cpg/sg15_85_cif.got.tgz:168631.got - 2010.06.03 18:47:42.
