data_PCOD9296113
_publ_section_title
;
Structure prediction by ZEFSAII (Michael W. Deem and Ramdas Pophale) SiO2 
 PCOD9296113
Probable space group: C 2/C
;
_chemical_formula_sum "Si O2"
_cell_formula_units_Z 32
_cell_length_a 23.526528
_cell_length_b 9.806368
_cell_length_c 8.690503
_cell_angle_alpha 90.000000
_cell_angle_beta 140.392450
_cell_angle_gamma 90.000000
_cell_volume 1278.228546
_symmetry_space_group_name_H-M "C 2/C"
_symmetry_group_IT_number 15
_symmetry_cell_setting 'monoclinic'
loop_
_space_group_symop_operation_xyz
x,y,z
-x,y,1/2-z
-x,-y,-z
x,-y,1/2+z
1/2+x,1/2+y,z
1/2-x,1/2+y,1/2-z
1/2-x,1/2-y,-z
1/2+x,1/2-y,1/2+z
loop_
_atom_site_type_symbol
_atom_site_label
_atom_site_fract_x
_atom_site_fract_y
_atom_site_fract_z
Si Si1 0.568799 0.565246 0.026653
Si Si2 0.319203 0.703544 0.779843
Si Si3 0.594905 0.928078 0.705930
Si Si4 0.331905 0.831553 0.311520
O O1 0.641671 0.448636 0.143334
O O2 0.618121 0.705762 0.162216
O O3 0.500000 0.600612 0.750000
O O4 0.500000 0.500000 0.000000
O O5 0.250000 0.750000 0.500000
O O6 0.399367 0.805617 0.906104
O O7 0.262747 0.716099 0.817585
O O8 0.500000 0.000000 0.500000
O O9 0.666914 0.039240 0.797616
O O10 0.616540 0.878414 0.923607
#
# Coordination Sequence:
#
# PCOD9296113 Si02
#       4
#     8   8   8   8
#     4  12  25  45  72 104 141 185 234 287 347 418
#     4  10  23  44  67  98 140 184 229 286 345 409
#     4  11  22  41  68  99 136 178 228 286 340 403
#     4  11  24  44  67  99 139 183 230 283 344 414
#
# _framework density 25.034645999999999
#
# number of rings (size 3 to 8) (size 9 to 14) (size 15 to 20)
#    0.000    1.000    0.000    8.250    0.000    6.000 
#    0.000    7.500    0.000    0.000    0.000    0.000 
#    0.000    0.000    0.000    0.000    0.000    0.000 
#
# Total GULP energy -89578.914996 kJ/mol
# GULP energy per Si atom -5598.682187 kJ/mol
# Density = 2.497767 g / cm^3
# Si number density = 25.034646 Si / 1000 Ang^3
#
#
#
# Elastic Constant Matrix: (Units=GPa)
#
#
# Indices 1 2 3 4 5 6 
#
# 1 122.8474 34.0629 18.8139 0.0000 11.4838 0.0000
# 2 34.0629 172.9800 25.3524 0.0000 0.9243 0.0000
# 3 18.8139 25.3524 120.5518 0.0000 2.3924 0.0000
# 4 0.0000 0.0000 0.0000 45.4150 0.0000 11.1289
# 5 11.4838 0.9243 2.3924 0.0000 23.0164 0.0000
# 6 0.0000 0.0000 0.0000 11.1289 0.0000 64.3805
#
#
#
# Elastic Compliance Matrix: (Units=1/GPa)
#
#
# Indices 1 2 3 4 5 6 
#
# 1 0.009157 -0.001633 -0.000998 0.000000 -0.004400 0.000000
# 2 -0.001633 0.006256 -0.001074 0.000000 0.000675 0.000000
# 3 -0.000998 -0.001074 0.008684 0.000000 -0.000361 0.000000
# 4 0.000000 0.000000 0.000000 0.022993 0.000000 -0.003975
# 5 -0.004400 0.000675 -0.000361 0.000000 0.045653 0.000000
# 6 0.000000 0.000000 0.000000 -0.003975 0.000000 0.016220
#
#
# Mechanical properties :
#
#
# Convention : Reuss Voigt Hill
#
# Bulk Modulus (GPa) = 59.93078 63.64862 61.78970
# Shear Modulus (GPa) = 41.00462 49.10571 45.05517
#
# Velocity S-wave (km/s) = 4.05151 4.43370 4.24690
# Velocity P-wave (km/s) = 6.77328 7.18955 6.98452
#
# Compressibility (1/GPa) = 0.01668592
#
# Stress axis : x y z
#
# Youngs Moduli (GPa) = 109.20302 159.83382 115.15326
#
# Poissons Ratio (x) = 0.26107 0.11496
# Poissons Ratio (y) = 0.17837 0.12370
# Poissons Ratio (z) = 0.10902 0.17170
#
# Static dielectric constant tensor:
#      x y z
#    x 2.008290 0.000000 0.047260 
#    y 0.000000 1.956690 0.000000 
#    z 0.047260 0.000000 2.035460 
# 
# From -- ./inp_files/60788.got.cif
#   From: 2010.05.17/outbox.cif.g08.bks.cpg/sg15_31_cif.got.tgz:60788.got - 2010.06.03 18:47:42.
