data_PCOD9296426
_publ_section_title
;
Structure prediction by ZEFSAII (Michael W. Deem and Ramdas Pophale) SiO2 
 PCOD9296426
Probable space group: C 2/C
;
_chemical_formula_sum "Si O2"
_cell_formula_units_Z 48
_cell_length_a 20.920846
_cell_length_b 20.128735
_cell_length_c 7.625346
_cell_angle_alpha 90.000000
_cell_angle_beta 41.361985
_cell_angle_gamma 90.000000
_cell_volume 2121.947014
_symmetry_space_group_name_H-M "C 2/C"
_symmetry_group_IT_number 15
_symmetry_cell_setting 'monoclinic'
loop_
_space_group_symop_operation_xyz
x,y,z
-x,y,1/2-z
-x,-y,-z
x,-y,1/2+z
1/2+x,1/2+y,z
1/2-x,1/2+y,1/2-z
1/2-x,1/2-y,-z
1/2+x,1/2-y,1/2+z
loop_
_atom_site_type_symbol
_atom_site_label
_atom_site_fract_x
_atom_site_fract_y
_atom_site_fract_z
Si Si1 0.000000 0.712175 0.250000
Si Si2 0.081830 0.214199 0.235523
Si Si3 0.664974 0.960050 0.213443
Si Si4 0.000000 0.021431 0.750000
Si Si5 0.883058 0.348322 0.461894
Si Si6 0.130754 0.597656 0.161437
Si Si7 0.372764 0.569138 0.303408
O O1 0.068044 0.658803 0.212863
O O2 0.959057 0.758837 0.492283
O O3 0.146419 0.275327 0.036217
O O4 0.141071 0.146417 0.130809
O O5 0.000000 0.203148 0.250000
O O6 0.627013 0.901865 0.169088
O O7 0.670375 0.934254 0.401329
O O8 0.603440 0.027133 0.314407
O O9 0.777174 0.966693 0.931246
O O10 0.037282 0.065627 0.515373
O O11 0.087740 0.973243 0.617294
O O12 0.824882 0.368399 0.756414
O O13 0.000000 0.345428 0.250000
#
# Coordination Sequence:
#
# PCOD9296426 Si02
#       7
#     4   8   8   4   8   8   8
#     4  12  23  40  70 101 136 182 236 260 336 421
#     4  11  22  44  68  96 132 176 226 280 332 408
#     4  12  25  40  65 100 140 179 221 286 333 398
#     4  10  23  44  74  97 120 176 230 292 338 399
#     4  11  23  41  63  96 139 181 222 267 332 410
#     4  12  23  40  63 100 138 180 222 273 337 396
#     4  11  24  46  71  99 131 172 232 285 346 395
#
# _framework density 22.620733999999999
#
# number of rings (size 3 to 8) (size 9 to 14) (size 15 to 20)
#    0.000    0.667    7.500    1.500    1.167    2.000 
#    0.000    0.833    0.000    0.000    0.000    0.000 
#    0.000    0.000    0.000    0.000    0.000    0.000 
#
# Total GULP energy -133636.451007 kJ/mol
# GULP energy per Si atom -5568.185459 kJ/mol
# Density = 2.256925 g / cm^3
# Si number density = 22.620734 Si / 1000 Ang^3
#
#
#
# Elastic Constant Matrix: (Units=GPa)
#
#
# Indices 1 2 3 4 5 6 
#
# 1 72.3183 35.0154 22.9727 0.0000 17.9494 0.0000
# 2 35.0154 93.3624 -0.5271 0.0000 12.2171 0.0000
# 3 22.9727 -0.5271 66.7895 0.0000 36.1615 0.0000
# 4 0.0000 0.0000 0.0000 8.5311 0.0000 -2.1755
# 5 17.9494 12.2171 36.1615 0.0000 48.9567 0.0000
# 6 0.0000 0.0000 0.0000 -2.1755 0.0000 22.3782
#
#
#
# Elastic Compliance Matrix: (Units=1/GPa)
#
#
# Indices 1 2 3 4 5 6 
#
# 1 0.019560 -0.007299 -0.006480 0.000000 -0.000563 0.000000
# 2 -0.007299 0.014082 0.005125 0.000000 -0.004624 0.000000
# 3 -0.006480 0.005125 0.027743 0.000000 -0.019395 0.000000
# 4 0.000000 0.000000 0.000000 0.120198 0.000000 0.011685
# 5 -0.000563 -0.004624 -0.019395 0.000000 0.036113 0.000000
# 6 0.000000 0.000000 0.000000 0.011685 0.000000 0.045822
#
#
# Mechanical properties :
#
#
# Convention : Reuss Voigt Hill
#
# Bulk Modulus (GPa) = 22.68765 38.59912 30.64339
# Shear Modulus (GPa) = 16.91937 27.64048 22.27992
#
# Velocity S-wave (km/s) = 2.73785 3.49937 3.14177
# Velocity P-wave (km/s) = 4.47725 5.78171 5.17078
#
# Compressibility (1/GPa) = 0.04407684
#
# Stress axis : x y z
#
# Youngs Moduli (GPa) = 51.12425 71.01074 36.04538
#
# Poissons Ratio (x) = 0.51830 0.23359
# Poissons Ratio (y) = 0.37315 -0.18474
# Poissons Ratio (z) = 0.33131 -0.36394
#
# Static dielectric constant tensor:
#      x y z
#    x 1.924610 0.000000 -0.001450 
#    y 0.000000 1.834800 0.000000 
#    z -0.001450 0.000000 1.962920 
# 
# From -- ./inp_files/63207.got.cif
#   From: 2010.05.17/outbox.cif.g08.bks.cpg/sg15_32_cif.got.tgz:63207.got - 2010.06.03 18:47:42.
