data_PCOD9296891
_publ_section_title
;
Structure prediction by ZEFSAII (Michael W. Deem and Ramdas Pophale) SiO2 
 PCOD9296891
Probable space group: C 2/C
;
_chemical_formula_sum "Si O2"
_cell_formula_units_Z 32
_cell_length_a 5.485375
_cell_length_b 19.722206
_cell_length_c 11.448101
_cell_angle_alpha 90.000000
_cell_angle_beta 93.509355
_cell_angle_gamma 90.000000
_cell_volume 1236.175466
_symmetry_space_group_name_H-M "C 2/C"
_symmetry_group_IT_number 15
_symmetry_cell_setting 'monoclinic'
loop_
_space_group_symop_operation_xyz
x,y,z
-x,y,1/2-z
-x,-y,-z
x,-y,1/2+z
1/2+x,1/2+y,z
1/2-x,1/2+y,1/2-z
1/2-x,1/2-y,-z
1/2+x,1/2-y,1/2+z
loop_
_atom_site_type_symbol
_atom_site_label
_atom_site_fract_x
_atom_site_fract_y
_atom_site_fract_z
Si Si1 0.404434 0.355257 0.376195
Si Si2 0.166547 0.442218 0.552854
Si Si3 0.000000 0.734447 0.750000
Si Si4 0.744529 0.839691 0.905973
Si Si5 0.000000 0.948482 0.750000
O O1 0.500000 0.370119 0.250000
O O2 0.326830 0.421102 0.446059
O O3 0.166842 0.308557 0.344402
O O4 0.613362 0.324893 0.468437
O O5 0.282996 0.478025 0.669785
O O6 0.000000 0.500000 0.500000
O O7 0.025193 0.371819 0.584614
O O8 0.806049 0.780037 0.816782
O O9 0.883024 0.901575 0.846541
#
# Coordination Sequence:
#
# PCOD9296891 Si02
#       5
#     8   8   4   8   4
#     4  11  25  44  69 111 149 197 242 309 373 443
#     4  11  25  50  73 107 147 199 254 305 370 448
#     4  11  24  46  76 112 150 192 251 308 372 453
#     4  10  23  46  71 106 146 192 244 303 376 432
#     4   9  22  44  74 104 140 190 245 306 368 427
#
# _framework density 25.886295
#
# number of rings (size 3 to 8) (size 9 to 14) (size 15 to 20)
#    0.000    1.500    0.000    3.000    0.000   14.000 
#   24.750    2.500    0.000    0.000    0.000    0.000 
#    0.000    0.000    0.000    0.000    0.000    0.000 
#
# Total GULP energy -89444.739423 kJ/mol
# GULP energy per Si atom -5590.296214 kJ/mol
# Density = 2.582738 g / cm^3
# Si number density = 25.886295 Si / 1000 Ang^3
#
#
#
# Elastic Constant Matrix: (Units=GPa)
#
#
# Indices 1 2 3 4 5 6 
#
# 1 77.3695 18.5870 57.8644 0.0000 -0.7749 0.0000
# 2 18.5870 71.0100 51.2725 0.0000 11.5279 0.0000
# 3 57.8644 51.2725 241.0479 0.0000 36.0207 0.0000
# 4 0.0000 0.0000 0.0000 22.7081 0.0000 2.4029
# 5 -0.7749 11.5279 36.0207 0.0000 71.3088 0.0000
# 6 0.0000 0.0000 0.0000 2.4029 0.0000 45.5479
#
#
#
# Elastic Compliance Matrix: (Units=1/GPa)
#
#
# Indices 1 2 3 4 5 6 
#
# 1 0.016299 -0.001860 -0.003882 0.000000 0.002438 0.000000
# 2 -0.001860 0.016913 -0.002963 0.000000 -0.001258 0.000000
# 3 -0.003882 -0.002963 0.006106 0.000000 -0.002648 0.000000
# 4 0.000000 0.000000 0.000000 0.044284 0.000000 -0.002336
# 5 0.002438 -0.001258 -0.002648 0.000000 0.015591 0.000000
# 6 0.000000 0.000000 0.000000 -0.002336 0.000000 0.022078
#
#
# Mechanical properties :
#
#
# Convention : Reuss Voigt Hill
#
# Bulk Modulus (GPa) = 45.64158 71.65280 58.64719
# Shear Modulus (GPa) = 34.25048 45.35987 39.80517
#
# Velocity S-wave (km/s) = 3.64141 4.19056 3.92560
# Velocity P-wave (km/s) = 5.94556 7.15222 6.57662
#
# Compressibility (1/GPa) = 0.02190985
#
# Stress axis : x y z
#
# Youngs Moduli (GPa) = 61.35306 59.12622 163.76642
#
# Poissons Ratio (x) = 0.10995 0.63566
# Poissons Ratio (y) = 0.11409 0.48527
# Poissons Ratio (z) = 0.23814 0.17520
#
# Static dielectric constant tensor:
#      x y z
#    x 2.373200 0.000000 0.161750 
#    y 0.000000 2.081140 0.000000 
#    z 0.161750 0.000000 2.051060 
# 
# From -- ./inp_files/72323.got.cif
#   From: 2010.05.17/outbox.cif.g08.bks.cpg/sg15_37_cif.got.tgz:72323.got - 2010.06.03 18:47:42.
