data_PCOD9296887
_publ_section_title
;
Structure prediction by ZEFSAII (Michael W. Deem and Ramdas Pophale) SiO2 
 PCOD9296887
Probable space group: C 2/C
;
_chemical_formula_sum "Si O2"
_cell_formula_units_Z 44
_cell_length_a 9.423602
_cell_length_b 11.939177
_cell_length_c 19.537146
_cell_angle_alpha 90.000000
_cell_angle_beta 112.881742
_cell_angle_gamma 90.000000
_cell_volume 2025.153425
_symmetry_space_group_name_H-M "C 2/C"
_symmetry_group_IT_number 15
_symmetry_cell_setting 'monoclinic'
loop_
_space_group_symop_operation_xyz
x,y,z
-x,y,1/2-z
-x,-y,-z
x,-y,1/2+z
1/2+x,1/2+y,z
1/2-x,1/2+y,1/2-z
1/2-x,1/2-y,-z
1/2+x,1/2-y,1/2+z
loop_
_atom_site_type_symbol
_atom_site_label
_atom_site_fract_x
_atom_site_fract_y
_atom_site_fract_z
Si Si1 0.527299 0.627136 0.141091
Si Si2 0.850691 0.406868 0.767939
Si Si3 0.181977 0.864198 0.020899
Si Si4 0.970284 0.610212 0.648195
Si Si5 0.318864 0.328408 0.327453
Si Si6 0.000000 0.970615 0.250000
O O1 0.701926 0.589260 0.189838
O O2 0.842133 0.428316 0.067597
O O3 0.526114 0.762626 0.144717
O O4 0.446942 0.593826 0.055216
O O5 0.900846 0.516371 0.820270
O O6 0.821102 0.301269 0.810310
O O7 0.566961 0.439745 0.817601
O O8 0.111882 0.844390 0.083442
O O9 0.250000 0.750000 0.000000
O O10 0.144637 0.628655 0.808254
O O11 0.000000 0.383597 0.750000
O O12 0.401711 0.389887 0.280409
#
# Coordination Sequence:
#
# PCOD9296887 Si02
#       6
#     8   8   8   8   8   4
#     4  11  24  43  77 103 142 196 247 297 370 434
#     4  12  25  41  70 112 141 190 247 305 360 439
#     4   8  20  48  73 102 142 199 242 297 371 443
#     4   9  23  45  74 102 146 192 241 301 366 436
#     4  10  23  46  71 105 151 185 250 295 375 432
#     4  12  24  40  66 114 142 186 244 310 352 442
#
# _framework density 21.726749000000002
#
# number of rings (size 3 to 8) (size 9 to 14) (size 15 to 20)
#    1.091    0.727    0.909    2.182    6.364    0.727 
#    0.000    6.364    0.000    0.000    0.000    0.000 
#    0.000    0.000    0.000    0.000    0.000    0.000 
#
# Total GULP energy -122494.668814 kJ/mol
# GULP energy per Si atom -5567.939492 kJ/mol
# Density = 2.167730 g / cm^3
# Si number density = 21.726749 Si / 1000 Ang^3
#
#
#
# Elastic Constant Matrix: (Units=GPa)
#
#
# Indices 1 2 3 4 5 6 
#
# 1 123.6156 68.3759 81.0154 0.0000 11.8238 0.0000
# 2 68.3759 139.9224 59.9720 0.0000 21.0454 0.0000
# 3 81.0154 59.9720 195.7825 0.0000 28.7839 0.0000
# 4 0.0000 0.0000 0.0000 -6.6559 0.0000 13.4380
# 5 11.8238 21.0454 28.7839 0.0000 43.3238 0.0000
# 6 0.0000 0.0000 0.0000 13.4380 0.0000 40.2653
#
#
#
# Elastic Compliance Matrix: (Units=1/GPa)
#
#
# Indices 1 2 3 4 5 6 
#
# 1 0.013522 -0.005006 -0.004297 0.000000 0.001596 0.000000
# 2 -0.005006 0.010348 -0.000621 0.000000 -0.003248 0.000000
# 3 -0.004297 -0.000621 0.007602 0.000000 -0.003576 0.000000
# 4 0.000000 0.000000 0.000000 -0.089761 0.000000 0.029957
# 5 0.001596 -0.003248 -0.003576 0.000000 0.026600 0.000000
# 6 0.000000 0.000000 0.000000 0.029957 0.000000 0.014838
#
#
# Mechanical properties :
#
#
# Convention : Reuss Voigt Hill
#
# Bulk Modulus (GPa) = 86.02618 97.56077 91.79347
# Shear Modulus (GPa) = 727.82643 32.05045 379.93844
#
# Velocity S-wave (km/s) = 18.32261 3.84495 13.23824
# Velocity P-wave (km/s) = 22.07498 8.04441 16.61351
#
# Compressibility (1/GPa) = 0.01162437
#
# Stress axis : x y z
#
# Youngs Moduli (GPa) = 73.95377 96.63926 131.55262
#
# Poissons Ratio (x) = 0.48381 0.56522
# Poissons Ratio (y) = 0.37023 0.08164
# Poissons Ratio (z) = 0.31775 0.05997
#
# Static dielectric constant tensor:
#      x y z
#    x 1.851020 0.000000 0.015440 
#    y 0.000000 1.861380 0.000000 
#    z 0.015440 0.000000 1.871710 
# 
# From -- ./inp_files/196306.got.cif
#   From: 2010.05.17/outbox.cif.g08.bks.cpg/sg15_99_cif.got.tgz:196306.got - 2010.06.03 18:47:42.
