data_PCOD9296198
_publ_section_title
;
Structure prediction by ZEFSAII (Michael W. Deem and Ramdas Pophale) SiO2 
 PCOD9296198
Probable space group: C 2/C
;
_chemical_formula_sum "Si O2"
_cell_formula_units_Z 44
_cell_length_a 25.672003
_cell_length_b 5.626474
_cell_length_c 11.490247
_cell_angle_alpha 90.000000
_cell_angle_beta 87.659698
_cell_angle_gamma 90.000000
_cell_volume 1658.299798
_symmetry_space_group_name_H-M "C 2/C"
_symmetry_group_IT_number 15
_symmetry_cell_setting 'monoclinic'
loop_
_space_group_symop_operation_xyz
x,y,z
-x,y,1/2-z
-x,-y,-z
x,-y,1/2+z
1/2+x,1/2+y,z
1/2-x,1/2+y,1/2-z
1/2-x,1/2-y,-z
1/2+x,1/2-y,1/2+z
loop_
_atom_site_type_symbol
_atom_site_label
_atom_site_fract_x
_atom_site_fract_y
_atom_site_fract_z
Si Si1 0.904142 0.656125 0.810069
Si Si2 0.178800 0.003612 0.740224
Si Si3 0.719839 0.876524 0.897524
Si Si4 0.500000 0.490703 0.750000
Si Si5 0.857575 0.681769 0.476934
Si Si6 0.032396 0.691301 0.069384
O O1 0.872591 0.586952 0.929919
O O2 0.939408 0.415198 0.814436
O O3 0.858035 0.774196 0.740827
O O4 0.949610 0.842451 0.789791
O O5 0.179221 0.189860 0.845373
O O6 0.158857 0.148974 0.628220
O O7 0.237475 0.928371 0.705404
O O8 0.750000 0.750000 0.000000
O O9 0.693053 0.118002 0.944556
O O10 0.507313 0.625748 0.871723
O O11 0.915926 0.766623 0.507228
O O12 0.000000 0.500000 0.000000
#
# Coordination Sequence:
#
# PCOD9296198 Si02
#       6
#     8   8   8   4   8   8
#     4  10  23  44  69 104 139 189 237 284 364 420
#     4  12  25  48  73 105 146 187 237 300 364 425
#     4  12  25  47  74 105 139 187 237 300 358 429
#     4  12  22  46  70  98 148 180 240 298 346 420
#     4  10  24  47  67 108 143 183 242 285 360 433
#     4  10  24  43  68 107 141 186 239 284 351 423
#
# _framework density 26.533199
#
# number of rings (size 3 to 8) (size 9 to 14) (size 15 to 20)
#    1.091    0.000    3.636    2.182    2.545    0.727 
#    0.000    1.818    0.000    0.000    0.000    0.000 
#    0.000    0.000    0.000    0.000    0.000    0.000 
#
# Total GULP energy -122599.427319 kJ/mol
# GULP energy per Si atom -5572.701242 kJ/mol
# Density = 2.647281 g / cm^3
# Si number density = 26.533199 Si / 1000 Ang^3
#
#
#
# Elastic Constant Matrix: (Units=GPa)
#
#
# Indices 1 2 3 4 5 6 
#
# 1 113.7060 19.4505 24.9534 0.0000 -0.3145 0.0000
# 2 19.4505 45.6387 29.7873 0.0000 7.6673 0.0000
# 3 24.9534 29.7873 69.0298 0.0000 -7.4927 0.0000
# 4 0.0000 0.0000 0.0000 53.4118 0.0000 11.0789
# 5 -0.3145 7.6673 -7.4927 0.0000 44.6822 0.0000
# 6 0.0000 0.0000 0.0000 11.0789 0.0000 57.5394
#
#
#
# Elastic Compliance Matrix: (Units=1/GPa)
#
#
# Indices 1 2 3 4 5 6 
#
# 1 0.009768 -0.002627 -0.002384 0.000000 0.000120 0.000000
# 2 -0.002627 0.033955 -0.014603 0.000000 -0.008294 0.000000
# 3 -0.002384 -0.014603 0.022326 0.000000 0.006233 0.000000
# 4 0.000000 0.000000 0.000000 0.019501 0.000000 -0.003755
# 5 0.000120 -0.008294 0.006233 0.000000 0.024849 0.000000
# 6 0.000000 0.000000 0.000000 -0.003755 0.000000 0.018102
#
#
# Mechanical properties :
#
#
# Convention : Reuss Voigt Hill
#
# Bulk Modulus (GPa) = 37.28406 41.86186 39.57296
# Shear Modulus (GPa) = 28.30142 41.40556 34.85349
#
# Velocity S-wave (km/s) = 3.26949 3.95463 3.62827
# Velocity P-wave (km/s) = 5.32307 6.05504 5.70082
#
# Compressibility (1/GPa) = 0.02682111
#
# Stress axis : x y z
#
# Youngs Moduli (GPa) = 102.38005 29.45090 44.79034
#
# Poissons Ratio (x) = 0.07736 0.10680
# Poissons Ratio (y) = 0.26891 0.65406
# Poissons Ratio (z) = 0.24412 0.43006
#
# Static dielectric constant tensor:
#      x y z
#    x 2.103110 0.000000 -0.014550 
#    y 0.000000 2.207040 0.000000 
#    z -0.014550 0.000000 2.173920 
# 
# From -- ./inp_files/124980.got.cif
#   From: 2010.05.17/outbox.cif.g08.bks.cpg/sg15_63_cif.got.tgz:124980.got - 2010.06.03 18:47:42.
