data_PCOD9296993
_publ_section_title
;
Structure prediction by ZEFSAII (Michael W. Deem and Ramdas Pophale) SiO2 
 PCOD9296993
Probable space group: C 2/C
;
_chemical_formula_sum "Si O2"
_cell_formula_units_Z 28
_cell_length_a 18.598986
_cell_length_b 11.096119
_cell_length_c 5.117402
_cell_angle_alpha 90.000000
_cell_angle_beta 96.270344
_cell_angle_gamma 90.000000
_cell_volume 1049.793769
_symmetry_space_group_name_H-M "C 2/C"
_symmetry_group_IT_number 15
_symmetry_cell_setting 'monoclinic'
loop_
_space_group_symop_operation_xyz
x,y,z
-x,y,1/2-z
-x,-y,-z
x,-y,1/2+z
1/2+x,1/2+y,z
1/2-x,1/2+y,1/2-z
1/2-x,1/2-y,-z
1/2+x,1/2-y,1/2+z
loop_
_atom_site_type_symbol
_atom_site_label
_atom_site_fract_x
_atom_site_fract_y
_atom_site_fract_z
Si Si1 0.869265 0.719136 0.969465
Si Si2 0.764196 0.862490 0.313958
Si Si3 0.500000 0.085420 0.250000
Si Si4 0.602510 0.435303 0.872565
O O1 0.817293 0.807106 0.114752
O O2 0.929630 0.666882 0.181460
O O3 0.815607 0.616081 0.833921
O O4 0.904421 0.802855 0.755696
O O5 0.750000 0.750000 0.500000
O O6 0.810725 0.947440 0.524943
O O7 0.500000 0.000000 0.500000
O O8 0.573870 0.527084 0.643200
#
# Coordination Sequence:
#
# PCOD9296993 Si02
#       4
#     8   8   4   8
#     4  10  23  47  67 102 146 185 238 301 352 419
#     4   9  20  39  70  99 142 182 232 301 353 400
#     4  12  32  50  74 102 142 202 246 288 360 438
#     4  11  21  37  67 104 132 173 224 285 359 417
#
# _framework density 26.671904999999999
#
# number of rings (size 3 to 8) (size 9 to 14) (size 15 to 20)
#    0.000    1.714    2.857    0.000    8.000    2.286 
#    0.000    1.429    0.000    0.000    0.000    0.000 
#    0.000    0.000    0.000    0.000    0.000    0.000 
#
# Total GULP energy -78258.346302 kJ/mol
# GULP energy per Si atom -5589.881879 kJ/mol
# Density = 2.661120 g / cm^3
# Si number density = 26.671905 Si / 1000 Ang^3
#
#
#
# Elastic Constant Matrix: (Units=GPa)
#
#
# Indices 1 2 3 4 5 6 
#
# 1 114.7186 46.9955 66.6712 0.0000 45.3727 0.0000
# 2 46.9955 92.5434 58.2430 0.0000 16.1380 0.0000
# 3 66.6712 58.2430 224.9824 0.0000 18.8123 0.0000
# 4 0.0000 0.0000 0.0000 70.6925 0.0000 15.4667
# 5 45.3727 16.1380 18.8123 0.0000 67.2641 0.0000
# 6 0.0000 0.0000 0.0000 15.4667 0.0000 10.1204
#
#
#
# Elastic Compliance Matrix: (Units=1/GPa)
#
#
# Indices 1 2 3 4 5 6 
#
# 1 0.015649 -0.004746 -0.002684 0.000000 -0.008667 0.000000
# 2 -0.004746 0.014679 -0.002423 0.000000 0.000358 0.000000
# 3 -0.002684 -0.002423 0.005803 0.000000 0.000769 0.000000
# 4 0.000000 0.000000 0.000000 0.021252 0.000000 -0.032478
# 5 -0.008667 0.000358 0.000769 0.000000 0.020412 0.000000
# 6 0.000000 0.000000 0.000000 -0.032478 0.000000 0.148446
#
#
# Mechanical properties :
#
#
# Convention : Reuss Voigt Hill
#
# Bulk Modulus (GPa) = 60.88834 86.22933 73.55883
# Shear Modulus (GPa) = 19.88683 46.97104 33.42894
#
# Velocity S-wave (km/s) = 2.73355 4.20106 3.54409
# Velocity P-wave (km/s) = 5.73073 7.47875 6.66232
#
# Compressibility (1/GPa) = 0.01642351
#
# Stress axis : x y z
#
# Youngs Moduli (GPa) = 63.90189 68.12509 172.31733
#
# Poissons Ratio (x) = 0.32335 0.46250
# Poissons Ratio (y) = 0.30330 0.41759
# Poissons Ratio (z) = 0.17151 0.16509
#
# Static dielectric constant tensor:
#      x y z
#    x 2.297820 0.000000 -0.074470 
#    y 0.000000 2.344260 0.000000 
#    z -0.074470 0.000000 2.194290 
# 
# From -- ./inp_files/12368.got.cif
#   From: 2010.05.17/outbox.cif.g08.bks.cpg/sg15_7_cif.got.tgz:12368.got - 2010.06.03 18:47:42.
