data_PCOD9296635
_publ_section_title
;
Structure prediction by ZEFSAII (Michael W. Deem and Ramdas Pophale) SiO2 
 PCOD9296635
Probable space group: C 2/C
;
_chemical_formula_sum "Si O2"
_cell_formula_units_Z 56
_cell_length_a 11.378333
_cell_length_b 9.436944
_cell_length_c 23.099674
_cell_angle_alpha 90.000000
_cell_angle_beta 111.276190
_cell_angle_gamma 90.000000
_cell_volume 2311.309991
_symmetry_space_group_name_H-M "C 2/C"
_symmetry_group_IT_number 15
_symmetry_cell_setting 'monoclinic'
loop_
_space_group_symop_operation_xyz
x,y,z
-x,y,1/2-z
-x,-y,-z
x,-y,1/2+z
1/2+x,1/2+y,z
1/2-x,1/2+y,1/2-z
1/2-x,1/2-y,-z
1/2+x,1/2-y,1/2+z
loop_
_atom_site_type_symbol
_atom_site_label
_atom_site_fract_x
_atom_site_fract_y
_atom_site_fract_z
Si Si1 0.900663 0.815623 0.981569
Si Si2 0.702393 0.600831 0.916255
Si Si3 0.021677 0.285621 0.820844
Si Si4 0.606113 0.692340 0.430113
Si Si5 0.775151 0.105736 0.790305
Si Si6 0.183380 0.523650 0.898334
Si Si7 0.088464 0.184459 0.209524
O O1 0.840070 0.664547 0.952738
O O2 0.036919 0.836894 0.978493
O O3 0.800051 0.925273 0.936649
O O4 0.886265 0.838320 0.047260
O O5 0.634930 0.669138 0.848232
O O6 0.694123 0.433326 0.922216
O O7 0.064889 0.420231 0.866049
O O8 0.000000 0.325917 0.750000
O O9 0.894990 0.208352 0.817271
O O10 0.664052 0.848220 0.438897
O O11 0.493316 0.692085 0.362878
O O12 0.712783 0.090880 0.841683
O O13 0.673497 0.177148 0.730860
O O14 0.823478 0.953468 0.778486
O O15 0.000000 0.172106 0.250000
#
# Coordination Sequence:
#
# PCOD9296635 Si02
#       7
#     8   8   8   8   8   8   8
#     4  10  23  47  71  93 134 176 223 274 342 380
#     4  10  23  45  70  99 130 176 227 276 324 409
#     4  11  24  42  67  95 135 176 217 270 339 396
#     4  12  24  41  68  98 133 171 222 280 331 394
#     4  12  25  41  63  93 136 178 213 273 334 392
#     4  11  25  42  64 101 130 174 223 271 330 401
#     4  12  26  40  63  98 135 173 224 269 331 407
#
# _framework density 24.228686
#
# number of rings (size 3 to 8) (size 9 to 14) (size 15 to 20)
#    0.000    0.857    4.286    1.714    6.000    1.714 
#    0.000    6.429    0.000    0.000    0.000    0.000 
#    0.000    0.000    0.000    0.000    0.000    0.000 
#
# Total GULP energy -156979.599707 kJ/mol
# GULP energy per Si atom -5606.414275 kJ/mol
# Density = 2.417354 g / cm^3
# Si number density = 24.228686 Si / 1000 Ang^3
#
#
#
# Elastic Constant Matrix: (Units=GPa)
#
#
# Indices 1 2 3 4 5 6 
#
# 1 23.9237 24.5418 2.9479 0.0000 -7.0713 0.0000
# 2 24.5418 128.6768 12.3686 0.0000 19.3837 0.0000
# 3 2.9479 12.3686 70.5231 0.0000 9.9262 0.0000
# 4 0.0000 0.0000 0.0000 22.6923 0.0000 28.9611
# 5 -7.0713 19.3837 9.9262 0.0000 29.0803 0.0000
# 6 0.0000 0.0000 0.0000 28.9611 0.0000 -4.7658
#
#
#
# Elastic Compliance Matrix: (Units=1/GPa)
#
#
# Indices 1 2 3 4 5 6 
#
# 1 0.068577 -0.017132 -0.004009 0.000000 0.029464 0.000000
# 2 -0.017132 0.012956 0.000258 0.000000 -0.012890 0.000000
# 3 -0.004009 0.000258 0.015193 0.000000 -0.006333 0.000000
# 4 0.000000 0.000000 0.000000 0.005033 0.000000 0.030585
# 5 0.029464 -0.012890 -0.006333 0.000000 0.052306 0.000000
# 6 0.000000 0.000000 0.000000 0.030585 0.000000 -0.023965
#
#
# Mechanical properties :
#
#
# Convention : Reuss Voigt Hill
#
# Bulk Modulus (GPa) = 18.19490 33.64892 25.92191
# Shear Modulus (GPa) = 26.28994 21.61906 23.95450
#
# Velocity S-wave (km/s) = 3.29762 2.99037 3.14774
# Velocity P-wave (km/s) = 4.69308 5.08343 4.89215
#
# Compressibility (1/GPa) = 0.05496047
#
# Stress axis : x y z
#
# Youngs Moduli (GPa) = 14.58205 77.18498 65.81798
#
# Poissons Ratio (x) = 1.32237 0.26386
# Poissons Ratio (y) = 0.24983 -0.01699
# Poissons Ratio (z) = 0.05846 -0.01993
#
# Static dielectric constant tensor:
#      x y z
#    x 1.901300 0.000000 -0.009860 
#    y 0.000000 1.949820 0.000000 
#    z -0.009860 0.000000 1.939130 
# 
# From -- ./inp_files/291599.got.cif
#   From: 2010.05.17/outbox.cif.g08.bks.cpg/sg15_146_cif.got.tgz:291599.got - 2010.06.03 18:47:42.
