data_PCOD9296357
_publ_section_title
;
Structure prediction by ZEFSAII (Michael W. Deem and Ramdas Pophale) SiO2 
 PCOD9296357
Probable space group: C 2/C
;
_chemical_formula_sum "Si O2"
_cell_formula_units_Z 40
_cell_length_a 5.000764
_cell_length_b 17.239527
_cell_length_c 17.697295
_cell_angle_alpha 90.000000
_cell_angle_beta 76.879189
_cell_angle_gamma 90.000000
_cell_volume 1485.867549
_symmetry_space_group_name_H-M "C 2/C"
_symmetry_group_IT_number 15
_symmetry_cell_setting 'monoclinic'
loop_
_space_group_symop_operation_xyz
x,y,z
-x,y,1/2-z
-x,-y,-z
x,-y,1/2+z
1/2+x,1/2+y,z
1/2-x,1/2+y,1/2-z
1/2-x,1/2-y,-z
1/2+x,1/2-y,1/2+z
loop_
_atom_site_type_symbol
_atom_site_label
_atom_site_fract_x
_atom_site_fract_y
_atom_site_fract_z
Si Si1 0.374826 0.265479 0.675028
Si Si2 0.847782 0.829994 0.528154
Si Si3 0.626912 0.444711 0.396789
Si Si4 0.000000 0.129592 0.750000
Si Si5 0.120636 0.545943 0.397526
Si Si6 0.500000 0.898703 0.750000
O O1 0.500000 0.263316 0.750000
O O2 0.521916 0.294744 0.589711
O O3 0.202333 0.186061 0.688352
O O4 0.183275 0.339993 0.692189
O O5 0.750000 0.750000 0.500000
O O6 0.026447 0.875948 0.456040
O O7 0.576007 0.885687 0.558117
O O8 0.643707 0.418362 0.307969
O O9 0.916786 0.472591 0.409622
O O10 0.409292 0.517046 0.413210
O O11 0.166221 0.558942 0.304641
#
# Coordination Sequence:
#
# PCOD9296357 Si02
#       6
#     8   8   8   4   8   4
#     4  10  23  44  72 105 144 186 249 304 363 433
#     4  11  24  49  74 109 146 195 245 301 366 434
#     4  12  26  47  72 110 147 193 237 309 360 441
#     4  11  24  42  72 106 145 186 254 290 371 420
#     4  11  26  46  73 107 150 188 245 295 374 425
#     4   9  22  42  70 102 137 198 236 306 353 446
#
# _framework density 26.920303000000001
#
# number of rings (size 3 to 8) (size 9 to 14) (size 15 to 20)
#    0.000    1.200    2.000    2.400    8.400    0.000 
#    7.200    5.000    0.000    0.000    0.000    0.000 
#    0.000    0.000    0.000    0.000    0.000    0.000 
#
# Total GULP energy -111735.586276 kJ/mol
# GULP energy per Si atom -5586.779314 kJ/mol
# Density = 2.685903 g / cm^3
# Si number density = 26.920303 Si / 1000 Ang^3
#
#
#
# Elastic Constant Matrix: (Units=GPa)
#
#
# Indices 1 2 3 4 5 6 
#
# 1 77.0219 14.5267 -3.6600 0.0000 10.5608 0.0000
# 2 14.5267 123.6764 42.0881 0.0000 -13.4063 0.0000
# 3 -3.6600 42.0881 94.0760 0.0000 12.4328 0.0000
# 4 0.0000 0.0000 0.0000 74.5162 0.0000 10.2015
# 5 10.5608 -13.4063 12.4328 0.0000 39.7394 0.0000
# 6 0.0000 0.0000 0.0000 10.2015 0.0000 27.3711
#
#
#
# Elastic Compliance Matrix: (Units=1/GPa)
#
#
# Indices 1 2 3 4 5 6 
#
# 1 0.014544 -0.003302 0.002818 0.000000 -0.005861 0.000000
# 2 -0.003302 0.011232 -0.006019 0.000000 0.006550 0.000000
# 3 0.002818 -0.006019 0.014395 0.000000 -0.007283 0.000000
# 4 0.000000 0.000000 0.000000 0.014141 0.000000 -0.005271
# 5 -0.005861 0.006550 -0.007283 0.000000 0.031210 0.000000
# 6 0.000000 0.000000 0.000000 -0.005271 0.000000 0.038499
#
#
# Mechanical properties :
#
#
# Convention : Reuss Voigt Hill
#
# Bulk Modulus (GPa) = 36.81513 44.52046 40.66779
# Shear Modulus (GPa) = 34.22730 44.44664 39.33697
#
# Velocity S-wave (km/s) = 3.56958 4.06771 3.82676
# Velocity P-wave (km/s) = 5.54026 6.21575 5.88770
#
# Compressibility (1/GPa) = 0.02716274
#
# Stress axis : x y z
#
# Youngs Moduli (GPa) = 68.75844 89.03254 69.47031
#
# Poissons Ratio (x) = 0.29403 -0.19576
# Poissons Ratio (y) = 0.22707 0.41814
# Poissons Ratio (z) = -0.19375 0.53589
#
# Static dielectric constant tensor:
#      x y z
#    x 2.152680 0.000000 0.146980 
#    y 0.000000 1.914930 0.000000 
#    z 0.146980 0.000000 2.567690 
# 
# From -- ./inp_files/184299.got.cif
#   From: 2010.05.17/outbox.cif.g08.bks.cpg/sg15_93_cif.got.tgz:184299.got - 2010.06.03 18:47:42.
