data_PCOD9296661
_publ_section_title
;
Structure prediction by ZEFSAII (Michael W. Deem and Ramdas Pophale) SiO2 
 PCOD9296661
Probable space group: C 2/C
;
_chemical_formula_sum "Si O2"
_cell_formula_units_Z 32
_cell_length_a 9.487360
_cell_length_b 18.643376
_cell_length_c 15.706239
_cell_angle_alpha 90.000000
_cell_angle_beta 150.966699
_cell_angle_gamma 90.000000
_cell_volume 1348.243796
_symmetry_space_group_name_H-M "C 2/C"
_symmetry_group_IT_number 15
_symmetry_cell_setting 'monoclinic'
loop_
_space_group_symop_operation_xyz
x,y,z
-x,y,1/2-z
-x,-y,-z
x,-y,1/2+z
1/2+x,1/2+y,z
1/2-x,1/2+y,1/2-z
1/2-x,1/2-y,-z
1/2+x,1/2-y,1/2+z
loop_
_atom_site_type_symbol
_atom_site_label
_atom_site_fract_x
_atom_site_fract_y
_atom_site_fract_z
Si Si1 0.764472 0.957471 0.822771
Si Si2 0.825734 0.911033 0.245493
Si Si3 0.195982 0.302557 0.551500
Si Si4 0.161459 0.179715 0.066539
O O1 0.500000 0.954247 0.750000
O O2 0.867237 0.875662 0.868579
O O3 0.731365 0.008764 0.724968
O O4 0.000000 0.000000 0.000000
O O5 0.000000 0.914454 0.250000
O O6 0.042942 0.868210 0.425253
O O7 0.531353 0.865008 0.087928
O O8 0.500000 0.327293 0.750000
O O9 0.250000 0.250000 0.500000
O O10 0.034573 0.249434 0.532590
O O11 0.500000 0.201207 0.250000
#
# Coordination Sequence:
#
# PCOD9296661 Si02
#       4
#     8   8   8   8
#     4   9  21  43  72  96 136 187 230 279 348 422
#     4  11  25  44  72 107 144 182 237 296 350 418
#     4  12  26  43  72 107 142 188 235 291 351 420
#     4  10  23  45  71  98 141 191 232 280 360 426
#
# _framework density 23.734580000000001
#
# number of rings (size 3 to 8) (size 9 to 14) (size 15 to 20)
#    0.000    1.500    2.500    0.750   10.500    2.000 
#    0.000   12.500    0.000    0.000    0.000    0.000 
#    0.000    0.000    0.000    0.000    0.000    0.000 
#
# Total GULP energy -89412.892354 kJ/mol
# GULP energy per Si atom -5588.305772 kJ/mol
# Density = 2.368056 g / cm^3
# Si number density = 23.734580 Si / 1000 Ang^3
#
#
#
# Elastic Constant Matrix: (Units=GPa)
#
#
# Indices 1 2 3 4 5 6 
#
# 1 85.4317 26.4734 44.0850 0.0296 -9.8743 0.0026
# 2 26.4734 98.3438 35.8305 0.0443 -0.4011 -0.0101
# 3 44.0850 35.8305 166.3686 0.1241 24.2891 -0.0015
# 4 0.0296 0.0443 0.1241 18.5972 0.0420 -23.4722
# 5 -9.8743 -0.4011 24.2891 0.0420 31.0368 -0.0120
# 6 0.0026 -0.0101 -0.0015 -23.4722 -0.0120 -0.8478
#
#
#
# Elastic Compliance Matrix: (Units=1/GPa)
#
#
# Indices 1 2 3 4 5 6 
#
# 1 0.016131 -0.002459 -0.005069 -0.000002 0.009067 0.000004
# 2 -0.002459 0.011551 -0.001969 -0.000006 0.000908 0.000005
# 3 -0.005069 -0.001969 0.009051 0.000003 -0.008721 0.000025
# 4 -0.000002 -0.000006 0.000003 0.001496 -0.000021 -0.041418
# 5 0.009067 0.000908 -0.008721 -0.000021 0.041941 0.000025
# 6 0.000004 0.000005 0.000025 -0.041418 0.000025 -0.032816
#
#
# Mechanical properties :
#
#
# Convention : Reuss Voigt Hill
#
# Bulk Modulus (GPa) = 56.36648 62.54690 59.45669
# Shear Modulus (GPa) = 69.19480 26.00761 47.60120
#
# Velocity S-wave (km/s) = 5.40526 3.31383 4.48321
# Velocity P-wave (km/s) = 7.92187 6.40717 7.20444
#
# Compressibility (1/GPa) = 0.01774104
#
# Stress axis : x y z
#
# Youngs Moduli (GPa) = 61.99410 86.57057 110.48340
#
# Poissons Ratio (x) = 0.21284 0.55999
# Poissons Ratio (y) = 0.15242 0.21752
# Poissons Ratio (z) = 0.31422 0.17044
#
# Static dielectric constant tensor:
#      x y z
#    x 1.966300 -0.000020 -0.061660 
#    y -0.000020 1.940270 -0.000030 
#    z -0.061660 -0.000030 1.870040 
# 
# From -- ./inp_files/137066.got.cif
#   From: 2010.05.17/outbox.cif.g08.bks.cpg/sg15_69_cif.got.tgz:137066.got - 2010.06.03 18:47:42.
