data_PCOD9296110
_publ_section_title
;
Structure prediction by ZEFSAII (Michael W. Deem and Ramdas Pophale) SiO2 
 PCOD9296110
Probable space group: C 2/C
;
_chemical_formula_sum "Si O2"
_cell_formula_units_Z 48
_cell_length_a 23.195793
_cell_length_b 9.998278
_cell_length_c 20.474081
_cell_angle_alpha 90.000000
_cell_angle_beta 157.428142
_cell_angle_gamma 90.000000
_cell_volume 1822.599062
_symmetry_space_group_name_H-M "C 2/C"
_symmetry_group_IT_number 15
_symmetry_cell_setting 'monoclinic'
loop_
_space_group_symop_operation_xyz
x,y,z
-x,y,1/2-z
-x,-y,-z
x,-y,1/2+z
1/2+x,1/2+y,z
1/2-x,1/2+y,1/2-z
1/2-x,1/2-y,-z
1/2+x,1/2-y,1/2+z
loop_
_atom_site_type_symbol
_atom_site_label
_atom_site_fract_x
_atom_site_fract_y
_atom_site_fract_z
Si Si1 0.361537 0.985918 0.057397
Si Si2 0.164616 0.228898 0.293981
Si Si3 0.986983 0.357575 0.568625
Si Si4 0.617262 0.565669 0.499540
Si Si5 0.082739 0.162664 0.775074
Si Si6 0.226200 0.866389 0.712880
O O1 0.500000 0.965697 0.250000
O O2 0.417846 0.031727 0.044228
O O3 0.257033 0.855453 0.943235
O O4 0.243317 0.099233 0.956607
O O5 0.221651 0.380568 0.354767
O O6 0.989457 0.195348 0.115197
O O7 0.205698 0.163083 0.267004
O O8 0.853011 0.262515 0.403220
O O9 0.089004 0.268262 0.723970
O O10 0.101663 0.386022 0.629532
O O11 0.531174 0.455461 0.367162
O O12 0.641314 0.497000 0.595199
O O13 0.000000 0.224506 0.750000
#
# Coordination Sequence:
#
# PCOD9296110 Si02
#       6
#     8   8   8   8   8   8
#     4  11  26  41  65  99 136 178 227 276 331 401
#     4  11  25  45  67  96 138 180 226 277 336 402
#     4  11  23  41  68 103 133 174 222 280 346 395
#     4  10  25  43  66  98 132 177 229 275 334 400
#     4  10  23  44  67  97 137 178 221 280 335 399
#     4  11  24  42  71  99 139 172 224 282 345 400
#
# _framework density 26.336015
#
# number of rings (size 3 to 8) (size 9 to 14) (size 15 to 20)
#    0.000    1.333    1.667    2.000    9.333    2.667 
#    0.000    3.333    0.000    0.000    0.000    0.000 
#    0.000    0.000    0.000    0.000    0.000    0.000 
#
# Total GULP energy -134546.287268 kJ/mol
# GULP energy per Si atom -5606.095303 kJ/mol
# Density = 2.627607 g / cm^3
# Si number density = 26.336015 Si / 1000 Ang^3
#
#
#
# Elastic Constant Matrix: (Units=GPa)
#
#
# Indices 1 2 3 4 5 6 
#
# 1 64.6273 -21.3101 23.0102 0.0000 19.4965 0.0000
# 2 -21.3101 54.5523 35.5015 -0.0003 -1.3634 -0.0001
# 3 23.0102 35.5015 130.6739 -0.0003 2.2228 0.0000
# 4 0.0000 -0.0003 -0.0003 31.1878 -0.0001 8.4575
# 5 19.4965 -1.3634 2.2228 -0.0001 48.1490 0.0000
# 6 0.0000 -0.0001 0.0000 8.4575 0.0000 27.5764
#
#
#
# Elastic Compliance Matrix: (Units=1/GPa)
#
#
# Indices 1 2 3 4 5 6 
#
# 1 0.027035 0.016151 -0.008977 0.000000 -0.010075 0.000000
# 2 0.016151 0.031957 -0.011439 0.000000 -0.005107 0.000000
# 3 -0.008977 -0.011439 0.012295 0.000000 0.002743 0.000000
# 4 0.000000 0.000000 0.000000 0.034972 0.000000 -0.010726
# 5 -0.010075 -0.005107 0.002743 0.000000 0.024577 0.000000
# 6 0.000000 0.000000 0.000000 -0.010726 0.000000 0.039552
#
#
# Mechanical properties :
#
#
# Convention : Reuss Voigt Hill
#
# Bulk Modulus (GPa) = 15.93485 36.02852 25.98168
# Shear Modulus (GPa) = 25.02038 35.55944 30.28991
#
# Velocity S-wave (km/s) = 3.08562 3.67852 3.39504
# Velocity P-wave (km/s) = 4.33111 5.63490 5.02546
#
# Compressibility (1/GPa) = 0.06275554
#
# Stress axis : x y z
#
# Youngs Moduli (GPa) = 36.98967 31.29207 81.33693
#
# Poissons Ratio (x) = -0.50540 0.73016
# Poissons Ratio (y) = -0.59742 0.93043
# Poissons Ratio (z) = 0.33206 0.35796
#
# Static dielectric constant tensor:
#      x y z
#    x 2.005280 0.000000 -0.007690 
#    y 0.000000 2.055450 0.000000 
#    z -0.007690 0.000000 1.990330 
# 
# From -- ./inp_files/283554.got.cif
#   From: 2010.05.17/outbox.cif.g08.bks.cpg/sg15_142_cif.got.tgz:283554.got - 2010.06.03 18:47:42.
