data_PCOD9296217
_publ_section_title
;
Structure prediction by ZEFSAII (Michael W. Deem and Ramdas Pophale) SiO2 
 PCOD9296217
Probable space group: C 2/C
;
_chemical_formula_sum "Si O2"
_cell_formula_units_Z 60
_cell_length_a 11.964638
_cell_length_b 29.106777
_cell_length_c 8.933870
_cell_angle_alpha 90.000000
_cell_angle_beta 108.125563
_cell_angle_gamma 90.000000
_cell_volume 2956.849634
_symmetry_space_group_name_H-M "C 2/C"
_symmetry_group_IT_number 15
_symmetry_cell_setting 'monoclinic'
loop_
_space_group_symop_operation_xyz
x,y,z
-x,y,1/2-z
-x,-y,-z
x,-y,1/2+z
1/2+x,1/2+y,z
1/2-x,1/2+y,1/2-z
1/2-x,1/2-y,-z
1/2+x,1/2-y,1/2+z
loop_
_atom_site_type_symbol
_atom_site_label
_atom_site_fract_x
_atom_site_fract_y
_atom_site_fract_z
Si Si1 0.484489 0.780879 0.920164
Si Si2 0.191077 0.354607 0.994789
Si Si3 0.767189 0.001092 0.676091
Si Si4 0.000000 0.228238 0.250000
Si Si5 0.624383 0.589941 0.381088
Si Si6 0.267748 0.327692 0.718305
Si Si7 0.624027 0.601042 0.725617
Si Si8 0.374855 0.042782 0.123562
O O1 0.500000 0.762173 0.750000
O O2 0.583228 0.820512 0.974080
O O3 0.354185 0.802699 0.868684
O O4 0.497794 0.753110 0.083634
O O5 0.271574 0.332900 0.898748
O O6 0.142326 0.403303 0.914619
O O7 0.272922 0.366626 0.168695
O O8 0.840057 0.963130 0.616576
O O9 0.727571 0.976468 0.811434
O O10 0.838750 0.048195 0.725378
O O11 0.649250 0.015629 0.539327
O O12 0.880477 0.198930 0.204874
O O13 0.500000 0.596685 0.250000
O O14 0.723471 0.621242 0.345435
O O15 0.612756 0.605495 0.545231
O O16 0.500000 0.611087 0.750000
O O17 0.500000 0.034731 0.250000
#
# Coordination Sequence:
#
# PCOD9296217 Si02
#       8
#     8   8   8   4   8   8   8   8
#     4  10  25  48  73 102 136 181 219 281 351 415
#     4  10  23  44  69  97 133 178 226 274 337 407
#     4  11  23  38  61  91 131 175 226 274 324 385
#     4  12  26  46  72 106 138 172 226 292 344 428
#     4  12  24  40  64  93 130 174 223 279 331 398
#     4  11  23  45  69 102 134 176 222 274 349 405
#     4  11  25  41  62  99 130 182 230 275 333 395
#     4  11  21  39  60  92 132 177 222 271 322 389
#
# _framework density 20.291868999999998
#
# number of rings (size 3 to 8) (size 9 to 14) (size 15 to 20)
#    0.000    1.067    3.333    3.200    3.733    3.200 
#    2.400    0.000    0.000    0.000    0.000    0.000 
#    0.000    0.000    0.000    0.000    0.000    0.000 
#
# Total GULP energy -167474.632901 kJ/mol
# GULP energy per Si atom -5582.487763 kJ/mol
# Density = 2.024568 g / cm^3
# Si number density = 20.291869 Si / 1000 Ang^3
#
#
#
# Elastic Constant Matrix: (Units=GPa)
#
#
# Indices 1 2 3 4 5 6 
#
# 1 100.0094 24.2055 41.4021 0.0000 -1.3969 0.0000
# 2 24.2055 60.3222 40.8128 0.0000 -7.8836 0.0000
# 3 41.4021 40.8128 143.5509 0.0000 3.5409 0.0000
# 4 0.0000 0.0000 0.0000 23.5878 0.0000 -10.1661
# 5 -1.3969 -7.8836 3.5409 0.0000 30.7723 0.0000
# 6 0.0000 0.0000 0.0000 -10.1661 0.0000 33.1475
#
#
#
# Elastic Compliance Matrix: (Units=1/GPa)
#
#
# Indices 1 2 3 4 5 6 
#
# 1 0.011779 -0.002995 -0.002547 0.000000 0.000060 0.000000
# 2 -0.002995 0.022434 -0.005669 0.000000 0.006264 0.000000
# 3 -0.002547 -0.005669 0.009378 0.000000 -0.002647 0.000000
# 4 0.000000 0.000000 0.000000 0.048852 0.000000 0.014983
# 5 0.000060 0.006264 -0.002647 0.000000 0.034409 0.000000
# 6 0.000000 0.000000 0.000000 0.014983 0.000000 0.034763
#
#
# Mechanical properties :
#
#
# Convention : Reuss Voigt Hill
#
# Bulk Modulus (GPa) = 47.24083 57.41369 52.32726
# Shear Modulus (GPa) = 26.16519 30.66563 28.41541
#
# Velocity S-wave (km/s) = 3.59478 3.89167 3.74616
# Velocity P-wave (km/s) = 6.36876 6.96770 6.67495
#
# Compressibility (1/GPa) = 0.02116813
#
# Stress axis : x y z
#
# Youngs Moduli (GPa) = 84.89403 44.57617 106.63541
#
# Poissons Ratio (x) = 0.13353 0.27162
# Poissons Ratio (y) = 0.25429 0.60448
# Poissons Ratio (z) = 0.21624 0.25269
#
# Static dielectric constant tensor:
#      x y z
#    x 1.684840 0.000000 -0.031410 
#    y 0.000000 1.723120 0.000000 
#    z -0.031410 0.000000 1.752750 
# 
# From -- ./inp_files/35743.got.cif
#   From: 2010.05.17/outbox.cif.g08.bks.cpg/sg15_18_cif.got.tgz:35743.got - 2010.06.03 18:47:42.
