data_PCOD9296299
_publ_section_title
;
Structure prediction by ZEFSAII (Michael W. Deem and Ramdas Pophale) SiO2 
 PCOD9296299
Probable space group: C 2/C
;
_chemical_formula_sum "Si O2"
_cell_formula_units_Z 48
_cell_length_a 27.592879
_cell_length_b 6.377822
_cell_length_c 24.121702
_cell_angle_alpha 90.000000
_cell_angle_beta 29.663084
_cell_angle_gamma 90.000000
_cell_volume 2100.844211
_symmetry_space_group_name_H-M "C 2/C"
_symmetry_group_IT_number 15
_symmetry_cell_setting 'monoclinic'
loop_
_space_group_symop_operation_xyz
x,y,z
-x,y,1/2-z
-x,-y,-z
x,-y,1/2+z
1/2+x,1/2+y,z
1/2-x,1/2+y,1/2-z
1/2-x,1/2-y,-z
1/2+x,1/2-y,1/2+z
loop_
_atom_site_type_symbol
_atom_site_label
_atom_site_fract_x
_atom_site_fract_y
_atom_site_fract_z
Si Si1 0.464063 0.969926 0.116201
Si Si2 0.745889 0.341751 0.582219
Si Si3 0.192222 0.151706 0.257613
Si Si4 0.684835 0.440928 0.040026
Si Si5 0.597670 0.278864 0.410921
Si Si6 0.052742 0.585328 0.140698
O O1 0.360802 0.866715 0.205164
O O2 0.467525 0.165350 0.071128
O O3 0.481378 0.046799 0.160473
O O4 0.542804 0.789656 0.021684
O O5 0.715192 0.429824 0.672666
O O6 0.671461 0.416033 0.608057
O O7 0.851752 0.442294 0.463898
O O8 0.761924 0.092138 0.557348
O O9 0.293287 0.186339 0.188940
O O10 0.120570 0.010308 0.366058
O O11 0.591742 0.324474 0.106863
O O12 0.750000 0.250000 0.000000
O O13 0.000000 0.531345 0.250000
#
# Coordination Sequence:
#
# PCOD9296299 Si02
#       6
#     8   8   8   8   8   8
#     4  11  26  46  70 104 145 188 249 306 369 444
#     4  10  23  44  71 102 144 187 245 300 360 444
#     4  12  24  45  75 102 140 195 243 309 372 434
#     4   9  22  43  65  98 138 186 232 287 359 429
#     4  11  25  48  69 103 140 190 249 309 372 436
#     4  11  25  42  68 108 148 191 238 301 367 442
#
# _framework density 22.847958999999999
#
# number of rings (size 3 to 8) (size 9 to 14) (size 15 to 20)
#    0.000    1.333    3.333    0.500    9.333    3.333 
#    6.000    0.000    0.000    0.000    0.000    0.000 
#    0.000    0.000    0.000    0.000    0.000    0.000 
#
# Total GULP energy -133962.832215 kJ/mol
# GULP energy per Si atom -5581.784676 kJ/mol
# Density = 2.279596 g / cm^3
# Si number density = 22.847959 Si / 1000 Ang^3
#
#
#
# Elastic Constant Matrix: (Units=GPa)
#
#
# Indices 1 2 3 4 5 6 
#
# 1 149.1299 46.9094 31.5435 -0.0199 13.0520 -0.0076
# 2 46.9094 68.9021 22.5090 -0.1090 1.0082 -0.0266
# 3 31.5435 22.5090 70.9111 -0.0854 9.6566 0.0111
# 4 -0.0199 -0.1090 -0.0854 28.7320 0.0194 -14.2888
# 5 13.0520 1.0082 9.6566 0.0194 33.2594 0.0015
# 6 -0.0076 -0.0266 0.0111 -14.2888 0.0015 27.2570
#
#
#
# Elastic Compliance Matrix: (Units=1/GPa)
#
#
# Indices 1 2 3 4 5 6 
#
# 1 0.009097 -0.005530 -0.001903 -0.000026 -0.002850 -0.000016
# 2 -0.005530 0.019589 -0.004136 0.000089 0.002777 0.000066
# 3 -0.001903 -0.004136 0.016808 0.000041 -0.004008 0.000010
# 4 -0.000026 0.000089 0.000041 0.047078 -0.000033 0.024680
# 5 -0.002850 0.002777 -0.004008 -0.000033 0.032264 -0.000015
# 6 -0.000016 0.000066 0.000010 0.024680 -0.000015 0.049626
#
#
# Mechanical properties :
#
#
# Convention : Reuss Voigt Hill
#
# Bulk Modulus (GPa) = 44.73341 54.54076 49.63709
# Shear Modulus (GPa) = 24.38400 30.38176 27.38288
#
# Velocity S-wave (km/s) = 3.27039 3.65051 3.46567
# Velocity P-wave (km/s) = 5.82081 6.45688 6.14708
#
# Compressibility (1/GPa) = 0.02235465
#
# Stress axis : x y z
#
# Youngs Moduli (GPa) = 109.92618 51.04912 59.49707
#
# Poissons Ratio (x) = 0.28230 0.11324
# Poissons Ratio (y) = 0.60789 0.24609
# Poissons Ratio (z) = 0.20922 0.21115
#
# Static dielectric constant tensor:
#      x y z
#    x 1.846220 -0.000020 0.019790 
#    y -0.000020 1.910340 0.000010 
#    z 0.019790 0.000010 1.909820 
# 
# From -- ./inp_files/304002.got.cif
#   From: 2010.05.17/outbox.cif.g08.bks.cpg/sg15_153_cif.got.tgz:304002.got - 2010.06.03 18:47:42.
