data_PCOD9296020
_publ_section_title
;
Structure prediction by ZEFSAII (Michael W. Deem and Ramdas Pophale) SiO2 
 PCOD9296020
Probable space group: C 2/C
;
_chemical_formula_sum "Si O2"
_cell_formula_units_Z 44
_cell_length_a 8.894301
_cell_length_b 27.322331
_cell_length_c 11.215142
_cell_angle_alpha 90.000000
_cell_angle_beta 51.570554
_cell_angle_gamma 90.000000
_cell_volume 2135.027985
_symmetry_space_group_name_H-M "C 2/C"
_symmetry_group_IT_number 15
_symmetry_cell_setting 'monoclinic'
loop_
_space_group_symop_operation_xyz
x,y,z
-x,y,1/2-z
-x,-y,-z
x,-y,1/2+z
1/2+x,1/2+y,z
1/2-x,1/2+y,1/2-z
1/2-x,1/2-y,-z
1/2+x,1/2-y,1/2+z
loop_
_atom_site_type_symbol
_atom_site_label
_atom_site_fract_x
_atom_site_fract_y
_atom_site_fract_z
Si Si1 0.883075 0.493402 0.932768
Si Si2 0.942112 0.385915 0.913401
Si Si3 0.361363 0.315760 0.031663
Si Si4 0.000000 0.254258 0.250000
Si Si5 0.663955 0.302532 0.073122
Si Si6 0.295383 0.408923 0.913873
O O1 0.821142 0.436545 0.965646
O O2 0.000000 0.498754 0.750000
O O3 0.733323 0.537635 0.014224
O O4 0.000000 0.500000 0.000000
O O5 0.000000 0.372269 0.750000
O O6 0.130246 0.398222 0.897753
O O7 0.826496 0.341281 0.027010
O O8 0.186717 0.287635 0.183208
O O9 0.547421 0.324659 0.019478
O O10 0.436467 0.280367 0.889439
O O11 0.284107 0.366045 0.016180
O O12 0.500000 0.295514 0.250000
O O13 0.750000 0.250000 0.000000
O O14 0.500000 0.406009 0.750000
#
# Coordination Sequence:
#
# PCOD9296020 Si02
#       6
#     8   8   8   4   8   8
#     4   9  21  42  66  94 129 174 218 275 335 391
#     4  10  23  44  65  92 135 172 214 271 328 391
#     4  11  24  41  64  93 126 170 219 264 324 384
#     4  10  24  40  64  86 130 164 218 264 316 376
#     4  12  27  42  65  95 132 173 216 262 331 389
#     4  11  23  40  68  98 130 171 224 275 331 390
#
# _framework density 20.608629000000001
#
# number of rings (size 3 to 8) (size 9 to 14) (size 15 to 20)
#    0.000    1.455    0.909    2.727    8.909    2.182 
#    0.000   12.727    0.000    0.000    0.000    0.000 
#    0.000    0.000    0.000    0.000    0.000    0.000 
#
# Total GULP energy -122873.056494 kJ/mol
# GULP energy per Si atom -5585.138932 kJ/mol
# Density = 2.056172 g / cm^3
# Si number density = 20.608629 Si / 1000 Ang^3
#
#
#
# Elastic Constant Matrix: (Units=GPa)
#
#
# Indices 1 2 3 4 5 6 
#
# 1 75.7495 23.7143 17.2418 0.0000 -5.6019 0.0000
# 2 23.7143 146.6848 59.2630 0.0000 -20.3882 0.0000
# 3 17.2418 59.2630 90.6896 0.0000 -7.6990 0.0000
# 4 0.0000 0.0000 0.0000 29.5219 0.0000 10.5347
# 5 -5.6019 -20.3882 -7.6990 0.0000 32.8523 0.0000
# 6 0.0000 0.0000 0.0000 10.5347 0.0000 -19.4010
#
#
#
# Elastic Compliance Matrix: (Units=1/GPa)
#
#
# Indices 1 2 3 4 5 6 
#
# 1 0.014114 -0.001469 -0.001629 0.000000 0.001113 0.000000
# 2 -0.001469 0.010090 -0.005922 0.000000 0.004624 0.000000
# 3 -0.001629 -0.005922 0.015172 0.000000 -0.000397 0.000000
# 4 0.000000 0.000000 0.000000 0.028375 0.000000 0.015408
# 5 0.001113 0.004624 -0.000397 0.000000 0.033405 0.000000
# 6 0.000000 0.000000 0.000000 0.015408 0.000000 -0.043177
#
#
# Mechanical properties :
#
#
# Convention : Reuss Voigt Hill
#
# Bulk Modulus (GPa) = 46.86621 57.06248 51.96434
# Shear Modulus (GPa) = 60.14573 22.78828 41.46700
#
# Velocity S-wave (km/s) = 5.40815 3.32891 4.49053
# Velocity P-wave (km/s) = 7.86053 6.52106 7.22192
#
# Compressibility (1/GPa) = 0.02133734
#
# Stress axis : x y z
#
# Youngs Moduli (GPa) = 70.84963 99.10884 65.90986
#
# Poissons Ratio (x) = 0.14559 0.10737
# Poissons Ratio (y) = 0.10408 0.39030
# Poissons Ratio (z) = 0.11541 0.58689
#
# Static dielectric constant tensor:
#      x y z
#    x 1.776850 0.000000 0.023050 
#    y 0.000000 1.721340 0.000000 
#    z 0.023050 0.000000 1.717040 
# 
# From -- ./inp_files/81083.got.cif
#   From: 2010.05.17/outbox.cif.g08.bks.cpg/sg15_41_cif.got.tgz:81083.got - 2010.06.03 18:47:42.
