data_PCOD9296885
_publ_section_title
;
Structure prediction by ZEFSAII (Michael W. Deem and Ramdas Pophale) SiO2 
 PCOD9296885
Probable space group: C 2/C
;
_chemical_formula_sum "Si O2"
_cell_formula_units_Z 40
_cell_length_a 21.508933
_cell_length_b 5.536083
_cell_length_c 13.745307
_cell_angle_alpha 90.000000
_cell_angle_beta 69.249946
_cell_angle_gamma 90.000000
_cell_volume 1530.559291
_symmetry_space_group_name_H-M "C 2/C"
_symmetry_group_IT_number 15
_symmetry_cell_setting 'monoclinic'
loop_
_space_group_symop_operation_xyz
x,y,z
-x,y,1/2-z
-x,-y,-z
x,-y,1/2+z
1/2+x,1/2+y,z
1/2-x,1/2+y,1/2-z
1/2-x,1/2-y,-z
1/2+x,1/2-y,1/2+z
loop_
_atom_site_type_symbol
_atom_site_label
_atom_site_fract_x
_atom_site_fract_y
_atom_site_fract_z
Si Si1 0.175836 0.528130 0.493668
Si Si2 0.969286 0.347941 0.876737
Si Si3 0.153103 0.883441 0.330265
Si Si4 0.728137 0.884155 0.649828
Si Si5 0.522032 0.650197 0.352255
O O1 0.108124 0.397143 0.564939
O O2 0.152218 0.735987 0.432319
O O3 0.227012 0.332892 0.419557
O O4 0.210555 0.583395 0.578158
O O5 0.000000 0.330593 0.750000
O O6 0.006177 0.583771 0.898559
O O7 0.982629 0.083832 0.912529
O O8 0.160117 0.699526 0.237334
O O9 0.224420 0.009449 0.294921
O O10 0.097152 0.074617 0.334424
O O11 0.500000 0.665203 0.250000
#
# Coordination Sequence:
#
# PCOD9296885 Si02
#       5
#     8   8   8   8   8
#     4  11  26  46  74 105 150 192 253 305 379 451
#     4  10  23  46  71 105 145 199 246 307 369 440
#     4  12  25  45  75 105 148 194 250 311 375 456
#     4  11  25  47  71 111 146 195 248 312 380 446
#     4  10  24  44  73 104 146 199 248 306 373 435
#
# _framework density 26.134235
#
# number of rings (size 3 to 8) (size 9 to 14) (size 15 to 20)
#    0.000    1.200    2.000    3.000    5.600    4.800 
#    3.600    0.000    0.000    0.000    0.000    0.000 
#    0.000    0.000    0.000    0.000    0.000    0.000 
#
# Total GULP energy -111826.919638 kJ/mol
# GULP energy per Si atom -5591.345982 kJ/mol
# Density = 2.607475 g / cm^3
# Si number density = 26.134235 Si / 1000 Ang^3
#
#
#
# Elastic Constant Matrix: (Units=GPa)
#
#
# Indices 1 2 3 4 5 6 
#
# 1 109.4885 17.5683 68.1890 0.0000 17.3484 0.0000
# 2 17.5683 94.8706 40.4258 0.0000 28.4351 0.0000
# 3 68.1890 40.4258 114.9632 0.0000 25.6818 0.0000
# 4 0.0000 0.0000 0.0000 32.3625 0.0000 -5.2661
# 5 17.3484 28.4351 25.6818 0.0000 26.7338 0.0000
# 6 0.0000 0.0000 0.0000 -5.2661 0.0000 23.2493
#
#
#
# Elastic Compliance Matrix: (Units=1/GPa)
#
#
# Indices 1 2 3 4 5 6 
#
# 1 0.014768 0.001969 -0.008713 0.000000 -0.003308 0.000000
# 2 0.001969 0.016206 -0.003477 0.000000 -0.015175 0.000000
# 3 -0.008713 -0.003477 0.016552 0.000000 -0.006548 0.000000
# 4 0.000000 0.000000 0.000000 0.032082 0.000000 0.007267
# 5 -0.003308 -0.015175 -0.006548 0.000000 0.061984 0.000000
# 6 0.000000 0.000000 0.000000 0.007267 0.000000 0.044658
#
#
# Mechanical properties :
#
#
# Convention : Reuss Voigt Hill
#
# Bulk Modulus (GPa) = 36.92069 63.52093 50.22081
# Shear Modulus (GPa) = 23.17830 29.34509 26.26169
#
# Velocity S-wave (km/s) = 2.98131 3.35455 3.17342
# Velocity P-wave (km/s) = 5.09989 6.27394 5.71714
#
# Compressibility (1/GPa) = 0.02708509
#
# Stress axis : x y z
#
# Youngs Moduli (GPa) = 67.71434 61.70605 60.41613
#
# Poissons Ratio (x) = -0.12153 0.52640
# Poissons Ratio (y) = -0.13336 0.21006
# Poissons Ratio (z) = 0.58999 0.21454
#
# Static dielectric constant tensor:
#      x y z
#    x 1.997430 0.000000 -0.008730 
#    y 0.000000 2.059290 0.000000 
#    z -0.008730 0.000000 1.967630 
# 
# From -- ./inp_files/170741.got.cif
#   From: 2010.05.17/outbox.cif.g08.bks.cpg/sg15_86_cif.got.tgz:170741.got - 2010.06.03 18:47:42.
