data_PCOD9296590
_publ_section_title
;
Structure prediction by ZEFSAII (Michael W. Deem and Ramdas Pophale) SiO2 
 PCOD9296590
Probable space group: C 2/C
;
_chemical_formula_sum "Si O2"
_cell_formula_units_Z 60
_cell_length_a 18.219668
_cell_length_b 8.696871
_cell_length_c 24.878237
_cell_angle_alpha 90.000000
_cell_angle_beta 34.725457
_cell_angle_gamma 90.000000
_cell_volume 2245.573059
_symmetry_space_group_name_H-M "C 2/C"
_symmetry_group_IT_number 15
_symmetry_cell_setting 'monoclinic'
loop_
_space_group_symop_operation_xyz
x,y,z
-x,y,1/2-z
-x,-y,-z
x,-y,1/2+z
1/2+x,1/2+y,z
1/2-x,1/2+y,1/2-z
1/2-x,1/2-y,-z
1/2+x,1/2-y,1/2+z
loop_
_atom_site_type_symbol
_atom_site_label
_atom_site_fract_x
_atom_site_fract_y
_atom_site_fract_z
Si Si1 0.274381 0.943359 0.426188
Si Si2 0.767805 0.155291 0.757427
Si Si3 0.500000 0.278494 0.750000
Si Si4 0.911971 0.709740 0.998588
Si Si5 0.307778 0.651496 0.283621
Si Si6 0.855637 0.718012 0.315052
Si Si7 0.506077 0.649541 0.535310
Si Si8 0.332898 0.108363 0.501696
O O1 0.395751 0.829929 0.343492
O O2 0.140701 0.846256 0.508870
O O3 0.278495 0.060193 0.373674
O O4 0.296372 0.056081 0.463680
O O5 0.660392 0.239190 0.786103
O O6 0.833040 0.250397 0.766242
O O7 0.877421 0.125817 0.647335
O O8 0.735591 0.992155 0.801598
O O9 0.566863 0.376909 0.756350
O O10 0.791336 0.717472 0.113356
O O11 0.908308 0.542476 0.975972
O O12 0.024879 0.730904 0.973820
O O13 0.793694 0.857581 0.386526
O O14 0.000000 0.695349 0.250000
O O15 0.500000 0.500000 0.500000
O O16 0.588069 0.736984 0.532819
#
# Coordination Sequence:
#
# PCOD9296590 Si02
#       8
#     8   8   4   8   8   8   8   8
#     4  11  24  44  73 102 144 195 246 307 368 442
#     4  11  26  43  73 101 144 192 243 299 375 432
#     4  10  24  44  70 108 146 188 246 302 370 436
#     4  10  23  45  69 103 142 188 248 304 376 440
#     4  10  24  43  71 103 140 187 243 297 360 443
#     4  12  26  44  71 104 145 190 245 308 369 448
#     4  11  26  44  70 106 146 193 245 306 375 450
#     4  12  25  46  69 106 144 194 248 310 373 449
#
# _framework density 26.719238000000001
#
# number of rings (size 3 to 8) (size 9 to 14) (size 15 to 20)
#    0.000    1.067    2.000    2.800    8.400    3.200 
#    0.000    0.000    0.000    0.000    0.000    0.000 
#    0.000    0.000    0.000    0.000    0.000    0.000 
#
# Total GULP energy -167530.117090 kJ/mol
# GULP energy per Si atom -5584.337236 kJ/mol
# Density = 2.665842 g / cm^3
# Si number density = 26.719238 Si / 1000 Ang^3
#
#
#
# Elastic Constant Matrix: (Units=GPa)
#
#
# Indices 1 2 3 4 5 6 
#
# 1 161.3247 55.2514 24.7134 0.0000 24.8999 0.0000
# 2 55.2514 108.8038 7.8904 0.0000 5.0278 0.0001
# 3 24.7134 7.8904 68.1525 0.0000 20.6652 0.0000
# 4 0.0000 0.0000 0.0000 27.6937 0.0000 6.5368
# 5 24.8999 5.0278 20.6652 0.0000 34.1622 0.0000
# 6 0.0000 0.0001 0.0000 6.5368 0.0000 38.9337
#
#
#
# Elastic Compliance Matrix: (Units=1/GPa)
#
#
# Indices 1 2 3 4 5 6 
#
# 1 0.008505 -0.004010 -0.001126 0.000000 -0.004928 0.000000
# 2 -0.004010 0.011180 -0.000279 0.000000 0.001446 0.000000
# 3 -0.001126 -0.000279 0.018188 0.000000 -0.010141 0.000000
# 4 0.000000 0.000000 0.000000 0.037599 0.000000 -0.006313
# 5 -0.004928 0.001446 -0.010141 0.000000 0.038786 0.000000
# 6 0.000000 0.000000 0.000000 -0.006313 0.000000 0.026745
#
#
# Mechanical properties :
#
#
# Convention : Reuss Voigt Hill
#
# Bulk Modulus (GPa) = 36.97432 57.11013 47.04222
# Shear Modulus (GPa) = 31.08558 36.85297 33.96928
#
# Velocity S-wave (km/s) = 3.41459 3.71788 3.56946
# Velocity P-wave (km/s) = 5.42347 6.31274 5.88493
#
# Compressibility (1/GPa) = 0.02704580
#
# Stress axis : x y z
#
# Youngs Moduli (GPa) = 117.57878 89.44273 54.98025
#
# Poissons Ratio (x) = 0.35862 0.06188
# Poissons Ratio (y) = 0.47143 0.01533
# Poissons Ratio (z) = 0.13234 0.02494
#
# Static dielectric constant tensor:
#      x y z
#    x 2.375810 0.000000 -0.151720 
#    y 0.000000 2.148040 0.000000 
#    z -0.151720 0.000000 2.181660 
# 
# From -- ./inp_files/279665.got.cif
#   From: 2010.05.17/outbox.cif.g08.bks.cpg/sg15_140_cif.got.tgz:279665.got - 2010.06.03 18:47:42.
