data_PCOD9296277
_publ_section_title
;
Structure prediction by ZEFSAII (Michael W. Deem and Ramdas Pophale) SiO2 
 PCOD9296277
Probable space group: C 2/C
;
_chemical_formula_sum "Si O2"
_cell_formula_units_Z 48
_cell_length_a 13.797264
_cell_length_b 19.754569
_cell_length_c 10.458379
_cell_angle_alpha 90.000000
_cell_angle_beta 44.034945
_cell_angle_gamma 90.000000
_cell_volume 1981.391542
_symmetry_space_group_name_H-M "C 2/C"
_symmetry_group_IT_number 15
_symmetry_cell_setting 'monoclinic'
loop_
_space_group_symop_operation_xyz
x,y,z
-x,y,1/2-z
-x,-y,-z
x,-y,1/2+z
1/2+x,1/2+y,z
1/2-x,1/2+y,1/2-z
1/2-x,1/2-y,-z
1/2+x,1/2-y,1/2+z
loop_
_atom_site_type_symbol
_atom_site_label
_atom_site_fract_x
_atom_site_fract_y
_atom_site_fract_z
Si Si1 0.500000 0.899338 0.750000
Si Si2 0.676636 0.140612 0.455358
Si Si3 0.288738 0.007682 0.597495
Si Si4 0.258341 0.622450 0.668707
Si Si5 0.559751 0.354950 0.976870
Si Si6 0.000000 0.038334 0.750000
Si Si7 0.470090 0.204909 0.486570
O O1 0.624425 0.945442 0.581127
O O2 0.458104 0.847577 0.677997
O O3 0.709330 0.137939 0.573522
O O4 0.811831 0.151263 0.240387
O O5 0.562796 0.196131 0.525821
O O6 0.633211 0.063355 0.464040
O O7 0.279811 0.048516 0.739002
O O8 0.130433 0.999405 0.691888
O O9 0.422451 0.628679 0.526035
O O10 0.181704 0.675289 0.835896
O O11 0.565947 0.412568 0.078937
O O12 0.538289 0.280373 0.055245
#
# Coordination Sequence:
#
# PCOD9296277 Si02
#       7
#     4   8   8   8   8   4   8
#     4  10  23  44  70  98 127 172 220 284 316 382
#     4  12  26  40  67  96 132 178 212 273 329 393
#     4  10  25  41  67  98 133 166 225 267 337 382
#     4  10  25  41  61  98 129 176 216 269 323 395
#     4  11  24  43  67  97 132 175 220 267 328 387
#     4  10  23  44  70  98 127 172 220 284 316 382
#     4  11  24  43  67  97 132 175 220 267 328 387
#
# _framework density 24.225398999999999
#
# number of rings (size 3 to 8) (size 9 to 14) (size 15 to 20)
#    0.000    1.333    0.000    3.500    9.333    6.667 
#    0.000    6.667    0.000    0.000    0.000    0.000 
#    0.000    0.000    0.000    0.000    0.000    0.000 
#
# Total GULP energy -134437.014179 kJ/mol
# GULP energy per Si atom -5601.542257 kJ/mol
# Density = 2.417026 g / cm^3
# Si number density = 24.225399 Si / 1000 Ang^3
#
#
#
# Elastic Constant Matrix: (Units=GPa)
#
#
# Indices 1 2 3 4 5 6 
#
# 1 79.3983 -14.5186 10.0355 -0.0001 3.2086 0.0000
# 2 -14.5186 74.7213 0.4963 0.0000 6.5279 0.0000
# 3 10.0355 0.4963 97.3416 -0.0001 -3.4557 0.0001
# 4 -0.0001 0.0000 -0.0001 27.9207 0.0001 -0.6882
# 5 3.2086 6.5279 -3.4557 0.0001 33.3747 0.0000
# 6 0.0000 0.0000 0.0001 -0.6882 0.0000 15.7209
#
#
#
# Elastic Compliance Matrix: (Units=1/GPa)
#
#
# Indices 1 2 3 4 5 6 
#
# 1 0.013368 0.002780 -0.001463 0.000000 -0.001980 0.000000
# 2 0.002780 0.014197 -0.000469 0.000000 -0.003093 0.000000
# 3 -0.001463 -0.000469 0.010473 0.000000 0.001317 0.000000
# 4 0.000000 0.000000 0.000000 0.035854 0.000000 0.001570
# 5 -0.001980 -0.003093 0.001317 0.000000 0.030894 0.000000
# 6 0.000000 0.000000 0.000000 0.001570 0.000000 0.063678
#
#
# Mechanical properties :
#
#
# Convention : Reuss Voigt Hill
#
# Bulk Modulus (GPa) = 25.16673 27.05420 26.11047
# Shear Modulus (GPa) = 27.77586 32.43313 30.10449
#
# Velocity S-wave (km/s) = 3.38976 3.66294 3.52900
# Velocity P-wave (km/s) = 5.07265 5.39272 5.23513
#
# Compressibility (1/GPa) = 0.03973500
#
# Stress axis : x y z
#
# Youngs Moduli (GPa) = 74.80549 70.43962 95.48337
#
# Poissons Ratio (x) = -0.19583 0.13966
# Poissons Ratio (y) = -0.20797 0.04476
# Poissons Ratio (z) = 0.10942 0.03302
#
# Static dielectric constant tensor:
#      x y z
#    x 1.962340 0.000000 0.019460 
#    y 0.000000 1.933900 0.000000 
#    z 0.019460 0.000000 1.898230 
# 
# From -- ./inp_files/100026.got.cif
#   From: 2010.05.17/outbox.cif.g08.bks.cpg/sg15_51_cif.got.tgz:100026.got - 2010.06.03 18:47:42.
