data_PCOD9296251
_publ_section_title
;
Structure prediction by ZEFSAII (Michael W. Deem and Ramdas Pophale) SiO2 
 PCOD9296251
Probable space group: C 2/C
;
_chemical_formula_sum "Si O2"
_cell_formula_units_Z 32
_cell_length_a 10.062542
_cell_length_b 34.381208
_cell_length_c 7.154688
_cell_angle_alpha 90.000000
_cell_angle_beta 149.017416
_cell_angle_gamma 90.000000
_cell_volume 1274.204384
_symmetry_space_group_name_H-M "C 2/C"
_symmetry_group_IT_number 15
_symmetry_cell_setting 'monoclinic'
loop_
_space_group_symop_operation_xyz
x,y,z
-x,y,1/2-z
-x,-y,-z
x,-y,1/2+z
1/2+x,1/2+y,z
1/2-x,1/2+y,1/2-z
1/2-x,1/2-y,-z
1/2+x,1/2-y,1/2+z
loop_
_atom_site_type_symbol
_atom_site_label
_atom_site_fract_x
_atom_site_fract_y
_atom_site_fract_z
Si Si1 0.000000 0.407047 0.750000
Si Si2 0.955536 0.045192 0.911303
Si Si3 0.563138 0.152666 0.605890
Si Si4 0.237643 0.236240 0.768019
Si Si5 0.500000 0.600754 0.250000
O O1 0.833390 0.437292 0.422748
O O2 0.115187 0.374945 0.739821
O O3 0.000000 0.053370 0.750000
O O4 0.128012 0.070585 0.259521
O O5 0.000000 0.000000 0.000000
O O6 0.500000 0.154748 0.750000
O O7 0.627484 0.194928 0.604457
O O8 0.829644 0.129203 0.922699
O O9 0.924756 0.235771 0.368969
O O10 0.250000 0.250000 0.000000
#
# Coordination Sequence:
#
# PCOD9296251 Si02
#       5
#     4   8   8   8   4
#     4  10  24  44  66 100 136 188 232 288 370 426
#     4  11  22  42  66  96 135 176 228 292 351 424
#     4  11  24  44  71  97 140 184 238 299 357 436
#     4  10  23  44  70 103 142 189 241 294 362 430
#     4  10  24  44  62 102 134 180 238 288 362 432
#
# _framework density 25.113713000000001
#
# number of rings (size 3 to 8) (size 9 to 14) (size 15 to 20)
#    0.000    1.500    1.250    3.000    3.500    2.000 
#   20.250    0.000    0.000    0.000    0.000    0.000 
#    0.000    0.000    0.000    0.000    0.000    0.000 
#
# Total GULP energy -89097.827830 kJ/mol
# GULP energy per Si atom -5568.614239 kJ/mol
# Density = 2.505655 g / cm^3
# Si number density = 25.113713 Si / 1000 Ang^3
#
#
#
# Elastic Constant Matrix: (Units=GPa)
#
#
# Indices 1 2 3 4 5 6 
#
# 1 150.8524 54.5053 15.3707 0.0000 -14.2844 0.0000
# 2 54.5053 194.6045 26.8262 0.0000 -16.0870 0.0000
# 3 15.3707 26.8262 70.1765 0.0000 -11.6119 0.0000
# 4 0.0000 0.0000 0.0000 40.8201 0.0000 -14.5974
# 5 -14.2844 -16.0870 -11.6119 0.0000 47.3190 0.0000
# 6 0.0000 0.0000 0.0000 -14.5974 0.0000 45.9454
#
#
#
# Elastic Compliance Matrix: (Units=1/GPa)
#
#
# Indices 1 2 3 4 5 6 
#
# 1 0.007520 -0.001892 -0.000683 0.000000 0.001460 0.000000
# 2 -0.001892 0.005990 -0.001702 0.000000 0.001048 0.000000
# 3 -0.000683 -0.001702 0.015552 0.000000 0.003032 0.000000
# 4 0.000000 0.000000 0.000000 0.027638 0.000000 0.008781
# 5 0.001460 0.001048 0.003032 0.000000 0.022674 0.000000
# 6 0.000000 0.000000 0.000000 0.008781 0.000000 0.024555
#
#
# Mechanical properties :
#
#
# Convention : Reuss Voigt Hill
#
# Bulk Modulus (GPa) = 48.75860 67.67085 58.21473
# Shear Modulus (GPa) = 41.90539 48.07898 44.99219
#
# Velocity S-wave (km/s) = 4.08931 4.38019 4.23725
# Velocity P-wave (km/s) = 6.46173 7.25160 6.86803
#
# Compressibility (1/GPa) = 0.02050920
#
# Stress axis : x y z
#
# Youngs Moduli (GPa) = 132.97536 166.95517 64.30236
#
# Poissons Ratio (x) = 0.31580 0.04389
# Poissons Ratio (y) = 0.25153 0.10944
# Poissons Ratio (z) = 0.09076 0.28416
#
# Static dielectric constant tensor:
#      x y z
#    x 2.005900 0.000000 -0.320760 
#    y 0.000000 1.918300 0.000000 
#    z -0.320760 0.000000 1.305210 
# 
# From -- ./inp_files/35834.got.cif
#   From: 2010.05.17/outbox.cif.g08.bks.cpg/sg15_18_cif.got.tgz:35834.got - 2010.06.03 18:47:42.
