data_PCOD9296454
_publ_section_title
;
Structure prediction by ZEFSAII (Michael W. Deem and Ramdas Pophale) SiO2 
 PCOD9296454
Probable space group: C 2/C
;
_chemical_formula_sum "Si O2"
_cell_formula_units_Z 44
_cell_length_a 8.610121
_cell_length_b 15.724710
_cell_length_c 14.902339
_cell_angle_alpha 90.000000
_cell_angle_beta 72.019178
_cell_angle_gamma 90.000000
_cell_volume 1919.110004
_symmetry_space_group_name_H-M "C 2/C"
_symmetry_group_IT_number 15
_symmetry_cell_setting 'monoclinic'
loop_
_space_group_symop_operation_xyz
x,y,z
-x,y,1/2-z
-x,-y,-z
x,-y,1/2+z
1/2+x,1/2+y,z
1/2-x,1/2+y,1/2-z
1/2-x,1/2-y,-z
1/2+x,1/2-y,1/2+z
loop_
_atom_site_type_symbol
_atom_site_label
_atom_site_fract_x
_atom_site_fract_y
_atom_site_fract_z
Si Si1 0.609846 0.772574 0.596719
Si Si2 0.000000 0.862187 0.250000
Si Si3 0.432546 0.852198 0.472524
Si Si4 0.102174 0.166784 0.106548
Si Si5 0.637674 0.943762 0.296980
Si Si6 0.772468 0.875487 0.725521
O O1 0.750000 0.750000 0.500000
O O2 0.521171 0.691261 0.654075
O O3 0.495212 0.834240 0.561052
O O4 0.678689 0.817828 0.672199
O O5 0.822212 0.906520 0.269432
O O6 0.240201 0.869793 0.515860
O O7 0.446781 0.760698 0.419031
O O8 0.545536 0.921261 0.405527
O O9 0.176254 0.173192 0.193186
O O10 0.945715 0.106609 0.145403
O O11 0.500000 0.911452 0.250000
O O12 0.672956 0.041393 0.268391
#
# Coordination Sequence:
#
# PCOD9296454 Si02
#       6
#     8   4   8   8   8   8
#     4  12  24  46  79 112 144 198 262 318 373 457
#     4  12  26  50  78 106 158 198 260 320 380 454
#     4  11  25  45  76 115 142 190 270 318 371 457
#     4  10  23  44  81 105 142 197 256 318 368 456
#     4  12  30  48  70 112 157 205 243 315 400 456
#     4  11  25  49  71 108 158 195 243 312 400 451
#
# _framework density 22.927295000000001
#
# number of rings (size 3 to 8) (size 9 to 14) (size 15 to 20)
#    0.000    0.727    3.636    2.182   14.000    0.727 
#    0.000    1.818    0.000    0.000    0.000    0.000 
#    0.000    0.000    0.000    0.000    0.000    0.000 
#
# Total GULP energy -122950.548223 kJ/mol
# GULP energy per Si atom -5588.661283 kJ/mol
# Density = 2.287511 g / cm^3
# Si number density = 22.927295 Si / 1000 Ang^3
#
#
#
# Elastic Constant Matrix: (Units=GPa)
#
#
# Indices 1 2 3 4 5 6 
#
# 1 147.1356 44.0323 56.2313 0.0000 -18.1569 0.0000
# 2 44.0323 54.6833 43.0836 0.0000 -24.4856 0.0000
# 3 56.2313 43.0836 91.7363 0.0000 -31.0287 0.0000
# 4 0.0000 0.0000 0.0000 21.6013 0.0000 0.2057
# 5 -18.1569 -24.4856 -31.0287 0.0000 65.2157 0.0000
# 6 0.0000 0.0000 0.0000 0.2057 0.0000 18.5629
#
#
#
# Elastic Compliance Matrix: (Units=1/GPa)
#
#
# Indices 1 2 3 4 5 6 
#
# 1 0.009711 -0.005288 -0.003845 0.000000 -0.001111 0.000000
# 2 -0.005288 0.033504 -0.010413 0.000000 0.006153 0.000000
# 3 -0.003845 -0.010413 0.019621 0.000000 0.004355 0.000000
# 4 0.000000 0.000000 0.000000 0.046298 0.000000 -0.000513
# 5 -0.001111 0.006153 0.004355 0.000000 0.019407 0.000000
# 6 0.000000 0.000000 0.000000 -0.000513 0.000000 0.053877
#
#
# Mechanical properties :
#
#
# Convention : Reuss Voigt Hill
#
# Bulk Modulus (GPa) = 42.11353 64.47217 53.29285
# Shear Modulus (GPa) = 21.79370 31.08985 26.44177
#
# Velocity S-wave (km/s) = 3.08645 3.68641 3.39969
# Velocity P-wave (km/s) = 5.57761 6.80447 6.22136
#
# Compressibility (1/GPa) = 0.02374534
#
# Stress axis : x y z
#
# Youngs Moduli (GPa) = 102.97296 29.84730 50.96539
#
# Poissons Ratio (x) = 0.15783 0.19597
# Poissons Ratio (y) = 0.54450 0.53068
# Poissons Ratio (z) = 0.39594 0.31079
#
# Static dielectric constant tensor:
#      x y z
#    x 1.961160 0.000000 -0.067440 
#    y 0.000000 1.853930 0.000000 
#    z -0.067440 0.000000 1.883160 
# 
# From -- ./inp_files/134278.got.cif
#   From: 2010.05.17/outbox.cif.g08.bks.cpg/sg15_68_cif.got.tgz:134278.got - 2010.06.03 18:47:42.
