data_PCOD9296147
_publ_section_title
;
Structure prediction by ZEFSAII (Michael W. Deem and Ramdas Pophale) SiO2 
 PCOD9296147
Probable space group: C 2/C
;
_chemical_formula_sum "Si O2"
_cell_formula_units_Z 44
_cell_length_a 10.657260
_cell_length_b 9.972911
_cell_length_c 27.710036
_cell_angle_alpha 90.000000
_cell_angle_beta 128.274050
_cell_angle_gamma 90.000000
_cell_volume 2312.095576
_symmetry_space_group_name_H-M "C 2/C"
_symmetry_group_IT_number 15
_symmetry_cell_setting 'monoclinic'
loop_
_space_group_symop_operation_xyz
x,y,z
-x,y,1/2-z
-x,-y,-z
x,-y,1/2+z
1/2+x,1/2+y,z
1/2-x,1/2+y,1/2-z
1/2-x,1/2-y,-z
1/2+x,1/2-y,1/2+z
loop_
_atom_site_type_symbol
_atom_site_label
_atom_site_fract_x
_atom_site_fract_y
_atom_site_fract_z
Si Si1 0.184778 0.306462 0.648885
Si Si2 0.163356 0.853258 0.575433
Si Si3 0.012609 0.400759 0.700315
Si Si4 0.430426 0.584220 0.554027
Si Si5 0.500000 0.841329 0.250000
Si Si6 0.345648 0.953035 0.433090
O O1 0.360195 0.243919 0.693284
O O2 0.180504 0.439244 0.615245
O O3 0.130809 0.337397 0.690448
O O4 0.057638 0.199173 0.597989
O O5 0.336107 0.897519 0.635661
O O6 0.157598 0.870583 0.516081
O O7 0.130873 0.698489 0.579942
O O8 0.029547 0.950330 0.565460
O O9 0.064576 0.552586 0.725647
O O10 0.000000 0.332314 0.750000
O O11 0.305517 0.557141 0.566840
O O12 0.500000 0.000000 0.500000
#
# Coordination Sequence:
#
# PCOD9296147 Si02
#       6
#     8   8   8   8   4   8
#     4  12  24  45  71  98 133 177 226 282 331 403
#     4  11  22  44  70  97 138 179 214 276 341 399
#     4  10  23  44  68  91 131 181 219 271 335 387
#     4  11  23  43  71 100 138 173 222 273 343 399
#     4  10  26  46  64  98 134 174 230 274 330 394
#     4  12  25  40  68 107 135 171 220 276 339 403
#
# _framework density 19.030353999999999
#
# number of rings (size 3 to 8) (size 9 to 14) (size 15 to 20)
#    0.545    0.364    5.455    1.636    0.000    6.545 
#    1.636    0.000    0.000    0.000    0.000    0.000 
#    0.000    0.000    0.000    0.000    0.000    0.000 
#
# Total GULP energy -122885.028250 kJ/mol
# GULP energy per Si atom -5585.683102 kJ/mol
# Density = 1.898704 g / cm^3
# Si number density = 19.030354 Si / 1000 Ang^3
#
#
#
# Elastic Constant Matrix: (Units=GPa)
#
#
# Indices 1 2 3 4 5 6 
#
# 1 63.2917 26.6631 10.2372 0.0000 -19.8273 0.0000
# 2 26.6631 126.6983 18.7000 0.0000 -20.1877 0.0000
# 3 10.2372 18.7000 59.1809 0.0000 -18.4649 0.0000
# 4 0.0000 0.0000 0.0000 29.5367 0.0000 -5.9593
# 5 -19.8273 -20.1877 -18.4649 0.0000 29.4316 0.0000
# 6 0.0000 0.0000 0.0000 -5.9593 0.0000 18.4884
#
#
#
# Elastic Compliance Matrix: (Units=1/GPa)
#
#
# Indices 1 2 3 4 5 6 
#
# 1 0.020728 -0.002467 0.001272 0.000000 0.013069 0.000000
# 2 -0.002467 0.009215 -0.001283 0.000000 0.003854 0.000000
# 3 0.001272 -0.001283 0.021231 0.000000 0.013297 0.000000
# 4 0.000000 0.000000 0.000000 0.036211 0.000000 0.011672
# 5 0.013069 0.003854 0.013297 0.000000 0.053768 0.000000
# 6 0.000000 0.000000 0.000000 0.011672 0.000000 0.057850
#
#
# Mechanical properties :
#
#
# Convention : Reuss Voigt Hill
#
# Bulk Modulus (GPa) = 21.63632 40.04129 30.83881
# Shear Modulus (GPa) = 22.79294 28.39603 25.59449
#
# Velocity S-wave (km/s) = 3.46456 3.86702 3.67131
# Velocity P-wave (km/s) = 5.23433 6.40507 5.84907
#
# Compressibility (1/GPa) = 0.04621859
#
# Stress axis : x y z
#
# Youngs Moduli (GPa) = 48.24440 108.51365 47.09984
#
# Poissons Ratio (x) = 0.26774 -0.05990
# Poissons Ratio (y) = 0.11904 0.06041
# Poissons Ratio (z) = -0.06136 0.13917
#
# Static dielectric constant tensor:
#      x y z
#    x 1.647430 0.000000 -0.009670 
#    y 0.000000 1.656640 0.000000 
#    z -0.009670 0.000000 1.650530 
# 
# From -- ./inp_files/236136.got.cif
#   From: 2010.05.17/outbox.cif.g08.bks.cpg/sg15_119_cif.got.tgz:236136.got - 2010.06.03 18:47:42.
