data_PCOD9296708
_publ_section_title
;
Structure prediction by ZEFSAII (Michael W. Deem and Ramdas Pophale) SiO2 
 PCOD9296708
Probable space group: C 2/C
;
_chemical_formula_sum "Si O2"
_cell_formula_units_Z 44
_cell_length_a 20.450067
_cell_length_b 8.723620
_cell_length_c 22.960578
_cell_angle_alpha 90.000000
_cell_angle_beta 23.707063
_cell_angle_gamma 90.000000
_cell_volume 1646.894812
_symmetry_space_group_name_H-M "C 2/C"
_symmetry_group_IT_number 15
_symmetry_cell_setting 'monoclinic'
loop_
_space_group_symop_operation_xyz
x,y,z
-x,y,1/2-z
-x,-y,-z
x,-y,1/2+z
1/2+x,1/2+y,z
1/2-x,1/2+y,1/2-z
1/2-x,1/2-y,-z
1/2+x,1/2-y,1/2+z
loop_
_atom_site_type_symbol
_atom_site_label
_atom_site_fract_x
_atom_site_fract_y
_atom_site_fract_z
Si Si1 0.000000 0.309361 0.250000
Si Si2 0.063482 0.277401 0.397333
Si Si3 0.256419 0.050348 0.444430
Si Si4 0.786580 0.434412 0.787871
Si Si5 0.701869 0.621987 0.177754
Si Si6 0.921182 0.186881 0.746281
O O1 0.873095 0.431086 0.382866
O O2 0.881104 0.204773 0.309470
O O3 0.160787 0.432883 0.299415
O O4 0.141772 0.173668 0.383622
O O5 0.080032 0.167877 0.328186
O O6 0.877329 0.321904 0.555838
O O7 0.244726 0.997411 0.385959
O O8 0.348590 0.211233 0.358076
O O9 0.084243 0.085385 0.612767
O O10 0.928851 0.312317 0.688042
O O11 0.711264 0.442254 0.159232
#
# Coordination Sequence:
#
# PCOD9296708 Si02
#       6
#     4   8   8   8   8   8
#     4  12  26  50  70 104 150 184 250 292 354 422
#     4  12  26  45  74 107 146 183 243 288 371 417
#     4  10  24  46  73 104 141 195 232 298 349 424
#     4  10  25  46  74 106 148 185 232 304 351 439
#     4  12  27  45  73 109 139 196 233 301 350 431
#     4  10  23  45  73 107 140 186 245 280 373 407
#
# _framework density 26.716944999999999
#
# number of rings (size 3 to 8) (size 9 to 14) (size 15 to 20)
#    1.091    0.000    1.818    3.273    2.545    6.545 
#    0.000    0.000    0.000    0.000    0.000    0.000 
#    0.000    0.000    0.000    0.000    0.000    0.000 
#
# Total GULP energy -123054.461157 kJ/mol
# GULP energy per Si atom -5593.384598 kJ/mol
# Density = 2.665614 g / cm^3
# Si number density = 26.716945 Si / 1000 Ang^3
#
#
#
# Elastic Constant Matrix: (Units=GPa)
#
#
# Indices 1 2 3 4 5 6 
#
# 1 56.9813 34.3570 0.7380 -0.0003 -14.0414 -0.0001
# 2 34.3570 162.2117 33.8798 -0.0004 -9.8366 0.0003
# 3 0.7380 33.8798 124.2945 -0.0009 -12.6643 -0.0005
# 4 -0.0003 -0.0004 -0.0009 34.1807 0.0002 2.8965
# 5 -14.0414 -9.8366 -12.6643 0.0002 27.6803 0.0001
# 6 -0.0001 0.0003 -0.0005 2.8965 0.0001 6.5922
#
#
#
# Elastic Compliance Matrix: (Units=1/GPa)
#
#
# Indices 1 2 3 4 5 6 
#
# 1 0.023078 -0.004690 0.002270 0.000000 0.011079 0.000000
# 2 -0.004690 0.007557 -0.002099 0.000000 -0.000654 -0.000001
# 3 0.002270 -0.002099 0.009068 0.000000 0.004555 0.000001
# 4 0.000000 0.000000 0.000000 0.030388 0.000000 -0.013352
# 5 0.011079 -0.000654 0.004555 0.000000 0.043598 0.000000
# 6 0.000000 -0.000001 0.000001 -0.013352 0.000000 0.157562
#
#
# Mechanical properties :
#
#
# Convention : Reuss Voigt Hill
#
# Bulk Modulus (GPa) = 32.60964 53.49301 43.05132
# Shear Modulus (GPa) = 17.21107 31.99148 24.60127
#
# Velocity S-wave (km/s) = 2.54086 3.46413 3.03778
# Velocity P-wave (km/s) = 4.56509 6.00549 5.33413
#
# Compressibility (1/GPa) = 0.03066578
#
# Stress axis : x y z
#
# Youngs Moduli (GPa) = 43.33061 132.32946 110.27739
#
# Poissons Ratio (x) = 0.62068 -0.25036
# Poissons Ratio (y) = 0.20324 0.23143
# Poissons Ratio (z) = -0.09837 0.27771
#
# Static dielectric constant tensor:
#      x y z
#    x 2.228520 0.000000 -0.091530 
#    y 0.000000 2.122050 0.000000 
#    z -0.091530 0.000000 2.073100 
# 
# From -- ./inp_files/318566.got.cif
#   From: 2010.05.17/outbox.cif.g08.bks.cpg/sg15_160_cif.got.tgz:318566.got - 2010.06.03 18:47:42.
