data_PCOD9296561
_publ_section_title
;
Structure prediction by ZEFSAII (Michael W. Deem and Ramdas Pophale) SiO2 
 PCOD9296561
Probable space group: C 2/C
;
_chemical_formula_sum "Si O2"
_cell_formula_units_Z 60
_cell_length_a 26.935044
_cell_length_b 13.948693
_cell_length_c 18.616911
_cell_angle_alpha 90.000000
_cell_angle_beta 156.391799
_cell_angle_gamma 90.000000
_cell_volume 2801.172588
_symmetry_space_group_name_H-M "C 2/C"
_symmetry_group_IT_number 15
_symmetry_cell_setting 'monoclinic'
loop_
_space_group_symop_operation_xyz
x,y,z
-x,y,1/2-z
-x,-y,-z
x,-y,1/2+z
1/2+x,1/2+y,z
1/2-x,1/2+y,1/2-z
1/2-x,1/2-y,-z
1/2+x,1/2-y,1/2+z
loop_
_atom_site_type_symbol
_atom_site_label
_atom_site_fract_x
_atom_site_fract_y
_atom_site_fract_z
Si Si1 0.329996 0.071501 0.047978
Si Si2 0.383471 0.443727 0.877810
Si Si3 0.644060 0.348299 0.937633
Si Si4 0.426175 0.329809 0.291111
Si Si5 0.304913 0.958607 0.270944
Si Si6 0.000000 0.726286 0.250000
Si Si7 0.424624 0.120340 0.334220
Si Si8 0.274388 0.133756 0.455970
O O1 0.396134 0.151081 0.086436
O O2 0.377698 0.088637 0.192634
O O3 0.184839 0.095048 0.851221
O O4 0.354314 0.963089 0.058252
O O5 0.282251 0.513925 0.777946
O O6 0.323935 0.377734 0.738019
O O7 0.500000 0.500000 0.000000
O O8 0.443664 0.377634 0.018391
O O9 0.500000 0.378093 0.750000
O O10 0.705271 0.370000 0.941335
O O11 0.725081 0.398811 0.106983
O O12 0.654439 0.233099 0.958365
O O13 0.434875 0.290225 0.222419
O O14 0.405261 0.234941 0.311651
O O15 0.430818 0.904521 0.460880
O O16 0.348905 0.057533 0.291149
#
# Coordination Sequence:
#
# PCOD9296561 Si02
#       8
#     8   8   8   8   8   4   8   8
#     4  11  23  43  70  99 141 171 230 278 343 409
#     4  12  26  44  68 103 142 180 227 289 349 399
#     4  11  25  47  75  98 136 186 237 281 343 414
#     4  11  25  42  69 102 139 173 228 278 343 414
#     4  11  25  45  72 101 138 182 230 281 347 410
#     4  10  24  38  70 100 132 184 216 280 342 416
#     4  10  23  45  68 103 134 180 222 283 337 411
#     4  11  25  46  66 104 139 178 235 283 341 411
#
# _framework density 21.419601
#
# number of rings (size 3 to 8) (size 9 to 14) (size 15 to 20)
#    0.000    1.067    2.667    3.200    8.400    0.000 
#    7.200    0.000    0.000    0.000    0.000    0.000 
#    0.000    0.000    0.000    0.000    0.000    0.000 
#
# Total GULP energy -167718.788871 kJ/mol
# GULP energy per Si atom -5590.626296 kJ/mol
# Density = 2.137085 g / cm^3
# Si number density = 21.419601 Si / 1000 Ang^3
#
#
#
# Elastic Constant Matrix: (Units=GPa)
#
#
# Indices 1 2 3 4 5 6 
#
# 1 73.5063 12.8445 27.9990 0.0000 5.9339 0.0000
# 2 12.8445 96.7338 29.2536 0.0000 4.5001 0.0000
# 3 27.9990 29.2536 138.9558 0.0000 -6.0109 0.0000
# 4 0.0000 0.0000 0.0000 36.3401 0.0000 -3.8098
# 5 5.9339 4.5001 -6.0109 0.0000 29.4374 0.0000
# 6 0.0000 0.0000 0.0000 -3.8098 0.0000 11.0778
#
#
#
# Elastic Compliance Matrix: (Units=1/GPa)
#
#
# Indices 1 2 3 4 5 6 
#
# 1 0.015204 -0.000941 -0.003018 0.000000 -0.003537 0.000000
# 2 -0.000941 0.011239 -0.002263 0.000000 -0.001990 0.000000
# 3 -0.003018 -0.002263 0.008396 0.000000 0.002669 0.000000
# 4 0.000000 0.000000 0.000000 0.028547 0.000000 0.009818
# 5 -0.003537 -0.001990 0.002669 0.000000 0.035533 0.000000
# 6 0.000000 0.000000 0.000000 0.009818 0.000000 0.093647
#
#
# Mechanical properties :
#
#
# Convention : Reuss Voigt Hill
#
# Bulk Modulus (GPa) = 44.65243 49.93222 47.29233
# Shear Modulus (GPa) = 23.53200 31.31097 27.42148
#
# Velocity S-wave (km/s) = 3.31814 3.82748 3.58188
# Velocity P-wave (km/s) = 5.96421 6.54942 6.26366
#
# Compressibility (1/GPa) = 0.02239520
#
# Stress axis : x y z
#
# Youngs Moduli (GPa) = 65.77197 88.97198 119.09733
#
# Poissons Ratio (x) = 0.08377 0.35948
# Poissons Ratio (y) = 0.06192 0.26947
# Poissons Ratio (z) = 0.19852 0.20131
#
# Static dielectric constant tensor:
#      x y z
#    x 1.773490 0.000000 0.002570 
#    y 0.000000 1.778300 0.000000 
#    z 0.002570 0.000000 1.774380 
# 
# From -- ./inp_files/259418.got.cif
#   From: 2010.05.17/outbox.cif.g08.bks.cpg/sg15_130_cif.got.tgz:259418.got - 2010.06.03 18:47:42.
