data_PCOD9296737
_publ_section_title
;
Structure prediction by ZEFSAII (Michael W. Deem and Ramdas Pophale) SiO2 
 PCOD9296737
Probable space group: C 2/C
;
_chemical_formula_sum "Si O2"
_cell_formula_units_Z 48
_cell_length_a 27.380274
_cell_length_b 7.635967
_cell_length_c 9.153829
_cell_angle_alpha 90.000000
_cell_angle_beta 89.349032
_cell_angle_gamma 90.000000
_cell_volume 1913.712075
_symmetry_space_group_name_H-M "C 2/C"
_symmetry_group_IT_number 15
_symmetry_cell_setting 'monoclinic'
loop_
_space_group_symop_operation_xyz
x,y,z
-x,y,1/2-z
-x,-y,-z
x,-y,1/2+z
1/2+x,1/2+y,z
1/2-x,1/2+y,1/2-z
1/2-x,1/2-y,-z
1/2+x,1/2-y,1/2+z
loop_
_atom_site_type_symbol
_atom_site_label
_atom_site_fract_x
_atom_site_fract_y
_atom_site_fract_z
Si Si1 0.448042 0.281728 0.433241
Si Si2 0.296115 0.681693 0.903178
Si Si3 0.759271 0.194535 0.336143
Si Si4 0.392321 0.918227 0.431410
Si Si5 0.061017 0.879922 0.386531
Si Si6 0.158227 0.642635 0.858135
O O1 0.287842 0.512558 0.347201
O O2 0.506263 0.301661 0.407599
O O3 0.424611 0.352536 0.282369
O O4 0.438891 0.418332 0.564808
O O5 0.290478 0.798821 0.758293
O O6 0.250000 0.750000 0.000000
O O7 0.339115 0.701109 0.019943
O O8 0.750000 0.250000 0.500000
O O9 0.654751 0.013205 0.476253
O O10 0.795949 0.321833 0.248302
O O11 0.407685 0.739258 0.506543
O O12 0.383550 0.888022 0.260309
O O13 0.430015 0.081672 0.451763
#
# Coordination Sequence:
#
# PCOD9296737 Si02
#       6
#     8   8   8   8   8   8
#     4  10  23  45  75 108 148 196 253 297 352 437
#     4  10  24  45  72 105 134 181 245 303 372 444
#     4  11  24  46  79 103 138 184 246 312 370 454
#     4  12  25  48  71 105 158 195 241 301 383 437
#     4  10  23  45  75 110 145 200 250 297 352 437
#     4  11  28  43  70 107 144 190 236 303 372 443
#
# _framework density 25.082145000000001
#
# number of rings (size 3 to 8) (size 9 to 14) (size 15 to 20)
#    0.000    1.333    1.667    2.500   11.667    1.333 
#    0.000    0.000    0.000    0.000    0.000    0.000 
#    0.000    0.000    0.000    0.000    0.000    0.000 
#
# Total GULP energy -134055.642500 kJ/mol
# GULP energy per Si atom -5585.651771 kJ/mol
# Density = 2.502506 g / cm^3
# Si number density = 25.082145 Si / 1000 Ang^3
#
#
#
# Elastic Constant Matrix: (Units=GPa)
#
#
# Indices 1 2 3 4 5 6 
#
# 1 57.0883 25.4252 25.9030 0.0000 0.5166 0.0000
# 2 25.4252 116.2424 33.6898 0.0000 4.9646 0.0000
# 3 25.9030 33.6898 199.8450 0.0000 13.5165 0.0000
# 4 0.0000 0.0000 0.0000 46.7253 0.0000 2.7109
# 5 0.5166 4.9646 13.5165 0.0000 41.9459 0.0000
# 6 0.0000 0.0000 0.0000 2.7109 0.0000 34.7089
#
#
#
# Elastic Compliance Matrix: (Units=1/GPa)
#
#
# Indices 1 2 3 4 5 6 
#
# 1 0.020143 -0.003857 -0.002019 0.000000 0.000859 0.000000
# 2 -0.003857 0.009798 -0.001100 0.000000 -0.000758 0.000000
# 3 -0.002019 -0.001100 0.005562 0.000000 -0.001637 0.000000
# 4 0.000000 0.000000 0.000000 0.021499 0.000000 -0.001679
# 5 0.000859 -0.000758 -0.001637 0.000000 0.024447 0.000000
# 6 0.000000 0.000000 0.000000 -0.001679 0.000000 0.028942
#
#
# Mechanical properties :
#
#
# Convention : Reuss Voigt Hill
#
# Bulk Modulus (GPa) = 46.40525 60.35686 53.38106
# Shear Modulus (GPa) = 38.01514 43.88655 40.95085
#
# Velocity S-wave (km/s) = 3.89733 4.18749 4.04501
# Velocity P-wave (km/s) = 6.22846 6.89174 6.56848
#
# Compressibility (1/GPa) = 0.02154929
#
# Stress axis : x y z
#
# Youngs Moduli (GPa) = 49.64549 102.06451 179.79888
#
# Poissons Ratio (x) = 0.39370 0.36295
# Poissons Ratio (y) = 0.19150 0.19787
# Poissons Ratio (z) = 0.10022 0.11232
#
# Static dielectric constant tensor:
#      x y z
#    x 2.197070 0.000000 0.015000 
#    y 0.000000 1.995420 0.000000 
#    z 0.015000 0.000000 1.964210 
# 
# From -- ./inp_files/60637.got.cif
#   From: 2010.05.17/outbox.cif.g08.bks.cpg/sg15_31_cif.got.tgz:60637.got - 2010.06.03 18:47:42.
