data_PCOD9296876
_publ_section_title
;
Structure prediction by ZEFSAII (Michael W. Deem and Ramdas Pophale) SiO2 
 PCOD9296876
Probable space group: C 2/C
;
_chemical_formula_sum "Si O2"
_cell_formula_units_Z 48
_cell_length_a 11.594459
_cell_length_b 21.393219
_cell_length_c 13.090656
_cell_angle_alpha 90.000000
_cell_angle_beta 136.261505
_cell_angle_gamma 90.000000
_cell_volume 2244.901579
_symmetry_space_group_name_H-M "C 2/C"
_symmetry_group_IT_number 15
_symmetry_cell_setting 'monoclinic'
loop_
_space_group_symop_operation_xyz
x,y,z
-x,y,1/2-z
-x,-y,-z
x,-y,1/2+z
1/2+x,1/2+y,z
1/2-x,1/2+y,1/2-z
1/2-x,1/2-y,-z
1/2+x,1/2-y,1/2+z
loop_
_atom_site_type_symbol
_atom_site_label
_atom_site_fract_x
_atom_site_fract_y
_atom_site_fract_z
Si Si1 0.132792 0.930177 0.425561
Si Si2 0.644747 0.048134 0.921411
Si Si3 0.561998 0.725187 0.394160
Si Si4 0.890730 0.116801 0.924575
Si Si5 0.633297 0.189444 0.424663
Si Si6 0.430290 0.848756 0.394606
O O1 0.247201 0.869763 0.511003
O O2 0.000000 0.924767 0.250000
O O3 0.028151 0.929168 0.464775
O O4 0.253342 0.988183 0.477200
O O5 0.500000 0.027568 0.750000
O O6 0.777805 0.087199 0.940965
O O7 0.553704 0.094568 0.942846
O O8 0.500000 0.692995 0.250000
O O9 0.750000 0.750000 0.500000
O O10 0.541490 0.679797 0.478299
O O11 0.459217 0.788873 0.341750
O O12 0.759657 0.131670 0.749947
O O13 0.500000 0.194735 0.250000
O O14 0.750000 0.250000 0.500000
O O15 0.543777 0.176155 0.475207
#
# Coordination Sequence:
#
# PCOD9296876 Si02
#       6
#     8   8   8   8   8   8
#     4  12  25  47  70 102 139 184 236 289 353 419
#     4  10  23  46  71 101 137 183 237 291 353 410
#     4  12  22  39  69 105 139 176 228 286 351 418
#     4  11  23  45  69 101 145 181 232 291 352 420
#     4  12  28  48  72 103 142 186 234 284 352 429
#     4  11  23  44  72 100 141 187 230 291 352 419
#
# _framework density 21.381784
#
# number of rings (size 3 to 8) (size 9 to 14) (size 15 to 20)
#    0.000    0.667    5.000    3.000    2.333    2.667 
#    6.000    0.000    0.000    0.000    0.000    0.000 
#    0.000    0.000    0.000    0.000    0.000    0.000 
#
# Total GULP energy -134137.571216 kJ/mol
# GULP energy per Si atom -5589.065467 kJ/mol
# Density = 2.133312 g / cm^3
# Si number density = 21.381784 Si / 1000 Ang^3
#
#
#
# Elastic Constant Matrix: (Units=GPa)
#
#
# Indices 1 2 3 4 5 6 
#
# 1 93.5973 40.3074 46.7826 0.0000 -13.6229 0.0000
# 2 40.3074 124.8679 67.3237 0.0000 10.4349 0.0000
# 3 46.7826 67.3237 145.7813 0.0000 -7.7691 0.0000
# 4 0.0000 0.0000 0.0000 28.1097 0.0000 4.9726
# 5 -13.6229 10.4349 -7.7691 0.0000 31.1997 0.0000
# 6 0.0000 0.0000 0.0000 4.9726 0.0000 20.1720
#
#
#
# Elastic Compliance Matrix: (Units=1/GPa)
#
#
# Indices 1 2 3 4 5 6 
#
# 1 0.014686 -0.003995 -0.002488 0.000000 0.007129 0.000000
# 2 -0.003995 0.012530 -0.004886 0.000000 -0.007151 0.000000
# 3 -0.002488 -0.004886 0.010077 0.000000 0.003057 0.000000
# 4 0.000000 0.000000 0.000000 0.037197 0.000000 -0.009170
# 5 0.007129 -0.007151 0.003057 0.000000 0.038317 0.000000
# 6 0.000000 0.000000 0.000000 -0.009170 0.000000 0.051834
#
#
# Mechanical properties :
#
#
# Convention : Reuss Voigt Hill
#
# Bulk Modulus (GPa) = 68.70134 74.78598 71.74366
# Shear Modulus (GPa) = 26.01062 29.88515 27.94788
#
# Velocity S-wave (km/s) = 3.49160 3.74263 3.61929
# Velocity P-wave (km/s) = 6.96100 7.32999 7.14788
#
# Compressibility (1/GPa) = 0.01455576
#
# Stress axis : x y z
#
# Youngs Moduli (GPa) = 68.09408 79.81043 99.23481
#
# Poissons Ratio (x) = 0.31883 0.24689
# Poissons Ratio (y) = 0.27202 0.48481
# Poissons Ratio (z) = 0.16942 0.38992
#
# Static dielectric constant tensor:
#      x y z
#    x 1.854240 0.000000 -0.018640 
#    y 0.000000 1.784970 0.000000 
#    z -0.018640 0.000000 1.747840 
# 
# From -- ./inp_files/89778.got.cif
#   From: 2010.05.17/outbox.cif.g08.bks.cpg/sg15_45_cif.got.tgz:89778.got - 2010.06.03 18:47:42.
