data_PCOD9296308
_publ_section_title
;
Structure prediction by ZEFSAII (Michael W. Deem and Ramdas Pophale) SiO2 
 PCOD9296308
Probable space group: C 2/C
;
_chemical_formula_sum "Si O2"
_cell_formula_units_Z 40
_cell_length_a 15.459046
_cell_length_b 20.610901
_cell_length_c 5.484315
_cell_angle_alpha 90.000000
_cell_angle_beta 95.197170
_cell_angle_gamma 90.000000
_cell_volume 1740.255193
_symmetry_space_group_name_H-M "C 2/C"
_symmetry_group_IT_number 15
_symmetry_cell_setting 'monoclinic'
loop_
_space_group_symop_operation_xyz
x,y,z
-x,y,1/2-z
-x,-y,-z
x,-y,1/2+z
1/2+x,1/2+y,z
1/2-x,1/2+y,1/2-z
1/2-x,1/2-y,-z
1/2+x,1/2-y,1/2+z
loop_
_atom_site_type_symbol
_atom_site_label
_atom_site_fract_x
_atom_site_fract_y
_atom_site_fract_z
Si Si1 0.500000 0.912907 0.750000
Si Si2 0.598529 0.473817 0.496718
Si Si3 0.310931 0.038008 0.300310
Si Si4 0.682397 0.777402 0.288309
Si Si5 0.795053 0.146462 0.472941
Si Si6 0.500000 0.835873 0.250000
O O1 0.585473 0.951288 0.692084
O O2 0.476691 0.873815 0.494456
O O3 0.500000 0.500000 0.500000
O O4 0.634509 0.488472 0.773501
O O5 0.622477 0.399456 0.450424
O O6 0.263246 0.106989 0.237838
O O7 0.292098 0.006245 0.557008
O O8 0.750000 0.750000 0.500000
O O9 0.673100 0.716870 0.101181
O O10 0.586375 0.796255 0.345138
O O11 0.729780 0.838718 0.176788
#
# Coordination Sequence:
#
# PCOD9296308 Si02
#       6
#     4   8   8   8   8   4
#     4  12  24  47  70 104 148 181 250 304 364 450
#     4  10  23  44  71 104 144 188 234 301 368 440
#     4  12  25  42  72 104 141 189 233 302 371 440
#     4  11  27  48  76 105 146 205 249 315 368 447
#     4  11  25  46  69 107 145 189 251 298 376 443
#     4  12  26  49  76 106 146 195 250 310 368 438
#
# _framework density 22.985133000000001
#
# number of rings (size 3 to 8) (size 9 to 14) (size 15 to 20)
#    0.000    0.800    2.000    4.200    8.400    1.600 
#    3.600    0.000    0.000    0.000    0.000    0.000 
#    0.000    0.000    0.000    0.000    0.000    0.000 
#
# Total GULP energy -111705.129356 kJ/mol
# GULP energy per Si atom -5585.256468 kJ/mol
# Density = 2.293282 g / cm^3
# Si number density = 22.985133 Si / 1000 Ang^3
#
#
#
# Elastic Constant Matrix: (Units=GPa)
#
#
# Indices 1 2 3 4 5 6 
#
# 1 144.3856 36.8984 34.0311 0.0000 -6.2321 0.0000
# 2 36.8984 93.2647 33.2092 0.0000 -12.3432 0.0000
# 3 34.0311 33.2092 121.3614 0.0000 -16.7836 0.0000
# 4 0.0000 0.0000 0.0000 32.7811 0.0000 8.0508
# 5 -6.2321 -12.3432 -16.7836 0.0000 46.4013 0.0000
# 6 0.0000 0.0000 0.0000 8.0508 0.0000 35.1757
#
#
#
# Elastic Compliance Matrix: (Units=1/GPa)
#
#
# Indices 1 2 3 4 5 6 
#
# 1 0.007950 -0.002623 -0.001537 0.000000 -0.000186 0.000000
# 2 -0.002623 0.012940 -0.002503 0.000000 0.002184 0.000000
# 3 -0.001537 -0.002503 0.009722 0.000000 0.002644 0.000000
# 4 0.000000 0.000000 0.000000 0.032322 0.000000 -0.007398
# 5 -0.000186 0.002184 0.002644 0.000000 0.023064 0.000000
# 6 0.000000 0.000000 0.000000 -0.007398 0.000000 0.030122
#
#
# Mechanical properties :
#
#
# Convention : Reuss Voigt Hill
#
# Bulk Modulus (GPa) = 57.85244 63.03210 60.44227
# Shear Modulus (GPa) = 36.97984 39.86317 38.42151
#
# Velocity S-wave (km/s) = 4.01541 4.16901 4.09293
# Velocity P-wave (km/s) = 6.83536 7.11736 6.97778
#
# Compressibility (1/GPa) = 0.01728536
#
# Stress axis : x y z
#
# Youngs Moduli (GPa) = 125.77883 77.27813 102.86309
#
# Poissons Ratio (x) = 0.20267 0.15815
# Poissons Ratio (y) = 0.32987 0.25751
# Poissons Ratio (z) = 0.19338 0.19346
#
# Static dielectric constant tensor:
#      x y z
#    x 0.660700 0.000000 -0.292700 
#    y 0.000000 1.856220 0.000000 
#    z -0.292700 0.000000 1.830620 
# 
# From -- ./inp_files/9844.got.cif
#   From: 2010.05.17/outbox.cif.g08.bks.cpg/sg15_5_cif.got.tgz:9844.got - 2010.06.03 18:47:42.
