data_PCOD9296373
_publ_section_title
;
Structure prediction by ZEFSAII (Michael W. Deem and Ramdas Pophale) SiO2 
 PCOD9296373
Probable space group: C 2/C
;
_chemical_formula_sum "Si O2"
_cell_formula_units_Z 32
_cell_length_a 8.447046
_cell_length_b 14.117223
_cell_length_c 11.303554
_cell_angle_alpha 90.000000
_cell_angle_beta 85.852017
_cell_angle_gamma 90.000000
_cell_volume 1344.404772
_symmetry_space_group_name_H-M "C 2/C"
_symmetry_group_IT_number 15
_symmetry_cell_setting 'monoclinic'
loop_
_space_group_symop_operation_xyz
x,y,z
-x,y,1/2-z
-x,-y,-z
x,-y,1/2+z
1/2+x,1/2+y,z
1/2-x,1/2+y,1/2-z
1/2-x,1/2-y,-z
1/2+x,1/2-y,1/2+z
loop_
_atom_site_type_symbol
_atom_site_label
_atom_site_fract_x
_atom_site_fract_y
_atom_site_fract_z
Si Si1 0.098484 0.166303 0.912822
Si Si2 0.195780 0.165632 0.166657
Si Si3 0.178426 0.470817 0.257720
Si Si4 0.754878 0.302673 0.121811
O O1 0.153791 0.275805 0.893717
O O2 0.228891 0.094198 0.846176
O O3 0.927656 0.161611 0.860977
O O4 0.090379 0.152398 0.054605
O O5 0.171932 0.234117 0.281600
O O6 0.220724 0.062239 0.217192
O O7 0.152973 0.400019 0.370135
O O8 0.000000 0.506512 0.250000
O O9 0.750000 0.250000 0.000000
#
# Coordination Sequence:
#
# PCOD9296373 Si02
#       4
#     8   8   8   8
#     4  10  24  47  66  96 142 179 221 286 343 401
#     4  10  23  44  72  92 137 180 223 283 341 404
#     4  11  24  42  69 102 130 178 232 277 339 409
#     4  11  26  44  67 100 135 179 228 279 339 409
#
# _framework density 23.802354999999999
#
# number of rings (size 3 to 8) (size 9 to 14) (size 15 to 20)
#    0.000    1.500    0.000    4.500   14.000    2.000 
#    4.500    0.000    0.000    0.000    0.000    0.000 
#    0.000    0.000    0.000    0.000    0.000    0.000 
#
# Total GULP energy -89112.993555 kJ/mol
# GULP energy per Si atom -5569.562097 kJ/mol
# Density = 2.374818 g / cm^3
# Si number density = 23.802355 Si / 1000 Ang^3
#
#
#
# Elastic Constant Matrix: (Units=GPa)
#
#
# Indices 1 2 3 4 5 6 
#
# 1 39.7004 -5.1465 63.7009 0.0000 -8.7136 0.0000
# 2 -5.1465 152.6088 38.8755 0.0000 1.1579 0.0000
# 3 63.7009 38.8755 100.6087 0.0000 23.3904 0.0000
# 4 0.0000 0.0000 0.0000 29.9756 0.0000 16.2250
# 5 -8.7136 1.1579 23.3904 0.0000 26.7732 0.0000
# 6 0.0000 0.0000 0.0000 16.2250 0.0000 -0.5317
#
#
#
# Elastic Compliance Matrix: (Units=1/GPa)
#
#
# Indices 1 2 3 4 5 6 
#
# 1 -0.026635 -0.007604 0.027283 0.000000 -0.032175 0.000000
# 2 -0.007604 0.005254 0.004282 0.000000 -0.006443 0.000000
# 3 0.027283 0.004282 -0.013817 0.000000 0.020765 0.000000
# 4 0.000000 0.000000 0.000000 0.001905 0.000000 0.058115
# 5 -0.032175 -0.006443 0.020765 0.000000 0.009016 0.000000
# 6 0.000000 0.000000 0.000000 0.058115 0.000000 -0.107367
#
#
# Mechanical properties :
#
#
# Convention : Reuss Voigt Hill
#
# Bulk Modulus (GPa) = 78.59155 54.19752 66.39454
# Shear Modulus (GPa) = -28.51869 24.27595 -2.12137
#
# Velocity S-wave (km/s) = -3.46518 3.19705 -0.94508
# Velocity P-wave (km/s) = 4.13281 6.03717 5.17337
#
# Compressibility (1/GPa) = 0.01272401
#
# Stress axis : x y z
#
# Youngs Moduli (GPa) = -37.54487 190.31998 -72.37501
#
# Poissons Ratio (x) = 1.44720 1.97457
# Poissons Ratio (y) = -0.28549 0.30993
# Poissons Ratio (z) = 1.02432 -0.81499
#
# Static dielectric constant tensor:
#      x y z
#    x 1.960610 0.000000 -0.082530 
#    y 0.000000 1.853100 0.000000 
#    z -0.082530 0.000000 2.064520 
# 
# From -- ./inp_files/75326.got.cif
#   From: 2010.05.17/outbox.cif.g08.bks.cpg/sg15_38_cif.got.tgz:75326.got - 2010.06.03 18:47:42.
