data_PCOD9296881
_publ_section_title
;
Structure prediction by ZEFSAII (Michael W. Deem and Ramdas Pophale) SiO2 
 PCOD9296881
Probable space group: C 2/C
;
_chemical_formula_sum "Si O2"
_cell_formula_units_Z 36
_cell_length_a 8.097736
_cell_length_b 21.941097
_cell_length_c 15.596615
_cell_angle_alpha 90.000000
_cell_angle_beta 32.718208
_cell_angle_gamma 90.000000
_cell_volume 1497.801295
_symmetry_space_group_name_H-M "C 2/C"
_symmetry_group_IT_number 15
_symmetry_cell_setting 'monoclinic'
loop_
_space_group_symop_operation_xyz
x,y,z
-x,y,1/2-z
-x,-y,-z
x,-y,1/2+z
1/2+x,1/2+y,z
1/2-x,1/2+y,1/2-z
1/2-x,1/2-y,-z
1/2+x,1/2-y,1/2+z
loop_
_atom_site_type_symbol
_atom_site_label
_atom_site_fract_x
_atom_site_fract_y
_atom_site_fract_z
Si Si1 0.091050 0.391433 0.808447
Si Si2 0.614279 0.372877 0.348863
Si Si3 0.973201 0.203053 0.449816
Si Si4 0.500000 0.717106 0.750000
Si Si5 0.211720 0.482391 0.327180
O O1 0.322407 0.334446 0.708841
O O2 0.263858 0.452208 0.761513
O O3 0.000000 0.399170 0.750000
O O4 0.754556 0.386611 0.996473
O O5 0.667256 0.344684 0.420564
O O6 0.646058 0.322036 0.261977
O O7 0.822451 0.430984 0.231051
O O8 0.750000 0.250000 0.500000
O O9 0.220100 0.239871 0.399368
O O10 0.500000 0.456528 0.250000
O O11 0.000000 0.500000 0.500000
#
# Coordination Sequence:
#
# PCOD9296881 Si02
#       5
#     8   8   8   4   8
#     4  10  23  46  71 103 150 195 242 317 387 451
#     4  11  23  47  73 101 155 200 239 326 391 443
#     4  11  26  45  72 108 145 205 260 312 381 470
#     4  12  22  46  72  96 152 194 254 310 384 446
#     4  12  24  46  76 111 144 194 254 313 386 464
#
# _framework density 24.035229999999999
#
# number of rings (size 3 to 8) (size 9 to 14) (size 15 to 20)
#    0.000    0.889    6.667    0.667    0.000    8.000 
#    4.000    0.000    0.000    0.000    0.000    0.000 
#    0.000    0.000    0.000    0.000    0.000    0.000 
#
# Total GULP energy -100413.294093 kJ/mol
# GULP energy per Si atom -5578.516339 kJ/mol
# Density = 2.398053 g / cm^3
# Si number density = 24.035230 Si / 1000 Ang^3
#
#
#
# Elastic Constant Matrix: (Units=GPa)
#
#
# Indices 1 2 3 4 5 6 
#
# 1 81.6091 51.5217 28.9578 -0.0001 -5.7985 0.0002
# 2 51.5217 161.2959 62.3602 0.0000 6.2929 -0.0001
# 3 28.9578 62.3602 131.8915 -0.0004 18.8607 0.0013
# 4 -0.0001 0.0000 -0.0004 46.1454 0.0001 3.9320
# 5 -5.7985 6.2929 18.8607 0.0001 22.6363 -0.0002
# 6 0.0002 -0.0001 0.0013 3.9320 -0.0002 50.0253
#
#
#
# Elastic Compliance Matrix: (Units=1/GPa)
#
#
# Indices 1 2 3 4 5 6 
#
# 1 0.016625 -0.004618 -0.002565 0.000000 0.007679 0.000000
# 2 -0.004618 0.008890 -0.003027 0.000000 -0.001132 0.000000
# 3 -0.002565 -0.003027 0.010842 0.000000 -0.008849 0.000000
# 4 0.000000 0.000000 0.000000 0.021817 0.000000 -0.001715
# 5 0.007679 -0.001132 -0.008849 0.000000 0.053832 0.000000
# 6 0.000000 0.000000 0.000000 -0.001715 0.000000 0.020125
#
#
# Mechanical properties :
#
#
# Convention : Reuss Voigt Hill
#
# Bulk Modulus (GPa) = 62.75227 73.38623 68.06925
# Shear Modulus (GPa) = 31.67324 39.22520 35.44922
#
# Velocity S-wave (km/s) = 3.63407 4.04417 3.84459
# Velocity P-wave (km/s) = 6.61617 7.23921 6.93469
#
# Compressibility (1/GPa) = 0.01593568
#
# Stress axis : x y z
#
# Youngs Moduli (GPa) = 60.15052 112.49124 92.23572
#
# Poissons Ratio (x) = 0.51954 0.23655
# Poissons Ratio (y) = 0.27780 0.27922
# Poissons Ratio (z) = 0.15426 0.34053
#
# Static dielectric constant tensor:
#      x y z
#    x 1.941370 0.000000 0.086140 
#    y 0.000000 1.991130 0.000000 
#    z 0.086140 0.000000 2.371500 
# 
# From -- ./inp_files/192430.got.cif
#   From: 2010.05.17/outbox.cif.g08.bks.cpg/sg15_97_cif.got.tgz:192430.got - 2010.06.03 18:47:42.
