data_PCOD9296464
_publ_section_title
;
Structure prediction by ZEFSAII (Michael W. Deem and Ramdas Pophale) SiO2 
 PCOD9296464
Probable space group: C 2/C
;
_chemical_formula_sum "Si O2"
_cell_formula_units_Z 40
_cell_length_a 15.665224
_cell_length_b 23.961421
_cell_length_c 9.348092
_cell_angle_alpha 90.000000
_cell_angle_beta 144.580697
_cell_angle_gamma 90.000000
_cell_volume 2033.608652
_symmetry_space_group_name_H-M "C 2/C"
_symmetry_group_IT_number 15
_symmetry_cell_setting 'monoclinic'
loop_
_space_group_symop_operation_xyz
x,y,z
-x,y,1/2-z
-x,-y,-z
x,-y,1/2+z
1/2+x,1/2+y,z
1/2-x,1/2+y,1/2-z
1/2-x,1/2-y,-z
1/2+x,1/2-y,1/2+z
loop_
_atom_site_type_symbol
_atom_site_label
_atom_site_fract_x
_atom_site_fract_y
_atom_site_fract_z
Si Si1 0.726451 0.308315 0.140806
Si Si2 0.107054 0.521258 0.018548
Si Si3 0.913844 0.202156 0.359275
Si Si4 0.651637 0.397974 0.513516
Si Si5 0.831193 0.600827 0.983201
O O1 0.848718 0.260530 0.325433
O O2 0.784150 0.366887 0.277699
O O3 0.679782 0.311961 0.911643
O O4 0.581104 0.292809 0.033333
O O5 0.232848 0.561968 0.248187
O O6 0.180748 0.465665 0.053109
O O7 0.000000 0.546197 0.750000
O O8 0.000000 0.500000 0.000000
O O9 0.892384 0.153379 0.445021
O O10 0.734780 0.378791 0.484045
O O11 0.500000 0.425744 0.250000
O O12 0.000000 0.612245 0.250000
#
# Coordination Sequence:
#
# PCOD9296464 Si02
#       5
#     8   8   8   8   8
#     4  10  23  45  63  99 127 173 216 266 330 387
#     4  11  24  46  67  97 132 177 222 264 325 400
#     4  10  24  42  68  93 133 169 218 267 325 396
#     4  12  25  44  66 103 134 170 220 275 329 383
#     4  11  24  43  66  95 132 171 219 267 326 395
#
# _framework density 19.669467000000001
#
# number of rings (size 3 to 8) (size 9 to 14) (size 15 to 20)
#    0.000    1.200    6.000    0.000    5.600    2.400 
#    7.200    0.000    0.000    0.000    0.000    0.000 
#    0.000    0.000    0.000    0.000    0.000    0.000 
#
# Total GULP energy -111723.474055 kJ/mol
# GULP energy per Si atom -5586.173703 kJ/mol
# Density = 1.962470 g / cm^3
# Si number density = 19.669467 Si / 1000 Ang^3
#
#
#
# Elastic Constant Matrix: (Units=GPa)
#
#
# Indices 1 2 3 4 5 6 
#
# 1 80.0388 4.8893 -0.5981 0.0000 -9.0062 0.0000
# 2 4.8893 51.2234 27.8956 0.0000 -4.8938 0.0000
# 3 -0.5981 27.8956 96.3325 0.0000 1.7110 0.0000
# 4 0.0000 0.0000 0.0000 21.5006 0.0000 -4.9930
# 5 -9.0062 -4.8938 1.7110 0.0000 25.6315 0.0000
# 6 0.0000 0.0000 0.0000 -4.9930 0.0000 23.8558
#
#
#
# Elastic Compliance Matrix: (Units=1/GPa)
#
#
# Indices 1 2 3 4 5 6 
#
# 1 0.013049 -0.000984 0.000288 0.000000 0.004378 0.000000
# 2 -0.000984 0.023878 -0.007004 0.000000 0.004681 0.000000
# 3 0.000288 -0.007004 0.012447 0.000000 -0.002067 0.000000
# 4 0.000000 0.000000 0.000000 0.048886 0.000000 0.010232
# 5 0.004378 0.004681 -0.002067 0.000000 0.041584 0.000000
# 6 0.000000 0.000000 0.000000 0.010232 0.000000 0.044060
#
#
# Mechanical properties :
#
#
# Convention : Reuss Voigt Hill
#
# Bulk Modulus (GPa) = 29.43385 32.44092 30.93739
# Shear Modulus (GPa) = 23.73848 27.22479 25.48164
#
# Velocity S-wave (km/s) = 3.47777 3.72440 3.60320
# Velocity P-wave (km/s) = 5.57882 5.91809 5.75096
#
# Compressibility (1/GPa) = 0.03397448
#
# Stress axis : x y z
#
# Youngs Moduli (GPa) = 76.63526 41.88035 80.33880
#
# Poissons Ratio (x) = 0.04122 -0.02316
# Poissons Ratio (y) = 0.07543 0.56266
# Poissons Ratio (z) = -0.02209 0.29331
#
# Static dielectric constant tensor:
#      x y z
#    x 1.696300 0.000000 -0.003840 
#    y 0.000000 1.665930 0.000000 
#    z -0.003840 0.000000 1.708370 
# 
# From -- ./inp_files/41927.got.cif
#   From: 2010.05.17/outbox.cif.g08.bks.cpg/sg15_21_cif.got.tgz:41927.got - 2010.06.03 18:47:42.
