data_PCOD9296847
_publ_section_title
;
Structure prediction by ZEFSAII (Michael W. Deem and Ramdas Pophale) SiO2 
 PCOD9296847
Probable space group: C 2/C
;
_chemical_formula_sum "Si O2"
_cell_formula_units_Z 60
_cell_length_a 26.107430
_cell_length_b 8.336107
_cell_length_c 18.955924
_cell_angle_alpha 90.000000
_cell_angle_beta 140.117678
_cell_angle_gamma 90.000000
_cell_volume 2645.298056
_symmetry_space_group_name_H-M "C 2/C"
_symmetry_group_IT_number 15
_symmetry_cell_setting 'monoclinic'
loop_
_space_group_symop_operation_xyz
x,y,z
-x,y,1/2-z
-x,-y,-z
x,-y,1/2+z
1/2+x,1/2+y,z
1/2-x,1/2+y,1/2-z
1/2-x,1/2-y,-z
1/2+x,1/2-y,1/2+z
loop_
_atom_site_type_symbol
_atom_site_label
_atom_site_fract_x
_atom_site_fract_y
_atom_site_fract_z
Si Si1 0.849108 0.615536 0.998291
Si Si2 0.082184 0.973492 0.182593
Si Si3 0.285507 0.604740 0.084700
Si Si4 0.000000 0.578418 0.250000
Si Si5 0.593453 0.595271 0.529749
Si Si6 0.087758 0.458261 0.568072
Si Si7 0.387820 0.097143 0.250157
Si Si8 0.213870 0.048123 0.049149
O O1 0.920636 0.649822 0.129168
O O2 0.791915 0.469834 0.959234
O O3 0.882659 0.586346 0.956262
O O4 0.794368 0.769083 0.938809
O O5 0.094168 0.790004 0.225286
O O6 0.142997 0.101712 0.282296
O O7 0.100021 0.967009 0.117313
O O8 0.988890 0.023774 0.089693
O O9 0.250000 0.750000 0.000000
O O10 0.324843 0.491189 0.066546
O O11 0.041786 0.513402 0.221454
O O12 0.587996 0.786211 0.531150
O O13 0.669336 0.551283 0.562142
O O14 0.130488 0.450252 0.688253
O O15 0.000000 0.500000 0.500000
O O16 0.306944 0.035838 0.129924
#
# Coordination Sequence:
#
# PCOD9296847 Si02
#       8
#     8   8   8   4   8   8   8   8
#     4  12  25  44  69 102 139 184 235 293 358 431
#     4  10  23  46  70 100 144 188 240 299 357 438
#     4  12  26  45  69 108 147 185 234 300 370 432
#     4  12  22  40  70  98 136 178 228 284 354 426
#     4  10  25  45  71 103 141 190 248 294 365 429
#     4  11  25  44  69 105 140 185 240 296 361 426
#     4  11  23  43  71 105 139 183 238 294 359 431
#     4  12  25  45  70 106 138 186 243 293 360 436
#
# _framework density 22.681754999999999
#
# number of rings (size 3 to 8) (size 9 to 14) (size 15 to 20)
#    0.000    0.800    4.000    2.800    5.600    2.667 
#    0.000    0.000    0.000    0.000    0.000    0.000 
#    0.000    0.000    0.000    0.000    0.000    0.000 
#
# Total GULP energy -167252.783846 kJ/mol
# GULP energy per Si atom -5575.092795 kJ/mol
# Density = 2.263013 g / cm^3
# Si number density = 22.681755 Si / 1000 Ang^3
#
#
#
# Elastic Constant Matrix: (Units=GPa)
#
#
# Indices 1 2 3 4 5 6 
#
# 1 140.8400 13.0773 23.2222 0.0000 10.8720 0.0000
# 2 13.0773 33.4553 26.8693 0.0000 -0.3043 0.0000
# 3 23.2222 26.8693 98.7992 0.0000 0.4931 0.0000
# 4 0.0000 0.0000 0.0000 22.8189 0.0000 -2.5024
# 5 10.8720 -0.3043 0.4931 0.0000 37.6820 0.0000
# 6 0.0000 0.0000 0.0000 -2.5024 0.0000 36.0013
#
#
#
# Elastic Compliance Matrix: (Units=1/GPa)
#
#
# Indices 1 2 3 4 5 6 
#
# 1 0.007663 -0.002019 -0.001241 0.000000 -0.002211 0.000000
# 2 -0.002019 0.038783 -0.010078 0.000000 0.001028 0.000000
# 3 -0.001241 -0.010078 0.013154 0.000000 0.000105 0.000000
# 4 0.000000 0.000000 0.000000 0.044160 0.000000 0.003070
# 5 -0.002211 0.001028 0.000105 0.000000 0.027183 0.000000
# 6 0.000000 0.000000 0.000000 0.003070 0.000000 0.027990
#
#
# Mechanical properties :
#
#
# Convention : Reuss Voigt Hill
#
# Bulk Modulus (GPa) = 30.37303 44.38135 37.37719
# Shear Modulus (GPa) = 25.43455 33.29547 29.36501
#
# Velocity S-wave (km/s) = 3.35231 3.83553 3.60203
# Velocity P-wave (km/s) = 5.32954 6.26295 5.81500
#
# Compressibility (1/GPa) = 0.03292395
#
# Stress axis : x y z
#
# Youngs Moduli (GPa) = 130.49696 25.78439 76.02516
#
# Poissons Ratio (x) = 0.05205 0.09435
# Poissons Ratio (y) = 0.26344 0.76619
# Poissons Ratio (z) = 0.16196 0.25986
#
# Static dielectric constant tensor:
#      x y z
#    x 0.896920 0.000000 0.347400 
#    y 0.000000 1.814460 0.000000 
#    z 0.347400 0.000000 1.842640 
# 
# From -- ./inp_files/257210.got.cif
#   From: 2010.05.17/outbox.cif.g08.bks.cpg/sg15_129_cif.got.tgz:257210.got - 2010.06.03 18:47:42.
