data_PCOD9296435
_publ_section_title
;
Structure prediction by ZEFSAII (Michael W. Deem and Ramdas Pophale) SiO2 
 PCOD9296435
Probable space group: C 2/C
;
_chemical_formula_sum "Si O2"
_cell_formula_units_Z 40
_cell_length_a 16.368551
_cell_length_b 9.315777
_cell_length_c 22.114399
_cell_angle_alpha 90.000000
_cell_angle_beta 29.290476
_cell_angle_gamma 90.000000
_cell_volume 1649.772978
_symmetry_space_group_name_H-M "C 2/C"
_symmetry_group_IT_number 15
_symmetry_cell_setting 'monoclinic'
loop_
_space_group_symop_operation_xyz
x,y,z
-x,y,1/2-z
-x,-y,-z
x,-y,1/2+z
1/2+x,1/2+y,z
1/2-x,1/2+y,1/2-z
1/2-x,1/2-y,-z
1/2+x,1/2-y,1/2+z
loop_
_atom_site_type_symbol
_atom_site_label
_atom_site_fract_x
_atom_site_fract_y
_atom_site_fract_z
Si Si1 0.713199 0.197636 0.422511
Si Si2 0.423358 0.515434 0.195379
Si Si3 0.589711 0.642595 0.422241
Si Si4 0.933976 0.719901 0.232543
Si Si5 0.679630 0.053305 0.567743
O O1 0.829870 0.084950 0.312924
O O2 0.551630 0.236377 0.486880
O O3 0.636511 0.140804 0.535029
O O4 0.816491 0.340734 0.376243
O O5 0.358080 0.605548 0.180220
O O6 0.401175 0.343809 0.204755
O O7 0.623373 0.525222 0.068265
O O8 0.500000 0.500000 0.500000
O O9 0.748273 0.662494 0.361986
O O10 0.000000 0.797639 0.250000
O O11 0.063487 0.588343 0.141437
#
# Coordination Sequence:
#
# PCOD9296435 Si02
#       5
#     8   8   8   8   8
#     4  10  23  44  75 106 145 193 250 298 369 449
#     4  11  25  46  73 109 143 191 251 305 371 436
#     4  11  28  45  69 103 147 194 243 307 366 439
#     4  12  26  45  73 107 149 195 242 309 367 437
#     4  10  23  44  76 108 142 193 243 308 365 441
#
# _framework density 24.245760000000001
#
# number of rings (size 3 to 8) (size 9 to 14) (size 15 to 20)
#    0.000    1.200    0.000    4.800    5.600   12.000 
#    0.000    0.000    0.000    0.000    0.000    0.000 
#    0.000    0.000    0.000    0.000    0.000    0.000 
#
# Total GULP energy -111782.151745 kJ/mol
# GULP energy per Si atom -5589.107587 kJ/mol
# Density = 2.419058 g / cm^3
# Si number density = 24.245760 Si / 1000 Ang^3
#
#
#
# Elastic Constant Matrix: (Units=GPa)
#
#
# Indices 1 2 3 4 5 6 
#
# 1 95.4784 23.9532 47.0787 0.0001 -27.4600 0.0000
# 2 23.9532 131.8064 52.1596 0.0004 -13.2177 0.0002
# 3 47.0787 52.1596 89.1617 0.0006 -23.2633 0.0003
# 4 0.0001 0.0004 0.0006 42.6762 0.0000 -12.2840
# 5 -27.4600 -13.2177 -23.2633 0.0000 41.6032 -0.0001
# 6 0.0000 0.0002 0.0003 -12.2840 -0.0001 32.5430
#
#
#
# Elastic Compliance Matrix: (Units=1/GPa)
#
#
# Indices 1 2 3 4 5 6 
#
# 1 0.015619 0.000527 -0.006817 0.000000 0.006665 0.000000
# 2 0.000527 0.009891 -0.006034 0.000000 0.000116 0.000000
# 3 -0.006817 -0.006034 0.019518 0.000000 0.004498 0.000000
# 4 0.000000 0.000000 0.000000 0.026289 0.000000 0.009923
# 5 0.006665 0.000116 0.004498 0.000000 0.030988 0.000000
# 6 0.000000 0.000000 0.000000 0.009923 0.000000 0.034474
#
#
# Mechanical properties :
#
#
# Convention : Reuss Voigt Hill
#
# Bulk Modulus (GPa) = 49.06408 62.53661 55.80034
# Shear Modulus (GPa) = 29.72299 36.24816 32.98558
#
# Velocity S-wave (km/s) = 3.50509 3.87076 3.69245
# Velocity P-wave (km/s) = 6.05483 6.76948 6.42210
#
# Compressibility (1/GPa) = 0.02038151
#
# Stress axis : x y z
#
# Youngs Moduli (GPa) = 64.02263 101.10624 51.23363
#
# Poissons Ratio (x) = -0.05333 0.34925
# Poissons Ratio (y) = -0.03377 0.30915
# Poissons Ratio (z) = 0.43643 0.61009
#
# Static dielectric constant tensor:
#      x y z
#    x 2.068710 0.000000 0.063680 
#    y 0.000000 2.074760 0.000000 
#    z 0.063680 0.000000 1.950740 
# 
# From -- ./inp_files/276718.got.cif
#   From: 2010.05.17/outbox.cif.g08.bks.cpg/sg15_139_cif.got.tgz:276718.got - 2010.06.03 18:47:42.
