data_PCOD9296984
_publ_section_title
;
Structure prediction by ZEFSAII (Michael W. Deem and Ramdas Pophale) SiO2 
 PCOD9296984
Probable space group: C 2/C
;
_chemical_formula_sum "Si O2"
_cell_formula_units_Z 44
_cell_length_a 12.930377
_cell_length_b 18.343108
_cell_length_c 8.363037
_cell_angle_alpha 90.000000
_cell_angle_beta 127.190306
_cell_angle_gamma 90.000000
_cell_volume 1580.177907
_symmetry_space_group_name_H-M "C 2/C"
_symmetry_group_IT_number 15
_symmetry_cell_setting 'monoclinic'
loop_
_space_group_symop_operation_xyz
x,y,z
-x,y,1/2-z
-x,-y,-z
x,-y,1/2+z
1/2+x,1/2+y,z
1/2-x,1/2+y,1/2-z
1/2-x,1/2-y,-z
1/2+x,1/2-y,1/2+z
loop_
_atom_site_type_symbol
_atom_site_label
_atom_site_fract_x
_atom_site_fract_y
_atom_site_fract_z
Si Si1 0.590966 0.944249 0.679262
Si Si2 0.778755 0.786706 0.265316
Si Si3 0.500000 0.329501 0.250000
Si Si4 0.504458 0.188422 0.573466
Si Si5 0.373652 0.577422 0.358871
Si Si6 0.213811 0.059437 0.561881
O O1 0.501243 0.871665 0.575816
O O2 0.721729 0.903898 0.748827
O O3 0.500000 0.000000 0.500000
O O4 0.664268 0.004234 0.866843
O O5 0.629635 0.761931 0.146907
O O6 0.877806 0.739711 0.462338
O O7 0.756092 0.868634 0.311617
O O8 0.866154 0.791008 0.185205
O O9 0.539322 0.378592 0.438383
O O10 0.500000 0.154925 0.750000
O O11 0.370206 0.582424 0.166955
O O12 0.370186 0.492746 0.405201
#
# Coordination Sequence:
#
# PCOD9296984 Si02
#       6
#     8   8   4   8   8   8
#     4  10  23  46  80 119 161 203 287 338 417 495
#     4  12  29  51  80 122 169 226 279 344 434 494
#     4  12  30  52  74 114 180 224 280 350 418 514
#     4  12  27  52  87 125 168 221 283 352 422 513
#     4  10  24  45  77 120 158 216 284 345 418 488
#     4  10  23  46  79 120 157 216 280 355 409 501
#
# _framework density 27.844968999999999
#
# number of rings (size 3 to 8) (size 9 to 14) (size 15 to 20)
#    1.091    0.000    1.818    2.727    5.091    3.636 
#    3.273    0.000    0.000    0.000    0.000    0.000 
#    0.000    0.000    0.000    0.000    0.000    0.000 
#
# Total GULP energy -122483.122021 kJ/mol
# GULP energy per Si atom -5567.414637 kJ/mol
# Density = 2.778159 g / cm^3
# Si number density = 27.844969 Si / 1000 Ang^3
#
#
#
# Elastic Constant Matrix: (Units=GPa)
#
#
# Indices 1 2 3 4 5 6 
#
# 1 130.3957 16.8426 64.1739 0.0000 24.3181 0.0000
# 2 16.8426 97.9710 45.4563 0.0000 6.8054 0.0000
# 3 64.1739 45.4563 166.9827 0.0000 25.5263 0.0000
# 4 0.0000 0.0000 0.0000 23.8523 0.0000 37.2113
# 5 24.3181 6.8054 25.5263 0.0000 53.7675 0.0000
# 6 0.0000 0.0000 0.0000 37.2113 0.0000 26.9553
#
#
#
# Elastic Compliance Matrix: (Units=1/GPa)
#
#
# Indices 1 2 3 4 5 6 
#
# 1 0.009851 0.000067 -0.003366 0.000000 -0.002866 0.000000
# 2 0.000067 0.011683 -0.003208 0.000000 0.000014 0.000000
# 3 -0.003366 -0.003208 0.008476 0.000000 -0.002095 0.000000
# 4 0.000000 0.000000 0.000000 -0.036341 0.000000 0.050168
# 5 -0.002866 0.000014 -0.002095 0.000000 0.020888 0.000000
# 6 0.000000 0.000000 0.000000 0.050168 0.000000 -0.032158
#
#
# Mechanical properties :
#
#
# Convention : Reuss Voigt Hill
#
# Bulk Modulus (GPa) = 58.83732 72.03276 65.43504
# Shear Modulus (GPa) = 4628.20354 38.84013 2333.52184
#
# Velocity S-wave (km/s) = 40.81349 3.73885 28.98034
# Velocity P-wave (km/s) = 47.35150 6.67563 33.81367
#
# Compressibility (1/GPa) = 0.01699602
#
# Stress axis : x y z
#
# Youngs Moduli (GPa) = 101.50771 85.59302 117.97891
#
# Poissons Ratio (x) = -0.00576 0.39715
# Poissons Ratio (y) = -0.00684 0.37853
# Poissons Ratio (z) = 0.34170 0.27462
#
# Static dielectric constant tensor:
#      x y z
#    x 2.109280 0.000000 -0.528990 
#    y 0.000000 2.168710 0.000000 
#    z -0.528990 0.000000 1.478670 
# 
# From -- ./inp_files/89201.got.cif
#   From: 2010.05.17/outbox.cif.g08.bks.cpg/sg15_45_cif.got.tgz:89201.got - 2010.06.03 18:47:42.
