data_PCOD9296141
_publ_section_title
;
Structure prediction by ZEFSAII (Michael W. Deem and Ramdas Pophale) SiO2 
 PCOD9296141
Probable space group: C 2/C
;
_chemical_formula_sum "Si O2"
_cell_formula_units_Z 48
_cell_length_a 17.831630
_cell_length_b 21.439922
_cell_length_c 11.226924
_cell_angle_alpha 90.000000
_cell_angle_beta 27.351085
_cell_angle_gamma 90.000000
_cell_volume 1971.993161
_symmetry_space_group_name_H-M "C 2/C"
_symmetry_group_IT_number 15
_symmetry_cell_setting 'monoclinic'
loop_
_space_group_symop_operation_xyz
x,y,z
-x,y,1/2-z
-x,-y,-z
x,-y,1/2+z
1/2+x,1/2+y,z
1/2-x,1/2+y,1/2-z
1/2-x,1/2-y,-z
1/2+x,1/2-y,1/2+z
loop_
_atom_site_type_symbol
_atom_site_label
_atom_site_fract_x
_atom_site_fract_y
_atom_site_fract_z
Si Si1 0.770223 0.000330 0.202275
Si Si2 0.071306 0.673148 0.018949
Si Si3 0.000000 0.327558 0.250000
Si Si4 0.000000 0.902739 0.250000
Si Si5 0.548718 0.074891 0.860870
Si Si6 0.319836 0.715674 0.283350
Si Si7 0.096292 0.121320 0.862013
O O1 0.599156 0.033159 0.481850
O O2 0.705381 0.964322 0.176621
O O3 0.858015 0.950528 0.165058
O O4 0.887316 0.054305 0.992160
O O5 0.000000 0.679745 0.250000
O O6 0.997695 0.613568 0.051722
O O7 0.070961 0.736260 0.944549
O O8 0.261091 0.657257 0.770986
O O9 0.096044 0.372068 0.203150
O O10 0.857059 0.296057 0.527126
O O11 0.899438 0.868434 0.287738
O O12 0.250000 0.750000 0.500000
O O13 0.427241 0.653054 0.143385
#
# Coordination Sequence:
#
# PCOD9296141 Si02
#       7
#     8   8   4   4   8   8   8
#     4  10  24  43  69 102 145 187 240 303 372 436
#     4  11  25  47  74 105 148 196 244 311 375 447
#     4  12  24  42  71  98 147 186 252 296 362 440
#     4  12  24  42  69 106 143 188 242 310 372 444
#     4  10  23  44  68 106 137 197 238 297 367 449
#     4  12  26  47  71 108 146 199 251 305 366 443
#     4  11  27  45  72 109 148 191 252 311 370 449
#
# _framework density 24.340855000000001
#
# number of rings (size 3 to 8) (size 9 to 14) (size 15 to 20)
#    0.000    1.000    1.667    3.500    5.833    0.667 
#    3.000    0.000    0.000    0.000    0.000    0.000 
#    0.000    0.000    0.000    0.000    0.000    0.000 
#
# Total GULP energy -133943.133344 kJ/mol
# GULP energy per Si atom -5580.963889 kJ/mol
# Density = 2.428545 g / cm^3
# Si number density = 24.340855 Si / 1000 Ang^3
#
#
#
# Elastic Constant Matrix: (Units=GPa)
#
#
# Indices 1 2 3 4 5 6 
#
# 1 97.5328 40.4264 28.6886 -0.0013 -3.2851 0.0026
# 2 40.4264 96.9798 28.3664 0.0003 -6.8509 -0.0009
# 3 28.6886 28.3664 82.1176 0.0024 -10.7813 -0.0049
# 4 -0.0013 0.0003 0.0024 33.4826 -0.0023 -1.7666
# 5 -3.2851 -6.8509 -10.7813 -0.0023 40.1906 -0.0001
# 6 0.0026 -0.0009 -0.0049 -1.7666 -0.0001 33.4999
#
#
#
# Elastic Compliance Matrix: (Units=1/GPa)
#
#
# Indices 1 2 3 4 5 6 
#
# 1 0.013027 -0.004579 -0.003039 0.000001 -0.000531 -0.000002
# 2 -0.004579 0.013113 -0.002784 0.000000 0.001114 0.000000
# 3 -0.003039 -0.002784 0.014621 -0.000001 0.003199 0.000002
# 4 0.000001 0.000000 -0.000001 0.029950 0.000002 0.001579
# 5 -0.000531 0.001114 0.003199 0.000002 0.025886 0.000001
# 6 -0.000002 0.000000 0.000002 0.001579 0.000001 0.029934
#
#
# Mechanical properties :
#
#
# Convention : Reuss Voigt Hill
#
# Bulk Modulus (GPa) = 50.10633 52.39922 51.25277
# Shear Modulus (GPa) = 32.47029 33.37789 32.92409
#
# Velocity S-wave (km/s) = 3.65634 3.70708 3.68180
# Velocity P-wave (km/s) = 6.20121 6.31643 6.25909
#
# Compressibility (1/GPa) = 0.01995756
#
# Stress axis : x y z
#
# Youngs Moduli (GPa) = 76.76423 76.25951 68.39466
#
# Poissons Ratio (x) = 0.34918 0.20786
# Poissons Ratio (y) = 0.35150 0.19040
# Poissons Ratio (z) = 0.23329 0.21229
#
# Static dielectric constant tensor:
#      x y z
#    x 2.108450 0.000020 -0.119960 
#    y 0.000020 2.071990 0.000000 
#    z -0.119960 0.000000 2.026900 
# 
# From -- ./inp_files/108072.got.cif
#   From: 2010.05.17/outbox.cif.g08.bks.cpg/sg15_55_cif.got.tgz:108072.got - 2010.06.03 18:47:42.
