data_PCOD9296060
_publ_section_title
;
Structure prediction by ZEFSAII (Michael W. Deem and Ramdas Pophale) SiO2 
 PCOD9296060
Probable space group: C 2/C
;
_chemical_formula_sum "Si O2"
_cell_formula_units_Z 48
_cell_length_a 16.154434
_cell_length_b 28.375516
_cell_length_c 11.831530
_cell_angle_alpha 90.000000
_cell_angle_beta 155.219131
_cell_angle_gamma 90.000000
_cell_volume 2273.237487
_symmetry_space_group_name_H-M "C 2/C"
_symmetry_group_IT_number 15
_symmetry_cell_setting 'monoclinic'
loop_
_space_group_symop_operation_xyz
x,y,z
-x,y,1/2-z
-x,-y,-z
x,-y,1/2+z
1/2+x,1/2+y,z
1/2-x,1/2+y,1/2-z
1/2-x,1/2-y,-z
1/2+x,1/2-y,1/2+z
loop_
_atom_site_type_symbol
_atom_site_label
_atom_site_fract_x
_atom_site_fract_y
_atom_site_fract_z
Si Si1 0.315017 0.195516 0.102722
Si Si2 0.712508 0.524934 0.743769
Si Si3 0.795497 0.805013 0.558718
Si Si4 0.385449 0.836123 0.945504
Si Si5 0.468073 0.061240 0.488052
Si Si6 0.206639 0.089431 0.952447
O O1 0.500000 0.190142 0.250000
O O2 0.354641 0.187875 0.285400
O O3 0.250000 0.250000 0.000000
O O4 0.198590 0.146576 0.929739
O O5 0.500000 0.500000 0.500000
O O6 0.870758 0.482416 0.932574
O O7 0.730249 0.562572 0.865114
O O8 0.796257 0.553363 0.736624
O O9 0.750000 0.750000 0.500000
O O10 0.778502 0.819889 0.668270
O O11 0.605528 0.825167 0.260008
O O12 0.000000 0.815642 0.750000
O O13 0.389677 0.892137 0.949669
O O14 0.373595 0.070977 0.246102
O O15 0.000000 0.074442 0.750000
#
# Coordination Sequence:
#
# PCOD9296060 Si02
#       6
#     8   8   8   8   8   8
#     4  11  25  42  68 105 139 184 228 288 354 425
#     4  11  22  41  69  97 131 179 223 270 346 409
#     4  11  23  44  71  96 132 187 230 292 348 409
#     4  10  24  46  68 101 140 179 237 286 351 418
#     4  10  23  44  66  96 135 175 222 288 338 408
#     4  11  21  43  65  95 136 177 223 280 341 408
#
# _framework density 21.115258999999998
#
# number of rings (size 3 to 8) (size 9 to 14) (size 15 to 20)
#    0.000    1.333    3.333    3.000    2.333    1.333 
#   18.000    0.833    0.000    0.000    0.000    0.000 
#    0.000    0.000    0.000    0.000    0.000    0.000 
#
# Total GULP energy -133678.134355 kJ/mol
# GULP energy per Si atom -5569.922265 kJ/mol
# Density = 2.106720 g / cm^3
# Si number density = 21.115259 Si / 1000 Ang^3
#
#
#
# Elastic Constant Matrix: (Units=GPa)
#
#
# Indices 1 2 3 4 5 6 
#
# 1 181.7296 60.3626 45.0816 0.0000 40.7871 0.0000
# 2 60.3626 144.3471 10.8439 0.0000 -7.5186 0.0000
# 3 45.0816 10.8439 49.1429 0.0001 26.1088 -0.0001
# 4 0.0000 0.0000 0.0001 -11.7831 0.0000 11.4109
# 5 40.7871 -7.5186 26.1088 0.0000 47.7433 0.0000
# 6 0.0000 0.0000 -0.0001 11.4109 0.0000 41.4364
#
#
#
# Elastic Compliance Matrix: (Units=1/GPa)
#
#
# Indices 1 2 3 4 5 6 
#
# 1 0.009239 -0.003852 -0.004383 0.000000 -0.006103 0.000000
# 2 -0.003852 0.008919 -0.001309 0.000000 0.005411 0.000000
# 3 -0.004383 -0.001309 0.032107 0.000000 -0.014020 0.000000
# 4 0.000000 0.000000 0.000000 -0.067000 0.000000 0.018451
# 5 -0.006103 0.005411 -0.014020 0.000000 0.034678 0.000000
# 6 0.000000 0.000000 0.000000 0.018451 0.000000 0.019052
#
#
# Mechanical properties :
#
#
# Convention : Reuss Voigt Hill
#
# Bulk Modulus (GPa) = 32.07628 67.53287 49.80458
# Shear Modulus (GPa) = 75.21351 32.74144 53.97747
#
# Velocity S-wave (km/s) = 5.97476 3.94204 5.06150
# Velocity P-wave (km/s) = 7.92597 7.26444 7.60240
#
# Compressibility (1/GPa) = 0.03117568
#
# Stress axis : x y z
#
# Youngs Moduli (GPa) = 108.23348 112.12188 31.14559
#
# Poissons Ratio (x) = 0.43192 0.13653
# Poissons Ratio (y) = 0.41694 0.04078
# Poissons Ratio (z) = 0.47444 0.14679
#
# Static dielectric constant tensor:
#      x y z
#    x 2.143620 0.000000 -0.063680 
#    y 0.000000 1.717860 0.000000 
#    z -0.063680 0.000000 1.789530 
# 
# From -- ./inp_files/101393.got.cif
#   From: 2010.05.17/outbox.cif.g08.bks.cpg/sg15_51_cif.got.tgz:101393.got - 2010.06.03 18:47:42.
