data_PCOD9296555
_publ_section_title
;
Structure prediction by ZEFSAII (Michael W. Deem and Ramdas Pophale) SiO2 
 PCOD9296555
Probable space group: C 2/C
;
_chemical_formula_sum "Si O2"
_cell_formula_units_Z 48
_cell_length_a 5.142657
_cell_length_b 25.398659
_cell_length_c 15.816148
_cell_angle_alpha 90.000000
_cell_angle_beta 75.859326
_cell_angle_gamma 90.000000
_cell_volume 2003.253629
_symmetry_space_group_name_H-M "C 2/C"
_symmetry_group_IT_number 15
_symmetry_cell_setting 'monoclinic'
loop_
_space_group_symop_operation_xyz
x,y,z
-x,y,1/2-z
-x,-y,-z
x,-y,1/2+z
1/2+x,1/2+y,z
1/2-x,1/2+y,1/2-z
1/2-x,1/2-y,-z
1/2+x,1/2-y,1/2+z
loop_
_atom_site_type_symbol
_atom_site_label
_atom_site_fract_x
_atom_site_fract_y
_atom_site_fract_z
Si Si1 0.500000 0.815037 0.250000
Si Si2 0.000000 0.057182 0.250000
Si Si3 0.000000 0.487876 0.250000
Si Si4 0.891577 0.753386 0.600098
Si Si5 0.206583 0.105858 0.864165
Si Si6 0.307751 0.645382 0.366688
Si Si7 0.000000 0.301143 0.750000
Si Si8 0.368824 0.142599 0.529269
O O1 0.476431 0.777740 0.331961
O O2 0.748056 0.854866 0.219192
O O3 0.983200 0.093775 0.335510
O O4 0.727397 0.023708 0.274496
O O5 0.814933 0.450344 0.324102
O O6 0.610053 0.767241 0.664378
O O7 0.853952 0.706937 0.534844
O O8 0.054897 0.808859 0.585392
O O9 0.423281 0.124120 0.915907
O O10 0.913771 0.115424 0.926764
O O11 0.226234 0.666100 0.279596
O O12 0.023081 0.630233 0.430978
#
# Coordination Sequence:
#
# PCOD9296555 Si02
#       8
#     4   4   4   8   8   8   4   8
#     4   9  17  38  63  94 128 177 223 279 326 398
#     4  12  25  46  72 100 129 187 233 286 342 416
#     4  11  25  48  81  98 127 174 240 298 356 406
#     4  11  21  39  62  98 138 188 228 268 327 401
#     4  10  23  45  68 101 131 168 233 296 350 407
#     4  12  26  42  62 103 143 187 232 275 330 423
#     4  12  21  38  68  84 146 184 244 267 308 392
#     4  11  26  41  69 102 145 179 217 287 352 398
#
# _framework density 23.961020999999999
#
# number of rings (size 3 to 8) (size 9 to 14) (size 15 to 20)
#    0.000    1.000    3.333    3.000    4.667    5.333 
#    0.000    5.000    0.000    0.000    0.000    0.000 
#    0.000    0.000    0.000    0.000    0.000    0.000 
#
# Total GULP energy -133959.858600 kJ/mol
# GULP energy per Si atom -5581.660775 kJ/mol
# Density = 2.390649 g / cm^3
# Si number density = 23.961021 Si / 1000 Ang^3
#
#
#
# Elastic Constant Matrix: (Units=GPa)
#
#
# Indices 1 2 3 4 5 6 
#
# 1 160.6200 56.8851 29.6662 0.0000 -34.3231 0.0000
# 2 56.8851 123.1006 45.6393 0.0000 -23.9580 0.0000
# 3 29.6662 45.6393 79.5809 0.0000 -36.9016 0.0000
# 4 0.0000 0.0000 0.0000 21.2208 0.0000 -12.5771
# 5 -34.3231 -23.9580 -36.9016 0.0000 48.2415 0.0000
# 6 0.0000 0.0000 0.0000 -12.5771 0.0000 63.5247
#
#
#
# Elastic Compliance Matrix: (Units=1/GPa)
#
#
# Indices 1 2 3 4 5 6 
#
# 1 0.008263 -0.003250 0.001180 0.000000 0.005168 0.000000
# 2 -0.003250 0.011622 -0.005966 0.000000 -0.001104 0.000000
# 3 0.001180 -0.005966 0.022567 0.000000 0.015139 0.000000
# 4 0.000000 0.000000 0.000000 0.053388 0.000000 0.010570
# 5 0.005168 -0.001104 0.015139 0.000000 0.035438 0.000000
# 6 0.000000 0.000000 0.000000 0.010570 0.000000 0.017835
#
#
# Mechanical properties :
#
#
# Convention : Reuss Voigt Hill
#
# Bulk Modulus (GPa) = 37.90612 69.74251 53.82431
# Shear Modulus (GPa) = 28.73903 42.00479 35.37191
#
# Velocity S-wave (km/s) = 3.46700 4.19148 3.84634
# Velocity P-wave (km/s) = 5.64633 7.25221 6.49906
#
# Compressibility (1/GPa) = 0.02638097
#
# Stress axis : x y z
#
# Youngs Moduli (GPa) = 121.01675 86.04189 44.31183
#
# Poissons Ratio (x) = 0.27965 -0.05228
# Poissons Ratio (y) = 0.39333 0.26434
# Poissons Ratio (z) = -0.14277 0.51329
#
# Static dielectric constant tensor:
#      x y z
#    x 2.702430 0.000000 0.119230 
#    y 0.000000 2.000670 0.000000 
#    z 0.119230 0.000000 2.027310 
# 
# From -- ./inp_files/185367.got.cif
#   From: 2010.05.17/outbox.cif.g08.bks.cpg/sg15_93_cif.got.tgz:185367.got - 2010.06.03 18:47:42.
