data_PCOD9296705
_publ_section_title
;
Structure prediction by ZEFSAII (Michael W. Deem and Ramdas Pophale) SiO2 
 PCOD9296705
Probable space group: C 2/C
;
_chemical_formula_sum "Si O2"
_cell_formula_units_Z 64
_cell_length_a 16.859108
_cell_length_b 9.427634
_cell_length_c 29.408380
_cell_angle_alpha 90.000000
_cell_angle_beta 39.510990
_cell_angle_gamma 90.000000
_cell_volume 2973.856225
_symmetry_space_group_name_H-M "C 2/C"
_symmetry_group_IT_number 15
_symmetry_cell_setting 'monoclinic'
loop_
_space_group_symop_operation_xyz
x,y,z
-x,y,1/2-z
-x,-y,-z
x,-y,1/2+z
1/2+x,1/2+y,z
1/2-x,1/2+y,1/2-z
1/2-x,1/2-y,-z
1/2+x,1/2-y,1/2+z
loop_
_atom_site_type_symbol
_atom_site_label
_atom_site_fract_x
_atom_site_fract_y
_atom_site_fract_z
Si Si1 0.155636 0.677323 0.259483
Si Si2 0.303838 0.495005 0.766263
Si Si3 0.721579 0.953690 0.906560
Si Si4 0.153100 0.652401 0.016079
Si Si5 0.691978 0.557655 0.393045
Si Si6 0.088511 0.485120 0.631949
Si Si7 0.037040 0.782305 0.459501
Si Si8 0.969000 0.201202 0.317071
O O1 0.200231 0.584218 0.282480
O O2 0.239443 0.627485 0.179819
O O3 0.013050 0.635746 0.312549
O O4 0.174391 0.843978 0.258373
O O5 0.265395 0.494440 0.836438
O O6 0.429279 0.401538 0.705665
O O7 0.600691 0.854078 0.954349
O O8 0.831213 0.862963 0.881476
O O9 0.699829 0.088886 0.947886
O O10 0.123273 0.526738 0.063856
O O11 0.029737 0.738692 0.057633
O O12 0.250000 0.750000 0.000000
O O13 0.790772 0.540725 0.390281
O O14 0.642382 0.399842 0.404292
O O15 0.571232 0.647361 0.461891
O O16 0.029434 0.638082 0.667026
O O17 0.000000 0.205343 0.250000
#
# Coordination Sequence:
#
# PCOD9296705 Si02
#       8
#     8   8   8   8   8   8   8   8
#     4  12  27  44  75 104 148 185 247 303 371 435
#     4  11  27  45  72 111 144 196 243 303 372 440
#     4  11  25  47  75  99 151 198 243 300 369 433
#     4  12  27  44  73 106 150 190 252 303 364 438
#     4  11  25  45  74 103 145 188 248 297 369 435
#     4  12  25  45  73 111 142 193 241 308 364 435
#     4  11  24  46  72 104 146 198 239 300 366 439
#     4  10  23  45  73 105 149 189 245 302 369 431
#
# _framework density 21.520879999999998
#
# number of rings (size 3 to 8) (size 9 to 14) (size 15 to 20)
#    0.000    0.750    2.500    3.750    7.000    4.500 
#    0.000    0.000    0.000    0.000    0.000    0.000 
#    0.000    0.000    0.000    0.000    0.000    0.000 
#
# Total GULP energy -179179.711956 kJ/mol
# GULP energy per Si atom -5599.365999 kJ/mol
# Density = 2.147190 g / cm^3
# Si number density = 21.520880 Si / 1000 Ang^3
#
#
#
# Elastic Constant Matrix: (Units=GPa)
#
#
# Indices 1 2 3 4 5 6 
#
# 1 126.3351 43.1181 26.0190 0.0000 -22.6439 0.0001
# 2 43.1181 125.7945 18.8586 0.0000 -11.4729 0.0003
# 3 26.0190 18.8586 58.9835 0.0000 -8.9145 0.0000
# 4 0.0000 0.0000 0.0000 33.5729 0.0000 -6.5951
# 5 -22.6439 -11.4729 -8.9145 0.0000 31.3203 0.0000
# 6 0.0001 0.0003 0.0000 -6.5951 0.0000 40.6548
#
#
#
# Elastic Compliance Matrix: (Units=1/GPa)
#
#
# Indices 1 2 3 4 5 6 
#
# 1 0.010439 -0.002618 -0.002897 0.000000 0.005763 0.000000
# 2 -0.002618 0.009183 -0.001629 0.000000 0.001007 0.000000
# 3 -0.002897 -0.001629 0.019170 0.000000 0.002766 0.000000
# 4 0.000000 0.000000 0.000000 0.030766 0.000000 0.004991
# 5 0.005763 0.001007 0.002766 0.000000 0.037251 0.000000
# 6 0.000000 0.000000 0.000000 0.004991 0.000000 0.025407
#
#
# Mechanical properties :
#
#
# Convention : Reuss Voigt Hill
#
# Bulk Modulus (GPa) = 40.80831 54.12271 47.46551
# Shear Modulus (GPa) = 32.32653 35.98410 34.15531
#
# Velocity S-wave (km/s) = 3.87990 4.09351 3.98814
# Velocity P-wave (km/s) = 6.25099 6.89536 6.58107
#
# Compressibility (1/GPa) = 0.02450481
#
# Stress axis : x y z
#
# Youngs Moduli (GPa) = 95.79847 108.89761 52.16377
#
# Poissons Ratio (x) = 0.28511 0.15110
# Poissons Ratio (y) = 0.25081 0.08497
# Poissons Ratio (z) = 0.27749 0.17738
#
# Static dielectric constant tensor:
#      x y z
#    x 1.760440 0.000000 -0.018200 
#    y 0.000000 1.776460 0.000000 
#    z -0.018200 0.000000 1.798360 
# 
# From -- ./inp_files/315659.got.cif
#   From: 2010.05.17/outbox.cif.g08.bks.cpg/sg15_158_cif.got.tgz:315659.got - 2010.06.03 18:47:42.
