data_PCOD9296701
_publ_section_title
;
Structure prediction by ZEFSAII (Michael W. Deem and Ramdas Pophale) SiO2 
 PCOD9296701
Probable space group: C 2/C
;
_chemical_formula_sum "Si O2"
_cell_formula_units_Z 36
_cell_length_a 13.748303
_cell_length_b 9.198306
_cell_length_c 10.691023
_cell_angle_alpha 90.000000
_cell_angle_beta 77.185831
_cell_angle_gamma 90.000000
_cell_volume 1318.326358
_symmetry_space_group_name_H-M "C 2/C"
_symmetry_group_IT_number 15
_symmetry_cell_setting 'monoclinic'
loop_
_space_group_symop_operation_xyz
x,y,z
-x,y,1/2-z
-x,-y,-z
x,-y,1/2+z
1/2+x,1/2+y,z
1/2-x,1/2+y,1/2-z
1/2-x,1/2-y,-z
1/2+x,1/2-y,1/2+z
loop_
_atom_site_type_symbol
_atom_site_label
_atom_site_fract_x
_atom_site_fract_y
_atom_site_fract_z
Si Si1 0.685953 0.259604 0.815104
Si Si2 0.293371 0.029941 0.884117
Si Si3 0.982331 0.229325 0.954065
Si Si4 0.500000 0.954372 0.750000
Si Si5 0.120220 0.940673 0.608311
O O1 0.739879 0.138449 0.717461
O O2 0.762889 0.366047 0.860130
O O3 0.622233 0.366466 0.742101
O O4 0.606217 0.199918 0.937231
O O5 0.411453 0.044599 0.836768
O O6 0.234552 0.063272 0.026630
O O7 0.033152 0.346888 0.851320
O O8 0.926991 0.100805 0.891245
O O9 0.059722 0.153144 0.024224
#
# Coordination Sequence:
#
# PCOD9296701 Si02
#       5
#     8   8   8   4   8
#     4  11  25  46  73 102 142 183 241 285 354 416
#     4  11  27  44  72 105 143 189 226 298 348 417
#     4  10  25  42  75 103 141 187 231 292 350 417
#     4  12  28  44  66 108 150 178 240 286 358 408
#     4  10  23  45  73 104 134 192 236 286 347 423
#
# _framework density 27.30735
#
# number of rings (size 3 to 8) (size 9 to 14) (size 15 to 20)
#    0.000    1.333    0.000    2.667   18.667    2.667 
#    0.000    0.000    0.000    0.000    0.000    0.000 
#    0.000    0.000    0.000    0.000    0.000    0.000 
#
# Total GULP energy -101048.383065 kJ/mol
# GULP energy per Si atom -5613.799059 kJ/mol
# Density = 2.724520 g / cm^3
# Si number density = 27.307350 Si / 1000 Ang^3
#
#
#
# Elastic Constant Matrix: (Units=GPa)
#
#
# Indices 1 2 3 4 5 6 
#
# 1 102.2918 11.9365 30.3961 0.0000 -14.7610 0.0000
# 2 11.9365 80.5252 12.6123 0.0000 -0.7156 0.0000
# 3 30.3961 12.6123 125.0363 0.0000 -24.8991 0.0000
# 4 0.0000 0.0000 0.0000 32.9713 0.0000 5.5766
# 5 -14.7610 -0.7156 -24.8991 0.0000 52.6420 0.0000
# 6 0.0000 0.0000 0.0000 5.5766 0.0000 35.2412
#
#
#
# Elastic Compliance Matrix: (Units=1/GPa)
#
#
# Indices 1 2 3 4 5 6 
#
# 1 0.010841 -0.001259 -0.002105 0.000000 0.002027 0.000000
# 2 -0.001259 0.012775 -0.001124 0.000000 -0.000711 0.000000
# 3 -0.002105 -0.001124 0.009386 0.000000 0.003834 0.000000
# 4 0.000000 0.000000 0.000000 0.031163 0.000000 -0.004931
# 5 0.002027 -0.000711 0.003834 0.000000 0.021369 0.000000
# 6 0.000000 0.000000 0.000000 -0.004931 0.000000 0.029156
#
#
# Mechanical properties :
#
#
# Convention : Reuss Voigt Hill
#
# Bulk Modulus (GPa) = 41.62188 46.41591 44.01890
# Shear Modulus (GPa) = 37.97233 41.03147 39.50190
#
# Velocity S-wave (km/s) = 3.73306 3.88052 3.80750
# Velocity P-wave (km/s) = 5.81860 6.09199 5.95686
#
# Compressibility (1/GPa) = 0.02402582
#
# Stress axis : x y z
#
# Youngs Moduli (GPa) = 92.24370 78.27860 106.53922
#
# Poissons Ratio (x) = 0.09858 0.22423
# Poissons Ratio (y) = 0.11616 0.11976
# Poissons Ratio (z) = 0.19414 0.08799
#
# Static dielectric constant tensor:
#      x y z
#    x 2.180130 0.000000 0.025270 
#    y 0.000000 2.090810 0.000000 
#    z 0.025270 0.000000 2.025810 
# 
# From -- ./inp_files/94443.got.cif
#   From: 2010.05.17/outbox.cif.g08.bks.cpg/sg15_48_cif.got.tgz:94443.got - 2010.06.03 18:47:42.
