data_PCOD9296388
_publ_section_title
;
Structure prediction by ZEFSAII (Michael W. Deem and Ramdas Pophale) SiO2 
 PCOD9296388
Probable space group: C 2/C
;
_chemical_formula_sum "Si O2"
_cell_formula_units_Z 52
_cell_length_a 11.158510
_cell_length_b 28.110805
_cell_length_c 8.765634
_cell_angle_alpha 90.000000
_cell_angle_beta 59.822235
_cell_angle_gamma 90.000000
_cell_volume 2376.909913
_symmetry_space_group_name_H-M "C 2/C"
_symmetry_group_IT_number 15
_symmetry_cell_setting 'monoclinic'
loop_
_space_group_symop_operation_xyz
x,y,z
-x,y,1/2-z
-x,-y,-z
x,-y,1/2+z
1/2+x,1/2+y,z
1/2-x,1/2+y,1/2-z
1/2-x,1/2-y,-z
1/2+x,1/2-y,1/2+z
loop_
_atom_site_type_symbol
_atom_site_label
_atom_site_fract_x
_atom_site_fract_y
_atom_site_fract_z
Si Si1 0.780029 0.480412 0.335408
Si Si2 0.804545 0.356393 0.626986
Si Si3 0.157914 0.735313 0.203888
Si Si4 0.394537 0.891654 0.085010
Si Si5 0.000000 0.554364 0.250000
Si Si6 0.149415 0.949787 0.725505
Si Si7 0.163927 0.300827 0.194045
O O1 0.816237 0.431013 0.232982
O O2 0.904090 0.517379 0.222515
O O3 0.751668 0.469812 0.528774
O O4 0.652651 0.510173 0.351743
O O5 0.837339 0.319457 0.741717
O O6 0.696670 0.396856 0.741117
O O7 0.770859 0.326029 0.496609
O O8 0.941848 0.385493 0.489340
O O9 0.231668 0.762079 0.301169
O O10 0.000000 0.746100 0.250000
O O11 0.250000 0.750000 0.000000
O O12 0.342381 0.840011 0.166433
O O13 0.398965 0.912386 0.912207
O O14 0.000000 0.945278 0.750000
O O15 0.000000 0.288477 0.250000
#
# Coordination Sequence:
#
# PCOD9296388 Si02
#       7
#     8   8   8   8   4   8   8
#     4  12  23  42  64 102 139 182 236 290 346 406
#     4  11  24  43  71  99 134 182 240 287 346 426
#     4  12  28  49  74 108 145 182 237 308 375 431
#     4  11  22  39  70 103 135 176 240 293 345 415
#     4  12  22  34  72 102 138 178 228 298 350 394
#     4  12  26  43  64  98 144 192 231 281 349 426
#     4  10  23  44  73 103 139 184 238 294 359 434
#
# _framework density 21.877143
#
# number of rings (size 3 to 8) (size 9 to 14) (size 15 to 20)
#    0.000    0.615    4.615    4.154    4.308    1.846 
#    0.000    0.769    0.000    0.000    0.000    0.000 
#    0.000    0.000    0.000    0.000    0.000    0.000 
#
# Total GULP energy -145060.155819 kJ/mol
# GULP energy per Si atom -5579.236762 kJ/mol
# Density = 2.182735 g / cm^3
# Si number density = 21.877143 Si / 1000 Ang^3
#
#
#
# Elastic Constant Matrix: (Units=GPa)
#
#
# Indices 1 2 3 4 5 6 
#
# 1 131.3404 73.6178 14.5560 0.0000 -4.6384 0.0000
# 2 73.6178 121.8626 15.0347 0.0000 -5.0502 0.0000
# 3 14.5560 15.0347 69.0499 0.0000 -0.4431 0.0000
# 4 0.0000 0.0000 0.0000 25.6824 0.0000 11.4748
# 5 -4.6384 -5.0502 -0.4431 0.0000 21.9113 0.0000
# 6 0.0000 0.0000 0.0000 11.4748 0.0000 40.8533
#
#
#
# Elastic Compliance Matrix: (Units=1/GPa)
#
#
# Indices 1 2 3 4 5 6 
#
# 1 0.011587 -0.006848 -0.000946 0.000000 0.000855 0.000000
# 2 -0.006848 0.012560 -0.001282 0.000000 0.001419 0.000000
# 3 -0.000946 -0.001282 0.014960 0.000000 -0.000193 0.000000
# 4 0.000000 0.000000 0.000000 0.044525 0.000000 -0.012506
# 5 0.000855 0.001419 -0.000193 0.000000 0.046143 0.000000
# 6 0.000000 0.000000 0.000000 -0.012506 0.000000 0.027990
#
#
# Mechanical properties :
#
#
# Convention : Reuss Voigt Hill
#
# Bulk Modulus (GPa) = 47.72203 58.74108 53.23155
# Shear Modulus (GPa) = 27.33718 32.29235 29.81476
#
# Velocity S-wave (km/s) = 3.53877 3.84614 3.69565
# Velocity P-wave (km/s) = 6.20953 6.82880 6.52651
#
# Compressibility (1/GPa) = 0.02095468
#
# Stress axis : x y z
#
# Youngs Moduli (GPa) = 86.30339 79.62022 66.84651
#
# Poissons Ratio (x) = 0.54521 0.06325
# Poissons Ratio (y) = 0.59097 0.08570
# Poissons Ratio (z) = 0.08165 0.10208
#
# Static dielectric constant tensor:
#      x y z
#    x 1.899060 0.000000 0.042180 
#    y 0.000000 1.849610 0.000000 
#    z 0.042180 0.000000 1.847270 
# 
# From -- ./inp_files/34119.got.cif
#   From: 2010.05.17/outbox.cif.g08.bks.cpg/sg15_18_cif.got.tgz:34119.got - 2010.06.03 18:47:42.
