data_PCOD9296509
_publ_section_title
;
Structure prediction by ZEFSAII (Michael W. Deem and Ramdas Pophale) SiO2 
 PCOD9296509
Probable space group: C 2/C
;
_chemical_formula_sum "Si O2"
_cell_formula_units_Z 44
_cell_length_a 12.627089
_cell_length_b 19.316089
_cell_length_c 8.014057
_cell_angle_alpha 90.000000
_cell_angle_beta 91.574757
_cell_angle_gamma 90.000000
_cell_volume 1953.938143
_symmetry_space_group_name_H-M "C 2/C"
_symmetry_group_IT_number 15
_symmetry_cell_setting 'monoclinic'
loop_
_space_group_symop_operation_xyz
x,y,z
-x,y,1/2-z
-x,-y,-z
x,-y,1/2+z
1/2+x,1/2+y,z
1/2-x,1/2+y,1/2-z
1/2-x,1/2-y,-z
1/2+x,1/2-y,1/2+z
loop_
_atom_site_type_symbol
_atom_site_label
_atom_site_fract_x
_atom_site_fract_y
_atom_site_fract_z
Si Si1 0.757242 0.282006 0.726286
Si Si2 0.384941 0.533325 0.820926
Si Si3 0.500000 0.823460 0.750000
Si Si4 0.117257 0.103411 0.320635
Si Si5 0.971153 0.422788 0.443006
Si Si6 0.249626 0.139680 0.890020
O O1 0.886206 0.284363 0.730007
O O2 0.697483 0.332880 0.850052
O O3 0.719475 0.203158 0.731271
O O4 0.715581 0.317539 0.551933
O O5 0.500000 0.523288 0.750000
O O6 0.336713 0.456164 0.802228
O O7 0.331455 0.590681 0.704363
O O8 0.390925 0.563027 0.005435
O O9 0.515444 0.870332 0.584766
O O10 0.000000 0.125563 0.250000
O O11 0.846886 0.408115 0.443978
O O12 0.000000 0.411720 0.250000
O O13 0.000000 0.500000 0.500000
#
# Coordination Sequence:
#
# PCOD9296509 Si02
#       6
#     8   8   4   8   8   8
#     4  10  23  45  66  95 135 179 223 277 343 403
#     4  11  23  40  67  98 128 172 221 281 338 399
#     4  10  24  44  68  96 138 182 228 288 342 412
#     4  11  23  41  67  95 132 172 224 277 338 404
#     4  11  24  42  67 100 137 178 230 282 341 408
#     4  10  24  42  66  97 131 177 223 276 336 406
#
# _framework density 22.518623999999999
#
# number of rings (size 3 to 8) (size 9 to 14) (size 15 to 20)
#    0.000    1.455    0.909    4.364    6.364    1.455 
#    3.273    0.000    0.000    0.000    0.000    0.000 
#    0.000    0.000    0.000    0.000    0.000    0.000 
#
# Total GULP energy -122852.926718 kJ/mol
# GULP energy per Si atom -5584.223942 kJ/mol
# Density = 2.246737 g / cm^3
# Si number density = 22.518624 Si / 1000 Ang^3
#
#
#
# Elastic Constant Matrix: (Units=GPa)
#
#
# Indices 1 2 3 4 5 6 
#
# 1 72.0811 49.2974 15.6802 0.0000 16.4957 0.0000
# 2 49.2974 117.5477 0.6672 0.0000 14.5745 0.0000
# 3 15.6802 0.6672 100.4284 0.0000 10.0650 0.0000
# 4 0.0000 0.0000 0.0000 -3.1232 0.0000 89.9933
# 5 16.4957 14.5745 10.0650 0.0000 38.0084 0.0000
# 6 0.0000 0.0000 0.0000 89.9933 0.0000 -2.2606
#
#
#
# Elastic Compliance Matrix: (Units=1/GPa)
#
#
# Indices 1 2 3 4 5 6 
#
# 1 0.021359 -0.008276 -0.002742 0.000000 -0.005370 0.000000
# 2 -0.008276 0.012147 0.001354 0.000000 -0.001425 0.000000
# 3 -0.002742 0.001354 0.010590 0.000000 -0.002134 0.000000
# 4 0.000000 0.000000 0.000000 0.000279 0.000000 0.011122
# 5 -0.005370 -0.001425 -0.002134 0.000000 0.029752 0.000000
# 6 0.000000 0.000000 0.000000 0.011122 0.000000 0.000386
#
#
# Mechanical properties :
#
#
# Convention : Reuss Voigt Hill
#
# Bulk Modulus (GPa) = 40.37287 46.81630 43.59458
# Shear Modulus (GPa) = 48.97322 21.48575 35.22948
#
# Velocity S-wave (km/s) = 4.66852 3.09225 3.95962
# Velocity P-wave (km/s) = 6.85767 5.79522 6.34871
#
# Compressibility (1/GPa) = 0.02476911
#
# Stress axis : x y z
#
# Youngs Moduli (GPa) = 46.81918 82.32508 94.42639
#
# Poissons Ratio (x) = 0.68133 0.25888
# Poissons Ratio (y) = 0.38748 -0.12788
# Poissons Ratio (z) = 0.12836 -0.11149
#
# Static dielectric constant tensor:
#      x y z
#    x 1.990670 0.000000 -0.116070 
#    y 0.000000 1.925560 0.000000 
#    z -0.116070 0.000000 2.015720 
# 
# From -- ./inp_files/30974.got.cif
#   From: 2010.05.17/outbox.cif.g08.bks.cpg/sg15_16_cif.got.tgz:30974.got - 2010.06.03 18:47:42.
