data_PCOD9296627
_publ_section_title
;
Structure prediction by ZEFSAII (Michael W. Deem and Ramdas Pophale) SiO2 
 PCOD9296627
Probable space group: C 2/C
;
_chemical_formula_sum "Si O2"
_cell_formula_units_Z 48
_cell_length_a 7.313592
_cell_length_b 18.162149
_cell_length_c 14.503013
_cell_angle_alpha 90.000000
_cell_angle_beta 89.148529
_cell_angle_gamma 90.000000
_cell_volume 1926.230437
_symmetry_space_group_name_H-M "C 2/C"
_symmetry_group_IT_number 15
_symmetry_cell_setting 'monoclinic'
loop_
_space_group_symop_operation_xyz
x,y,z
-x,y,1/2-z
-x,-y,-z
x,-y,1/2+z
1/2+x,1/2+y,z
1/2-x,1/2+y,1/2-z
1/2-x,1/2-y,-z
1/2+x,1/2-y,1/2+z
loop_
_atom_site_type_symbol
_atom_site_label
_atom_site_fract_x
_atom_site_fract_y
_atom_site_fract_z
Si Si1 0.423775 0.805461 0.079434
Si Si2 0.547498 0.505039 0.391933
Si Si3 0.734530 0.639766 0.808042
Si Si4 0.904802 0.413908 0.918391
Si Si5 0.160186 0.515525 0.823893
Si Si6 0.536354 0.242596 0.116024
O O1 0.369640 0.877757 0.019386
O O2 0.496604 0.752448 0.995248
O O3 0.248943 0.765272 0.123753
O O4 0.137440 0.018164 0.164131
O O5 0.500000 0.500000 0.500000
O O6 0.640599 0.428047 0.362774
O O7 0.708897 0.563582 0.380439
O O8 0.782209 0.598235 0.711339
O O9 0.595684 0.706011 0.826135
O O10 0.915744 0.670222 0.854974
O O11 0.986909 0.343593 0.864014
O O12 0.049298 0.479998 0.910226
O O13 0.000000 0.498061 0.750000
#
# Coordination Sequence:
#
# PCOD9296627 Si02
#       6
#     8   8   8   8   8   8
#     4   9  21  42  76 111 149 196 256 316 382 452
#     4  12  27  43  75 108 140 195 257 316 382 451
#     4  12  24  41  76 106 153 194 252 315 385 460
#     4  10  23  45  70 105 154 195 252 308 375 458
#     4  12  28  45  69 102 157 197 245 315 392 462
#     4   9  22  42  74 112 150 196 261 313 380 465
#
# _framework density 24.919136999999999
#
# number of rings (size 3 to 8) (size 9 to 14) (size 15 to 20)
#    1.000    0.333    1.667    3.000    4.667    2.667 
#    0.000    1.667    0.000    0.000    0.000    0.000 
#    0.000    0.000    0.000    0.000    0.000    0.000 
#
# Total GULP energy -133935.064553 kJ/mol
# GULP energy per Si atom -5580.627690 kJ/mol
# Density = 2.486242 g / cm^3
# Si number density = 24.919137 Si / 1000 Ang^3
#
#
#
# Elastic Constant Matrix: (Units=GPa)
#
#
# Indices 1 2 3 4 5 6 
#
# 1 171.0406 42.2729 60.7523 0.0000 -19.0853 0.0000
# 2 42.2729 136.6474 65.4265 0.0000 -9.1793 0.0000
# 3 60.7523 65.4265 141.6593 0.0000 -22.7461 0.0000
# 4 0.0000 0.0000 0.0000 46.6311 0.0000 -7.6384
# 5 -19.0853 -9.1793 -22.7461 0.0000 30.4910 0.0000
# 6 0.0000 0.0000 0.0000 -7.6384 0.0000 64.0039
#
#
#
# Elastic Compliance Matrix: (Units=1/GPa)
#
#
# Indices 1 2 3 4 5 6 
#
# 1 0.007157 -0.000987 -0.002206 0.000000 0.002537 0.000000
# 2 -0.000987 0.009538 -0.004112 0.000000 -0.000815 0.000000
# 3 -0.002206 -0.004112 0.010775 0.000000 0.005419 0.000000
# 4 0.000000 0.000000 0.000000 0.021873 0.000000 0.002610
# 5 0.002537 -0.000815 0.005419 0.000000 0.038182 0.000000
# 6 0.000000 0.000000 0.000000 0.002610 0.000000 0.015936
#
#
# Mechanical properties :
#
#
# Convention : Reuss Voigt Hill
#
# Bulk Modulus (GPa) = 77.77268 87.36118 82.56693
# Shear Modulus (GPa) = 40.86375 46.95159 43.90767
#
# Velocity S-wave (km/s) = 4.05390 4.34540 4.20218
# Velocity P-wave (km/s) = 7.29315 7.76599 7.53328
#
# Compressibility (1/GPa) = 0.01285799
#
# Stress axis : x y z
#
# Youngs Moduli (GPa) = 139.71791 104.84478 92.80937
#
# Poissons Ratio (x) = 0.10353 0.20474
# Poissons Ratio (y) = 0.13797 0.38167
# Poissons Ratio (z) = 0.30822 0.43117
#
# Static dielectric constant tensor:
#      x y z
#    x 1.959820 0.000000 0.075930 
#    y 0.000000 2.013600 0.000000 
#    z 0.075930 0.000000 2.312090 
# 
# From -- ./inp_files/289179.got.cif
#   From: 2010.05.17/outbox.cif.g08.bks.cpg/sg15_145_cif.got.tgz:289179.got - 2010.06.03 18:47:42.
