data_PCOD9296726
_publ_section_title
;
Structure prediction by ZEFSAII (Michael W. Deem and Ramdas Pophale) SiO2 
 PCOD9296726
Probable space group: C 2/C
;
_chemical_formula_sum "Si O2"
_cell_formula_units_Z 40
_cell_length_a 8.098702
_cell_length_b 12.566716
_cell_length_c 27.274801
_cell_angle_alpha 90.000000
_cell_angle_beta 144.852785
_cell_angle_gamma 90.000000
_cell_volume 1598.009631
_symmetry_space_group_name_H-M "C 2/C"
_symmetry_group_IT_number 15
_symmetry_cell_setting 'monoclinic'
loop_
_space_group_symop_operation_xyz
x,y,z
-x,y,1/2-z
-x,-y,-z
x,-y,1/2+z
1/2+x,1/2+y,z
1/2-x,1/2+y,1/2-z
1/2-x,1/2-y,-z
1/2+x,1/2-y,1/2+z
loop_
_atom_site_type_symbol
_atom_site_label
_atom_site_fract_x
_atom_site_fract_y
_atom_site_fract_z
Si Si1 0.381620 0.591110 0.667285
Si Si2 0.737785 0.764781 0.938295
Si Si3 0.387642 0.176034 0.602085
Si Si4 0.281939 0.473636 0.904261
Si Si5 0.158542 0.899453 0.680728
O O1 0.500000 0.620961 0.750000
O O2 0.412206 0.671300 0.628719
O O3 0.045947 0.608409 0.598129
O O4 0.521135 0.478679 0.686771
O O5 0.604463 0.874223 0.883444
O O6 0.750000 0.750000 0.000000
O O7 0.077911 0.780251 0.010251
O O8 0.561341 0.278637 0.662383
O O9 0.368761 0.086967 0.640270
O O10 0.456012 0.439998 0.899208
O O11 0.500000 0.500000 0.000000
O O12 0.500000 0.906456 0.750000
#
# Coordination Sequence:
#
# PCOD9296726 Si02
#       5
#     8   8   8   8   8
#     4  12  26  47  76 108 153 204 256 326 393 459
#     4  11  25  47  79 119 153 204 257 319 393 476
#     4  11  25  47  76 110 151 196 257 320 383 465
#     4  10  23  45  74 108 148 190 251 313 377 463
#     4  12  27  49  72 106 153 200 256 319 391 464
#
# _framework density 25.031137999999999
#
# number of rings (size 3 to 8) (size 9 to 14) (size 15 to 20)
#    0.000    0.800    2.000    4.800    5.600    0.800 
#    0.000    1.000    0.000    0.000    0.000    0.000 
#    0.000    0.000    0.000    0.000    0.000    0.000 
#
# Total GULP energy -111573.917920 kJ/mol
# GULP energy per Si atom -5578.695896 kJ/mol
# Density = 2.497417 g / cm^3
# Si number density = 25.031138 Si / 1000 Ang^3
#
#
#
# Elastic Constant Matrix: (Units=GPa)
#
#
# Indices 1 2 3 4 5 6 
#
# 1 112.6739 74.5696 45.7518 0.0000 -9.7300 0.0000
# 2 74.5696 230.7841 42.6422 0.0000 6.8030 0.0000
# 3 45.7518 42.6422 99.5975 -0.0003 -1.0544 -0.0001
# 4 0.0000 0.0000 -0.0003 33.9738 -0.0001 9.5754
# 5 -9.7300 6.8030 -1.0544 -0.0001 52.8539 0.0000
# 6 0.0000 0.0000 -0.0001 9.5754 0.0000 37.5540
#
#
#
# Elastic Compliance Matrix: (Units=1/GPa)
#
#
# Indices 1 2 3 4 5 6 
#
# 1 0.013319 -0.003542 -0.004572 0.000000 0.002817 0.000000
# 2 -0.003542 0.005669 -0.000815 0.000000 -0.001398 0.000000
# 3 -0.004572 -0.000815 0.012484 0.000000 -0.000488 0.000000
# 4 0.000000 0.000000 0.000000 0.031713 0.000000 -0.008086
# 5 0.002817 -0.001398 -0.000488 0.000000 0.019609 0.000000
# 6 0.000000 0.000000 0.000000 -0.008086 0.000000 0.028690
#
#
# Mechanical properties :
#
#
# Convention : Reuss Voigt Hill
#
# Bulk Modulus (GPa) = 73.44941 85.44250 79.44596
# Shear Modulus (GPa) = 37.34654 43.54912 40.44783
#
# Velocity S-wave (km/s) = 3.86684 4.17561 4.02419
# Velocity P-wave (km/s) = 7.02449 7.57999 7.30752
#
# Compressibility (1/GPa) = 0.01361481
#
# Stress axis : x y z
#
# Youngs Moduli (GPa) = 75.08120 176.38967 80.09939
#
# Poissons Ratio (x) = 0.62473 0.36622
# Poissons Ratio (y) = 0.26592 0.06529
# Poissons Ratio (z) = 0.34328 0.14377
#
# Static dielectric constant tensor:
#      x y z
#    x 2.100700 0.000000 0.036250 
#    y 0.000000 2.084520 0.000000 
#    z 0.036250 0.000000 2.182640 
# 
# From -- ./inp_files/307343.got.cif
#   From: 2010.05.17/outbox.cif.g08.bks.cpg/sg15_154_cif.got.tgz:307343.got - 2010.06.03 18:47:42.
