data_PCOD9296170
_publ_section_title
;
Structure prediction by ZEFSAII (Michael W. Deem and Ramdas Pophale) SiO2 
 PCOD9296170
Probable space group: C 2/C
;
_chemical_formula_sum "Si O2"
_cell_formula_units_Z 40
_cell_length_a 14.760701
_cell_length_b 9.353945
_cell_length_c 15.582006
_cell_angle_alpha 90.000000
_cell_angle_beta 121.244386
_cell_angle_gamma 90.000000
_cell_volume 1839.383680
_symmetry_space_group_name_H-M "C 2/C"
_symmetry_group_IT_number 15
_symmetry_cell_setting 'monoclinic'
loop_
_space_group_symop_operation_xyz
x,y,z
-x,y,1/2-z
-x,-y,-z
x,-y,1/2+z
1/2+x,1/2+y,z
1/2-x,1/2+y,1/2-z
1/2-x,1/2-y,-z
1/2+x,1/2-y,1/2+z
loop_
_atom_site_type_symbol
_atom_site_label
_atom_site_fract_x
_atom_site_fract_y
_atom_site_fract_z
Si Si1 0.605182 0.720099 0.358826
Si Si2 0.794015 0.078554 0.546333
Si Si3 0.556716 0.031820 0.938881
Si Si4 0.155880 0.434290 0.243676
Si Si5 0.228073 0.793641 0.639494
O O1 0.500000 0.698162 0.250000
O O2 0.658533 0.570779 0.401991
O O3 0.582811 0.801005 0.436914
O O4 0.669987 0.837455 0.335375
O O5 0.831026 0.132379 0.470898
O O6 0.813376 0.198083 0.628584
O O7 0.665957 0.053237 0.481887
O O8 0.463945 0.007942 0.823966
O O9 0.500000 0.000000 0.000000
O O10 0.174289 0.322745 0.175000
O O11 0.229091 0.573651 0.283928
#
# Coordination Sequence:
#
# PCOD9296170 Si02
#       5
#     8   8   8   8   8
#     4  10  23  44  68  98 131 172 220 273 328 386
#     4  11  23  45  67  97 130 173 222 276 322 390
#     4  11  22  41  69  94 132 175 221 258 335 396
#     4  11  23  41  66  97 131 175 218 270 327 393
#     4  11  24  40  68  95 132 169 224 265 330 388
#
# _framework density 21.746414999999999
#
# number of rings (size 3 to 8) (size 9 to 14) (size 15 to 20)
#    0.000    1.200    4.000    1.800    0.000    0.000 
#    7.200    4.000    0.000    0.000    0.000    0.000 
#    0.000    0.000    0.000    0.000    0.000    0.000 
#
# Total GULP energy -111539.263606 kJ/mol
# GULP energy per Si atom -5576.963180 kJ/mol
# Density = 2.169692 g / cm^3
# Si number density = 21.746415 Si / 1000 Ang^3
#
#
#
# Elastic Constant Matrix: (Units=GPa)
#
#
# Indices 1 2 3 4 5 6 
#
# 1 66.0948 50.6890 44.4747 0.0000 -16.7728 0.0000
# 2 50.6890 166.8384 61.2702 0.0000 -2.8246 0.0000
# 3 44.4747 61.2702 79.8318 0.0000 -24.2123 0.0000
# 4 0.0000 0.0000 0.0000 53.1965 0.0000 -13.7148
# 5 -16.7728 -2.8246 -24.2123 0.0000 36.1550 0.0000
# 6 0.0000 0.0000 0.0000 -13.7148 0.0000 18.8425
#
#
#
# Elastic Compliance Matrix: (Units=1/GPa)
#
#
# Indices 1 2 3 4 5 6 
#
# 1 0.026375 -0.004353 -0.009719 0.000000 0.005387 0.000000
# 2 -0.004353 0.009712 -0.006790 0.000000 -0.005808 0.000000
# 3 -0.009719 -0.006790 0.027135 0.000000 0.013133 0.000000
# 4 0.000000 0.000000 0.000000 0.023141 0.000000 0.016843
# 5 0.005387 -0.005808 0.013133 0.000000 0.038499 0.000000
# 6 0.000000 0.000000 0.000000 0.016843 0.000000 0.065331
#
#
# Mechanical properties :
#
#
# Convention : Reuss Voigt Hill
#
# Bulk Modulus (GPa) = 46.51604 69.51474 58.01539
# Shear Modulus (GPa) = 20.91332 32.06087 26.48710
#
# Velocity S-wave (km/s) = 3.10448 3.84383 3.49377
# Velocity P-wave (km/s) = 5.85551 7.19274 6.55830
#
# Compressibility (1/GPa) = 0.02149796
#
# Stress axis : x y z
#
# Youngs Moduli (GPa) = 37.91479 102.97012 36.85258
#
# Poissons Ratio (x) = 0.44821 0.35817
# Poissons Ratio (y) = 0.16504 0.25023
# Poissons Ratio (z) = 0.36849 0.69917
#
# Static dielectric constant tensor:
#      x y z
#    x 1.860740 0.000000 -0.030560 
#    y 0.000000 1.791610 0.000000 
#    z -0.030560 0.000000 1.875000 
# 
# From -- ./inp_files/159486.got.cif
#   From: 2010.05.17/outbox.cif.g08.bks.cpg/sg15_80_cif.got.tgz:159486.got - 2010.06.03 18:47:42.
