data_PCOD9296753
_publ_section_title
;
Structure prediction by ZEFSAII (Michael W. Deem and Ramdas Pophale) SiO2 
 PCOD9296753
Probable space group: C 2/C
;
_chemical_formula_sum "Si O2"
_cell_formula_units_Z 28
_cell_length_a 7.240775
_cell_length_b 7.143080
_cell_length_c 21.457943
_cell_angle_alpha 90.000000
_cell_angle_beta 101.736339
_cell_angle_gamma 90.000000
_cell_volume 1086.633382
_symmetry_space_group_name_H-M "C 2/C"
_symmetry_group_IT_number 15
_symmetry_cell_setting 'monoclinic'
loop_
_space_group_symop_operation_xyz
x,y,z
-x,y,1/2-z
-x,-y,-z
x,-y,1/2+z
1/2+x,1/2+y,z
1/2-x,1/2+y,1/2-z
1/2-x,1/2-y,-z
1/2+x,1/2-y,1/2+z
loop_
_atom_site_type_symbol
_atom_site_label
_atom_site_fract_x
_atom_site_fract_y
_atom_site_fract_z
Si Si1 0.267092 0.579929 0.418469
Si Si2 0.762344 0.240791 0.837173
Si Si3 0.000000 0.037809 0.750000
Si Si4 0.215709 0.992727 0.939913
O O1 0.173028 0.450289 0.359349
O O2 0.230828 0.799417 0.413595
O O3 0.219414 0.503067 0.484066
O O4 0.494139 0.559970 0.425328
O O5 0.898275 0.167606 0.793145
O O6 0.633531 0.396359 0.796752
O O7 0.828150 0.345646 0.905095
#
# Coordination Sequence:
#
# PCOD9296753 Si02
#       4
#     8   8   4   8
#     4  10  23  45  77 110 142 184 237 303 371 428
#     4  12  27  54  68 112 141 204 234 316 334 454
#     4  12  32  44  78  96 154 194 260 272 376 406
#     4  10  23  45  77 110 142 184 237 303 371 428
#
# _framework density 25.767658999999998
#
# number of rings (size 3 to 8) (size 9 to 14) (size 15 to 20)
#    0.000    1.143    2.857    0.857    4.000    8.000 
#    0.000    8.571    0.000    0.000    0.000    0.000 
#    0.000    0.000    0.000    0.000    0.000    0.000 
#
# Total GULP energy -78532.115633 kJ/mol
# GULP energy per Si atom -5609.436831 kJ/mol
# Density = 2.570901 g / cm^3
# Si number density = 25.767659 Si / 1000 Ang^3
#
#
#
# Elastic Constant Matrix: (Units=GPa)
#
#
# Indices 1 2 3 4 5 6 
#
# 1 81.7290 66.4093 34.7725 0.0000 -17.9500 0.0000
# 2 66.4093 190.4421 85.4073 0.0000 -42.9618 0.0000
# 3 34.7725 85.4073 142.0823 0.0000 -43.8160 0.0000
# 4 0.0000 0.0000 0.0000 63.0079 0.0000 -7.1019
# 5 -17.9500 -42.9618 -43.8160 0.0000 48.1028 0.0000
# 6 0.0000 0.0000 0.0000 -7.1019 0.0000 65.0019
#
#
#
# Elastic Compliance Matrix: (Units=1/GPa)
#
#
# Indices 1 2 3 4 5 6 
#
# 1 0.017172 -0.005505 -0.000603 0.000000 0.000942 0.000000
# 2 -0.005505 0.009392 -0.003261 0.000000 0.003363 0.000000
# 3 -0.000603 -0.003261 0.011373 0.000000 0.007222 0.000000
# 4 0.000000 0.000000 0.000000 0.016069 0.000000 0.001756
# 5 0.000942 0.003363 0.007222 0.000000 0.030723 0.000000
# 6 0.000000 0.000000 0.000000 0.001756 0.000000 0.015576
#
#
# Mechanical properties :
#
#
# Convention : Reuss Voigt Hill
#
# Bulk Modulus (GPa) = 52.08626 87.49238 69.78932
# Shear Modulus (GPa) = 39.85871 50.40015 45.12943
#
# Velocity S-wave (km/s) = 3.93727 4.42741 4.18951
# Velocity P-wave (km/s) = 6.39743 7.75654 7.10954
#
# Compressibility (1/GPa) = 0.01919892
#
# Stress axis : x y z
#
# Youngs Moduli (GPa) = 58.23329 106.47449 87.92636
#
# Poissons Ratio (x) = 0.58618 0.05301
# Poissons Ratio (y) = 0.32059 0.28673
# Poissons Ratio (z) = 0.03511 0.34722
#
# Static dielectric constant tensor:
#      x y z
#    x 2.104140 0.000000 0.043280 
#    y 0.000000 1.961660 0.000000 
#    z 0.043280 0.000000 2.016920 
# 
# From -- ./inp_files/262132.got.cif
#   From: 2010.05.17/outbox.cif.g08.bks.cpg/sg15_132_cif.got.tgz:262132.got - 2010.06.03 18:47:42.
