data_PCOD9296184
_publ_section_title
;
Structure prediction by ZEFSAII (Michael W. Deem and Ramdas Pophale) SiO2 
 PCOD9296184
Probable space group: C 2/C
;
_chemical_formula_sum "Si O2"
_cell_formula_units_Z 32
_cell_length_a 7.825433
_cell_length_b 20.277727
_cell_length_c 7.787407
_cell_angle_alpha 90.000000
_cell_angle_beta 95.638431
_cell_angle_gamma 90.000000
_cell_volume 1229.742509
_symmetry_space_group_name_H-M "C 2/C"
_symmetry_group_IT_number 15
_symmetry_cell_setting 'monoclinic'
loop_
_space_group_symop_operation_xyz
x,y,z
-x,y,1/2-z
-x,-y,-z
x,-y,1/2+z
1/2+x,1/2+y,z
1/2-x,1/2+y,1/2-z
1/2-x,1/2-y,-z
1/2+x,1/2-y,1/2+z
loop_
_atom_site_type_symbol
_atom_site_label
_atom_site_fract_x
_atom_site_fract_y
_atom_site_fract_z
Si Si1 0.000000 0.024164 0.750000
Si Si2 0.301419 0.079475 0.299187
Si Si3 0.172723 0.130571 0.964782
Si Si4 0.000000 0.753608 0.250000
Si Si5 0.033841 0.343552 0.433353
O O1 0.036264 0.074562 0.909642
O O2 0.172401 0.980819 0.761234
O O3 0.500000 0.069007 0.250000
O O4 0.318293 0.106007 0.495169
O O5 0.209177 0.135217 0.170254
O O6 0.130672 0.195927 0.854647
O O7 0.362024 0.111576 0.918156
O O8 0.954685 0.707898 0.408281
O O9 0.000000 0.308126 0.250000
#
# Coordination Sequence:
#
# PCOD9296184 Si02
#       5
#     4   8   8   4   8
#     4  11  24  42  76 106 138 189 242 284 360 431
#     4  10  23  45  69 103 146 184 232 297 353 417
#     4  10  23  44  69 100 143 188 225 300 356 404
#     4  11  22  46  70  96 150 181 234 298 350 419
#     4  11  24  42  71 104 138 189 235 287 359 421
#
# _framework density 26.021705999999998
#
# number of rings (size 3 to 8) (size 9 to 14) (size 15 to 20)
#    0.000    1.500    3.750    1.500    0.000   12.000 
#    2.250    0.000    0.000    0.000    0.000    0.000 
#    0.000    0.000    0.000    0.000    0.000    0.000 
#
# Total GULP energy -89144.547725 kJ/mol
# GULP energy per Si atom -5571.534233 kJ/mol
# Density = 2.596248 g / cm^3
# Si number density = 26.021706 Si / 1000 Ang^3
#
#
#
# Elastic Constant Matrix: (Units=GPa)
#
#
# Indices 1 2 3 4 5 6 
#
# 1 137.8624 75.4343 59.5676 0.0000 40.7180 0.0000
# 2 75.4343 111.3404 75.4354 0.0000 31.7166 0.0000
# 3 59.5676 75.4354 235.2801 0.0000 55.6364 0.0000
# 4 0.0000 0.0000 0.0000 9.9378 0.0000 -13.1737
# 5 40.7180 31.7166 55.6364 0.0000 38.9903 0.0000
# 6 0.0000 0.0000 0.0000 -13.1737 0.0000 -8.5067
#
#
#
# Elastic Compliance Matrix: (Units=1/GPa)
#
#
# Indices 1 2 3 4 5 6 
#
# 1 0.013668 -0.007208 0.001267 0.000000 -0.010218 0.000000
# 2 -0.007208 0.016348 -0.003097 0.000000 -0.001352 0.000000
# 3 0.001267 -0.003097 0.007002 0.000000 -0.008796 0.000000
# 4 0.000000 0.000000 0.000000 0.032961 0.000000 -0.051044
# 5 -0.010218 -0.001352 -0.008796 0.000000 0.049969 0.000000
# 6 0.000000 0.000000 0.000000 -0.051044 0.000000 -0.038506
#
#
# Mechanical properties :
#
#
# Convention : Reuss Voigt Hill
#
# Bulk Modulus (GPa) = 52.79065 100.59531 76.69298
# Shear Modulus (GPa) = 47.24424 26.35398 36.79911
#
# Velocity S-wave (km/s) = 4.26557 3.18586 3.76462
# Velocity P-wave (km/s) = 6.67768 7.23015 6.95940
#
# Compressibility (1/GPa) = 0.01894275
#
# Stress axis : x y z
#
# Youngs Moduli (GPa) = 73.16290 61.16857 142.80913
#
# Poissons Ratio (x) = 0.44089 -0.18091
# Poissons Ratio (y) = 0.52734 0.44228
# Poissons Ratio (z) = -0.09268 0.18944
#
# Static dielectric constant tensor:
#      x y z
#    x 2.142650 0.000000 -0.185200 
#    y 0.000000 2.083200 0.000000 
#    z -0.185200 0.000000 2.220650 
# 
# From -- ./inp_files/22385.got.cif
#   From: 2010.05.17/outbox.cif.g08.bks.cpg/sg15_12_cif.got.tgz:22385.got - 2010.06.03 18:47:42.
