data_PCOD9296524
_publ_section_title
;
Structure prediction by ZEFSAII (Michael W. Deem and Ramdas Pophale) SiO2 
 PCOD9296524
Probable space group: C 2/C
;
_chemical_formula_sum "Si O2"
_cell_formula_units_Z 56
_cell_length_a 27.780062
_cell_length_b 9.482863
_cell_length_c 19.298973
_cell_angle_alpha 90.000000
_cell_angle_beta 149.750146
_cell_angle_gamma 90.000000
_cell_volume 2561.183632
_symmetry_space_group_name_H-M "C 2/C"
_symmetry_group_IT_number 15
_symmetry_cell_setting 'monoclinic'
loop_
_space_group_symop_operation_xyz
x,y,z
-x,y,1/2-z
-x,-y,-z
x,-y,1/2+z
1/2+x,1/2+y,z
1/2-x,1/2+y,1/2-z
1/2-x,1/2-y,-z
1/2+x,1/2-y,1/2+z
loop_
_atom_site_type_symbol
_atom_site_label
_atom_site_fract_x
_atom_site_fract_y
_atom_site_fract_z
Si Si1 0.670946 0.316559 0.628880
Si Si2 0.047749 0.730803 0.918316
Si Si3 0.339709 0.626440 0.541467
Si Si4 0.468299 0.941076 0.533196
Si Si5 0.143731 0.117842 0.659988
Si Si6 0.626093 0.247260 0.281136
Si Si7 0.649334 0.696196 0.403876
O O1 0.635529 0.366555 0.508494
O O2 0.599941 0.192142 0.562903
O O3 0.771204 0.232686 0.746467
O O4 0.673447 0.456991 0.679148
O O5 0.068774 0.571861 0.969016
O O6 0.120010 0.755870 0.944689
O O7 0.940473 0.758166 0.756002
O O8 0.066183 0.833003 0.006765
O O9 0.401022 0.705504 0.675577
O O10 0.235705 0.698740 0.415042
O O11 0.339278 0.470420 0.571461
O O12 0.562970 0.886330 0.686768
O O13 0.500000 0.000000 0.500000
O O14 0.112459 0.141493 0.700988
O O15 0.750000 0.750000 0.500000
#
# Coordination Sequence:
#
# PCOD9296524 Si02
#       7
#     8   8   8   8   8   8   8
#     4  11  26  43  75  99 150 191 241 308 369 450
#     4  11  25  44  72 107 147 187 256 293 375 446
#     4  10  23  45  67 102 138 193 236 301 368 440
#     4  12  26  44  69 103 144 189 242 311 368 434
#     4  11  23  46  70 106 137 190 241 301 368 444
#     4  10  24  43  71 100 145 181 249 292 371 447
#     4  11  25  44  75 104 152 190 241 312 371 446
#
# _framework density 21.864889999999999
#
# number of rings (size 3 to 8) (size 9 to 14) (size 15 to 20)
#    0.000    1.143    2.857    1.714    4.000   10.286 
#    0.000    0.000    0.000    0.000    0.000    0.000 
#    0.000    0.000    0.000    0.000    0.000    0.000 
#
# Total GULP energy -156426.072655 kJ/mol
# GULP energy per Si atom -5586.645452 kJ/mol
# Density = 2.181512 g / cm^3
# Si number density = 21.864890 Si / 1000 Ang^3
#
#
#
# Elastic Constant Matrix: (Units=GPa)
#
#
# Indices 1 2 3 4 5 6 
#
# 1 113.4943 -8.1632 50.0590 0.0000 -51.0969 0.0000
# 2 -8.1632 150.9935 29.0796 0.0000 14.4197 0.0000
# 3 50.0590 29.0796 88.2811 0.0000 -20.6816 0.0000
# 4 0.0000 0.0000 0.0000 41.2963 0.0000 0.3951
# 5 -51.0969 14.4197 -20.6816 0.0000 72.4912 0.0000
# 6 0.0000 0.0000 0.0000 0.3951 0.0000 57.1280
#
#
#
# Elastic Compliance Matrix: (Units=1/GPa)
#
#
# Indices 1 2 3 4 5 6 
#
# 1 0.016374 0.001494 -0.007654 0.000000 0.009060 0.000000
# 2 0.001494 0.007557 -0.003689 0.000000 -0.001503 0.000000
# 3 -0.007654 -0.003689 0.016922 0.000000 0.000166 0.000000
# 4 0.000000 0.000000 0.000000 0.024217 0.000000 -0.000168
# 5 0.009060 -0.001503 0.000166 0.000000 0.020528 0.000000
# 6 0.000000 0.000000 0.000000 -0.000168 0.000000 0.017506
#
#
# Mechanical properties :
#
#
# Convention : Reuss Voigt Hill
#
# Bulk Modulus (GPa) = 47.26926 54.96887 51.11907
# Shear Modulus (GPa) = 38.50547 52.96933 45.73740
#
# Velocity S-wave (km/s) = 4.20106 4.92731 4.57860
# Velocity P-wave (km/s) = 6.72291 7.58722 7.16811
#
# Compressibility (1/GPa) = 0.02115540
#
# Stress axis : x y z
#
# Youngs Moduli (GPa) = 61.07398 132.31996 59.09616
#
# Poissons Ratio (x) = -0.19769 0.45233
# Poissons Ratio (y) = -0.09125 0.21798
# Poissons Ratio (z) = 0.46746 0.48807
#
# Static dielectric constant tensor:
#      x y z
#    x 1.853890 0.000000 -0.015510 
#    y 0.000000 1.771240 0.000000 
#    z -0.015510 0.000000 1.858570 
# 
# From -- ./inp_files/259034.got.cif
#   From: 2010.05.17/outbox.cif.g08.bks.cpg/sg15_130_cif.got.tgz:259034.got - 2010.06.03 18:47:42.
