data_PCOD9296897
_publ_section_title
;
Structure prediction by ZEFSAII (Michael W. Deem and Ramdas Pophale) SiO2 
 PCOD9296897
Probable space group: C 2/C
;
_chemical_formula_sum "Si O2"
_cell_formula_units_Z 52
_cell_length_a 18.931909
_cell_length_b 5.200990
_cell_length_c 26.680391
_cell_angle_alpha 90.000000
_cell_angle_beta 128.908188
_cell_angle_gamma 90.000000
_cell_volume 2044.268027
_symmetry_space_group_name_H-M "C 2/C"
_symmetry_group_IT_number 15
_symmetry_cell_setting 'monoclinic'
loop_
_space_group_symop_operation_xyz
x,y,z
-x,y,1/2-z
-x,-y,-z
x,-y,1/2+z
1/2+x,1/2+y,z
1/2-x,1/2+y,1/2-z
1/2-x,1/2-y,-z
1/2+x,1/2-y,1/2+z
loop_
_atom_site_type_symbol
_atom_site_label
_atom_site_fract_x
_atom_site_fract_y
_atom_site_fract_z
Si Si1 0.714920 0.964858 0.523823
Si Si2 0.144754 0.428894 0.185251
Si Si3 0.488243 0.454492 0.911778
Si Si4 0.500000 0.768206 0.750000
Si Si5 0.337322 0.569378 0.739171
Si Si6 0.081860 0.707927 0.039729
Si Si7 0.601867 0.778368 0.892284
O O1 0.750000 0.750000 0.500000
O O2 0.676901 0.888623 0.560828
O O3 0.626948 0.063085 0.453471
O O4 0.797932 0.158714 0.572123
O O5 0.229217 0.402474 0.184923
O O6 0.142675 0.696561 0.213243
O O7 0.057600 0.317472 0.118904
O O8 0.155448 0.209367 0.232692
O O9 0.418072 0.651249 0.906871
O O10 0.535575 0.556483 0.883147
O O11 0.561098 0.424043 0.988173
O O12 0.413441 0.605367 0.731002
O O13 0.548840 0.900632 0.820847
O O14 0.000000 0.500000 0.000000
#
# Coordination Sequence:
#
# PCOD9296897 Si02
#       7
#     8   8   8   4   8   8   8
#     4  11  24  46  72 102 145 190 234 310 372 436
#     4  10  23  46  71  97 142 197 230 306 364 439
#     4  11  23  42  70 100 139 185 244 302 364 437
#     4  12  26  46  72 112 142 198 242 308 370 456
#     4  10  24  45  68 103 143 185 249 288 372 435
#     4  11  24  40  69 104 130 183 247 294 362 434
#     4  11  25  46  70 104 150 186 245 298 377 441
#
# _framework density 25.436978
#
# number of rings (size 3 to 8) (size 9 to 14) (size 15 to 20)
#    0.000    1.231    4.615    0.000    4.308    3.077 
#    8.308    0.000    0.000    0.000    0.000    0.000 
#    0.000    0.000    0.000    0.000    0.000    0.000 
#
# Total GULP energy -145140.536789 kJ/mol
# GULP energy per Si atom -5582.328338 kJ/mol
# Density = 2.537908 g / cm^3
# Si number density = 25.436978 Si / 1000 Ang^3
#
#
#
# Elastic Constant Matrix: (Units=GPa)
#
#
# Indices 1 2 3 4 5 6 
#
# 1 173.6105 7.7782 13.9530 0.0012 12.8125 -0.0010
# 2 7.7782 52.5169 25.9399 0.0045 -5.7892 -0.0045
# 3 13.9530 25.9399 126.8290 0.0007 0.1754 -0.0012
# 4 0.0012 0.0045 0.0007 32.3996 -0.0002 7.5678
# 5 12.8125 -5.7892 0.1754 -0.0002 40.3779 0.0004
# 6 -0.0010 -0.0045 -0.0012 7.5678 0.0004 34.0141
#
#
#
# Elastic Compliance Matrix: (Units=1/GPa)
#
#
# Indices 1 2 3 4 5 6 
#
# 1 0.005987 -0.000874 -0.000477 0.000000 -0.002023 0.000000
# 2 -0.000874 0.021693 -0.004345 -0.000004 0.003406 0.000003
# 3 -0.000477 -0.004345 0.008827 0.000001 -0.000510 0.000000
# 4 0.000000 -0.000004 0.000001 0.032557 0.000000 -0.007244
# 5 -0.002023 0.003406 -0.000510 0.000000 0.025899 0.000000
# 6 0.000000 0.000003 0.000000 -0.007244 0.000000 0.031011
#
#
# Mechanical properties :
#
#
# Convention : Reuss Voigt Hill
#
# Bulk Modulus (GPa) = 39.81960 49.81097 44.81528
# Shear Modulus (GPa) = 34.30855 41.71068 38.00961
#
# Velocity S-wave (km/s) = 3.67654 4.05379 3.86977
# Velocity P-wave (km/s) = 5.80610 6.44481 6.13378
#
# Compressibility (1/GPa) = 0.02511326
#
# Stress axis : x y z
#
# Youngs Moduli (GPa) = 167.03371 46.09835 113.29455
#
# Poissons Ratio (x) = 0.04029 0.05405
# Poissons Ratio (y) = 0.14600 0.49230
# Poissons Ratio (z) = 0.07969 0.20031
#
# Static dielectric constant tensor:
#      x y z
#    x 2.038840 0.000000 0.024020 
#    y 0.000000 2.103280 0.000000 
#    z 0.024020 0.000000 2.109710 
# 
# From -- ./inp_files/300149.got.cif
#   From: 2010.05.17/outbox.cif.g08.bks.cpg/sg15_151_cif.got.tgz:300149.got - 2010.06.03 18:47:42.
