data_PCOD9296877
_publ_section_title
;
Structure prediction by ZEFSAII (Michael W. Deem and Ramdas Pophale) SiO2 
 PCOD9296877
Probable space group: C 2/C
;
_chemical_formula_sum "Si O2"
_cell_formula_units_Z 56
_cell_length_a 26.468024
_cell_length_b 7.787785
_cell_length_c 12.241661
_cell_angle_alpha 90.000000
_cell_angle_beta 63.455854
_cell_angle_gamma 90.000000
_cell_volume 2257.355755
_symmetry_space_group_name_H-M "C 2/C"
_symmetry_group_IT_number 15
_symmetry_cell_setting 'monoclinic'
loop_
_space_group_symop_operation_xyz
x,y,z
-x,y,1/2-z
-x,-y,-z
x,-y,1/2+z
1/2+x,1/2+y,z
1/2-x,1/2+y,1/2-z
1/2-x,1/2-y,-z
1/2+x,1/2-y,1/2+z
loop_
_atom_site_type_symbol
_atom_site_label
_atom_site_fract_x
_atom_site_fract_y
_atom_site_fract_z
Si Si1 0.371176 0.372974 0.763207
Si Si2 0.249138 0.171517 0.123775
Si Si3 0.058207 0.309433 0.154012
Si Si4 0.050642 0.864375 0.441746
Si Si5 0.158219 0.845474 0.044521
Si Si6 0.463839 0.798907 0.883528
Si Si7 0.231247 0.768651 0.167363
O O1 0.314310 0.298801 0.770307
O O2 0.405801 0.212384 0.771993
O O3 0.403104 0.522254 0.666855
O O4 0.353655 0.471120 0.891086
O O5 0.285600 0.244458 0.189724
O O6 0.253192 0.963817 0.123005
O O7 0.250000 0.250000 0.000000
O O8 0.049486 0.505991 0.132868
O O9 0.000000 0.225829 0.250000
O O10 0.075369 0.209303 0.028979
O O11 0.012702 0.710721 0.427317
O O12 0.000000 0.000000 0.500000
O O13 0.099002 0.784525 0.047527
O O14 0.179679 0.737717 0.131870
O O15 0.215250 0.847281 0.918569
O O16 0.500000 0.712545 0.750000
#
# Coordination Sequence:
#
# PCOD9296877 Si02
#       7
#     8   8   8   8   8   8   8
#     4  11  25  44  73 105 141 190 242 298 366 445
#     4  11  28  49  74 109 144 189 252 311 381 448
#     4  11  25  42  65 102 144 185 236 291 352 433
#     4  12  24  42  69 101 146 187 237 284 360 436
#     4  10  23  46  71 101 138 193 239 295 369 436
#     4  11  24  44  69 103 145 185 234 293 358 432
#     4  10  26  46  76 103 144 186 244 308 372 440
#
# _framework density 24.807786
#
# number of rings (size 3 to 8) (size 9 to 14) (size 15 to 20)
#    0.000    1.143    2.857    1.286   12.000    1.143 
#    0.000    0.000    0.000    0.000    0.000    0.000 
#    0.000    0.000    0.000    0.000    0.000    0.000 
#
# Total GULP energy -156091.092106 kJ/mol
# GULP energy per Si atom -5574.681861 kJ/mol
# Density = 2.475132 g / cm^3
# Si number density = 24.807786 Si / 1000 Ang^3
#
#
#
# Elastic Constant Matrix: (Units=GPa)
#
#
# Indices 1 2 3 4 5 6 
#
# 1 112.6041 -21.9718 29.3398 0.0000 4.8195 0.0000
# 2 -21.9718 57.1330 9.6382 0.0000 0.2834 0.0000
# 3 29.3398 9.6382 81.7811 0.0000 7.5718 0.0000
# 4 0.0000 0.0000 0.0000 18.8929 0.0000 15.3470
# 5 4.8195 0.2834 7.5718 0.0000 41.5774 0.0000
# 6 0.0000 0.0000 0.0000 15.3470 0.0000 3.6806
#
#
#
# Elastic Compliance Matrix: (Units=1/GPa)
#
#
# Indices 1 2 3 4 5 6 
#
# 1 0.011056 0.005015 -0.004512 0.000000 -0.000494 0.000000
# 2 0.005015 0.020136 -0.004176 0.000000 0.000042 0.000000
# 3 -0.004512 -0.004176 0.014533 0.000000 -0.002095 0.000000
# 4 0.000000 0.000000 0.000000 -0.022173 0.000000 0.092456
# 5 -0.000494 0.000042 -0.002095 0.000000 0.024490 0.000000
# 6 0.000000 0.000000 0.000000 0.092456 0.000000 -0.113817
#
#
# Mechanical properties :
#
#
# Convention : Reuss Voigt Hill
#
# Bulk Modulus (GPa) = 26.05571 31.72565 28.89068
# Shear Modulus (GPa) = -109.55998 28.46431 -40.54783
#
# Velocity S-wave (km/s) = -6.65278 3.39100 -4.04726
# Velocity P-wave (km/s) = 6.96324 5.30548 3.18893
#
# Compressibility (1/GPa) = 0.03837931
#
# Stress axis : x y z
#
# Youngs Moduli (GPa) = 90.44841 49.66197 68.81081
#
# Poissons Ratio (x) = -0.24908 0.31046
# Poissons Ratio (y) = -0.45364 0.28738
# Poissons Ratio (z) = 0.40809 0.20741
#
# Static dielectric constant tensor:
#      x y z
#    x 2.103670 0.000000 0.052370 
#    y 0.000000 1.859190 0.000000 
#    z 0.052370 0.000000 2.127720 
# 
# From -- ./inp_files/121865.got.cif
#   From: 2010.05.17/outbox.cif.g08.bks.cpg/sg15_61_cif.got.tgz:121865.got - 2010.06.03 18:47:42.
