data_PCOD9296715
_publ_section_title
;
Structure prediction by ZEFSAII (Michael W. Deem and Ramdas Pophale) SiO2 
 PCOD9296715
Probable space group: C 2/C
;
_chemical_formula_sum "Si O2"
_cell_formula_units_Z 40
_cell_length_a 8.559366
_cell_length_b 12.171332
_cell_length_c 16.284239
_cell_angle_alpha 90.000000
_cell_angle_beta 95.144207
_cell_angle_gamma 90.000000
_cell_volume 1689.640779
_symmetry_space_group_name_H-M "C 2/C"
_symmetry_group_IT_number 15
_symmetry_cell_setting 'monoclinic'
loop_
_space_group_symop_operation_xyz
x,y,z
-x,y,1/2-z
-x,-y,-z
x,-y,1/2+z
1/2+x,1/2+y,z
1/2-x,1/2+y,1/2-z
1/2-x,1/2-y,-z
1/2+x,1/2-y,1/2+z
loop_
_atom_site_type_symbol
_atom_site_label
_atom_site_fract_x
_atom_site_fract_y
_atom_site_fract_z
Si Si1 0.372771 0.275201 0.079144
Si Si2 0.160854 0.429154 0.799168
Si Si3 0.224480 0.125496 0.579406
Si Si4 0.627001 0.489423 0.932442
Si Si5 0.117345 0.191661 0.318690
O O1 0.368771 0.170814 0.137991
O O2 0.555239 0.310405 0.072276
O O3 0.317109 0.397599 0.104982
O O4 0.250000 0.250000 0.000000
O O5 0.248062 0.528921 0.851320
O O6 0.249597 0.366537 0.729142
O O7 0.000000 0.469679 0.750000
O O8 0.258456 0.074024 0.491331
O O9 0.339472 0.220867 0.611673
O O10 0.546828 0.411354 0.863190
O O11 0.500000 0.500000 0.000000
O O12 0.000000 0.244858 0.250000
#
# Coordination Sequence:
#
# PCOD9296715 Si02
#       5
#     8   8   8   8   8
#     4  11  23  45  76 103 142 198 246 309 370 451
#     4  12  26  48  74 111 149 196 256 314 382 456
#     4  11  24  47  70 105 147 191 252 307 372 459
#     4  10  23  45  73  99 143 194 251 301 373 454
#     4  12  26  43  73 107 149 195 246 320 384 442
#
# _framework density 23.673670999999999
#
# number of rings (size 3 to 8) (size 9 to 14) (size 15 to 20)
#    0.000    0.800    4.000    3.600    5.600    0.800 
#    0.000    2.000    0.000    0.000    0.000    0.000 
#    0.000    0.000    0.000    0.000    0.000    0.000 
#
# Total GULP energy -111456.394971 kJ/mol
# GULP energy per Si atom -5572.819749 kJ/mol
# Density = 2.361979 g / cm^3
# Si number density = 23.673671 Si / 1000 Ang^3
#
#
#
# Elastic Constant Matrix: (Units=GPa)
#
#
# Indices 1 2 3 4 5 6 
#
# 1 59.4533 19.5689 15.9607 0.0000 22.6295 0.0000
# 2 19.5689 156.2469 26.9996 0.0000 12.0928 0.0000
# 3 15.9607 26.9996 69.0146 0.0000 24.3327 0.0000
# 4 0.0000 0.0000 0.0000 42.5428 0.0000 14.5447
# 5 22.6295 12.0928 24.3327 0.0000 40.9240 0.0000
# 6 0.0000 0.0000 0.0000 14.5447 0.0000 23.1378
#
#
#
# Elastic Compliance Matrix: (Units=1/GPa)
#
#
# Indices 1 2 3 4 5 6 
#
# 1 0.021815 -0.001795 -0.000350 0.000000 -0.011324 0.000000
# 2 -0.001795 0.007022 -0.002468 0.000000 0.000385 0.000000
# 3 -0.000350 -0.002468 0.019245 0.000000 -0.010520 0.000000
# 4 0.000000 0.000000 0.000000 0.029940 0.000000 -0.018821
# 5 -0.011324 0.000385 -0.010520 0.000000 0.036839 0.000000
# 6 0.000000 0.000000 0.000000 -0.018821 0.000000 0.055050
#
#
# Mechanical properties :
#
#
# Convention : Reuss Voigt Hill
#
# Bulk Modulus (GPa) = 25.73597 45.53036 35.63316
# Shear Modulus (GPa) = 26.02960 36.13328 31.08144
#
# Velocity S-wave (km/s) = 3.31949 3.91104 3.62734
# Velocity P-wave (km/s) = 5.05834 6.29835 5.71209
#
# Compressibility (1/GPa) = 0.03885612
#
# Stress axis : x y z
#
# Youngs Moduli (GPa) = 45.83964 142.41843 51.96129
#
# Poissons Ratio (x) = 0.25568 0.01819
# Poissons Ratio (y) = 0.08229 0.12822
# Poissons Ratio (z) = 0.01605 0.35142
#
# Static dielectric constant tensor:
#      x y z
#    x 1.857040 0.000000 -0.095640 
#    y 0.000000 1.880390 0.000000 
#    z -0.095640 0.000000 1.843280 
# 
# From -- ./inp_files/187956.got.cif
#   From: 2010.05.17/outbox.cif.g08.bks.cpg/sg15_94_cif.got.tgz:187956.got - 2010.06.03 18:47:42.
