data_PCOD9296678
_publ_section_title
;
Structure prediction by ZEFSAII (Michael W. Deem and Ramdas Pophale) SiO2 
 PCOD9296678
Probable space group: C 2/C
;
_chemical_formula_sum "Si O2"
_cell_formula_units_Z 44
_cell_length_a 11.624860
_cell_length_b 22.290049
_cell_length_c 9.422110
_cell_angle_alpha 90.000000
_cell_angle_beta 51.383232
_cell_angle_gamma 90.000000
_cell_volume 1907.593313
_symmetry_space_group_name_H-M "C 2/C"
_symmetry_group_IT_number 15
_symmetry_cell_setting 'monoclinic'
loop_
_space_group_symop_operation_xyz
x,y,z
-x,y,1/2-z
-x,-y,-z
x,-y,1/2+z
1/2+x,1/2+y,z
1/2-x,1/2+y,1/2-z
1/2-x,1/2-y,-z
1/2+x,1/2-y,1/2+z
loop_
_atom_site_type_symbol
_atom_site_label
_atom_site_fract_x
_atom_site_fract_y
_atom_site_fract_z
Si Si1 0.173288 0.108413 0.132498
Si Si2 0.680828 0.128351 0.990369
Si Si3 0.500000 0.332007 0.250000
Si Si4 0.207645 0.799927 0.856171
Si Si5 0.641685 0.816983 0.237153
Si Si6 0.603340 0.005098 0.555176
O O1 0.199360 0.144871 0.256272
O O2 0.000000 0.101708 0.250000
O O3 0.245575 0.146989 0.949105
O O4 0.254550 0.045012 0.077563
O O5 0.672871 0.179775 0.117650
O O6 0.644051 0.062239 0.070935
O O7 0.855946 0.130154 0.818783
O O8 0.596726 0.144238 0.910510
O O9 0.439989 0.296538 0.433107
O O10 0.216616 0.741024 0.753427
O O11 0.500000 0.800684 0.250000
O O12 0.500000 0.036414 0.750000
O O13 0.500000 0.000000 0.500000
#
# Coordination Sequence:
#
# PCOD9296678 Si02
#       6
#     8   8   4   8   8   8
#     4  12  26  44  74 108 145 193 243 305 370 431
#     4  10  23  46  72 102 146 190 247 293 352 436
#     4   8  22  42  72 102 138 180 260 284 352 426
#     4  10  23  45  72 105 146 193 242 297 360 437
#     4  12  25  46  73 110 151 187 238 308 372 433
#     4  12  26  48  72 106 149 191 242 303 371 442
#
# _framework density 23.065714
#
# number of rings (size 3 to 8) (size 9 to 14) (size 15 to 20)
#    1.091    0.000    0.000    6.545    1.273    1.455 
#    1.636    4.545    0.000    0.000    0.000    0.000 
#    0.000    0.000    0.000    0.000    0.000    0.000 
#
# Total GULP energy -122997.559150 kJ/mol
# GULP energy per Si atom -5590.798143 kJ/mol
# Density = 2.301322 g / cm^3
# Si number density = 23.065714 Si / 1000 Ang^3
#
#
#
# Elastic Constant Matrix: (Units=GPa)
#
#
# Indices 1 2 3 4 5 6 
#
# 1 128.1601 53.7115 75.5882 0.0000 3.3780 0.0000
# 2 53.7115 134.9988 49.4761 0.0000 -5.4390 0.0000
# 3 75.5882 49.4761 119.4503 0.0000 13.1997 0.0000
# 4 0.0000 0.0000 0.0000 31.4062 0.0000 3.4620
# 5 3.3780 -5.4390 13.1997 0.0000 39.3798 0.0000
# 6 0.0000 0.0000 0.0000 3.4620 0.0000 34.3742
#
#
#
# Elastic Compliance Matrix: (Units=1/GPa)
#
#
# Indices 1 2 3 4 5 6 
#
# 1 0.013206 -0.002487 -0.007439 0.000000 0.001017 0.000000
# 2 -0.002487 0.009447 -0.002604 0.000000 0.002391 0.000000
# 3 -0.007439 -0.002604 0.014670 0.000000 -0.004639 0.000000
# 4 0.000000 0.000000 0.000000 0.032198 0.000000 -0.003243
# 5 0.001017 0.002391 -0.004639 0.000000 0.027192 0.000000
# 6 0.000000 0.000000 0.000000 -0.003243 0.000000 0.029418
#
#
# Mechanical properties :
#
#
# Convention : Reuss Voigt Hill
#
# Bulk Modulus (GPa) = 81.53692 82.24009 81.88850
# Shear Modulus (GPa) = 32.20035 34.62093 33.41064
#
# Velocity S-wave (km/s) = 3.74040 3.87844 3.81004
# Velocity P-wave (km/s) = 7.35396 7.46917 7.41179
#
# Compressibility (1/GPa) = 0.01226438
#
# Stress axis : x y z
#
# Youngs Moduli (GPa) = 75.72589 105.84887 68.16616
#
# Poissons Ratio (x) = 0.26322 0.50708
# Poissons Ratio (y) = 0.18831 0.17748
# Poissons Ratio (z) = 0.56331 0.27560
#
# Static dielectric constant tensor:
#      x y z
#    x 1.833720 0.000000 0.009690 
#    y 0.000000 1.883010 0.000000 
#    z 0.009690 0.000000 1.872750 
# 
# From -- ./inp_files/32440.got.cif
#   From: 2010.05.17/outbox.cif.g08.bks.cpg/sg15_17_cif.got.tgz:32440.got - 2010.06.03 18:47:42.
