data_PCOD9296390
_publ_section_title
;
Structure prediction by ZEFSAII (Michael W. Deem and Ramdas Pophale) SiO2 
 PCOD9296390
Probable space group: C 2/C
;
_chemical_formula_sum "Si O2"
_cell_formula_units_Z 28
_cell_length_a 7.583549
_cell_length_b 31.314744
_cell_length_c 5.379109
_cell_angle_alpha 90.000000
_cell_angle_beta 114.406099
_cell_angle_gamma 90.000000
_cell_volume 1163.263975
_symmetry_space_group_name_H-M "C 2/C"
_symmetry_group_IT_number 15
_symmetry_cell_setting 'monoclinic'
loop_
_space_group_symop_operation_xyz
x,y,z
-x,y,1/2-z
-x,-y,-z
x,-y,1/2+z
1/2+x,1/2+y,z
1/2-x,1/2+y,1/2-z
1/2-x,1/2-y,-z
1/2+x,1/2-y,1/2+z
loop_
_atom_site_type_symbol
_atom_site_label
_atom_site_fract_x
_atom_site_fract_y
_atom_site_fract_z
Si Si1 0.712296 0.803345 0.259913
Si Si2 0.000000 0.259948 0.750000
Si Si3 0.374097 0.603680 0.927179
Si Si4 0.717270 0.983915 0.189103
O O1 0.500000 0.796341 0.250000
O O2 0.771719 0.850486 0.370112
O O3 0.894458 0.771231 0.388864
O O4 0.664555 0.792194 0.944119
O O5 0.500000 0.604299 0.750000
O O6 0.231884 0.563629 0.804641
O O7 0.500000 0.598295 0.250000
O O8 0.805206 0.012877 0.462364
O O9 0.500000 0.000000 0.000000
#
# Coordination Sequence:
#
# PCOD9296390 Si02
#       4
#     8   4   8   8
#     4  11  25  43  76 104 151 196 250 310 377 447
#     4  10  24  48  70 114 142 196 258 312 370 456
#     4  12  28  47  73 112 153 191 250 314 375 447
#     4  10  23  44  73 104 142 191 247 297 370 447
#
# _framework density 24.070202999999999
#
# number of rings (size 3 to 8) (size 9 to 14) (size 15 to 20)
#    0.000    1.143    1.429    2.571    8.000    6.857 
#    0.000    0.000    0.000    0.000    0.000    0.000 
#    0.000    0.000    0.000    0.000    0.000    0.000 
#
# Total GULP energy -78072.483263 kJ/mol
# GULP energy per Si atom -5576.605947 kJ/mol
# Density = 2.401542 g / cm^3
# Si number density = 24.070203 Si / 1000 Ang^3
#
#
#
# Elastic Constant Matrix: (Units=GPa)
#
#
# Indices 1 2 3 4 5 6 
#
# 1 150.4012 40.3060 43.7082 0.0000 4.5451 0.0000
# 2 40.3060 193.5763 109.5862 0.0000 24.3532 0.0000
# 3 43.7082 109.5862 190.1049 0.0000 0.8983 0.0000
# 4 0.0000 0.0000 0.0000 36.9532 0.0000 19.8097
# 5 4.5451 24.3532 0.8983 0.0000 33.2322 0.0000
# 6 0.0000 0.0000 0.0000 19.8097 0.0000 31.1601
#
#
#
# Elastic Compliance Matrix: (Units=1/GPa)
#
#
# Indices 1 2 3 4 5 6 
#
# 1 0.007219 -0.000764 -0.001217 0.000000 -0.000394 0.000000
# 2 -0.000764 0.008907 -0.004929 0.000000 -0.006289 0.000000
# 3 -0.001217 -0.004929 0.008364 0.000000 0.003552 0.000000
# 4 0.000000 0.000000 0.000000 0.041052 0.000000 -0.026098
# 5 -0.000394 -0.006289 0.003552 0.000000 0.034658 0.000000
# 6 0.000000 0.000000 0.000000 -0.026098 0.000000 0.048684
#
#
# Mechanical properties :
#
#
# Convention : Reuss Voigt Hill
#
# Bulk Modulus (GPa) = 93.72524 102.36479 98.04501
# Shear Modulus (GPa) = 30.07307 42.96790 36.52049
#
# Velocity S-wave (km/s) = 3.53851 4.22964 3.89941
# Velocity P-wave (km/s) = 7.46442 8.15310 7.81635
#
# Compressibility (1/GPa) = 0.01066948
#
# Stress axis : x y z
#
# Youngs Moduli (GPa) = 138.51499 112.27748 119.55296
#
# Poissons Ratio (x) = 0.08583 0.14553
# Poissons Ratio (y) = 0.10589 0.58924
# Poissons Ratio (z) = 0.16862 0.55338
#
# Static dielectric constant tensor:
#      x y z
#    x 2.244280 0.000000 -0.117990 
#    y 0.000000 1.892030 0.000000 
#    z -0.117990 0.000000 2.123870 
# 
# From -- ./inp_files/2766.got.cif
#   From: 2010.05.17/outbox.cif.g08.bks.cpg/sg15_2_cif.got.tgz:2766.got - 2010.06.03 18:47:42.
