data_PCOD9296326
_publ_section_title
;
Structure prediction by ZEFSAII (Michael W. Deem and Ramdas Pophale) SiO2 
 PCOD9296326
Probable space group: C 2/C
;
_chemical_formula_sum "Si O2"
_cell_formula_units_Z 40
_cell_length_a 16.142989
_cell_length_b 12.132616
_cell_length_c 8.615051
_cell_angle_alpha 90.000000
_cell_angle_beta 86.195058
_cell_angle_gamma 90.000000
_cell_volume 1683.596076
_symmetry_space_group_name_H-M "C 2/C"
_symmetry_group_IT_number 15
_symmetry_cell_setting 'monoclinic'
loop_
_space_group_symop_operation_xyz
x,y,z
-x,y,1/2-z
-x,-y,-z
x,-y,1/2+z
1/2+x,1/2+y,z
1/2-x,1/2+y,1/2-z
1/2-x,1/2-y,-z
1/2+x,1/2-y,1/2+z
loop_
_atom_site_type_symbol
_atom_site_label
_atom_site_fract_x
_atom_site_fract_y
_atom_site_fract_z
Si Si1 0.824532 0.886669 0.670554
Si Si2 0.395864 0.160059 0.602398
Si Si3 0.089902 0.040867 0.045194
Si Si4 0.452932 0.751683 0.598165
Si Si5 0.860272 0.553326 0.273367
O O1 0.830436 0.756026 0.648717
O O2 0.895853 0.926539 0.779814
O O3 0.737196 0.930571 0.742227
O O4 0.846073 0.945459 0.506884
O O5 0.481421 0.222149 0.546821
O O6 0.375449 0.094473 0.446506
O O7 0.393529 0.068741 0.736277
O O8 0.106171 0.153847 0.949015
O O9 0.000000 0.000000 0.000000
O O10 0.500000 0.714234 0.750000
O O11 0.408020 0.863056 0.654038
#
# Coordination Sequence:
#
# PCOD9296326 Si02
#       5
#     8   8   8   8   8
#     4  12  27  44  73 103 143 181 238 294 350 414
#     4  11  25  47  69 104 141 187 235 285 348 424
#     4  12  25  45  71 101 137 184 238 288 350 410
#     4  10  23  44  71  97 139 185 233 283 347 417
#     4  11  26  45  71 102 144 184 231 291 353 417
#
# _framework density 23.758668
#
# number of rings (size 3 to 8) (size 9 to 14) (size 15 to 20)
#    0.000    0.800    2.000    4.200    8.400    0.800 
#    0.000    0.000    0.000    0.000    0.000    0.000 
#    0.000    0.000    0.000    0.000    0.000    0.000 
#
# Total GULP energy -112011.803333 kJ/mol
# GULP energy per Si atom -5600.590167 kJ/mol
# Density = 2.370459 g / cm^3
# Si number density = 23.758668 Si / 1000 Ang^3
#
#
#
# Elastic Constant Matrix: (Units=GPa)
#
#
# Indices 1 2 3 4 5 6 
#
# 1 57.2492 -12.0499 7.3736 0.0000 -6.6904 0.0000
# 2 -12.0499 128.0659 32.1912 0.0000 6.1087 0.0000
# 3 7.3736 32.1912 82.4897 0.0000 4.0740 0.0000
# 4 0.0000 0.0000 0.0000 36.5756 0.0000 6.6994
# 5 -6.6904 6.1087 4.0740 0.0000 26.4589 0.0000
# 6 0.0000 0.0000 0.0000 6.6994 0.0000 2.1557
#
#
#
# Elastic Compliance Matrix: (Units=1/GPa)
#
#
# Indices 1 2 3 4 5 6 
#
# 1 0.018848 0.002253 -0.002795 0.000000 0.004676 0.000000
# 2 0.002253 0.008986 -0.003662 0.000000 -0.000941 0.000000
# 3 -0.002795 -0.003662 0.013900 0.000000 -0.002002 0.000000
# 4 0.000000 0.000000 0.000000 0.063469 0.000000 -0.197247
# 5 0.004676 -0.000941 -0.002002 0.000000 0.039502 0.000000
# 6 0.000000 0.000000 0.000000 -0.197247 0.000000 1.076876
#
#
# Mechanical properties :
#
#
# Convention : Reuss Voigt Hill
#
# Bulk Modulus (GPa) = 30.00563 35.87054 32.93809
# Shear Modulus (GPa) = 4.02869 29.05738 16.54303
#
# Velocity S-wave (km/s) = 1.30359 3.50097 2.64160
# Velocity P-wave (km/s) = 3.86297 5.61008 4.81641
#
# Compressibility (1/GPa) = 0.03332708
#
# Stress axis : x y z
#
# Youngs Moduli (GPa) = 53.05565 111.28751 71.94081
#
# Poissons Ratio (x) = -0.25072 0.20107
# Poissons Ratio (y) = -0.11953 0.26341
# Poissons Ratio (z) = 0.14829 0.40748
#
# Static dielectric constant tensor:
#      x y z
#    x 1.913120 0.000000 0.025960 
#    y 0.000000 1.868140 0.000000 
#    z 0.025960 0.000000 1.938330 
# 
# From -- ./inp_files/46089.got.cif
#   From: 2010.05.17/outbox.cif.g08.bks.cpg/sg15_24_cif.got.tgz:46089.got - 2010.06.03 18:47:42.
