data_PCOD9296831
_publ_section_title
;
Structure prediction by ZEFSAII (Michael W. Deem and Ramdas Pophale) SiO2 
 PCOD9296831
Probable space group: C 2/C
;
_chemical_formula_sum "Si O2"
_cell_formula_units_Z 40
_cell_length_a 15.086370
_cell_length_b 13.672421
_cell_length_c 12.648790
_cell_angle_alpha 90.000000
_cell_angle_beta 140.539322
_cell_angle_gamma 90.000000
_cell_volume 1658.165450
_symmetry_space_group_name_H-M "C 2/C"
_symmetry_group_IT_number 15
_symmetry_cell_setting 'monoclinic'
loop_
_space_group_symop_operation_xyz
x,y,z
-x,y,1/2-z
-x,-y,-z
x,-y,1/2+z
1/2+x,1/2+y,z
1/2-x,1/2+y,1/2-z
1/2-x,1/2-y,-z
1/2+x,1/2-y,1/2+z
loop_
_atom_site_type_symbol
_atom_site_label
_atom_site_fract_x
_atom_site_fract_y
_atom_site_fract_z
Si Si1 0.345760 0.616019 0.260688
Si Si2 0.500000 0.831723 0.750000
Si Si3 0.550829 0.733709 0.579592
Si Si4 0.742248 0.041157 0.378724
Si Si5 0.000000 0.976063 0.250000
Si Si6 0.828254 0.324103 0.248405
O O1 0.483427 0.643117 0.454965
O O2 0.241823 0.578739 0.256184
O O3 0.389913 0.537527 0.217619
O O4 0.312446 0.719796 0.173351
O O5 0.496965 0.763955 0.644131
O O6 0.369591 0.901810 0.653914
O O7 0.712799 0.702917 0.732312
O O8 0.482795 0.819276 0.441430
O O9 0.707703 0.925294 0.339935
O O10 0.892306 0.066693 0.566507
#
# Coordination Sequence:
#
# PCOD9296831 Si02
#       6
#     8   4   8   8   4   8
#     4  10  25  46  70  99 146 184 242 288 357 420
#     4  12  26  44  74 114 136 192 234 298 372 404
#     4  10  23  46  69 101 145 184 234 289 357 424
#     4  12  26  45  72 111 141 186 243 297 352 426
#     4  12  26  42  74 102 136 200 240 280 360 438
#     4  10  23  46  69  95 148 181 226 301 346 414
#
# _framework density 24.123044
#
# number of rings (size 3 to 8) (size 9 to 14) (size 15 to 20)
#    1.200    0.000    4.000    0.600    2.800    8.000 
#    0.000    0.000    0.000    0.000    0.000    0.000 
#    0.000    0.000    0.000    0.000    0.000    0.000 
#
# Total GULP energy -111344.910625 kJ/mol
# GULP energy per Si atom -5567.245531 kJ/mol
# Density = 2.406814 g / cm^3
# Si number density = 24.123044 Si / 1000 Ang^3
#
#
#
# Elastic Constant Matrix: (Units=GPa)
#
#
# Indices 1 2 3 4 5 6 
#
# 1 70.0466 31.8543 23.0059 0.0000 -1.7276 0.0000
# 2 31.8543 111.4837 39.5939 0.0000 12.1283 0.0000
# 3 23.0059 39.5939 99.7590 0.0000 6.9458 0.0000
# 4 0.0000 0.0000 0.0000 30.3286 0.0000 -20.6576
# 5 -1.7276 12.1283 6.9458 0.0000 26.1160 0.0000
# 6 0.0000 0.0000 0.0000 -20.6576 0.0000 74.5610
#
#
#
# Elastic Compliance Matrix: (Units=1/GPa)
#
#
# Indices 1 2 3 4 5 6 
#
# 1 0.017211 -0.004462 -0.002467 0.000000 0.003867 0.000000
# 2 -0.004462 0.011986 -0.003383 0.000000 -0.004962 0.000000
# 3 -0.002467 -0.003383 0.012061 0.000000 -0.001800 0.000000
# 4 0.000000 0.000000 0.000000 0.040642 0.000000 0.011260
# 5 0.003867 -0.004962 -0.001800 0.000000 0.041330 0.000000
# 6 0.000000 0.000000 0.000000 0.011260 0.000000 0.016532
#
#
# Mechanical properties :
#
#
# Convention : Reuss Voigt Hill
#
# Bulk Modulus (GPa) = 48.46405 52.24417 50.35411
# Shear Modulus (GPa) = 29.89295 38.65680 34.27487
#
# Velocity S-wave (km/s) = 3.52403 4.00745 3.77349
# Velocity P-wave (km/s) = 6.05742 6.56637 6.31702
#
# Compressibility (1/GPa) = 0.02063385
#
# Stress axis : x y z
#
# Youngs Moduli (GPa) = 58.10183 83.43015 82.91131
#
# Poissons Ratio (x) = 0.37228 0.20457
# Poissons Ratio (y) = 0.25926 0.28046
# Poissons Ratio (z) = 0.14336 0.28222
#
# Static dielectric constant tensor:
#      x y z
#    x 1.957700 0.000000 0.042110 
#    y 0.000000 1.996140 0.000000 
#    z 0.042110 0.000000 1.913100 
# 
# From -- ./inp_files/95855.got.cif
#   From: 2010.05.17/outbox.cif.g08.bks.cpg/sg15_48_cif.got.tgz:95855.got - 2010.06.03 18:47:42.
