data_PCOD9296929
_publ_section_title
;
Structure prediction by ZEFSAII (Michael W. Deem and Ramdas Pophale) SiO2 
 PCOD9296929
Probable space group: C 2/C
;
_chemical_formula_sum "Si O2"
_cell_formula_units_Z 48
_cell_length_a 16.529367
_cell_length_b 18.797582
_cell_length_c 15.123029
_cell_angle_alpha 90.000000
_cell_angle_beta 153.879680
_cell_angle_gamma 90.000000
_cell_volume 2068.730346
_symmetry_space_group_name_H-M "C 2/C"
_symmetry_group_IT_number 15
_symmetry_cell_setting 'monoclinic'
loop_
_space_group_symop_operation_xyz
x,y,z
-x,y,1/2-z
-x,-y,-z
x,-y,1/2+z
1/2+x,1/2+y,z
1/2-x,1/2+y,1/2-z
1/2-x,1/2-y,-z
1/2+x,1/2-y,1/2+z
loop_
_atom_site_type_symbol
_atom_site_label
_atom_site_fract_x
_atom_site_fract_y
_atom_site_fract_z
Si Si1 0.048685 0.836698 0.553058
Si Si2 0.160166 0.584815 0.265254
Si Si3 0.500000 0.743562 0.250000
Si Si4 0.149361 0.328176 0.112114
Si Si5 0.500000 0.023232 0.750000
Si Si6 0.786832 0.831381 0.051317
Si Si7 0.710603 0.850707 0.536657
O O1 0.138438 0.899146 0.579706
O O2 0.089559 0.755528 0.557021
O O3 0.160976 0.845427 0.753179
O O4 0.828886 0.841172 0.347961
O O5 0.090644 0.515933 0.252118
O O6 0.168092 0.635359 0.357820
O O7 0.021612 0.616907 0.054611
O O8 0.532288 0.798310 0.363881
O O9 0.668444 0.689406 0.417702
O O10 0.228260 0.346900 0.092623
O O11 0.347988 0.073169 0.554953
O O12 0.000000 0.849832 0.250000
O O13 0.750000 0.750000 0.000000
#
# Coordination Sequence:
#
# PCOD9296929 Si02
#       7
#     8   8   4   8   4   8   8
#     4  12  23  38  66 103 136 165 222 288 335 370
#     4  12  24  39  64  92 141 186 214 265 323 402
#     4   9  20  46  80  98 117 166 228 284 327 380
#     4  12  21  36  61 104 133 173 217 277 335 376
#     4  11  26  48  66  88 137 190 222 248 331 412
#     4  12  19  33  57  90 134 178 226 263 312 385
#     4  10  23  46  73 101 126 165 222 282 333 391
#
# _framework density 23.202636999999999
#
# number of rings (size 3 to 8) (size 9 to 14) (size 15 to 20)
#    0.000    0.667    6.667    2.000    0.000    0.667 
#    7.500    0.833    0.000    0.000    0.000    0.000 
#    0.000    0.000    0.000    0.000    0.000    0.000 
#
# Total GULP energy -133718.252240 kJ/mol
# GULP energy per Si atom -5571.593843 kJ/mol
# Density = 2.314983 g / cm^3
# Si number density = 23.202637 Si / 1000 Ang^3
#
#
#
# Elastic Constant Matrix: (Units=GPa)
#
#
# Indices 1 2 3 4 5 6 
#
# 1 31.0506 10.7151 16.4542 0.0000 0.2499 0.0000
# 2 10.7151 99.9202 38.5923 0.0000 1.6688 0.0000
# 3 16.4542 38.5923 162.9512 0.0000 -8.3779 0.0000
# 4 0.0000 0.0000 0.0000 33.0724 0.0000 3.6740
# 5 0.2499 1.6688 -8.3779 0.0000 46.9055 0.0000
# 6 0.0000 0.0000 0.0000 3.6740 0.0000 10.3981
#
#
#
# Elastic Compliance Matrix: (Units=1/GPa)
#
#
# Indices 1 2 3 4 5 6 
#
# 1 0.034647 -0.002578 -0.002920 0.000000 -0.000614 0.000000
# 2 -0.002578 0.011242 -0.002445 0.000000 -0.000823 0.000000
# 3 -0.002920 -0.002445 0.007081 0.000000 0.001367 0.000000
# 4 0.000000 0.000000 0.000000 0.031472 0.000000 -0.011120
# 5 -0.000614 -0.000823 0.001367 0.000000 0.021596 0.000000
# 6 0.000000 0.000000 0.000000 -0.011120 0.000000 0.100101
#
#
# Mechanical properties :
#
#
# Convention : Reuss Voigt Hill
#
# Bulk Modulus (GPa) = 26.96382 47.27170 37.11776
# Shear Modulus (GPa) = 21.33241 33.28588 27.30915
#
# Velocity S-wave (km/s) = 3.03544 3.79168 3.43444
# Velocity P-wave (km/s) = 4.89198 6.29181 5.63552
#
# Compressibility (1/GPa) = 0.03708673
#
# Stress axis : x y z
#
# Youngs Moduli (GPa) = 28.86242 88.94962 141.22528
#
# Poissons Ratio (x) = 0.22927 0.41233
# Poissons Ratio (y) = 0.07439 0.34524
# Poissons Ratio (z) = 0.08427 0.21745
#
# Static dielectric constant tensor:
#      x y z
#    x 2.146600 0.000000 0.085840 
#    y 0.000000 1.816480 0.000000 
#    z 0.085840 0.000000 2.346980 
# 
# From -- ./inp_files/216314.got.cif
#   From: 2010.05.17/outbox.cif.g08.bks.cpg/sg15_109_cif.got.tgz:216314.got - 2010.06.03 18:47:42.
