data_PCOD9296817
_publ_section_title
;
Structure prediction by ZEFSAII (Michael W. Deem and Ramdas Pophale) SiO2 
 PCOD9296817
Probable space group: C 2/C
;
_chemical_formula_sum "Si O2"
_cell_formula_units_Z 60
_cell_length_a 9.149765
_cell_length_b 21.360527
_cell_length_c 18.331666
_cell_angle_alpha 90.000000
_cell_angle_beta 129.716774
_cell_angle_gamma 90.000000
_cell_volume 2755.942682
_symmetry_space_group_name_H-M "C 2/C"
_symmetry_group_IT_number 15
_symmetry_cell_setting 'monoclinic'
loop_
_space_group_symop_operation_xyz
x,y,z
-x,y,1/2-z
-x,-y,-z
x,-y,1/2+z
1/2+x,1/2+y,z
1/2-x,1/2+y,1/2-z
1/2-x,1/2-y,-z
1/2+x,1/2-y,1/2+z
loop_
_atom_site_type_symbol
_atom_site_label
_atom_site_fract_x
_atom_site_fract_y
_atom_site_fract_z
Si Si1 0.757346 0.514119 0.002940
Si Si2 0.309778 0.978311 0.347517
Si Si3 0.303333 0.126235 0.730440
Si Si4 0.708579 0.685497 0.321427
Si Si5 0.433016 0.260170 0.507706
Si Si6 0.000000 0.067562 0.250000
Si Si7 0.796032 0.248860 0.720141
Si Si8 0.043322 0.906941 0.019035
O O1 0.748167 0.526222 0.912916
O O2 0.661316 0.567444 0.021972
O O3 0.642738 0.451482 0.990871
O O4 0.980409 0.506880 0.089897
O O5 0.149675 0.021964 0.259176
O O6 0.320795 0.912631 0.310237
O O7 0.500000 0.132792 0.750000
O O8 0.221368 0.193277 0.726470
O O9 0.167845 0.089179 0.632336
O O10 0.500000 0.718968 0.250000
O O11 0.872448 0.718111 0.419619
O O12 0.644815 0.618111 0.332616
O O13 0.769669 0.686612 0.256708
O O14 0.250000 0.250000 0.500000
O O15 0.625353 0.240021 0.608867
O O16 0.452880 0.333982 0.499518
O O17 0.000000 0.246300 0.750000
#
# Coordination Sequence:
#
# PCOD9296817 Si02
#       8
#     8   8   8   8   8   4   8   8
#     4  10  25  43  68 109 139 183 243 305 360 440
#     4  11  24  43  72 104 140 190 237 301 369 424
#     4  12  24  47  71 102 143 195 240 297 365 449
#     4  10  23  46  68 101 143 190 239 288 358 447
#     4  12  24  44  79 102 140 203 238 296 369 439
#     4  10  24  42  68 100 144 180 232 298 354 436
#     4  12  28  45  71 112 145 184 251 312 362 430
#     4  11  24  45  73 103 147 185 247 298 369 439
#
# _framework density 21.771135000000001
#
# number of rings (size 3 to 8) (size 9 to 14) (size 15 to 20)
#    0.400    0.533    4.000    2.000    6.533    2.667 
#    0.000    0.667    0.000    0.000    0.000    0.000 
#    0.000    0.000    0.000    0.000    0.000    0.000 
#
# Total GULP energy -167440.166811 kJ/mol
# GULP energy per Si atom -5581.338894 kJ/mol
# Density = 2.172158 g / cm^3
# Si number density = 21.771135 Si / 1000 Ang^3
#
#
#
# Elastic Constant Matrix: (Units=GPa)
#
#
# Indices 1 2 3 4 5 6 
#
# 1 159.5666 47.9210 44.6891 0.0000 16.1912 0.0000
# 2 47.9210 87.2059 -1.4554 0.0000 -1.5247 0.0000
# 3 44.6891 -1.4554 85.0482 0.0000 6.3544 0.0000
# 4 0.0000 0.0000 0.0000 24.7191 0.0000 5.2462
# 5 16.1912 -1.5247 6.3544 0.0000 29.2469 0.0000
# 6 0.0000 0.0000 0.0000 5.2462 0.0000 0.9375
#
#
#
# Elastic Compliance Matrix: (Units=1/GPa)
#
#
# Indices 1 2 3 4 5 6 
#
# 1 0.009764 -0.005528 -0.004879 0.000000 -0.004633 0.000000
# 2 -0.005528 0.014609 0.002916 0.000000 0.003188 0.000000
# 3 -0.004879 0.002916 0.014392 0.000000 -0.000274 0.000000
# 4 0.000000 0.000000 0.000000 -0.215635 0.000000 1.206639
# 5 -0.004633 0.003188 -0.000274 0.000000 0.036982 0.000000
# 6 0.000000 0.000000 0.000000 1.206639 0.000000 -5.685413
#
#
# Mechanical properties :
#
#
# Convention : Reuss Voigt Hill
#
# Bulk Modulus (GPa) = 42.04420 57.12556 49.58488
# Shear Modulus (GPa) = -0.86171 27.02510 13.08169
#
# Velocity S-wave (km/s) = -0.62981 3.52707 2.45393
# Velocity P-wave (km/s) = 4.33877 6.54852 5.55464
#
# Compressibility (1/GPa) = 0.02378450
#
# Stress axis : x y z
#
# Youngs Moduli (GPa) = 102.42181 68.45068 69.48321
#
# Poissons Ratio (x) = 0.37837 0.33899
# Poissons Ratio (y) = 0.56615 -0.20264
# Poissons Ratio (z) = 0.49969 -0.19963
#
# Static dielectric constant tensor:
#      x y z
#    x 1.820880 0.000000 -0.056050 
#    y 0.000000 1.821720 0.000000 
#    z -0.056050 0.000000 1.870870 
# 
# From -- ./inp_files/234104.got.cif
#   From: 2010.05.17/outbox.cif.g08.bks.cpg/sg15_118_cif.got.tgz:234104.got - 2010.06.03 18:47:42.
