data_PCOD9296694
_publ_section_title
;
Structure prediction by ZEFSAII (Michael W. Deem and Ramdas Pophale) SiO2 
 PCOD9296694
Probable space group: C 2/C
;
_chemical_formula_sum "Si O2"
_cell_formula_units_Z 44
_cell_length_a 18.259204
_cell_length_b 7.857518
_cell_length_c 19.195314
_cell_angle_alpha 90.000000
_cell_angle_beta 135.567197
_cell_angle_gamma 90.000000
_cell_volume 1927.992434
_symmetry_space_group_name_H-M "C 2/C"
_symmetry_group_IT_number 15
_symmetry_cell_setting 'monoclinic'
loop_
_space_group_symop_operation_xyz
x,y,z
-x,y,1/2-z
-x,-y,-z
x,-y,1/2+z
1/2+x,1/2+y,z
1/2-x,1/2+y,1/2-z
1/2-x,1/2-y,-z
1/2+x,1/2-y,1/2+z
loop_
_atom_site_type_symbol
_atom_site_label
_atom_site_fract_x
_atom_site_fract_y
_atom_site_fract_z
Si Si1 0.223670 0.323714 0.299820
Si Si2 0.949257 0.842447 0.385734
Si Si3 0.981291 0.228892 0.419768
Si Si4 0.101104 0.626319 0.283455
Si Si5 0.197819 0.623176 0.020622
Si Si6 0.750000 0.750000 0.000000
O O1 0.331644 0.364072 0.334853
O O2 0.130726 0.283613 0.183977
O O3 0.185368 0.487442 0.316520
O O4 0.245865 0.168747 0.367794
O O5 0.940498 0.731949 0.311048
O O6 0.011912 0.756157 0.491962
O O7 0.997520 0.030074 0.410650
O O8 0.076404 0.331150 0.450741
O O9 0.158804 0.747431 0.376900
O O10 0.000000 0.541521 0.250000
O O11 0.250000 0.750000 0.000000
O O12 0.209098 0.434609 0.000714
#
# Coordination Sequence:
#
# PCOD9296694 Si02
#       6
#     8   8   8   8   8   4
#     4  11  23  45  73 105 147 197 252 309 377 447
#     4  10  24  45  72 106 143 203 250 304 381 451
#     4  10  23  45  73 100 148 193 253 309 369 446
#     4  12  27  42  70 108 144 191 248 305 375 441
#     4  11  24  44  72 108 145 198 242 309 370 446
#     4  12  26  46  68 106 154 184 246 304 372 440
#
# _framework density 22.821667000000001
#
# number of rings (size 3 to 8) (size 9 to 14) (size 15 to 20)
#    0.000    1.091    1.818    3.273    2.545    5.091 
#    0.000    0.000    0.000    0.000    0.000    0.000 
#    0.000    0.000    0.000    0.000    0.000    0.000 
#
# Total GULP energy -122750.355896 kJ/mol
# GULP energy per Si atom -5579.561632 kJ/mol
# Density = 2.276972 g / cm^3
# Si number density = 22.821667 Si / 1000 Ang^3
#
#
#
# Elastic Constant Matrix: (Units=GPa)
#
#
# Indices 1 2 3 4 5 6 
#
# 1 89.2325 57.0392 47.3355 0.0000 6.2253 0.0000
# 2 57.0392 114.4829 33.7282 0.0000 -1.3357 0.0000
# 3 47.3355 33.7282 182.4351 0.0000 11.2657 0.0000
# 4 0.0000 0.0000 0.0000 -173.2076 0.0000 168.7230
# 5 6.2253 -1.3357 11.2657 0.0000 21.5473 0.0000
# 6 0.0000 0.0000 0.0000 168.7230 0.0000 -96.2738
#
#
#
# Elastic Compliance Matrix: (Units=1/GPa)
#
#
# Indices 1 2 3 4 5 6 
#
# 1 0.018421 -0.008353 -0.002971 0.000000 -0.004287 0.000000
# 2 -0.008353 0.013074 -0.000464 0.000000 0.003466 0.000000
# 3 -0.002971 -0.000464 0.006496 0.000000 -0.002567 0.000000
# 4 0.000000 0.000000 0.000000 0.008164 0.000000 0.014308
# 5 -0.004287 0.003466 -0.002567 0.000000 0.049205 0.000000
# 6 0.000000 0.000000 0.000000 0.014308 0.000000 0.014688
#
#
# Mechanical properties :
#
#
# Convention : Reuss Voigt Hill
#
# Bulk Modulus (GPa) = 69.36461 73.59516 71.47988
# Shear Modulus (GPa) = 36.11980 -33.05033 1.53474
#
# Velocity S-wave (km/s) = 3.98263 -3.80965 0.82095
# Velocity P-wave (km/s) = 7.18391 3.60093 5.68222
#
# Compressibility (1/GPa) = 0.01441657
#
# Stress axis : x y z
#
# Youngs Moduli (GPa) = 54.28658 76.49007 153.93027
#
# Poissons Ratio (x) = 0.63890 0.45727
# Poissons Ratio (y) = 0.45344 0.07140
# Poissons Ratio (z) = 0.16126 0.03548
#
# Static dielectric constant tensor:
#      x y z
#    x 1.833630 0.000000 -0.033480 
#    y 0.000000 1.818570 0.000000 
#    z -0.033480 0.000000 1.849030 
# 
# From -- ./inp_files/209753.got.cif
#   From: 2010.05.17/outbox.cif.g08.bks.cpg/sg15_105_cif.got.tgz:209753.got - 2010.06.03 18:47:42.
