data_PCOD9296343
_publ_section_title
;
Structure prediction by ZEFSAII (Michael W. Deem and Ramdas Pophale) SiO2 
 PCOD9296343
Probable space group: C 2/C
;
_chemical_formula_sum "Si O2"
_cell_formula_units_Z 64
_cell_length_a 10.877683
_cell_length_b 28.390995
_cell_length_c 15.060996
_cell_angle_alpha 90.000000
_cell_angle_beta 38.850809
_cell_angle_gamma 90.000000
_cell_volume 2917.711196
_symmetry_space_group_name_H-M "C 2/C"
_symmetry_group_IT_number 15
_symmetry_cell_setting 'monoclinic'
loop_
_space_group_symop_operation_xyz
x,y,z
-x,y,1/2-z
-x,-y,-z
x,-y,1/2+z
1/2+x,1/2+y,z
1/2-x,1/2+y,1/2-z
1/2-x,1/2-y,-z
1/2+x,1/2-y,1/2+z
loop_
_atom_site_type_symbol
_atom_site_label
_atom_site_fract_x
_atom_site_fract_y
_atom_site_fract_z
Si Si1 0.759138 0.169099 0.841340
Si Si2 0.177117 0.772276 0.712568
Si Si3 0.171806 0.140216 0.521278
Si Si4 0.393699 0.268224 0.546705
Si Si5 0.217727 0.881656 0.655956
Si Si6 0.361541 0.567617 0.119828
Si Si7 0.779041 0.536817 0.835524
Si Si8 0.967023 0.618935 0.663587
O O1 0.699056 0.137789 0.961374
O O2 0.612459 0.164512 0.841513
O O3 0.961548 0.151806 0.684829
O O4 0.742515 0.222186 0.885895
O O5 0.381750 0.743874 0.606121
O O6 0.230811 0.824907 0.650441
O O7 0.000000 0.753598 0.750000
O O8 0.091311 0.779395 0.858242
O O9 0.204108 0.187563 0.446572
O O10 0.172636 0.096927 0.452563
O O11 0.232834 0.904008 0.745409
O O12 0.357042 0.897675 0.497708
O O13 0.000000 0.894270 0.750000
O O14 0.272728 0.515444 0.164345
O O15 0.596306 0.557336 0.994993
O O16 0.806152 0.577434 0.746930
O O17 0.000000 0.534783 0.750000
O O18 0.000000 0.627942 0.750000
#
# Coordination Sequence:
#
# PCOD9296343 Si02
#       8
#     8   8   8   8   8   8   8   8
#     4  11  24  41  67 102 132 185 230 267 335 404
#     4  11  24  38  61  97 137 176 228 275 331 392
#     4  11  24  43  68  95 140 182 225 279 331 403
#     4  12  22  44  62  97 138 179 229 279 327 391
#     4  11  23  40  65 100 133 176 223 274 341 405
#     4  11  23  45  71  99 138 174 227 286 349 415
#     4  10  23  44  72 102 132 175 222 285 359 415
#     4  11  23  43  71  99 137 173 222 281 342 402
#
# _framework density 21.935002000000001
#
# number of rings (size 3 to 8) (size 9 to 14) (size 15 to 20)
#    0.000    1.000    5.000    2.250    0.000    2.000 
#    0.000    5.625    0.000    0.000    0.000    0.000 
#    0.000    0.000    0.000    0.000    0.000    0.000 
#
# Total GULP energy -178417.219116 kJ/mol
# GULP energy per Si atom -5575.538097 kJ/mol
# Density = 2.188508 g / cm^3
# Si number density = 21.935002 Si / 1000 Ang^3
#
#
#
# Elastic Constant Matrix: (Units=GPa)
#
#
# Indices 1 2 3 4 5 6 
#
# 1 71.7763 13.7813 27.1493 0.0000 25.4702 0.0000
# 2 13.7813 88.7551 17.5046 0.0000 5.8920 0.0000
# 3 27.1493 17.5046 117.7143 0.0000 9.1359 0.0000
# 4 0.0000 0.0000 0.0000 25.0311 0.0000 -4.6835
# 5 25.4702 5.8920 9.1359 0.0000 42.3652 0.0000
# 6 0.0000 0.0000 0.0000 -4.6835 0.0000 17.6505
#
#
#
# Elastic Compliance Matrix: (Units=1/GPa)
#
#
# Indices 1 2 3 4 5 6 
#
# 1 0.019303 -0.001623 -0.003384 0.000000 -0.010649 0.000000
# 2 -0.001623 0.011811 -0.001353 0.000000 -0.000375 0.000000
# 3 -0.003384 -0.001353 0.009463 0.000000 0.000182 0.000000
# 4 0.000000 0.000000 0.000000 0.042037 0.000000 0.011154
# 5 -0.010649 -0.000375 0.000182 0.000000 0.030020 0.000000
# 6 0.000000 0.000000 0.000000 0.011154 0.000000 0.059615
#
#
# Mechanical properties :
#
#
# Convention : Reuss Voigt Hill
#
# Bulk Modulus (GPa) = 35.89824 43.90179 39.90001
# Shear Modulus (GPa) = 25.73952 31.66340 28.70146
#
# Velocity S-wave (km/s) = 3.42927 3.80348 3.62121
# Velocity P-wave (km/s) = 5.66402 6.27268 5.97611
#
# Compressibility (1/GPa) = 0.02785652
#
# Stress axis : x y z
#
# Youngs Moduli (GPa) = 51.80587 84.66922 105.67814
#
# Poissons Ratio (x) = 0.13740 0.35763
# Poissons Ratio (y) = 0.08407 0.14297
# Poissons Ratio (z) = 0.17532 0.11455
#
# Static dielectric constant tensor:
#      x y z
#    x 1.959200 0.000000 -0.048080 
#    y 0.000000 1.810410 0.000000 
#    z -0.048080 0.000000 1.835100 
# 
# From -- ./inp_files/149170.got.cif
#   From: 2010.05.17/outbox.cif.g08.bks.cpg/sg15_75_cif.got.tgz:149170.got - 2010.06.03 18:47:42.
