data_PCOD9296568
_publ_section_title
;
Structure prediction by ZEFSAII (Michael W. Deem and Ramdas Pophale) SiO2 
 PCOD9296568
Probable space group: C 2/C
;
_chemical_formula_sum "Si O2"
_cell_formula_units_Z 48
_cell_length_a 9.034290
_cell_length_b 18.943296
_cell_length_c 20.872305
_cell_angle_alpha 90.000000
_cell_angle_beta 145.736672
_cell_angle_gamma 90.000000
_cell_volume 2011.065490
_symmetry_space_group_name_H-M "C 2/C"
_symmetry_group_IT_number 15
_symmetry_cell_setting 'monoclinic'
loop_
_space_group_symop_operation_xyz
x,y,z
-x,y,1/2-z
-x,-y,-z
x,-y,1/2+z
1/2+x,1/2+y,z
1/2-x,1/2+y,1/2-z
1/2-x,1/2-y,-z
1/2+x,1/2-y,1/2+z
loop_
_atom_site_type_symbol
_atom_site_label
_atom_site_fract_x
_atom_site_fract_y
_atom_site_fract_z
Si Si1 0.266898 0.647515 0.567041
Si Si2 0.042772 0.998275 0.838755
Si Si3 0.477053 0.988070 0.675934
Si Si4 0.848781 0.148025 0.385775
Si Si5 0.389986 0.899641 0.032795
Si Si6 0.993933 0.288147 0.645249
O O1 0.383190 0.569361 0.597218
O O2 0.046906 0.670728 0.435890
O O3 0.502397 0.703944 0.643645
O O4 0.136009 0.641106 0.591089
O O5 0.000000 0.016159 0.750000
O O6 0.775220 0.963454 0.768379
O O7 0.272732 0.942369 0.930161
O O8 0.500000 0.031606 0.750000
O O9 0.276848 0.924373 0.624793
O O10 0.425318 0.039603 0.598777
O O11 0.788226 0.202717 0.420314
O O12 0.694905 0.178549 0.268166
O O13 0.151004 0.144379 0.475987
#
# Coordination Sequence:
#
# PCOD9296568 Si02
#       6
#     8   8   8   8   8   8
#     4  11  26  43  67  99 136 177 233 281 349 404
#     4  12  25  39  66  98 138 174 220 292 352 408
#     4  12  24  42  63 103 133 182 224 285 351 410
#     4  11  23  42  72  92 135 178 228 273 346 412
#     4  12  26  41  68 103 137 173 233 289 349 413
#     4  10  23  45  68  92 130 187 226 277 336 422
#
# _framework density 23.867946
#
# number of rings (size 3 to 8) (size 9 to 14) (size 15 to 20)
#    0.000    0.667    5.000    2.000    9.333    0.667 
#    0.000    0.000    0.000    0.000    0.000    0.000 
#    0.000    0.000    0.000    0.000    0.000    0.000 
#
# Total GULP energy -133818.363489 kJ/mol
# GULP energy per Si atom -5575.765145 kJ/mol
# Density = 2.381362 g / cm^3
# Si number density = 23.867946 Si / 1000 Ang^3
#
#
#
# Elastic Constant Matrix: (Units=GPa)
#
#
# Indices 1 2 3 4 5 6 
#
# 1 84.2636 13.1530 19.4174 -0.0003 -8.8532 0.0009
# 2 13.1530 86.8521 4.6469 0.0001 -11.0301 0.0007
# 3 19.4174 4.6469 51.0265 0.0009 -25.0598 -0.0007
# 4 -0.0003 0.0001 0.0009 29.7939 -0.0010 -4.4950
# 5 -8.8532 -11.0301 -25.0598 -0.0010 43.9961 -0.0008
# 6 0.0009 0.0007 -0.0007 -4.4950 -0.0008 24.6493
#
#
#
# Elastic Compliance Matrix: (Units=1/GPa)
#
#
# Indices 1 2 3 4 5 6 
#
# 1 0.013286 -0.001830 -0.005278 0.000000 -0.000792 -0.000001
# 2 -0.001830 0.012155 0.001257 0.000000 0.003395 0.000000
# 3 -0.005278 0.001257 0.029329 0.000000 0.015959 0.000002
# 4 0.000000 0.000000 0.000000 0.034514 0.000001 0.006294
# 5 -0.000792 0.003395 0.015959 0.000001 0.032511 0.000002
# 6 -0.000001 0.000000 0.000002 0.006294 0.000002 0.041717
#
#
# Mechanical properties :
#
#
# Convention : Reuss Voigt Hill
#
# Bulk Modulus (GPa) = 23.21935 32.95297 28.08616
# Shear Modulus (GPa) = 26.37543 32.01618 29.19580
#
# Velocity S-wave (km/s) = 3.32785 3.66647 3.50125
# Velocity P-wave (km/s) = 4.95131 5.63563 5.30452
#
# Compressibility (1/GPa) = 0.04306752
#
# Stress axis : x y z
#
# Youngs Moduli (GPa) = 75.26563 82.27136 34.09577
#
# Poissons Ratio (x) = 0.15058 0.17996
# Poissons Ratio (y) = 0.13775 -0.04285
# Poissons Ratio (z) = 0.39725 -0.10340
#
# Static dielectric constant tensor:
#      x y z
#    x 1.902040 0.000000 0.002590 
#    y 0.000000 1.981940 0.000000 
#    z 0.002590 0.000000 1.997260 
# 
# From -- ./inp_files/233978.got.cif
#   From: 2010.05.17/outbox.cif.g08.bks.cpg/sg15_117_cif.got.tgz:233978.got - 2010.06.03 18:47:42.
