data_PCOD9296518
_publ_section_title
;
Structure prediction by ZEFSAII (Michael W. Deem and Ramdas Pophale) SiO2 
 PCOD9296518
Probable space group: C 2/C
;
_chemical_formula_sum "Si O2"
_cell_formula_units_Z 40
_cell_length_a 16.474762
_cell_length_b 10.514691
_cell_length_c 13.153469
_cell_angle_alpha 90.000000
_cell_angle_beta 52.396261
_cell_angle_gamma 90.000000
_cell_volume 1805.170057
_symmetry_space_group_name_H-M "C 2/C"
_symmetry_group_IT_number 15
_symmetry_cell_setting 'monoclinic'
loop_
_space_group_symop_operation_xyz
x,y,z
-x,y,1/2-z
-x,-y,-z
x,-y,1/2+z
1/2+x,1/2+y,z
1/2-x,1/2+y,1/2-z
1/2-x,1/2-y,-z
1/2+x,1/2-y,1/2+z
loop_
_atom_site_type_symbol
_atom_site_label
_atom_site_fract_x
_atom_site_fract_y
_atom_site_fract_z
Si Si1 0.660948 0.714303 0.343324
Si Si2 0.688117 0.557035 0.502898
Si Si3 0.548804 0.328750 0.606628
Si Si4 0.735793 0.029918 0.838982
Si Si5 0.605013 0.053694 0.609827
O O1 0.664300 0.684445 0.461102
O O2 0.544875 0.714218 0.392376
O O3 0.717093 0.847645 0.284377
O O4 0.720221 0.596666 0.245776
O O5 0.613118 0.447505 0.519280
O O6 0.687319 0.564076 0.626026
O O7 0.803721 0.509064 0.396233
O O8 0.500000 0.371724 0.750000
O O9 0.615644 0.205422 0.585268
O O10 0.627971 0.002006 0.979968
O O11 0.500000 0.032566 0.750000
#
# Coordination Sequence:
#
# PCOD9296518 Si02
#       5
#     8   8   8   8   8
#     4  12  25  43  73  99 141 179 233 276 359 395
#     4  10  23  45  66  99 137 182 224 290 335 407
#     4  11  21  41  68 103 136 181 225 285 336 421
#     4  10  26  44  70 103 136 184 228 288 332 419
#     4   9  22  42  70  94 144 176 228 278 339 400
#
# _framework density 22.158577000000001
#
# number of rings (size 3 to 8) (size 9 to 14) (size 15 to 20)
#    1.200    0.400    2.000    1.800    8.400    0.800 
#    0.000    1.000    0.000    0.000    0.000    0.000 
#    0.000    0.000    0.000    0.000    0.000    0.000 
#
# Total GULP energy -111572.163828 kJ/mol
# GULP energy per Si atom -5578.608191 kJ/mol
# Density = 2.210814 g / cm^3
# Si number density = 22.158577 Si / 1000 Ang^3
#
#
#
# Elastic Constant Matrix: (Units=GPa)
#
#
# Indices 1 2 3 4 5 6 
#
# 1 58.2239 -0.8964 -4.2691 0.0000 -10.4067 0.0000
# 2 -0.8964 52.2532 10.4127 0.0000 -13.9351 0.0000
# 3 -4.2691 10.4127 29.9720 0.0000 9.0770 0.0000
# 4 0.0000 0.0000 0.0000 33.8131 0.0000 11.0235
# 5 -10.4067 -13.9351 9.0770 0.0000 19.8116 0.0000
# 6 0.0000 0.0000 0.0000 11.0235 0.0000 27.5856
#
#
#
# Elastic Compliance Matrix: (Units=1/GPa)
#
#
# Indices 1 2 3 4 5 6 
#
# 1 0.019828 0.005373 -0.003879 0.000000 0.015972 0.000000
# 2 0.005373 0.033180 -0.021695 0.000000 0.036100 0.000000
# 3 -0.003879 -0.021695 0.052932 0.000000 -0.041549 0.000000
# 4 0.000000 0.000000 0.000000 0.034004 0.000000 -0.013589
# 5 0.015972 0.036100 -0.041549 0.000000 0.103293 0.000000
# 6 0.000000 0.000000 0.000000 -0.013589 0.000000 0.041681
#
#
# Mechanical properties :
#
#
# Convention : Reuss Voigt Hill
#
# Bulk Modulus (GPa) = 15.25853 16.77151 16.01502
# Shear Modulus (GPa) = 14.40224 25.25551 19.82888
#
# Velocity S-wave (km/s) = 2.55220 3.37970 2.99467
# Velocity P-wave (km/s) = 3.94791 4.77652 4.38184
#
# Compressibility (1/GPa) = 0.06553710
#
# Stress axis : x y z
#
# Youngs Moduli (GPa) = 50.43362 30.13831 18.89213
#
# Poissons Ratio (x) = -0.16192 0.07329
# Poissons Ratio (y) = -0.27095 0.40986
# Poissons Ratio (z) = 0.19564 0.65385
#
# Static dielectric constant tensor:
#      x y z
#    x 1.822120 0.000000 0.042560 
#    y 0.000000 1.786960 0.000000 
#    z 0.042560 0.000000 1.868240 
# 
# From -- ./inp_files/160205.got.cif
#   From: 2010.05.17/outbox.cif.g08.bks.cpg/sg15_81_cif.got.tgz:160205.got - 2010.06.03 18:47:42.
