data_PCOD9296565
_publ_section_title
;
Structure prediction by ZEFSAII (Michael W. Deem and Ramdas Pophale) SiO2 
 PCOD9296565
Probable space group: C 2/C
;
_chemical_formula_sum "Si O2"
_cell_formula_units_Z 44
_cell_length_a 12.534044
_cell_length_b 6.915319
_cell_length_c 22.033963
_cell_angle_alpha 90.000000
_cell_angle_beta 112.069941
_cell_angle_gamma 90.000000
_cell_volume 1769.894344
_symmetry_space_group_name_H-M "C 2/C"
_symmetry_group_IT_number 15
_symmetry_cell_setting 'monoclinic'
loop_
_space_group_symop_operation_xyz
x,y,z
-x,y,1/2-z
-x,-y,-z
x,-y,1/2+z
1/2+x,1/2+y,z
1/2-x,1/2+y,1/2-z
1/2-x,1/2-y,-z
1/2+x,1/2-y,1/2+z
loop_
_atom_site_type_symbol
_atom_site_label
_atom_site_fract_x
_atom_site_fract_y
_atom_site_fract_z
Si Si1 0.329795 0.015584 0.178807
Si Si2 0.500000 0.684614 0.750000
Si Si3 0.334627 0.778428 0.574335
Si Si4 0.803424 0.886922 0.734838
Si Si5 0.170505 0.502593 0.594586
Si Si6 0.993790 0.228001 0.990577
O O1 0.242838 0.121601 0.206456
O O2 0.349145 0.810283 0.213850
O O3 0.129986 0.670051 0.041734
O O4 0.293314 0.029669 0.101533
O O5 0.438341 0.840331 0.693537
O O6 0.403369 0.546351 0.756718
O O7 0.250000 0.750000 0.500000
O O8 0.295714 0.590468 0.604636
O O9 0.455110 0.776593 0.565640
O O10 0.693745 0.940005 0.668756
O O11 0.073340 0.664679 0.558183
O O12 0.000000 0.000000 0.000000
#
# Coordination Sequence:
#
# PCOD9296565 Si02
#       6
#     8   4   8   8   8   8
#     4  12  26  50  74 108 151 194 255 309 379 454
#     4  12  26  50  72 114 142 196 254 302 384 452
#     4  10  23  47  69 103 145 187 244 300 369 445
#     4  12  26  48  79 105 150 203 248 323 376 453
#     4  10  23  45  68 109 140 188 252 295 369 449
#     4  10  24  45  70 106 150 196 243 311 368 444
#
# _framework density 24.860240000000001
#
# number of rings (size 3 to 8) (size 9 to 14) (size 15 to 20)
#    0.000    1.091    3.636    0.545    7.636    0.727 
#   13.091    0.000    0.000    0.000    0.000    0.000 
#    0.000    0.000    0.000    0.000    0.000    0.000 
#
# Total GULP energy -122726.555512 kJ/mol
# GULP energy per Si atom -5578.479796 kJ/mol
# Density = 2.480366 g / cm^3
# Si number density = 24.860240 Si / 1000 Ang^3
#
#
#
# Elastic Constant Matrix: (Units=GPa)
#
#
# Indices 1 2 3 4 5 6 
#
# 1 78.4102 37.8472 36.8612 0.0000 -6.4606 0.0000
# 2 37.8472 184.0419 32.7654 0.0000 10.7426 0.0000
# 3 36.8612 32.7654 85.9967 0.0000 -10.2535 0.0000
# 4 0.0000 0.0000 0.0000 40.2308 0.0000 7.5571
# 5 -6.4606 10.7426 -10.2535 0.0000 47.3252 0.0000
# 6 0.0000 0.0000 0.0000 7.5571 0.0000 37.9081
#
#
#
# Elastic Compliance Matrix: (Units=1/GPa)
#
#
# Indices 1 2 3 4 5 6 
#
# 1 0.016968 -0.002487 -0.006141 0.000000 0.001550 0.000000
# 2 -0.002487 0.006356 -0.001610 0.000000 -0.002131 0.000000
# 3 -0.006141 -0.001610 0.015210 0.000000 0.002823 0.000000
# 4 0.000000 0.000000 0.000000 0.025824 0.000000 -0.005148
# 5 0.001550 -0.002131 0.002823 0.000000 0.022437 0.000000
# 6 0.000000 0.000000 0.000000 -0.005148 0.000000 0.027406
#
#
# Mechanical properties :
#
#
# Convention : Reuss Voigt Hill
#
# Bulk Modulus (GPa) = 55.37154 62.59962 58.98558
# Shear Modulus (GPa) = 35.53751 41.15783 38.34767
#
# Velocity S-wave (km/s) = 3.78496 4.07328 3.93177
# Velocity P-wave (km/s) = 6.43605 6.88167 6.66259
#
# Compressibility (1/GPa) = 0.01805982
#
# Stress axis : x y z
#
# Youngs Moduli (GPa) = 58.93320 157.33392 65.74409
#
# Poissons Ratio (x) = 0.39124 0.40373
# Poissons Ratio (y) = 0.14655 0.10584
# Poissons Ratio (z) = 0.36191 0.25329
#
# Static dielectric constant tensor:
#      x y z
#    x 2.106980 0.000000 -0.144390 
#    y 0.000000 2.091070 0.000000 
#    z -0.144390 0.000000 5.345050 
# 
# From -- ./inp_files/276119.got.cif
#   From: 2010.05.17/outbox.cif.g08.bks.cpg/sg15_139_cif.got.tgz:276119.got - 2010.06.03 18:47:42.
