data_PCOD9296913
_publ_section_title
;
Structure prediction by ZEFSAII (Michael W. Deem and Ramdas Pophale) SiO2 
 PCOD9296913
Probable space group: C 2/C
;
_chemical_formula_sum "Si O2"
_cell_formula_units_Z 32
_cell_length_a 15.147500
_cell_length_b 11.061213
_cell_length_c 9.203703
_cell_angle_alpha 90.000000
_cell_angle_beta 128.130385
_cell_angle_gamma 90.000000
_cell_volume 1213.010326
_symmetry_space_group_name_H-M "C 2/C"
_symmetry_group_IT_number 15
_symmetry_cell_setting 'monoclinic'
loop_
_space_group_symop_operation_xyz
x,y,z
-x,y,1/2-z
-x,-y,-z
x,-y,1/2+z
1/2+x,1/2+y,z
1/2-x,1/2+y,1/2-z
1/2-x,1/2-y,-z
1/2+x,1/2-y,1/2+z
loop_
_atom_site_type_symbol
_atom_site_label
_atom_site_fract_x
_atom_site_fract_y
_atom_site_fract_z
Si Si1 0.000000 0.591465 0.750000
Si Si2 0.400804 0.514367 0.242059
Si Si3 0.317338 0.900956 0.489249
Si Si4 0.820846 0.742336 0.719511
Si Si5 0.500000 0.705488 0.750000
O O1 0.908462 0.508220 0.575632
O O2 0.935659 0.672793 0.800074
O O3 0.500000 0.577681 0.250000
O O4 0.291915 0.459199 0.047803
O O5 0.344290 0.618053 0.280457
O O6 0.468533 0.390631 0.346381
O O7 0.270705 0.841945 0.293354
O O8 0.392377 0.791847 0.628089
O O9 0.750000 0.750000 0.500000
#
# Coordination Sequence:
#
# PCOD9296913 Si02
#       5
#     4   8   8   8   4
#     4  11  23  48  70 108 145 193 238 296 364 433
#     4  10  23  46  72 103 142 186 242 294 360 426
#     4  11  24  44  72 106 144 190 234 304 362 425
#     4  12  25  44  71 105 146 186 242 295 358 430
#     4   9  23  44  72 100 143 183 242 288 366 429
#
# _framework density 26.380647
#
# number of rings (size 3 to 8) (size 9 to 14) (size 15 to 20)
#    0.750    0.500    3.750    1.500    0.000    5.000 
#    9.000    0.000    0.000    0.000    0.000    0.000 
#    0.000    0.000    0.000    0.000    0.000    0.000 
#
# Total GULP energy -89160.493065 kJ/mol
# GULP energy per Si atom -5572.530817 kJ/mol
# Density = 2.632060 g / cm^3
# Si number density = 26.380647 Si / 1000 Ang^3
#
#
#
# Elastic Constant Matrix: (Units=GPa)
#
#
# Indices 1 2 3 4 5 6 
#
# 1 105.0403 41.3665 29.3734 0.0000 21.4769 0.0000
# 2 41.3665 194.4515 42.4962 0.0000 10.8524 0.0000
# 3 29.3734 42.4962 149.1740 0.0000 20.7916 0.0000
# 4 0.0000 0.0000 0.0000 33.9043 0.0000 20.2651
# 5 21.4769 10.8524 20.7916 0.0000 43.8487 0.0000
# 6 0.0000 0.0000 0.0000 20.2651 0.0000 26.9991
#
#
#
# Elastic Compliance Matrix: (Units=1/GPa)
#
#
# Indices 1 2 3 4 5 6 
#
# 1 0.011544 -0.001963 -0.001064 0.000000 -0.004664 0.000000
# 2 -0.001963 0.005836 -0.001294 0.000000 0.000131 0.000000
# 3 -0.001064 -0.001294 0.007671 0.000000 -0.002796 0.000000
# 4 0.000000 0.000000 0.000000 0.053494 0.000000 -0.040152
# 5 -0.004664 0.000131 -0.002796 0.000000 0.026384 0.000000
# 6 0.000000 0.000000 0.000000 -0.040152 0.000000 0.067176
#
#
# Mechanical properties :
#
#
# Convention : Reuss Voigt Hill
#
# Bulk Modulus (GPa) = 60.94058 75.01534 67.97796
# Shear Modulus (GPa) = 26.85033 43.31241 35.08137
#
# Velocity S-wave (km/s) = 3.19377 4.05634 3.65062
# Velocity P-wave (km/s) = 6.06225 7.10183 6.60253
#
# Compressibility (1/GPa) = 0.01640943
#
# Stress axis : x y z
#
# Youngs Moduli (GPa) = 86.62228 171.35562 130.35309
#
# Poissons Ratio (x) = 0.33638 0.13868
# Poissons Ratio (y) = 0.17005 0.16870
# Poissons Ratio (z) = 0.09215 0.22176
#
# Static dielectric constant tensor:
#      x y z
#    x 2.068870 0.000000 -0.084150 
#    y 0.000000 2.029900 0.000000 
#    z -0.084150 0.000000 2.160360 
# 
# From -- ./inp_files/104040.got.cif
#   From: 2010.05.17/outbox.cif.g08.bks.cpg/sg15_53_cif.got.tgz:104040.got - 2010.06.03 18:47:42.
