data_PCOD9296754
_publ_section_title
;
Structure prediction by ZEFSAII (Michael W. Deem and Ramdas Pophale) SiO2 
 PCOD9296754
Probable space group: C 2/C
;
_chemical_formula_sum "Si O2"
_cell_formula_units_Z 40
_cell_length_a 12.391369
_cell_length_b 27.217235
_cell_length_c 9.114731
_cell_angle_alpha 90.000000
_cell_angle_beta 35.891132
_cell_angle_gamma 90.000000
_cell_volume 1802.136836
_symmetry_space_group_name_H-M "C 2/C"
_symmetry_group_IT_number 15
_symmetry_cell_setting 'monoclinic'
loop_
_space_group_symop_operation_xyz
x,y,z
-x,y,1/2-z
-x,-y,-z
x,-y,1/2+z
1/2+x,1/2+y,z
1/2-x,1/2+y,1/2-z
1/2-x,1/2-y,-z
1/2+x,1/2-y,1/2+z
loop_
_atom_site_type_symbol
_atom_site_label
_atom_site_fract_x
_atom_site_fract_y
_atom_site_fract_z
Si Si1 0.201898 0.194348 0.590726
Si Si2 0.685444 0.881762 0.756449
Si Si3 0.187118 0.566290 0.758267
Si Si4 0.212954 0.978055 0.034331
Si Si5 0.466321 0.652764 0.443808
O O1 0.250000 0.250000 0.500000
O O2 0.330751 0.157997 0.356366
O O3 0.000000 0.183178 0.750000
O O4 0.167737 0.182969 0.798992
O O5 0.764314 0.930744 0.594296
O O6 0.835845 0.859834 0.702290
O O7 0.492866 0.899506 0.034732
O O8 0.174581 0.523778 0.652160
O O9 0.359166 0.601663 0.539216
O O10 0.226277 0.539370 0.871336
O O11 0.000000 0.992339 0.250000
O O12 0.500000 0.677253 0.250000
#
# Coordination Sequence:
#
# PCOD9296754 Si02
#       5
#     8   8   8   8   8
#     4  10  23  45  78 104 131 181 232 287 358 427
#     4  11  24  46  66 101 139 182 239 287 346 426
#     4  12  26  42  70  96 145 191 238 291 344 415
#     4  12  23  43  64  99 141 187 242 288 344 414
#     4  11  25  47  69 101 144 180 229 298 348 410
#
# _framework density 22.195872999999999
#
# number of rings (size 3 to 8) (size 9 to 14) (size 15 to 20)
#    0.000    0.800    4.000    3.000    5.600    0.800 
#    0.000    4.000    0.000    0.000    0.000    0.000 
#    0.000    0.000    0.000    0.000    0.000    0.000 
#
# Total GULP energy -111916.669961 kJ/mol
# GULP energy per Si atom -5595.833498 kJ/mol
# Density = 2.214535 g / cm^3
# Si number density = 22.195873 Si / 1000 Ang^3
#
#
#
# Elastic Constant Matrix: (Units=GPa)
#
#
# Indices 1 2 3 4 5 6 
#
# 1 85.3477 24.6466 51.1015 0.0000 -8.1845 0.0000
# 2 24.6466 111.4100 58.2665 0.0000 7.0284 0.0000
# 3 51.1015 58.2665 112.1678 0.0000 -0.1498 0.0000
# 4 0.0000 0.0000 0.0000 37.8658 0.0000 -3.3431
# 5 -8.1845 7.0284 -0.1498 0.0000 40.4210 0.0000
# 6 0.0000 0.0000 0.0000 -3.3431 0.0000 19.5212
#
#
#
# Elastic Compliance Matrix: (Units=1/GPa)
#
#
# Indices 1 2 3 4 5 6 
#
# 1 0.016547 0.000098 -0.007585 0.000000 0.003305 0.000000
# 2 0.000098 0.012517 -0.006550 0.000000 -0.002181 0.000000
# 3 -0.007585 -0.006550 0.015772 0.000000 -0.000338 0.000000
# 4 0.000000 0.000000 0.000000 0.026815 0.000000 0.004592
# 5 0.003305 -0.002181 -0.000338 0.000000 0.025787 0.000000
# 6 0.000000 0.000000 0.000000 0.004592 0.000000 0.052013
#
#
# Mechanical properties :
#
#
# Convention : Reuss Voigt Hill
#
# Bulk Modulus (GPa) = 59.65440 64.10608 61.88024
# Shear Modulus (GPa) = 27.30572 31.22232 29.26402
#
# Velocity S-wave (km/s) = 3.51125 3.75463 3.63498
# Velocity P-wave (km/s) = 6.58583 6.90949 6.74960
#
# Compressibility (1/GPa) = 0.01676322
#
# Stress axis : x y z
#
# Youngs Moduli (GPa) = 60.43437 79.88992 63.40160
#
# Poissons Ratio (x) = -0.00780 0.48089
# Poissons Ratio (y) = -0.00590 0.41525
# Poissons Ratio (z) = 0.45838 0.52325
#
# Static dielectric constant tensor:
#      x y z
#    x 1.771090 0.000000 0.191900 
#    y 0.000000 1.750720 0.000000 
#    z 0.191900 0.000000 1.456910 
# 
# From -- ./inp_files/34981.got.cif
#   From: 2010.05.17/outbox.cif.g08.bks.cpg/sg15_18_cif.got.tgz:34981.got - 2010.06.03 18:47:42.
