data_PCOD9296796
_publ_section_title
;
Structure prediction by ZEFSAII (Michael W. Deem and Ramdas Pophale) SiO2 
 PCOD9296796
Probable space group: C 2/C
;
_chemical_formula_sum "Si O2"
_cell_formula_units_Z 52
_cell_length_a 6.643879
_cell_length_b 16.707680
_cell_length_c 26.979791
_cell_angle_alpha 90.000000
_cell_angle_beta 131.626213
_cell_angle_gamma 90.000000
_cell_volume 2238.640253
_symmetry_space_group_name_H-M "C 2/C"
_symmetry_group_IT_number 15
_symmetry_cell_setting 'monoclinic'
loop_
_space_group_symop_operation_xyz
x,y,z
-x,y,1/2-z
-x,-y,-z
x,-y,1/2+z
1/2+x,1/2+y,z
1/2-x,1/2+y,1/2-z
1/2-x,1/2-y,-z
1/2+x,1/2-y,1/2+z
loop_
_atom_site_type_symbol
_atom_site_label
_atom_site_fract_x
_atom_site_fract_y
_atom_site_fract_z
Si Si1 0.973833 0.170622 0.448102
Si Si2 0.073778 0.928907 0.048351
Si Si3 0.516217 0.961942 0.858702
Si Si4 0.790957 0.111007 0.672086
Si Si5 0.000000 0.131924 0.250000
Si Si6 0.358373 0.682593 0.580513
Si Si7 0.911992 0.761511 0.638610
O O1 0.706670 0.113456 0.403635
O O2 0.882697 0.256367 0.453317
O O3 0.068777 0.183894 0.407590
O O4 0.171368 0.133898 0.521961
O O5 0.826402 0.888396 0.036013
O O6 0.262917 0.970300 0.120984
O O7 0.000000 0.000000 0.000000
O O8 0.270378 0.921532 0.789771
O O9 0.355914 0.027032 0.866859
O O10 0.600790 0.183235 0.661572
O O11 0.000000 0.093414 0.750000
O O12 0.922154 0.147438 0.644633
O O13 0.009738 0.186255 0.300710
O O14 0.615778 0.729436 0.601992
#
# Coordination Sequence:
#
# PCOD9296796 Si02
#       7
#     8   8   8   8   4   8   8
#     4  10  24  45  69  99 136 180 233 286 336 416
#     4  10  23  46  67 100 140 179 233 282 347 406
#     4  11  23  44  65 101 138 178 227 276 350 406
#     4  11  24  43  67 101 138 175 228 284 346 414
#     4  12  24  44  66 102 136 178 226 280 340 418
#     4  11  22  45  72  98 134 181 231 282 346 407
#     4  11  24  44  70  99 136 180 231 280 349 405
#
# _framework density 23.228387999999999
#
# number of rings (size 3 to 8) (size 9 to 14) (size 15 to 20)
#    0.000    1.231    3.846    1.385    2.154    3.077 
#    5.538    2.308    0.000    0.000    0.000    0.000 
#    0.000    0.000    0.000    0.000    0.000    0.000 
#
# Total GULP energy -144808.916734 kJ/mol
# GULP energy per Si atom -5569.573721 kJ/mol
# Density = 2.317552 g / cm^3
# Si number density = 23.228388 Si / 1000 Ang^3
#
#
#
# Elastic Constant Matrix: (Units=GPa)
#
#
# Indices 1 2 3 4 5 6 
#
# 1 92.8933 51.9055 50.4637 0.0000 -28.8808 0.0000
# 2 51.9055 129.5775 59.5011 0.0000 -19.4049 0.0000
# 3 50.4637 59.5011 110.0189 -0.0002 -13.6002 0.0001
# 4 0.0000 0.0000 -0.0002 58.2383 -0.0001 10.7698
# 5 -28.8808 -19.4049 -13.6002 -0.0001 38.5655 0.0000
# 6 0.0000 0.0000 0.0001 10.7698 0.0000 21.2082
#
#
#
# Elastic Compliance Matrix: (Units=1/GPa)
#
#
# Indices 1 2 3 4 5 6 
#
# 1 0.018984 -0.003497 -0.005517 0.000000 0.010512 0.000000
# 2 -0.003497 0.011344 -0.004338 0.000000 0.001559 0.000000
# 3 -0.005517 -0.004338 0.013787 0.000000 -0.001453 0.000000
# 4 0.000000 0.000000 0.000000 0.018950 0.000000 -0.009623
# 5 0.010512 0.001559 -0.001453 0.000000 0.034074 0.000000
# 6 0.000000 0.000000 0.000000 -0.009623 0.000000 0.052038
#
#
# Mechanical properties :
#
#
# Convention : Reuss Voigt Hill
#
# Bulk Modulus (GPa) = 57.43835 72.91448 65.17641
# Shear Modulus (GPa) = 27.52008 34.97703 31.24855
#
# Velocity S-wave (km/s) = 3.44577 3.88466 3.67178
# Velocity P-wave (km/s) = 6.37279 7.18186 6.78939
#
# Compressibility (1/GPa) = 0.01740997
#
# Stress axis : x y z
#
# Youngs Moduli (GPa) = 52.67515 88.15387 72.53424
#
# Poissons Ratio (x) = 0.30828 0.40017
# Poissons Ratio (y) = 0.18421 0.31467
# Poissons Ratio (z) = 0.29061 0.38243
#
# Static dielectric constant tensor:
#      x y z
#    x 1.898460 0.000000 0.065220 
#    y 0.000000 1.962850 0.000000 
#    z 0.065220 0.000000 1.950080 
# 
# From -- ./inp_files/286143.got.cif
#   From: 2010.05.17/outbox.cif.g08.bks.cpg/sg15_144_cif.got.tgz:286143.got - 2010.06.03 18:47:42.
