data_PCOD9296108
_publ_section_title
;
Structure prediction by ZEFSAII (Michael W. Deem and Ramdas Pophale) SiO2 
 PCOD9296108
Probable space group: C 2/C
;
_chemical_formula_sum "Si O2"
_cell_formula_units_Z 40
_cell_length_a 19.067096
_cell_length_b 12.150601
_cell_length_c 9.683970
_cell_angle_alpha 90.000000
_cell_angle_beta 112.230328
_cell_angle_gamma 90.000000
_cell_volume 2076.787929
_symmetry_space_group_name_H-M "C 2/C"
_symmetry_group_IT_number 15
_symmetry_cell_setting 'monoclinic'
loop_
_space_group_symop_operation_xyz
x,y,z
-x,y,1/2-z
-x,-y,-z
x,-y,1/2+z
1/2+x,1/2+y,z
1/2-x,1/2+y,1/2-z
1/2-x,1/2-y,-z
1/2+x,1/2-y,1/2+z
loop_
_atom_site_type_symbol
_atom_site_label
_atom_site_fract_x
_atom_site_fract_y
_atom_site_fract_z
Si Si1 0.715434 0.944211 0.744394
Si Si2 0.051359 0.479990 0.668971
Si Si3 0.383264 0.752902 0.825161
Si Si4 0.813711 0.934441 0.087933
Si Si5 0.046515 0.925503 0.924407
O O1 0.638800 0.016123 0.714551
O O2 0.815982 0.328388 0.837892
O O3 0.771357 0.002935 0.680928
O O4 0.754873 0.917991 0.919416
O O5 0.063795 0.348666 0.697182
O O6 0.000000 0.529509 0.750000
O O7 0.000000 0.500000 0.500000
O O8 0.350005 0.674157 0.682395
O O9 0.425384 0.680573 0.970338
O O10 0.880943 0.006599 0.073787
O O11 0.000000 0.900492 0.750000
O O12 0.000000 0.000000 0.000000
#
# Coordination Sequence:
#
# PCOD9296108 Si02
#       5
#     8   8   8   8   8
#     4  10  24  40  69  92 132 170 216 270 325 392
#     4  10  23  44  67  97 131 170 218 268 324 398
#     4  10  25  40  70  96 128 176 222 261 347 373
#     4  12  21  46  63  98 132 171 219 275 323 393
#     4  12  24  42  67  94 135 171 220 276 324 396
#
# _framework density 19.260513
#
# number of rings (size 3 to 8) (size 9 to 14) (size 15 to 20)
#    1.200    0.000    4.000    1.800    2.800    1.600 
#    0.000    0.000    0.000    0.000    0.000    0.000 
#    0.000    0.000    0.000    0.000    0.000    0.000 
#
# Total GULP energy -111431.515211 kJ/mol
# GULP energy per Si atom -5571.575761 kJ/mol
# Density = 1.921668 g / cm^3
# Si number density = 19.260513 Si / 1000 Ang^3
#
#
#
# Elastic Constant Matrix: (Units=GPa)
#
#
# Indices 1 2 3 4 5 6 
#
# 1 112.6123 -1.9474 21.4006 0.0000 -5.7543 0.0000
# 2 -1.9474 11.6874 -16.7028 0.0000 4.3691 0.0000
# 3 21.4006 -16.7028 123.3852 0.0000 11.5574 0.0000
# 4 0.0000 0.0000 0.0000 41.4531 0.0000 17.3878
# 5 -5.7543 4.3691 11.5574 0.0000 37.3841 0.0000
# 6 0.0000 0.0000 0.0000 17.3878 0.0000 25.0699
#
#
#
# Elastic Compliance Matrix: (Units=1/GPa)
#
#
# Indices 1 2 3 4 5 6 
#
# 1 0.009376 -0.002459 -0.002184 0.000000 0.002406 0.000000
# 2 -0.002459 0.118898 0.018392 0.000000 -0.019960 0.000000
# 3 -0.002184 0.018392 0.011540 0.000000 -0.006053 0.000000
# 4 0.000000 0.000000 0.000000 0.034021 0.000000 -0.023596
# 5 0.002406 -0.019960 -0.006053 0.000000 0.031324 0.000000
# 6 0.000000 0.000000 0.000000 -0.023596 0.000000 0.056254
#
#
# Mechanical properties :
#
#
# Convention : Reuss Voigt Hill
#
# Bulk Modulus (GPa) = 5.97692 28.13175 17.05433
# Shear Modulus (GPa) = 17.26001 37.11038 27.18520
#
# Velocity S-wave (km/s) = 2.99680 4.39425 3.76100
# Velocity P-wave (km/s) = 3.88386 6.35480 5.26630
#
# Compressibility (1/GPa) = 0.16731036
#
# Stress axis : x y z
#
# Youngs Moduli (GPa) = 106.66046 8.41056 86.65311
#
# Poissons Ratio (x) = 0.02068 0.18928
# Poissons Ratio (y) = 0.26227 -1.59368
# Poissons Ratio (z) = 0.23299 -0.15468
#
# Static dielectric constant tensor:
#      x y z
#    x 1.694130 0.000000 0.026710 
#    y 0.000000 1.672740 0.000000 
#    z 0.026710 0.000000 1.653990 
# 
# From -- ./inp_files/47256.got.cif
#   From: 2010.05.17/outbox.cif.g08.bks.cpg/sg15_24_cif.got.tgz:47256.got - 2010.06.03 18:47:42.
