data_PCOD9296370
_publ_section_title
;
Structure prediction by ZEFSAII (Michael W. Deem and Ramdas Pophale) SiO2 
 PCOD9296370
Probable space group: C 2/C
;
_chemical_formula_sum "Si O2"
_cell_formula_units_Z 36
_cell_length_a 12.212751
_cell_length_b 27.100318
_cell_length_c 5.231505
_cell_angle_alpha 90.000000
_cell_angle_beta 57.520304
_cell_angle_gamma 90.000000
_cell_volume 1460.635104
_symmetry_space_group_name_H-M "C 2/C"
_symmetry_group_IT_number 15
_symmetry_cell_setting 'monoclinic'
loop_
_space_group_symop_operation_xyz
x,y,z
-x,y,1/2-z
-x,-y,-z
x,-y,1/2+z
1/2+x,1/2+y,z
1/2-x,1/2+y,1/2-z
1/2-x,1/2-y,-z
1/2+x,1/2-y,1/2+z
loop_
_atom_site_type_symbol
_atom_site_label
_atom_site_fract_x
_atom_site_fract_y
_atom_site_fract_z
Si Si1 0.297047 0.968324 0.240627
Si Si2 0.913954 0.771452 0.115812
Si Si3 0.356379 0.373747 0.041523
Si Si4 0.500000 0.903283 0.750000
Si Si5 0.141222 0.667597 0.428982
O O1 0.189446 0.927152 0.312101
O O2 0.287605 0.990030 0.535322
O O3 0.432366 0.939122 0.037025
O O4 0.000000 0.757105 0.250000
O O5 0.860283 0.826463 0.224697
O O6 0.823070 0.724321 0.178577
O O7 0.000000 0.775956 0.750000
O O8 0.500000 0.379483 0.750000
O O9 0.251528 0.356556 0.961796
O O10 0.392671 0.867647 0.764180
O O11 0.000000 0.669787 0.750000
#
# Coordination Sequence:
#
# PCOD9296370 Si02
#       5
#     8   8   8   4   8
#     4  12  28  49  77 109 148 201 262 322 375 437
#     4  10  23  44  72 112 156 199 246 300 374 460
#     4  11  26  49  75 111 159 204 250 310 381 456
#     4  12  24  46  82 114 150 190 260 326 388 436
#     4  11  22  46  74 116 152 197 250 308 379 459
#
# _framework density 24.646812000000001
#
# number of rings (size 3 to 8) (size 9 to 14) (size 15 to 20)
#    0.000    0.889    3.333    2.667    0.000    8.000 
#    0.000    7.778    0.000    0.000    0.000    0.000 
#    0.000    0.000    0.000    0.000    0.000    0.000 
#
# Total GULP energy -100874.703745 kJ/mol
# GULP energy per Si atom -5604.150208 kJ/mol
# Density = 2.459071 g / cm^3
# Si number density = 24.646812 Si / 1000 Ang^3
#
#
#
# Elastic Constant Matrix: (Units=GPa)
#
#
# Indices 1 2 3 4 5 6 
#
# 1 89.9249 13.4732 20.1592 0.0000 -12.2628 0.0000
# 2 13.4732 140.3259 17.1908 0.0000 -16.8277 0.0000
# 3 20.1592 17.1908 61.6570 0.0000 -6.9942 0.0000
# 4 0.0000 0.0000 0.0000 51.8774 0.0000 -15.8178
# 5 -12.2628 -16.8277 -6.9942 0.0000 46.4162 0.0000
# 6 0.0000 0.0000 0.0000 -15.8178 0.0000 40.3258
#
#
#
# Elastic Compliance Matrix: (Units=1/GPa)
#
#
# Indices 1 2 3 4 5 6 
#
# 1 0.012347 -0.000435 -0.003626 0.000000 0.002558 0.000000
# 2 -0.000435 0.007668 -0.001723 0.000000 0.002405 0.000000
# 3 -0.003626 -0.001723 0.018013 0.000000 0.001132 0.000000
# 4 0.000000 0.000000 0.000000 0.021895 0.000000 0.008588
# 5 0.002558 0.002405 0.001132 0.000000 0.023263 0.000000
# 6 0.000000 0.000000 0.000000 0.008588 0.000000 0.028167
#
#
# Mechanical properties :
#
#
# Convention : Reuss Voigt Hill
#
# Bulk Modulus (GPa) = 37.79083 43.72825 40.75954
# Shear Modulus (GPa) = 37.95401 43.79618 40.87510
#
# Velocity S-wave (km/s) = 3.92843 4.21996 4.07680
# Velocity P-wave (km/s) = 5.99525 6.44396 6.22365
#
# Compressibility (1/GPa) = 0.02646144
#
# Stress axis : x y z
#
# Youngs Moduli (GPa) = 80.99044 130.42055 55.51571
#
# Poissons Ratio (x) = 0.05668 0.20128
# Poissons Ratio (y) = 0.03520 0.09565
# Poissons Ratio (z) = 0.29364 0.22470
#
# Static dielectric constant tensor:
#      x y z
#    x 1.916580 0.000000 -0.102770 
#    y 0.000000 1.948930 0.000000 
#    z -0.102770 0.000000 2.224690 
# 
# From -- ./inp_files/4815.got.cif
#   From: 2010.05.17/outbox.cif.g08.bks.cpg/sg15_3_cif.got.tgz:4815.got - 2010.06.03 18:47:42.
