data_PCOD9296312
_publ_section_title
;
Structure prediction by ZEFSAII (Michael W. Deem and Ramdas Pophale) SiO2 
 PCOD9296312
Probable space group: C 2/C
;
_chemical_formula_sum "Si O2"
_cell_formula_units_Z 40
_cell_length_a 18.247615
_cell_length_b 10.459419
_cell_length_c 17.207028
_cell_angle_alpha 90.000000
_cell_angle_beta 30.643845
_cell_angle_gamma 90.000000
_cell_volume 1673.917766
_symmetry_space_group_name_H-M "C 2/C"
_symmetry_group_IT_number 15
_symmetry_cell_setting 'monoclinic'
loop_
_space_group_symop_operation_xyz
x,y,z
-x,y,1/2-z
-x,-y,-z
x,-y,1/2+z
1/2+x,1/2+y,z
1/2-x,1/2+y,1/2-z
1/2-x,1/2-y,-z
1/2+x,1/2-y,1/2+z
loop_
_atom_site_type_symbol
_atom_site_label
_atom_site_fract_x
_atom_site_fract_y
_atom_site_fract_z
Si Si1 0.347122 0.559622 0.414389
Si Si2 0.156785 0.340789 0.641403
Si Si3 0.779282 0.685981 0.247142
Si Si4 0.124490 0.422354 0.342529
Si Si5 0.114438 0.314415 0.022681
O O1 0.500000 0.501147 0.250000
O O2 0.255658 0.466345 0.551022
O O3 0.240025 0.594748 0.441124
O O4 0.385812 0.689600 0.424224
O O5 0.250000 0.250000 0.500000
O O6 0.138872 0.294542 0.746374
O O7 0.000000 0.363512 0.750000
O O8 0.752807 0.531919 0.269820
O O9 0.657929 0.794108 0.358890
O O10 0.847144 0.719796 0.101197
O O11 0.000000 0.500000 0.500000
O O12 0.043369 0.378593 0.337589
#
# Coordination Sequence:
#
# PCOD9296312 Si02
#       5
#     8   8   8   8   8
#     4  11  24  47  75 115 149 198 258 319 389 456
#     4  12  29  48  71 108 157 204 254 317 393 460
#     4  11  24  45  76 105 146 209 251 318 386 456
#     4  10  23  44  71 106 145 193 251 313 373 455
#     4  10  23  44  77 106 149 197 256 317 377 458
#
# _framework density 23.896037
#
# number of rings (size 3 to 8) (size 9 to 14) (size 15 to 20)
#    0.000    1.200    0.000    4.200   11.200    4.800 
#    3.600    6.000    0.000    0.000    0.000    0.000 
#    0.000    0.000    0.000    0.000    0.000    0.000 
#
# Total GULP energy -111647.141955 kJ/mol
# GULP energy per Si atom -5582.357098 kJ/mol
# Density = 2.384165 g / cm^3
# Si number density = 23.896037 Si / 1000 Ang^3
#
#
#
# Elastic Constant Matrix: (Units=GPa)
#
#
# Indices 1 2 3 4 5 6 
#
# 1 152.7253 44.4099 41.3614 0.0000 -1.8273 0.0000
# 2 44.4099 117.3578 34.2869 0.0000 -26.5057 0.0000
# 3 41.3614 34.2869 103.5123 0.0000 0.1230 0.0000
# 4 0.0000 0.0000 0.0000 40.0575 0.0000 -11.3056
# 5 -1.8273 -26.5057 0.1230 0.0000 50.2927 0.0000
# 6 0.0000 0.0000 0.0000 -11.3056 0.0000 28.5771
#
#
#
# Elastic Compliance Matrix: (Units=1/GPa)
#
#
# Indices 1 2 3 4 5 6 
#
# 1 0.007903 -0.002553 -0.002311 0.000000 -0.001053 0.000000
# 2 -0.002553 0.011696 -0.002861 0.000000 0.006078 0.000000
# 3 -0.002311 -0.002861 0.011534 0.000000 -0.001620 0.000000
# 4 0.000000 0.000000 0.000000 0.028102 0.000000 0.011118
# 5 -0.001053 0.006078 -0.001620 0.000000 0.023053 0.000000
# 6 0.000000 0.000000 0.000000 0.011118 0.000000 0.039391
#
#
# Mechanical properties :
#
#
# Convention : Reuss Voigt Hill
#
# Bulk Modulus (GPa) = 63.76679 68.19021 65.97850
# Shear Modulus (GPa) = 35.12290 40.68795 37.90542
#
# Velocity S-wave (km/s) = 3.83798 4.13086 3.98711
# Velocity P-wave (km/s) = 6.81052 7.16591 6.99047
#
# Compressibility (1/GPa) = 0.01568214
#
# Stress axis : x y z
#
# Youngs Moduli (GPa) = 126.52665 85.50024 86.70226
#
# Poissons Ratio (x) = 0.21832 0.20037
# Poissons Ratio (y) = 0.32307 0.24806
# Poissons Ratio (z) = 0.29241 0.24462
#
# Static dielectric constant tensor:
#      x y z
#    x 1.902190 0.000000 -0.021720 
#    y 0.000000 2.018810 0.000000 
#    z -0.021720 0.000000 2.006720 
# 
# From -- ./inp_files/210780.got.cif
#   From: 2010.05.17/outbox.cif.g08.bks.cpg/sg15_106_cif.got.tgz:210780.got - 2010.06.03 18:47:42.
