data_PCOD9296403
_publ_section_title
;
Structure prediction by ZEFSAII (Michael W. Deem and Ramdas Pophale) SiO2 
 PCOD9296403
Probable space group: C 2/C
;
_chemical_formula_sum "Si O2"
_cell_formula_units_Z 32
_cell_length_a 5.231433
_cell_length_b 23.305553
_cell_length_c 11.028419
_cell_angle_alpha 90.000000
_cell_angle_beta 78.876167
_cell_angle_gamma 90.000000
_cell_volume 1319.339025
_symmetry_space_group_name_H-M "C 2/C"
_symmetry_group_IT_number 15
_symmetry_cell_setting 'monoclinic'
loop_
_space_group_symop_operation_xyz
x,y,z
-x,y,1/2-z
-x,-y,-z
x,-y,1/2+z
1/2+x,1/2+y,z
1/2-x,1/2+y,1/2-z
1/2-x,1/2-y,-z
1/2+x,1/2-y,1/2+z
loop_
_atom_site_type_symbol
_atom_site_label
_atom_site_fract_x
_atom_site_fract_y
_atom_site_fract_z
Si Si1 0.781988 0.412287 0.665646
Si Si2 0.781528 0.539984 0.663782
Si Si3 0.998987 0.234470 0.390288
Si Si4 0.863078 0.345107 0.018043
O O1 0.500000 0.408289 0.750000
O O2 0.806151 0.475940 0.606183
O O3 0.000000 0.410149 0.750000
O O4 0.859051 0.361584 0.567858
O O5 0.500000 0.540045 0.750000
O O6 0.775994 0.592924 0.572147
O O7 0.000000 0.547359 0.750000
O O8 0.750000 0.250000 0.500000
O O9 0.000000 0.218161 0.250000
O O10 0.128388 0.298404 0.377205
O O11 0.181806 0.187779 0.439060
#
# Coordination Sequence:
#
# PCOD9296403 Si02
#       4
#     8   8   8   8
#     4  10  24  43  72 112 152 197 251 311 386 462
#     4  10  23  44  73 113 154 196 251 313 387 464
#     4  11  29  49  74 112 152 203 267 319 383 454
#     4  11  26  43  76 104 156 200 256 317 388 453
#
# _framework density 24.254570999999999
#
# number of rings (size 3 to 8) (size 9 to 14) (size 15 to 20)
#    0.000    1.500    0.000    1.500   14.000    2.000 
#    0.000    7.500    0.000    0.000    0.000    0.000 
#    0.000    0.000    0.000    0.000    0.000    0.000 
#
# Total GULP energy -89432.035278 kJ/mol
# GULP energy per Si atom -5589.502205 kJ/mol
# Density = 2.419937 g / cm^3
# Si number density = 24.254571 Si / 1000 Ang^3
#
#
#
# Elastic Constant Matrix: (Units=GPa)
#
#
# Indices 1 2 3 4 5 6 
#
# 1 127.2344 49.4489 39.9253 0.0000 -24.5569 0.0000
# 2 49.4489 236.3390 73.7663 0.0000 0.2299 0.0000
# 3 39.9253 73.7663 102.4267 0.0000 -7.7507 0.0000
# 4 0.0000 0.0000 0.0000 44.4619 0.0000 9.8597
# 5 -24.5569 0.2299 -7.7507 0.0000 42.5017 0.0000
# 6 0.0000 0.0000 0.0000 9.8597 0.0000 28.3837
#
#
#
# Elastic Compliance Matrix: (Units=1/GPa)
#
#
# Indices 1 2 3 4 5 6 
#
# 1 0.010253 -0.001331 -0.002625 0.000000 0.005452 0.000000
# 2 -0.001331 0.005655 -0.003665 0.000000 -0.001468 0.000000
# 3 -0.002625 -0.003665 0.013499 0.000000 0.000965 0.000000
# 4 0.000000 0.000000 0.000000 0.024368 0.000000 -0.008465
# 5 0.005452 -0.001468 0.000965 0.000000 0.026863 0.000000
# 6 0.000000 0.000000 0.000000 -0.008465 0.000000 0.038172
#
#
# Mechanical properties :
#
#
# Convention : Reuss Voigt Hill
#
# Bulk Modulus (GPa) = 70.60055 88.03125 79.31590
# Shear Modulus (GPa) = 36.02986 43.26010 39.64498
#
# Velocity S-wave (km/s) = 3.85838 4.22783 4.04733
# Velocity P-wave (km/s) = 7.00149 7.75927 7.39010
#
# Compressibility (1/GPa) = 0.01416420
#
# Stress axis : x y z
#
# Youngs Moduli (GPa) = 97.53246 176.83337 74.08050
#
# Poissons Ratio (x) = 0.23539 0.19448
# Poissons Ratio (y) = 0.12983 0.27150
# Poissons Ratio (z) = 0.25605 0.64808
#
# Static dielectric constant tensor:
#      x y z
#    x 2.004910 0.000000 -0.025300 
#    y 0.000000 1.956070 0.000000 
#    z -0.025300 0.000000 1.957470 
# 
# From -- ./inp_files/72183.got.cif
#   From: 2010.05.17/outbox.cif.g08.bks.cpg/sg15_37_cif.got.tgz:72183.got - 2010.06.03 18:47:42.
