data_PCOD9296666
_publ_section_title
;
Structure prediction by ZEFSAII (Michael W. Deem and Ramdas Pophale) SiO2 
 PCOD9296666
Probable space group: C 2/C
;
_chemical_formula_sum "Si O2"
_cell_formula_units_Z 56
_cell_length_a 15.113497
_cell_length_b 17.524037
_cell_length_c 10.924664
_cell_angle_alpha 90.000000
_cell_angle_beta 121.908020
_cell_angle_gamma 90.000000
_cell_volume 2456.193495
_symmetry_space_group_name_H-M "C 2/C"
_symmetry_group_IT_number 15
_symmetry_cell_setting 'monoclinic'
loop_
_space_group_symop_operation_xyz
x,y,z
-x,y,1/2-z
-x,-y,-z
x,-y,1/2+z
1/2+x,1/2+y,z
1/2-x,1/2+y,1/2-z
1/2-x,1/2-y,-z
1/2+x,1/2-y,1/2+z
loop_
_atom_site_type_symbol
_atom_site_label
_atom_site_fract_x
_atom_site_fract_y
_atom_site_fract_z
Si Si1 0.389868 0.668119 0.098486
Si Si2 0.108616 0.165086 0.901876
Si Si3 0.698700 0.207523 0.121830
Si Si4 0.617302 0.956731 0.979266
Si Si5 0.810921 0.296712 0.388962
Si Si6 0.065663 0.995683 0.924929
Si Si7 0.629124 0.059721 0.207599
O O1 0.500000 0.668604 0.250000
O O2 0.286099 0.666598 0.105238
O O3 0.381658 0.586900 0.023984
O O4 0.386130 0.746532 0.017970
O O5 0.204866 0.190360 0.888469
O O6 0.120405 0.078072 0.953821
O O7 0.000000 0.172712 0.750000
O O8 0.119201 0.225062 0.019153
O O9 0.766800 0.276754 0.226139
O O10 0.653309 0.148290 0.189375
O O11 0.492545 0.964198 0.879031
O O12 0.660490 0.958294 0.871214
O O13 0.628613 0.873389 0.045306
O O14 0.668935 0.013036 0.117145
O O15 0.000000 0.992413 0.750000
O O16 0.000000 0.000000 0.000000
#
# Coordination Sequence:
#
# PCOD9296666 Si02
#       7
#     8   8   8   8   8   8   8
#     4  10  26  48  69 102 146 188 234 295 369 435
#     4  10  24  42  67 101 138 177 230 297 353 418
#     4  11  26  45  70 105 140 189 241 292 357 436
#     4  10  24  45  69 104 139 187 235 299 354 417
#     4  11  25  41  69 105 133 186 236 292 351 420
#     4  10  24  44  73 105 137 188 236 291 364 433
#     4  10  23  45  72 100 141 184 241 293 354 420
#
# _framework density 22.799507999999999
#
# number of rings (size 3 to 8) (size 9 to 14) (size 15 to 20)
#    0.000    1.714    0.000    1.714   16.000    2.286 
#    5.143    0.000    0.000    0.000    0.000    0.000 
#    0.000    0.000    0.000    0.000    0.000    0.000 
#
# Total GULP energy -156147.927995 kJ/mol
# GULP energy per Si atom -5576.711714 kJ/mol
# Density = 2.274762 g / cm^3
# Si number density = 22.799508 Si / 1000 Ang^3
#
#
#
# Elastic Constant Matrix: (Units=GPa)
#
#
# Indices 1 2 3 4 5 6 
#
# 1 73.9995 43.8342 38.4797 0.0000 -13.2213 0.0000
# 2 43.8342 138.2951 60.3170 0.0000 -7.8452 0.0000
# 3 38.4797 60.3170 89.9256 0.0000 -18.5476 0.0000
# 4 0.0000 0.0000 0.0000 -222.1488 0.0000 -31.3746
# 5 -13.2213 -7.8452 -18.5476 0.0000 38.6638 0.0000
# 6 0.0000 0.0000 0.0000 -31.3746 0.0000 42.2941
#
#
#
# Elastic Compliance Matrix: (Units=1/GPa)
#
#
# Indices 1 2 3 4 5 6 
#
# 1 0.018823 -0.003624 -0.004936 0.000000 0.003333 0.000000
# 2 -0.003624 0.010983 -0.006228 0.000000 -0.001998 0.000000
# 3 -0.004936 -0.006228 0.018646 0.000000 0.005993 0.000000
# 4 0.000000 0.000000 0.000000 -0.004075 0.000000 -0.003023
# 5 0.003333 -0.001998 0.005993 0.000000 0.029473 0.000000
# 6 0.000000 0.000000 0.000000 -0.003023 0.000000 0.021402
#
#
# Mechanical properties :
#
#
# Convention : Reuss Voigt Hill
#
# Bulk Modulus (GPa) = 52.97988 65.27580 59.12784
# Shear Modulus (GPa) = 38.13330 -17.59890 10.26720
#
# Velocity S-wave (km/s) = 4.09412 -2.78132 2.12439
# Velocity P-wave (km/s) = 6.75550 4.28698 5.65752
#
# Compressibility (1/GPa) = 0.01887509
#
# Stress axis : x y z
#
# Youngs Moduli (GPa) = 53.12750 91.05375 53.63137
#
# Poissons Ratio (x) = 0.32999 0.26472
# Poissons Ratio (y) = 0.19254 0.33401
# Poissons Ratio (z) = 0.26223 0.56707
#
# Static dielectric constant tensor:
#      x y z
#    x 1.886180 0.000000 -0.036240 
#    y 0.000000 1.710380 0.000000 
#    z -0.036240 0.000000 1.693230 
# 
# From -- ./inp_files/105797.got.cif
#   From: 2010.05.17/outbox.cif.g08.bks.cpg/sg15_53_cif.got.tgz:105797.got - 2010.06.03 18:47:42.
