data_PCOD9296793
_publ_section_title
;
Structure prediction by ZEFSAII (Michael W. Deem and Ramdas Pophale) SiO2 
 PCOD9296793
Probable space group: C 2/C
;
_chemical_formula_sum "Si O2"
_cell_formula_units_Z 44
_cell_length_a 8.833422
_cell_length_b 28.473658
_cell_length_c 9.341428
_cell_angle_alpha 90.000000
_cell_angle_beta 51.107972
_cell_angle_gamma 90.000000
_cell_volume 1828.729922
_symmetry_space_group_name_H-M "C 2/C"
_symmetry_group_IT_number 15
_symmetry_cell_setting 'monoclinic'
loop_
_space_group_symop_operation_xyz
x,y,z
-x,y,1/2-z
-x,-y,-z
x,-y,1/2+z
1/2+x,1/2+y,z
1/2-x,1/2+y,1/2-z
1/2-x,1/2-y,-z
1/2+x,1/2-y,1/2+z
loop_
_atom_site_type_symbol
_atom_site_label
_atom_site_fract_x
_atom_site_fract_y
_atom_site_fract_z
Si Si1 0.703196 0.157282 0.415920
Si Si2 0.220363 0.449843 0.945009
Si Si3 0.256557 0.040483 0.742049
Si Si4 0.940441 0.720585 0.435862
Si Si5 0.500000 0.616810 0.750000
Si Si6 0.528421 0.683807 0.000036
O O1 0.737525 0.102174 0.371334
O O2 0.487868 0.178422 0.517061
O O3 0.782716 0.166401 0.527406
O O4 0.851702 0.183105 0.218779
O O5 0.295948 0.490414 0.795953
O O6 0.304514 0.453322 0.056205
O O7 0.989341 0.457012 0.099666
O O8 0.171417 0.081761 0.694553
O O9 0.750000 0.750000 0.500000
O O10 0.000000 0.698697 0.250000
O O11 0.066817 0.764045 0.419767
O O12 0.531552 0.650730 0.596040
#
# Coordination Sequence:
#
# PCOD9296793 Si02
#       6
#     8   8   8   8   4   8
#     4  11  25  46  70  98 142 188 233 290 359 426
#     4  10  23  46  66  98 136 189 232 288 357 423
#     4  10  24  43  67 100 138 182 238 290 350 419
#     4  12  25  46  70 105 137 181 238 295 358 424
#     4  12  24  42  70 106 142 186 238 298 346 418
#     4  11  25  44  68 104 140 185 236 288 356 430
#
# _framework density 24.060414000000002
#
# number of rings (size 3 to 8) (size 9 to 14) (size 15 to 20)
#    0.000    1.091    4.545    0.545    5.091    2.182 
#    3.273    0.000    0.000    0.000    0.000    0.000 
#    0.000    0.000    0.000    0.000    0.000    0.000 
#
# Total GULP energy -122951.648950 kJ/mol
# GULP energy per Si atom -5588.711316 kJ/mol
# Density = 2.400565 g / cm^3
# Si number density = 24.060414 Si / 1000 Ang^3
#
#
#
# Elastic Constant Matrix: (Units=GPa)
#
#
# Indices 1 2 3 4 5 6 
#
# 1 127.9227 48.5498 45.3770 0.0000 28.5963 0.0000
# 2 48.5498 181.9831 33.4748 0.0000 26.9372 0.0000
# 3 45.3770 33.4748 71.8359 0.0000 16.1542 0.0000
# 4 0.0000 0.0000 0.0000 29.2290 0.0000 12.1449
# 5 28.5963 26.9372 16.1542 0.0000 36.0441 0.0000
# 6 0.0000 0.0000 0.0000 12.1449 0.0000 29.4671
#
#
#
# Elastic Compliance Matrix: (Units=1/GPa)
#
#
# Indices 1 2 3 4 5 6 
#
# 1 0.011483 -0.001216 -0.005385 0.000000 -0.005788 0.000000
# 2 -0.001216 0.006590 -0.001571 0.000000 -0.003257 0.000000
# 3 -0.005385 -0.001571 0.018716 0.000000 -0.002942 0.000000
# 4 0.000000 0.000000 0.000000 0.041282 0.000000 -0.017015
# 5 -0.005788 -0.003257 -0.002942 0.000000 0.036088 0.000000
# 6 0.000000 0.000000 0.000000 -0.017015 0.000000 0.040949
#
#
# Mechanical properties :
#
#
# Convention : Reuss Voigt Hill
#
# Bulk Modulus (GPa) = 48.91122 70.72718 59.81920
# Shear Modulus (GPa) = 28.04791 35.90407 31.97599
#
# Velocity S-wave (km/s) = 3.41798 3.86715 3.64948
# Velocity P-wave (km/s) = 5.99578 7.02846 6.53256
#
# Compressibility (1/GPa) = 0.02044521
#
# Stress axis : x y z
#
# Youngs Moduli (GPa) = 87.08656 151.73627 53.43103
#
# Poissons Ratio (x) = 0.18453 0.28774
# Poissons Ratio (y) = 0.10591 0.08392
# Poissons Ratio (z) = 0.46898 0.23831
#
# Static dielectric constant tensor:
#      x y z
#    x 1.995030 0.000000 -0.061850 
#    y 0.000000 1.881000 0.000000 
#    z -0.061850 0.000000 1.943660 
# 
# From -- ./inp_files/25968.got.cif
#   From: 2010.05.17/outbox.cif.g08.bks.cpg/sg15_13_cif.got.tgz:25968.got - 2010.06.03 18:47:42.
