data_PCOD9296445
_publ_section_title
;
Structure prediction by ZEFSAII (Michael W. Deem and Ramdas Pophale) SiO2 
 PCOD9296445
Probable space group: C 2/C
;
_chemical_formula_sum "Si O2"
_cell_formula_units_Z 28
_cell_length_a 30.698442
_cell_length_b 5.115871
_cell_length_c 9.432673
_cell_angle_alpha 90.000000
_cell_angle_beta 45.919129
_cell_angle_gamma 90.000000
_cell_volume 1064.172405
_symmetry_space_group_name_H-M "C 2/C"
_symmetry_group_IT_number 15
_symmetry_cell_setting 'monoclinic'
loop_
_space_group_symop_operation_xyz
x,y,z
-x,y,1/2-z
-x,-y,-z
x,-y,1/2+z
1/2+x,1/2+y,z
1/2-x,1/2+y,1/2-z
1/2-x,1/2-y,-z
1/2+x,1/2-y,1/2+z
loop_
_atom_site_type_symbol
_atom_site_label
_atom_site_fract_x
_atom_site_fract_y
_atom_site_fract_z
Si Si1 0.304913 0.481879 0.011883
Si Si2 0.500000 0.500000 0.000000
Si Si3 0.173746 0.521546 0.232568
Si Si4 0.910132 0.156405 0.953916
O O1 0.321838 0.726503 0.874320
O O2 0.348854 0.505579 0.046289
O O3 0.318048 0.220711 0.894950
O O4 0.232915 0.508576 0.199631
O O5 0.444311 0.538510 0.011286
O O6 0.545954 0.642197 0.780294
O O7 0.112440 0.447890 0.454508
#
# Coordination Sequence:
#
# PCOD9296445 Si02
#       4
#     8   4   8   8
#     4  10  23  44  76 118 156 200 262 332 416 485
#     4  10  24  46  78 114 164 224 282 322 402 488
#     4  10  23  44  76 116 155 202 259 334 415 487
#     4  11  22  48  80 116 166 214 276 344 400 496
#
# _framework density 26.311527999999999
#
# number of rings (size 3 to 8) (size 9 to 14) (size 15 to 20)
#    0.000    1.714    2.857    0.000    0.000    9.143 
#    0.000    5.714    0.000    0.000    0.000    0.000 
#    0.000    0.000    0.000    0.000    0.000    0.000 
#
# Total GULP energy -78031.707264 kJ/mol
# GULP energy per Si atom -5573.693376 kJ/mol
# Density = 2.625164 g / cm^3
# Si number density = 26.311528 Si / 1000 Ang^3
#
#
#
# Elastic Constant Matrix: (Units=GPa)
#
#
# Indices 1 2 3 4 5 6 
#
# 1 276.6818 43.7269 51.7081 0.0000 8.8278 0.0000
# 2 43.7269 139.4085 63.6006 0.0000 13.5786 0.0000
# 3 51.7081 63.6006 197.1811 0.0000 -7.4539 0.0000
# 4 0.0000 0.0000 0.0000 42.8862 0.0000 2.4974
# 5 8.8278 13.5786 -7.4539 0.0000 47.5380 0.0000
# 6 0.0000 0.0000 0.0000 2.4974 0.0000 6.9300
#
#
#
# Elastic Compliance Matrix: (Units=1/GPa)
#
#
# Indices 1 2 3 4 5 6 
#
# 1 0.003909 -0.000806 -0.000788 0.000000 -0.000619 0.000000
# 2 -0.000806 0.008978 -0.002792 0.000000 -0.002852 0.000000
# 3 -0.000788 -0.002792 0.006252 0.000000 0.001924 0.000000
# 4 0.000000 0.000000 0.000000 0.023817 0.000000 -0.008583
# 5 -0.000619 -0.002852 0.001924 0.000000 0.022267 0.000000
# 6 0.000000 0.000000 0.000000 -0.008583 0.000000 0.147393
#
#
# Mechanical properties :
#
#
# Convention : Reuss Voigt Hill
#
# Bulk Modulus (GPa) = 96.48129 103.48252 99.98190
# Shear Modulus (GPa) = 22.23763 49.75323 35.99543
#
# Velocity S-wave (km/s) = 2.91033 4.35320 3.70273
# Velocity P-wave (km/s) = 6.93122 8.04253 7.50746
#
# Compressibility (1/GPa) = 0.01036470
#
# Stress axis : x y z
#
# Youngs Moduli (GPa) = 255.83636 111.38754 159.95888
#
# Poissons Ratio (x) = 0.08978 0.12612
# Poissons Ratio (y) = 0.20620 0.44664
# Poissons Ratio (z) = 0.20171 0.31102
#
# Static dielectric constant tensor:
#      x y z
#    x 1.988600 0.000000 -0.027420 
#    y 0.000000 2.138250 0.000000 
#    z -0.027420 0.000000 2.085800 
# 
# From -- ./inp_files/67847.got.cif
#   From: 2010.05.17/outbox.cif.g08.bks.cpg/sg15_34_cif.got.tgz:67847.got - 2010.06.03 18:47:42.
