data_PCOD9296735
_publ_section_title
;
Structure prediction by ZEFSAII (Michael W. Deem and Ramdas Pophale) SiO2 
 PCOD9296735
Probable space group: C 2/C
;
_chemical_formula_sum "Si O2"
_cell_formula_units_Z 52
_cell_length_a 14.505103
_cell_length_b 5.760411
_cell_length_c 28.113532
_cell_angle_alpha 90.000000
_cell_angle_beta 70.324626
_cell_angle_gamma 90.000000
_cell_volume 2211.888474
_symmetry_space_group_name_H-M "C 2/C"
_symmetry_group_IT_number 15
_symmetry_cell_setting 'monoclinic'
loop_
_space_group_symop_operation_xyz
x,y,z
-x,y,1/2-z
-x,-y,-z
x,-y,1/2+z
1/2+x,1/2+y,z
1/2-x,1/2+y,1/2-z
1/2-x,1/2-y,-z
1/2+x,1/2-y,1/2+z
loop_
_atom_site_type_symbol
_atom_site_label
_atom_site_fract_x
_atom_site_fract_y
_atom_site_fract_z
Si Si1 0.108540 0.241292 0.451453
Si Si2 0.735317 0.429387 0.136855
Si Si3 0.189022 0.666182 0.691192
Si Si4 0.012239 0.742298 0.437420
Si Si5 0.000000 0.420872 0.750000
Si Si6 0.010193 0.132359 0.665741
Si Si7 0.344809 0.298244 0.695847
O O1 0.218348 0.289304 0.414254
O O2 0.058779 0.487015 0.441280
O O3 0.082260 0.239649 0.511680
O O4 0.070779 0.987637 0.438948
O O5 0.719760 0.704530 0.137713
O O6 0.621582 0.368170 0.165371
O O7 0.810422 0.413812 0.168750
O O8 0.079812 0.569165 0.708716
O O9 0.272727 0.482086 0.684618
O O10 0.180687 0.788047 0.744463
O O11 0.991055 0.752694 0.385343
O O12 0.950975 0.266875 0.717339
O O13 0.955164 0.886326 0.670636
#
# Coordination Sequence:
#
# PCOD9296735 Si02
#       7
#     8   8   8   8   4   8   8
#     4  10  23  46  74 105 139 184 247 301 360 447
#     4  12  25  42  66 100 136 182 242 295 356 441
#     4  12  24  42  65  93 139 186 239 295 359 432
#     4  10  23  45  75 104 139 190 237 301 376 427
#     4  12  26  42  66 106 144 184 248 298 358 460
#     4  12  25  43  67 101 141 186 234 297 369 430
#     4  12  23  42  62  93 132 188 228 290 360 420
#
# _framework density 23.509321
#
# number of rings (size 3 to 8) (size 9 to 14) (size 15 to 20)
#    0.000    0.615    4.615    3.692    2.154    1.846 
#    0.000    0.000    0.000    6.462    0.000    0.000 
#    0.000    0.000    0.000    0.000    0.000    0.000 
#
# Total GULP energy -144851.474310 kJ/mol
# GULP energy per Si atom -5571.210550 kJ/mol
# Density = 2.345581 g / cm^3
# Si number density = 23.509321 Si / 1000 Ang^3
#
#
#
# Elastic Constant Matrix: (Units=GPa)
#
#
# Indices 1 2 3 4 5 6 
#
# 1 90.8556 22.0608 16.9761 0.0001 -11.8271 -0.0002
# 2 22.0608 68.8622 8.2166 0.0011 -2.4594 -0.0003
# 3 16.9761 8.2166 110.9307 0.0004 1.9578 0.0002
# 4 0.0001 0.0011 0.0004 38.5333 0.0000 -6.6848
# 5 -11.8271 -2.4594 1.9578 0.0000 38.4162 0.0000
# 6 -0.0002 -0.0003 0.0002 -6.6848 0.0000 30.4625
#
#
#
# Elastic Compliance Matrix: (Units=1/GPa)
#
#
# Indices 1 2 3 4 5 6 
#
# 1 0.012729 -0.003736 -0.001738 0.000000 0.003768 0.000000
# 2 -0.003736 0.015786 -0.000596 0.000000 -0.000109 0.000000
# 3 -0.001738 -0.000596 0.009343 0.000000 -0.001049 0.000000
# 4 0.000000 0.000000 0.000000 0.026979 0.000000 0.005920
# 5 0.003768 -0.000109 -0.001049 0.000000 0.027237 0.000000
# 6 0.000000 0.000000 0.000000 0.005920 0.000000 0.034126
#
#
# Mechanical properties :
#
#
# Convention : Reuss Voigt Hill
#
# Bulk Modulus (GPa) = 38.88126 40.57284 39.72705
# Shear Modulus (GPa) = 34.03407 36.37541 35.20474
#
# Velocity S-wave (km/s) = 3.80897 3.93781 3.87393
# Velocity P-wave (km/s) = 5.99324 6.16204 6.07823
#
# Compressibility (1/GPa) = 0.02571933
#
# Stress axis : x y z
#
# Youngs Moduli (GPa) = 78.56203 63.34820 107.02968
#
# Poissons Ratio (x) = 0.23666 0.18599
# Poissons Ratio (y) = 0.29350 0.06375
# Poissons Ratio (z) = 0.13652 0.03773
#
# Static dielectric constant tensor:
#      x y z
#    x 1.978670 0.000000 0.055990 
#    y 0.000000 2.140570 0.000000 
#    z 0.055990 0.000000 1.959660 
# 
# From -- ./inp_files/312302.got.cif
#   From: 2010.05.17/outbox.cif.g08.bks.cpg/sg15_157_cif.got.tgz:312302.got - 2010.06.03 18:47:42.
