data_PCOD9296284
_publ_section_title
;
Structure prediction by ZEFSAII (Michael W. Deem and Ramdas Pophale) SiO2 
 PCOD9296284
Probable space group: C 2/C
;
_chemical_formula_sum "Si O2"
_cell_formula_units_Z 40
_cell_length_a 10.908131
_cell_length_b 29.371605
_cell_length_c 7.387956
_cell_angle_alpha 90.000000
_cell_angle_beta 49.855298
_cell_angle_gamma 90.000000
_cell_volume 1809.395826
_symmetry_space_group_name_H-M "C 2/C"
_symmetry_group_IT_number 15
_symmetry_cell_setting 'monoclinic'
loop_
_space_group_symop_operation_xyz
x,y,z
-x,y,1/2-z
-x,-y,-z
x,-y,1/2+z
1/2+x,1/2+y,z
1/2-x,1/2+y,1/2-z
1/2-x,1/2-y,-z
1/2+x,1/2-y,1/2+z
loop_
_atom_site_type_symbol
_atom_site_label
_atom_site_fract_x
_atom_site_fract_y
_atom_site_fract_z
Si Si1 0.775629 0.142746 0.119703
Si Si2 0.658131 0.529678 0.811935
Si Si3 0.836094 0.451230 0.796756
Si Si4 0.315139 0.199980 0.979539
Si Si5 0.648945 0.368877 0.363332
O O1 0.685718 0.097303 0.276552
O O2 0.706722 0.185884 0.290222
O O3 0.762537 0.141734 0.913410
O O4 0.962061 0.138835 0.996784
O O5 0.806116 0.495842 0.708358
O O6 0.687066 0.545482 0.579586
O O7 0.664446 0.577957 0.907081
O O8 0.500000 0.500000 0.000000
O O9 0.000000 0.450871 0.750000
O O10 0.500000 0.197016 0.750000
O O11 0.215238 0.164052 0.953732
O O12 0.250000 0.250000 0.000000
#
# Coordination Sequence:
#
# PCOD9296284 Si02
#       5
#     8   8   8   8   8
#     4  10  23  44  70  99 139 179 232 286 350 423
#     4  11  22  39  63  96 135 186 233 270 339 414
#     4  11  24  38  61  96 137 181 230 287 341 404
#     4  12  28  47  74 104 136 179 234 297 363 425
#     4  10  23  44  72 101 139 189 232 288 351 415
#
# _framework density 22.106826999999999
#
# number of rings (size 3 to 8) (size 9 to 14) (size 15 to 20)
#    0.000    1.200    2.000    3.000    8.400    3.200 
#    0.000    0.000    0.000    0.000    0.000    0.000 
#    0.000    0.000    0.000    0.000    0.000    0.000 
#
# Total GULP energy -111781.865250 kJ/mol
# GULP energy per Si atom -5589.093262 kJ/mol
# Density = 2.205651 g / cm^3
# Si number density = 22.106827 Si / 1000 Ang^3
#
#
#
# Elastic Constant Matrix: (Units=GPa)
#
#
# Indices 1 2 3 4 5 6 
#
# 1 83.3279 36.4211 11.5810 0.0000 -11.6065 0.0000
# 2 36.4211 160.7549 35.4388 0.0000 5.0668 0.0000
# 3 11.5810 35.4388 75.7100 0.0000 -0.9753 0.0000
# 4 0.0000 0.0000 0.0000 28.3040 0.0000 9.4147
# 5 -11.6065 5.0668 -0.9753 0.0000 32.3510 0.0000
# 6 0.0000 0.0000 0.0000 9.4147 0.0000 25.3689
#
#
#
# Elastic Compliance Matrix: (Units=1/GPa)
#
#
# Indices 1 2 3 4 5 6 
#
# 1 0.014303 -0.003291 -0.000575 0.000000 0.005630 0.000000
# 2 -0.003291 0.007739 -0.003151 0.000000 -0.002488 0.000000
# 3 -0.000575 -0.003151 0.014781 0.000000 0.000733 0.000000
# 4 0.000000 0.000000 0.000000 0.040306 0.000000 -0.014958
# 5 0.005630 -0.002488 0.000733 0.000000 0.033342 0.000000
# 6 0.000000 0.000000 0.000000 -0.014958 0.000000 0.044969
#
#
# Mechanical properties :
#
#
# Convention : Reuss Voigt Hill
#
# Bulk Modulus (GPa) = 43.88135 54.07498 48.97817
# Shear Modulus (GPa) = 28.23696 32.96158 30.59927
#
# Velocity S-wave (km/s) = 3.57780 3.86555 3.72446
# Velocity P-wave (km/s) = 6.07950 6.66612 6.37956
#
# Compressibility (1/GPa) = 0.02278872
#
# Stress axis : x y z
#
# Youngs Moduli (GPa) = 69.91341 129.20756 67.65559
#
# Poissons Ratio (x) = 0.42527 0.03889
# Poissons Ratio (y) = 0.23011 0.21321
# Poissons Ratio (z) = 0.04018 0.40718
#
# Static dielectric constant tensor:
#      x y z
#    x 1.820050 0.000000 0.047300 
#    y 0.000000 1.867260 0.000000 
#    z 0.047300 0.000000 1.921620 
# 
# From -- ./inp_files/34713.got.cif
#   From: 2010.05.17/outbox.cif.g08.bks.cpg/sg15_18_cif.got.tgz:34713.got - 2010.06.03 18:47:42.
