data_PCOD9296827
_publ_section_title
;
Structure prediction by ZEFSAII (Michael W. Deem and Ramdas Pophale) SiO2 
 PCOD9296827
Probable space group: C 2/C
;
_chemical_formula_sum "Si O2"
_cell_formula_units_Z 44
_cell_length_a 14.203112
_cell_length_b 5.227077
_cell_length_c 26.562536
_cell_angle_alpha 90.000000
_cell_angle_beta 90.015367
_cell_angle_gamma 90.000000
_cell_volume 1972.022791
_symmetry_space_group_name_H-M "C 2/C"
_symmetry_group_IT_number 15
_symmetry_cell_setting 'monoclinic'
loop_
_space_group_symop_operation_xyz
x,y,z
-x,y,1/2-z
-x,-y,-z
x,-y,1/2+z
1/2+x,1/2+y,z
1/2-x,1/2+y,1/2-z
1/2-x,1/2-y,-z
1/2+x,1/2-y,1/2+z
loop_
_atom_site_type_symbol
_atom_site_label
_atom_site_fract_x
_atom_site_fract_y
_atom_site_fract_z
Si Si1 0.639161 0.268525 0.110968
Si Si2 0.360967 0.269780 0.611373
Si Si3 0.365050 0.766443 0.328436
Si Si4 0.062841 0.747932 0.999841
Si Si5 0.500000 0.500207 0.750000
Si Si6 0.364581 0.232393 0.171907
O O1 0.750027 0.249274 0.116144
O O2 0.612172 0.549074 0.130007
O O3 0.887712 0.949296 0.130313
O O4 0.617376 0.238566 0.052433
O O5 0.392402 0.041252 0.648440
O O6 0.607222 0.960408 0.647812
O O7 0.383402 0.238686 0.552950
O O8 0.429255 0.679941 0.281971
O O9 0.250275 0.749578 0.317920
O O10 0.000000 0.500000 0.000000
O O11 0.000000 0.000000 0.000000
O O12 0.571391 0.680466 0.781580
#
# Coordination Sequence:
#
# PCOD9296827 Si02
#       6
#     8   8   8   8   4   8
#     4  10  23  46  68  97 140 181 223 280 345 416
#     4  10  23  46  68  97 140 181 223 280 345 416
#     4  10  25  45  71 104 138 181 237 290 345 422
#     4  12  25  38  69 106 138 175 225 278 338 430
#     4  12  28  46  80  98 144 190 240 302 372 406
#     4  10  25  45  71 104 138 181 237 290 345 422
#
# _framework density 22.312114000000001
#
# number of rings (size 3 to 8) (size 9 to 14) (size 15 to 20)
#    0.000    1.455    0.000    2.727    7.636    7.273 
#    0.000    7.273    0.000    0.000    0.000    0.000 
#    0.000    0.000    0.000    0.000    0.000    0.000 
#
# Total GULP energy -123024.675804 kJ/mol
# GULP energy per Si atom -5592.030718 kJ/mol
# Density = 2.226133 g / cm^3
# Si number density = 22.312114 Si / 1000 Ang^3
#
#
#
# Elastic Constant Matrix: (Units=GPa)
#
#
# Indices 1 2 3 4 5 6 
#
# 1 106.8741 21.3895 48.2445 0.0000 0.1620 0.0000
# 2 21.3895 126.9603 33.3026 0.0000 -2.9799 0.0000
# 3 48.2445 33.3026 136.5856 0.0000 -11.3955 0.0000
# 4 0.0000 0.0000 0.0000 10.4377 0.0000 2.0067
# 5 0.1620 -2.9799 -11.3955 0.0000 25.0262 0.0000
# 6 0.0000 0.0000 0.0000 2.0067 0.0000 14.2504
#
#
#
# Elastic Compliance Matrix: (Units=1/GPa)
#
#
# Indices 1 2 3 4 5 6 
#
# 1 0.011323 -0.000921 -0.003940 0.000000 -0.001977 0.000000
# 2 -0.000921 0.008490 -0.001726 0.000000 0.000231 0.000000
# 3 -0.003940 -0.001726 0.009479 0.000000 0.004136 0.000000
# 4 0.000000 0.000000 0.000000 0.098472 0.000000 -0.013867
# 5 -0.001977 0.000231 0.004136 0.000000 0.041882 0.000000
# 6 0.000000 0.000000 0.000000 -0.013867 0.000000 0.072126
#
#
# Mechanical properties :
#
#
# Convention : Reuss Voigt Hill
#
# Bulk Modulus (GPa) = 62.03760 64.03258 63.03509
# Shear Modulus (GPa) = 19.20741 27.77509 23.49125
#
# Velocity S-wave (km/s) = 2.93721 3.53206 3.24828
# Velocity P-wave (km/s) = 6.27437 6.73757 6.51009
#
# Compressibility (1/GPa) = 0.01611926
#
# Stress axis : x y z
#
# Youngs Moduli (GPa) = 88.31959 117.79116 105.49827
#
# Poissons Ratio (x) = 0.10843 0.41564
# Poissons Ratio (y) = 0.08130 0.18204
# Poissons Ratio (z) = 0.34796 0.20325
#
# Static dielectric constant tensor:
#      x y z
#    x 1.817820 0.000000 0.161450 
#    y 0.000000 1.895210 0.000000 
#    z 0.161450 0.000000 0.911850 
# 
# From -- ./inp_files/294307.got.cif
#   From: 2010.05.17/outbox.cif.g08.bks.cpg/sg15_148_cif.got.tgz:294307.got - 2010.06.03 18:47:42.
