data_PCOD9296642
_publ_section_title
;
Structure prediction by ZEFSAII (Michael W. Deem and Ramdas Pophale) SiO2 
 PCOD9296642
Probable space group: C 2/C
;
_chemical_formula_sum "Si O2"
_cell_formula_units_Z 32
_cell_length_a 7.937697
_cell_length_b 20.066214
_cell_length_c 8.757566
_cell_angle_alpha 90.000000
_cell_angle_beta 71.123179
_cell_angle_gamma 90.000000
_cell_volume 1319.878063
_symmetry_space_group_name_H-M "C 2/C"
_symmetry_group_IT_number 15
_symmetry_cell_setting 'monoclinic'
loop_
_space_group_symop_operation_xyz
x,y,z
-x,y,1/2-z
-x,-y,-z
x,-y,1/2+z
1/2+x,1/2+y,z
1/2-x,1/2+y,1/2-z
1/2-x,1/2-y,-z
1/2+x,1/2-y,1/2+z
loop_
_atom_site_type_symbol
_atom_site_label
_atom_site_fract_x
_atom_site_fract_y
_atom_site_fract_z
Si Si1 0.795743 0.081447 0.251380
Si Si2 0.819279 0.462451 0.398305
Si Si3 0.137709 0.169491 0.850537
Si Si4 0.841752 0.774259 0.629227
O O1 0.672084 0.053868 0.424645
O O2 0.756501 0.157806 0.220195
O O3 0.000000 0.075585 0.250000
O O4 0.762504 0.034498 0.115624
O O5 0.689974 0.405148 0.372627
O O6 0.000000 0.455729 0.250000
O O7 0.305053 0.213783 0.752955
O O8 0.000000 0.169719 0.750000
O O9 0.038454 0.203516 0.022452
O O10 0.750000 0.750000 0.500000
#
# Coordination Sequence:
#
# PCOD9296642 Si02
#       4
#     8   8   8   8
#     4  12  26  48  75 106 142 193 241 292 357 427
#     4  12  28  45  73 106 149 187 241 295 356 423
#     4  10  23  45  71 103 140 191 235 295 357 424
#     4  10  24  43  73 104 142 185 237 294 357 420
#
# _framework density 24.244662000000002
#
# number of rings (size 3 to 8) (size 9 to 14) (size 15 to 20)
#    0.000    1.000    2.500    2.250   10.500    5.000 
#    0.000    0.000    0.000    0.000    0.000    0.000 
#    0.000    0.000    0.000    0.000    0.000    0.000 
#
# Total GULP energy -89629.453341 kJ/mol
# GULP energy per Si atom -5601.840834 kJ/mol
# Density = 2.418948 g / cm^3
# Si number density = 24.244662 Si / 1000 Ang^3
#
#
#
# Elastic Constant Matrix: (Units=GPa)
#
#
# Indices 1 2 3 4 5 6 
#
# 1 70.5232 13.3330 17.7721 0.0000 0.2086 0.0000
# 2 13.3330 104.3099 22.0607 0.0000 25.3412 0.0000
# 3 17.7721 22.0607 109.7095 0.0000 3.6930 0.0000
# 4 0.0000 0.0000 0.0000 48.1951 0.0000 8.0972
# 5 0.2086 25.3412 3.6930 0.0000 37.7936 0.0000
# 6 0.0000 0.0000 0.0000 8.0972 0.0000 40.5797
#
#
#
# Elastic Compliance Matrix: (Units=1/GPa)
#
#
# Indices 1 2 3 4 5 6 
#
# 1 0.015050 -0.001798 -0.002121 0.000000 0.001330 0.000000
# 2 -0.001798 0.012147 -0.001884 0.000000 -0.007950 0.000000
# 3 -0.002121 -0.001884 0.009827 0.000000 0.000314 0.000000
# 4 0.000000 0.000000 0.000000 0.021469 0.000000 -0.004284
# 5 0.001330 -0.007950 0.000314 0.000000 0.031752 0.000000
# 6 0.000000 0.000000 0.000000 -0.004284 0.000000 0.025498
#
#
# Mechanical properties :
#
#
# Convention : Reuss Voigt Hill
#
# Bulk Modulus (GPa) = 39.34273 43.43048 41.38660
# Shear Modulus (GPa) = 36.81320 40.73879 38.77599
#
# Velocity S-wave (km/s) = 3.90090 4.10362 4.00354
# Velocity P-wave (km/s) = 6.04582 6.35651 6.20311
#
# Compressibility (1/GPa) = 0.02541766
#
# Stress axis : x y z
#
# Youngs Moduli (GPa) = 66.44377 82.32805 101.76285
#
# Poissons Ratio (x) = 0.14804 0.21586
# Poissons Ratio (y) = 0.11948 0.19167
# Poissons Ratio (z) = 0.14094 0.15507
#
# Static dielectric constant tensor:
#      x y z
#    x 1.981760 0.000000 0.038380 
#    y 0.000000 1.852100 0.000000 
#    z 0.038380 0.000000 2.003120 
# 
# From -- ./inp_files/23021.got.cif
#   From: 2010.05.17/outbox.cif.g08.bks.cpg/sg15_12_cif.got.tgz:23021.got - 2010.06.03 18:47:42.
