data_PCOD9296260
_publ_section_title
;
Structure prediction by ZEFSAII (Michael W. Deem and Ramdas Pophale) SiO2 
 PCOD9296260
Probable space group: C 2/C
;
_chemical_formula_sum "Si O2"
_cell_formula_units_Z 48
_cell_length_a 23.611225
_cell_length_b 10.316017
_cell_length_c 20.717699
_cell_angle_alpha 90.000000
_cell_angle_beta 19.730120
_cell_angle_gamma 90.000000
_cell_volume 1703.577271
_symmetry_space_group_name_H-M "C 2/C"
_symmetry_group_IT_number 15
_symmetry_cell_setting 'monoclinic'
loop_
_space_group_symop_operation_xyz
x,y,z
-x,y,1/2-z
-x,-y,-z
x,-y,1/2+z
1/2+x,1/2+y,z
1/2-x,1/2+y,1/2-z
1/2-x,1/2-y,-z
1/2+x,1/2-y,1/2+z
loop_
_atom_site_type_symbol
_atom_site_label
_atom_site_fract_x
_atom_site_fract_y
_atom_site_fract_z
Si Si1 0.808298 0.344107 0.351660
Si Si2 0.330645 0.940698 0.491976
Si Si3 0.539944 0.456253 0.886810
Si Si4 0.771316 0.157433 0.148066
Si Si5 0.316603 0.411069 0.464085
Si Si6 0.555889 0.182235 0.926062
O O1 0.765588 0.197270 0.416194
O O2 0.666203 0.438401 0.531115
O O3 0.979674 0.398066 0.199467
O O4 0.827712 0.377825 0.254494
O O5 0.233764 0.976587 0.661489
O O6 0.291697 0.057129 0.484355
O O7 0.500000 0.500000 0.000000
O O8 0.430884 0.562770 0.967611
O O9 0.502630 0.303299 0.935087
O O10 0.609698 0.119633 0.365452
O O11 0.845477 0.268478 0.116287
O O12 0.726571 0.167420 0.119474
O O13 0.500000 0.358411 0.250000
#
# Coordination Sequence:
#
# PCOD9296260 Si02
#       6
#     8   8   8   8   8   8
#     4  11  23  41  73 107 138 182 230 307 357 421
#     4  11  22  41  68 103 144 177 232 288 364 421
#     4   9  19  39  70  95 136 180 226 292 344 404
#     4  11  24  45  69 102 140 187 230 302 346 428
#     4  12  25  43  66  99 144 189 232 282 359 423
#     4  10  23  44  70 105 138 179 240 286 370 406
#
# _framework density 28.176003999999999
#
# number of rings (size 3 to 8) (size 9 to 14) (size 15 to 20)
#    0.000    1.333    1.667    5.000    4.667    0.667 
#    6.000    0.833    0.000    0.000    0.000    0.000 
#    0.000    0.000    0.000    0.000    0.000    0.000 
#
# Total GULP energy -133810.590084 kJ/mol
# GULP energy per Si atom -5575.441254 kJ/mol
# Density = 2.811187 g / cm^3
# Si number density = 28.176004 Si / 1000 Ang^3
#
#
#
# Elastic Constant Matrix: (Units=GPa)
#
#
# Indices 1 2 3 4 5 6 
#
# 1 164.1223 24.0179 38.0787 0.0002 18.1510 -0.0002
# 2 24.0179 61.5620 5.2918 0.0002 2.1194 -0.0004
# 3 38.0787 5.2918 152.2793 -0.0007 17.0142 0.0000
# 4 0.0002 0.0002 -0.0007 22.6834 -0.0002 15.6289
# 5 18.1510 2.1194 17.0142 -0.0002 51.5130 0.0003
# 6 -0.0002 -0.0004 0.0000 15.6289 0.0003 51.7752
#
#
#
# Elastic Compliance Matrix: (Units=1/GPa)
#
#
# Indices 1 2 3 4 5 6 
#
# 1 0.007011 -0.002546 -0.001454 0.000000 -0.001886 0.000000
# 2 -0.002546 0.017229 0.000017 0.000000 0.000182 0.000000
# 3 -0.001454 0.000017 0.007136 0.000000 -0.001845 0.000000
# 4 0.000000 0.000000 0.000000 0.055662 0.000000 -0.016802
# 5 -0.001886 0.000182 -0.001845 0.000000 0.020679 0.000000
# 6 0.000000 0.000000 0.000000 -0.016802 0.000000 0.024386
#
#
# Mechanical properties :
#
#
# Convention : Reuss Voigt Hill
#
# Bulk Modulus (GPa) = 42.71284 56.97114 49.84199
# Shear Modulus (GPa) = 33.81297 45.89933 39.85615
#
# Velocity S-wave (km/s) = 3.46795 4.04049 3.76512
# Velocity P-wave (km/s) = 5.58818 6.48314 6.05223
#
# Compressibility (1/GPa) = 0.02341216
#
# Stress axis : x y z
#
# Youngs Moduli (GPa) = 142.62389 58.04124 140.13315
#
# Poissons Ratio (x) = 0.14775 0.20377
# Poissons Ratio (y) = 0.36306 -0.00244
# Poissons Ratio (z) = 0.20740 -0.00101
#
# Static dielectric constant tensor:
#      x y z
#    x -0.041810 -0.000010 1.260980 
#    y -0.000010 3.801040 0.000010 
#    z 1.260980 0.000010 1.123330 
# 
# From -- ./inp_files/255676.got.cif
#   From: 2010.05.17/outbox.cif.g08.bks.cpg/sg15_128_cif.got.tgz:255676.got - 2010.06.03 18:47:42.
