data_PCOD9296457
_publ_section_title
;
Structure prediction by ZEFSAII (Michael W. Deem and Ramdas Pophale) SiO2 
 PCOD9296457
Probable space group: C 2/C
;
_chemical_formula_sum "Si O2"
_cell_formula_units_Z 28
_cell_length_a 8.109771
_cell_length_b 17.098628
_cell_length_c 9.021878
_cell_angle_alpha 90.000000
_cell_angle_beta 58.723946
_cell_angle_gamma 90.000000
_cell_volume 1069.222904
_symmetry_space_group_name_H-M "C 2/C"
_symmetry_group_IT_number 15
_symmetry_cell_setting 'monoclinic'
loop_
_space_group_symop_operation_xyz
x,y,z
-x,y,1/2-z
-x,-y,-z
x,-y,1/2+z
1/2+x,1/2+y,z
1/2-x,1/2+y,1/2-z
1/2-x,1/2-y,-z
1/2+x,1/2-y,1/2+z
loop_
_atom_site_type_symbol
_atom_site_label
_atom_site_fract_x
_atom_site_fract_y
_atom_site_fract_z
Si Si1 0.500000 0.561766 0.250000
Si Si2 0.000000 0.792314 0.250000
Si Si3 0.500000 0.117091 0.750000
Si Si4 0.349242 0.155409 0.126343
Si Si5 0.281718 0.071862 0.577708
O O1 0.644364 0.619946 0.265706
O O2 0.349010 0.502348 0.398505
O O3 0.898386 0.735611 0.181339
O O4 0.841779 0.850263 0.390759
O O5 0.616740 0.163079 0.567467
O O6 0.341483 0.071499 0.724909
O O7 0.511561 0.089710 0.088064
#
# Coordination Sequence:
#
# PCOD9296457 Si02
#       5
#     4   4   4   8   8
#     4  11  22  43  72  98 134 174 226 263 344 377
#     4  11  22  43  72  94 136 172 228 261 344 375
#     4   8  22  42  66  94 144 156 230 268 336 370
#     4  10  23  45  63 107 126 180 214 283 313 414
#     4   9  22  45  67 100 131 176 213 288 315 399
#
# _framework density 26.187242999999999
#
# number of rings (size 3 to 8) (size 9 to 14) (size 15 to 20)
#    1.714    0.571    0.000    1.714    0.000    4.571 
#   15.429    0.000    0.000    0.000    0.000    0.000 
#    0.000    0.000    0.000    0.000    0.000    0.000 
#
# Total GULP energy -78206.593918 kJ/mol
# GULP energy per Si atom -5586.185280 kJ/mol
# Density = 2.612764 g / cm^3
# Si number density = 26.187243 Si / 1000 Ang^3
#
#
#
# Elastic Constant Matrix: (Units=GPa)
#
#
# Indices 1 2 3 4 5 6 
#
# 1 165.6338 91.7767 67.9265 0.0000 -36.2779 0.0000
# 2 91.7767 162.3944 39.4630 0.0000 2.4905 0.0000
# 3 67.9265 39.4630 87.9195 0.0000 26.7672 0.0000
# 4 0.0000 0.0000 0.0000 20.1837 0.0000 -13.2099
# 5 -36.2779 2.4905 26.7672 0.0000 52.8647 0.0000
# 6 0.0000 0.0000 0.0000 -13.2099 0.0000 51.1783
#
#
#
# Elastic Compliance Matrix: (Units=1/GPa)
#
#
# Indices 1 2 3 4 5 6 
#
# 1 0.042261 -0.014563 -0.041560 0.000000 0.050731 0.000000
# 2 -0.014563 0.012028 0.010720 0.000000 -0.015988 0.000000
# 3 -0.041560 0.010720 0.056166 0.000000 -0.057464 0.000000
# 4 0.000000 0.000000 0.000000 0.059616 0.000000 0.015388
# 5 0.050731 -0.015988 -0.057464 0.000000 0.083579 0.000000
# 6 0.000000 0.000000 0.000000 0.015388 0.000000 0.023511
#
#
# Mechanical properties :
#
#
# Convention : Reuss Voigt Hill
#
# Bulk Modulus (GPa) = 50.88840 90.47557 70.68198
# Shear Modulus (GPa) = 13.35050 39.29743 26.32397
#
# Velocity S-wave (km/s) = 2.26035 3.87800 3.17396
# Velocity P-wave (km/s) = 5.12708 7.39435 6.36252
#
# Compressibility (1/GPa) = 0.01965084
#
# Stress axis : x y z
#
# Youngs Moduli (GPa) = 23.66222 83.13878 17.80421
#
# Poissons Ratio (x) = 1.21072 0.73994
# Poissons Ratio (y) = 0.34458 -0.19086
# Poissons Ratio (z) = 0.98340 -0.89123
#
# Static dielectric constant tensor:
#      x y z
#    x 2.105600 0.000000 0.045510 
#    y 0.000000 2.004380 0.000000 
#    z 0.045510 0.000000 2.096300 
# 
# From -- ./inp_files/49949.got.cif
#   From: 2010.05.17/outbox.cif.g08.bks.cpg/sg15_25_cif.got.tgz:49949.got - 2010.06.03 18:47:42.
