data_PCOD9296747
_publ_section_title
;
Structure prediction by ZEFSAII (Michael W. Deem and Ramdas Pophale) SiO2 
 PCOD9296747
Probable space group: C 2/C
;
_chemical_formula_sum "Si O2"
_cell_formula_units_Z 32
_cell_length_a 5.290573
_cell_length_b 18.394347
_cell_length_c 13.988197
_cell_angle_alpha 90.000000
_cell_angle_beta 74.093749
_cell_angle_gamma 90.000000
_cell_volume 1309.162621
_symmetry_space_group_name_H-M "C 2/C"
_symmetry_group_IT_number 15
_symmetry_cell_setting 'monoclinic'
loop_
_space_group_symop_operation_xyz
x,y,z
-x,y,1/2-z
-x,-y,-z
x,-y,1/2+z
1/2+x,1/2+y,z
1/2-x,1/2+y,1/2-z
1/2-x,1/2-y,-z
1/2+x,1/2-y,1/2+z
loop_
_atom_site_type_symbol
_atom_site_label
_atom_site_fract_x
_atom_site_fract_y
_atom_site_fract_z
Si Si1 0.435619 0.047613 0.866851
Si Si2 0.071343 0.036346 0.129800
Si Si3 0.978388 0.809266 0.959714
Si Si4 0.282127 0.315989 0.355450
O O1 0.500000 0.034911 0.750000
O O2 0.530454 0.130784 0.871586
O O3 0.144156 0.015025 0.899608
O O4 0.647608 0.001281 0.902049
O O5 0.000000 0.042902 0.250000
O O6 0.094733 0.115618 0.081800
O O7 0.184314 0.767135 0.869265
O O8 0.750000 0.750000 0.000000
O O9 0.099911 0.826363 0.050972
O O10 0.500000 0.330287 0.250000
#
# Coordination Sequence:
#
# PCOD9296747 Si02
#       4
#     8   8   8   8
#     4  10  23  45  76 110 138 196 251 300 379 437
#     4  10  24  45  75 105 150 192 244 309 367 443
#     4  11  29  46  71 116 145 203 254 299 389 453
#     4  11  27  48  75 105 151 197 250 318 372 457
#
# _framework density 24.443103000000001
#
# number of rings (size 3 to 8) (size 9 to 14) (size 15 to 20)
#    0.000    1.500    0.000    2.250   17.500    3.000 
#    0.000    0.000    0.000    0.000    0.000    0.000 
#    0.000    0.000    0.000    0.000    0.000    0.000 
#
# Total GULP energy -89566.821158 kJ/mol
# GULP energy per Si atom -5597.926322 kJ/mol
# Density = 2.438747 g / cm^3
# Si number density = 24.443103 Si / 1000 Ang^3
#
#
#
# Elastic Constant Matrix: (Units=GPa)
#
#
# Indices 1 2 3 4 5 6 
#
# 1 147.8489 75.7174 83.0811 0.0000 27.1622 0.0000
# 2 75.7174 178.0929 58.3035 0.0000 7.0896 0.0000
# 3 83.0811 58.3035 120.5013 0.0000 -25.0936 0.0000
# 4 0.0000 0.0000 0.0000 40.1761 0.0000 9.7705
# 5 27.1622 7.0896 -25.0936 0.0000 43.9970 0.0000
# 6 0.0000 0.0000 0.0000 9.7705 0.0000 24.4282
#
#
#
# Elastic Compliance Matrix: (Units=1/GPa)
#
#
# Indices 1 2 3 4 5 6 
#
# 1 0.026120 -0.002506 -0.022775 0.000000 -0.028711 0.000000
# 2 -0.002506 0.007366 -0.001998 0.000000 -0.000780 0.000000
# 3 -0.022775 -0.001998 0.031732 0.000000 0.032481 0.000000
# 4 0.000000 0.000000 0.000000 0.027572 0.000000 -0.011028
# 5 -0.028711 -0.000780 0.032481 0.000000 0.059105 0.000000
# 6 0.000000 0.000000 0.000000 -0.011028 0.000000 0.045347
#
#
# Mechanical properties :
#
#
# Convention : Reuss Voigt Hill
#
# Bulk Modulus (GPa) = 93.82036 97.84968 95.83502
# Shear Modulus (GPa) = 19.58062 37.00969 28.29515
#
# Velocity S-wave (km/s) = 2.83339 3.89539 3.40603
# Velocity P-wave (km/s) = 7.01217 7.76856 7.40004
#
# Compressibility (1/GPa) = 0.01065867
#
# Stress axis : x y z
#
# Youngs Moduli (GPa) = 38.28492 135.76327 31.51380
#
# Poissons Ratio (x) = 0.34023 0.71773
# Poissons Ratio (y) = 0.09594 0.06298
# Poissons Ratio (z) = 0.87195 0.27131
#
# Static dielectric constant tensor:
#      x y z
#    x 1.992420 0.000000 -0.056930 
#    y 0.000000 1.928790 0.000000 
#    z -0.056930 0.000000 1.949090 
# 
# From -- ./inp_files/128155.got.cif
#   From: 2010.05.17/outbox.cif.g08.bks.cpg/sg15_65_cif.got.tgz:128155.got - 2010.06.03 18:47:42.
