data_PCOD9296479
_publ_section_title
;
Structure prediction by ZEFSAII (Michael W. Deem and Ramdas Pophale) SiO2 
 PCOD9296479
Probable space group: C 2/C
;
_chemical_formula_sum "Si O2"
_cell_formula_units_Z 48
_cell_length_a 25.812058
_cell_length_b 4.851813
_cell_length_c 15.094429
_cell_angle_alpha 90.000000
_cell_angle_beta 106.975374
_cell_angle_gamma 90.000000
_cell_volume 1807.992877
_symmetry_space_group_name_H-M "C 2/C"
_symmetry_group_IT_number 15
_symmetry_cell_setting 'monoclinic'
loop_
_space_group_symop_operation_xyz
x,y,z
-x,y,1/2-z
-x,-y,-z
x,-y,1/2+z
1/2+x,1/2+y,z
1/2-x,1/2+y,1/2-z
1/2-x,1/2-y,-z
1/2+x,1/2-y,1/2+z
loop_
_atom_site_type_symbol
_atom_site_label
_atom_site_fract_x
_atom_site_fract_y
_atom_site_fract_z
Si Si1 0.274967 0.032738 0.639038
Si Si2 0.064606 0.976406 0.119388
Si Si3 0.682755 0.930641 0.516890
Si Si4 0.174282 0.782925 0.677766
Si Si5 0.568036 0.784632 0.429205
Si Si6 0.000000 0.500000 0.500000
Si Si7 0.500000 0.523096 0.750000
O O1 0.298786 0.903542 0.561325
O O2 0.233791 0.266687 0.581882
O O3 0.321904 0.144102 0.725143
O O4 0.235895 0.858482 0.682407
O O5 0.129349 0.982742 0.157998
O O6 0.040480 0.853076 0.197046
O O7 0.040028 0.280536 0.089365
O O8 0.048392 0.794337 0.024030
O O9 0.632045 0.748618 0.460177
O O10 0.659019 0.104850 0.585022
O O11 0.542312 0.082546 0.433813
O O12 0.541444 0.650430 0.331995
#
# Coordination Sequence:
#
# PCOD9296479 Si02
#       7
#     8   8   8   8   8   4   4
#     4  11  23  44  69 108 143 186 242 299 355 441
#     4  10  24  44  71 104 144 188 238 298 370 427
#     4  11  24  43  71 100 148 188 237 300 363 432
#     4  12  23  45  74 105 142 192 240 297 370 431
#     4  10  23  45  65 102 137 184 232 298 362 425
#     4   8  22  46  66  90 152 180 224 296 364 416
#     4  12  24  42  74 104 134 184 254 300 350 452
#
# _framework density 26.548777000000001
#
# number of rings (size 3 to 8) (size 9 to 14) (size 15 to 20)
#    1.000    0.333    3.333    2.000    2.333    0.667 
#    0.000    3.333    0.000    0.000    0.000    0.000 
#    0.000    0.000    0.000    0.000    0.000    0.000 
#
# Total GULP energy -133707.966123 kJ/mol
# GULP energy per Si atom -5571.165255 kJ/mol
# Density = 2.648835 g / cm^3
# Si number density = 26.548777 Si / 1000 Ang^3
#
#
#
# Elastic Constant Matrix: (Units=GPa)
#
#
# Indices 1 2 3 4 5 6 
#
# 1 111.5600 12.5879 62.3785 0.0000 2.9934 0.0000
# 2 12.5879 54.4598 39.7791 0.0000 -3.0144 0.0000
# 3 62.3785 39.7791 183.7592 0.0000 -10.9207 0.0000
# 4 0.0000 0.0000 0.0000 31.8837 0.0000 14.7908
# 5 2.9934 -3.0144 -10.9207 0.0000 49.1035 0.0000
# 6 0.0000 0.0000 0.0000 14.7908 0.0000 25.0046
#
#
#
# Elastic Compliance Matrix: (Units=1/GPa)
#
#
# Indices 1 2 3 4 5 6 
#
# 1 0.011180 0.000201 -0.003931 0.000000 -0.001543 0.000000
# 2 0.000201 0.021819 -0.004776 0.000000 0.000265 0.000000
# 3 -0.003931 -0.004776 0.007911 0.000000 0.001706 0.000000
# 4 0.000000 0.000000 0.000000 0.043225 0.000000 -0.025569
# 5 -0.001543 0.000265 0.001706 0.000000 0.020855 0.000000
# 6 0.000000 0.000000 0.000000 -0.025569 0.000000 0.055117
#
#
# Mechanical properties :
#
#
# Convention : Reuss Voigt Hill
#
# Bulk Modulus (GPa) = 41.84037 64.36331 53.10184
# Shear Modulus (GPa) = 27.01473 36.86726 31.94099
#
# Velocity S-wave (km/s) = 3.19337 3.73052 3.47234
# Velocity P-wave (km/s) = 5.42133 6.54612 6.01010
#
# Compressibility (1/GPa) = 0.02390037
#
# Stress axis : x y z
#
# Youngs Moduli (GPa) = 89.44362 45.83229 126.40040
#
# Poissons Ratio (x) = -0.00923 0.49682
# Poissons Ratio (y) = -0.01801 0.60366
# Poissons Ratio (z) = 0.35156 0.21888
#
# Static dielectric constant tensor:
#      x y z
#    x 2.218990 0.000000 -0.003570 
#    y 0.000000 2.197850 0.000000 
#    z -0.003570 0.000000 2.079520 
# 
# From -- ./inp_files/179810.got.cif
#   From: 2010.05.17/outbox.cif.g08.bks.cpg/sg15_90_cif.got.tgz:179810.got - 2010.06.03 18:47:42.
