data_PCOD9296271
_publ_section_title
;
Structure prediction by ZEFSAII (Michael W. Deem and Ramdas Pophale) SiO2 
 PCOD9296271
Probable space group: C 2/C
;
_chemical_formula_sum "Si O2"
_cell_formula_units_Z 48
_cell_length_a 27.469937
_cell_length_b 10.794250
_cell_length_c 22.122699
_cell_angle_alpha 90.000000
_cell_angle_beta 161.085680
_cell_angle_gamma 90.000000
_cell_volume 2126.373001
_symmetry_space_group_name_H-M "C 2/C"
_symmetry_group_IT_number 15
_symmetry_cell_setting 'monoclinic'
loop_
_space_group_symop_operation_xyz
x,y,z
-x,y,1/2-z
-x,-y,-z
x,-y,1/2+z
1/2+x,1/2+y,z
1/2-x,1/2+y,1/2-z
1/2-x,1/2-y,-z
1/2+x,1/2-y,1/2+z
loop_
_atom_site_type_symbol
_atom_site_label
_atom_site_fract_x
_atom_site_fract_y
_atom_site_fract_z
Si Si1 0.571733 0.931668 0.941068
Si Si2 0.385919 0.642843 0.506077
Si Si3 0.732356 0.518802 0.536553
Si Si4 0.842916 0.034340 0.187097
Si Si5 0.802648 0.280798 0.216200
Si Si6 0.128053 0.626506 0.107768
O O1 0.408079 0.987135 0.735287
O O2 0.567690 0.785012 0.943996
O O3 0.690630 0.966022 0.028904
O O4 0.629299 0.003034 0.068540
O O5 0.348696 0.600730 0.530437
O O6 0.517936 0.555685 0.636303
O O7 0.234273 0.619204 0.290153
O O8 0.664580 0.558178 0.393264
O O9 0.722682 0.624635 0.576415
O O10 0.848601 0.160804 0.230956
O O11 0.697016 0.233249 0.145514
O O12 0.956501 0.341048 0.420496
#
# Coordination Sequence:
#
# PCOD9296271 Si02
#       6
#     8   8   8   8   8   8
#     4  10  25  42  63  96 130 175 208 269 322 376
#     4  12  26  39  65  97 129 178 211 262 318 386
#     4  11  24  43  67  97 130 170 217 262 321 381
#     4  11  24  43  67  97 130 170 217 262 321 381
#     4  10  23  44  70  96 125 172 214 276 314 366
#     4  10  25  41  66  95 133 165 221 265 322 378
#
# _framework density 22.573650000000001
#
# number of rings (size 3 to 8) (size 9 to 14) (size 15 to 20)
#    0.000    1.333    0.000    3.500    9.333    6.667 
#    0.000    5.000    0.000    0.000    0.000    0.000 
#    0.000    0.000    0.000    0.000    0.000    0.000 
#
# Total GULP energy -134508.629628 kJ/mol
# GULP energy per Si atom -5604.526235 kJ/mol
# Density = 2.252227 g / cm^3
# Si number density = 22.573650 Si / 1000 Ang^3
#
#
#
# Elastic Constant Matrix: (Units=GPa)
#
#
# Indices 1 2 3 4 5 6 
#
# 1 73.0367 16.2405 21.9945 0.0004 1.7479 0.0005
# 2 16.2405 82.8628 8.4791 0.0001 8.8080 0.0002
# 3 21.9945 8.4791 76.8547 0.0001 -3.4711 0.0002
# 4 0.0004 0.0001 0.0001 25.9770 0.0002 14.5765
# 5 1.7479 8.8080 -3.4711 0.0002 32.9711 0.0003
# 6 0.0005 0.0002 0.0002 14.5765 0.0003 29.2113
#
#
#
# Elastic Compliance Matrix: (Units=1/GPa)
#
#
# Indices 1 2 3 4 5 6 
#
# 1 0.015536 -0.002554 -0.004191 0.000000 -0.000582 0.000000
# 2 -0.002554 0.013022 -0.000861 0.000000 -0.003434 0.000000
# 3 -0.004191 -0.000861 0.014395 0.000000 0.001968 0.000000
# 4 0.000000 0.000000 0.000000 0.053467 0.000000 -0.026680
# 5 -0.000582 -0.003434 0.001968 0.000000 0.031485 0.000000
# 6 0.000000 0.000000 0.000000 -0.026680 0.000000 0.047547
#
#
# Mechanical properties :
#
#
# Convention : Reuss Voigt Hill
#
# Bulk Modulus (GPa) = 36.04754 36.24248 36.14501
# Shear Modulus (GPa) = 25.01148 30.03457 27.52302
#
# Velocity S-wave (km/s) = 3.33227 3.65158 3.49557
# Velocity P-wave (km/s) = 5.55057 5.81969 5.68672
#
# Compressibility (1/GPa) = 0.02774114
#
# Stress axis : x y z
#
# Youngs Moduli (GPa) = 64.36841 76.79412 69.47024
#
# Poissons Ratio (x) = 0.19614 0.29112
# Poissons Ratio (y) = 0.16441 0.05980
# Poissons Ratio (z) = 0.26974 0.06610
#
# Static dielectric constant tensor:
#      x y z
#    x 1.810710 0.000000 0.003800 
#    y 0.000000 1.813170 0.000000 
#    z 0.003800 0.000000 1.815410 
# 
# From -- ./inp_files/257648.got.cif
#   From: 2010.05.17/outbox.cif.g08.bks.cpg/sg15_129_cif.got.tgz:257648.got - 2010.06.03 18:47:42.
