data_PCOD9296710
_publ_section_title
;
Structure prediction by ZEFSAII (Michael W. Deem and Ramdas Pophale) SiO2 
 PCOD9296710
Probable space group: C 2/C
;
_chemical_formula_sum "Si O2"
_cell_formula_units_Z 40
_cell_length_a 5.453832
_cell_length_b 17.272657
_cell_length_c 17.578585
_cell_angle_alpha 90.000000
_cell_angle_beta 105.538163
_cell_angle_gamma 90.000000
_cell_volume 1595.419915
_symmetry_space_group_name_H-M "C 2/C"
_symmetry_group_IT_number 15
_symmetry_cell_setting 'monoclinic'
loop_
_space_group_symop_operation_xyz
x,y,z
-x,y,1/2-z
-x,-y,-z
x,-y,1/2+z
1/2+x,1/2+y,z
1/2-x,1/2+y,1/2-z
1/2-x,1/2-y,-z
1/2+x,1/2-y,1/2+z
loop_
_atom_site_type_symbol
_atom_site_label
_atom_site_fract_x
_atom_site_fract_y
_atom_site_fract_z
Si Si1 0.500000 0.741682 0.250000
Si Si2 0.753806 0.460061 0.178036
Si Si3 0.851844 0.131154 0.363418
Si Si4 0.717433 0.372560 0.029064
Si Si5 0.007616 0.717126 0.435400
Si Si6 0.500000 0.342821 0.250000
O O1 0.531175 0.683485 0.324619
O O2 0.255077 0.792922 0.255111
O O3 0.701471 0.550564 0.181263
O O4 0.799517 0.437210 0.094584
O O5 0.515367 0.405393 0.182326
O O6 0.000000 0.442404 0.250000
O O7 0.606079 0.183179 0.364099
O O8 0.975176 0.111129 0.455563
O O9 0.676449 0.292000 0.072595
O O10 0.917893 0.352309 0.981041
O O11 0.250000 0.750000 0.500000
#
# Coordination Sequence:
#
# PCOD9296710 Si02
#       6
#     4   8   8   8   8   4
#     4  12  29  50  83 110 154 210 270 326 387 466
#     4  12  28  48  73 115 162 204 254 324 401 463
#     4  11  26  46  75 112 150 206 260 324 384 466
#     4  10  23  45  73 110 148 204 258 319 384 464
#     4   9  21  40  76 106 147 191 257 317 376 460
#     4  12  29  52  79 114 160 210 262 324 397 468
#
# _framework density 25.071769
#
# number of rings (size 3 to 8) (size 9 to 14) (size 15 to 20)
#    0.000    1.200    1.000    2.400   12.600    5.600 
#    0.000    0.000    0.000    0.000    0.000    0.000 
#    0.000    0.000    0.000    0.000    0.000    0.000 
#
# Total GULP energy -111734.650371 kJ/mol
# GULP energy per Si atom -5586.732519 kJ/mol
# Density = 2.501470 g / cm^3
# Si number density = 25.071769 Si / 1000 Ang^3
#
#
#
# Elastic Constant Matrix: (Units=GPa)
#
#
# Indices 1 2 3 4 5 6 
#
# 1 132.3209 60.3210 31.3227 0.0000 -21.8089 0.0000
# 2 60.3210 140.6763 52.3849 0.0000 -11.1799 0.0000
# 3 31.3227 52.3849 97.8698 0.0000 -6.6070 0.0000
# 4 0.0000 0.0000 0.0000 49.8998 0.0000 -0.3299
# 5 -21.8089 -11.1799 -6.6070 0.0000 43.2555 0.0000
# 6 0.0000 0.0000 0.0000 -0.3299 0.0000 18.1363
#
#
#
# Elastic Compliance Matrix: (Units=1/GPa)
#
#
# Indices 1 2 3 4 5 6 
#
# 1 0.010119 -0.003641 -0.001019 0.000000 0.004005 0.000000
# 2 -0.003641 0.010297 -0.004335 0.000000 0.000163 0.000000
# 3 -0.001019 -0.004335 0.012887 0.000000 0.000334 0.000000
# 4 0.000000 0.000000 0.000000 0.020043 0.000000 0.000365
# 5 0.004005 0.000163 0.000334 0.000000 0.025231 0.000000
# 6 0.000000 0.000000 0.000000 0.000365 0.000000 0.055145
#
#
# Mechanical properties :
#
#
# Convention : Reuss Voigt Hill
#
# Bulk Modulus (GPa) = 65.30951 73.21380 69.26166
# Shear Modulus (GPa) = 31.88463 37.38087 34.63275
#
# Velocity S-wave (km/s) = 3.57001 3.86548 3.72068
# Velocity P-wave (km/s) = 6.56497 7.01339 6.79288
#
# Compressibility (1/GPa) = 0.01531170
#
# Stress axis : x y z
#
# Youngs Moduli (GPa) = 98.82857 97.11498 77.59862
#
# Poissons Ratio (x) = 0.35359 0.07909
# Poissons Ratio (y) = 0.35983 0.33641
# Poissons Ratio (z) = 0.10073 0.42101
#
# Static dielectric constant tensor:
#      x y z
#    x 2.674010 0.000000 0.585830 
#    y 0.000000 1.964000 0.000000 
#    z 0.585830 0.000000 2.612920 
# 
# From -- ./inp_files/184425.got.cif
#   From: 2010.05.17/outbox.cif.g08.bks.cpg/sg15_93_cif.got.tgz:184425.got - 2010.06.03 18:47:42.
