data_PCOD9296994
_publ_section_title
;
Structure prediction by ZEFSAII (Michael W. Deem and Ramdas Pophale) SiO2 
 PCOD9296994
Probable space group: C 2/C
;
_chemical_formula_sum "Si O2"
_cell_formula_units_Z 40
_cell_length_a 14.276890
_cell_length_b 11.960397
_cell_length_c 24.794565
_cell_angle_alpha 90.000000
_cell_angle_beta 161.122962
_cell_angle_gamma 90.000000
_cell_volume 1369.813104
_symmetry_space_group_name_H-M "C 2/C"
_symmetry_group_IT_number 15
_symmetry_cell_setting 'monoclinic'
loop_
_space_group_symop_operation_xyz
x,y,z
-x,y,1/2-z
-x,-y,-z
x,-y,1/2+z
1/2+x,1/2+y,z
1/2-x,1/2+y,1/2-z
1/2-x,1/2-y,-z
1/2+x,1/2-y,1/2+z
loop_
_atom_site_type_symbol
_atom_site_label
_atom_site_fract_x
_atom_site_fract_y
_atom_site_fract_z
Si Si1 0.967756 0.422139 0.851507
Si Si2 0.643645 0.368016 0.993334
Si Si3 0.524132 0.411071 0.452667
Si Si4 0.341601 0.174773 0.933364
Si Si5 0.229152 0.874140 0.918354
O O1 0.696254 0.337199 0.693350
O O2 0.778816 0.535399 0.732883
O O3 0.235314 0.379935 0.961508
O O4 0.053846 0.402437 0.960217
O O5 0.677246 0.470249 0.053626
O O6 0.691831 0.418721 0.958633
O O7 0.828088 0.258589 0.102476
O O8 0.515796 0.298079 0.481689
O O9 0.000000 0.185599 0.750000
O O10 0.466925 0.124898 0.946690
O O11 0.000000 0.917665 0.750000
#
# Coordination Sequence:
#
# PCOD9296994 Si02
#       5
#     8   8   8   8   8
#     4  10  23  47  67 106 149 198 238 308 383 448
#     4   9  23  41  70 101 147 189 238 308 372 439
#     4  10  24  44  73 104 147 196 248 301 382 445
#     4  12  26  44  74 111 150 190 251 318 370 447
#     4  11  21  41  72 105 141 192 252 298 368 445
#
# _framework density 29.201065
#
# number of rings (size 3 to 8) (size 9 to 14) (size 15 to 20)
#    1.200    0.400    2.000    1.800    2.800    3.200 
#    0.000    5.000    0.000    0.000    0.000    0.000 
#    0.000    0.000    0.000    0.000    0.000    0.000 
#
# Total GULP energy -111857.595997 kJ/mol
# GULP energy per Si atom -5592.879800 kJ/mol
# Density = 2.913460 g / cm^3
# Si number density = 29.201065 Si / 1000 Ang^3
#
#
#
# Elastic Constant Matrix: (Units=GPa)
#
#
# Indices 1 2 3 4 5 6 
#
# 1 131.2533 25.5392 36.5677 0.0075 -0.0394 -0.0109
# 2 25.5392 149.7136 9.8708 0.0466 -18.1024 -0.0099
# 3 36.5677 9.8708 188.1328 0.1447 -0.1566 -0.0691
# 4 0.0075 0.0466 0.1447 31.5762 -0.0324 -11.3380
# 5 -0.0394 -18.1024 -0.1566 -0.0324 46.6690 0.0027
# 6 -0.0109 -0.0099 -0.0691 -11.3380 0.0027 64.5934
#
#
#
# Elastic Compliance Matrix: (Units=1/GPa)
#
#
# Indices 1 2 3 4 5 6 
#
# 1 0.008318 -0.001382 -0.001545 0.000007 -0.000534 0.000001
# 2 -0.001382 0.007263 -0.000110 -0.000007 0.002816 -0.000001
# 3 -0.001545 -0.000110 0.005621 -0.000025 -0.000025 0.000001
# 4 0.000007 -0.000007 -0.000025 0.033800 0.000020 0.005933
# 5 -0.000534 0.002816 -0.000025 0.000020 0.022519 0.000003
# 6 0.000001 -0.000001 0.000001 0.005933 0.000003 0.016523
#
#
# Mechanical properties :
#
#
# Convention : Reuss Voigt Hill
#
# Bulk Modulus (GPa) = 66.09790 68.11723 67.10757
# Shear Modulus (GPa) = 47.54662 55.04255 51.29458
#
# Velocity S-wave (km/s) = 4.03953 4.34631 4.19573
# Velocity P-wave (km/s) = 6.66646 6.96885 6.81933
#
# Compressibility (1/GPa) = 0.01512907
#
# Stress axis : x y z
#
# Youngs Moduli (GPa) = 120.22259 137.68751 177.89091
#
# Poissons Ratio (x) = 0.19024 0.27479
# Poissons Ratio (y) = 0.16611 0.01960
# Poissons Ratio (z) = 0.18571 0.01517
#
# Static dielectric constant tensor:
#      x y z
#    x 2.330580 0.000020 0.034230 
#    y 0.000020 2.629820 0.000010 
#    z 0.034230 0.000010 2.289070 
# 
# From -- ./inp_files/296638.got.cif
#   From: 2010.05.17/outbox.cif.g08.bks.cpg/sg15_149_cif.got.tgz:296638.got - 2010.06.03 18:47:42.
