data_PCOD9296283
_publ_section_title
;
Structure prediction by ZEFSAII (Michael W. Deem and Ramdas Pophale) SiO2 
 PCOD9296283
Probable space group: C 2/C
;
_chemical_formula_sum "Si O2"
_cell_formula_units_Z 36
_cell_length_a 7.779983
_cell_length_b 11.856229
_cell_length_c 23.103597
_cell_angle_alpha 90.000000
_cell_angle_beta 138.076521
_cell_angle_gamma 90.000000
_cell_volume 1423.871116
_symmetry_space_group_name_H-M "C 2/C"
_symmetry_group_IT_number 15
_symmetry_cell_setting 'monoclinic'
loop_
_space_group_symop_operation_xyz
x,y,z
-x,y,1/2-z
-x,-y,-z
x,-y,1/2+z
1/2+x,1/2+y,z
1/2-x,1/2+y,1/2-z
1/2-x,1/2-y,-z
1/2+x,1/2-y,1/2+z
loop_
_atom_site_type_symbol
_atom_site_label
_atom_site_fract_x
_atom_site_fract_y
_atom_site_fract_z
Si Si1 0.372112 0.406558 0.573595
Si Si2 0.500000 0.122847 0.750000
Si Si3 0.187724 0.450020 0.891609
Si Si4 0.183490 0.736562 0.252625
Si Si5 0.657691 0.132395 0.506719
O O1 0.515232 0.414550 0.546800
O O2 0.571919 0.330155 0.659876
O O3 0.342466 0.539444 0.584087
O O4 0.091935 0.353382 0.515413
O O5 0.720770 0.197649 0.778361
O O6 0.614485 0.055752 0.833599
O O7 0.096838 0.444319 0.934625
O O8 0.018246 0.354774 0.818990
O O9 0.000000 0.807483 0.250000
O O10 0.750000 0.250000 0.500000
#
# Coordination Sequence:
#
# PCOD9296283 Si02
#       5
#     8   4   8   8   8
#     4  10  23  47  65 105 139 177 239 279 334 424
#     4  12  24  44  74 102 140 178 220 292 346 396
#     4  11  24  46  70 105 139 175 235 287 335 418
#     4  10  23  44  70  99 136 181 231 283 347 402
#     4  11  26  44  72 100 142 188 225 283 350 406
#
# _framework density 25.283189
#
# number of rings (size 3 to 8) (size 9 to 14) (size 15 to 20)
#    0.000    1.333    3.333    2.000    6.222    2.667 
#   14.000    0.000    0.000    0.000    0.000    0.000 
#    0.000    0.000    0.000    0.000    0.000    0.000 
#
# Total GULP energy -100418.020835 kJ/mol
# GULP energy per Si atom -5578.778935 kJ/mol
# Density = 2.522564 g / cm^3
# Si number density = 25.283189 Si / 1000 Ang^3
#
#
#
# Elastic Constant Matrix: (Units=GPa)
#
#
# Indices 1 2 3 4 5 6 
#
# 1 171.4694 51.0765 8.4523 0.0000 10.3411 0.0000
# 2 51.0765 119.9210 7.0804 0.0000 8.3028 0.0000
# 3 8.4523 7.0804 33.2724 0.0000 -6.5033 0.0000
# 4 0.0000 0.0000 0.0000 -85.7423 0.0000 -9.6536
# 5 10.3411 8.3028 -6.5033 0.0000 43.9252 0.0000
# 6 0.0000 0.0000 0.0000 -9.6536 0.0000 51.0939
#
#
#
# Elastic Compliance Matrix: (Units=1/GPa)
#
#
# Indices 1 2 3 4 5 6 
#
# 1 0.006789 -0.002720 -0.001398 0.000000 -0.001291 0.000000
# 2 -0.002720 0.009694 -0.001653 0.000000 -0.001437 0.000000
# 3 -0.001398 -0.001653 0.031808 0.000000 0.005351 0.000000
# 4 0.000000 0.000000 0.000000 -0.011420 0.000000 -0.002158
# 5 -0.001291 -0.001437 0.005351 0.000000 0.024134 0.000000
# 6 0.000000 0.000000 0.000000 -0.002158 0.000000 0.019164
#
#
# Mechanical properties :
#
#
# Convention : Reuss Voigt Hill
#
# Bulk Modulus (GPa) = 27.21135 50.87570 39.04352
# Shear Modulus (GPa) = 48.09537 19.05891 33.57714
#
# Velocity S-wave (km/s) = 4.36623 2.74855 3.64818
# Velocity P-wave (km/s) = 6.01703 5.49898 5.76382
#
# Compressibility (1/GPa) = 0.03674938
#
# Stress axis : x y z
#
# Youngs Moduli (GPa) = 147.30091 103.15452 31.43883
#
# Poissons Ratio (x) = 0.28053 0.04396
# Poissons Ratio (y) = 0.40059 0.05197
# Poissons Ratio (z) = 0.20596 0.17051
#
# Static dielectric constant tensor:
#      x y z
#    x 2.043390 0.000000 0.023110 
#    y 0.000000 2.064890 0.000000 
#    z 0.023110 0.000000 2.061300 
# 
# From -- ./inp_files/287436.got.cif
#   From: 2010.05.17/outbox.cif.g08.bks.cpg/sg15_144_cif.got.tgz:287436.got - 2010.06.03 18:47:42.
