data_PCOD9296393
_publ_section_title
;
Structure prediction by ZEFSAII (Michael W. Deem and Ramdas Pophale) SiO2 
 PCOD9296393
Probable space group: C 2/C
;
_chemical_formula_sum "Si O2"
_cell_formula_units_Z 64
_cell_length_a 15.664393
_cell_length_b 27.379426
_cell_length_c 12.145572
_cell_angle_alpha 90.000000
_cell_angle_beta 34.954843
_cell_angle_gamma 90.000000
_cell_volume 2984.406252
_symmetry_space_group_name_H-M "C 2/C"
_symmetry_group_IT_number 15
_symmetry_cell_setting 'monoclinic'
loop_
_space_group_symop_operation_xyz
x,y,z
-x,y,1/2-z
-x,-y,-z
x,-y,1/2+z
1/2+x,1/2+y,z
1/2-x,1/2+y,1/2-z
1/2-x,1/2-y,-z
1/2+x,1/2-y,1/2+z
loop_
_atom_site_type_symbol
_atom_site_label
_atom_site_fract_x
_atom_site_fract_y
_atom_site_fract_z
Si Si1 0.345097 0.777424 0.806626
Si Si2 0.201941 0.366618 0.285302
Si Si3 0.125164 0.279930 0.198141
Si Si4 0.921825 0.609274 0.219765
Si Si5 0.586533 0.281074 0.933151
Si Si6 0.056154 0.136622 0.808122
Si Si7 0.946984 0.941382 0.928724
Si Si8 0.628470 0.448626 0.948981
O O1 0.372983 0.834614 0.795370
O O2 0.495440 0.749242 0.620467
O O3 0.256204 0.774055 0.785598
O O4 0.250000 0.750000 0.000000
O O5 0.179950 0.321451 0.225595
O O6 0.281434 0.351815 0.317531
O O7 0.044183 0.388333 0.492264
O O8 0.319963 0.404133 0.106680
O O9 0.049391 0.238755 0.354184
O O10 0.000000 0.301233 0.250000
O O11 0.250000 0.250000 0.000000
O O12 0.776105 0.578816 0.336611
O O13 0.000000 0.590640 0.250000
O O14 0.547236 0.337038 0.992808
O O15 0.000000 0.155399 0.750000
O O16 0.016724 0.079851 0.850268
O O17 0.000000 0.929297 0.750000
O O18 0.090479 0.944410 0.858997
O O19 0.876001 0.995515 0.009896
#
# Coordination Sequence:
#
# PCOD9296393 Si02
#       8
#     8   8   8   8   8   8   8   8
#     4  12  24  40  62  99 138 182 222 273 343 418
#     4  11  26  44  67 101 138 183 234 288 350 417
#     4  12  27  46  64  90 134 187 241 293 336 391
#     4  12  25  43  68 105 151 182 217 285 360 425
#     4  12  24  39  63  92 132 180 232 278 328 411
#     4  11  21  39  67 101 136 179 224 274 346 417
#     4  10  24  49  78 102 135 180 240 296 344 416
#     4  10  23  44  73 106 137 178 234 287 345 417
#
# _framework density 21.444800999999998
#
# number of rings (size 3 to 8) (size 9 to 14) (size 15 to 20)
#    0.000    0.750    2.500    5.250    1.750    6.000 
#    0.000    0.625    0.000    0.000    0.000    0.000 
#    0.000    0.000    0.000    0.000    0.000    0.000 
#
# Total GULP energy -178750.849963 kJ/mol
# GULP energy per Si atom -5585.964061 kJ/mol
# Density = 2.139599 g / cm^3
# Si number density = 21.444801 Si / 1000 Ang^3
#
#
#
# Elastic Constant Matrix: (Units=GPa)
#
#
# Indices 1 2 3 4 5 6 
#
# 1 130.4778 35.3768 35.7921 0.0000 -10.4003 0.0000
# 2 35.3768 110.3532 31.6220 0.0000 1.3744 0.0000
# 3 35.7921 31.6220 112.5884 -0.0005 10.3313 0.0001
# 4 0.0000 0.0000 -0.0005 26.2996 0.0002 -5.2244
# 5 -10.4003 1.3744 10.3313 0.0002 41.2636 0.0000
# 6 0.0000 0.0000 0.0001 -5.2244 0.0000 29.1790
#
#
#
# Elastic Compliance Matrix: (Units=1/GPa)
#
#
# Indices 1 2 3 4 5 6 
#
# 1 0.009226 -0.002257 -0.002579 0.000000 0.003046 0.000000
# 2 -0.002257 0.010413 -0.002173 0.000000 -0.000372 0.000000
# 3 -0.002579 -0.002173 0.010609 0.000000 -0.003234 0.000000
# 4 0.000000 0.000000 0.000000 0.039426 0.000000 0.007059
# 5 0.003046 -0.000372 -0.003234 0.000000 0.025824 0.000000
# 6 0.000000 0.000000 0.000000 0.007059 0.000000 0.035535
#
#
# Mechanical properties :
#
#
# Convention : Reuss Voigt Hill
#
# Bulk Modulus (GPa) = 61.61192 62.11124 61.86158
# Shear Modulus (GPa) = 33.23149 36.05701 34.64425
#
# Velocity S-wave (km/s) = 3.94080 4.10492 4.02370
# Velocity P-wave (km/s) = 7.03558 7.17589 7.10608
#
# Compressibility (1/GPa) = 0.01623062
#
# Stress axis : x y z
#
# Youngs Moduli (GPa) = 108.38685 96.03779 94.26193
#
# Poissons Ratio (x) = 0.21673 0.24308
# Poissons Ratio (y) = 0.24460 0.20483
# Poissons Ratio (z) = 0.27950 0.20869
#
# Static dielectric constant tensor:
#      x y z
#    x 1.890050 0.000000 -0.018270 
#    y 0.000000 1.777830 0.000000 
#    z -0.018270 0.000000 1.814210 
# 
# From -- ./inp_files/101628.got.cif
#   From: 2010.05.17/outbox.cif.g08.bks.cpg/sg15_51_cif.got.tgz:101628.got - 2010.06.03 18:47:42.
