data_PCOD9296746
_publ_section_title
;
Structure prediction by ZEFSAII (Michael W. Deem and Ramdas Pophale) SiO2 
 PCOD9296746
Probable space group: C 2/C
;
_chemical_formula_sum "Si O2"
_cell_formula_units_Z 48
_cell_length_a 20.483639
_cell_length_b 10.769418
_cell_length_c 13.101065
_cell_angle_alpha 90.000000
_cell_angle_beta 42.512507
_cell_angle_gamma 90.000000
_cell_volume 1952.957217
_symmetry_space_group_name_H-M "C 2/C"
_symmetry_group_IT_number 15
_symmetry_cell_setting 'monoclinic'
loop_
_space_group_symop_operation_xyz
x,y,z
-x,y,1/2-z
-x,-y,-z
x,-y,1/2+z
1/2+x,1/2+y,z
1/2-x,1/2+y,1/2-z
1/2-x,1/2-y,-z
1/2+x,1/2-y,1/2+z
loop_
_atom_site_type_symbol
_atom_site_label
_atom_site_fract_x
_atom_site_fract_y
_atom_site_fract_z
Si Si1 0.487943 0.091055 0.146652
Si Si2 0.855927 0.188198 0.774856
Si Si3 0.195330 0.216038 0.962039
Si Si4 0.669436 0.235035 0.885024
Si Si5 0.000000 0.352736 0.250000
Si Si6 0.000000 0.052351 0.750000
Si Si7 0.610719 0.487162 0.457173
O O1 0.500000 0.136071 0.250000
O O2 0.404565 0.177565 0.197529
O O3 0.469086 0.946281 0.192153
O O4 0.588868 0.126590 0.975423
O O5 0.740572 0.204201 0.898101
O O6 0.880721 0.092322 0.653933
O O7 0.908829 0.132549 0.813727
O O8 0.257227 0.257393 0.793357
O O9 0.189038 0.069298 0.945154
O O10 0.250000 0.250000 0.000000
O O11 0.090531 0.277934 0.100098
O O12 0.614012 0.365691 0.947195
O O13 0.016225 0.965469 0.633406
#
# Coordination Sequence:
#
# PCOD9296746 Si02
#       7
#     8   8   8   8   4   4   8
#     4  10  23  45  76 109 144 200 246 310 383 433
#     4  11  24  45  70 110 148 191 257 304 377 453
#     4  11  28  48  72 105 151 208 248 308 393 449
#     4  11  26  45  73 114 148 194 261 315 371 457
#     4  10  26  50  70 108 152 192 254 306 380 460
#     4  12  22  42  72 102 142 198 234 316 374 434
#     4  11  26  42  72 106 147 189 247 309 373 442
#
# _framework density 24.578112000000001
#
# number of rings (size 3 to 8) (size 9 to 14) (size 15 to 20)
#    0.500    0.667    2.500    1.000    9.333    5.333 
#    0.000    4.167    0.000    0.000    0.000    0.000 
#    0.000    0.000    0.000    0.000    0.000    0.000 
#
# Total GULP energy -133720.042801 kJ/mol
# GULP energy per Si atom -5571.668450 kJ/mol
# Density = 2.452217 g / cm^3
# Si number density = 24.578112 Si / 1000 Ang^3
#
#
#
# Elastic Constant Matrix: (Units=GPa)
#
#
# Indices 1 2 3 4 5 6 
#
# 1 81.7456 -1.7966 5.3238 0.0000 8.8813 0.0000
# 2 -1.7966 70.4684 21.4851 0.0000 12.4565 0.0000
# 3 5.3238 21.4851 120.0958 0.0000 9.8681 0.0000
# 4 0.0000 0.0000 0.0000 35.2891 0.0000 -2.0422
# 5 8.8813 12.4565 9.8681 0.0000 32.4112 0.0000
# 6 0.0000 0.0000 0.0000 -2.0422 0.0000 22.7794
#
#
#
# Elastic Compliance Matrix: (Units=1/GPa)
#
#
# Indices 1 2 3 4 5 6 
#
# 1 0.012698 0.001130 -0.000455 0.000000 -0.003775 0.000000
# 2 0.001130 0.015972 -0.002439 0.000000 -0.005705 0.000000
# 3 -0.000455 -0.002439 0.008919 0.000000 -0.001654 0.000000
# 4 0.000000 0.000000 0.000000 0.028485 0.000000 0.002554
# 5 -0.003775 -0.005705 -0.001654 0.000000 0.034584 0.000000
# 6 0.000000 0.000000 0.000000 0.002554 0.000000 0.044128
#
#
# Mechanical properties :
#
#
# Convention : Reuss Voigt Hill
#
# Bulk Modulus (GPa) = 29.35917 35.81495 32.58706
# Shear Modulus (GPa) = 31.31522 34.58245 32.94884
#
# Velocity S-wave (km/s) = 3.57334 3.75513 3.66536
# Velocity P-wave (km/s) = 5.38481 5.77969 5.58574
#
# Compressibility (1/GPa) = 0.03406090
#
# Stress axis : x y z
#
# Youngs Moduli (GPa) = 78.75461 62.61120 112.12037
#
# Poissons Ratio (x) = -0.07073 0.05099
# Poissons Ratio (y) = -0.08897 0.27341
# Poissons Ratio (z) = 0.03582 0.15268
#
# Static dielectric constant tensor:
#      x y z
#    x 5.238630 0.000000 3.547090 
#    y 0.000000 2.016660 0.000000 
#    z 3.547090 0.000000 6.023630 
# 
# From -- ./inp_files/167887.got.cif
#   From: 2010.05.17/outbox.cif.g08.bks.cpg/sg15_84_cif.got.tgz:167887.got - 2010.06.03 18:47:42.
