data_PCOD9296570
_publ_section_title
;
Structure prediction by ZEFSAII (Michael W. Deem and Ramdas Pophale) SiO2 
 PCOD9296570
Probable space group: C 2/C
;
_chemical_formula_sum "Si O2"
_cell_formula_units_Z 44
_cell_length_a 11.475278
_cell_length_b 21.670229
_cell_length_c 11.402207
_cell_angle_alpha 90.000000
_cell_angle_beta 47.988270
_cell_angle_gamma 90.000000
_cell_volume 2106.730693
_symmetry_space_group_name_H-M "C 2/C"
_symmetry_group_IT_number 15
_symmetry_cell_setting 'monoclinic'
loop_
_space_group_symop_operation_xyz
x,y,z
-x,y,1/2-z
-x,-y,-z
x,-y,1/2+z
1/2+x,1/2+y,z
1/2-x,1/2+y,1/2-z
1/2-x,1/2-y,-z
1/2+x,1/2-y,1/2+z
loop_
_atom_site_type_symbol
_atom_site_label
_atom_site_fract_x
_atom_site_fract_y
_atom_site_fract_z
Si Si1 0.494442 0.685972 0.614648
Si Si2 0.717875 0.127013 0.479440
Si Si3 0.500000 0.779856 0.250000
Si Si4 0.221753 0.212986 0.270988
Si Si5 0.541860 0.023949 0.844147
Si Si6 0.607038 0.439177 0.444413
O O1 0.500000 0.681541 0.750000
O O2 0.365176 0.738923 0.672931
O O3 0.661909 0.700977 0.442355
O O4 0.449091 0.619618 0.591477
O O5 0.653420 0.183420 0.601575
O O6 0.743767 0.152538 0.331370
O O7 0.567617 0.083536 0.586505
O O8 0.857476 0.089202 0.448961
O O9 0.568449 0.740360 0.309551
O O10 0.500000 0.988278 0.750000
O O11 0.722775 0.040525 0.715900
O O12 0.500000 0.000000 0.000000
O O13 0.500000 0.500000 0.500000
#
# Coordination Sequence:
#
# PCOD9296570 Si02
#       6
#     8   8   4   8   8   8
#     4  12  27  46  67 102 150 190 230 301 368 434
#     4  11  21  43  72  98 138 183 235 303 353 420
#     4  12  18  42  72 102 134 172 226 306 340 412
#     4  12  24  43  74 107 134 182 248 288 370 428
#     4  10  23  45  68  93 138 188 240 292 359 431
#     4  11  25  46  69 103 142 186 241 301 358 426
#
# _framework density 20.885442000000001
#
# number of rings (size 3 to 8) (size 9 to 14) (size 15 to 20)
#    0.000    0.727    6.364    2.182    2.545    2.909 
#    3.273    0.000    0.000    0.000    0.000    0.000 
#    0.000    0.000    0.000    0.000    0.000    0.000 
#
# Total GULP energy -122749.694447 kJ/mol
# GULP energy per Si atom -5579.531566 kJ/mol
# Density = 2.083791 g / cm^3
# Si number density = 20.885442 Si / 1000 Ang^3
#
#
#
# Elastic Constant Matrix: (Units=GPa)
#
#
# Indices 1 2 3 4 5 6 
#
# 1 80.4908 57.0666 53.0032 0.0000 -6.1970 0.0000
# 2 57.0666 85.1229 47.6808 0.0000 1.0639 0.0000
# 3 53.0032 47.6808 161.5026 0.0000 20.2582 0.0000
# 4 0.0000 0.0000 0.0000 12.7515 0.0000 -6.2551
# 5 -6.1970 1.0639 20.2582 0.0000 31.9274 0.0000
# 6 0.0000 0.0000 0.0000 -6.2551 0.0000 29.1669
#
#
#
# Elastic Compliance Matrix: (Units=1/GPa)
#
#
# Indices 1 2 3 4 5 6 
#
# 1 0.028152 -0.015743 -0.005805 0.000000 0.009672 0.000000
# 2 -0.015743 0.023044 -0.001257 0.000000 -0.003026 0.000000
# 3 -0.005805 -0.001257 0.009348 0.000000 -0.007016 0.000000
# 4 0.000000 0.000000 0.000000 0.087642 0.000000 0.018796
# 5 0.009672 -0.003026 -0.007016 0.000000 0.037751 0.000000
# 6 0.000000 0.000000 0.000000 0.018796 0.000000 0.038316
#
#
# Mechanical properties :
#
#
# Convention : Reuss Voigt Hill
#
# Bulk Modulus (GPa) = 66.95713 71.40194 69.17954
# Shear Modulus (GPa) = 18.19238 26.06021 22.12630
#
# Velocity S-wave (km/s) = 2.95457 3.53621 3.25839
# Velocity P-wave (km/s) = 6.61575 7.13685 6.88124
#
# Compressibility (1/GPa) = 0.01493493
#
# Stress axis : x y z
#
# Youngs Moduli (GPa) = 35.52147 43.39594 106.97394
#
# Poissons Ratio (x) = 0.68317 0.62094
# Poissons Ratio (y) = 0.55920 0.13448
# Poissons Ratio (z) = 0.20619 0.05455
#
# Static dielectric constant tensor:
#      x y z
#    x 1.705870 0.000000 -0.039920 
#    y 0.000000 1.839600 0.000000 
#    z -0.039920 0.000000 1.719740 
# 
# From -- ./inp_files/88720.got.cif
#   From: 2010.05.17/outbox.cif.g08.bks.cpg/sg15_45_cif.got.tgz:88720.got - 2010.06.03 18:47:42.
