data_PCOD9296683
_publ_section_title
;
Structure prediction by ZEFSAII (Michael W. Deem and Ramdas Pophale) SiO2 
 PCOD9296683
Probable space group: C 2/C
;
_chemical_formula_sum "Si O2"
_cell_formula_units_Z 40
_cell_length_a 25.504024
_cell_length_b 7.184192
_cell_length_c 13.527164
_cell_angle_alpha 90.000000
_cell_angle_beta 139.796186
_cell_angle_gamma 90.000000
_cell_volume 1599.909362
_symmetry_space_group_name_H-M "C 2/C"
_symmetry_group_IT_number 15
_symmetry_cell_setting 'monoclinic'
loop_
_space_group_symop_operation_xyz
x,y,z
-x,y,1/2-z
-x,-y,-z
x,-y,1/2+z
1/2+x,1/2+y,z
1/2-x,1/2+y,1/2-z
1/2-x,1/2-y,-z
1/2+x,1/2-y,1/2+z
loop_
_atom_site_type_symbol
_atom_site_label
_atom_site_fract_x
_atom_site_fract_y
_atom_site_fract_z
Si Si1 0.422837 0.506275 0.815612
Si Si2 0.423313 0.874058 0.916035
Si Si3 0.247530 0.486057 0.586523
Si Si4 0.245991 0.903799 0.633747
Si Si5 0.113728 0.823448 0.942368
O O1 0.408751 0.729380 0.803825
O O2 0.427840 0.422947 0.712401
O O3 0.339823 0.415914 0.738347
O O4 0.500000 0.500000 0.000000
O O5 0.334131 0.960727 0.800588
O O6 0.435632 0.771507 0.039328
O O7 0.500000 0.000000 0.000000
O O8 0.234337 0.682450 0.622359
O O9 0.251997 0.537916 0.477685
O O10 0.177339 0.336068 0.499739
O O11 0.170505 0.014626 0.568836
#
# Coordination Sequence:
#
# PCOD9296683 Si02
#       5
#     8   8   8   8   8
#     4  10  23  45  72 108 159 201 267 326 398 483
#     4  11  27  45  75 119 161 205 267 345 409 484
#     4   9  20  42  75 108 147 206 261 334 383 475
#     4   9  20  42  72 108 151 195 276 321 389 486
#     4  11  24  46  80 108 154 220 260 324 412 479
#
# _framework density 25.001417
#
# number of rings (size 3 to 8) (size 9 to 14) (size 15 to 20)
#    0.000    2.000    0.000    3.600   11.200    0.800 
#    3.600    0.000    8.800    0.000    0.000    0.000 
#    0.000    0.000    0.000    0.000    0.000    0.000 
#
# Total GULP energy -111661.293446 kJ/mol
# GULP energy per Si atom -5583.064672 kJ/mol
# Density = 2.494451 g / cm^3
# Si number density = 25.001417 Si / 1000 Ang^3
#
#
#
# Elastic Constant Matrix: (Units=GPa)
#
#
# Indices 1 2 3 4 5 6 
#
# 1 144.8603 75.9888 74.0814 0.0000 -37.5995 0.0000
# 2 75.9888 122.6862 54.0533 0.0000 -0.8208 0.0000
# 3 74.0814 54.0533 185.4161 0.0000 -10.6308 0.0000
# 4 0.0000 0.0000 0.0000 43.1048 0.0000 9.0201
# 5 -37.5995 -0.8208 -10.6308 0.0000 37.6360 0.0000
# 6 0.0000 0.0000 0.0000 9.0201 0.0000 58.4403
#
#
#
# Elastic Compliance Matrix: (Units=1/GPa)
#
#
# Indices 1 2 3 4 5 6 
#
# 1 0.018055 -0.009543 -0.003466 0.000000 0.016851 0.000000
# 2 -0.009543 0.014409 -0.000931 0.000000 -0.009483 0.000000
# 3 -0.003466 -0.000931 0.006962 0.000000 -0.001516 0.000000
# 4 0.000000 0.000000 0.000000 0.023974 0.000000 -0.003700
# 5 0.016851 -0.009483 -0.001516 0.000000 0.042770 0.000000
# 6 0.000000 0.000000 0.000000 -0.003700 0.000000 0.017683
#
#
# Mechanical properties :
#
#
# Convention : Reuss Voigt Hill
#
# Bulk Modulus (GPa) = 86.60934 95.68996 91.14965
# Shear Modulus (GPa) = 32.13739 44.42548 38.28143
#
# Velocity S-wave (km/s) = 3.58917 4.21992 3.91726
# Velocity P-wave (km/s) = 7.20369 7.88039 7.54963
#
# Compressibility (1/GPa) = 0.01154610
#
# Stress axis : x y z
#
# Youngs Moduli (GPa) = 55.38488 69.40252 143.62716
#
# Poissons Ratio (x) = 0.66234 0.49775
# Poissons Ratio (y) = 0.52857 0.13374
# Poissons Ratio (z) = 0.19194 0.06463
#
# Static dielectric constant tensor:
#      x y z
#    x 2.070340 0.000000 0.002320 
#    y 0.000000 2.053920 0.000000 
#    z 0.002320 0.000000 2.101510 
# 
# From -- ./inp_files/176326.got.cif
#   From: 2010.05.17/outbox.cif.g08.bks.cpg/sg15_89_cif.got.tgz:176326.got - 2010.06.03 18:47:42.
