data_PCOD9296782
_publ_section_title
;
Structure prediction by ZEFSAII (Michael W. Deem and Ramdas Pophale) SiO2 
 PCOD9296782
Probable space group: C 2/C
;
_chemical_formula_sum "Si O2"
_cell_formula_units_Z 40
_cell_length_a 9.293133
_cell_length_b 11.650176
_cell_length_c 29.601843
_cell_angle_alpha 90.000000
_cell_angle_beta 38.645715
_cell_angle_gamma 90.000000
_cell_volume 2001.464484
_symmetry_space_group_name_H-M "C 2/C"
_symmetry_group_IT_number 15
_symmetry_cell_setting 'monoclinic'
loop_
_space_group_symop_operation_xyz
x,y,z
-x,y,1/2-z
-x,-y,-z
x,-y,1/2+z
1/2+x,1/2+y,z
1/2-x,1/2+y,1/2-z
1/2-x,1/2-y,-z
1/2+x,1/2-y,1/2+z
loop_
_atom_site_type_symbol
_atom_site_label
_atom_site_fract_x
_atom_site_fract_y
_atom_site_fract_z
Si Si1 0.217032 0.714531 0.591308
Si Si2 0.579684 0.878474 0.461231
Si Si3 0.963331 0.249568 0.624834
Si Si4 0.550047 0.021317 0.872298
Si Si5 0.706528 0.299723 0.233232
O O1 0.370438 0.791068 0.520881
O O2 0.320224 0.713290 0.616111
O O3 0.188501 0.584779 0.580925
O O4 0.951446 0.757612 0.659605
O O5 0.796246 0.818913 0.432209
O O6 0.500000 0.000000 0.500000
O O7 0.636080 0.912120 0.396005
O O8 0.982803 0.387241 0.615441
O O9 0.848349 0.225314 0.701545
O O10 0.729881 0.065047 0.790163
O O11 0.500000 0.266972 0.250000
#
# Coordination Sequence:
#
# PCOD9296782 Si02
#       5
#     8   8   8   8   8
#     4  10  24  44  68 105 131 179 231 279 340 406
#     4  12  24  45  71 103 141 183 223 286 345 405
#     4  12  23  47  71 100 140 178 235 278 343 410
#     4  10  25  44  68  99 136 184 222 285 341 398
#     4  10  23  46  66 100 133 181 226 282 340 401
#
# _framework density 19.985365000000002
#
# number of rings (size 3 to 8) (size 9 to 14) (size 15 to 20)
#    1.200    0.000    4.000    1.800    0.000    4.000 
#   10.800    0.000    0.000    0.000    0.000    0.000 
#    0.000    0.000    0.000    0.000    0.000    0.000 
#
# Total GULP energy -111451.671468 kJ/mol
# GULP energy per Si atom -5572.583573 kJ/mol
# Density = 1.993988 g / cm^3
# Si number density = 19.985365 Si / 1000 Ang^3
#
#
#
# Elastic Constant Matrix: (Units=GPa)
#
#
# Indices 1 2 3 4 5 6 
#
# 1 117.3893 69.8057 15.7778 0.0002 -7.6218 0.0001
# 2 69.8057 40.4790 -12.0024 -0.0009 -17.3081 -0.0005
# 3 15.7778 -12.0024 52.6922 -0.0032 -19.7073 -0.0018
# 4 0.0002 -0.0009 -0.0032 36.1641 0.0003 5.2195
# 5 -7.6218 -17.3081 -19.7073 0.0003 37.6756 0.0000
# 6 0.0001 -0.0005 -0.0018 5.2195 0.0000 11.8576
#
#
#
# Elastic Compliance Matrix: (Units=1/GPa)
#
#
# Indices 1 2 3 4 5 6 
#
# 1 -0.008103 0.026498 0.015418 0.000002 0.018599 0.000003
# 2 0.026498 -0.041335 -0.027907 -0.000003 -0.028226 -0.000005
# 3 0.015418 -0.027907 0.005441 0.000000 -0.006855 0.000000
# 4 0.000002 -0.000003 0.000000 0.029528 -0.000001 -0.012997
# 5 0.018599 -0.028226 -0.006855 -0.000001 0.013752 -0.000002
# 6 0.000003 -0.000005 0.000000 -0.012997 -0.000002 0.090055
#
#
# Mechanical properties :
#
#
# Convention : Reuss Voigt Hill
#
# Bulk Modulus (GPa) = -62.58681 39.74695 -11.41993
# Shear Modulus (GPa) = 89.29804 26.27142 57.78473
#
# Velocity S-wave (km/s) = 6.69169 3.62958 5.38296
# Velocity P-wave (km/s) = 5.32171 6.12343 5.73659
#
# Compressibility (1/GPa) = -0.01597781
#
# Stress axis : x y z
#
# Youngs Moduli (GPa) = -123.40840 -24.19254 183.79562
#
# Poissons Ratio (x) = 0.64106 -2.83382
# Poissons Ratio (y) = 3.27009 5.12911
# Poissons Ratio (z) = 1.90275 -0.67513
#
# Static dielectric constant tensor:
#      x y z
#    x 1.735940 0.000000 0.020040 
#    y 0.000000 1.721440 0.000000 
#    z 0.020040 0.000000 1.771970 
# 
# From -- ./inp_files/306996.got.cif
#   From: 2010.05.17/outbox.cif.g08.bks.cpg/sg15_154_cif.got.tgz:306996.got - 2010.06.03 18:47:42.
