data_PCOD9296966
_publ_section_title
;
Structure prediction by ZEFSAII (Michael W. Deem and Ramdas Pophale) SiO2 
 PCOD9296966
Probable space group: C 2/C
;
_chemical_formula_sum "Si O2"
_cell_formula_units_Z 28
_cell_length_a 17.302460
_cell_length_b 7.685348
_cell_length_c 14.431269
_cell_angle_alpha 90.000000
_cell_angle_beta 33.571801
_cell_angle_gamma 90.000000
_cell_volume 1061.173883
_symmetry_space_group_name_H-M "C 2/C"
_symmetry_group_IT_number 15
_symmetry_cell_setting 'monoclinic'
loop_
_space_group_symop_operation_xyz
x,y,z
-x,y,1/2-z
-x,-y,-z
x,-y,1/2+z
1/2+x,1/2+y,z
1/2-x,1/2+y,1/2-z
1/2-x,1/2-y,-z
1/2+x,1/2-y,1/2+z
loop_
_atom_site_type_symbol
_atom_site_label
_atom_site_fract_x
_atom_site_fract_y
_atom_site_fract_z
Si Si1 0.153977 0.548821 0.108893
Si Si2 0.862004 0.021594 0.743652
Si Si3 0.867594 0.384398 0.661572
Si Si4 0.000000 0.790095 0.750000
O O1 0.185067 0.548611 0.185956
O O2 0.123580 0.347679 0.111464
O O3 0.000000 0.634850 0.250000
O O4 0.268712 0.605455 0.920748
O O5 0.912669 0.184782 0.632866
O O6 0.757345 0.908642 0.785695
O O7 0.973093 0.906956 0.687464
O O8 0.000000 0.500000 0.500000
#
# Coordination Sequence:
#
# PCOD9296966 Si02
#       4
#     8   8   8   4
#     4  10  23  46  76 104 160 189 255 302 382 440
#     4  12  26  47  76 112 153 202 250 314 379 447
#     4  12  26  47  75 113 150 199 257 311 375 455
#     4  10  24  44  78 114 150 196 246 304 380 446
#
# _framework density 26.385871999999999
#
# number of rings (size 3 to 8) (size 9 to 14) (size 15 to 20)
#    0.857    0.000    2.857    3.429    2.000    4.571 
#    0.000    8.571    0.000    0.000    0.000    0.000 
#    0.000    0.000    0.000    0.000    0.000    0.000 
#
# Total GULP energy -78479.090763 kJ/mol
# GULP energy per Si atom -5605.649340 kJ/mol
# Density = 2.632582 g / cm^3
# Si number density = 26.385872 Si / 1000 Ang^3
#
#
#
# Elastic Constant Matrix: (Units=GPa)
#
#
# Indices 1 2 3 4 5 6 
#
# 1 215.0746 60.7709 21.0882 -0.0001 23.4750 0.0000
# 2 60.7709 156.1351 19.1786 -0.0004 0.0982 0.0003
# 3 21.0882 19.1786 92.7807 -0.0001 27.8942 0.0001
# 4 -0.0001 -0.0004 -0.0001 44.2097 0.0001 9.7004
# 5 23.4750 0.0982 27.8942 0.0001 39.4773 0.0000
# 6 0.0000 0.0003 0.0001 9.7004 0.0000 43.5458
#
#
#
# Elastic Compliance Matrix: (Units=1/GPa)
#
#
# Indices 1 2 3 4 5 6 
#
# 1 0.005637 -0.002221 0.000233 0.000000 -0.003512 0.000000
# 2 -0.002221 0.007491 -0.001822 0.000000 0.002589 0.000000
# 3 0.000233 -0.001822 0.014148 0.000000 -0.010131 0.000000
# 4 0.000000 0.000000 0.000000 0.023782 0.000000 -0.005298
# 5 -0.003512 0.002589 -0.010131 0.000000 0.034571 0.000000
# 6 0.000000 0.000000 0.000000 -0.005298 0.000000 0.024144
#
#
# Mechanical properties :
#
#
# Convention : Reuss Voigt Hill
#
# Bulk Modulus (GPa) = 50.87191 74.00731 62.43961
# Shear Modulus (GPa) = 40.34050 49.64342 44.99196
#
# Velocity S-wave (km/s) = 3.91432 4.34226 4.13383
# Velocity P-wave (km/s) = 6.30484 7.29721 6.81910
#
# Compressibility (1/GPa) = 0.01965721
#
# Stress axis : x y z
#
# Youngs Moduli (GPa) = 177.38615 133.48913 70.68387
#
# Poissons Ratio (x) = 0.29643 -0.01650
# Poissons Ratio (y) = 0.39392 0.12881
# Poissons Ratio (z) = -0.04142 0.24326
#
# Static dielectric constant tensor:
#      x y z
#    x 2.021770 0.000000 -0.018100 
#    y 0.000000 2.138120 0.000000 
#    z -0.018100 0.000000 2.052170 
# 
# From -- ./inp_files/150525.got.cif
#   From: 2010.05.17/outbox.cif.g08.bks.cpg/sg15_76_cif.got.tgz:150525.got - 2010.06.03 18:47:42.
