data_PCOD9296196
_publ_section_title
;
Structure prediction by ZEFSAII (Michael W. Deem and Ramdas Pophale) SiO2 
 PCOD9296196
Probable space group: C 2/C
;
_chemical_formula_sum "Si O2"
_cell_formula_units_Z 48
_cell_length_a 24.009390
_cell_length_b 12.970953
_cell_length_c 17.567012
_cell_angle_alpha 90.000000
_cell_angle_beta 24.314857
_cell_angle_gamma 90.000000
_cell_volume 2252.605963
_symmetry_space_group_name_H-M "C 2/C"
_symmetry_group_IT_number 15
_symmetry_cell_setting 'monoclinic'
loop_
_space_group_symop_operation_xyz
x,y,z
-x,y,1/2-z
-x,-y,-z
x,-y,1/2+z
1/2+x,1/2+y,z
1/2-x,1/2+y,1/2-z
1/2-x,1/2-y,-z
1/2+x,1/2-y,1/2+z
loop_
_atom_site_type_symbol
_atom_site_label
_atom_site_fract_x
_atom_site_fract_y
_atom_site_fract_z
Si Si1 0.500000 0.069280 0.250000
Si Si2 0.500000 0.732256 0.250000
Si Si3 0.699388 0.603427 0.906534
Si Si4 0.468425 0.099167 0.661152
Si Si5 0.232790 0.805200 0.101280
Si Si6 0.469190 0.569077 0.964738
Si Si7 0.720514 0.796823 0.773316
O O1 0.373684 0.135466 0.436048
O O2 0.536332 0.997326 0.276300
O O3 0.378545 0.660846 0.428557
O O4 0.546677 0.803499 0.262329
O O5 0.851257 0.587246 0.745374
O O6 0.696977 0.685306 0.840564
O O7 0.616634 0.502507 0.985709
O O8 0.610778 0.122793 0.442478
O O9 0.211074 0.722714 0.195400
O O10 0.107167 0.884315 0.259761
O O11 0.250000 0.750000 0.000000
O O12 0.500000 0.500000 0.000000
O O13 0.368541 0.662241 0.110947
#
# Coordination Sequence:
#
# PCOD9296196 Si02
#       7
#     4   4   8   8   8   8   8
#     4  11  26  46  71 102 140 182 229 290 353 416
#     4   9  22  40  67 102 138 174 225 294 355 408
#     4  11  24  41  73 101 137 187 236 291 351 421
#     4  10  23  44  69 103 137 177 233 290 348 418
#     4  12  27  49  72 100 148 184 233 295 356 422
#     4  12  26  46  73 105 139 189 243 290 350 430
#     4  11  25  47  71 103 141 190 234 297 355 415
#
# _framework density 21.308654000000001
#
# number of rings (size 3 to 8) (size 9 to 14) (size 15 to 20)
#    0.000    1.000    1.667    3.500    7.000    0.667 
#    0.000    0.000    0.000    0.000    0.000    0.000 
#    0.000    0.000    0.000    0.000    0.000    0.000 
#
# Total GULP energy -134292.488449 kJ/mol
# GULP energy per Si atom -5595.520352 kJ/mol
# Density = 2.126015 g / cm^3
# Si number density = 21.308654 Si / 1000 Ang^3
#
#
#
# Elastic Constant Matrix: (Units=GPa)
#
#
# Indices 1 2 3 4 5 6 
#
# 1 89.2799 3.7977 22.8533 0.0000 9.9442 0.0000
# 2 3.7977 53.2077 20.6258 0.0000 4.3069 0.0000
# 3 22.8533 20.6258 128.1217 0.0000 1.0041 0.0000
# 4 0.0000 0.0000 0.0000 38.1018 0.0000 -5.7108
# 5 9.9442 4.3069 1.0041 0.0000 42.9747 0.0000
# 6 0.0000 0.0000 0.0000 -5.7108 0.0000 12.1281
#
#
#
# Elastic Compliance Matrix: (Units=1/GPa)
#
#
# Indices 1 2 3 4 5 6 
#
# 1 0.012052 0.000201 -0.002160 0.000000 -0.002759 0.000000
# 2 0.000201 0.020211 -0.003274 0.000000 -0.001995 0.000000
# 3 -0.002160 -0.003274 0.008713 0.000000 0.000624 0.000000
# 4 0.000000 0.000000 0.000000 0.028238 0.000000 0.013297
# 5 -0.002759 -0.001995 0.000624 0.000000 0.024093 0.000000
# 6 0.000000 0.000000 0.000000 0.013297 0.000000 0.088714
#
#
# Mechanical properties :
#
#
# Convention : Reuss Voigt Hill
#
# Bulk Modulus (GPa) = 32.77804 40.57364 36.67584
# Shear Modulus (GPa) = 24.67205 33.52974 29.10090
#
# Velocity S-wave (km/s) = 3.40640 3.97107 3.69953
# Velocity P-wave (km/s) = 5.55763 6.33310 5.95800
#
# Compressibility (1/GPa) = 0.03050823
#
# Stress axis : x y z
#
# Youngs Moduli (GPa) = 82.97053 49.47912 114.77656
#
# Poissons Ratio (x) = -0.00992 0.24797
# Poissons Ratio (y) = -0.01664 0.37575
# Poissons Ratio (z) = 0.17926 0.16198
#
# Static dielectric constant tensor:
#      x y z
#    x 1.181470 0.000000 -0.022200 
#    y 0.000000 1.162240 0.000000 
#    z -0.022200 0.000000 1.736590 
# 
# From -- ./inp_files/257609.got.cif
#   From: 2010.05.17/outbox.cif.g08.bks.cpg/sg15_129_cif.got.tgz:257609.got - 2010.06.03 18:47:42.
