data_PCOD9296619
_publ_section_title
;
Structure prediction by ZEFSAII (Michael W. Deem and Ramdas Pophale) SiO2 
 PCOD9296619
Probable space group: C 2/C
;
_chemical_formula_sum "Si O2"
_cell_formula_units_Z 40
_cell_length_a 7.251666
_cell_length_b 6.961328
_cell_length_c 29.400317
_cell_angle_alpha 90.000000
_cell_angle_beta 84.236119
_cell_angle_gamma 90.000000
_cell_volume 1476.660422
_symmetry_space_group_name_H-M "C 2/C"
_symmetry_group_IT_number 15
_symmetry_cell_setting 'monoclinic'
loop_
_space_group_symop_operation_xyz
x,y,z
-x,y,1/2-z
-x,-y,-z
x,-y,1/2+z
1/2+x,1/2+y,z
1/2-x,1/2+y,1/2-z
1/2-x,1/2-y,-z
1/2+x,1/2-y,1/2+z
loop_
_atom_site_type_symbol
_atom_site_label
_atom_site_fract_x
_atom_site_fract_y
_atom_site_fract_z
Si Si1 0.940626 0.011646 0.699484
Si Si2 0.031172 0.419264 0.200979
Si Si3 0.422350 0.023975 0.394519
Si Si4 0.515091 0.564775 0.099149
Si Si5 0.663598 0.098657 0.467650
O O1 0.750101 0.122331 0.695381
O O2 0.000000 0.053778 0.750000
O O3 0.914512 0.776822 0.701745
O O4 0.796321 0.946207 0.594717
O O5 0.007557 0.551916 0.158468
O O6 0.000000 0.515565 0.250000
O O7 0.049896 0.295394 0.098559
O O8 0.945967 0.979076 0.351160
O O9 0.552116 0.145659 0.424258
O O10 0.657321 0.489468 0.057357
O O11 0.750000 0.250000 0.500000
O O12 0.500000 0.000000 0.500000
#
# Coordination Sequence:
#
# PCOD9296619 Si02
#       5
#     8   8   8   8   8
#     4   9  19  38  66  98 135 178 223 279 346 416
#     4   9  19  38  66  98 135 178 223 279 346 416
#     4  10  23  45  70 102 140 182 233 292 351 420
#     4  10  23  45  70 102 140 182 233 292 351 420
#     4  12  26  48  74 104 139 192 238 296 354 412
#
# _framework density 27.088152999999998
#
# number of rings (size 3 to 8) (size 9 to 14) (size 15 to 20)
#    0.000    2.000    2.000    0.000    2.800    3.200 
#    0.000    4.000    0.000    0.000    0.000    0.000 
#    0.000    0.000    0.000    0.000    0.000    0.000 
#
# Total GULP energy -111846.979193 kJ/mol
# GULP energy per Si atom -5592.348960 kJ/mol
# Density = 2.702650 g / cm^3
# Si number density = 27.088153 Si / 1000 Ang^3
#
#
#
# Elastic Constant Matrix: (Units=GPa)
#
#
# Indices 1 2 3 4 5 6 
#
# 1 167.5689 39.7114 23.7621 0.0000 -9.5404 0.0000
# 2 39.7114 106.0739 -20.7850 0.0000 0.8624 0.0000
# 3 23.7621 -20.7850 152.8966 0.0000 -13.0068 0.0000
# 4 0.0000 0.0000 0.0000 -8.4184 0.0000 -2.5048
# 5 -9.5404 0.8624 -13.0068 0.0000 62.9437 0.0000
# 6 0.0000 0.0000 0.0000 -2.5048 0.0000 51.5526
#
#
#
# Elastic Compliance Matrix: (Units=1/GPa)
#
#
# Indices 1 2 3 4 5 6 
#
# 1 0.006887 -0.002858 -0.001391 0.000000 0.000796 0.000000
# 2 -0.002858 0.010872 0.001906 0.000000 -0.000188 0.000000
# 3 -0.001391 0.001906 0.007121 0.000000 0.001234 0.000000
# 4 0.000000 0.000000 0.000000 -0.117094 0.000000 -0.005689
# 5 0.000796 -0.000188 0.001234 0.000000 0.016265 0.000000
# 6 0.000000 0.000000 0.000000 -0.005689 0.000000 0.019121
#
#
# Mechanical properties :
#
#
# Convention : Reuss Voigt Hill
#
# Bulk Modulus (GPa) = 49.51709 56.87961 53.19835
# Shear Modulus (GPa) = -110.10796 46.80563 -31.65116
#
# Velocity S-wave (km/s) = -6.38250 4.16131 -3.42197
# Velocity P-wave (km/s) = 5.99961 6.64321 2.01704
#
# Compressibility (1/GPa) = 0.02019505
#
# Stress axis : x y z
#
# Youngs Moduli (GPa) = 145.19126 91.97759 140.43556
#
# Poissons Ratio (x) = 0.26283 0.19537
# Poissons Ratio (y) = 0.41489 -0.26768
# Poissons Ratio (z) = 0.20199 -0.17532
#
# Static dielectric constant tensor:
#      x y z
#    x 2.029470 0.000000 0.003390 
#    y 0.000000 2.197950 0.000000 
#    z 0.003390 0.000000 2.197720 
# 
# From -- ./inp_files/262558.got.cif
#   From: 2010.05.17/outbox.cif.g08.bks.cpg/sg15_132_cif.got.tgz:262558.got - 2010.06.03 18:47:42.
