data_PCOD9296801
_publ_section_title
;
Structure prediction by ZEFSAII (Michael W. Deem and Ramdas Pophale) SiO2 
 PCOD9296801
Probable space group: C 2/C
;
_chemical_formula_sum "Si O2"
_cell_formula_units_Z 40
_cell_length_a 15.511757
_cell_length_b 17.503397
_cell_length_c 15.663190
_cell_angle_alpha 90.000000
_cell_angle_beta 150.303665
_cell_angle_gamma 90.000000
_cell_volume 2106.794984
_symmetry_space_group_name_H-M "C 2/C"
_symmetry_group_IT_number 15
_symmetry_cell_setting 'monoclinic'
loop_
_space_group_symop_operation_xyz
x,y,z
-x,y,1/2-z
-x,-y,-z
x,-y,1/2+z
1/2+x,1/2+y,z
1/2-x,1/2+y,1/2-z
1/2-x,1/2-y,-z
1/2+x,1/2-y,1/2+z
loop_
_atom_site_type_symbol
_atom_site_label
_atom_site_fract_x
_atom_site_fract_y
_atom_site_fract_z
Si Si1 0.500000 0.406225 0.750000
Si Si2 0.936596 0.652309 0.876670
Si Si3 0.840697 0.789103 0.495201
Si Si4 0.647127 0.152145 0.499729
Si Si5 0.383730 0.023884 0.567072
Si Si6 0.000000 0.771597 0.250000
O O1 0.478988 0.349617 0.651062
O O2 0.319717 0.453029 0.598208
O O3 0.795055 0.667741 0.681331
O O4 0.856185 0.654594 0.901090
O O5 0.035854 0.573923 0.940336
O O6 0.070930 0.721773 0.981328
O O7 0.750000 0.750000 0.500000
O O8 0.520386 0.214944 0.348383
O O9 0.833029 0.176056 0.621155
O O10 0.601098 0.066223 0.434026
O O11 0.500000 0.044248 0.750000
#
# Coordination Sequence:
#
# PCOD9296801 Si02
#       6
#     4   8   8   8   8   4
#     4  12  23  38  65  96 130 174 206 248 313 402
#     4  12  22  38  64  99 131 163 218 265 311 383
#     4  12  20  37  63  97 132 170 202 252 322 383
#     4  11  24  43  67  91 122 169 218 274 317 377
#     4  12  23  42  65  93 134 173 208 257 330 388
#     4  10  23  46  67  86 120 170 224 266 329 376
#
# _framework density 18.986186
#
# number of rings (size 3 to 8) (size 9 to 14) (size 15 to 20)
#    0.000    0.400    7.000    2.400    0.000    0.000 
#    0.000    1.000    0.000    0.000    0.000    0.000 
#    0.000    0.000    0.000    0.000    0.000    0.000 
#
# Total GULP energy -111754.660782 kJ/mol
# GULP energy per Si atom -5587.733039 kJ/mol
# Density = 1.894297 g / cm^3
# Si number density = 18.986186 Si / 1000 Ang^3
#
#
#
# Elastic Constant Matrix: (Units=GPa)
#
#
# Indices 1 2 3 4 5 6 
#
# 1 76.0026 28.8089 21.0355 -0.0006 -17.8528 0.0002
# 2 28.8089 96.9881 19.2939 0.0002 -0.6049 0.0000
# 3 21.0355 19.2939 96.5842 -0.0018 -3.4495 -0.0013
# 4 -0.0006 0.0002 -0.0018 31.1320 -0.0017 -6.2506
# 5 -17.8528 -0.6049 -3.4495 -0.0017 26.7635 -0.0008
# 6 0.0002 0.0000 -0.0013 -6.2506 -0.0008 12.2339
#
#
#
# Elastic Compliance Matrix: (Units=1/GPa)
#
#
# Indices 1 2 3 4 5 6 
#
# 1 0.018548 -0.004911 -0.002633 0.000001 0.011923 0.000001
# 2 -0.004911 0.012038 -0.001449 -0.000001 -0.003191 -0.000001
# 3 -0.002633 -0.001449 0.011204 0.000001 -0.000345 0.000002
# 4 0.000001 -0.000001 0.000001 0.035793 0.000004 0.018288
# 5 0.011923 -0.003191 -0.000345 0.000004 0.045201 0.000005
# 6 0.000001 -0.000001 0.000002 0.018288 0.000005 0.091083
#
#
# Mechanical properties :
#
#
# Convention : Reuss Voigt Hill
#
# Bulk Modulus (GPa) = 42.00986 45.31684 43.66335
# Shear Modulus (GPa) = 20.85169 27.38832 24.12001
#
# Velocity S-wave (km/s) = 3.31759 3.80220 3.56813
# Velocity P-wave (km/s) = 6.07040 6.57235 6.32635
#
# Compressibility (1/GPa) = 0.02380394
#
# Stress axis : x y z
#
# Youngs Moduli (GPa) = 53.91305 83.07195 89.25219
#
# Poissons Ratio (x) = 0.40800 0.23498
# Poissons Ratio (y) = 0.26479 0.12932
# Poissons Ratio (z) = 0.14194 0.12037
#
# Static dielectric constant tensor:
#      x y z
#    x 1.630990 0.000000 0.001620 
#    y 0.000000 1.647090 0.000000 
#    z 0.001620 0.000000 1.701560 
# 
# From -- ./inp_files/38091.got.cif
#   From: 2010.05.17/outbox.cif.g08.bks.cpg/sg15_20_cif.got.tgz:38091.got - 2010.06.03 18:47:42.
