data_PCOD9296002
_publ_section_title
;
Structure prediction by ZEFSAII (Michael W. Deem and Ramdas Pophale) SiO2 
 PCOD9296002
Probable space group: C 2/C
;
_chemical_formula_sum "Si O2"
_cell_formula_units_Z 48
_cell_length_a 18.002972
_cell_length_b 10.622809
_cell_length_c 13.335440
_cell_angle_alpha 90.000000
_cell_angle_beta 68.171103
_cell_angle_gamma 90.000000
_cell_volume 2367.437570
_symmetry_space_group_name_H-M "C 2/C"
_symmetry_group_IT_number 15
_symmetry_cell_setting 'monoclinic'
loop_
_space_group_symop_operation_xyz
x,y,z
-x,y,1/2-z
-x,-y,-z
x,-y,1/2+z
1/2+x,1/2+y,z
1/2-x,1/2+y,1/2-z
1/2-x,1/2-y,-z
1/2+x,1/2-y,1/2+z
loop_
_atom_site_type_symbol
_atom_site_label
_atom_site_fract_x
_atom_site_fract_y
_atom_site_fract_z
Si Si1 0.150548 0.280637 0.673149
Si Si2 0.230086 0.881547 0.458795
Si Si3 0.000000 0.131084 0.750000
Si Si4 0.147046 0.558041 0.758541
Si Si5 0.304662 0.112385 0.550523
Si Si6 0.500000 0.219173 0.750000
Si Si7 0.453797 0.567715 0.432028
O O1 0.155406 0.411441 0.728799
O O2 0.231956 0.199756 0.627510
O O3 0.141890 0.316052 0.559117
O O4 0.072487 0.213064 0.755657
O O5 0.250000 0.750000 0.500000
O O6 0.273296 0.883924 0.330291
O O7 0.136200 0.900273 0.493195
O O8 0.265866 0.993903 0.510698
O O9 0.954632 0.041521 0.849309
O O10 0.144625 0.575221 0.878389
O O11 0.074720 0.628814 0.738154
O O12 0.512036 0.310704 0.646505
O O13 0.500000 0.500000 0.500000
#
# Coordination Sequence:
#
# PCOD9296002 Si02
#       7
#     8   8   4   8   8   4   8
#     4  10  23  44  64  99 136 169 233 279 336 421
#     4  11  23  45  67 102 139 178 240 289 343 431
#     4  11  23  44  66  96 139 173 228 280 338 413
#     4  11  25  41  72  94 137 183 226 288 363 411
#     4  10  24  43  68  97 131 183 227 286 341 421
#     4  11  25  46  60 106 141 171 242 296 338 445
#     4  11  26  41  71 101 141 186 227 293 360 410
#
# _framework density 20.275086000000002
#
# number of rings (size 3 to 8) (size 9 to 14) (size 15 to 20)
#    0.000    1.333    3.333    0.500    7.000    0.000 
#    0.000    4.167    0.000    0.000    0.000    0.000 
#    0.000    0.000    0.000    0.000    0.000    0.000 
#
# Total GULP energy -133926.723103 kJ/mol
# GULP energy per Si atom -5580.280129 kJ/mol
# Density = 2.022894 g / cm^3
# Si number density = 20.275086 Si / 1000 Ang^3
#
#
#
# Elastic Constant Matrix: (Units=GPa)
#
#
# Indices 1 2 3 4 5 6 
#
# 1 79.5231 14.0684 27.4042 0.0000 -9.2938 0.0000
# 2 14.0684 85.2922 4.6348 0.0000 4.2018 0.0000
# 3 27.4042 4.6348 61.6401 0.0000 8.8910 0.0000
# 4 0.0000 0.0000 0.0000 6.0504 0.0000 -9.0369
# 5 -9.2938 4.2018 8.8910 0.0000 41.0355 0.0000
# 6 0.0000 0.0000 0.0000 -9.0369 0.0000 28.4774
#
#
#
# Elastic Compliance Matrix: (Units=1/GPa)
#
#
# Indices 1 2 3 4 5 6 
#
# 1 0.016428 -0.002559 -0.007934 0.000000 0.005702 0.000000
# 2 -0.002559 0.012215 0.000499 0.000000 -0.001939 0.000000
# 3 -0.007934 0.000499 0.020624 0.000000 -0.006316 0.000000
# 4 0.000000 0.000000 0.000000 0.314197 0.000000 0.099706
# 5 0.005702 -0.001939 -0.006316 0.000000 0.027228 0.000000
# 6 0.000000 0.000000 0.000000 0.099706 0.000000 0.066756
#
#
# Mechanical properties :
#
#
# Convention : Reuss Voigt Hill
#
# Bulk Modulus (GPa) = 34.15429 35.40778 34.78104
# Shear Modulus (GPa) = 10.26282 27.13588 18.69935
#
# Velocity S-wave (km/s) = 2.25228 3.66236 3.04020
# Velocity P-wave (km/s) = 4.86269 5.94857 5.43283
#
# Compressibility (1/GPa) = 0.02927890
#
# Stress axis : x y z
#
# Youngs Moduli (GPa) = 60.87132 81.86689 48.48738
#
# Poissons Ratio (x) = 0.20954 0.38468
# Poissons Ratio (y) = 0.15580 -0.02420
# Poissons Ratio (z) = 0.48293 -0.04086
#
# Static dielectric constant tensor:
#      x y z
#    x 2.136120 0.000000 0.126230 
#    y 0.000000 1.765290 0.000000 
#    z 0.126230 0.000000 1.753030 
# 
# From -- ./inp_files/103850.got.cif
#   From: 2010.05.17/outbox.cif.g08.bks.cpg/sg15_52_cif.got.tgz:103850.got - 2010.06.03 18:47:42.
