data_PCOD9296153
_publ_section_title
;
Structure prediction by ZEFSAII (Michael W. Deem and Ramdas Pophale) SiO2 
 PCOD9296153
Probable space group: C 2/C
;
_chemical_formula_sum "Si O2"
_cell_formula_units_Z 52
_cell_length_a 17.881616
_cell_length_b 26.028974
_cell_length_c 7.998810
_cell_angle_alpha 90.000000
_cell_angle_beta 137.432055
_cell_angle_gamma 90.000000
_cell_volume 2518.453356
_symmetry_space_group_name_H-M "C 2/C"
_symmetry_group_IT_number 15
_symmetry_cell_setting 'monoclinic'
loop_
_space_group_symop_operation_xyz
x,y,z
-x,y,1/2-z
-x,-y,-z
x,-y,1/2+z
1/2+x,1/2+y,z
1/2-x,1/2+y,1/2-z
1/2-x,1/2-y,-z
1/2+x,1/2-y,1/2+z
loop_
_atom_site_type_symbol
_atom_site_label
_atom_site_fract_x
_atom_site_fract_y
_atom_site_fract_z
Si Si1 0.691662 0.947545 0.478234
Si Si2 0.028819 0.301382 0.608935
Si Si3 0.743626 0.345106 0.486530
Si Si4 0.000000 0.626290 0.750000
Si Si5 0.368354 0.061934 0.009290
Si Si6 0.402193 0.398270 0.972741
Si Si7 0.474910 0.691107 0.017756
O O1 0.606620 0.910722 0.439845
O O2 0.665997 0.937047 0.241692
O O3 0.664398 0.006356 0.472749
O O4 0.817311 0.935287 0.738049
O O5 0.992401 0.242738 0.526135
O O6 0.000000 0.317672 0.750000
O O7 0.984493 0.338167 0.388412
O O8 0.160720 0.305833 0.807330
O O9 0.803663 0.393647 0.500496
O O10 0.673474 0.364623 0.527959
O O11 0.654515 0.320040 0.218020
O O12 0.500000 0.067161 0.250000
O O13 0.500000 0.422002 0.250000
O O14 0.460850 0.358577 0.944348
O O15 0.500000 0.700431 0.250000
#
# Coordination Sequence:
#
# PCOD9296153 Si02
#       7
#     8   8   8   4   8   8   8
#     4  12  24  43  67 100 137 173 226 274 341 403
#     4  12  24  43  67 100 138 177 229 280 340 401
#     4  11  22  43  67  95 134 177 224 279 335 397
#     4  12  24  42  68 102 132 178 224 282 338 406
#     4  12  25  42  70 104 134 177 217 283 345 405
#     4  10  23  44  68  94 136 181 224 278 331 397
#     4  11  24  44  66  97 133 180 228 275 334 402
#
# _framework density 20.647592
#
# number of rings (size 3 to 8) (size 9 to 14) (size 15 to 20)
#    0.000    0.615    3.077    6.462    0.000    0.000 
#    0.000   10.000    0.000    0.000    0.000    0.000 
#    0.000    0.000    0.000    0.000    0.000    0.000 
#
# Total GULP energy -145448.873680 kJ/mol
# GULP energy per Si atom -5594.187449 kJ/mol
# Density = 2.060060 g / cm^3
# Si number density = 20.647592 Si / 1000 Ang^3
#
#
#
# Elastic Constant Matrix: (Units=GPa)
#
#
# Indices 1 2 3 4 5 6 
#
# 1 59.1267 11.6602 22.4385 0.0000 -8.4983 0.0000
# 2 11.6602 107.7723 25.6893 0.0000 2.6264 0.0000
# 3 22.4385 25.6893 114.7272 0.0000 -2.9551 0.0000
# 4 0.0000 0.0000 0.0000 30.2337 0.0000 0.5871
# 5 -8.4983 2.6264 -2.9551 0.0000 40.9164 0.0000
# 6 0.0000 0.0000 0.0000 0.5871 0.0000 113.0086
#
#
#
# Elastic Compliance Matrix: (Units=1/GPa)
#
#
# Indices 1 2 3 4 5 6 
#
# 1 0.018982 -0.001357 -0.003311 0.000000 0.003790 0.000000
# 2 -0.001357 0.009924 -0.001984 0.000000 -0.001062 0.000000
# 3 -0.003311 -0.001984 0.009812 0.000000 0.000148 0.000000
# 4 0.000000 0.000000 0.000000 0.033079 0.000000 -0.000172
# 5 0.003790 -0.001062 0.000148 0.000000 0.025306 0.000000
# 6 0.000000 0.000000 0.000000 -0.000172 0.000000 0.008850
#
#
# Mechanical properties :
#
#
# Convention : Reuss Voigt Hill
#
# Bulk Modulus (GPa) = 39.34833 44.57804 41.96319
# Shear Modulus (GPa) = 39.14544 51.62095 45.38320
#
# Velocity S-wave (km/s) = 4.35890 5.00552 4.69336
# Velocity P-wave (km/s) = 6.66572 7.41915 7.05250
#
# Compressibility (1/GPa) = 0.02541404
#
# Stress axis : x y z
#
# Youngs Moduli (GPa) = 52.68225 100.76094 101.91568
#
# Poissons Ratio (x) = 0.13672 0.33745
# Poissons Ratio (y) = 0.07148 0.20223
# Poissons Ratio (z) = 0.17443 0.19993
#
# Static dielectric constant tensor:
#      x y z
#    x 1.721600 0.000000 -0.012750 
#    y 0.000000 1.711060 0.000000 
#    z -0.012750 0.000000 1.748430 
# 
# From -- ./inp_files/52219.got.cif
#   From: 2010.05.17/outbox.cif.g08.bks.cpg/sg15_27_cif.got.tgz:52219.got - 2010.06.03 18:47:42.
