data_PCOD9296978
_publ_section_title
;
Structure prediction by ZEFSAII (Michael W. Deem and Ramdas Pophale) SiO2 
 PCOD9296978
Probable space group: C 2/C
;
_chemical_formula_sum "Si O2"
_cell_formula_units_Z 52
_cell_length_a 20.932268
_cell_length_b 8.528031
_cell_length_c 12.162759
_cell_angle_alpha 90.000000
_cell_angle_beta 113.749363
_cell_angle_gamma 90.000000
_cell_volume 1987.321778
_symmetry_space_group_name_H-M "C 2/C"
_symmetry_group_IT_number 15
_symmetry_cell_setting 'monoclinic'
loop_
_space_group_symop_operation_xyz
x,y,z
-x,y,1/2-z
-x,-y,-z
x,-y,1/2+z
1/2+x,1/2+y,z
1/2-x,1/2+y,1/2-z
1/2-x,1/2-y,-z
1/2+x,1/2-y,1/2+z
loop_
_atom_site_type_symbol
_atom_site_label
_atom_site_fract_x
_atom_site_fract_y
_atom_site_fract_z
Si Si1 0.519913 0.398626 0.139422
Si Si2 0.180508 0.645809 0.944043
Si Si3 0.533428 0.750657 0.442644
Si Si4 0.189259 0.251902 0.219351
Si Si5 0.635437 0.819171 0.949357
Si Si6 0.000000 0.494945 0.750000
Si Si7 0.677890 0.405936 0.289312
O O1 0.500000 0.369258 0.250000
O O2 0.484049 0.567614 0.094296
O O3 0.508958 0.249803 0.052207
O O4 0.601968 0.412211 0.181549
O O5 0.164865 0.639895 0.802744
O O6 0.188696 0.466649 0.987506
O O7 0.114217 0.716761 0.964943
O O8 0.250000 0.750000 0.000000
O O9 0.361156 0.761035 0.421605
O O10 0.491387 0.879514 0.344359
O O11 0.265577 0.300491 0.231418
O O12 0.197691 0.084461 0.282679
O O13 0.661780 0.672530 0.895801
O O14 0.569281 0.898782 0.838184
#
# Coordination Sequence:
#
# PCOD9296978 Si02
#       7
#     8   8   8   8   8   4   8
#     4  11  24  45  79 123 169 217 283 337 429 508
#     4  11  24  50  89 123 171 220 286 351 436 509
#     4  10  23  46  77 121 166 228 275 351 420 511
#     4  12  27  51  81 121 169 223 280 358 436 508
#     4  11  28  52  80 123 166 225 287 352 428 513
#     4  10  24  54  80 114 174 218 290 344 438 486
#     4  12  28  50  81 122 166 220 285 357 429 514
#
# _framework density 26.165869000000001
#
# number of rings (size 3 to 8) (size 9 to 14) (size 15 to 20)
#    0.000    0.923    0.769    4.154    3.231    8.615 
#    0.000    3.846    0.000    0.000    8.000    0.000 
#    0.000    0.000    0.000    0.000    0.000    0.000 
#
# Total GULP energy -145312.883989 kJ/mol
# GULP energy per Si atom -5588.957076 kJ/mol
# Density = 2.610631 g / cm^3
# Si number density = 26.165869 Si / 1000 Ang^3
#
#
#
# Elastic Constant Matrix: (Units=GPa)
#
#
# Indices 1 2 3 4 5 6 
#
# 1 143.0449 43.3754 83.2026 0.0000 7.4377 0.0000
# 2 43.3754 133.1637 81.3910 0.0000 -8.6698 0.0000
# 3 83.2026 81.3910 152.5120 0.0000 -21.6811 0.0000
# 4 0.0000 0.0000 0.0000 68.7039 0.0000 16.3836
# 5 7.4377 -8.6698 -21.6811 0.0000 70.1871 0.0000
# 6 0.0000 0.0000 0.0000 16.3836 0.0000 71.2777
#
#
#
# Elastic Compliance Matrix: (Units=1/GPa)
#
#
# Indices 1 2 3 4 5 6 
#
# 1 0.010860 0.000225 -0.006489 0.000000 -0.003128 0.000000
# 2 0.000225 0.011165 -0.006159 0.000000 -0.000547 0.000000
# 3 -0.006489 -0.006159 0.013988 0.000000 0.004248 0.000000
# 4 0.000000 0.000000 0.000000 0.015399 0.000000 -0.003540
# 5 -0.003128 -0.000547 0.004248 0.000000 0.015824 0.000000
# 6 0.000000 0.000000 0.000000 -0.003540 0.000000 0.014843
#
#
# Mechanical properties :
#
#
# Convention : Reuss Voigt Hill
#
# Bulk Modulus (GPa) = 89.55492 93.85096 91.70294
# Shear Modulus (GPa) = 45.18857 56.75050 50.96953
#
# Velocity S-wave (km/s) = 4.16023 4.66217 4.41834
# Velocity P-wave (km/s) = 7.57475 8.05771 7.81996
#
# Compressibility (1/GPa) = 0.01116633
#
# Stress axis : x y z
#
# Youngs Moduli (GPa) = 92.08401 89.56483 71.48973
#
# Poissons Ratio (x) = -0.02019 0.46392
# Poissons Ratio (y) = -0.02076 0.44032
# Poissons Ratio (z) = 0.59757 0.55165
#
# Static dielectric constant tensor:
#      x y z
#    x 2.068820 0.000000 0.148690 
#    y 0.000000 2.281900 0.000000 
#    z 0.148690 0.000000 2.360390 
# 
# From -- ./inp_files/247061.got.cif
#   From: 2010.05.17/outbox.cif.g08.bks.cpg/sg15_124_cif.got.tgz:247061.got - 2010.06.03 18:47:42.
