data_PCOD9296402
_publ_section_title
;
Structure prediction by ZEFSAII (Michael W. Deem and Ramdas Pophale) SiO2 
 PCOD9296402
Probable space group: C 2/C
;
_chemical_formula_sum "Si O2"
_cell_formula_units_Z 40
_cell_length_a 9.378204
_cell_length_b 15.772052
_cell_length_c 13.342494
_cell_angle_alpha 90.000000
_cell_angle_beta 46.467085
_cell_angle_gamma 90.000000
_cell_volume 1430.771248
_symmetry_space_group_name_H-M "C 2/C"
_symmetry_group_IT_number 15
_symmetry_cell_setting 'monoclinic'
loop_
_space_group_symop_operation_xyz
x,y,z
-x,y,1/2-z
-x,-y,-z
x,-y,1/2+z
1/2+x,1/2+y,z
1/2-x,1/2+y,1/2-z
1/2-x,1/2-y,-z
1/2+x,1/2-y,1/2+z
loop_
_atom_site_type_symbol
_atom_site_label
_atom_site_fract_x
_atom_site_fract_y
_atom_site_fract_z
Si Si1 0.883084 0.770137 0.158512
Si Si2 0.806976 0.425839 0.211934
Si Si3 0.177703 0.033524 0.981256
Si Si4 0.005008 0.408439 0.581568
Si Si5 0.958125 0.797754 0.902542
O O1 0.863546 0.857591 0.228836
O O2 0.979415 0.681996 0.145012
O O3 0.001135 0.793979 0.001074
O O4 0.651492 0.740993 0.257189
O O5 0.807796 0.419999 0.332349
O O6 0.824469 0.527159 0.188148
O O7 0.969283 0.397655 0.051000
O O8 0.093190 0.104790 0.095409
O O9 0.306243 0.959888 0.968750
O O10 0.000000 0.000000 0.000000
O O11 0.750000 0.750000 0.000000
#
# Coordination Sequence:
#
# PCOD9296402 Si02
#       5
#     8   8   8   8   8
#     4  11  22  44  73 114 151 200 260 318 389 466
#     4  10  23  44  73 113 146 195 265 308 391 473
#     4  11  25  45  72 106 148 200 259 318 387 462
#     4  11  23  44  80 105 157 206 253 329 390 459
#     4  11  23  41  70 109 151 193 253 317 381 462
#
# _framework density 27.956949999999999
#
# number of rings (size 3 to 8) (size 9 to 14) (size 15 to 20)
#    0.000    1.200    2.000    3.600    2.800    4.000 
#    3.600    4.000   17.600    3.600    0.000    0.000 
#    0.000    0.000    0.000    0.000    0.000    0.000 
#
# Total GULP energy -111630.808473 kJ/mol
# GULP energy per Si atom -5581.540424 kJ/mol
# Density = 2.789332 g / cm^3
# Si number density = 27.956950 Si / 1000 Ang^3
#
#
#
# Elastic Constant Matrix: (Units=GPa)
#
#
# Indices 1 2 3 4 5 6 
#
# 1 93.1887 36.1728 20.2205 -0.0001 -34.9921 0.0001
# 2 36.1728 197.7931 26.4276 0.0000 -16.1263 0.0000
# 3 20.2205 26.4276 168.7788 0.0000 10.2146 0.0000
# 4 -0.0001 0.0000 0.0000 60.9568 0.0000 -9.0045
# 5 -34.9921 -16.1263 10.2146 0.0000 36.4793 -0.0001
# 6 0.0001 0.0000 0.0000 -9.0045 -0.0001 31.5605
#
#
#
# Elastic Compliance Matrix: (Units=1/GPa)
#
#
# Indices 1 2 3 4 5 6 
#
# 1 0.018883 -0.001543 -0.003129 0.000000 0.018307 0.000000
# 2 -0.001543 0.005535 -0.000753 0.000000 0.001178 0.000000
# 3 -0.003129 -0.000753 0.006734 0.000000 -0.005219 0.000000
# 4 0.000000 0.000000 0.000000 0.017127 0.000000 0.004886
# 5 0.018307 0.001178 -0.005219 0.000000 0.046956 0.000000
# 6 0.000000 0.000000 0.000000 0.004886 0.000000 0.033079
#
#
# Mechanical properties :
#
#
# Convention : Reuss Voigt Hill
#
# Bulk Modulus (GPa) = 49.25592 69.48916 59.37254
# Shear Modulus (GPa) = 34.26319 50.92863 42.59591
#
# Velocity S-wave (km/s) = 3.50461 4.27275 3.90760
# Velocity P-wave (km/s) = 5.83379 7.01794 6.45309
#
# Compressibility (1/GPa) = 0.02030213
#
# Stress axis : x y z
#
# Youngs Moduli (GPa) = 52.95801 180.68290 148.51025
#
# Poissons Ratio (x) = 0.27874 0.46464
# Poissons Ratio (y) = 0.08170 0.11184
# Poissons Ratio (z) = 0.16569 0.13606
#
# Static dielectric constant tensor:
#      x y z
#    x 2.329590 0.000000 -0.002510 
#    y 0.000000 2.220210 0.000000 
#    z -0.002510 0.000000 2.165830 
# 
# From -- ./inp_files/248846.got.cif
#   From: 2010.05.17/outbox.cif.g08.bks.cpg/sg15_125_cif.got.tgz:248846.got - 2010.06.03 18:47:42.
