data_PCOD9296889
_publ_section_title
;
Structure prediction by ZEFSAII (Michael W. Deem and Ramdas Pophale) SiO2 
 PCOD9296889
Probable space group: C 2/C
;
_chemical_formula_sum "Si O2"
_cell_formula_units_Z 60
_cell_length_a 29.656035
_cell_length_b 10.843319
_cell_length_c 9.009742
_cell_angle_alpha 90.000000
_cell_angle_beta 69.425067
_cell_angle_gamma 90.000000
_cell_volume 2712.454846
_symmetry_space_group_name_H-M "C 2/C"
_symmetry_group_IT_number 15
_symmetry_cell_setting 'monoclinic'
loop_
_space_group_symop_operation_xyz
x,y,z
-x,y,1/2-z
-x,-y,-z
x,-y,1/2+z
1/2+x,1/2+y,z
1/2-x,1/2+y,1/2-z
1/2-x,1/2-y,-z
1/2+x,1/2-y,1/2+z
loop_
_atom_site_type_symbol
_atom_site_label
_atom_site_fract_x
_atom_site_fract_y
_atom_site_fract_z
Si Si1 0.909437 0.445500 0.750454
Si Si2 0.735839 0.160691 0.736421
Si Si3 0.730951 0.575207 0.124367
Si Si4 0.116527 0.887360 0.721849
Si Si5 0.000000 0.455455 0.250000
Si Si6 0.377083 0.835760 0.100400
Si Si7 0.532588 0.579705 0.852841
Si Si8 0.921997 0.720664 0.993995
O O1 0.889236 0.577982 0.727219
O O2 0.889675 0.360765 0.640756
O O3 0.967437 0.460839 0.680646
O O4 0.897517 0.391913 0.925184
O O5 0.748655 0.307443 0.705489
O O6 0.744488 0.102239 0.562942
O O7 0.680034 0.166017 0.843927
O O8 0.759055 0.060288 0.820561
O O9 0.673076 0.584142 0.168460
O O10 0.104211 0.799806 0.877382
O O11 0.106134 0.806540 0.587480
O O12 0.080512 0.002089 0.757596
O O13 0.960328 0.367859 0.369960
O O14 0.500000 0.609495 0.750000
O O15 0.500000 0.500000 0.000000
O O16 0.548653 0.696026 0.926571
#
# Coordination Sequence:
#
# PCOD9296889 Si02
#       8
#     8   8   8   8   4   8   8   8
#     4  12  25  39  69 101 134 185 230 287 343 422
#     4  10  23  46  71 106 141 185 231 297 362 425
#     4  10  24  45  76 103 144 184 237 298 356 436
#     4  11  25  47  67 100 141 187 234 291 347 415
#     4  12  24  44  64 102 142 178 236 284 350 400
#     4  11  23  44  69 101 144 179 231 288 356 416
#     4  12  27  44  66  94 135 188 234 282 341 405
#     4  12  26  43  69  96 138 185 228 293 343 409
#
# _framework density 22.120183999999998
#
# number of rings (size 3 to 8) (size 9 to 14) (size 15 to 20)
#    0.000    0.800    4.000    2.000    4.667    2.667 
#    2.400    0.000    0.000    0.000    0.000    0.000 
#    0.000    0.000    0.000    0.000    0.000    0.000 
#
# Total GULP energy -167619.083466 kJ/mol
# GULP energy per Si atom -5587.302782 kJ/mol
# Density = 2.206984 g / cm^3
# Si number density = 22.120184 Si / 1000 Ang^3
#
#
#
# Elastic Constant Matrix: (Units=GPa)
#
#
# Indices 1 2 3 4 5 6 
#
# 1 83.3972 37.9720 30.2208 0.0000 11.5818 0.0000
# 2 37.9720 80.9486 26.7734 0.0000 7.8214 0.0000
# 3 30.2208 26.7734 69.4098 0.0000 12.4122 0.0000
# 4 0.0000 0.0000 0.0000 39.2870 0.0000 15.5781
# 5 11.5818 7.8214 12.4122 0.0000 26.4692 0.0000
# 6 0.0000 0.0000 0.0000 15.5781 0.0000 25.4625
#
#
#
# Elastic Compliance Matrix: (Units=1/GPa)
#
#
# Indices 1 2 3 4 5 6 
#
# 1 0.016841 -0.006124 -0.004340 0.000000 -0.003524 0.000000
# 2 -0.006124 0.016463 -0.003595 0.000000 -0.000500 0.000000
# 3 -0.004340 -0.003595 0.018724 0.000000 -0.005819 0.000000
# 4 0.000000 0.000000 0.000000 0.033607 0.000000 -0.020561
# 5 -0.003524 -0.000500 -0.005819 0.000000 0.042198 0.000000
# 6 0.000000 0.000000 0.000000 -0.020561 0.000000 0.051853
#
#
# Mechanical properties :
#
#
# Convention : Reuss Voigt Hill
#
# Bulk Modulus (GPa) = 41.82198 47.07647 44.44922
# Shear Modulus (GPa) = 23.17235 27.49637 25.33436
#
# Velocity S-wave (km/s) = 3.24012 3.52951 3.38791
# Velocity P-wave (km/s) = 5.73983 6.15940 5.95331
#
# Compressibility (1/GPa) = 0.02391087
#
# Stress axis : x y z
#
# Youngs Moduli (GPa) = 59.37751 60.74069 53.40718
#
# Poissons Ratio (x) = 0.37198 0.23180
# Poissons Ratio (y) = 0.36363 0.19198
# Poissons Ratio (z) = 0.25771 0.21834
#
# Static dielectric constant tensor:
#      x y z
#    x 1.773010 0.000000 0.033590 
#    y 0.000000 1.663250 0.000000 
#    z 0.033590 0.000000 1.829430 
# 
# From -- ./inp_files/69360.got.cif
#   From: 2010.05.17/outbox.cif.g08.bks.cpg/sg15_35_cif.got.tgz:69360.got - 2010.06.03 18:47:42.
