data_PCOD9296244
_publ_section_title
;
Structure prediction by ZEFSAII (Michael W. Deem and Ramdas Pophale) SiO2 
 PCOD9296244
Probable space group: C 2/C
;
_chemical_formula_sum "Si O2"
_cell_formula_units_Z 32
_cell_length_a 19.353366
_cell_length_b 17.563235
_cell_length_c 10.552628
_cell_angle_alpha 90.000000
_cell_angle_beta 22.241986
_cell_angle_gamma 90.000000
_cell_volume 1357.717813
_symmetry_space_group_name_H-M "C 2/C"
_symmetry_group_IT_number 15
_symmetry_cell_setting 'monoclinic'
loop_
_space_group_symop_operation_xyz
x,y,z
-x,y,1/2-z
-x,-y,-z
x,-y,1/2+z
1/2+x,1/2+y,z
1/2-x,1/2+y,1/2-z
1/2-x,1/2-y,-z
1/2+x,1/2-y,1/2+z
loop_
_atom_site_type_symbol
_atom_site_label
_atom_site_fract_x
_atom_site_fract_y
_atom_site_fract_z
Si Si1 0.759250 0.682997 0.586296
Si Si2 0.392971 0.022217 0.307096
Si Si3 0.203580 0.215866 0.944130
Si Si4 0.565451 0.567563 0.269907
O O1 0.750000 0.750000 0.500000
O O2 0.881180 0.613353 0.332916
O O3 0.811415 0.723832 0.630476
O O4 0.573724 0.631018 0.932546
O O5 0.500000 0.995329 0.250000
O O6 0.187847 0.985682 0.651720
O O7 0.500000 0.000000 0.000000
O O8 0.206832 0.126074 0.964924
O O9 0.000000 0.242177 0.250000
O O10 0.250000 0.250000 0.000000
O O11 0.500000 0.526043 0.250000
#
# Coordination Sequence:
#
# PCOD9296244 Si02
#       4
#     8   8   8   8
#     4  10  23  44  70 102 136 178 235 292 345 418
#     4  12  26  44  68 103 142 180 230 293 352 418
#     4   9  20  40  64  92 129 174 221 275 337 405
#     4   9  21  44  69  93 132 186 232 276 342 423
#
# _framework density 23.568963
#
# number of rings (size 3 to 8) (size 9 to 14) (size 15 to 20)
#    0.000    2.500    0.000    3.750    0.000   11.000 
#    0.000   10.000    0.000    0.000    0.000    0.000 
#    0.000    0.000    0.000    0.000    0.000    0.000 
#
# Total GULP energy -89104.697683 kJ/mol
# GULP energy per Si atom -5569.043605 kJ/mol
# Density = 2.351532 g / cm^3
# Si number density = 23.568963 Si / 1000 Ang^3
#
#
#
# Elastic Constant Matrix: (Units=GPa)
#
#
# Indices 1 2 3 4 5 6 
#
# 1 238.9541 86.9865 59.6587 -0.0014 3.5854 0.0043
# 2 86.9865 75.8622 32.4720 0.0001 5.6281 0.0036
# 3 59.6587 32.4720 133.2182 -0.0026 7.3191 0.0068
# 4 -0.0014 0.0001 -0.0026 25.4977 0.0022 -4.6115
# 5 3.5854 5.6281 7.3191 0.0022 51.6549 -0.0039
# 6 0.0043 0.0036 0.0068 -4.6115 -0.0039 32.5771
#
#
#
# Elastic Compliance Matrix: (Units=1/GPa)
#
#
# Indices 1 2 3 4 5 6 
#
# 1 0.007423 -0.007946 -0.001418 0.000000 0.000551 0.000000
# 2 -0.007946 0.023285 -0.002024 -0.000001 -0.001699 -0.000001
# 3 -0.001418 -0.002024 0.008685 0.000001 -0.000912 -0.000001
# 4 0.000000 -0.000001 0.000001 0.040250 -0.000001 0.005698
# 5 0.000551 -0.001699 -0.000912 -0.000001 0.019635 0.000002
# 6 0.000000 -0.000001 -0.000001 0.005698 0.000002 0.031503
#
#
# Mechanical properties :
#
#
# Convention : Reuss Voigt Hill
#
# Bulk Modulus (GPa) = 60.17632 89.58544 74.88088
# Shear Modulus (GPa) = 31.42773 39.87374 35.65074
#
# Velocity S-wave (km/s) = 3.65559 4.11760 3.89345
# Velocity P-wave (km/s) = 6.58826 7.79093 7.21470
#
# Compressibility (1/GPa) = 0.01661783
#
# Stress axis : x y z
#
# Youngs Moduli (GPa) = 134.71573 42.94619 115.14264
#
# Poissons Ratio (x) = 0.34123 0.16325
# Poissons Ratio (y) = 1.07039 0.23307
# Poissons Ratio (z) = 0.19100 0.08693
#
# Static dielectric constant tensor:
#      x y z
#    x 2.137150 -0.000020 -0.014700 
#    y -0.000020 1.862710 0.000000 
#    z -0.014700 0.000000 2.198810 
# 
# From -- ./inp_files/42490.got.cif
#   From: 2010.05.17/outbox.cif.g08.bks.cpg/sg15_22_cif.got.tgz:42490.got - 2010.06.03 18:47:42.
