data_PCOD9296818
_publ_section_title
;
Structure prediction by ZEFSAII (Michael W. Deem and Ramdas Pophale) SiO2 
 PCOD9296818
Probable space group: C 2/C
;
_chemical_formula_sum "Si O2"
_cell_formula_units_Z 60
_cell_length_a 23.483730
_cell_length_b 14.338367
_cell_length_c 8.512522
_cell_angle_alpha 90.000000
_cell_angle_beta 72.341004
_cell_angle_gamma 90.000000
_cell_volume 2731.257783
_symmetry_space_group_name_H-M "C 2/C"
_symmetry_group_IT_number 15
_symmetry_cell_setting 'monoclinic'
loop_
_space_group_symop_operation_xyz
x,y,z
-x,y,1/2-z
-x,-y,-z
x,-y,1/2+z
1/2+x,1/2+y,z
1/2-x,1/2+y,1/2-z
1/2-x,1/2-y,-z
1/2+x,1/2-y,1/2+z
loop_
_atom_site_type_symbol
_atom_site_label
_atom_site_fract_x
_atom_site_fract_y
_atom_site_fract_z
Si Si1 0.110993 0.425583 0.714382
Si Si2 0.000000 0.001896 0.750000
Si Si3 0.213278 0.714679 0.182400
Si Si4 0.911307 0.938551 0.571468
Si Si5 0.374710 0.350761 0.081108
Si Si6 0.906972 0.625794 0.633090
Si Si7 0.479548 0.222960 0.085813
Si Si8 0.672463 0.293076 0.719640
O O1 0.176542 0.381677 0.692386
O O2 0.095789 0.532344 0.762902
O O3 0.100776 0.405642 0.540199
O O4 0.065503 0.364163 0.856088
O O5 0.047200 0.063253 0.615293
O O6 0.958824 0.939888 0.672869
O O7 0.165690 0.795560 0.260791
O O8 0.258862 0.703689 0.289078
O O9 0.250000 0.750000 0.000000
O O10 0.864196 0.857383 0.627387
O O11 0.879319 0.039038 0.601334
O O12 0.440594 0.306365 0.045837
O O13 0.345886 0.329756 0.935857
O O14 0.853051 0.690107 0.735966
O O15 0.966505 0.689609 0.571450
O O16 0.500000 0.241472 0.250000
#
# Coordination Sequence:
#
# PCOD9296818 Si02
#       8
#     8   4   8   8   8   8   8   8
#     4  10  23  46  68 102 133 188 230 289 345 418
#     4  10  24  42  68 100 144 182 226 280 340 440
#     4  11  25  49  74  98 137 182 245 294 349 411
#     4  11  25  44  70 105 143 185 235 278 361 421
#     4  11  26  46  71 105 136 190 231 294 351 418
#     4  11  24  42  72 103 143 177 230 282 360 416
#     4   9  22  42  71 103 140 183 228 281 354 420
#     4  12  27  47  67 105 142 186 236 298 342 415
#
# _framework density 21.967901000000001
#
# number of rings (size 3 to 8) (size 9 to 14) (size 15 to 20)
#    0.000    1.333    2.667    0.800   10.267    1.600 
#    2.400    0.000    0.000    0.000    0.000    0.000 
#    0.000    0.000    0.000    0.000    0.000    0.000 
#
# Total GULP energy -167875.983809 kJ/mol
# GULP energy per Si atom -5595.866127 kJ/mol
# Density = 2.191790 g / cm^3
# Si number density = 21.967901 Si / 1000 Ang^3
#
#
#
# Elastic Constant Matrix: (Units=GPa)
#
#
# Indices 1 2 3 4 5 6 
#
# 1 104.3655 18.2486 19.9179 0.0000 -0.6734 0.0000
# 2 18.2486 90.9983 -8.8209 0.0000 -4.3135 0.0000
# 3 19.9179 -8.8209 46.9661 0.0000 -4.6685 0.0000
# 4 0.0000 0.0000 0.0000 26.3964 0.0000 -4.9007
# 5 -0.6734 -4.3135 -4.6685 0.0000 34.7988 0.0000
# 6 0.0000 0.0000 0.0000 -4.9007 0.0000 16.7937
#
#
#
# Elastic Compliance Matrix: (Units=1/GPa)
#
#
# Indices 1 2 3 4 5 6 
#
# 1 0.011073 -0.002774 -0.005301 0.000000 -0.000841 0.000000
# 2 -0.002774 0.011987 0.003618 0.000000 0.001918 0.000000
# 3 -0.005301 0.003618 0.024582 0.000000 0.003644 0.000000
# 4 0.000000 0.000000 0.000000 0.040054 0.000000 0.011689
# 5 -0.000841 0.001918 0.003644 0.000000 0.029447 0.000000
# 6 0.000000 0.000000 0.000000 0.011689 0.000000 0.062957
#
#
# Mechanical properties :
#
#
# Convention : Reuss Voigt Hill
#
# Bulk Modulus (GPa) = 25.82024 33.44678 29.63351
# Shear Modulus (GPa) = 24.76202 29.79672 27.27937
#
# Velocity S-wave (km/s) = 3.36101 3.68690 3.52772
# Velocity P-wave (km/s) = 5.18083 5.77777 5.48742
#
# Compressibility (1/GPa) = 0.03872930
#
# Stress axis : x y z
#
# Youngs Moduli (GPa) = 90.31011 83.42229 40.68079
#
# Poissons Ratio (x) = 0.23143 0.21563
# Poissons Ratio (y) = 0.25054 -0.14720
# Poissons Ratio (z) = 0.47869 -0.30186
#
# Static dielectric constant tensor:
#      x y z
#    x 1.813400 0.000000 -0.013470 
#    y 0.000000 1.774320 0.000000 
#    z -0.013470 0.000000 1.864790 
# 
# From -- ./inp_files/61903.got.cif
#   From: 2010.05.17/outbox.cif.g08.bks.cpg/sg15_31_cif.got.tgz:61903.got - 2010.06.03 18:47:42.
