data_PCOD9296367
_publ_section_title
;
Structure prediction by ZEFSAII (Michael W. Deem and Ramdas Pophale) SiO2 
 PCOD9296367
Probable space group: C 2/C
;
_chemical_formula_sum "Si O2"
_cell_formula_units_Z 40
_cell_length_a 14.726517
_cell_length_b 13.798609
_cell_length_c 25.311197
_cell_angle_alpha 90.000000
_cell_angle_beta 159.102933
_cell_angle_gamma 90.000000
_cell_volume 1834.590686
_symmetry_space_group_name_H-M "C 2/C"
_symmetry_group_IT_number 15
_symmetry_cell_setting 'monoclinic'
loop_
_space_group_symop_operation_xyz
x,y,z
-x,y,1/2-z
-x,-y,-z
x,-y,1/2+z
1/2+x,1/2+y,z
1/2-x,1/2+y,1/2-z
1/2-x,1/2-y,-z
1/2+x,1/2-y,1/2+z
loop_
_atom_site_type_symbol
_atom_site_label
_atom_site_fract_x
_atom_site_fract_y
_atom_site_fract_z
Si Si1 0.094923 0.712952 0.644659
Si Si2 0.798718 0.945864 0.929508
Si Si3 0.923035 0.260034 0.543035
Si Si4 0.271472 0.923102 0.377794
Si Si5 0.673574 0.137362 0.897113
O O1 0.302462 0.782487 0.783855
O O2 0.223373 0.636127 0.674851
O O3 0.886396 0.780677 0.503655
O O4 0.968969 0.662537 0.626622
O O5 0.500000 0.928039 0.750000
O O6 0.777194 0.028892 0.961906
O O7 0.914038 0.844194 0.009579
O O8 0.000000 0.000000 0.000000
O O9 0.750000 0.250000 0.500000
O O10 0.832236 0.341445 0.454171
O O11 0.000000 0.965344 0.250000
O O12 0.500000 0.000000 0.500000
O O13 0.500000 0.135305 0.750000
#
# Coordination Sequence:
#
# PCOD9296367 Si02
#       5
#     8   8   8   8   8
#     4  11  24  44  75 102 151 189 239 293 370 428
#     4  11  24  43  72 100 141 181 239 295 352 417
#     4  12  26  44  72 103 140 185 240 297 354 426
#     4  12  28  49  70 106 148 196 246 303 369 443
#     4  10  23  44  72 109 141 187 236 300 357 434
#
# _framework density 21.803228000000001
#
# number of rings (size 3 to 8) (size 9 to 14) (size 15 to 20)
#    0.000    0.800    2.000    5.400    5.600    5.600 
#    0.000    1.000    0.000    0.000    0.000    0.000 
#    0.000    0.000    0.000    0.000    0.000    0.000 
#
# Total GULP energy -111720.653798 kJ/mol
# GULP energy per Si atom -5586.032690 kJ/mol
# Density = 2.175360 g / cm^3
# Si number density = 21.803228 Si / 1000 Ang^3
#
#
#
# Elastic Constant Matrix: (Units=GPa)
#
#
# Indices 1 2 3 4 5 6 
#
# 1 105.5245 39.1174 33.3326 0.0036 11.4776 -0.0001
# 2 39.1174 96.8664 29.2011 0.0056 3.1110 -0.0013
# 3 33.3326 29.2011 107.1388 0.0231 15.7383 -0.0083
# 4 0.0036 0.0056 0.0231 19.5914 -0.0068 22.2463
# 5 11.4776 3.1110 15.7383 -0.0068 34.2817 0.0006
# 6 -0.0001 -0.0013 -0.0083 22.2463 0.0006 15.0999
#
#
#
# Elastic Compliance Matrix: (Units=1/GPa)
#
#
# Indices 1 2 3 4 5 6 
#
# 1 0.011978 -0.004081 -0.002230 -0.000003 -0.002616 0.000004
# 2 -0.004081 0.012643 -0.002368 -0.000001 0.001306 0.000001
# 3 -0.002230 -0.002368 0.011293 0.000031 -0.004223 -0.000039
# 4 -0.000003 -0.000001 0.000031 -0.075852 -0.000030 0.111751
# 5 -0.002616 0.001306 -0.004223 -0.000030 0.031866 0.000041
# 6 0.000004 0.000001 -0.000039 0.111751 0.000041 -0.098414
#
#
# Mechanical properties :
#
#
# Convention : Reuss Voigt Hill
#
# Bulk Modulus (GPa) = 53.88911 56.98133 55.43522
# Shear Modulus (GPa) = -60.28352 27.65319 -16.31517
#
# Velocity S-wave (km/s) = -5.26393 3.56519 -2.73846
# Velocity P-wave (km/s) = 3.48933 6.56800 3.93466
#
# Compressibility (1/GPa) = 0.01855663
#
# Stress axis : x y z
#
# Youngs Moduli (GPa) = 83.48505 79.09241 88.54793
#
# Poissons Ratio (x) = 0.32276 0.19747
# Poissons Ratio (y) = 0.34069 0.20971
# Poissons Ratio (z) = 0.18618 0.18731
#
# Static dielectric constant tensor:
#      x y z
#    x 1.869800 0.000000 0.172600 
#    y 0.000000 1.766710 0.000010 
#    z 0.172600 0.000010 2.057880 
# 
# From -- ./inp_files/96003.got.cif
#   From: 2010.05.17/outbox.cif.g08.bks.cpg/sg15_49_cif.got.tgz:96003.got - 2010.06.03 18:47:42.
