data_PCOD9296734
_publ_section_title
;
Structure prediction by ZEFSAII (Michael W. Deem and Ramdas Pophale) SiO2 
 PCOD9296734
Probable space group: C 2/C
;
_chemical_formula_sum "Si O2"
_cell_formula_units_Z 44
_cell_length_a 31.407825
_cell_length_b 9.483987
_cell_length_c 15.703875
_cell_angle_alpha 90.000000
_cell_angle_beta 155.808034
_cell_angle_gamma 90.000000
_cell_volume 1916.913155
_symmetry_space_group_name_H-M "C 2/C"
_symmetry_group_IT_number 15
_symmetry_cell_setting 'monoclinic'
loop_
_space_group_symop_operation_xyz
x,y,z
-x,y,1/2-z
-x,-y,-z
x,-y,1/2+z
1/2+x,1/2+y,z
1/2-x,1/2+y,1/2-z
1/2-x,1/2-y,-z
1/2+x,1/2-y,1/2+z
loop_
_atom_site_type_symbol
_atom_site_label
_atom_site_fract_x
_atom_site_fract_y
_atom_site_fract_z
Si Si1 0.320278 0.261367 0.046663
Si Si2 0.818506 0.629598 0.348183
Si Si3 0.500000 0.313099 0.750000
Si Si4 0.309361 0.677513 0.234540
Si Si5 0.471567 0.886748 0.599807
Si Si6 0.138341 0.089150 0.358450
O O1 0.413557 0.148139 0.227015
O O2 0.351176 0.425316 0.102051
O O3 0.250000 0.250000 0.000000
O O4 0.249615 0.264040 0.833161
O O5 0.746394 0.578992 0.296099
O O6 0.903669 0.719749 0.550205
O O7 0.889919 0.513306 0.429545
O O8 0.465482 0.379860 0.776897
O O9 0.404998 0.749446 0.457279
O O10 0.353050 0.609051 0.227674
O O11 0.228780 0.803176 0.058195
O O12 0.500000 0.904649 0.750000
#
# Coordination Sequence:
#
# PCOD9296734 Si02
#       6
#     8   8   4   8   8   8
#     4  12  29  45  69 110 146 189 251 305 361 441
#     4  11  24  47  72 107 146 187 245 306 360 447
#     4  10  24  44  74  98 140 196 234 292 386 422
#     4  10  23  45  75 101 146 191 242 303 366 435
#     4  12  25  45  74 108 143 196 239 302 377 427
#     4  10  24  46  68 102 140 194 239 299 363 441
#
# _framework density 22.953569000000002
#
# number of rings (size 3 to 8) (size 9 to 14) (size 15 to 20)
#    0.000    1.091    4.545    0.000    6.364    2.909 
#    0.000    0.000    0.000    0.000    0.000    0.000 
#    0.000    0.000    0.000    0.000    0.000    0.000 
#
# Total GULP energy -122496.357486 kJ/mol
# GULP energy per Si atom -5568.016249 kJ/mol
# Density = 2.290133 g / cm^3
# Si number density = 22.953569 Si / 1000 Ang^3
#
#
#
# Elastic Constant Matrix: (Units=GPa)
#
#
# Indices 1 2 3 4 5 6 
#
# 1 135.4833 1.1935 45.0282 0.0000 30.8746 0.0000
# 2 1.1935 29.1109 15.5027 0.0000 -1.8845 0.0000
# 3 45.0282 15.5027 89.9046 0.0000 11.0569 0.0000
# 4 0.0000 0.0000 0.0000 31.6249 0.0000 19.1758
# 5 30.8746 -1.8845 11.0569 0.0000 36.9739 0.0000
# 6 0.0000 0.0000 0.0000 19.1758 0.0000 10.5976
#
#
#
# Elastic Compliance Matrix: (Units=1/GPa)
#
#
# Indices 1 2 3 4 5 6 
#
# 1 0.010601 0.001577 -0.004675 0.000000 -0.007374 0.000000
# 2 0.001577 0.038646 -0.007822 0.000000 0.002992 0.000000
# 3 -0.004675 -0.007822 0.014931 0.000000 -0.000960 0.000000
# 4 0.000000 0.000000 0.000000 -0.325436 0.000000 0.588861
# 5 -0.007374 0.002992 -0.000960 0.000000 0.033643 0.000000
# 6 0.000000 0.000000 0.000000 0.588861 0.000000 -0.971156
#
#
# Mechanical properties :
#
#
# Convention : Reuss Voigt Hill
#
# Bulk Modulus (GPa) = 23.61841 41.99418 32.80630
# Shear Modulus (GPa) = -4.29989 28.69091 12.19551
#
# Velocity S-wave (km/s) = -1.37017 3.53930 2.30752
# Velocity P-wave (km/s) = 2.79443 5.91923 4.62850
#
# Compressibility (1/GPa) = 0.04233985
#
# Stress axis : x y z
#
# Youngs Moduli (GPa) = 94.32950 25.87600 66.97464
#
# Poissons Ratio (x) = -0.04082 0.31308
# Poissons Ratio (y) = -0.14880 0.52387
# Poissons Ratio (z) = 0.44096 0.20240
#
# Static dielectric constant tensor:
#      x y z
#    x 1.918540 0.000000 0.001200 
#    y 0.000000 1.948050 0.000000 
#    z 0.001200 0.000000 1.890430 
# 
# From -- ./inp_files/177684.got.cif
#   From: 2010.05.17/outbox.cif.g08.bks.cpg/sg15_89_cif.got.tgz:177684.got - 2010.06.03 18:47:42.
