data_PCOD9296348
_publ_section_title
;
Structure prediction by ZEFSAII (Michael W. Deem and Ramdas Pophale) SiO2 
 PCOD9296348
Probable space group: C 2/C
;
_chemical_formula_sum "Si O2"
_cell_formula_units_Z 56
_cell_length_a 5.544357
_cell_length_b 23.009235
_cell_length_c 20.530041
_cell_angle_alpha 90.000000
_cell_angle_beta 114.584237
_cell_angle_gamma 90.000000
_cell_volume 2381.631363
_symmetry_space_group_name_H-M "C 2/C"
_symmetry_group_IT_number 15
_symmetry_cell_setting 'monoclinic'
loop_
_space_group_symop_operation_xyz
x,y,z
-x,y,1/2-z
-x,-y,-z
x,-y,1/2+z
1/2+x,1/2+y,z
1/2-x,1/2+y,1/2-z
1/2-x,1/2-y,-z
1/2+x,1/2-y,1/2+z
loop_
_atom_site_type_symbol
_atom_site_label
_atom_site_fract_x
_atom_site_fract_y
_atom_site_fract_z
Si Si1 0.643379 0.463713 0.443910
Si Si2 0.504823 0.788533 0.042155
Si Si3 0.207333 0.462488 0.185602
Si Si4 0.788816 0.628855 0.627932
Si Si5 0.404141 0.815109 0.594571
Si Si6 0.184844 0.229912 0.705957
Si Si7 0.196319 0.445945 0.898927
O O1 0.759832 0.450350 0.387276
O O2 0.415029 0.415232 0.429217
O O3 0.835245 0.460318 0.527247
O O4 0.480657 0.524042 0.417913
O O5 0.432856 0.831794 0.090989
O O6 0.714355 0.739789 0.085613
O O7 0.250000 0.750000 0.000000
O O8 0.574861 0.818638 0.981409
O O9 0.500000 0.465037 0.250000
O O10 0.014167 0.410839 0.185798
O O11 0.031420 0.521379 0.167845
O O12 0.626084 0.671659 0.657083
O O13 0.656160 0.789306 0.660615
O O14 0.312973 0.877083 0.610526
O O15 0.500000 0.223275 0.750000
O O16 0.000000 0.231732 0.750000
#
# Coordination Sequence:
#
# PCOD9296348 Si02
#       7
#     8   8   8   8   8   8   8
#     4  10  23  44  72 104 137 183 246 311 370 444
#     4  11  22  41  70 108 141 184 249 307 377 438
#     4  11  26  44  71 103 140 190 245 304 375 442
#     4  11  25  42  72 105 140 183 241 315 372 437
#     4  11  25  43  69 103 147 195 243 309 371 453
#     4  12  29  48  70 109 156 202 248 296 377 456
#     4  10  23  45  69 103 139 189 244 307 373 437
#
# _framework density 23.513293999999998
#
# number of rings (size 3 to 8) (size 9 to 14) (size 15 to 20)
#    0.000    1.143    1.429    3.000    8.000    5.714 
#    2.571    0.000    0.000    0.000    0.000    0.000 
#    0.000    0.000    0.000    0.000    0.000    0.000 
#
# Total GULP energy -156627.555089 kJ/mol
# GULP energy per Si atom -5593.841253 kJ/mol
# Density = 2.345978 g / cm^3
# Si number density = 23.513294 Si / 1000 Ang^3
#
#
#
# Elastic Constant Matrix: (Units=GPa)
#
#
# Indices 1 2 3 4 5 6 
#
# 1 66.7361 50.6754 34.0320 0.0000 -3.5774 0.0000
# 2 50.6754 172.4612 53.6499 0.0000 0.4469 0.0000
# 3 34.0320 53.6499 106.6401 0.0000 -1.5623 0.0000
# 4 0.0000 0.0000 0.0000 8.1341 0.0000 2.2837
# 5 -3.5774 0.4469 -1.5623 0.0000 53.8791 0.0000
# 6 0.0000 0.0000 0.0000 2.2837 0.0000 33.7772
#
#
#
# Elastic Compliance Matrix: (Units=1/GPa)
#
#
# Indices 1 2 3 4 5 6 
#
# 1 0.020866 -0.004824 -0.004213 0.000000 0.001303 0.000000
# 2 -0.004824 0.007991 -0.002487 0.000000 -0.000459 0.000000
# 3 -0.004213 -0.002487 0.011974 0.000000 0.000088 0.000000
# 4 0.000000 0.000000 0.000000 0.125319 0.000000 -0.008473
# 5 0.001303 -0.000459 0.000088 0.000000 0.018653 0.000000
# 6 0.000000 0.000000 0.000000 -0.008473 0.000000 0.030179
#
#
# Mechanical properties :
#
#
# Convention : Reuss Voigt Hill
#
# Bulk Modulus (GPa) = 56.23489 69.17245 62.70367
# Shear Modulus (GPa) = 20.49543 32.99009 26.74276
#
# Velocity S-wave (km/s) = 2.95558 3.74978 3.37612
# Velocity P-wave (km/s) = 5.96786 6.94479 6.47478
#
# Compressibility (1/GPa) = 0.01778255
#
# Stress axis : x y z
#
# Youngs Moduli (GPa) = 47.92581 125.14363 83.51102
#
# Poissons Ratio (x) = 0.60368 0.35182
# Poissons Ratio (y) = 0.23119 0.20772
# Poissons Ratio (z) = 0.20191 0.31128
#
# Static dielectric constant tensor:
#      x y z
#    x 1.922190 0.000000 0.088250 
#    y 0.000000 1.857700 0.000000 
#    z 0.088250 0.000000 2.158220 
# 
# From -- ./inp_files/228172.got.cif
#   From: 2010.05.17/outbox.cif.g08.bks.cpg/sg15_115_cif.got.tgz:228172.got - 2010.06.03 18:47:42.
