data_PCOD9296404
_publ_section_title
;
Structure prediction by ZEFSAII (Michael W. Deem and Ramdas Pophale) SiO2 
 PCOD9296404
Probable space group: C 2/C
;
_chemical_formula_sum "Si O2"
_cell_formula_units_Z 32
_cell_length_a 14.311056
_cell_length_b 5.333879
_cell_length_c 17.800526
_cell_angle_alpha 90.000000
_cell_angle_beta 70.488447
_cell_angle_gamma 90.000000
_cell_volume 1280.746589
_symmetry_space_group_name_H-M "C 2/C"
_symmetry_group_IT_number 15
_symmetry_cell_setting 'monoclinic'
loop_
_space_group_symop_operation_xyz
x,y,z
-x,y,1/2-z
-x,-y,-z
x,-y,1/2+z
1/2+x,1/2+y,z
1/2-x,1/2+y,1/2-z
1/2-x,1/2-y,-z
1/2+x,1/2-y,1/2+z
loop_
_atom_site_type_symbol
_atom_site_label
_atom_site_fract_x
_atom_site_fract_y
_atom_site_fract_z
Si Si1 0.895180 0.974302 0.245948
Si Si2 0.638113 0.859562 0.612561
Si Si3 0.752700 0.134767 0.398766
Si Si4 0.545799 0.688197 0.927201
O O1 0.798113 0.114805 0.301925
O O2 0.000000 0.082522 0.250000
O O3 0.887056 0.707126 0.292942
O O4 0.904611 0.965363 0.154924
O O5 0.801796 0.388906 0.414346
O O6 0.700516 0.610102 0.576306
O O7 0.538601 0.848740 0.591082
O O8 0.635579 0.146307 0.433437
O O9 0.500000 0.500000 0.000000
#
# Coordination Sequence:
#
# PCOD9296404 Si02
#       4
#     8   8   8   8
#     4   8  20  43  65  98 131 181 227 278 329 410
#     4   9  23  45  70  96 135 180 233 273 334 415
#     4  10  23  44  73  94 135 182 231 275 341 404
#     4  11  24  44  71 108 141 178 230 291 351 405
#
# _framework density 24.985429
#
# number of rings (size 3 to 8) (size 9 to 14) (size 15 to 20)
#    1.500    1.000    0.000    0.000    3.500    7.000 
#    0.000    2.500    0.000    0.000    0.000    0.000 
#    0.000    0.000    0.000    0.000    0.000    0.000 
#
# Total GULP energy -89476.130011 kJ/mol
# GULP energy per Si atom -5592.258126 kJ/mol
# Density = 2.492856 g / cm^3
# Si number density = 24.985429 Si / 1000 Ang^3
#
#
#
# Elastic Constant Matrix: (Units=GPa)
#
#
# Indices 1 2 3 4 5 6 
#
# 1 158.1037 59.4601 12.9508 0.0001 -23.7850 -0.0001
# 2 59.4601 135.0227 27.1868 0.0001 -21.1789 0.0004
# 3 12.9508 27.1868 170.9080 0.0000 -8.9874 0.0000
# 4 0.0001 0.0001 0.0000 33.9444 0.0000 -7.2714
# 5 -23.7850 -21.1789 -8.9874 0.0000 28.1662 0.0001
# 6 -0.0001 0.0004 0.0000 -7.2714 0.0001 -7.9079
#
#
#
# Elastic Compliance Matrix: (Units=1/GPa)
#
#
# Indices 1 2 3 4 5 6 
#
# 1 0.008098 -0.002842 0.000087 0.000000 0.004729 0.000000
# 2 -0.002842 0.009573 -0.001073 0.000000 0.004456 0.000000
# 3 0.000087 -0.001073 0.006079 0.000000 0.001206 0.000000
# 4 0.000000 0.000000 0.000000 0.024612 0.000000 -0.022631
# 5 0.004729 0.004456 0.001206 0.000000 0.043232 0.000001
# 6 0.000000 0.000000 0.000000 -0.022631 0.000001 -0.105647
#
#
# Mechanical properties :
#
#
# Convention : Reuss Voigt Hill
#
# Bulk Modulus (GPa) = 62.13643 73.69218 67.91430
# Shear Modulus (GPa) = -4842.06574 35.13634 -2403.46470
#
# Velocity S-wave (km/s) = -44.06998 3.75410 -31.04891
# Velocity P-wave (km/s) = 50.64215 6.95335 35.47026
#
# Compressibility (1/GPa) = 0.01609362
#
# Stress axis : x y z
#
# Youngs Moduli (GPa) = 123.48594 104.46478 164.51072
#
# Poissons Ratio (x) = 0.29688 -0.01433
# Poissons Ratio (y) = 0.35093 0.17653
# Poissons Ratio (z) = -0.01076 0.11210
#
# Static dielectric constant tensor:
#      x y z
#    x 1.972690 0.000000 0.062430 
#    y 0.000000 2.019170 0.000000 
#    z 0.062430 0.000000 2.152830 
# 
# From -- ./inp_files/93805.got.cif
#   From: 2010.05.17/outbox.cif.g08.bks.cpg/sg15_47_cif.got.tgz:93805.got - 2010.06.03 18:47:42.
