data_PCOD9296162
_publ_section_title
;
Structure prediction by ZEFSAII (Michael W. Deem and Ramdas Pophale) SiO2 
 PCOD9296162
Probable space group: C 2/C
;
_chemical_formula_sum "Si O2"
_cell_formula_units_Z 52
_cell_length_a 23.464721
_cell_length_b 9.247202
_cell_length_c 11.962963
_cell_angle_alpha 90.000000
_cell_angle_beta 119.948008
_cell_angle_gamma 90.000000
_cell_volume 2249.170723
_symmetry_space_group_name_H-M "C 2/C"
_symmetry_group_IT_number 15
_symmetry_cell_setting 'monoclinic'
loop_
_space_group_symop_operation_xyz
x,y,z
-x,y,1/2-z
-x,-y,-z
x,-y,1/2+z
1/2+x,1/2+y,z
1/2-x,1/2+y,1/2-z
1/2-x,1/2-y,-z
1/2+x,1/2-y,1/2+z
loop_
_atom_site_type_symbol
_atom_site_label
_atom_site_fract_x
_atom_site_fract_y
_atom_site_fract_z
Si Si1 0.179117 0.235638 0.373102
Si Si2 0.588766 0.613251 0.476788
Si Si3 0.604278 0.693705 0.893047
Si Si4 0.948182 0.401470 0.016448
Si Si5 0.811943 0.927996 0.221075
Si Si6 0.161600 0.598960 0.641965
Si Si7 0.500000 0.092488 0.250000
O O1 0.250000 0.250000 0.500000
O O2 0.126066 0.198720 0.414764
O O3 0.158900 0.362522 0.270115
O O4 0.184286 0.097434 0.298961
O O5 0.572869 0.455484 0.411219
O O6 0.535503 0.731845 0.464677
O O7 0.638823 0.598592 0.628562
O O8 0.663808 0.648902 0.869381
O O9 0.555307 0.790036 0.768701
O O10 0.625526 0.788418 0.021990
O O11 0.955993 0.478320 0.141672
O O12 0.874902 0.444691 0.906006
O O13 0.000000 0.500000 0.000000
O O14 0.737432 0.895135 0.180896
#
# Coordination Sequence:
#
# PCOD9296162 Si02
#       7
#     8   8   8   8   8   8   4
#     4  11  22  40  64 100 140 177 223 281 337 423
#     4  11  23  42  69 100 134 176 229 281 352 408
#     4  10  23  44  68  96 133 179 229 286 342 413
#     4  11  26  45  67  97 136 184 230 284 343 413
#     4  11  22  41  68 101 136 174 229 281 348 411
#     4  11  23  42  67  98 139 178 225 286 346 409
#     4  10  24  48  62  96 132 172 236 276 342 410
#
# _framework density 23.119631999999999
#
# number of rings (size 3 to 8) (size 9 to 14) (size 15 to 20)
#    0.000    1.231    3.077    2.308    2.154    0.615 
#    5.538    2.308    0.000    0.000    0.000    0.000 
#    0.000    0.000    0.000    0.000    0.000    0.000 
#
# Total GULP energy -145104.129063 kJ/mol
# GULP energy per Si atom -5580.928041 kJ/mol
# Density = 2.306701 g / cm^3
# Si number density = 23.119632 Si / 1000 Ang^3
#
#
#
# Elastic Constant Matrix: (Units=GPa)
#
#
# Indices 1 2 3 4 5 6 
#
# 1 31.6865 10.9298 -1.0857 0.0000 -1.5607 0.0000
# 2 10.9298 116.2806 35.1530 0.0000 -1.3011 0.0000
# 3 -1.0857 35.1530 88.6441 0.0000 -5.2287 0.0000
# 4 0.0000 0.0000 0.0000 17.0607 0.0000 1.6281
# 5 -1.5607 -1.3011 -5.2287 0.0000 25.5540 0.0000
# 6 0.0000 0.0000 0.0000 1.6281 0.0000 30.4746
#
#
#
# Elastic Compliance Matrix: (Units=1/GPa)
#
#
# Indices 1 2 3 4 5 6 
#
# 1 0.033007 -0.003681 0.001996 0.000000 0.002237 0.000000
# 2 -0.003681 0.010184 -0.004116 0.000000 -0.000549 0.000000
# 3 0.001996 -0.004116 0.013091 0.000000 0.002591 0.000000
# 4 0.000000 0.000000 0.000000 0.058915 0.000000 -0.003147
# 5 0.002237 -0.000549 0.002591 0.000000 0.039772 0.000000
# 6 0.000000 0.000000 0.000000 -0.003147 0.000000 0.032982
#
#
# Mechanical properties :
#
#
# Convention : Reuss Voigt Hill
#
# Bulk Modulus (GPa) = 22.38138 36.28950 29.33544
# Shear Modulus (GPa) = 23.31588 27.39213 25.35401
#
# Velocity S-wave (km/s) = 3.17912 3.44583 3.31515
# Velocity P-wave (km/s) = 4.81429 5.61802 5.23161
#
# Compressibility (1/GPa) = 0.04468001
#
# Stress axis : x y z
#
# Youngs Moduli (GPa) = 30.29623 98.19257 76.39064
#
# Poissons Ratio (x) = 0.36144 -0.15247
# Poissons Ratio (y) = 0.11152 0.31443
# Poissons Ratio (z) = -0.06047 0.40417
#
# Static dielectric constant tensor:
#      x y z
#    x 1.904820 0.000000 0.047020 
#    y 0.000000 1.867700 0.000000 
#    z 0.047020 0.000000 1.930190 
# 
# From -- ./inp_files/122053.got.cif
#   From: 2010.05.17/outbox.cif.g08.bks.cpg/sg15_62_cif.got.tgz:122053.got - 2010.06.03 18:47:42.
