data_PCOD9296961
_publ_section_title
;
Structure prediction by ZEFSAII (Michael W. Deem and Ramdas Pophale) SiO2 
 PCOD9296961
Probable space group: C 2/C
;
_chemical_formula_sum "Si O2"
_cell_formula_units_Z 32
_cell_length_a 10.823260
_cell_length_b 14.038441
_cell_length_c 9.532995
_cell_angle_alpha 90.000000
_cell_angle_beta 67.741142
_cell_angle_gamma 90.000000
_cell_volume 1340.523069
_symmetry_space_group_name_H-M "C 2/C"
_symmetry_group_IT_number 15
_symmetry_cell_setting 'monoclinic'
loop_
_space_group_symop_operation_xyz
x,y,z
-x,y,1/2-z
-x,-y,-z
x,-y,1/2+z
1/2+x,1/2+y,z
1/2-x,1/2+y,1/2-z
1/2-x,1/2-y,-z
1/2+x,1/2-y,1/2+z
loop_
_atom_site_type_symbol
_atom_site_label
_atom_site_fract_x
_atom_site_fract_y
_atom_site_fract_z
Si Si1 0.883507 0.899352 0.080495
Si Si2 0.892993 0.420654 0.177584
Si Si3 0.375690 0.265963 0.545689
Si Si4 0.689575 0.574421 0.209293
O O1 0.736826 0.869860 0.196992
O O2 0.893380 0.999384 0.158714
O O3 0.864333 0.908565 0.922171
O O4 0.004281 0.830363 0.066377
O O5 0.937918 0.336805 0.055799
O O6 0.830882 0.517048 0.138716
O O7 0.000000 0.443106 0.250000
O O8 0.250000 0.250000 0.500000
O O9 0.319975 0.328829 0.699590
#
# Coordination Sequence:
#
# PCOD9296961 Si02
#       4
#     8   8   8   8
#     4  10  24  46  76 104 144 187 242 295 357 430
#     4  10  25  45  69 107 144 182 240 296 364 422
#     4  12  25  44  70 104 146 190 246 292 359 427
#     4  10  23  46  75 107 141 192 237 299 359 432
#
# _framework density 23.871279000000001
#
# number of rings (size 3 to 8) (size 9 to 14) (size 15 to 20)
#    1.500    0.000    0.000    4.500    0.000    8.000 
#    4.500    0.000    0.000    0.000    0.000    0.000 
#    0.000    0.000    0.000    0.000    0.000    0.000 
#
# Total GULP energy -89361.585351 kJ/mol
# GULP energy per Si atom -5585.099084 kJ/mol
# Density = 2.381695 g / cm^3
# Si number density = 23.871279 Si / 1000 Ang^3
#
#
#
# Elastic Constant Matrix: (Units=GPa)
#
#
# Indices 1 2 3 4 5 6 
#
# 1 118.5451 65.4434 6.1579 0.0000 27.3393 0.0000
# 2 65.4434 116.2042 33.8512 0.0000 -5.6252 0.0000
# 3 6.1579 33.8512 91.1681 0.0000 11.5613 0.0000
# 4 0.0000 0.0000 0.0000 30.9770 0.0000 -3.1392
# 5 27.3393 -5.6252 11.5613 0.0000 26.5661 0.0000
# 6 0.0000 0.0000 0.0000 -3.1392 0.0000 56.9455
#
#
#
# Elastic Compliance Matrix: (Units=1/GPa)
#
#
# Indices 1 2 3 4 5 6 
#
# 1 0.028068 -0.020731 0.010607 0.000000 -0.037890 0.000000
# 2 -0.020731 0.025341 -0.012060 0.000000 0.031948 0.000000
# 3 0.010607 -0.012060 0.017399 0.000000 -0.021041 0.000000
# 4 0.000000 0.000000 0.000000 0.032463 0.000000 0.001790
# 5 -0.037890 0.031948 -0.021041 0.000000 0.092556 0.000000
# 6 0.000000 0.000000 0.000000 0.001790 0.000000 0.017659
#
#
# Mechanical properties :
#
#
# Convention : Reuss Voigt Hill
#
# Bulk Modulus (GPa) = 37.82507 59.64695 48.73601
# Shear Modulus (GPa) = 18.74995 37.59537 28.17266
#
# Velocity S-wave (km/s) = 2.80565 3.97283 3.43912
# Velocity P-wave (km/s) = 5.13570 6.78864 6.01918
#
# Compressibility (1/GPa) = 0.02643749
#
# Stress axis : x y z
#
# Youngs Moduli (GPa) = 35.62828 39.46250 57.47595
#
# Poissons Ratio (x) = 0.81810 -0.60963
# Poissons Ratio (y) = 0.73861 0.69318
# Poissons Ratio (z) = -0.37790 0.47593
#
# Static dielectric constant tensor:
#      x y z
#    x 2.007760 0.000000 -0.149990 
#    y 0.000000 1.917890 0.000000 
#    z -0.149990 0.000000 1.956470 
# 
# From -- ./inp_files/27988.got.cif
#   From: 2010.05.17/outbox.cif.g08.bks.cpg/sg15_14_cif.got.tgz:27988.got - 2010.06.03 18:47:42.
