data_PCOD9296327
_publ_section_title
;
Structure prediction by ZEFSAII (Michael W. Deem and Ramdas Pophale) SiO2 
 PCOD9296327
Probable space group: C 2/C
;
_chemical_formula_sum "Si O2"
_cell_formula_units_Z 48
_cell_length_a 14.726595
_cell_length_b 29.463470
_cell_length_c 8.255345
_cell_angle_alpha 90.000000
_cell_angle_beta 38.614669
_cell_angle_gamma 90.000000
_cell_volume 2235.432162
_symmetry_space_group_name_H-M "C 2/C"
_symmetry_group_IT_number 15
_symmetry_cell_setting 'monoclinic'
loop_
_space_group_symop_operation_xyz
x,y,z
-x,y,1/2-z
-x,-y,-z
x,-y,1/2+z
1/2+x,1/2+y,z
1/2-x,1/2+y,1/2-z
1/2-x,1/2-y,-z
1/2+x,1/2-y,1/2+z
loop_
_atom_site_type_symbol
_atom_site_label
_atom_site_fract_x
_atom_site_fract_y
_atom_site_fract_z
Si Si1 0.649023 0.376449 0.499299
Si Si2 0.346485 0.975331 0.762583
Si Si3 0.659601 0.113179 0.452163
Si Si4 0.192587 0.291807 0.353482
Si Si5 0.382418 0.791314 0.658940
Si Si6 0.856638 0.969561 0.158456
O O1 0.729230 0.390748 0.553229
O O2 0.748758 0.341480 0.266443
O O3 0.605111 0.418684 0.447123
O O4 0.500000 0.351575 0.750000
O O5 0.331348 0.928950 0.683068
O O6 0.500000 0.000000 0.500000
O O7 0.213834 0.007421 0.898122
O O8 0.290010 0.966310 0.023383
O O9 0.669102 0.161437 0.347996
O O10 0.500000 0.110969 0.750000
O O11 0.305101 0.250642 0.179499
O O12 0.154654 0.291266 0.597513
O O13 0.055960 0.285740 0.424407
O O14 0.000000 0.000000 0.000000
#
# Coordination Sequence:
#
# PCOD9296327 Si02
#       6
#     8   8   8   8   8   8
#     4  12  26  43  67  98 138 181 228 276 339 409
#     4  12  25  42  70  99 131 174 228 281 340 401
#     4  12  24  43  65 101 138 176 224 282 339 400
#     4  10  23  45  69 100 134 178 225 277 342 402
#     4  10  23  44  71  98 136 176 225 281 337 407
#     4  12  25  46  68  96 136 181 226 281 340 404
#
# _framework density 21.472359999999998
#
# number of rings (size 3 to 8) (size 9 to 14) (size 15 to 20)
#    0.000    0.667    1.667    7.000    2.333    1.333 
#    0.000    1.667    0.000    0.000    0.000    0.000 
#    0.000    0.000    0.000    0.000    0.000    0.000 
#
# Total GULP energy -133936.820266 kJ/mol
# GULP energy per Si atom -5580.700844 kJ/mol
# Density = 2.142349 g / cm^3
# Si number density = 21.472360 Si / 1000 Ang^3
#
#
#
# Elastic Constant Matrix: (Units=GPa)
#
#
# Indices 1 2 3 4 5 6 
#
# 1 83.0583 39.9746 28.5069 0.0000 -23.8599 0.0000
# 2 39.9746 147.1079 20.3227 0.0000 -10.7110 0.0000
# 3 28.5069 20.3227 71.6297 0.0000 -17.0246 0.0000
# 4 0.0000 0.0000 0.0000 34.1198 0.0000 -7.4418
# 5 -23.8599 -10.7110 -17.0246 0.0000 38.2316 0.0000
# 6 0.0000 0.0000 0.0000 -7.4418 0.0000 24.2685
#
#
#
# Elastic Compliance Matrix: (Units=1/GPa)
#
#
# Indices 1 2 3 4 5 6 
#
# 1 0.017481 -0.003606 -0.004005 0.000000 0.008116 0.000000
# 2 -0.003606 0.007870 -0.000904 0.000000 -0.000448 0.000000
# 3 -0.004005 -0.000904 0.016951 0.000000 0.004795 0.000000
# 4 0.000000 0.000000 0.000000 0.031409 0.000000 0.009632
# 5 0.008116 -0.000448 0.004795 0.000000 0.033231 0.000000
# 6 0.000000 0.000000 0.000000 0.009632 0.000000 0.044159
#
#
# Mechanical properties :
#
#
# Convention : Reuss Voigt Hill
#
# Bulk Modulus (GPa) = 39.57039 53.26715 46.41877
# Shear Modulus (GPa) = 28.31954 33.52344 30.92149
#
# Velocity S-wave (km/s) = 3.63558 3.95554 3.79893
# Velocity P-wave (km/s) = 6.00765 6.76187 6.39588
#
# Compressibility (1/GPa) = 0.02527142
#
# Stress axis : x y z
#
# Youngs Moduli (GPa) = 57.20365 127.06612 58.99383
#
# Poissons Ratio (x) = 0.45821 0.23627
# Poissons Ratio (y) = 0.20628 0.05335
# Poissons Ratio (z) = 0.22910 0.11490
#
# Static dielectric constant tensor:
#      x y z
#    x 1.706540 0.000000 -0.003240 
#    y 0.000000 1.763610 0.000000 
#    z -0.003240 0.000000 1.808700 
# 
# From -- ./inp_files/43775.got.cif
#   From: 2010.05.17/outbox.cif.g08.bks.cpg/sg15_22_cif.got.tgz:43775.got - 2010.06.03 18:47:42.
