data_PCOD9296576
_publ_section_title
;
Structure prediction by ZEFSAII (Michael W. Deem and Ramdas Pophale) SiO2 
 PCOD9296576
Probable space group: C 2/C
;
_chemical_formula_sum "Si O2"
_cell_formula_units_Z 56
_cell_length_a 28.162105
_cell_length_b 5.539698
_cell_length_c 15.194975
_cell_angle_alpha 90.000000
_cell_angle_beta 108.280422
_cell_angle_gamma 90.000000
_cell_volume 2250.925518
_symmetry_space_group_name_H-M "C 2/C"
_symmetry_group_IT_number 15
_symmetry_cell_setting 'monoclinic'
loop_
_space_group_symop_operation_xyz
x,y,z
-x,y,1/2-z
-x,-y,-z
x,-y,1/2+z
1/2+x,1/2+y,z
1/2-x,1/2+y,1/2-z
1/2-x,1/2-y,-z
1/2+x,1/2-y,1/2+z
loop_
_atom_site_type_symbol
_atom_site_label
_atom_site_fract_x
_atom_site_fract_y
_atom_site_fract_z
Si Si1 0.372659 0.470234 0.616459
Si Si2 0.769176 0.784938 0.720163
Si Si3 0.815729 0.677553 0.442044
Si Si4 0.461510 0.843919 0.170746
Si Si5 0.963581 0.923677 0.900180
Si Si6 0.138690 0.910030 0.209549
Si Si7 0.404886 0.842657 0.499872
O O1 0.331130 0.331993 0.535777
O O2 0.411825 0.278925 0.681535
O O3 0.356719 0.656984 0.683866
O O4 0.403511 0.603776 0.558039
O O5 0.756448 0.510217 0.740530
O O6 0.742993 0.830424 0.610768
O O7 0.827828 0.842473 0.763152
O O8 0.847676 0.432705 0.466588
O O9 0.837182 0.788944 0.362532
O O10 0.500000 0.006341 0.250000
O O11 0.501578 0.651627 0.158840
O O12 0.439504 0.974169 0.072632
O O13 0.919922 0.102701 0.845814
O O14 0.929591 0.708322 0.920964
O O15 0.000000 0.000000 0.000000
#
# Coordination Sequence:
#
# PCOD9296576 Si02
#       7
#     8   8   8   8   8   8   8
#     4  11  23  43  65  98 134 177 229 288 345 419
#     4  10  23  45  75 106 141 189 236 294 362 430
#     4  10  23  45  68  97 137 175 228 289 357 420
#     4  11  23  38  57  93 129 171 225 280 333 416
#     4  12  21  38  65  86 129 180 224 268 347 412
#     4  11  23  43  72  98 134 182 231 287 354 425
#     4  11  23  40  64  92 132 178 226 284 345 418
#
# _framework density 24.878658000000001
#
# number of rings (size 3 to 8) (size 9 to 14) (size 15 to 20)
#    0.000    1.143    4.286    2.143    2.000    3.429 
#   10.286    0.714    0.000    0.000    0.000    0.000 
#    0.000    0.000    0.000    0.000    0.000    0.000 
#
# Total GULP energy -156073.113249 kJ/mol
# GULP energy per Si atom -5574.039759 kJ/mol
# Density = 2.482203 g / cm^3
# Si number density = 24.878658 Si / 1000 Ang^3
#
#
#
# Elastic Constant Matrix: (Units=GPa)
#
#
# Indices 1 2 3 4 5 6 
#
# 1 112.9451 15.9881 33.9493 0.0000 1.1293 0.0000
# 2 15.9881 36.8790 14.3116 0.0000 4.9057 0.0000
# 3 33.9493 14.3116 131.8231 0.0000 29.1584 0.0000
# 4 0.0000 0.0000 0.0000 -0.1317 0.0000 14.3769
# 5 1.1293 4.9057 29.1584 0.0000 49.4327 0.0000
# 6 0.0000 0.0000 0.0000 14.3769 0.0000 14.2712
#
#
#
# Elastic Compliance Matrix: (Units=1/GPa)
#
#
# Indices 1 2 3 4 5 6 
#
# 1 0.010124 -0.003607 -0.002580 0.000000 0.001649 0.000000
# 2 -0.003607 0.029650 -0.001906 0.000000 -0.001736 0.000000
# 3 -0.002580 -0.001906 0.009663 0.000000 -0.005452 0.000000
# 4 0.000000 0.000000 0.000000 -0.068423 0.000000 0.068929
# 5 0.001649 -0.001736 -0.005452 0.000000 0.023580 0.000000
# 6 0.000000 0.000000 0.000000 0.068929 0.000000 0.000631
#
#
# Mechanical properties :
#
#
# Convention : Reuss Voigt Hill
#
# Bulk Modulus (GPa) = 30.07497 45.57169 37.82333
# Shear Modulus (GPa) = 153.86649 27.20765 90.53707
#
# Velocity S-wave (km/s) = 7.87280 3.31057 6.03908
# Velocity P-wave (km/s) = 9.73428 5.74200 7.99146
#
# Compressibility (1/GPa) = 0.03325024
#
# Stress axis : x y z
#
# Youngs Moduli (GPa) = 98.77978 33.72682 103.48418
#
# Poissons Ratio (x) = 0.12165 0.26702
# Poissons Ratio (y) = 0.35628 0.19726
# Poissons Ratio (z) = 0.25488 0.06429
#
# Static dielectric constant tensor:
#      x y z
#    x 2.015190 0.000000 -0.010760 
#    y 0.000000 2.033980 0.000000 
#    z -0.010760 0.000000 2.085460 
# 
# From -- ./inp_files/223940.got.cif
#   From: 2010.05.17/outbox.cif.g08.bks.cpg/sg15_112_cif.got.tgz:223940.got - 2010.06.03 18:47:42.
