data_PCOD9296868
_publ_section_title
;
Structure prediction by ZEFSAII (Michael W. Deem and Ramdas Pophale) SiO2 
 PCOD9296868
Probable space group: C 2/C
;
_chemical_formula_sum "Si O2"
_cell_formula_units_Z 56
_cell_length_a 28.093299
_cell_length_b 8.090784
_cell_length_c 11.575605
_cell_angle_alpha 90.000000
_cell_angle_beta 112.315704
_cell_angle_gamma 90.000000
_cell_volume 2434.043831
_symmetry_space_group_name_H-M "C 2/C"
_symmetry_group_IT_number 15
_symmetry_cell_setting 'monoclinic'
loop_
_space_group_symop_operation_xyz
x,y,z
-x,y,1/2-z
-x,-y,-z
x,-y,1/2+z
1/2+x,1/2+y,z
1/2-x,1/2+y,1/2-z
1/2-x,1/2-y,-z
1/2+x,1/2-y,1/2+z
loop_
_atom_site_type_symbol
_atom_site_label
_atom_site_fract_x
_atom_site_fract_y
_atom_site_fract_z
Si Si1 0.016949 0.818819 0.386187
Si Si2 0.754162 0.181775 0.841407
Si Si3 0.622448 0.158484 0.456746
Si Si4 0.857606 0.286704 0.047125
Si Si5 0.350331 0.337175 0.780410
Si Si6 0.711827 0.185155 0.365449
Si Si7 0.077331 0.901865 0.077879
O O1 0.060859 0.685472 0.395053
O O2 0.000000 0.900653 0.250000
O O3 0.962914 0.778607 0.398423
O O4 0.045270 0.945060 0.496625
O O5 0.710281 0.322138 0.796323
O O6 0.780170 0.201872 0.739490
O O7 0.727800 0.004563 0.845751
O O8 0.799913 0.222240 0.971513
O O9 0.641903 0.266182 0.583444
O O10 0.655317 0.194064 0.371349
O O11 0.637137 0.970459 0.494780
O O12 0.872042 0.273171 0.195041
O O13 0.894409 0.176788 0.003839
O O14 0.380512 0.509284 0.802641
O O15 0.750000 0.250000 0.500000
#
# Coordination Sequence:
#
# PCOD9296868 Si02
#       7
#     8   8   8   8   8   8   8
#     4  10  23  46  70  98 137 184 252 305 362 429
#     4  12  26  44  73 107 149 197 242 287 364 438
#     4  11  26  46  69 103 145 189 240 304 363 427
#     4  12  26  42  73 107 146 192 242 292 364 434
#     4  11  23  47  67 104 153 186 241 295 353 439
#     4  12  27  48  70 106 152 195 242 297 359 441
#     4  10  24  44  72 104 135 191 243 304 363 429
#
# _framework density 23.006981
#
# number of rings (size 3 to 8) (size 9 to 14) (size 15 to 20)
#    0.000    0.857    2.857    3.000    4.000    1.714 
#    0.000    3.571    0.000    0.000    0.000    0.000 
#    0.000    0.000    0.000    0.000    0.000    0.000 
#
# Total GULP energy -156446.545100 kJ/mol
# GULP energy per Si atom -5587.376611 kJ/mol
# Density = 2.295462 g / cm^3
# Si number density = 23.006981 Si / 1000 Ang^3
#
#
#
# Elastic Constant Matrix: (Units=GPa)
#
#
# Indices 1 2 3 4 5 6 
#
# 1 198.9105 57.7232 39.2536 0.0000 -5.6424 0.0000
# 2 57.7232 93.2545 26.3496 0.0000 -6.0603 0.0000
# 3 39.2536 26.3496 81.7420 0.0000 -7.2860 0.0000
# 4 0.0000 0.0000 0.0000 -24.0887 0.0000 145.2656
# 5 -5.6424 -6.0603 -7.2860 0.0000 18.4372 0.0000
# 6 0.0000 0.0000 0.0000 145.2656 0.0000 -475.1582
#
#
#
# Elastic Compliance Matrix: (Units=1/GPa)
#
#
# Indices 1 2 3 4 5 6 
#
# 1 0.006406 -0.003404 -0.001974 0.000000 0.000062 0.000000
# 2 -0.003404 0.013715 -0.002568 0.000000 0.002452 0.000000
# 3 -0.001974 -0.002568 0.014387 0.000000 0.004237 0.000000
# 4 0.000000 0.000000 0.000000 0.049208 0.000000 0.015044
# 5 0.000062 0.002452 0.004237 0.000000 0.056737 0.000000
# 6 0.000000 0.000000 0.000000 0.015044 0.000000 0.002495
#
#
# Mechanical properties :
#
#
# Convention : Reuss Voigt Hill
#
# Bulk Modulus (GPa) = 53.71305 68.95108 61.33207
# Shear Modulus (GPa) = 30.29471 -79.45656 -24.58093
#
# Velocity S-wave (km/s) = 3.63266 -5.88310 -3.27220
# Velocity P-wave (km/s) = 6.40250 4.01411 3.52697
#
# Compressibility (1/GPa) = 0.01861745
#
# Stress axis : x y z
#
# Youngs Moduli (GPa) = 156.09381 72.91200 69.50755
#
# Poissons Ratio (x) = 0.24818 0.13719
# Poissons Ratio (y) = 0.53131 0.17850
# Poissons Ratio (z) = 0.30809 0.18724
#
# Static dielectric constant tensor:
#      x y z
#    x 1.936380 0.000000 -0.003130 
#    y 0.000000 1.867190 0.000000 
#    z -0.003130 0.000000 1.884370 
# 
# From -- ./inp_files/122001.got.cif
#   From: 2010.05.17/outbox.cif.g08.bks.cpg/sg15_62_cif.got.tgz:122001.got - 2010.06.03 18:47:42.
