data_PCOD9296918
_publ_section_title
;
Structure prediction by ZEFSAII (Michael W. Deem and Ramdas Pophale) SiO2 
 PCOD9296918
Probable space group: C 2/C
;
_chemical_formula_sum "Si O2"
_cell_formula_units_Z 44
_cell_length_a 5.383910
_cell_length_b 20.592920
_cell_length_c 14.722498
_cell_angle_alpha 90.000000
_cell_angle_beta 82.264382
_cell_angle_gamma 90.000000
_cell_volume 1617.435353
_symmetry_space_group_name_H-M "C 2/C"
_symmetry_group_IT_number 15
_symmetry_cell_setting 'monoclinic'
loop_
_space_group_symop_operation_xyz
x,y,z
-x,y,1/2-z
-x,-y,-z
x,-y,1/2+z
1/2+x,1/2+y,z
1/2-x,1/2+y,1/2-z
1/2-x,1/2-y,-z
1/2+x,1/2-y,1/2+z
loop_
_atom_site_type_symbol
_atom_site_label
_atom_site_fract_x
_atom_site_fract_y
_atom_site_fract_z
Si Si1 0.195511 0.077413 0.991027
Si Si2 0.000000 0.555657 0.750000
Si Si3 0.455113 0.205712 0.941863
Si Si4 0.000000 0.354601 0.750000
Si Si5 0.860768 0.141293 0.850599
Si Si6 0.752281 0.956655 0.623422
Si Si7 0.500000 0.269713 0.750000
O O1 0.392727 0.134946 0.985251
O O2 0.025350 0.100651 0.913031
O O3 0.283884 0.005168 0.960157
O O4 0.020066 0.074092 0.088079
O O5 0.869845 0.598352 0.678596
O O6 0.780745 0.507736 0.793642
O O7 0.758940 0.201030 0.917894
O O8 0.418730 0.224642 0.837970
O O9 0.250000 0.250000 0.000000
O O10 0.943622 0.401508 0.838940
O O11 0.745873 0.313216 0.755505
O O12 0.000000 0.160035 0.750000
#
# Coordination Sequence:
#
# PCOD9296918 Si02
#       7
#     8   4   8   4   8   8   4
#     4  11  24  45  71 109 138 194 251 309 393 450
#     4  11  21  44  64 106 138 187 231 300 380 457
#     4  12  28  48  75 103 150 199 262 317 376 462
#     4  11  28  49  76 109 154 202 253 316 402 447
#     4  12  23  42  72 104 142 189 250 305 381 456
#     4  10  23  46  72 105 151 183 251 317 381 468
#     4  12  29  51  76 111 156 205 264 322 388 466
#
# _framework density 27.203561000000001
#
# number of rings (size 3 to 8) (size 9 to 14) (size 15 to 20)
#    0.000    0.727    3.636    2.727    6.364    4.364 
#    0.000    0.000    0.000    0.000    0.000    0.000 
#    0.000    0.000    0.000    0.000    0.000    0.000 
#
# Total GULP energy -122853.275917 kJ/mol
# GULP energy per Si atom -5584.239814 kJ/mol
# Density = 2.714164 g / cm^3
# Si number density = 27.203561 Si / 1000 Ang^3
#
#
#
# Elastic Constant Matrix: (Units=GPa)
#
#
# Indices 1 2 3 4 5 6 
#
# 1 114.7781 40.2421 46.4026 0.0000 -6.9148 0.0000
# 2 40.2421 107.4330 65.0238 0.0000 -31.6856 0.0000
# 3 46.4026 65.0238 193.3057 0.0000 -63.2222 0.0000
# 4 0.0000 0.0000 0.0000 44.6720 0.0000 -49.9060
# 5 -6.9148 -31.6856 -63.2222 0.0000 59.8434 0.0000
# 6 0.0000 0.0000 0.0000 -49.9060 0.0000 23.7551
#
#
#
# Elastic Compliance Matrix: (Units=1/GPa)
#
#
# Indices 1 2 3 4 5 6 
#
# 1 0.010730 -0.003477 -0.002449 0.000000 -0.003188 0.000000
# 2 -0.003477 0.013206 -0.002219 0.000000 0.004247 0.000000
# 3 -0.002449 -0.002219 0.009214 0.000000 0.008277 0.000000
# 4 0.000000 0.000000 0.000000 -0.016619 0.000000 -0.034913
# 5 -0.003188 0.004247 0.008277 0.000000 0.027335 0.000000
# 6 0.000000 0.000000 0.000000 -0.034913 0.000000 -0.031252
#
#
# Mechanical properties :
#
#
# Convention : Reuss Voigt Hill
#
# Bulk Modulus (GPa) = 59.31008 79.87262 69.59135
# Shear Modulus (GPa) = 144.83019 43.24399 94.03709
#
# Velocity S-wave (km/s) = 7.30445 3.99136 5.88583
# Velocity P-wave (km/s) = 9.64311 7.11801 8.47513
#
# Compressibility (1/GPa) = 0.01686054
#
# Stress axis : x y z
#
# Youngs Moduli (GPa) = 93.20092 75.72364 108.52763
#
# Poissons Ratio (x) = 0.26332 0.26575
# Poissons Ratio (y) = 0.32409 0.24078
# Poissons Ratio (z) = 0.22822 0.16800
#
# Static dielectric constant tensor:
#      x y z
#    x 2.308450 0.000000 -0.006120 
#    y 0.000000 2.161100 0.000000 
#    z -0.006120 0.000000 2.137650 
# 
# From -- ./inp_files/184842.got.cif
#   From: 2010.05.17/outbox.cif.g08.bks.cpg/sg15_93_cif.got.tgz:184842.got - 2010.06.03 18:47:42.
