data_PCOD9296224
_publ_section_title
;
Structure prediction by ZEFSAII (Michael W. Deem and Ramdas Pophale) SiO2 
 PCOD9296224
Probable space group: C 2/C
;
_chemical_formula_sum "Si O2"
_cell_formula_units_Z 60
_cell_length_a 28.837905
_cell_length_b 12.475657
_cell_length_c 8.800786
_cell_angle_alpha 90.000000
_cell_angle_beta 66.552503
_cell_angle_gamma 90.000000
_cell_volume 2904.819849
_symmetry_space_group_name_H-M "C 2/C"
_symmetry_group_IT_number 15
_symmetry_cell_setting 'monoclinic'
loop_
_space_group_symop_operation_xyz
x,y,z
-x,y,1/2-z
-x,-y,-z
x,-y,1/2+z
1/2+x,1/2+y,z
1/2-x,1/2+y,1/2-z
1/2-x,1/2-y,-z
1/2+x,1/2-y,1/2+z
loop_
_atom_site_type_symbol
_atom_site_label
_atom_site_fract_x
_atom_site_fract_y
_atom_site_fract_z
Si Si1 0.489411 0.657887 0.926869
Si Si2 0.085003 0.971391 0.416256
Si Si3 0.774447 0.857646 0.533811
Si Si4 0.662914 0.778027 0.326826
Si Si5 0.552628 0.864027 0.418659
Si Si6 0.500000 0.998753 0.250000
Si Si7 0.253303 0.550524 0.736840
Si Si8 0.149907 0.101831 0.095217
O O1 0.500000 0.708526 0.750000
O O2 0.539218 0.592144 0.900791
O O3 0.442179 0.577032 0.980983
O O4 0.475547 0.750268 0.061216
O O5 0.108098 0.897938 0.517364
O O6 0.126802 0.014639 0.243725
O O7 0.750000 0.750000 0.500000
O O8 0.823865 0.809376 0.556669
O O9 0.771726 0.930226 0.384974
O O10 0.744403 0.925801 0.702230
O O11 0.608990 0.836512 0.401332
O O12 0.706686 0.868658 0.270030
O O13 0.660354 0.708122 0.177001
O O14 0.525701 0.931415 0.585739
O O15 0.543407 0.928138 0.275570
O O16 0.299789 0.576542 0.564858
#
# Coordination Sequence:
#
# PCOD9296224 Si02
#       8
#     8   8   8   8   8   4   8   8
#     4  11  22  40  67  99 137 178 221 286 348 411
#     4  11  24  38  64 102 141 179 222 275 351 411
#     4  10  23  44  69  98 136 183 232 288 349 406
#     4  11  25  44  71 102 132 186 234 287 347 416
#     4  11  24  45  72  93 137 174 238 284 346 412
#     4  10  26  48  66  98 128 184 226 296 342 404
#     4  11  24  43  68  98 144 182 228 289 340 415
#     4  12  23  39  62  99 140 181 224 274 341 422
#
# _framework density 20.655324
#
# number of rings (size 3 to 8) (size 9 to 14) (size 15 to 20)
#    0.000    1.067    3.333    2.800    1.867    4.267 
#    0.000    0.000    0.000    0.000    0.000    0.000 
#    0.000    0.000    0.000    0.000    0.000    0.000 
#
# Total GULP energy -167274.710851 kJ/mol
# GULP energy per Si atom -5575.823695 kJ/mol
# Density = 2.060831 g / cm^3
# Si number density = 20.655324 Si / 1000 Ang^3
#
#
#
# Elastic Constant Matrix: (Units=GPa)
#
#
# Indices 1 2 3 4 5 6 
#
# 1 87.3067 39.3524 43.5838 0.0000 4.9340 0.0000
# 2 39.3524 91.0596 30.3207 0.0000 10.2336 0.0000
# 3 43.5838 30.3207 82.1185 0.0000 15.5398 0.0000
# 4 0.0000 0.0000 0.0000 22.7511 0.0000 -1.5637
# 5 4.9340 10.2336 15.5398 0.0000 21.5126 0.0000
# 6 0.0000 0.0000 0.0000 -1.5637 0.0000 38.8066
#
#
#
# Elastic Compliance Matrix: (Units=1/GPa)
#
#
# Indices 1 2 3 4 5 6 
#
# 1 0.017783 -0.005432 -0.008282 0.000000 0.004488 0.000000
# 2 -0.005432 0.014353 -0.001576 0.000000 -0.004444 0.000000
# 3 -0.008282 -0.001576 0.019291 0.000000 -0.011285 0.000000
# 4 0.000000 0.000000 0.000000 0.044076 0.000000 0.001776
# 5 0.004488 -0.004444 -0.011285 0.000000 0.055721 0.000000
# 6 0.000000 0.000000 0.000000 0.001776 0.000000 0.025840
#
#
# Mechanical properties :
#
#
# Convention : Reuss Voigt Hill
#
# Bulk Modulus (GPa) = 47.96673 54.11097 51.03885
# Shear Modulus (GPa) = 23.30000 26.42927 24.86464
#
# Velocity S-wave (km/s) = 3.36227 3.58094 3.47333
# Velocity P-wave (km/s) = 6.19242 6.58419 6.39130
#
# Compressibility (1/GPa) = 0.02084778
#
# Stress axis : x y z
#
# Youngs Moduli (GPa) = 56.23390 69.67009 51.83893
#
# Poissons Ratio (x) = 0.37843 0.42932
# Poissons Ratio (y) = 0.30545 0.08169
# Poissons Ratio (z) = 0.46572 0.10979
#
# Static dielectric constant tensor:
#      x y z
#    x 1.734220 0.000000 -0.005700 
#    y 0.000000 1.804380 0.000000 
#    z -0.005700 0.000000 1.672040 
# 
# From -- ./inp_files/69346.got.cif
#   From: 2010.05.17/outbox.cif.g08.bks.cpg/sg15_35_cif.got.tgz:69346.got - 2010.06.03 18:47:42.
