data_PCOD9296626
_publ_section_title
;
Structure prediction by ZEFSAII (Michael W. Deem and Ramdas Pophale) SiO2 
 PCOD9296626
Probable space group: C 2/C
;
_chemical_formula_sum "Si O2"
_cell_formula_units_Z 40
_cell_length_a 13.906527
_cell_length_b 11.390580
_cell_length_c 10.491986
_cell_angle_alpha 90.000000
_cell_angle_beta 88.823167
_cell_angle_gamma 90.000000
_cell_volume 1661.615783
_symmetry_space_group_name_H-M "C 2/C"
_symmetry_group_IT_number 15
_symmetry_cell_setting 'monoclinic'
loop_
_space_group_symop_operation_xyz
x,y,z
-x,y,1/2-z
-x,-y,-z
x,-y,1/2+z
1/2+x,1/2+y,z
1/2-x,1/2+y,1/2-z
1/2-x,1/2-y,-z
1/2+x,1/2-y,1/2+z
loop_
_atom_site_type_symbol
_atom_site_label
_atom_site_fract_x
_atom_site_fract_y
_atom_site_fract_z
Si Si1 0.266360 0.613679 0.142518
Si Si2 0.086808 0.047785 0.164015
Si Si3 0.100063 0.211177 0.583073
Si Si4 0.743238 0.388667 0.525569
Si Si5 0.041090 0.415698 0.889453
O O1 0.314117 0.595227 0.278040
O O2 0.179979 0.704955 0.143485
O O3 0.349874 0.670512 0.050436
O O4 0.237382 0.487973 0.086442
O O5 0.122037 0.088984 0.026329
O O6 0.000000 0.092601 0.250000
O O7 0.085750 0.908401 0.160126
O O8 0.005338 0.288696 0.579117
O O9 0.750000 0.250000 0.500000
O O10 0.844131 0.416005 0.601728
O O11 0.000000 0.448845 0.750000
O O12 0.000000 0.500000 0.000000
#
# Coordination Sequence:
#
# PCOD9296626 Si02
#       5
#     8   8   8   8   8
#     4  10  23  45  70 105 144 188 251 305 379 445
#     4  11  26  43  71 103 143 198 247 312 375 454
#     4  10  23  46  71 102 147 193 244 313 376 446
#     4  11  27  45  71 108 146 192 250 311 376 460
#     4  12  26  49  77 112 149 200 253 314 380 453
#
# _framework density 24.072952999999998
#
# number of rings (size 3 to 8) (size 9 to 14) (size 15 to 20)
#    0.000    1.200    2.000    1.800   11.200    1.600 
#    3.600    0.000    0.000    0.000    0.000    0.000 
#    0.000    0.000    0.000    0.000    0.000    0.000 
#
# Total GULP energy -111412.878264 kJ/mol
# GULP energy per Si atom -5570.643913 kJ/mol
# Density = 2.401816 g / cm^3
# Si number density = 24.072953 Si / 1000 Ang^3
#
#
#
# Elastic Constant Matrix: (Units=GPa)
#
#
# Indices 1 2 3 4 5 6 
#
# 1 162.9623 25.7013 52.4336 0.0000 -31.6679 0.0000
# 2 25.7013 122.6726 0.3295 0.0000 -7.1242 0.0000
# 3 52.4336 0.3295 -33.4172 0.0000 -12.3731 0.0000
# 4 0.0000 0.0000 0.0000 38.2415 0.0000 9.5423
# 5 -31.6679 -7.1242 -12.3731 0.0000 42.6459 0.0000
# 6 0.0000 0.0000 0.0000 9.5423 0.0000 34.1528
#
#
#
# Elastic Compliance Matrix: (Units=1/GPa)
#
#
# Indices 1 2 3 4 5 6 
#
# 1 0.005342 -0.000808 0.006280 0.000000 0.005654 0.000000
# 2 -0.000808 0.008348 -0.001336 0.000000 0.000407 0.000000
# 3 0.006280 -0.001336 -0.019620 0.000000 -0.001252 0.000000
# 4 0.000000 0.000000 0.000000 0.028109 0.000000 -0.007854
# 5 0.005654 0.000407 -0.001252 0.000000 0.027352 0.000000
# 6 0.000000 0.000000 0.000000 -0.007854 0.000000 0.031475
#
#
# Mechanical properties :
#
#
# Convention : Reuss Voigt Hill
#
# Bulk Modulus (GPa) = 426.75473 45.46072 236.10773
# Shear Modulus (GPa) = 68.01486 34.59161 51.30323
#
# Velocity S-wave (km/s) = 5.32118 3.79482 4.62145
# Velocity P-wave (km/s) = 14.67698 6.17466 11.25922
#
# Compressibility (1/GPa) = 0.00234327
#
# Stress axis : x y z
#
# Youngs Moduli (GPa) = 187.20319 119.78579 -50.96776
#
# Poissons Ratio (x) = 0.09675 0.32009
# Poissons Ratio (y) = 0.15120 -0.06808
# Poissons Ratio (z) = -1.17568 0.16001
#
# Static dielectric constant tensor:
#      x y z
#    x 1.981420 0.000000 0.056190 
#    y 0.000000 1.837600 0.000000 
#    z 0.056190 0.000000 1.874880 
# 
# From -- ./inp_files/94596.got.cif
#   From: 2010.05.17/outbox.cif.g08.bks.cpg/sg15_48_cif.got.tgz:94596.got - 2010.06.03 18:47:42.
