data_PCOD9296494
_publ_section_title
;
Structure prediction by ZEFSAII (Michael W. Deem and Ramdas Pophale) SiO2 
 PCOD9296494
Probable space group: C 2/C
;
_chemical_formula_sum "Si O2"
_cell_formula_units_Z 44
_cell_length_a 24.309885
_cell_length_b 8.419755
_cell_length_c 24.029939
_cell_angle_alpha 90.000000
_cell_angle_beta 24.156207
_cell_angle_gamma 90.000000
_cell_volume 2012.787757
_symmetry_space_group_name_H-M "C 2/C"
_symmetry_group_IT_number 15
_symmetry_cell_setting 'monoclinic'
loop_
_space_group_symop_operation_xyz
x,y,z
-x,y,1/2-z
-x,-y,-z
x,-y,1/2+z
1/2+x,1/2+y,z
1/2-x,1/2+y,1/2-z
1/2-x,1/2-y,-z
1/2+x,1/2-y,1/2+z
loop_
_atom_site_type_symbol
_atom_site_label
_atom_site_fract_x
_atom_site_fract_y
_atom_site_fract_z
Si Si1 0.357852 0.973567 0.474446
Si Si2 0.252412 0.633973 0.810706
Si Si3 0.355320 0.116973 0.292851
Si Si4 0.250000 0.750000 0.000000
Si Si5 0.816946 0.166681 0.569709
Si Si6 0.886948 0.818643 0.653854
O O1 0.312413 0.050937 0.575446
O O2 0.516244 0.005431 0.324206
O O3 0.290846 0.072718 0.487200
O O4 0.323813 0.788843 0.511870
O O5 0.354105 0.765824 0.741125
O O6 0.142368 0.723361 0.875277
O O7 0.327778 0.497025 0.706694
O O8 0.345512 0.220330 0.357154
O O9 0.221077 0.010282 0.413329
O O10 0.701422 0.227980 0.717945
O O11 0.959342 0.176466 0.469355
#
# Coordination Sequence:
#
# PCOD9296494 Si02
#       6
#     8   8   8   4   8   8
#     4  10  23  45  65  99 131 176 223 288 333 404
#     4  10  25  39  69  97 136 178 229 274 339 403
#     4  11  23  44  67  97 134 175 222 289 331 411
#     4  10  24  44  70  94 124 170 222 274 348 386
#     4  11  24  43  69  99 140 176 227 276 341 403
#     4  11  24  41  66 104 134 184 224 276 336 405
#
# _framework density 21.860229
#
# number of rings (size 3 to 8) (size 9 to 14) (size 15 to 20)
#    0.000    1.455    1.818    1.636    7.636    3.636 
#    3.273    0.000    0.000    0.000    0.000    0.000 
#    0.000    0.000    0.000    0.000    0.000    0.000 
#
# Total GULP energy -122478.042997 kJ/mol
# GULP energy per Si atom -5567.183773 kJ/mol
# Density = 2.181047 g / cm^3
# Si number density = 21.860229 Si / 1000 Ang^3
#
#
#
# Elastic Constant Matrix: (Units=GPa)
#
#
# Indices 1 2 3 4 5 6 
#
# 1 43.3286 20.1155 -1.7119 -0.0020 -1.0892 0.0030
# 2 20.1155 85.5050 -0.5094 -0.0054 -15.1280 0.0096
# 3 -1.7119 -0.5094 70.0200 -0.0038 -9.5820 0.0057
# 4 -0.0020 -0.0054 -0.0038 16.6720 0.0014 12.1885
# 5 -1.0892 -15.1280 -9.5820 0.0014 14.1850 -0.0016
# 6 0.0030 0.0096 0.0057 12.1885 -0.0016 -30.5267
#
#
#
# Elastic Compliance Matrix: (Units=1/GPa)
#
#
# Indices 1 2 3 4 5 6 
#
# 1 0.026273 -0.007210 -0.000205 0.000001 -0.005811 0.000001
# 2 -0.007210 0.016780 0.002555 0.000000 0.019068 0.000004
# 3 -0.000205 0.002555 0.016160 0.000001 0.013625 0.000003
# 4 0.000001 0.000000 0.000001 0.046428 -0.000001 0.018538
# 5 -0.005811 0.019068 0.013625 -0.000001 0.099591 0.000002
# 6 0.000001 0.000004 0.000003 0.018538 0.000002 -0.025357
#
#
# Mechanical properties :
#
#
# Convention : Reuss Voigt Hill
#
# Bulk Modulus (GPa) = 20.20511 26.07135 23.13823
# Shear Modulus (GPa) = 24.26090 12.13002 18.19546
#
# Velocity S-wave (km/s) = 3.33501 2.35817 2.88819
# Velocity P-wave (km/s) = 4.90843 4.40078 4.66152
#
# Compressibility (1/GPa) = 0.04949244
#
# Stress axis : x y z
#
# Youngs Moduli (GPa) = 38.06256 59.59369 61.88197
#
# Poissons Ratio (x) = 0.42967 0.01271
# Poissons Ratio (y) = 0.27443 -0.15812
# Poissons Ratio (z) = 0.00781 -0.15228
#
# Static dielectric constant tensor:
#      x y z
#    x 1.805870 0.000000 -0.002620 
#    y 0.000000 1.831310 0.000000 
#    z -0.002620 0.000000 1.762820 
# 
# From -- ./inp_files/281557.got.cif
#   From: 2010.05.17/outbox.cif.g08.bks.cpg/sg15_141_cif.got.tgz:281557.got - 2010.06.03 18:47:42.
