data_PCOD9296200
_publ_section_title
;
Structure prediction by ZEFSAII (Michael W. Deem and Ramdas Pophale) SiO2 
 PCOD9296200
Probable space group: C 2/C
;
_chemical_formula_sum "Si O2"
_cell_formula_units_Z 32
_cell_length_a 7.870721
_cell_length_b 12.303415
_cell_length_c 15.222798
_cell_angle_alpha 90.000000
_cell_angle_beta 125.301754
_cell_angle_gamma 90.000000
_cell_volume 1203.063756
_symmetry_space_group_name_H-M "C 2/C"
_symmetry_group_IT_number 15
_symmetry_cell_setting 'monoclinic'
loop_
_space_group_symop_operation_xyz
x,y,z
-x,y,1/2-z
-x,-y,-z
x,-y,1/2+z
1/2+x,1/2+y,z
1/2-x,1/2+y,1/2-z
1/2-x,1/2-y,-z
1/2+x,1/2-y,1/2+z
loop_
_atom_site_type_symbol
_atom_site_label
_atom_site_fract_x
_atom_site_fract_y
_atom_site_fract_z
Si Si1 0.973844 0.957914 0.397045
Si Si2 0.627736 0.945009 0.697448
Si Si3 0.757125 0.852435 0.144604
Si Si4 0.391505 0.243718 0.454933
O O1 0.864847 0.044211 0.302209
O O2 0.851884 0.845428 0.379054
O O3 0.194087 0.929007 0.423306
O O4 0.000000 0.000000 0.500000
O O5 0.500000 0.925333 0.750000
O O6 0.616072 0.858471 0.615092
O O7 0.606955 0.070415 0.657622
O O8 0.000000 0.833397 0.250000
O O9 0.873968 0.745880 0.933572
O O10 0.250000 0.250000 0.500000
#
# Coordination Sequence:
#
# PCOD9296200 Si02
#       4
#     8   8   8   8
#     4  11  24  43  67 102 147 195 248 314 381 453
#     4  11  24  44  71 106 148 198 254 316 382 460
#     4  10  23  44  69 104 148 197 249 311 384 458
#     4  12  25  45  75 110 148 200 260 323 387 461
#
# _framework density 26.598755000000001
#
# number of rings (size 3 to 8) (size 9 to 14) (size 15 to 20)
#    0.000    1.000    0.000    6.000    0.000    7.000 
#    0.000    8.750    0.000    0.000    0.000    0.000 
#    0.000    0.000    0.000    0.000    0.000    0.000 
#
# Total GULP energy -89265.631056 kJ/mol
# GULP energy per Si atom -5579.101941 kJ/mol
# Density = 2.653822 g / cm^3
# Si number density = 26.598755 Si / 1000 Ang^3
#
#
#
# Elastic Constant Matrix: (Units=GPa)
#
#
# Indices 1 2 3 4 5 6 
#
# 1 150.2727 42.1211 67.7568 0.0000 -27.2991 0.0000
# 2 42.1211 106.7095 70.9805 0.0000 3.5571 0.0000
# 3 67.7568 70.9805 148.4439 0.0000 -16.4531 0.0000
# 4 0.0000 0.0000 0.0000 61.2042 0.0000 -7.5952
# 5 -27.2991 3.5571 -16.4531 0.0000 61.2418 0.0000
# 6 0.0000 0.0000 0.0000 -7.5952 0.0000 26.9722
#
#
#
# Elastic Compliance Matrix: (Units=1/GPa)
#
#
# Indices 1 2 3 4 5 6 
#
# 1 0.009078 -0.001740 -0.002939 0.000000 0.003358 0.000000
# 2 -0.001740 0.014503 -0.006514 0.000000 -0.003368 0.000000
# 3 -0.002939 -0.006514 0.011430 0.000000 0.002139 0.000000
# 4 0.000000 0.000000 0.000000 0.016930 0.000000 0.004767
# 5 0.003358 -0.003368 0.002139 0.000000 0.018596 0.000000
# 6 0.000000 0.000000 0.000000 0.004767 0.000000 0.038418
#
#
# Mechanical properties :
#
#
# Convention : Reuss Voigt Hill
#
# Bulk Modulus (GPa) = 79.21219 85.23809 82.22514
# Shear Modulus (GPa) = 36.88691 44.85482 40.87087
#
# Velocity S-wave (km/s) = 3.72800 4.11097 3.92416
# Velocity P-wave (km/s) = 6.95527 7.39249 7.17721
#
# Compressibility (1/GPa) = 0.01262432
#
# Stress axis : x y z
#
# Youngs Moduli (GPa) = 110.16176 68.94973 87.48875
#
# Poissons Ratio (x) = 0.11997 0.25715
# Poissons Ratio (y) = 0.19168 0.56991
# Poissons Ratio (z) = 0.32380 0.44914
#
# Static dielectric constant tensor:
#      x y z
#    x 2.084430 0.000000 0.021360 
#    y 0.000000 2.272300 0.000000 
#    z 0.021360 0.000000 2.180620 
# 
# From -- ./inp_files/132425.got.cif
#   From: 2010.05.17/outbox.cif.g08.bks.cpg/sg15_67_cif.got.tgz:132425.got - 2010.06.03 18:47:42.
