data_PCOD9296118
_publ_section_title
;
Structure prediction by ZEFSAII (Michael W. Deem and Ramdas Pophale) SiO2 
 PCOD9296118
Probable space group: C 2/C
;
_chemical_formula_sum "Si O2"
_cell_formula_units_Z 44
_cell_length_a 16.491941
_cell_length_b 6.436924
_cell_length_c 18.467804
_cell_angle_alpha 90.000000
_cell_angle_beta 73.084991
_cell_angle_gamma 90.000000
_cell_volume 1875.677471
_symmetry_space_group_name_H-M "C 2/C"
_symmetry_group_IT_number 15
_symmetry_cell_setting 'monoclinic'
loop_
_space_group_symop_operation_xyz
x,y,z
-x,y,1/2-z
-x,-y,-z
x,-y,1/2+z
1/2+x,1/2+y,z
1/2-x,1/2+y,1/2-z
1/2-x,1/2-y,-z
1/2+x,1/2-y,1/2+z
loop_
_atom_site_type_symbol
_atom_site_label
_atom_site_fract_x
_atom_site_fract_y
_atom_site_fract_z
Si Si1 0.768441 0.942507 0.551186
Si Si2 0.058221 0.180267 0.014273
Si Si3 0.764172 0.362593 0.184732
Si Si4 0.000000 0.479019 0.250000
Si Si5 0.677577 0.239740 0.676225
Si Si6 0.047531 0.486664 0.882884
O O1 0.750000 0.750000 0.500000
O O2 0.775586 0.827916 0.626851
O O3 0.850670 0.069415 0.503183
O O4 0.702494 0.122136 0.594951
O O5 0.054025 0.347284 0.951301
O O6 0.009627 0.306388 0.089985
O O7 0.000000 0.000000 0.000000
O O8 0.691161 0.512110 0.172015
O O9 0.759516 0.310564 0.271185
O O10 0.855185 0.467383 0.155650
O O11 0.084374 0.338790 0.221849
O O12 0.008964 0.612683 0.320511
#
# Coordination Sequence:
#
# PCOD9296118 Si02
#       6
#     8   8   8   4   8   8
#     4  12  27  41  70 109 139 185 242 299 359 434
#     4  11  23  42  68  98 144 184 230 286 367 439
#     4  11  22  45  71  95 137 191 233 285 363 435
#     4  10  26  44  70 102 136 178 242 308 350 416
#     4  11  24  46  70 100 140 185 240 293 363 435
#     4  10  23  44  68 100 136 187 232 293 361 430
#
# _framework density 23.458189999999998
#
# number of rings (size 3 to 8) (size 9 to 14) (size 15 to 20)
#    0.000    1.091    5.455    0.000    5.091    0.727 
#    0.000    1.818    0.000    0.000    0.000    0.000 
#    0.000    0.000    0.000    0.000    0.000    0.000 
#
# Total GULP energy -122602.742832 kJ/mol
# GULP energy per Si atom -5572.851947 kJ/mol
# Density = 2.340480 g / cm^3
# Si number density = 23.458190 Si / 1000 Ang^3
#
#
#
# Elastic Constant Matrix: (Units=GPa)
#
#
# Indices 1 2 3 4 5 6 
#
# 1 91.7560 37.9773 28.8714 -0.0001 -17.6341 -0.0001
# 2 37.9773 75.8572 36.4281 -0.0003 -6.8094 -0.0003
# 3 28.8714 36.4281 93.9198 0.0000 5.1891 0.0000
# 4 -0.0001 -0.0003 0.0000 38.7905 0.0000 4.2179
# 5 -17.6341 -6.8094 5.1891 0.0000 49.2297 0.0000
# 6 -0.0001 -0.0003 0.0000 4.2179 0.0000 31.5448
#
#
#
# Elastic Compliance Matrix: (Units=1/GPa)
#
#
# Indices 1 2 3 4 5 6 
#
# 1 0.015086 -0.005848 -0.002638 0.000000 0.004873 0.000000
# 2 -0.005848 0.018896 -0.005592 0.000000 0.001108 0.000000
# 3 -0.002638 -0.005592 0.013803 0.000000 -0.003173 0.000000
# 4 0.000000 0.000000 0.000000 0.026160 0.000000 -0.003498
# 5 0.004873 0.001108 -0.003173 0.000000 0.022546 0.000000
# 6 0.000000 0.000000 0.000000 -0.003498 0.000000 0.032169
#
#
# Mechanical properties :
#
#
# Convention : Reuss Voigt Hill
#
# Bulk Modulus (GPa) = 50.95200 52.00963 51.48081
# Shear Modulus (GPa) = 30.60755 34.46342 32.53549
#
# Velocity S-wave (km/s) = 3.61608 3.83710 3.72823
# Velocity P-wave (km/s) = 6.26117 6.46919 6.36603
#
# Compressibility (1/GPa) = 0.01962631
#
# Stress axis : x y z
#
# Youngs Moduli (GPa) = 66.28838 52.92260 72.44887
#
# Poissons Ratio (x) = 0.30950 0.19115
# Poissons Ratio (y) = 0.38766 0.40516
# Poissons Ratio (z) = 0.17489 0.29596
#
# Static dielectric constant tensor:
#      x y z
#    x 1.860490 0.000000 -0.019110 
#    y 0.000000 1.731000 0.000000 
#    z -0.019110 0.000000 1.944990 
# 
# From -- ./inp_files/246402.got.cif
#   From: 2010.05.17/outbox.cif.g08.bks.cpg/sg15_124_cif.got.tgz:246402.got - 2010.06.03 18:47:42.
