data_PCOD9296075
_publ_section_title
;
Structure prediction by ZEFSAII (Michael W. Deem and Ramdas Pophale) SiO2 
 PCOD9296075
Probable space group: C 2/C
;
_chemical_formula_sum "Si O2"
_cell_formula_units_Z 56
_cell_length_a 8.721793
_cell_length_b 14.378228
_cell_length_c 22.892630
_cell_angle_alpha 90.000000
_cell_angle_beta 60.586730
_cell_angle_gamma 90.000000
_cell_volume 2500.776559
_symmetry_space_group_name_H-M "C 2/C"
_symmetry_group_IT_number 15
_symmetry_cell_setting 'monoclinic'
loop_
_space_group_symop_operation_xyz
x,y,z
-x,y,1/2-z
-x,-y,-z
x,-y,1/2+z
1/2+x,1/2+y,z
1/2-x,1/2+y,1/2-z
1/2-x,1/2-y,-z
1/2+x,1/2-y,1/2+z
loop_
_atom_site_type_symbol
_atom_site_label
_atom_site_fract_x
_atom_site_fract_y
_atom_site_fract_z
Si Si1 0.505972 0.468835 0.065178
Si Si2 0.942260 0.685123 0.612309
Si Si3 0.150524 0.810772 0.972274
Si Si4 0.837520 0.500455 0.074594
Si Si5 0.819136 0.755192 0.757779
Si Si6 0.510739 0.892233 0.848663
Si Si7 0.854409 0.425515 0.333752
O O1 0.663466 0.514834 0.070168
O O2 0.327915 0.479275 0.132134
O O3 0.500000 0.500000 0.000000
O O4 0.534254 0.362726 0.042922
O O5 0.963216 0.757088 0.555225
O O6 0.828852 0.600579 0.606652
O O7 0.848626 0.735545 0.683961
O O8 0.105652 0.632957 0.613809
O O9 0.313596 0.862348 0.907241
O O10 0.250000 0.750000 0.000000
O O11 0.882422 0.576291 0.113939
O O12 0.000000 0.500000 0.000000
O O13 0.637304 0.811789 0.799338
O O14 0.826930 0.654158 0.789479
O O15 0.000000 0.802184 0.750000
O O16 0.492577 0.987956 0.813723
#
# Coordination Sequence:
#
# PCOD9296075 Si02
#       7
#     8   8   8   8   8   8   8
#     4  12  22  38  67 104 139 172 229 289 359 428
#     4  10  23  44  66  98 139 181 235 291 356 424
#     4  12  22  39  68 100 135 178 228 289 358 431
#     4  11  21  43  69 101 142 183 233 290 361 431
#     4  10  24  48  69  98 141 184 243 296 353 428
#     4  11  23  45  71 100 135 188 235 292 357 433
#     4  10  23  46  70 100 142 180 231 300 351 428
#
# _framework density 22.393044
#
# number of rings (size 3 to 8) (size 9 to 14) (size 15 to 20)
#    0.000    1.143    4.286    1.714    0.000    3.429 
#   12.857    0.000    0.000    0.000    0.000    0.000 
#    0.000    0.000    0.000    0.000    0.000    0.000 
#
# Total GULP energy -155885.514696 kJ/mol
# GULP energy per Si atom -5567.339811 kJ/mol
# Density = 2.234208 g / cm^3
# Si number density = 22.393044 Si / 1000 Ang^3
#
#
#
# Elastic Constant Matrix: (Units=GPa)
#
#
# Indices 1 2 3 4 5 6 
#
# 1 104.2571 14.9780 33.0532 0.0000 0.6451 0.0000
# 2 14.9780 66.4905 12.8223 0.0000 -0.1973 0.0000
# 3 33.0532 12.8223 61.1746 0.0000 8.4755 0.0000
# 4 0.0000 0.0000 0.0000 30.8477 0.0000 -1.6421
# 5 0.6451 -0.1973 8.4755 0.0000 46.5054 0.0000
# 6 0.0000 0.0000 0.0000 -1.6421 0.0000 32.7157
#
#
#
# Elastic Compliance Matrix: (Units=1/GPa)
#
#
# Indices 1 2 3 4 5 6 
#
# 1 0.011753 -0.001453 -0.006178 0.000000 0.000957 0.000000
# 2 -0.001453 0.015874 -0.002620 0.000000 0.000565 0.000000
# 3 -0.006178 -0.002620 0.020748 0.000000 -0.003707 0.000000
# 4 0.000000 0.000000 0.000000 0.032504 0.000000 0.001631
# 5 0.000957 0.000565 -0.003707 0.000000 0.022168 0.000000
# 6 0.000000 0.000000 0.000000 0.001631 0.000000 0.030648
#
#
# Mechanical properties :
#
#
# Convention : Reuss Voigt Hill
#
# Bulk Modulus (GPa) = 35.87943 39.29213 37.58578
# Shear Modulus (GPa) = 30.58307 33.41837 32.00072
#
# Velocity S-wave (km/s) = 3.69960 3.86729 3.78438
# Velocity P-wave (km/s) = 5.85720 6.12584 5.99302
#
# Compressibility (1/GPa) = 0.02787112
#
# Stress axis : x y z
#
# Youngs Moduli (GPa) = 85.08255 62.99572 48.19832
#
# Poissons Ratio (x) = 0.09155 0.29779
# Poissons Ratio (y) = 0.12365 0.12629
# Poissons Ratio (z) = 0.52567 0.16507
#
# Static dielectric constant tensor:
#      x y z
#    x 1.735380 0.000000 0.020850 
#    y 0.000000 1.876640 0.000000 
#    z 0.020850 0.000000 1.919210 
# 
# From -- ./inp_files/264215.got.cif
#   From: 2010.05.17/outbox.cif.g08.bks.cpg/sg15_133_cif.got.tgz:264215.got - 2010.06.03 18:47:42.
