data_PCOD9296431
_publ_section_title
;
Structure prediction by ZEFSAII (Michael W. Deem and Ramdas Pophale) SiO2 
 PCOD9296431
Probable space group: C 2/C
;
_chemical_formula_sum "Si O2"
_cell_formula_units_Z 32
_cell_length_a 17.252037
_cell_length_b 16.214535
_cell_length_c 9.238402
_cell_angle_alpha 90.000000
_cell_angle_beta 151.839420
_cell_angle_gamma 90.000000
_cell_volume 1219.642329
_symmetry_space_group_name_H-M "C 2/C"
_symmetry_group_IT_number 15
_symmetry_cell_setting 'monoclinic'
loop_
_space_group_symop_operation_xyz
x,y,z
-x,y,1/2-z
-x,-y,-z
x,-y,1/2+z
1/2+x,1/2+y,z
1/2-x,1/2+y,1/2-z
1/2-x,1/2-y,-z
1/2+x,1/2-y,1/2+z
loop_
_atom_site_type_symbol
_atom_site_label
_atom_site_fract_x
_atom_site_fract_y
_atom_site_fract_z
Si Si1 0.377745 0.021952 0.926705
Si Si2 0.068236 0.228674 0.528556
Si Si3 0.075327 0.926176 0.532012
Si Si4 0.686856 0.808692 0.262442
O O1 0.263552 0.095853 0.675547
O O2 0.267246 0.949698 0.817730
O O3 0.500000 0.056035 0.250000
O O4 0.500000 0.000000 0.000000
O O5 0.259513 0.229909 0.802479
O O6 0.000000 0.222049 0.250000
O O7 0.993689 0.153895 0.498066
O O8 0.003798 0.307849 0.506981
O O9 0.000000 0.923842 0.250000
O O10 0.000000 0.000000 0.500000
O O11 0.750000 0.750000 0.500000
#
# Coordination Sequence:
#
# PCOD9296431 Si02
#       4
#     8   8   8   8
#     4  12  29  46  75 116 161 196 258 323 393 455
#     4  10  23  44  75 103 146 194 261 307 390 456
#     4  12  25  46  76 106 146 199 253 311 379 464
#     4  10  24  45  73 106 147 202 255 312 382 465
#
# _framework density 26.237197999999999
#
# number of rings (size 3 to 8) (size 9 to 14) (size 15 to 20)
#    0.000    1.000    2.500    2.250   14.000    2.000 
#    0.000    2.500    0.000    0.000    0.000    0.000 
#    0.000    0.000    0.000    0.000    0.000    0.000 
#
# Total GULP energy -89252.131140 kJ/mol
# GULP energy per Si atom -5578.258196 kJ/mol
# Density = 2.617748 g / cm^3
# Si number density = 26.237198 Si / 1000 Ang^3
#
#
#
# Elastic Constant Matrix: (Units=GPa)
#
#
# Indices 1 2 3 4 5 6 
#
# 1 275.7034 66.3825 40.2695 0.0000 26.5383 0.0000
# 2 66.3825 90.1934 8.1196 0.0000 -6.1617 0.0000
# 3 40.2695 8.1196 66.7356 0.0000 -13.3992 0.0000
# 4 0.0000 0.0000 0.0000 34.5390 0.0000 4.6977
# 5 26.5383 -6.1617 -13.3992 0.0000 53.8683 0.0000
# 6 0.0000 0.0000 0.0000 4.6977 0.0000 59.5395
#
#
#
# Elastic Compliance Matrix: (Units=1/GPa)
#
#
# Indices 1 2 3 4 5 6 
#
# 1 0.005523 -0.004014 -0.003666 0.000000 -0.004092 0.000000
# 2 -0.004014 0.014179 0.001495 0.000000 0.003971 0.000000
# 3 -0.003666 0.001495 0.018327 0.000000 0.006536 0.000000
# 4 0.000000 0.000000 0.000000 0.029267 0.000000 -0.002309
# 5 -0.004092 0.003971 0.006536 0.000000 0.022660 0.000000
# 6 0.000000 0.000000 0.000000 -0.002309 0.000000 0.016978
#
#
# Mechanical properties :
#
#
# Convention : Reuss Voigt Hill
#
# Bulk Modulus (GPa) = 38.97517 73.57508 56.27512
# Shear Modulus (GPa) = 39.10634 50.78007 44.94320
#
# Velocity S-wave (km/s) = 3.86488 4.40412 4.14328
# Velocity P-wave (km/s) = 5.89945 7.34607 6.66215
#
# Compressibility (1/GPa) = 0.02565736
#
# Stress axis : x y z
#
# Youngs Moduli (GPa) = 181.06171 70.52835 54.56461
#
# Poissons Ratio (x) = 0.28313 0.20002
# Poissons Ratio (y) = 0.72687 -0.08156
# Poissons Ratio (z) = 0.66374 -0.10542
#
# Static dielectric constant tensor:
#      x y z
#    x 2.095230 0.000000 0.355770 
#    y 0.000000 2.222700 0.000000 
#    z 0.355770 0.000000 3.000100 
# 
# From -- ./inp_files/41112.got.cif
#   From: 2010.05.17/outbox.cif.g08.bks.cpg/sg15_21_cif.got.tgz:41112.got - 2010.06.03 18:47:42.
