data_PCOD9296363
_publ_section_title
;
Structure prediction by ZEFSAII (Michael W. Deem and Ramdas Pophale) SiO2 
 PCOD9296363
Probable space group: C 2/C
;
_chemical_formula_sum "Si O2"
_cell_formula_units_Z 32
_cell_length_a 13.209934
_cell_length_b 5.824094
_cell_length_c 18.584592
_cell_angle_alpha 90.000000
_cell_angle_beta 75.578757
_cell_angle_gamma 90.000000
_cell_volume 1384.769836
_symmetry_space_group_name_H-M "C 2/C"
_symmetry_group_IT_number 15
_symmetry_cell_setting 'monoclinic'
loop_
_space_group_symop_operation_xyz
x,y,z
-x,y,1/2-z
-x,-y,-z
x,-y,1/2+z
1/2+x,1/2+y,z
1/2-x,1/2+y,1/2-z
1/2-x,1/2-y,-z
1/2+x,1/2-y,1/2+z
loop_
_atom_site_type_symbol
_atom_site_label
_atom_site_fract_x
_atom_site_fract_y
_atom_site_fract_z
Si Si1 0.787128 0.107713 0.714592
Si Si2 0.974018 0.913437 0.618883
Si Si3 0.687622 0.860415 0.077872
Si Si4 0.919022 0.699490 0.494600
O O1 0.770509 0.365136 0.751536
O O2 0.753018 0.150537 0.638339
O O3 0.908193 0.026602 0.694034
O O4 0.892383 0.783248 0.579666
O O5 0.074859 0.755847 0.615852
O O6 0.019484 0.111143 0.560588
O O7 0.750000 0.750000 0.000000
O O8 0.663464 0.106738 0.047692
O O9 0.000000 0.500000 0.500000
#
# Coordination Sequence:
#
# PCOD9296363 Si02
#       4
#     8   8   8   8
#     4  12  31  51  72 110 161 204 255 315 388 469
#     4  10  23  44  72 107 145 193 250 318 374 457
#     4  11  25  45  81 109 143 201 257 321 388 452
#     4   9  19  39  74 107 138 176 252 315 372 435
#
# _framework density 23.108533000000001
#
# number of rings (size 3 to 8) (size 9 to 14) (size 15 to 20)
#    0.000    1.500    0.000    4.500   14.000    3.000 
#    0.000    0.000    0.000    0.000    0.000    0.000 
#    0.000    0.000    0.000    0.000    0.000    0.000 
#
# Total GULP energy -89105.978794 kJ/mol
# GULP energy per Si atom -5569.123675 kJ/mol
# Density = 2.305594 g / cm^3
# Si number density = 23.108533 Si / 1000 Ang^3
#
#
#
# Elastic Constant Matrix: (Units=GPa)
#
#
# Indices 1 2 3 4 5 6 
#
# 1 70.7854 2.9526 23.2136 0.0000 3.6792 0.0000
# 2 2.9526 90.6318 24.4158 0.0000 -1.7098 0.0000
# 3 23.2136 24.4158 78.5095 0.0000 5.5556 0.0000
# 4 0.0000 0.0000 0.0000 45.1150 0.0000 -7.7595
# 5 3.6792 -1.7098 5.5556 0.0000 39.9948 0.0000
# 6 0.0000 0.0000 0.0000 -7.7595 0.0000 42.4309
#
#
#
# Elastic Compliance Matrix: (Units=1/GPa)
#
#
# Indices 1 2 3 4 5 6 
#
# 1 0.015720 0.000777 -0.004837 0.000000 -0.000741 0.000000
# 2 0.000777 0.012124 -0.004072 0.000000 0.001012 0.000000
# 3 -0.004837 -0.004072 0.015568 0.000000 -0.001892 0.000000
# 4 0.000000 0.000000 0.000000 0.022885 0.000000 0.004185
# 5 -0.000741 0.001012 -0.001892 0.000000 0.025377 0.000000
# 6 0.000000 0.000000 0.000000 0.004185 0.000000 0.024333
#
#
# Mechanical properties :
#
#
# Convention : Reuss Voigt Hill
#
# Bulk Modulus (GPa) = 36.83577 37.89897 37.36737
# Shear Modulus (GPa) = 35.38039 38.13112 36.75576
#
# Velocity S-wave (km/s) = 3.91711 4.06653 3.99252
# Velocity P-wave (km/s) = 6.03600 6.20363 6.12039
#
# Compressibility (1/GPa) = 0.02714753
#
# Stress axis : x y z
#
# Youngs Moduli (GPa) = 63.61471 82.47819 64.23524
#
# Poissons Ratio (x) = -0.06409 0.31072
# Poissons Ratio (y) = -0.04943 0.26157
# Poissons Ratio (z) = 0.30772 0.33585
#
# Static dielectric constant tensor:
#      x y z
#    x 2.150470 0.000000 -0.064310 
#    y 0.000000 2.043680 0.000000 
#    z -0.064310 0.000000 1.888170 
# 
# From -- ./inp_files/201818.got.cif
#   From: 2010.05.17/outbox.cif.g08.bks.cpg/sg15_101_cif.got.tgz:201818.got - 2010.06.03 18:47:42.
