data_PCOD9296385
_publ_section_title
;
Structure prediction by ZEFSAII (Michael W. Deem and Ramdas Pophale) SiO2 
 PCOD9296385
Probable space group: C 2/C
;
_chemical_formula_sum "Si O2"
_cell_formula_units_Z 56
_cell_length_a 17.103682
_cell_length_b 17.394239
_cell_length_c 9.403159
_cell_angle_alpha 90.000000
_cell_angle_beta 69.197299
_cell_angle_gamma 90.000000
_cell_volume 2615.120354
_symmetry_space_group_name_H-M "C 2/C"
_symmetry_group_IT_number 15
_symmetry_cell_setting 'monoclinic'
loop_
_space_group_symop_operation_xyz
x,y,z
-x,y,1/2-z
-x,-y,-z
x,-y,1/2+z
1/2+x,1/2+y,z
1/2-x,1/2+y,1/2-z
1/2-x,1/2-y,-z
1/2+x,1/2-y,1/2+z
loop_
_atom_site_type_symbol
_atom_site_label
_atom_site_fract_x
_atom_site_fract_y
_atom_site_fract_z
Si Si1 0.667320 0.954318 0.210055
Si Si2 0.500000 0.694946 0.250000
Si Si3 0.000912 0.909602 0.477884
Si Si4 0.616048 0.345004 0.196226
Si Si5 0.900448 0.670112 0.209745
Si Si6 0.714627 0.920213 0.494810
Si Si7 0.000000 0.453072 0.750000
Si Si8 0.337286 0.795146 0.440606
O O1 0.676382 0.954915 0.374228
O O2 0.672143 0.867462 0.156274
O O3 0.579245 0.990647 0.212777
O O4 0.735366 0.007681 0.084790
O O5 0.517666 0.639577 0.371282
O O6 0.418102 0.745643 0.339518
O O7 0.091532 0.887607 0.357355
O O8 0.936955 0.881469 0.397923
O O9 0.000000 0.000000 0.500000
O O10 0.590222 0.257078 0.241546
O O11 0.710832 0.363986 0.098124
O O12 0.846435 0.629782 0.367330
O O13 0.979732 0.611983 0.141269
O O14 0.855597 0.675270 0.087991
O O15 0.250000 0.750000 0.500000
#
# Coordination Sequence:
#
# PCOD9296385 Si02
#       8
#     8   4   8   8   8   8   4   8
#     4  11  25  44  68 112 141 203 241 310 379 444
#     4  12  27  46  75 108 144 198 246 322 389 440
#     4  11  26  45  68 102 134 191 243 305 373 445
#     4  11  24  46  71  98 146 188 247 299 372 448
#     4  11  24  45  71 106 140 198 241 308 372 451
#     4  11  26  43  74 104 149 189 246 301 371 447
#     4  10  23  44  73 100 154 184 256 300 377 460
#     4  12  28  46  75 109 156 194 261 318 378 463
#
# _framework density 21.413927999999999
#
# number of rings (size 3 to 8) (size 9 to 14) (size 15 to 20)
#    0.000    0.857    1.429    5.143    6.000    7.429 
#    0.000    0.000    0.000    0.000    0.000    0.000 
#    0.000    0.000    0.000    0.000    0.000    0.000 
#
# Total GULP energy -156310.945918 kJ/mol
# GULP energy per Si atom -5582.533783 kJ/mol
# Density = 2.136519 g / cm^3
# Si number density = 21.413928 Si / 1000 Ang^3
#
#
#
# Elastic Constant Matrix: (Units=GPa)
#
#
# Indices 1 2 3 4 5 6 
#
# 1 70.5311 10.6006 42.3868 0.0000 -3.7092 0.0000
# 2 10.6006 147.7602 51.7529 0.0000 -2.6017 0.0000
# 3 42.3868 51.7529 148.1185 0.0000 13.2660 0.0000
# 4 0.0000 0.0000 0.0000 76.9599 0.0000 -13.1355
# 5 -3.7092 -2.6017 13.2660 0.0000 44.4387 0.0000
# 6 0.0000 0.0000 0.0000 -13.1355 0.0000 41.5836
#
#
#
# Elastic Compliance Matrix: (Units=1/GPa)
#
#
# Indices 1 2 3 4 5 6 
#
# 1 0.017585 0.000748 -0.005578 0.000000 0.003177 0.000000
# 2 0.000748 0.007816 -0.003074 0.000000 0.001438 0.000000
# 3 -0.005578 -0.003074 0.009740 0.000000 -0.003553 0.000000
# 4 0.000000 0.000000 0.000000 0.013734 0.000000 0.004338
# 5 0.003177 0.001438 -0.003553 0.000000 0.023913 0.000000
# 6 0.000000 0.000000 0.000000 0.004338 0.000000 0.025418
#
#
# Mechanical properties :
#
#
# Convention : Reuss Voigt Hill
#
# Bulk Modulus (GPa) = 51.72449 63.98782 57.85616
# Shear Modulus (GPa) = 41.50804 50.04107 45.77456
#
# Velocity S-wave (km/s) = 4.40746 4.83934 4.62844
# Velocity P-wave (km/s) = 7.07870 7.82124 7.45922
#
# Compressibility (1/GPa) = 0.01933320
#
# Stress axis : x y z
#
# Youngs Moduli (GPa) = 56.86631 127.94360 102.67083
#
# Poissons Ratio (x) = -0.09572 0.57272
# Poissons Ratio (y) = -0.04254 0.31558
# Poissons Ratio (z) = 0.31721 0.39327
#
# Static dielectric constant tensor:
#      x y z
#    x 1.872190 0.000000 -0.036730 
#    y 0.000000 1.786460 0.000000 
#    z -0.036730 0.000000 1.781260 
# 
# From -- ./inp_files/49074.got.cif
#   From: 2010.05.17/outbox.cif.g08.bks.cpg/sg15_25_cif.got.tgz:49074.got - 2010.06.03 18:47:42.
