data_PCOD9296799
_publ_section_title
;
Structure prediction by ZEFSAII (Michael W. Deem and Ramdas Pophale) SiO2 
 PCOD9296799
Probable space group: C 2/C
;
_chemical_formula_sum "Si O2"
_cell_formula_units_Z 40
_cell_length_a 5.170850
_cell_length_b 25.732685
_cell_length_c 14.144192
_cell_angle_alpha 90.000000
_cell_angle_beta 98.226278
_cell_angle_gamma 90.000000
_cell_volume 1862.659437
_symmetry_space_group_name_H-M "C 2/C"
_symmetry_group_IT_number 15
_symmetry_cell_setting 'monoclinic'
loop_
_space_group_symop_operation_xyz
x,y,z
-x,y,1/2-z
-x,-y,-z
x,-y,1/2+z
1/2+x,1/2+y,z
1/2-x,1/2+y,1/2-z
1/2-x,1/2-y,-z
1/2+x,1/2-y,1/2+z
loop_
_atom_site_type_symbol
_atom_site_label
_atom_site_fract_x
_atom_site_fract_y
_atom_site_fract_z
Si Si1 0.000000 0.041076 0.750000
Si Si2 0.168603 0.149853 0.053407
Si Si3 0.217006 0.057529 0.188606
Si Si4 0.295476 0.359978 0.162157
Si Si5 0.697312 0.215033 0.091640
Si Si6 0.500000 0.218970 0.750000
O O1 0.785749 0.079708 0.692854
O O2 0.879157 0.002384 0.821770
O O3 0.232651 0.093316 0.098209
O O4 0.407785 0.190544 0.079815
O O5 0.910703 0.169969 0.090913
O O6 0.116521 0.145171 0.939571
O O7 0.500000 0.057417 0.250000
O O8 0.000000 0.080034 0.250000
O O9 0.500000 0.339367 0.250000
O O10 0.058512 0.321542 0.168025
O O11 0.778333 0.244867 0.191799
O O12 0.750000 0.250000 0.000000
#
# Coordination Sequence:
#
# PCOD9296799 Si02
#       6
#     4   8   8   8   8   4
#     4   8  24  41  74  98 142 179 224 290 350 410
#     4  12  26  45  72 103 138 183 234 284 340 420
#     4  10  23  46  67 104 138 178 228 289 340 414
#     4  10  24  45  69 101 135 185 228 288 338 418
#     4  12  27  45  68 103 139 182 235 279 347 408
#     4  12  26  41  72  96 146 183 232 286 344 406
#
# _framework density 21.474671000000001
#
# number of rings (size 3 to 8) (size 9 to 14) (size 15 to 20)
#    1.200    0.000    2.000    3.000    8.400    0.800 
#    0.000    1.000    0.000    0.000    0.000    0.000 
#    0.000    0.000    0.000    0.000    0.000    0.000 
#
# Total GULP energy -111473.022285 kJ/mol
# GULP energy per Si atom -5573.651114 kJ/mol
# Density = 2.142579 g / cm^3
# Si number density = 21.474671 Si / 1000 Ang^3
#
#
#
# Elastic Constant Matrix: (Units=GPa)
#
#
# Indices 1 2 3 4 5 6 
#
# 1 51.9388 -0.4417 12.7034 0.0000 7.1473 0.0000
# 2 -0.4417 99.7987 48.9095 0.0000 8.0543 0.0000
# 3 12.7034 48.9095 98.3856 0.0000 5.3032 0.0000
# 4 0.0000 0.0000 0.0000 34.7286 0.0000 -8.4037
# 5 7.1473 8.0543 5.3032 0.0000 29.1044 0.0000
# 6 0.0000 0.0000 0.0000 -8.4037 0.0000 8.2071
#
#
#
# Elastic Compliance Matrix: (Units=1/GPa)
#
#
# Indices 1 2 3 4 5 6 
#
# 1 0.020835 0.002230 -0.003525 0.000000 -0.005092 0.000000
# 2 0.002230 0.013668 -0.006917 0.000000 -0.003070 0.000000
# 3 -0.003525 -0.006917 0.014046 0.000000 0.000220 0.000000
# 4 0.000000 0.000000 0.000000 0.038280 0.000000 0.039196
# 5 -0.005092 -0.003070 0.000220 0.000000 0.036419 0.000000
# 6 0.000000 0.000000 0.000000 0.039196 0.000000 0.161981
#
#
# Mechanical properties :
#
#
# Convention : Reuss Voigt Hill
#
# Bulk Modulus (GPa) = 31.12699 41.38504 36.25602
# Shear Modulus (GPa) = 16.00724 27.00482 21.50603
#
# Velocity S-wave (km/s) = 2.73317 3.55000 3.16802
# Velocity P-wave (km/s) = 4.94838 6.00972 5.50469
#
# Compressibility (1/GPa) = 0.03212646
#
# Stress axis : x y z
#
# Youngs Moduli (GPa) = 47.99592 73.16525 71.19526
#
# Poissons Ratio (x) = -0.16319 0.25093
# Poissons Ratio (y) = -0.10705 0.49246
# Poissons Ratio (z) = 0.16916 0.50608
#
# Static dielectric constant tensor:
#      x y z
#    x 1.883680 0.000000 -0.065730 
#    y 0.000000 1.814920 0.000000 
#    z -0.065730 0.000000 1.764370 
# 
# From -- ./inp_files/73696.got.cif
#   From: 2010.05.17/outbox.cif.g08.bks.cpg/sg15_37_cif.got.tgz:73696.got - 2010.06.03 18:47:42.
