data_PCOD9296084
_publ_section_title
;
Structure prediction by ZEFSAII (Michael W. Deem and Ramdas Pophale) SiO2 
 PCOD9296084
Probable space group: C 2/C
;
_chemical_formula_sum "Si O2"
_cell_formula_units_Z 44
_cell_length_a 11.799525
_cell_length_b 21.110781
_cell_length_c 8.662477
_cell_angle_alpha 90.000000
_cell_angle_beta 50.341823
_cell_angle_gamma 90.000000
_cell_volume 1661.215001
_symmetry_space_group_name_H-M "C 2/C"
_symmetry_group_IT_number 15
_symmetry_cell_setting 'monoclinic'
loop_
_space_group_symop_operation_xyz
x,y,z
-x,y,1/2-z
-x,-y,-z
x,-y,1/2+z
1/2+x,1/2+y,z
1/2-x,1/2+y,1/2-z
1/2-x,1/2-y,-z
1/2+x,1/2-y,1/2+z
loop_
_atom_site_type_symbol
_atom_site_label
_atom_site_fract_x
_atom_site_fract_y
_atom_site_fract_z
Si Si1 0.945149 0.066939 0.971612
Si Si2 0.649346 0.933205 0.070980
Si Si3 0.318338 0.204425 0.805836
Si Si4 0.131946 0.611800 0.252290
Si Si5 0.000000 0.922029 0.750000
Si Si6 0.570068 0.749406 0.853909
O O1 0.000000 0.076793 0.750000
O O2 0.978884 0.109366 0.097445
O O3 0.774438 0.073814 0.084774
O O4 0.000000 0.000000 0.000000
O O5 0.500000 0.971418 0.250000
O O6 0.652273 0.865303 0.155650
O O7 0.598268 0.918070 0.943882
O O8 0.827009 0.949943 0.912886
O O9 0.455940 0.233989 0.591818
O O10 0.189801 0.198018 0.792553
O O11 0.250000 0.250000 0.000000
O O12 0.163561 0.685935 0.250179
O O13 0.000000 0.611015 0.250000
O O14 0.500000 0.734938 0.750000
#
# Coordination Sequence:
#
# PCOD9296084 Si02
#       6
#     8   8   8   8   4   8
#     4  11  24  47  74 105 140 177 227 303 370 453
#     4  11  22  42  65  98 140 187 238 301 344 423
#     4  12  22  39  62  93 134 187 239 293 346 397
#     4  10  23  44  67 100 139 183 233 291 361 432
#     4  10  26  42  72 108 136 186 250 282 380 436
#     4  11  24  40  60  93 139 184 243 294 344 421
#
# _framework density 26.486636000000001
#
# number of rings (size 3 to 8) (size 9 to 14) (size 15 to 20)
#    0.000    1.091    4.545    1.091    5.091    0.000 
#    0.000    3.636    0.000    0.000    0.000    0.000 
#    0.000    0.000    0.000    0.000    0.000    0.000 
#
# Total GULP energy -122613.326154 kJ/mol
# GULP energy per Si atom -5573.333007 kJ/mol
# Density = 2.642635 g / cm^3
# Si number density = 26.486636 Si / 1000 Ang^3
#
#
#
# Elastic Constant Matrix: (Units=GPa)
#
#
# Indices 1 2 3 4 5 6 
#
# 1 165.4247 5.9359 72.2081 0.0000 -1.0547 0.0000
# 2 5.9359 76.8030 30.0349 0.0000 -17.3613 0.0000
# 3 72.2081 30.0349 173.6203 0.0000 -1.8762 0.0000
# 4 0.0000 0.0000 0.0000 29.9281 0.0000 -7.5041
# 5 -1.0547 -17.3613 -1.8762 0.0000 67.3919 0.0000
# 6 0.0000 0.0000 0.0000 -7.5041 0.0000 23.6439
#
#
#
# Elastic Compliance Matrix: (Units=1/GPa)
#
#
# Indices 1 2 3 4 5 6 
#
# 1 0.007422 0.000731 -0.003211 0.000000 0.000215 0.000000
# 2 0.000731 0.014931 -0.002846 0.000000 0.003779 0.000000
# 3 -0.003211 -0.002846 0.007581 0.000000 -0.000572 0.000000
# 4 0.000000 0.000000 0.000000 0.036302 0.000000 0.011522
# 5 0.000215 0.003779 -0.000572 0.000000 0.015799 0.000000
# 6 0.000000 0.000000 0.000000 0.011522 0.000000 0.045951
#
#
# Mechanical properties :
#
#
# Convention : Reuss Voigt Hill
#
# Bulk Modulus (GPa) = 51.86275 70.24507 61.05391
# Shear Modulus (GPa) = 34.46709 44.70405 39.58557
#
# Velocity S-wave (km/s) = 3.61127 4.11274 3.87013
# Velocity P-wave (km/s) = 6.08371 7.00937 6.56288
#
# Compressibility (1/GPa) = 0.01928166
#
# Stress axis : x y z
#
# Youngs Moduli (GPa) = 134.74036 66.97490 131.90590
#
# Poissons Ratio (x) = -0.04893 0.42351
# Poissons Ratio (y) = -0.09844 0.37540
# Poissons Ratio (z) = 0.43261 0.19061
#
# Static dielectric constant tensor:
#      x y z
#    x 2.083800 0.000000 -0.028980 
#    y 0.000000 2.148610 0.000000 
#    z -0.028980 0.000000 2.048130 
# 
# From -- ./inp_files/33976.got.cif
#   From: 2010.05.17/outbox.cif.g08.bks.cpg/sg15_17_cif.got.tgz:33976.got - 2010.06.03 18:47:42.
