data_PCOD9296816
_publ_section_title
;
Structure prediction by ZEFSAII (Michael W. Deem and Ramdas Pophale) SiO2 
 PCOD9296816
Probable space group: C 2/C
;
_chemical_formula_sum "Si O2"
_cell_formula_units_Z 52
_cell_length_a 10.240631
_cell_length_b 29.441634
_cell_length_c 7.535183
_cell_angle_alpha 90.000000
_cell_angle_beta 71.326092
_cell_angle_gamma 90.000000
_cell_volume 2152.264912
_symmetry_space_group_name_H-M "C 2/C"
_symmetry_group_IT_number 15
_symmetry_cell_setting 'monoclinic'
loop_
_space_group_symop_operation_xyz
x,y,z
-x,y,1/2-z
-x,-y,-z
x,-y,1/2+z
1/2+x,1/2+y,z
1/2-x,1/2+y,1/2-z
1/2-x,1/2-y,-z
1/2+x,1/2-y,1/2+z
loop_
_atom_site_type_symbol
_atom_site_label
_atom_site_fract_x
_atom_site_fract_y
_atom_site_fract_z
Si Si1 0.598025 0.259409 0.858663
Si Si2 0.138362 0.399679 0.577554
Si Si3 0.500000 0.309767 0.250000
Si Si4 0.714345 0.834364 0.257401
Si Si5 0.778835 0.148389 0.345178
Si Si6 0.336115 0.992773 0.825321
Si Si7 0.649361 0.449418 0.614417
O O1 0.500000 0.239517 0.750000
O O2 0.696157 0.216601 0.843038
O O3 0.656345 0.303871 0.736447
O O4 0.531528 0.277328 0.068010
O O5 0.127450 0.370464 0.405720
O O6 0.229415 0.370833 0.676716
O O7 0.176667 0.451922 0.522317
O O8 0.000000 0.403536 0.750000
O O9 0.374857 0.341432 0.238847
O O10 0.689463 0.839052 0.058348
O O11 0.860911 0.104928 0.384879
O O12 0.500000 0.006228 0.750000
O O13 0.278455 0.963623 0.684679
O O14 0.215917 0.029575 0.909205
O O15 0.500000 0.466173 0.750000
#
# Coordination Sequence:
#
# PCOD9296816 Si02
#       7
#     8   8   4   8   8   8   8
#     4  12  26  44  66  99 140 180 234 288 348 410
#     4  10  25  45  69 101 142 179 235 289 341 423
#     4  12  26  44  70  94 134 190 222 288 350 408
#     4  12  27  41  72  99 132 190 229 284 352 415
#     4  11  25  46  65 104 142 179 232 291 356 411
#     4  10  23  46  68 101 143 185 227 295 365 423
#     4  11  24  43  74 103 138 183 236 297 351 429
#
# _framework density 24.160592999999999
#
# number of rings (size 3 to 8) (size 9 to 14) (size 15 to 20)
#    0.000    0.923    3.077    2.308    5.385    0.000 
#    1.385    0.000    0.000    0.000    0.000    0.000 
#    0.000    0.000    0.000    0.000    0.000    0.000 
#
# Total GULP energy -144926.953065 kJ/mol
# GULP energy per Si atom -5574.113579 kJ/mol
# Density = 2.410560 g / cm^3
# Si number density = 24.160593 Si / 1000 Ang^3
#
#
#
# Elastic Constant Matrix: (Units=GPa)
#
#
# Indices 1 2 3 4 5 6 
#
# 1 70.1168 -0.3018 -1.6680 0.0000 -11.9086 0.0000
# 2 -0.3018 122.1705 43.2556 0.0000 -24.2233 0.0000
# 3 -1.6680 43.2556 169.5693 0.0000 1.2236 0.0000
# 4 0.0000 0.0000 0.0000 107.9367 0.0000 -144.8285
# 5 -11.9086 -24.2233 1.2236 0.0000 27.7578 0.0000
# 6 0.0000 0.0000 0.0000 -144.8285 0.0000 247.2153
#
#
#
# Elastic Compliance Matrix: (Units=1/GPa)
#
#
# Indices 1 2 3 4 5 6 
#
# 1 0.015676 0.001822 -0.000371 0.000000 0.008332 0.000000
# 2 0.001822 0.011392 -0.002966 0.000000 0.010854 0.000000
# 3 -0.000371 -0.002966 0.006672 0.000000 -0.003042 0.000000
# 4 0.000000 0.000000 0.000000 0.043308 0.000000 0.025372
# 5 0.008332 0.010854 -0.003042 0.000000 0.049206 0.000000
# 6 0.000000 0.000000 0.000000 0.025372 0.000000 0.018909
#
#
# Mechanical properties :
#
#
# Convention : Reuss Voigt Hill
#
# Bulk Modulus (GPa) = 32.56268 49.38090 40.97179
# Shear Modulus (GPa) = 31.55958 97.95333 64.75646
#
# Velocity S-wave (km/s) = 3.61812 6.37421 5.18273
# Velocity P-wave (km/s) = 5.56428 8.64044 7.26699
#
# Compressibility (1/GPa) = 0.03071000
#
# Stress axis : x y z
#
# Youngs Moduli (GPa) = 63.79191 87.77976 149.87313
#
# Poissons Ratio (x) = -0.15993 0.05555
# Poissons Ratio (y) = -0.11622 0.44459
# Poissons Ratio (z) = 0.02365 0.26039
#
# Static dielectric constant tensor:
#      x y z
#    x 16.036890 0.000000 -10.376410 
#    y 0.000000 1.949360 0.000000 
#    z -10.376410 0.000000 9.727730 
# 
# From -- ./inp_files/35112.got.cif
#   From: 2010.05.17/outbox.cif.g08.bks.cpg/sg15_18_cif.got.tgz:35112.got - 2010.06.03 18:47:42.
