data_PCOD9296813
_publ_section_title
;
Structure prediction by ZEFSAII (Michael W. Deem and Ramdas Pophale) SiO2 
 PCOD9296813
Probable space group: C 2/C
;
_chemical_formula_sum "Si O2"
_cell_formula_units_Z 36
_cell_length_a 14.978889
_cell_length_b 20.469652
_cell_length_c 8.342275
_cell_angle_alpha 90.000000
_cell_angle_beta 41.944356
_cell_angle_gamma 90.000000
_cell_volume 1709.686859
_symmetry_space_group_name_H-M "C 2/C"
_symmetry_group_IT_number 15
_symmetry_cell_setting 'monoclinic'
loop_
_space_group_symop_operation_xyz
x,y,z
-x,y,1/2-z
-x,-y,-z
x,-y,1/2+z
1/2+x,1/2+y,z
1/2-x,1/2+y,1/2-z
1/2-x,1/2-y,-z
1/2+x,1/2-y,1/2+z
loop_
_atom_site_type_symbol
_atom_site_label
_atom_site_fract_x
_atom_site_fract_y
_atom_site_fract_z
Si Si1 0.375498 0.428344 0.525991
Si Si2 0.717704 0.132025 0.955855
Si Si3 0.500000 0.242903 0.250000
Si Si4 0.103869 0.494413 0.002857
Si Si5 0.974861 0.168567 0.463908
O O1 0.306743 0.376832 0.496502
O O2 0.249133 0.470166 0.753130
O O3 0.437034 0.393793 0.599605
O O4 0.500000 0.455927 0.250000
O O5 0.638993 0.064659 0.033657
O O6 0.822691 0.144153 0.674680
O O7 0.625313 0.194435 0.089815
O O8 0.501768 0.282488 0.416391
O O9 0.000000 0.451987 0.250000
O O10 0.000000 0.500000 0.000000
O O11 0.000000 0.192523 0.250000
#
# Coordination Sequence:
#
# PCOD9296813 Si02
#       5
#     8   8   4   8   8
#     4  10  23  46  68 100 139 184 227 284 355 414
#     4  11  23  45  69  94 140 187 220 285 354 406
#     4  12  22  48  70  94 146 178 230 288 342 406
#     4  12  24  42  67 104 136 180 229 282 351 413
#     4  11  26  42  70 103 131 183 236 283 343 410
#
# _framework density 21.056488000000002
#
# number of rings (size 3 to 8) (size 9 to 14) (size 15 to 20)
#    0.000    0.889    6.667    0.667    3.111    5.333 
#    0.000    1.111    0.000    0.000    0.000    0.000 
#    0.000    0.000    0.000    0.000    0.000    0.000 
#
# Total GULP energy -100208.141139 kJ/mol
# GULP energy per Si atom -5567.118952 kJ/mol
# Density = 2.100856 g / cm^3
# Si number density = 21.056488 Si / 1000 Ang^3
#
#
#
# Elastic Constant Matrix: (Units=GPa)
#
#
# Indices 1 2 3 4 5 6 
#
# 1 98.5862 25.1169 69.6423 0.0000 0.8599 0.0000
# 2 25.1169 67.1328 64.8025 0.0000 -5.1233 0.0000
# 3 69.6423 64.8025 186.2871 0.0000 -15.5647 0.0000
# 4 0.0000 0.0000 0.0000 38.2941 0.0000 -20.2841
# 5 0.8599 -5.1233 -15.5647 0.0000 49.1966 0.0000
# 6 0.0000 0.0000 0.0000 -20.2841 0.0000 32.0700
#
#
#
# Elastic Compliance Matrix: (Units=1/GPa)
#
#
# Indices 1 2 3 4 5 6 
#
# 1 0.013966 -0.000266 -0.005291 0.000000 -0.001946 0.000000
# 2 -0.000266 0.022432 -0.007712 0.000000 -0.000099 0.000000
# 3 -0.005291 -0.007712 0.010240 0.000000 0.002529 0.000000
# 4 0.000000 0.000000 0.000000 0.039270 0.000000 0.024838
# 5 -0.001946 -0.000099 0.002529 0.000000 0.021150 0.000000
# 6 0.000000 0.000000 0.000000 0.024838 0.000000 0.046892
#
#
# Mechanical properties :
#
#
# Convention : Reuss Voigt Hill
#
# Bulk Modulus (GPa) = 49.75252 74.56994 62.16123
# Shear Modulus (GPa) = 26.71086 36.74177 31.72631
#
# Velocity S-wave (km/s) = 3.56551 4.18175 3.88587
# Velocity P-wave (km/s) = 6.37416 7.66858 7.05114
#
# Compressibility (1/GPa) = 0.02009948
#
# Stress axis : x y z
#
# Youngs Moduli (GPa) = 71.60333 44.57850 97.65499
#
# Poissons Ratio (x) = 0.01187 0.51669
# Poissons Ratio (y) = 0.01907 0.75313
# Poissons Ratio (z) = 0.37885 0.34379
#
# Static dielectric constant tensor:
#      x y z
#    x 1.843410 0.000000 0.119750 
#    y 0.000000 1.811240 0.000000 
#    z 0.119750 0.000000 1.968420 
# 
# From -- ./inp_files/41200.got.cif
#   From: 2010.05.17/outbox.cif.g08.bks.cpg/sg15_21_cif.got.tgz:41200.got - 2010.06.03 18:47:42.
