data_PCOD9296448
_publ_section_title
;
Structure prediction by ZEFSAII (Michael W. Deem and Ramdas Pophale) SiO2 
 PCOD9296448
Probable space group: C 2/C
;
_chemical_formula_sum "Si O2"
_cell_formula_units_Z 48
_cell_length_a 29.255378
_cell_length_b 10.458269
_cell_length_c 14.244553
_cell_angle_alpha 90.000000
_cell_angle_beta 26.273004
_cell_angle_gamma 90.000000
_cell_volume 1929.183704
_symmetry_space_group_name_H-M "C 2/C"
_symmetry_group_IT_number 15
_symmetry_cell_setting 'monoclinic'
loop_
_space_group_symop_operation_xyz
x,y,z
-x,y,1/2-z
-x,-y,-z
x,-y,1/2+z
1/2+x,1/2+y,z
1/2-x,1/2+y,1/2-z
1/2-x,1/2-y,-z
1/2+x,1/2-y,1/2+z
loop_
_atom_site_type_symbol
_atom_site_label
_atom_site_fract_x
_atom_site_fract_y
_atom_site_fract_z
Si Si1 0.372272 0.635471 0.243541
Si Si2 0.809618 0.844259 0.185443
Si Si3 0.500000 0.955990 0.750000
Si Si4 0.208059 0.400597 0.902796
Si Si5 0.008614 0.639588 0.438366
Si Si6 0.002618 0.986242 0.846170
Si Si7 0.250000 0.750000 0.000000
O O1 0.259077 0.618855 0.410631
O O2 0.389480 0.557369 0.307882
O O3 0.424282 0.772904 0.146628
O O4 0.444339 0.567487 0.031706
O O5 0.779101 0.733159 0.172351
O O6 0.764923 0.812504 0.369501
O O7 0.769764 0.986187 0.235623
O O8 0.932787 0.859878 0.962521
O O9 0.593348 0.047454 0.608728
O O10 0.520947 0.872884 0.617945
O O11 0.124228 0.698714 0.234107
O O12 0.000000 0.500000 0.500000
O O13 0.000000 0.051257 0.750000
#
# Coordination Sequence:
#
# PCOD9296448 Si02
#       7
#     8   8   4   8   8   8   4
#     4  10  24  47  70 116 150 199 268 316 403 495
#     4  11  24  47  73 110 148 208 262 319 410 473
#     4  12  26  46  76 110 152 202 262 330 402 478
#     4  11  25  47  75 108 155 198 261 328 393 485
#     4  12  27  48  80 115 155 211 268 333 409 502
#     4  10  23  44  77 107 154 202 253 329 396 482
#     4  12  24  48  78 106 160 216 262 338 404 498
#
# _framework density 24.880990000000001
#
# number of rings (size 3 to 8) (size 9 to 14) (size 15 to 20)
#    0.000    1.000    3.333    2.000    2.333    1.333 
#    0.000    3.333    0.000    0.000    0.000    0.000 
#    0.000    0.000    0.000    0.000    0.000    0.000 
#
# Total GULP energy -133822.501625 kJ/mol
# GULP energy per Si atom -5575.937568 kJ/mol
# Density = 2.482436 g / cm^3
# Si number density = 24.880990 Si / 1000 Ang^3
#
#
#
# Elastic Constant Matrix: (Units=GPa)
#
#
# Indices 1 2 3 4 5 6 
#
# 1 103.5850 50.3155 30.3338 0.0000 -21.5714 0.0000
# 2 50.3155 89.1810 15.0199 0.0000 -21.7223 0.0000
# 3 30.3338 15.0199 110.3941 0.0000 -27.8846 0.0000
# 4 0.0000 0.0000 0.0000 24.8294 0.0000 -11.3959
# 5 -21.5714 -21.7223 -27.8846 0.0000 54.2706 0.0000
# 6 0.0000 0.0000 0.0000 -11.3959 0.0000 25.8650
#
#
#
# Elastic Compliance Matrix: (Units=1/GPa)
#
#
# Indices 1 2 3 4 5 6 
#
# 1 0.014220 -0.007242 -0.002559 0.000000 0.001439 0.000000
# 2 -0.007242 0.016136 0.000803 0.000000 0.003993 0.000000
# 3 -0.002559 0.000803 0.010890 0.000000 0.004900 0.000000
# 4 0.000000 0.000000 0.000000 0.050484 0.000000 0.022243
# 5 0.001439 0.003993 0.004900 0.000000 0.023114 0.000000
# 6 0.000000 0.000000 0.000000 0.022243 0.000000 0.048462
#
#
# Mechanical properties :
#
#
# Convention : Reuss Voigt Hill
#
# Bulk Modulus (GPa) = 43.00748 54.94427 48.97587
# Shear Modulus (GPa) = 26.44785 34.82573 30.63679
#
# Velocity S-wave (km/s) = 3.26387 3.74531 3.51284
# Velocity P-wave (km/s) = 5.61485 6.39014 6.01500
#
# Compressibility (1/GPa) = 0.02325177
#
# Stress axis : x y z
#
# Youngs Moduli (GPa) = 70.32121 61.97255 91.82835
#
# Poissons Ratio (x) = 0.44878 0.23496
# Poissons Ratio (y) = 0.50924 -0.07373
# Poissons Ratio (z) = 0.17993 -0.04976
#
# Static dielectric constant tensor:
#      x y z
#    x 2.017420 0.000000 -0.039580 
#    y 0.000000 1.988550 0.000000 
#    z -0.039580 0.000000 2.034250 
# 
# From -- ./inp_files/177778.got.cif
#   From: 2010.05.17/outbox.cif.g08.bks.cpg/sg15_89_cif.got.tgz:177778.got - 2010.06.03 18:47:42.
