data_PCOD9296977
_publ_section_title
;
Structure prediction by ZEFSAII (Michael W. Deem and Ramdas Pophale) SiO2 
 PCOD9296977
Probable space group: C 2/C
;
_chemical_formula_sum "Si O2"
_cell_formula_units_Z 44
_cell_length_a 10.780457
_cell_length_b 9.266382
_cell_length_c 16.856533
_cell_angle_alpha 90.000000
_cell_angle_beta 66.354558
_cell_angle_gamma 90.000000
_cell_volume 1542.525659
_symmetry_space_group_name_H-M "C 2/C"
_symmetry_group_IT_number 15
_symmetry_cell_setting 'monoclinic'
loop_
_space_group_symop_operation_xyz
x,y,z
-x,y,1/2-z
-x,-y,-z
x,-y,1/2+z
1/2+x,1/2+y,z
1/2-x,1/2+y,1/2-z
1/2-x,1/2-y,-z
1/2+x,1/2-y,1/2+z
loop_
_atom_site_type_symbol
_atom_site_label
_atom_site_fract_x
_atom_site_fract_y
_atom_site_fract_z
Si Si1 0.290024 0.669326 0.909641
Si Si2 0.059463 0.835028 0.415166
Si Si3 0.197404 0.547298 0.315374
Si Si4 0.000000 0.863630 0.750000
Si Si5 0.182224 0.524414 0.148974
Si Si6 0.096292 0.295337 0.065377
O O1 0.192933 0.555620 0.893036
O O2 0.359922 0.440826 0.761459
O O3 0.317472 0.804000 0.845260
O O4 0.250000 0.750000 0.000000
O O5 0.132148 0.701757 0.351211
O O6 0.934672 0.896151 0.397371
O O7 0.169117 0.958269 0.402059
O O8 0.016100 0.764065 0.510357
O O9 0.141695 0.478847 0.248428
O O10 0.450459 0.721495 0.341291
O O11 0.103173 0.462186 0.092663
O O12 0.250000 0.250000 0.000000
#
# Coordination Sequence:
#
# PCOD9296977 Si02
#       6
#     8   8   8   4   8   8
#     4  12  30  47  76 119 155 206 267 331 403 468
#     4  11  26  54  76 108 168 200 263 336 386 481
#     4  12  26  48  76 116 155 207 268 325 399 475
#     4  12  24  44  82 110 146 214 268 310 404 474
#     4  11  25  48  77 108 153 207 258 328 395 464
#     4  10  23  46  77 112 147 207 268 319 393 482
#
# _framework density 28.524649
#
# number of rings (size 3 to 8) (size 9 to 14) (size 15 to 20)
#    0.000    0.727    3.636    3.273    5.091    7.273 
#    0.000    0.000    0.000    0.000    0.000    0.000 
#    0.000    0.000    0.000    0.000    0.000    0.000 
#
# Total GULP energy -123419.018266 kJ/mol
# GULP energy per Si atom -5609.955376 kJ/mol
# Density = 2.845973 g / cm^3
# Si number density = 28.524649 Si / 1000 Ang^3
#
#
#
# Elastic Constant Matrix: (Units=GPa)
#
#
# Indices 1 2 3 4 5 6 
#
# 1 121.9471 22.0316 38.1623 0.0000 22.0828 0.0000
# 2 22.0316 89.3350 26.7662 0.0000 11.0338 0.0000
# 3 38.1623 26.7662 197.4101 0.0000 12.0636 0.0000
# 4 0.0000 0.0000 0.0000 55.3295 0.0000 -0.9597
# 5 22.0828 11.0338 12.0636 0.0000 62.6513 0.0000
# 6 0.0000 0.0000 0.0000 -0.9597 0.0000 50.4409
#
#
#
# Elastic Compliance Matrix: (Units=1/GPa)
#
#
# Indices 1 2 3 4 5 6 
#
# 1 0.009435 -0.001552 -0.001444 0.000000 -0.002774 0.000000
# 2 -0.001552 0.012120 -0.001261 0.000000 -0.001345 0.000000
# 3 -0.001444 -0.001261 0.005536 0.000000 -0.000335 0.000000
# 4 0.000000 0.000000 0.000000 0.018080 0.000000 0.000344
# 5 -0.002774 -0.001345 -0.000335 0.000000 0.017241 0.000000
# 6 0.000000 0.000000 0.000000 0.000344 0.000000 0.019832
#
#
# Mechanical properties :
#
#
# Convention : Reuss Voigt Hill
#
# Bulk Modulus (GPa) = 53.82716 64.73469 59.28092
# Shear Modulus (GPa) = 51.57326 55.13314 53.35320
#
# Velocity S-wave (km/s) = 4.25670 4.40116 4.32953
# Velocity P-wave (km/s) = 6.56283 6.96925 6.76909
#
# Compressibility (1/GPa) = 0.01857798
#
# Stress axis : x y z
#
# Youngs Moduli (GPa) = 105.99022 82.50521 180.62865
#
# Poissons Ratio (x) = 0.12801 0.26083
# Poissons Ratio (y) = 0.16444 0.22782
# Poissons Ratio (z) = 0.15305 0.10406
#
# Static dielectric constant tensor:
#      x y z
#    x 2.277390 0.000000 -0.032320 
#    y 0.000000 2.241870 0.000000 
#    z -0.032320 0.000000 2.263410 
# 
# From -- ./inp_files/159179.got.cif
#   From: 2010.05.17/outbox.cif.g08.bks.cpg/sg15_80_cif.got.tgz:159179.got - 2010.06.03 18:47:42.
