data_PCOD9296056
_publ_section_title
;
Structure prediction by ZEFSAII (Michael W. Deem and Ramdas Pophale) SiO2 
 PCOD9296056
Probable space group: C 2/C
;
_chemical_formula_sum "Si O2"
_cell_formula_units_Z 48
_cell_length_a 6.116918
_cell_length_b 28.324138
_cell_length_c 12.590380
_cell_angle_alpha 90.000000
_cell_angle_beta 73.375281
_cell_angle_gamma 90.000000
_cell_volume 2090.181582
_symmetry_space_group_name_H-M "C 2/C"
_symmetry_group_IT_number 15
_symmetry_cell_setting 'monoclinic'
loop_
_space_group_symop_operation_xyz
x,y,z
-x,y,1/2-z
-x,-y,-z
x,-y,1/2+z
1/2+x,1/2+y,z
1/2-x,1/2+y,1/2-z
1/2-x,1/2-y,-z
1/2+x,1/2-y,1/2+z
loop_
_atom_site_type_symbol
_atom_site_label
_atom_site_fract_x
_atom_site_fract_y
_atom_site_fract_z
Si Si1 0.941929 0.114573 0.928000
Si Si2 0.287089 0.474339 0.349724
Si Si3 0.519539 0.892680 0.625248
Si Si4 0.479572 0.280424 0.444034
Si Si5 0.293143 0.699216 0.358684
Si Si6 0.188993 0.455053 0.033855
O O1 0.820340 0.081734 0.858941
O O2 0.949849 0.168846 0.893984
O O3 0.781582 0.114086 0.055167
O O4 0.166628 0.084349 0.924857
O O5 0.500000 0.491806 0.250000
O O6 0.311203 0.501005 0.459269
O O7 0.015858 0.476379 0.366975
O O8 0.500000 0.907474 0.750000
O O9 0.380938 0.844129 0.627684
O O10 0.412452 0.928370 0.555451
O O11 0.602061 0.294370 0.538431
O O12 0.649675 0.246504 0.356898
O O13 0.250000 0.250000 0.500000
O O14 0.500000 0.692538 0.250000
#
# Coordination Sequence:
#
# PCOD9296056 Si02
#       6
#     8   8   8   8   8   8
#     4  11  22  43  65  91 131 173 218 268 330 398
#     4  10  24  43  64  97 132 171 220 272 330 403
#     4  11  23  37  66 100 127 166 217 281 333 389
#     4  11  23  43  65  91 133 174 212 272 327 389
#     4  11  24  40  62  96 130 169 219 272 331 393
#     4  10  23  44  66  96 130 170 221 272 336 396
#
# _framework density 22.964511000000002
#
# number of rings (size 3 to 8) (size 9 to 14) (size 15 to 20)
#    0.000    1.333    3.333    1.500    2.333    0.667 
#    6.000    0.000    0.000    0.000    0.000    0.000 
#    0.000    0.000    0.000    0.000    0.000    0.000 
#
# Total GULP energy -134021.886786 kJ/mol
# GULP energy per Si atom -5584.245283 kJ/mol
# Density = 2.291224 g / cm^3
# Si number density = 22.964511 Si / 1000 Ang^3
#
#
#
# Elastic Constant Matrix: (Units=GPa)
#
#
# Indices 1 2 3 4 5 6 
#
# 1 64.3711 12.8468 26.1551 0.0000 -23.9547 0.0000
# 2 12.8468 138.2376 2.9157 0.0000 -12.8731 0.0000
# 3 26.1551 2.9157 107.8788 0.0000 -29.8765 0.0000
# 4 0.0000 0.0000 0.0000 18.5927 0.0000 -6.4400
# 5 -23.9547 -12.8731 -29.8765 0.0000 46.3531 0.0000
# 6 0.0000 0.0000 0.0000 -6.4400 0.0000 38.2547
#
#
#
# Elastic Compliance Matrix: (Units=1/GPa)
#
#
# Indices 1 2 3 4 5 6 
#
# 1 0.019862 -0.001012 -0.002463 0.000000 0.008396 0.000000
# 2 -0.001012 0.007496 0.000578 0.000000 0.001931 0.000000
# 3 -0.002463 0.000578 0.011617 0.000000 0.006375 0.000000
# 4 0.000000 0.000000 0.000000 0.057115 0.000000 0.009615
# 5 0.008396 0.001931 0.006375 0.000000 0.030558 0.000000
# 6 0.000000 0.000000 0.000000 0.009615 0.000000 0.027759
#
#
# Mechanical properties :
#
#
# Convention : Reuss Voigt Hill
#
# Bulk Modulus (GPa) = 30.13916 43.81364 36.97640
# Shear Modulus (GPa) = 29.19522 38.54477 33.86999
#
# Velocity S-wave (km/s) = 3.56942 4.10133 3.84459
# Velocity P-wave (km/s) = 5.49003 6.44579 5.98701
#
# Compressibility (1/GPa) = 0.03317943
#
# Stress axis : x y z
#
# Youngs Moduli (GPa) = 50.34723 133.41156 86.08274
#
# Poissons Ratio (x) = 0.13502 0.21202
# Poissons Ratio (y) = 0.05095 -0.04972
# Poissons Ratio (z) = 0.12400 -0.07705
#
# Static dielectric constant tensor:
#      x y z
#    x 1.915930 0.000000 -0.018860 
#    y 0.000000 1.865090 0.000000 
#    z -0.018860 0.000000 1.887950 
# 
# From -- ./inp_files/130571.got.cif
#   From: 2010.05.17/outbox.cif.g08.bks.cpg/sg15_66_cif.got.tgz:130571.got - 2010.06.03 18:47:42.
