data_PCOD9296171
_publ_section_title
;
Structure prediction by ZEFSAII (Michael W. Deem and Ramdas Pophale) SiO2 
 PCOD9296171
Probable space group: C 2/C
;
_chemical_formula_sum "Si O2"
_cell_formula_units_Z 56
_cell_length_a 17.999843
_cell_length_b 23.002081
_cell_length_c 9.914289
_cell_angle_alpha 90.000000
_cell_angle_beta 136.111188
_cell_angle_gamma 90.000000
_cell_volume 2845.733727
_symmetry_space_group_name_H-M "C 2/C"
_symmetry_group_IT_number 15
_symmetry_cell_setting 'monoclinic'
loop_
_space_group_symop_operation_xyz
x,y,z
-x,y,1/2-z
-x,-y,-z
x,-y,1/2+z
1/2+x,1/2+y,z
1/2-x,1/2+y,1/2-z
1/2-x,1/2-y,-z
1/2+x,1/2-y,1/2+z
loop_
_atom_site_type_symbol
_atom_site_label
_atom_site_fract_x
_atom_site_fract_y
_atom_site_fract_z
Si Si1 0.723226 0.979777 0.468690
Si Si2 0.000000 0.697000 0.750000
Si Si3 0.105802 0.656902 0.463491
Si Si4 0.103610 0.762246 0.636856
Si Si5 0.406724 0.030150 0.960745
Si Si6 0.717754 0.394617 0.503444
Si Si7 0.776220 0.363269 0.882888
Si Si8 0.500000 0.326461 0.250000
O O1 0.691012 0.971375 0.271629
O O2 0.759694 0.917808 0.572619
O O3 0.625909 0.998839 0.442766
O O4 0.792408 0.038576 0.556819
O O5 0.036358 0.738206 0.674388
O O6 0.896984 0.657510 0.575365
O O7 0.148621 0.704168 0.623944
O O8 0.066529 0.597185 0.479801
O O9 0.199170 0.638217 0.484819
O O10 0.000000 0.679965 0.250000
O O11 0.196574 0.808227 0.794328
O O12 0.030874 0.791704 0.425966
O O13 0.500000 0.000000 0.000000
O O14 0.766430 0.386853 0.717080
O O15 0.603614 0.364539 0.353206
#
# Coordination Sequence:
#
# PCOD9296171 Si02
#       8
#     8   4   8   8   8   8   8   4
#     4  11  22  40  61  90 129 169 213 273 328 386
#     4  12  26  42  65  99 142 174 212 272 344 402
#     4  11  22  39  65 101 131 173 216 277 336 398
#     4  11  25  44  66  97 134 175 228 270 335 388
#     4  11  22  35  59  92 132 168 210 261 333 403
#     4  10  23  44  68  98 133 173 233 275 326 395
#     4  11  25  42  66  97 134 175 220 275 334 402
#     4  10  24  46  73  93 126 186 238 274 316 384
#
# _framework density 19.67858
#
# number of rings (size 3 to 8) (size 9 to 14) (size 15 to 20)
#    0.000    1.143    2.143    4.286    6.000    1.143 
#    2.571    3.571    0.000    0.000    0.000    0.000 
#    0.000    0.000    0.000    0.000    0.000    0.000 
#
# Total GULP energy -156371.349958 kJ/mol
# GULP energy per Si atom -5584.691070 kJ/mol
# Density = 1.963379 g / cm^3
# Si number density = 19.678580 Si / 1000 Ang^3
#
#
#
# Elastic Constant Matrix: (Units=GPa)
#
#
# Indices 1 2 3 4 5 6 
#
# 1 89.9612 55.9231 45.0085 0.0000 -3.2325 0.0000
# 2 55.9231 149.4009 51.6277 0.0000 3.6706 0.0000
# 3 45.0085 51.6277 92.5436 0.0000 5.1825 0.0000
# 4 0.0000 0.0000 0.0000 32.5530 0.0000 -1.0763
# 5 -3.2325 3.6706 5.1825 0.0000 28.9416 0.0000
# 6 0.0000 0.0000 0.0000 -1.0763 0.0000 -2.7683
#
#
#
# Elastic Compliance Matrix: (Units=1/GPa)
#
#
# Indices 1 2 3 4 5 6 
#
# 1 0.016960 -0.004356 -0.006016 0.000000 0.003524 0.000000
# 2 -0.004356 0.009412 -0.003069 0.000000 -0.001131 0.000000
# 3 -0.006016 -0.003069 0.015616 0.000000 -0.003079 0.000000
# 4 0.000000 0.000000 0.000000 0.030329 0.000000 -0.011792
# 5 0.003524 -0.001131 -0.003079 0.000000 0.035641 0.000000
# 6 0.000000 0.000000 0.000000 -0.011792 0.000000 -0.356654
#
#
# Mechanical properties :
#
#
# Convention : Reuss Voigt Hill
#
# Bulk Modulus (GPa) = 66.19548 70.78048 68.48798
# Shear Modulus (GPa) = -23.06501 23.70170 0.31834
#
# Velocity S-wave (km/s) = -3.42729 3.47427 0.40264
# Velocity P-wave (km/s) = 4.24848 7.22083 5.92411
#
# Compressibility (1/GPa) = 0.01510677
#
# Stress axis : x y z
#
# Youngs Moduli (GPa) = 58.96142 106.24401 64.03709
#
# Poissons Ratio (x) = 0.46282 0.38523
# Poissons Ratio (y) = 0.25685 0.19652
# Poissons Ratio (z) = 0.35469 0.32605
#
# Static dielectric constant tensor:
#      x y z
#    x 1.655340 0.000000 -0.013940 
#    y 0.000000 1.718080 0.000000 
#    z -0.013940 0.000000 1.711690 
# 
# From -- ./inp_files/51615.got.cif
#   From: 2010.05.17/outbox.cif.g08.bks.cpg/sg15_26_cif.got.tgz:51615.got - 2010.06.03 18:47:42.
