data_PCOD9296071
_publ_section_title
;
Structure prediction by ZEFSAII (Michael W. Deem and Ramdas Pophale) SiO2 
 PCOD9296071
Probable space group: C 2/C
;
_chemical_formula_sum "Si O2"
_cell_formula_units_Z 48
_cell_length_a 8.271497
_cell_length_b 14.569514
_cell_length_c 26.468505
_cell_angle_alpha 90.000000
_cell_angle_beta 137.964358
_cell_angle_gamma 90.000000
_cell_volume 2135.843101
_symmetry_space_group_name_H-M "C 2/C"
_symmetry_group_IT_number 15
_symmetry_cell_setting 'monoclinic'
loop_
_space_group_symop_operation_xyz
x,y,z
-x,y,1/2-z
-x,-y,-z
x,-y,1/2+z
1/2+x,1/2+y,z
1/2-x,1/2+y,1/2-z
1/2-x,1/2-y,-z
1/2+x,1/2-y,1/2+z
loop_
_atom_site_type_symbol
_atom_site_label
_atom_site_fract_x
_atom_site_fract_y
_atom_site_fract_z
Si Si1 0.265505 0.344984 0.296185
Si Si2 0.247825 0.941577 0.564044
Si Si3 0.966274 0.758882 0.929767
Si Si4 0.270629 0.342316 0.037554
Si Si5 0.273121 0.511337 0.231990
Si Si6 0.249040 0.809950 0.719159
O O1 0.451213 0.358890 0.384267
O O2 0.327864 0.409531 0.263857
O O3 0.261733 0.240530 0.275855
O O4 0.000000 0.372629 0.250000
O O5 0.158079 0.851350 0.575331
O O6 0.321407 0.917007 0.523224
O O7 0.497790 0.979460 0.646727
O O8 0.000000 0.000000 0.500000
O O9 0.853460 0.676859 0.937305
O O10 0.928141 0.761168 0.860810
O O11 0.250000 0.750000 0.000000
O O12 0.250000 0.250000 0.000000
O O13 0.500000 0.538206 0.250000
O O14 0.292339 0.582899 0.282712
O O15 0.500000 0.797400 0.750000
#
# Coordination Sequence:
#
# PCOD9296071 Si02
#       6
#     8   8   8   8   8   8
#     4  12  26  44  74 102 138 186 238 295 357 432
#     4  11  25  46  69 101 146 184 234 296 359 429
#     4  11  26  42  71 101 138 182 234 289 360 424
#     4  10  23  44  66  98 136 181 229 286 353 422
#     4  12  28  46  72 106 143 190 242 295 363 435
#     4  12  23  46  70 101 143 183 236 295 357 429
#
# _framework density 22.473559999999999
#
# number of rings (size 3 to 8) (size 9 to 14) (size 15 to 20)
#    0.000    0.667    3.333    3.500   11.667    0.000 
#    0.000    1.667    0.000    0.000    0.000    0.000 
#    0.000    0.000    0.000    0.000    0.000    0.000 
#
# Total GULP energy -133989.759927 kJ/mol
# GULP energy per Si atom -5582.906664 kJ/mol
# Density = 2.242241 g / cm^3
# Si number density = 22.473560 Si / 1000 Ang^3
#
#
#
# Elastic Constant Matrix: (Units=GPa)
#
#
# Indices 1 2 3 4 5 6 
#
# 1 48.4381 0.8621 34.0794 0.0000 16.2702 0.0000
# 2 0.8621 49.9720 7.0494 0.0000 -0.3673 0.0000
# 3 34.0794 7.0494 130.2367 0.0001 15.1602 0.0000
# 4 0.0000 0.0000 0.0001 33.0301 0.0000 -11.7641
# 5 16.2702 -0.3673 15.1602 0.0000 34.7124 0.0000
# 6 0.0000 0.0000 0.0000 -11.7641 0.0000 26.7791
#
#
#
# Elastic Compliance Matrix: (Units=1/GPa)
#
#
# Indices 1 2 3 4 5 6 
#
# 1 0.028637 0.000311 -0.006267 0.000000 -0.010682 0.000000
# 2 0.000311 0.020186 -0.001245 0.000000 0.000611 0.000000
# 3 -0.006267 -0.001245 0.009530 0.000000 -0.001238 0.000000
# 4 0.000000 0.000000 0.000000 0.035891 0.000000 0.015767
# 5 -0.010682 0.000611 -0.001238 0.000000 0.034362 0.000000
# 6 0.000000 0.000000 0.000000 0.015767 0.000000 0.044269
#
#
# Mechanical properties :
#
#
# Convention : Reuss Voigt Hill
#
# Bulk Modulus (GPa) = 22.75261 34.73651 28.74456
# Shear Modulus (GPa) = 24.76152 31.34803 28.05478
#
# Velocity S-wave (km/s) = 3.32295 3.73887 3.53703
# Velocity P-wave (km/s) = 4.98686 5.84200 5.43129
#
# Compressibility (1/GPa) = 0.04395099
#
# Stress axis : x y z
#
# Youngs Moduli (GPa) = 34.92037 49.53924 104.93543
#
# Poissons Ratio (x) = -0.01543 0.65761
# Poissons Ratio (y) = -0.01088 0.13068
# Poissons Ratio (z) = 0.21884 0.06169
#
# Static dielectric constant tensor:
#      x y z
#    x 0.462100 0.000000 1.405270 
#    y 0.000000 1.789200 0.000000 
#    z 1.405270 0.000000 0.367690 
# 
# From -- ./inp_files/289140.got.cif
#   From: 2010.05.17/outbox.cif.g08.bks.cpg/sg15_145_cif.got.tgz:289140.got - 2010.06.03 18:47:42.
