data_PCOD9296634
_publ_section_title
;
Structure prediction by ZEFSAII (Michael W. Deem and Ramdas Pophale) SiO2 
 PCOD9296634
Probable space group: C 2/C
;
_chemical_formula_sum "Si O2"
_cell_formula_units_Z 48
_cell_length_a 19.397230
_cell_length_b 11.830505
_cell_length_c 15.234306
_cell_angle_alpha 90.000000
_cell_angle_beta 140.539396
_cell_angle_gamma 90.000000
_cell_volume 2221.844671
_symmetry_space_group_name_H-M "C 2/C"
_symmetry_group_IT_number 15
_symmetry_cell_setting 'monoclinic'
loop_
_space_group_symop_operation_xyz
x,y,z
-x,y,1/2-z
-x,-y,-z
x,-y,1/2+z
1/2+x,1/2+y,z
1/2-x,1/2+y,1/2-z
1/2-x,1/2-y,-z
1/2+x,1/2-y,1/2+z
loop_
_atom_site_type_symbol
_atom_site_label
_atom_site_fract_x
_atom_site_fract_y
_atom_site_fract_z
Si Si1 0.964826 0.049100 0.060318
Si Si2 0.595806 0.906582 0.592843
Si Si3 0.971879 0.714283 0.823713
Si Si4 0.106977 0.855791 0.377716
Si Si5 0.210508 0.240791 0.823756
Si Si6 0.226323 0.606199 0.776307
O O1 0.040053 0.153571 0.163021
O O2 0.946492 0.956299 0.118168
O O3 0.844799 0.100163 0.931949
O O4 0.000000 0.000000 0.000000
O O5 0.568284 0.837418 0.478653
O O6 0.612493 0.817626 0.688812
O O7 0.500000 0.000000 0.500000
O O8 0.700611 0.985069 0.707043
O O9 0.864660 0.643822 0.744148
O O10 0.000000 0.704137 0.750000
O O11 0.165404 0.860861 0.340106
O O12 0.202138 0.807831 0.532586
O O13 0.000000 0.780631 0.250000
O O14 0.273412 0.195560 0.801593
#
# Coordination Sequence:
#
# PCOD9296634 Si02
#       6
#     8   8   8   8   8   8
#     4  12  24  44  74 104 143 186 237 292 363 429
#     4  10  23  45  70  98 136 188 234 282 364 428
#     4  11  26  45  68 102 141 184 242 294 354 436
#     4  11  25  41  67 104 140 174 240 294 353 421
#     4  11  23  45  68 102 136 186 234 293 361 429
#     4  11  24  44  72  97 141 190 234 291 368 416
#
# _framework density 21.603670000000001
#
# number of rings (size 3 to 8) (size 9 to 14) (size 15 to 20)
#    0.000    1.000    3.333    2.500    4.667    2.000 
#    3.000    0.000    0.000    0.000    0.000    0.000 
#    0.000    0.000    0.000    0.000    0.000    0.000 
#
# Total GULP energy -133799.493491 kJ/mol
# GULP energy per Si atom -5574.978895 kJ/mol
# Density = 2.155450 g / cm^3
# Si number density = 21.603670 Si / 1000 Ang^3
#
#
#
# Elastic Constant Matrix: (Units=GPa)
#
#
# Indices 1 2 3 4 5 6 
#
# 1 135.8291 48.8251 50.3288 0.0000 -28.2225 0.0000
# 2 48.8251 101.7173 30.7489 0.0000 -22.0488 0.0000
# 3 50.3288 30.7489 118.6644 0.0000 -20.5298 0.0000
# 4 0.0000 0.0000 0.0000 11.6900 0.0000 -4.3390
# 5 -28.2225 -22.0488 -20.5298 0.0000 35.5287 0.0000
# 6 0.0000 0.0000 0.0000 -4.3390 0.0000 36.1092
#
#
#
# Elastic Compliance Matrix: (Units=1/GPa)
#
#
# Indices 1 2 3 4 5 6 
#
# 1 0.010540 -0.003171 -0.002823 0.000000 0.004773 0.000000
# 2 -0.003171 0.012719 -0.001134 0.000000 0.004719 0.000000
# 3 -0.002823 -0.001134 0.010454 0.000000 0.003094 0.000000
# 4 0.000000 0.000000 0.000000 0.089537 0.000000 0.010759
# 5 0.004773 0.004719 0.003094 0.000000 0.036654 0.000000
# 6 0.000000 0.000000 0.000000 0.010759 0.000000 0.028987
#
#
# Mechanical properties :
#
#
# Convention : Reuss Voigt Hill
#
# Bulk Modulus (GPa) = 51.39834 68.44627 59.92231
# Shear Modulus (GPa) = 23.85132 31.75280 27.80206
#
# Velocity S-wave (km/s) = 3.32631 3.83794 3.59125
# Velocity P-wave (km/s) = 6.21254 7.16877 6.70771
#
# Compressibility (1/GPa) = 0.01945588
#
# Stress axis : x y z
#
# Youngs Moduli (GPa) = 94.87860 78.62126 95.66100
#
# Poissons Ratio (x) = 0.24933 0.27002
# Poissons Ratio (y) = 0.30088 0.10853
# Poissons Ratio (z) = 0.26781 0.08919
#
# Static dielectric constant tensor:
#      x y z
#    x 1.783410 0.000000 0.012750 
#    y 0.000000 1.867330 0.000000 
#    z 0.012750 0.000000 1.860010 
# 
# From -- ./inp_files/167894.got.cif
#   From: 2010.05.17/outbox.cif.g08.bks.cpg/sg15_84_cif.got.tgz:167894.got - 2010.06.03 18:47:42.
