data_PCOD9296207
_publ_section_title
;
Structure prediction by ZEFSAII (Michael W. Deem and Ramdas Pophale) SiO2 
 PCOD9296207
Probable space group: C 2/C
;
_chemical_formula_sum "Si O2"
_cell_formula_units_Z 60
_cell_length_a 7.252175
_cell_length_b 17.025607
_cell_length_c 23.391453
_cell_angle_alpha 90.000000
_cell_angle_beta 90.701875
_cell_angle_gamma 90.000000
_cell_volume 2887.988721
_symmetry_space_group_name_H-M "C 2/C"
_symmetry_group_IT_number 15
_symmetry_cell_setting 'monoclinic'
loop_
_space_group_symop_operation_xyz
x,y,z
-x,y,1/2-z
-x,-y,-z
x,-y,1/2+z
1/2+x,1/2+y,z
1/2-x,1/2+y,1/2-z
1/2-x,1/2-y,-z
1/2+x,1/2-y,1/2+z
loop_
_atom_site_type_symbol
_atom_site_label
_atom_site_fract_x
_atom_site_fract_y
_atom_site_fract_z
Si Si1 0.763844 0.464955 0.915828
Si Si2 0.692303 0.635276 0.958257
Si Si3 0.673814 0.283103 0.059568
Si Si4 0.500000 0.504780 0.250000
Si Si5 0.032047 0.698545 0.635525
Si Si6 0.871406 0.546201 0.798613
Si Si7 0.419232 0.856923 0.570456
Si Si8 0.925311 0.118372 0.356056
O O1 0.715238 0.542724 0.949824
O O2 0.848649 0.493675 0.855240
O O3 0.585456 0.411937 0.900240
O O4 0.928003 0.419725 0.947351
O O5 0.476151 0.651571 0.955481
O O6 0.800671 0.678938 0.907419
O O7 0.790321 0.663180 0.016372
O O8 0.842180 0.309371 0.099440
O O9 0.548558 0.215738 0.088733
O O10 0.750000 0.250000 0.000000
O O11 0.332733 0.451217 0.228228
O O12 0.441330 0.562187 0.301484
O O13 0.049791 0.630891 0.682874
O O14 0.043483 0.788898 0.655624
O O15 0.000000 0.510744 0.750000
O O16 0.277083 0.886972 0.617120
#
# Coordination Sequence:
#
# PCOD9296207 Si02
#       8
#     8   8   8   4   8   8   8   8
#     4  10  24  41  63  96 132 167 217 269 330 380
#     4  11  24  40  63  97 133 176 220 265 312 388
#     4  12  23  40  65  95 137 181 213 266 321 383
#     4  10  24  46  70  92 128 162 214 278 342 378
#     4  11  23  41  67  99 131 170 221 264 325 395
#     4  10  23  44  69  93 127 166 215 273 331 392
#     4  12  22  39  66  94 133 176 220 259 322 387
#     4  11  23  42  67  94 129 168 212 275 327 389
#
# _framework density 20.775703
#
# number of rings (size 3 to 8) (size 9 to 14) (size 15 to 20)
#    0.000    1.067    4.000    2.400    0.933    5.867 
#    0.000    0.000    1.467    0.000    0.000    0.000 
#    0.000    0.000    0.000    0.000    0.000    0.000 
#
# Total GULP energy -167694.367332 kJ/mol
# GULP energy per Si atom -5589.812244 kJ/mol
# Density = 2.072842 g / cm^3
# Si number density = 20.775703 Si / 1000 Ang^3
#
#
#
# Elastic Constant Matrix: (Units=GPa)
#
#
# Indices 1 2 3 4 5 6 
#
# 1 142.9121 47.7354 32.8677 0.0000 9.8908 0.0000
# 2 47.7354 100.0252 1.8236 0.0000 12.8979 0.0000
# 3 32.8677 1.8236 56.1335 0.0000 7.2595 0.0000
# 4 0.0000 0.0000 0.0000 -2.8165 0.0000 3.1579
# 5 9.8908 12.8979 7.2595 0.0000 36.5430 0.0000
# 6 0.0000 0.0000 0.0000 3.1579 0.0000 44.6433
#
#
#
# Elastic Compliance Matrix: (Units=1/GPa)
#
#
# Indices 1 2 3 4 5 6 
#
# 1 0.009816 -0.004592 -0.005608 0.000000 0.000078 0.000000
# 2 -0.004592 0.012624 0.002765 0.000000 -0.003762 0.000000
# 3 -0.005608 0.002765 0.021491 0.000000 -0.003727 0.000000
# 4 0.000000 0.000000 0.000000 -0.328957 0.000000 0.023269
# 5 0.000078 -0.003762 -0.003727 0.000000 0.029412 0.000000
# 6 0.000000 0.000000 0.000000 0.023269 0.000000 0.020754
#
#
# Mechanical properties :
#
#
# Convention : Reuss Voigt Hill
#
# Bulk Modulus (GPa) = 34.41195 51.54711 42.97953
# Shear Modulus (GPa) = -23.77509 30.11690 3.17091
#
# Velocity S-wave (km/s) = -3.38652 3.81152 1.23676
# Velocity P-wave (km/s) = 1.14373 6.65097 4.77197
#
# Compressibility (1/GPa) = 0.02905967
#
# Stress axis : x y z
#
# Youngs Moduli (GPa) = 101.87892 79.21611 46.53183
#
# Poissons Ratio (x) = 0.36377 0.26096
# Poissons Ratio (y) = 0.46784 -0.12867
# Poissons Ratio (z) = 0.57136 -0.21905
#
# Static dielectric constant tensor:
#      x y z
#    x 1.725290 0.000000 -0.017250 
#    y 0.000000 1.776780 0.000000 
#    z -0.017250 0.000000 1.734840 
# 
# From -- ./inp_files/286075.got.cif
#   From: 2010.05.17/outbox.cif.g08.bks.cpg/sg15_144_cif.got.tgz:286075.got - 2010.06.03 18:47:42.
