data_PCOD9296770
_publ_section_title
;
Structure prediction by ZEFSAII (Michael W. Deem and Ramdas Pophale) SiO2 
 PCOD9296770
Probable space group: C 2/C
;
_chemical_formula_sum "Si O2"
_cell_formula_units_Z 60
_cell_length_a 26.085155
_cell_length_b 7.865496
_cell_length_c 23.619943
_cell_angle_alpha 90.000000
_cell_angle_beta 32.851466
_cell_angle_gamma 90.000000
_cell_volume 2628.866476
_symmetry_space_group_name_H-M "C 2/C"
_symmetry_group_IT_number 15
_symmetry_cell_setting 'monoclinic'
loop_
_space_group_symop_operation_xyz
x,y,z
-x,y,1/2-z
-x,-y,-z
x,-y,1/2+z
1/2+x,1/2+y,z
1/2-x,1/2+y,1/2-z
1/2-x,1/2-y,-z
1/2+x,1/2-y,1/2+z
loop_
_atom_site_type_symbol
_atom_site_label
_atom_site_fract_x
_atom_site_fract_y
_atom_site_fract_z
Si Si1 0.001972 0.221063 0.835328
Si Si2 0.387649 0.318170 0.647750
Si Si3 0.938044 0.042209 0.994989
Si Si4 0.349451 0.195291 0.381811
Si Si5 0.801089 0.274166 0.615845
Si Si6 0.517365 0.074989 0.604730
Si Si7 0.314511 0.799619 0.388981
Si Si8 0.000000 0.719712 0.750000
O O1 0.947028 0.076653 0.920034
O O2 0.927594 0.283022 0.857626
O O3 0.014316 0.380876 0.865456
O O4 0.104667 0.197014 0.712138
O O5 0.453251 0.486441 0.594203
O O6 0.404164 0.300195 0.565007
O O7 0.277489 0.329532 0.765520
O O8 0.441529 0.185134 0.638974
O O9 0.862766 0.891625 0.074694
O O10 0.250000 0.250000 0.500000
O O11 0.343770 0.998104 0.367603
O O12 0.881478 0.402785 0.519333
O O13 0.737044 0.230694 0.621183
O O14 0.525138 0.133778 0.664337
O O15 0.250000 0.750000 0.500000
O O16 0.407279 0.687171 0.315041
#
# Coordination Sequence:
#
# PCOD9296770 Si02
#       8
#     8   8   8   8   8   8   8   4
#     4  11  21  41  59  88 129 159 203 258 304 379
#     4  10  23  46  64  88 125 161 213 271 308 370
#     4  10  25  43  65  93 121 163 214 260 318 374
#     4  11  22  38  56  89 127 163 195 248 317 371
#     4  11  22  40  65  92 124 165 212 261 314 374
#     4  11  21  38  65  90 127 168 205 255 320 372
#     4  12  21  36  61  92 123 163 209 252 304 380
#     4  12  18  38  60  94 130 162 202 256 312 372
#
# _framework density 22.823526000000001
#
# number of rings (size 3 to 8) (size 9 to 14) (size 15 to 20)
#    0.000    1.067    5.333    0.800    0.000    3.733 
#    0.000    9.333    0.000    0.000    0.000    0.000 
#    0.000    0.000    0.000    0.000    0.000    0.000 
#
# Total GULP energy -167174.005312 kJ/mol
# GULP energy per Si atom -5572.466844 kJ/mol
# Density = 2.277158 g / cm^3
# Si number density = 22.823526 Si / 1000 Ang^3
#
#
#
# Elastic Constant Matrix: (Units=GPa)
#
#
# Indices 1 2 3 4 5 6 
#
# 1 55.0560 4.7158 32.9064 0.0064 -9.8951 -0.0025
# 2 4.7158 45.7771 44.5967 0.0084 3.0712 -0.0067
# 3 32.9064 44.5967 237.6556 0.0039 -16.4601 -0.0024
# 4 0.0064 0.0084 0.0039 29.2402 -0.0007 -0.6625
# 5 -9.8951 3.0712 -16.4601 -0.0007 40.7506 0.0017
# 6 -0.0025 -0.0067 -0.0024 -0.6625 0.0017 18.0175
#
#
#
# Elastic Compliance Matrix: (Units=1/GPa)
#
#
# Indices 1 2 3 4 5 6 
#
# 1 0.020394 0.000154 -0.002583 -0.000004 0.003897 0.000002
# 2 0.000154 0.027436 -0.005463 -0.000007 -0.004237 0.000010
# 3 -0.002583 -0.005463 0.005736 0.000001 0.002102 -0.000002
# 4 -0.000004 -0.000007 0.000001 0.034228 0.000001 0.001259
# 5 0.003897 -0.004237 0.002102 0.000001 0.026654 -0.000003
# 6 0.000002 0.000010 -0.000002 0.001259 -0.000003 0.055548
#
#
# Mechanical properties :
#
#
# Convention : Reuss Voigt Hill
#
# Bulk Modulus (GPa) = 26.46773 55.88071 41.17422
# Shear Modulus (GPa) = 25.20489 34.68631 29.94560
#
# Velocity S-wave (km/s) = 3.32676 3.90264 3.62615
# Velocity P-wave (km/s) = 5.13598 6.69660 5.96753
#
# Compressibility (1/GPa) = 0.03778186
#
# Stress axis : x y z
#
# Youngs Moduli (GPa) = 49.03325 36.44886 174.33408
#
# Poissons Ratio (x) = -0.00560 0.45027
# Poissons Ratio (y) = -0.00754 0.95241
# Poissons Ratio (z) = 0.12664 0.19913
#
# Static dielectric constant tensor:
#      x y z
#    x 1.928260 0.000000 0.071900 
#    y 0.000000 1.969290 0.000010 
#    z 0.071900 0.000010 1.926450 
# 
# From -- ./inp_files/284276.got.cif
#   From: 2010.05.17/outbox.cif.g08.bks.cpg/sg15_143_cif.got.tgz:284276.got - 2010.06.03 18:47:42.
