data_PCOD9296111
_publ_section_title
;
Structure prediction by ZEFSAII (Michael W. Deem and Ramdas Pophale) SiO2 
 PCOD9296111
Probable space group: C 2/C
;
_chemical_formula_sum "Si O2"
_cell_formula_units_Z 44
_cell_length_a 23.900903
_cell_length_b 15.378204
_cell_length_c 5.105298
_cell_angle_alpha 90.000000
_cell_angle_beta 76.364344
_cell_angle_gamma 90.000000
_cell_volume 1823.578193
_symmetry_space_group_name_H-M "C 2/C"
_symmetry_group_IT_number 15
_symmetry_cell_setting 'monoclinic'
loop_
_space_group_symop_operation_xyz
x,y,z
-x,y,1/2-z
-x,-y,-z
x,-y,1/2+z
1/2+x,1/2+y,z
1/2-x,1/2+y,1/2-z
1/2-x,1/2-y,-z
1/2+x,1/2-y,1/2+z
loop_
_atom_site_type_symbol
_atom_site_label
_atom_site_fract_x
_atom_site_fract_y
_atom_site_fract_z
Si Si1 0.114455 0.171987 0.032886
Si Si2 0.367676 0.054108 0.097455
Si Si3 0.196898 0.304811 0.158568
Si Si4 0.462201 0.183693 0.037976
Si Si5 0.000000 0.061608 0.250000
Si Si6 0.221043 0.062753 0.691754
O O1 0.146040 0.231855 0.221865
O O2 0.161902 0.113672 0.830683
O O3 0.060011 0.115619 0.188330
O O4 0.086229 0.243073 0.870825
O O5 0.430592 0.095109 0.999999
O O6 0.361912 0.024666 0.401057
O O7 0.325199 0.126618 0.032025
O O8 0.250000 0.250000 0.000000
O O9 0.227972 0.365437 0.340892
O O10 0.500000 0.174218 0.250000
O O11 0.500000 0.210924 0.750000
O O12 0.000000 0.000000 0.500000
O O13 0.224301 0.988072 0.913730
#
# Coordination Sequence:
#
# PCOD9296111 Si02
#       6
#     8   8   8   8   4   8
#     4  10  23  44  67  98 136 176 223 272 332 404
#     4  11  23  41  64  94 129 168 219 277 329 385
#     4   9  21  43  68  97 131 176 220 272 339 402
#     4  11  24  41  64  91 130 178 220 265 325 391
#     4  12  26  44  68  98 134 178 220 272 330 390
#     4  11  23  43  69  99 133 170 221 278 335 395
#
# _framework density 24.128385999999999
#
# number of rings (size 3 to 8) (size 9 to 14) (size 15 to 20)
#    0.000    1.455    0.909    3.273    1.273    3.636 
#    0.000   23.636    0.000    0.000    0.000    0.000 
#    0.000    0.000    0.000    0.000    0.000    0.000 
#
# Total GULP energy -123006.782435 kJ/mol
# GULP energy per Si atom -5591.217383 kJ/mol
# Density = 2.407347 g / cm^3
# Si number density = 24.128386 Si / 1000 Ang^3
#
#
#
# Elastic Constant Matrix: (Units=GPa)
#
#
# Indices 1 2 3 4 5 6 
#
# 1 149.3018 41.6016 9.9083 0.0000 -7.7655 0.0000
# 2 41.6016 78.3687 -6.7206 0.0000 -20.8067 0.0000
# 3 9.9083 -6.7206 72.2934 0.0000 -6.1990 0.0000
# 4 0.0000 0.0000 0.0000 -7.0747 0.0000 -21.5046
# 5 -7.7655 -20.8067 -6.1990 0.0000 20.4920 0.0000
# 6 0.0000 0.0000 0.0000 -21.5046 0.0000 86.7526
#
#
#
# Elastic Compliance Matrix: (Units=1/GPa)
#
#
# Indices 1 2 3 4 5 6 
#
# 1 0.008126 -0.005203 -0.001834 0.000000 -0.002759 0.000000
# 2 -0.005203 0.021568 0.004545 0.000000 0.021302 0.000000
# 3 -0.001834 0.004545 0.015238 0.000000 0.008529 0.000000
# 4 0.000000 0.000000 0.000000 -0.080611 0.000000 -0.019982
# 5 -0.002759 0.021302 0.008529 0.000000 0.071963 0.000000
# 6 0.000000 0.000000 0.000000 -0.019982 0.000000 0.006574
#
#
# Mechanical properties :
#
#
# Convention : Reuss Voigt Hill
#
# Bulk Modulus (GPa) = 25.03367 43.28250 34.15808
# Shear Modulus (GPa) = 81.75495 37.04562 59.40029
#
# Velocity S-wave (km/s) = 5.82725 3.92261 4.96708
# Velocity P-wave (km/s) = 7.46147 6.20429 6.86173
#
# Compressibility (1/GPa) = 0.03994621
#
# Stress axis : x y z
#
# Youngs Moduli (GPa) = 123.06303 46.36572 65.62665
#
# Poissons Ratio (x) = 0.24125 0.12036
# Poissons Ratio (y) = 0.64033 -0.29825
# Poissons Ratio (z) = 0.22569 -0.21072
#
# Static dielectric constant tensor:
#      x y z
#    x 1.942140 0.000000 0.004730 
#    y 0.000000 1.853060 0.000000 
#    z 0.004730 0.000000 1.955540 
# 
# From -- ./inp_files/15101.got.cif
#   From: 2010.05.17/outbox.cif.g08.bks.cpg/sg15_8_cif.got.tgz:15101.got - 2010.06.03 18:47:42.
