data_PCOD9296416
_publ_section_title
;
Structure prediction by ZEFSAII (Michael W. Deem and Ramdas Pophale) SiO2 
 PCOD9296416
Probable space group: C 2/C
;
_chemical_formula_sum "Si O2"
_cell_formula_units_Z 40
_cell_length_a 9.450807
_cell_length_b 16.970721
_cell_length_c 11.179624
_cell_angle_alpha 90.000000
_cell_angle_beta 95.872388
_cell_angle_gamma 90.000000
_cell_volume 1783.656870
_symmetry_space_group_name_H-M "C 2/C"
_symmetry_group_IT_number 15
_symmetry_cell_setting 'monoclinic'
loop_
_space_group_symop_operation_xyz
x,y,z
-x,y,1/2-z
-x,-y,-z
x,-y,1/2+z
1/2+x,1/2+y,z
1/2-x,1/2+y,1/2-z
1/2-x,1/2-y,-z
1/2+x,1/2-y,1/2+z
loop_
_atom_site_type_symbol
_atom_site_label
_atom_site_fract_x
_atom_site_fract_y
_atom_site_fract_z
Si Si1 0.500000 0.631310 0.250000
Si Si2 0.122800 0.118197 0.672688
Si Si3 0.146307 0.372588 0.109548
Si Si4 0.917432 0.236479 0.029617
Si Si5 0.500000 0.002636 0.250000
Si Si6 0.224106 0.045473 0.104323
O O1 0.421094 0.686655 0.150519
O O2 0.603023 0.581710 0.175498
O O3 0.747570 0.092480 0.514733
O O4 0.252749 0.148711 0.768086
O O5 0.050724 0.184205 0.584620
O O6 0.185090 0.047651 0.595067
O O7 0.500000 0.413217 0.250000
O O8 0.034928 0.305805 0.056495
O O9 0.053406 0.445850 0.148961
O O10 0.750000 0.250000 0.000000
O O11 0.369901 0.052012 0.190483
#
# Coordination Sequence:
#
# PCOD9296416 Si02
#       6
#     4   8   8   8   4   8
#     4  12  27  44  72 109 146 188 252 304 368 451
#     4  11  25  45  75 105 148 194 249 308 374 432
#     4  11  25  48  73 108 149 194 252 301 375 455
#     4  12  27  45  72 103 151 197 241 314 377 442
#     4  10  23  44  74 105 144 190 252 304 370 439
#     4  11  25  44  75 107 147 193 252 307 367 448
#
# _framework density 22.425837000000001
#
# number of rings (size 3 to 8) (size 9 to 14) (size 15 to 20)
#    0.000    0.800    1.000    6.000    8.400    6.400 
#    0.000    0.000    0.000    0.000    0.000    0.000 
#    0.000    0.000    0.000    0.000    0.000    0.000 
#
# Total GULP energy -111810.250702 kJ/mol
# GULP energy per Si atom -5590.512535 kJ/mol
# Density = 2.237479 g / cm^3
# Si number density = 22.425837 Si / 1000 Ang^3
#
#
#
# Elastic Constant Matrix: (Units=GPa)
#
#
# Indices 1 2 3 4 5 6 
#
# 1 114.1394 34.9842 47.7129 0.0000 -7.9740 0.0000
# 2 34.9842 75.1146 80.1496 0.0000 2.8978 0.0000
# 3 47.7129 80.1496 146.0517 0.0000 10.7616 0.0000
# 4 0.0000 0.0000 0.0000 32.2216 0.0000 -0.9779
# 5 -7.9740 2.8978 10.7616 0.0000 54.8982 0.0000
# 6 0.0000 0.0000 0.0000 -0.9779 0.0000 41.0140
#
#
#
# Elastic Compliance Matrix: (Units=1/GPa)
#
#
# Indices 1 2 3 4 5 6 
#
# 1 0.010643 -0.002805 -0.002092 0.000000 0.002104 0.000000
# 2 -0.002805 0.033036 -0.017304 0.000000 0.001241 0.000000
# 3 -0.002092 -0.017304 0.017230 0.000000 -0.002768 0.000000
# 4 0.000000 0.000000 0.000000 0.031058 0.000000 0.000741
# 5 0.002104 0.001241 -0.002768 0.000000 0.018998 0.000000
# 6 0.000000 0.000000 0.000000 0.000741 0.000000 0.024400
#
#
# Mechanical properties :
#
#
# Convention : Reuss Voigt Hill
#
# Bulk Modulus (GPa) = 60.58683 73.44432 67.01558
# Shear Modulus (GPa) = 26.98764 37.12403 32.05584
#
# Velocity S-wave (km/s) = 3.47279 4.07309 3.78486
# Velocity P-wave (km/s) = 6.56929 7.41222 7.00345
#
# Compressibility (1/GPa) = 0.01650524
#
# Stress axis : x y z
#
# Youngs Moduli (GPa) = 93.96104 30.27018 58.03663
#
# Poissons Ratio (x) = 0.08492 0.12143
# Poissons Ratio (y) = 0.26360 1.00428
# Poissons Ratio (z) = 0.19660 0.52380
#
# Static dielectric constant tensor:
#      x y z
#    x 1.871230 0.000000 0.013770 
#    y 0.000000 1.857750 0.000000 
#    z 0.013770 0.000000 1.929740 
# 
# From -- ./inp_files/134634.got.cif
#   From: 2010.05.17/outbox.cif.g08.bks.cpg/sg15_68_cif.got.tgz:134634.got - 2010.06.03 18:47:42.
