data_PCOD9296061
_publ_section_title
;
Structure prediction by ZEFSAII (Michael W. Deem and Ramdas Pophale) SiO2 
 PCOD9296061
Probable space group: C 2/C
;
_chemical_formula_sum "Si O2"
_cell_formula_units_Z 48
_cell_length_a 10.773674
_cell_length_b 22.342034
_cell_length_c 9.055824
_cell_angle_alpha 90.000000
_cell_angle_beta 81.283810
_cell_angle_gamma 90.000000
_cell_volume 2154.615122
_symmetry_space_group_name_H-M "C 2/C"
_symmetry_group_IT_number 15
_symmetry_cell_setting 'monoclinic'
loop_
_space_group_symop_operation_xyz
x,y,z
-x,y,1/2-z
-x,-y,-z
x,-y,1/2+z
1/2+x,1/2+y,z
1/2-x,1/2+y,1/2-z
1/2-x,1/2-y,-z
1/2+x,1/2-y,1/2+z
loop_
_atom_site_type_symbol
_atom_site_label
_atom_site_fract_x
_atom_site_fract_y
_atom_site_fract_z
Si Si1 0.027028 0.323946 0.073216
Si Si2 0.183996 0.440555 0.004451
Si Si3 0.888489 0.901651 0.174302
Si Si4 0.633775 0.044980 0.192153
Si Si5 0.011196 0.189133 0.419791
Si Si6 0.745265 0.853711 0.482716
O O1 0.129223 0.373192 0.007490
O O2 0.000000 0.336646 0.250000
O O3 0.056019 0.253675 0.056346
O O4 0.895523 0.330405 0.011894
O O5 0.306650 0.442757 0.083503
O O6 0.095407 0.485563 0.110200
O O7 0.198316 0.464518 0.837652
O O8 0.801427 0.868461 0.311076
O O9 0.000000 0.930325 0.250000
O O10 0.948331 0.854503 0.049502
O O11 0.500000 0.076311 0.250000
O O12 0.724378 0.084812 0.075870
O O13 0.157865 0.187661 0.443552
O O14 0.000000 0.170235 0.250000
#
# Coordination Sequence:
#
# PCOD9296061 Si02
#       6
#     8   8   8   8   8   8
#     4  11  22  40  67  98 134 177 221 279 339 397
#     4  12  24  43  67 100 137 175 226 277 343 401
#     4  10  23  44  68  95 138 182 223 277 335 403
#     4  12  25  41  69 102 136 174 222 283 339 402
#     4  10  23  44  66  96 135 182 226 273 329 404
#     4  11  22  44  64 100 136 174 226 277 337 400
#
# _framework density 22.277761999999999
#
# number of rings (size 3 to 8) (size 9 to 14) (size 15 to 20)
#    0.000    1.000    3.333    3.500    0.000    0.667 
#   12.000    8.333    0.000    0.000    0.000    0.000 
#    0.000    0.000    0.000    0.000    0.000    0.000 
#
# Total GULP energy -134046.661658 kJ/mol
# GULP energy per Si atom -5585.277569 kJ/mol
# Density = 2.222706 g / cm^3
# Si number density = 22.277762 Si / 1000 Ang^3
#
#
#
# Elastic Constant Matrix: (Units=GPa)
#
#
# Indices 1 2 3 4 5 6 
#
# 1 79.7665 12.6296 40.6372 0.0000 22.1435 0.0000
# 2 12.6296 61.2221 34.2019 0.0000 2.8131 0.0000
# 3 40.6372 34.2019 161.8749 0.0000 23.6906 0.0000
# 4 0.0000 0.0000 0.0000 24.9957 0.0000 0.2487
# 5 22.1435 2.8131 23.6906 0.0000 41.1956 0.0000
# 6 0.0000 0.0000 0.0000 0.2487 0.0000 21.7506
#
#
#
# Elastic Compliance Matrix: (Units=1/GPa)
#
#
# Indices 1 2 3 4 5 6 
#
# 1 0.016090 -0.001489 -0.002701 0.000000 -0.006994 0.000000
# 2 -0.001489 0.018702 -0.003830 0.000000 0.001726 0.000000
# 3 -0.002701 -0.003830 0.008096 0.000000 -0.002942 0.000000
# 4 0.000000 0.000000 0.000000 0.040012 0.000000 -0.000458
# 5 -0.006994 0.001726 -0.002942 0.000000 0.029608 0.000000
# 6 0.000000 0.000000 0.000000 -0.000458 0.000000 0.045981
#
#
# Mechanical properties :
#
#
# Convention : Reuss Voigt Hill
#
# Bulk Modulus (GPa) = 37.24866 53.08899 45.16882
# Shear Modulus (GPa) = 27.25148 31.94804 29.59976
#
# Velocity S-wave (km/s) = 3.50131 3.79103 3.64904
# Velocity P-wave (km/s) = 5.75343 6.56085 6.17036
#
# Compressibility (1/GPa) = 0.02684660
#
# Stress axis : x y z
#
# Youngs Moduli (GPa) = 62.15092 53.47149 123.52471
#
# Poissons Ratio (x) = 0.07961 0.33365
# Poissons Ratio (y) = 0.09253 0.47312
# Poissons Ratio (z) = 0.16788 0.20481
#
# Static dielectric constant tensor:
#      x y z
#    x 1.883410 0.000000 0.007490 
#    y 0.000000 1.847300 0.000000 
#    z 0.007490 0.000000 1.795480 
# 
# From -- ./inp_files/32049.got.cif
#   From: 2010.05.17/outbox.cif.g08.bks.cpg/sg15_17_cif.got.tgz:32049.got - 2010.06.03 18:47:42.
