data_PCOD9296973
_publ_section_title
;
Structure prediction by ZEFSAII (Michael W. Deem and Ramdas Pophale) SiO2 
 PCOD9296973
Probable space group: C 2/C
;
_chemical_formula_sum "Si O2"
_cell_formula_units_Z 40
_cell_length_a 17.181878
_cell_length_b 13.929600
_cell_length_c 9.334740
_cell_angle_alpha 90.000000
_cell_angle_beta 135.584789
_cell_angle_gamma 90.000000
_cell_volume 1563.573598
_symmetry_space_group_name_H-M "C 2/C"
_symmetry_group_IT_number 15
_symmetry_cell_setting 'monoclinic'
loop_
_space_group_symop_operation_xyz
x,y,z
-x,y,1/2-z
-x,-y,-z
x,-y,1/2+z
1/2+x,1/2+y,z
1/2-x,1/2+y,1/2-z
1/2-x,1/2-y,-z
1/2+x,1/2-y,1/2+z
loop_
_atom_site_type_symbol
_atom_site_label
_atom_site_fract_x
_atom_site_fract_y
_atom_site_fract_z
Si Si1 0.688492 0.816594 0.701442
Si Si2 0.500000 0.349715 0.750000
Si Si3 0.305113 0.621967 0.646546
Si Si4 0.500000 0.285349 0.250000
Si Si5 0.768370 0.912927 0.532186
Si Si6 0.058271 0.679808 0.606491
O O1 0.696969 0.701859 0.733294
O O2 0.754859 0.838597 0.645661
O O3 0.565787 0.863075 0.532067
O O4 0.734280 0.851236 0.912889
O O5 0.385795 0.411527 0.599577
O O6 0.537701 0.274991 0.676171
O O7 0.427931 0.643006 0.749789
O O8 0.272240 0.513044 0.625227
O O9 0.561315 0.215603 0.444905
O O10 0.841561 0.612480 0.706869
#
# Coordination Sequence:
#
# PCOD9296973 Si02
#       6
#     8   4   8   4   8   8
#     4  10  23  49  74 109 156 200 250 319 386 446
#     4  12  25  42  78 111 154 198 255 324 373 446
#     4  10  24  45  78 111 153 202 254 318 385 453
#     4  10  23  46  76 111 152 206 255 322 383 438
#     4  12  25  47  80 114 148 204 264 307 382 472
#     4  11  24  46  78 106 157 206 246 313 387 454
#
# _framework density 25.582419999999999
#
# number of rings (size 3 to 8) (size 9 to 14) (size 15 to 20)
#    0.000    1.200    2.000    2.400    2.800    4.000 
#    7.200    7.000    0.000    1.200    0.000    0.000 
#    0.000    0.000    0.000    0.000    0.000    0.000 
#
# Total GULP energy -111566.892839 kJ/mol
# GULP energy per Si atom -5578.344642 kJ/mol
# Density = 2.552419 g / cm^3
# Si number density = 25.582420 Si / 1000 Ang^3
#
#
#
# Elastic Constant Matrix: (Units=GPa)
#
#
# Indices 1 2 3 4 5 6 
#
# 1 179.6416 67.6991 51.6478 0.0000 21.8013 0.0000
# 2 67.6991 135.3491 57.4479 0.0000 1.2403 0.0000
# 3 51.6478 57.4479 108.8004 0.0000 22.8242 0.0000
# 4 0.0000 0.0000 0.0000 30.4104 0.0000 -8.6872
# 5 21.8013 1.2403 22.8242 0.0000 55.5922 0.0000
# 6 0.0000 0.0000 0.0000 -8.6872 0.0000 26.2543
#
#
#
# Elastic Compliance Matrix: (Units=1/GPa)
#
#
# Indices 1 2 3 4 5 6 
#
# 1 0.007410 -0.003085 -0.001415 0.000000 -0.002256 0.000000
# 2 -0.003085 0.011020 -0.004986 0.000000 0.003011 0.000000
# 3 -0.001415 -0.004986 0.013520 0.000000 -0.004885 0.000000
# 4 0.000000 0.000000 0.000000 0.036316 0.000000 0.012017
# 5 -0.002256 0.003011 -0.004885 0.000000 0.020811 0.000000
# 6 0.000000 0.000000 0.000000 0.012017 0.000000 0.042065
#
#
# Mechanical properties :
#
#
# Convention : Reuss Voigt Hill
#
# Bulk Modulus (GPa) = 77.05421 86.37564 81.71493
# Shear Modulus (GPa) = 32.37481 38.91779 35.64630
#
# Velocity S-wave (km/s) = 3.56126 3.90458 3.73686
# Velocity P-wave (km/s) = 6.86261 7.35966 7.11548
#
# Compressibility (1/GPa) = 0.01297788
#
# Stress axis : x y z
#
# Youngs Moduli (GPa) = 134.95431 90.74465 73.96253
#
# Poissons Ratio (x) = 0.27994 0.10469
# Poissons Ratio (y) = 0.41632 0.36877
# Poissons Ratio (z) = 0.19101 0.45244
#
# Static dielectric constant tensor:
#      x y z
#    x 2.101640 0.000000 0.068180 
#    y 0.000000 2.115300 0.000000 
#    z 0.068180 0.000000 2.173060 
# 
# From -- ./inp_files/105044.got.cif
#   From: 2010.05.17/outbox.cif.g08.bks.cpg/sg15_53_cif.got.tgz:105044.got - 2010.06.03 18:47:42.
