data_PCOD9296332
_publ_section_title
;
Structure prediction by ZEFSAII (Michael W. Deem and Ramdas Pophale) SiO2 
 PCOD9296332
Probable space group: C 2/C
;
_chemical_formula_sum "Si O2"
_cell_formula_units_Z 48
_cell_length_a 22.616566
_cell_length_b 5.184654
_cell_length_c 20.673414
_cell_angle_alpha 90.000000
_cell_angle_beta 50.413725
_cell_angle_gamma 90.000000
_cell_volume 1868.206141
_symmetry_space_group_name_H-M "C 2/C"
_symmetry_group_IT_number 15
_symmetry_cell_setting 'monoclinic'
loop_
_space_group_symop_operation_xyz
x,y,z
-x,y,1/2-z
-x,-y,-z
x,-y,1/2+z
1/2+x,1/2+y,z
1/2-x,1/2+y,1/2-z
1/2-x,1/2-y,-z
1/2+x,1/2-y,1/2+z
loop_
_atom_site_type_symbol
_atom_site_label
_atom_site_fract_x
_atom_site_fract_y
_atom_site_fract_z
Si Si1 0.831630 0.708164 0.974724
Si Si2 0.908731 0.424194 0.806280
Si Si3 0.598173 0.596936 0.495638
Si Si4 0.057289 0.240297 0.908349
Si Si5 0.805805 0.474847 0.134838
Si Si6 0.866117 0.932936 0.754507
O O1 0.875697 0.514043 0.897887
O O2 0.750000 0.750000 0.000000
O O3 0.815807 0.608905 0.057803
O O4 0.877857 0.972537 0.953925
O O5 0.873239 0.160422 0.803242
O O6 0.000000 0.396447 0.750000
O O7 0.887351 0.660963 0.772259
O O8 0.530970 0.812369 0.544322
O O9 0.560885 0.376568 0.477432
O O10 0.672104 0.686853 0.402889
O O11 0.128129 0.439892 0.860877
O O12 0.076781 0.024535 0.841502
O O13 0.720053 0.546407 0.214163
#
# Coordination Sequence:
#
# PCOD9296332 Si02
#       6
#     8   8   8   8   8   8
#     4  11  23  44  69 101 140 183 238 291 348 428
#     4  12  28  47  72 105 145 190 238 293 359 422
#     4  10  23  44  71  99 136 189 239 291 354 420
#     4  10  25  44  68 102 141 182 242 290 358 422
#     4  11  25  41  74  98 139 185 235 294 357 417
#     4  12  28  45  72 107 144 188 238 295 360 422
#
# _framework density 25.693093000000001
#
# number of rings (size 3 to 8) (size 9 to 14) (size 15 to 20)
#    0.000    1.000    1.667    3.000   11.667    1.333 
#    0.000    0.000    0.000    0.000    0.000    0.000 
#    0.000    0.000    0.000    0.000    0.000    0.000 
#
# Total GULP energy -134341.883204 kJ/mol
# GULP energy per Si atom -5597.578467 kJ/mol
# Density = 2.563461 g / cm^3
# Si number density = 25.693093 Si / 1000 Ang^3
#
#
#
# Elastic Constant Matrix: (Units=GPa)
#
#
# Indices 1 2 3 4 5 6 
#
# 1 144.5015 41.5437 11.0382 -0.0784 -15.9956 0.0349
# 2 41.5437 86.3043 -15.4202 0.0503 9.5326 0.1482
# 3 11.0382 -15.4202 78.3287 -0.0406 -4.7993 0.0408
# 4 -0.0784 0.0503 -0.0406 28.8344 0.0353 2.3896
# 5 -15.9956 9.5326 -4.7993 0.0353 54.7078 -0.0306
# 6 0.0349 0.1482 0.0408 2.3896 -0.0306 36.9630
#
#
#
# Elastic Compliance Matrix: (Units=1/GPa)
#
#
# Indices 1 2 3 4 5 6 
#
# 1 0.008877 -0.005000 -0.002034 0.000025 0.003288 0.000015
# 2 -0.005000 0.015024 0.003431 -0.000025 -0.003779 -0.000061
# 3 -0.002034 0.003431 0.013729 0.000010 0.000012 -0.000028
# 4 0.000025 -0.000025 0.000010 0.034868 -0.000011 -0.002254
# 5 0.003288 -0.003779 0.000012 -0.000011 0.019900 0.000029
# 6 0.000015 -0.000061 -0.000028 -0.002254 0.000029 0.027200
#
#
# Mechanical properties :
#
#
# Convention : Reuss Voigt Hill
#
# Bulk Modulus (GPa) = 32.86749 42.60643 37.73696
# Shear Modulus (GPa) = 36.51085 42.23255 39.37170
#
# Velocity S-wave (km/s) = 3.77375 4.05869 3.91882
# Velocity P-wave (km/s) = 5.63989 6.21151 5.93259
#
# Compressibility (1/GPa) = 0.03042520
#
# Stress axis : x y z
#
# Youngs Moduli (GPa) = 112.64931 66.55984 72.83608
#
# Poissons Ratio (x) = 0.33278 0.14813
# Poissons Ratio (y) = 0.56322 -0.24988
# Poissons Ratio (z) = 0.22910 -0.22835
#
# Static dielectric constant tensor:
#      x y z
#    x 1.856170 -0.000470 0.144420 
#    y -0.000470 2.226710 0.000670 
#    z 0.144420 0.000670 1.818520 
# 
# From -- ./inp_files/278843.got.cif
#   From: 2010.05.17/outbox.cif.g08.bks.cpg/sg15_140_cif.got.tgz:278843.got - 2010.06.03 18:47:42.
