data_PCOD9296194
_publ_section_title
;
Structure prediction by ZEFSAII (Michael W. Deem and Ramdas Pophale) SiO2 
 PCOD9296194
Probable space group: C 2/C
;
_chemical_formula_sum "Si O2"
_cell_formula_units_Z 32
_cell_length_a 9.195655
_cell_length_b 10.684684
_cell_length_c 20.965955
_cell_angle_alpha 90.000000
_cell_angle_beta 136.440024
_cell_angle_gamma 90.000000
_cell_volume 1419.546953
_symmetry_space_group_name_H-M "C 2/C"
_symmetry_group_IT_number 15
_symmetry_cell_setting 'monoclinic'
loop_
_space_group_symop_operation_xyz
x,y,z
-x,y,1/2-z
-x,-y,-z
x,-y,1/2+z
1/2+x,1/2+y,z
1/2-x,1/2+y,1/2-z
1/2-x,1/2-y,-z
1/2+x,1/2-y,1/2+z
loop_
_atom_site_type_symbol
_atom_site_label
_atom_site_fract_x
_atom_site_fract_y
_atom_site_fract_z
Si Si1 0.500000 0.412589 0.750000
Si Si2 0.739000 0.505159 0.103368
Si Si3 0.295119 0.281065 0.310247
Si Si4 0.452297 0.961136 0.913967
Si Si5 0.500000 0.225496 0.250000
O O1 0.405241 0.309669 0.769483
O O2 0.704642 0.489899 0.830160
O O3 0.754781 0.400938 0.163814
O O4 0.899619 0.484474 0.094602
O O5 0.820753 0.632948 0.162692
O O6 0.500000 0.500000 0.000000
O O7 0.444465 0.189184 0.400125
O O8 0.410746 0.300821 0.281204
O O9 0.500000 0.000000 0.000000
#
# Coordination Sequence:
#
# PCOD9296194 Si02
#       5
#     4   8   8   8   4
#     4   8  19  42  63  94 138 182 239 277 340 422
#     4  11  24  41  71 104 144 182 239 298 352 426
#     4   9  21  43  67  96 143 188 235 288 356 410
#     4   9  21  39  67 101 136 188 231 285 358 410
#     4  10  23  44  69 102 144 192 231 281 362 422
#
# _framework density 22.542404000000001
#
# number of rings (size 3 to 8) (size 9 to 14) (size 15 to 20)
#    1.500    1.000    0.000    0.750    3.500    5.000 
#    0.000   13.750    0.000    0.000    0.000    0.000 
#    0.000    0.000    0.000    0.000    0.000    0.000 
#
# Total GULP energy -89110.845063 kJ/mol
# GULP energy per Si atom -5569.427816 kJ/mol
# Density = 2.249110 g / cm^3
# Si number density = 22.542404 Si / 1000 Ang^3
#
#
#
# Elastic Constant Matrix: (Units=GPa)
#
#
# Indices 1 2 3 4 5 6 
#
# 1 254.7460 71.1682 87.8665 0.0000 -7.0572 0.0000
# 2 71.1682 82.7538 41.1469 0.0000 -11.2933 0.0000
# 3 87.8665 41.1469 142.6060 0.0000 23.3338 0.0000
# 4 0.0000 0.0000 0.0000 13.4776 0.0000 1.8880
# 5 -7.0572 -11.2933 23.3338 0.0000 44.9746 0.0000
# 6 0.0000 0.0000 0.0000 1.8880 0.0000 40.8212
#
#
#
# Elastic Compliance Matrix: (Units=1/GPa)
#
#
# Indices 1 2 3 4 5 6 
#
# 1 0.005939 -0.003435 -0.002928 0.000000 0.001589 0.000000
# 2 -0.003435 0.017863 -0.004025 0.000000 0.006035 0.000000
# 3 -0.002928 -0.004025 0.011166 0.000000 -0.007264 0.000000
# 4 0.000000 0.000000 0.000000 0.074681 0.000000 -0.003454
# 5 0.001589 0.006035 -0.007264 0.000000 0.027768 0.000000
# 6 0.000000 0.000000 0.000000 -0.003454 0.000000 0.024657
#
#
# Mechanical properties :
#
#
# Convention : Reuss Voigt Hill
#
# Bulk Modulus (GPa) = 70.46208 97.82987 84.14598
# Shear Modulus (GPa) = 26.65507 38.51629 32.58568
#
# Velocity S-wave (km/s) = 3.44239 4.13802 3.80613
# Velocity P-wave (km/s) = 6.86480 8.14392 7.53156
#
# Compressibility (1/GPa) = 0.01419203
#
# Stress axis : x y z
#
# Youngs Moduli (GPa) = 168.37649 55.98177 89.55381
#
# Poissons Ratio (x) = 0.19229 0.26223
# Poissons Ratio (y) = 0.57834 0.36047
# Poissons Ratio (z) = 0.49304 0.22534
#
# Static dielectric constant tensor:
#      x y z
#    x 1.839140 0.000000 0.065960 
#    y 0.000000 1.898030 0.000000 
#    z 0.065960 0.000000 1.782180 
# 
# From -- ./inp_files/263413.got.cif
#   From: 2010.05.17/outbox.cif.g08.bks.cpg/sg15_132_cif.got.tgz:263413.got - 2010.06.03 18:47:42.
