data_PCOD9296938
_publ_section_title
;
Structure prediction by ZEFSAII (Michael W. Deem and Ramdas Pophale) SiO2 
 PCOD9296938
Probable space group: C 2/C
;
_chemical_formula_sum "Si O2"
_cell_formula_units_Z 40
_cell_length_a 18.441747
_cell_length_b 15.179051
_cell_length_c 5.627758
_cell_angle_alpha 90.000000
_cell_angle_beta 104.322317
_cell_angle_gamma 90.000000
_cell_volume 1526.404958
_symmetry_space_group_name_H-M "C 2/C"
_symmetry_group_IT_number 15
_symmetry_cell_setting 'monoclinic'
loop_
_space_group_symop_operation_xyz
x,y,z
-x,y,1/2-z
-x,-y,-z
x,-y,1/2+z
1/2+x,1/2+y,z
1/2-x,1/2+y,1/2-z
1/2-x,1/2-y,-z
1/2+x,1/2-y,1/2+z
loop_
_atom_site_type_symbol
_atom_site_label
_atom_site_fract_x
_atom_site_fract_y
_atom_site_fract_z
Si Si1 0.525732 0.899749 0.022710
Si Si2 0.805693 0.790906 0.356471
Si Si3 0.952750 0.857793 0.962073
Si Si4 0.345374 0.806583 0.495195
Si Si5 0.835864 0.016996 0.912760
O O1 0.500000 0.859178 0.750000
O O2 0.614147 0.890417 0.077535
O O3 0.500000 0.858821 0.250000
O O4 0.500000 0.000000 0.000000
O O5 0.750000 0.750000 0.500000
O O6 0.853564 0.713394 0.281073
O O7 0.851579 0.878764 0.436504
O O8 0.742360 0.819614 0.115276
O O9 0.000000 0.856141 0.750000
O O10 0.906798 0.950449 0.953717
O O11 0.889631 0.778386 0.916708
O O12 0.000000 0.849674 0.250000
O O13 0.795705 0.999442 0.630162
#
# Coordination Sequence:
#
# PCOD9296938 Si02
#       5
#     8   8   8   8   8
#     4  10  23  46  73 107 148 189 248 310 371 447
#     4  11  27  49  78 104 153 208 255 318 375 460
#     4  12  27  47  80 114 155 199 247 322 393 461
#     4  11  25  49  73 112 146 204 253 314 381 454
#     4  12  26  51  72 112 157 194 261 314 382 464
#
# _framework density 26.205362000000001
#
# number of rings (size 3 to 8) (size 9 to 14) (size 15 to 20)
#    0.000    0.800    2.000    3.600    8.400    2.400 
#    7.200    0.000    0.000    0.000    0.000    0.000 
#    0.000    0.000    0.000    0.000    0.000    0.000 
#
# Total GULP energy -111557.638770 kJ/mol
# GULP energy per Si atom -5577.881938 kJ/mol
# Density = 2.614572 g / cm^3
# Si number density = 26.205362 Si / 1000 Ang^3
#
#
#
# Elastic Constant Matrix: (Units=GPa)
#
#
# Indices 1 2 3 4 5 6 
#
# 1 97.8883 47.0884 22.1212 0.0000 -5.8913 0.0000
# 2 47.0884 139.8279 18.1641 0.0000 -3.9984 0.0000
# 3 22.1212 18.1641 184.4808 0.0000 -31.0272 0.0000
# 4 0.0000 0.0000 0.0000 24.5635 0.0000 -6.2637
# 5 -5.8913 -3.9984 -31.0272 0.0000 46.9706 0.0000
# 6 0.0000 0.0000 0.0000 -6.2637 0.0000 53.3588
#
#
#
# Elastic Compliance Matrix: (Units=1/GPa)
#
#
# Indices 1 2 3 4 5 6 
#
# 1 0.012416 -0.004036 -0.000998 0.000000 0.000554 0.000000
# 2 -0.004036 0.008557 -0.000361 0.000000 -0.000016 0.000000
# 3 -0.000998 -0.000361 0.006243 0.000000 0.003968 0.000000
# 4 0.000000 0.000000 0.000000 0.041967 0.000000 0.004926
# 5 0.000554 -0.000016 0.003968 0.000000 0.023979 0.000000
# 6 0.000000 0.000000 0.000000 0.004926 0.000000 0.019319
#
#
# Mechanical properties :
#
#
# Convention : Reuss Voigt Hill
#
# Bulk Modulus (GPa) = 60.87955 66.32713 63.60334
# Shear Modulus (GPa) = 38.83553 47.30013 43.06783
#
# Velocity S-wave (km/s) = 3.85381 4.25311 4.05838
# Velocity P-wave (km/s) = 6.56389 7.03449 6.80326
#
# Compressibility (1/GPa) = 0.01642588
#
# Stress axis : x y z
#
# Youngs Moduli (GPa) = 80.54126 116.86093 160.17201
#
# Poissons Ratio (x) = 0.47161 0.15989
# Poissons Ratio (y) = 0.32504 0.05788
# Poissons Ratio (z) = 0.08040 0.04223
#
# Static dielectric constant tensor:
#      x y z
#    x 2.088280 0.000000 0.148460 
#    y 0.000000 2.064110 0.000000 
#    z 0.148460 0.000000 1.941610 
# 
# From -- ./inp_files/9869.got.cif
#   From: 2010.05.17/outbox.cif.g08.bks.cpg/sg15_5_cif.got.tgz:9869.got - 2010.06.03 18:47:42.
