data_PCOD9296564
_publ_section_title
;
Structure prediction by ZEFSAII (Michael W. Deem and Ramdas Pophale) SiO2 
 PCOD9296564
Probable space group: C 2/C
;
_chemical_formula_sum "Si O2"
_cell_formula_units_Z 28
_cell_length_a 13.310801
_cell_length_b 7.229745
_cell_length_c 17.125160
_cell_angle_alpha 90.000000
_cell_angle_beta 37.377431
_cell_angle_gamma 90.000000
_cell_volume 1000.450208
_symmetry_space_group_name_H-M "C 2/C"
_symmetry_group_IT_number 15
_symmetry_cell_setting 'monoclinic'
loop_
_space_group_symop_operation_xyz
x,y,z
-x,y,1/2-z
-x,-y,-z
x,-y,1/2+z
1/2+x,1/2+y,z
1/2-x,1/2+y,1/2-z
1/2-x,1/2-y,-z
1/2+x,1/2-y,1/2+z
loop_
_atom_site_type_symbol
_atom_site_label
_atom_site_fract_x
_atom_site_fract_y
_atom_site_fract_z
Si Si1 0.328186 0.252992 0.832328
Si Si2 0.083417 0.684401 0.057357
Si Si3 0.471353 0.232831 0.583907
Si Si4 0.500000 0.608327 0.750000
O O1 0.500000 0.152227 0.750000
O O2 0.345338 0.289397 0.729484
O O3 0.156426 0.177239 0.969303
O O4 0.353670 0.457622 0.852508
O O5 0.087323 0.764621 0.967451
O O6 0.961253 0.776520 0.196851
O O7 0.250000 0.750000 0.000000
O O8 0.012967 0.480075 0.080988
#
# Coordination Sequence:
#
# PCOD9296564 Si02
#       4
#     8   8   8   4
#     4  10  23  45  68 105 137 191 240 303 358 443
#     4  11  24  45  68 106 146 192 241 310 355 441
#     4  11  25  44  75 103 144 193 246 290 383 424
#     4  10  24  42  72  96 154 180 242 304 368 408
#
# _framework density 27.987397999999999
#
# number of rings (size 3 to 8) (size 9 to 14) (size 15 to 20)
#    0.857    0.571    2.857    0.857    6.000    1.143 
#    0.000    0.000    0.000    0.000    0.000    0.000 
#    0.000    0.000    0.000    0.000    0.000    0.000 
#
# Total GULP energy -78141.242814 kJ/mol
# GULP energy per Si atom -5581.517344 kJ/mol
# Density = 2.792370 g / cm^3
# Si number density = 27.987398 Si / 1000 Ang^3
#
#
#
# Elastic Constant Matrix: (Units=GPa)
#
#
# Indices 1 2 3 4 5 6 
#
# 1 189.3475 43.6611 63.6151 0.0000 49.6211 0.0000
# 2 43.6611 115.4232 23.9528 0.0000 18.1041 0.0000
# 3 63.6151 23.9528 155.7976 0.0000 46.8837 0.0000
# 4 0.0000 0.0000 0.0000 39.3424 0.0000 22.8287
# 5 49.6211 18.1041 46.8837 0.0000 78.1854 0.0000
# 6 0.0000 0.0000 0.0000 22.8287 0.0000 30.3403
#
#
#
# Elastic Compliance Matrix: (Units=1/GPa)
#
#
# Indices 1 2 3 4 5 6 
#
# 1 0.007073 -0.001847 -0.001686 0.000000 -0.003050 0.000000
# 2 -0.001847 0.009583 -0.000493 0.000000 -0.000751 0.000000
# 3 -0.001686 -0.000493 0.008330 0.000000 -0.003810 0.000000
# 4 0.000000 0.000000 0.000000 0.045115 0.000000 -0.033946
# 5 -0.003050 -0.000751 -0.003810 0.000000 0.017185 0.000000
# 6 0.000000 0.000000 0.000000 -0.033946 0.000000 0.058501
#
#
# Mechanical properties :
#
#
# Convention : Reuss Voigt Hill
#
# Bulk Modulus (GPa) = 59.05858 80.33626 69.69742
# Shear Modulus (GPa) = 31.35131 51.52956 41.44044
#
# Velocity S-wave (km/s) = 3.35056 4.29554 3.85214
# Velocity P-wave (km/s) = 6.00966 7.30541 6.68898
#
# Compressibility (1/GPa) = 0.01693234
#
# Stress axis : x y z
#
# Youngs Moduli (GPa) = 141.38103 104.35584 120.05424
#
# Poissons Ratio (x) = 0.19277 0.20244
# Poissons Ratio (y) = 0.26116 0.05919
# Poissons Ratio (z) = 0.23840 0.05145
#
# Static dielectric constant tensor:
#      x y z
#    x 2.332190 0.000000 -0.244680 
#    y 0.000000 2.204930 0.000000 
#    z -0.244680 0.000000 2.550410 
# 
# From -- ./inp_files/201953.got.cif
#   From: 2010.05.17/outbox.cif.g08.bks.cpg/sg15_101_cif.got.tgz:201953.got - 2010.06.03 18:47:42.
