data_PCOD9296583
_publ_section_title
;
Structure prediction by ZEFSAII (Michael W. Deem and Ramdas Pophale) SiO2 
 PCOD9296583
Probable space group: C 2/C
;
_chemical_formula_sum "Si O2"
_cell_formula_units_Z 32
_cell_length_a 22.319718
_cell_length_b 8.916898
_cell_length_c 10.919165
_cell_angle_alpha 90.000000
_cell_angle_beta 148.222735
_cell_angle_gamma 90.000000
_cell_volume 1144.426895
_symmetry_space_group_name_H-M "C 2/C"
_symmetry_group_IT_number 15
_symmetry_cell_setting 'monoclinic'
loop_
_space_group_symop_operation_xyz
x,y,z
-x,y,1/2-z
-x,-y,-z
x,-y,1/2+z
1/2+x,1/2+y,z
1/2-x,1/2+y,1/2-z
1/2-x,1/2-y,-z
1/2+x,1/2-y,1/2+z
loop_
_atom_site_type_symbol
_atom_site_label
_atom_site_fract_x
_atom_site_fract_y
_atom_site_fract_z
Si Si1 0.167760 0.792924 0.678171
Si Si2 0.000000 0.007607 0.750000
Si Si3 0.263355 0.901683 0.400701
Si Si4 0.038818 0.754183 0.012773
Si Si5 0.000000 0.507050 0.750000
O O1 0.246170 0.666674 0.755227
O O2 0.107203 0.886039 0.463017
O O3 0.066077 0.725510 0.580098
O O4 0.231098 0.923764 0.861062
O O5 0.997488 0.898992 0.862408
O O6 0.400070 0.914401 0.641875
O O7 0.159990 0.805689 0.279853
O O8 0.053646 0.615764 0.946354
#
# Coordination Sequence:
#
# PCOD9296583 Si02
#       5
#     8   4   8   8   4
#     4  11  23  44  68  97 139 182 223 287 339 401
#     4   9  19  40  66  94 128 178 224 266 338 404
#     4  11  22  44  66 100 140 172 230 281 327 410
#     4  10  23  45  68  99 141 179 224 282 347 397
#     4  11  23  44  72 102 136 180 228 280 338 406
#
# _framework density 27.961592
#
# number of rings (size 3 to 8) (size 9 to 14) (size 15 to 20)
#    0.000    1.500    2.500    3.750    0.000    2.000 
#    9.000    6.250    0.000    0.000    0.000    0.000 
#    0.000    0.000    0.000    0.000    0.000    0.000 
#
# Total GULP energy -89511.965484 kJ/mol
# GULP energy per Si atom -5594.497843 kJ/mol
# Density = 2.789795 g / cm^3
# Si number density = 27.961592 Si / 1000 Ang^3
#
#
#
# Elastic Constant Matrix: (Units=GPa)
#
#
# Indices 1 2 3 4 5 6 
#
# 1 120.9141 30.5618 22.5378 0.0000 46.0154 0.0000
# 2 30.5618 127.2870 24.3633 0.0000 17.6771 0.0000
# 3 22.5378 24.3633 123.0940 0.0000 22.4996 0.0000
# 4 0.0000 0.0000 0.0000 58.6712 0.0000 25.7183
# 5 46.0154 17.6771 22.4996 0.0000 45.3048 0.0000
# 6 0.0000 0.0000 0.0000 25.7183 0.0000 44.3316
#
#
#
# Elastic Compliance Matrix: (Units=1/GPa)
#
#
# Indices 1 2 3 4 5 6 
#
# 1 0.013732 -0.001470 0.000243 0.000000 -0.013495 0.000000
# 2 -0.001470 0.008616 -0.001204 0.000000 -0.001271 0.000000
# 3 0.000243 -0.001204 0.009103 0.000000 -0.004298 0.000000
# 4 0.000000 0.000000 0.000000 0.022857 0.000000 -0.013260
# 5 -0.013495 -0.001271 -0.004298 0.000000 0.038410 0.000000
# 6 0.000000 0.000000 0.000000 -0.013260 0.000000 0.030250
#
#
# Mechanical properties :
#
#
# Convention : Reuss Voigt Hill
#
# Bulk Modulus (GPa) = 37.60663 58.46899 48.03781
# Shear Modulus (GPa) = 36.57867 49.25034 42.91451
#
# Velocity S-wave (km/s) = 3.62079 4.20141 3.92186
# Velocity P-wave (km/s) = 5.56406 6.67020 6.14208
#
# Compressibility (1/GPa) = 0.02659105
#
# Stress axis : x y z
#
# Youngs Moduli (GPa) = 72.82228 116.06191 109.85070
#
# Poissons Ratio (x) = 0.17056 -0.02672
# Poissons Ratio (y) = 0.10701 0.13225
# Poissons Ratio (z) = -0.01771 0.13972
#
# Static dielectric constant tensor:
#      x y z
#    x 2.151540 0.000000 -0.116330 
#    y 0.000000 2.158440 0.000000 
#    z -0.116330 0.000000 2.267540 
# 
# From -- ./inp_files/83912.got.cif
#   From: 2010.05.17/outbox.cif.g08.bks.cpg/sg15_42_cif.got.tgz:83912.got - 2010.06.03 18:47:42.
