data_PCOD9296762
_publ_section_title
;
Structure prediction by ZEFSAII (Michael W. Deem and Ramdas Pophale) SiO2 
 PCOD9296762
Probable space group: C 2/C
;
_chemical_formula_sum "Si O2"
_cell_formula_units_Z 32
_cell_length_a 22.058905
_cell_length_b 6.921394
_cell_length_c 13.997736
_cell_angle_alpha 90.000000
_cell_angle_beta 49.472619
_cell_angle_gamma 90.000000
_cell_volume 1624.439311
_symmetry_space_group_name_H-M "C 2/C"
_symmetry_group_IT_number 15
_symmetry_cell_setting 'monoclinic'
loop_
_space_group_symop_operation_xyz
x,y,z
-x,y,1/2-z
-x,-y,-z
x,-y,1/2+z
1/2+x,1/2+y,z
1/2-x,1/2+y,1/2-z
1/2-x,1/2-y,-z
1/2+x,1/2-y,1/2+z
loop_
_atom_site_type_symbol
_atom_site_label
_atom_site_fract_x
_atom_site_fract_y
_atom_site_fract_z
Si Si1 0.180835 0.972956 0.480431
Si Si2 0.908381 0.008901 0.125885
Si Si3 0.413467 0.751352 0.801789
Si Si4 0.138147 0.663805 0.682666
O O1 0.141917 0.809299 0.588738
O O2 0.274115 0.925006 0.388237
O O3 0.146856 0.973061 0.408808
O O4 0.153331 0.174792 0.556302
O O5 0.889607 0.210788 0.198328
O O6 0.895239 0.846186 0.219249
O O7 0.000000 0.000000 0.000000
O O8 0.500000 0.682330 0.750000
O O9 0.414762 0.979888 0.787729
#
# Coordination Sequence:
#
# PCOD9296762 Si02
#       4
#     8   8   8   8
#     4  10  23  46  61  91 128 163 212 265 307 373
#     4  11  24  41  63  95 129 159 207 268 309 368
#     4  11  23  40  66  92 126 167 209 258 316 376
#     4  10  25  41  67  89 124 173 205 256 319 376
#
# _framework density 19.699104999999999
#
# number of rings (size 3 to 8) (size 9 to 14) (size 15 to 20)
#    0.000    1.500    2.500    0.750    7.000    3.000 
#    0.000    0.000    0.000    0.000    0.000    0.000 
#    0.000    0.000    0.000    0.000    0.000    0.000 
#
# Total GULP energy -89404.108079 kJ/mol
# GULP energy per Si atom -5587.756755 kJ/mol
# Density = 1.965427 g / cm^3
# Si number density = 19.699105 Si / 1000 Ang^3
#
#
#
# Elastic Constant Matrix: (Units=GPa)
#
#
# Indices 1 2 3 4 5 6 
#
# 1 120.3099 46.9948 53.8632 0.0000 31.7667 -0.0006
# 2 46.9948 96.2600 34.7738 -0.0009 3.1177 -0.0026
# 3 53.8632 34.7738 100.2169 -0.0001 10.2725 -0.0004
# 4 0.0000 -0.0009 -0.0001 17.4137 0.0002 -1.0993
# 5 31.7667 3.1177 10.2725 0.0002 37.7257 0.0005
# 6 -0.0006 -0.0026 -0.0004 -1.0993 0.0005 27.4215
#
#
#
# Elastic Compliance Matrix: (Units=1/GPa)
#
#
# Indices 1 2 3 4 5 6 
#
# 1 0.015912 -0.005410 -0.005501 0.000000 -0.011454 0.000000
# 2 -0.005410 0.013718 -0.002266 0.000001 0.004039 0.000001
# 3 -0.005501 -0.002266 0.013607 0.000000 0.001114 0.000000
# 4 0.000000 0.000001 0.000000 0.057572 0.000000 0.002308
# 5 -0.011454 0.004039 0.001114 0.000000 0.035515 -0.000001
# 6 0.000000 0.000001 0.000000 0.002308 -0.000001 0.036560
#
#
# Mechanical properties :
#
#
# Convention : Reuss Voigt Hill
#
# Bulk Modulus (GPa) = 59.23321 65.33893 62.28607
# Shear Modulus (GPa) = 24.40626 28.58920 26.49773
#
# Velocity S-wave (km/s) = 3.52369 3.81372 3.67157
# Velocity P-wave (km/s) = 6.83297 7.25487 7.04708
#
# Compressibility (1/GPa) = 0.01688242
#
# Stress axis : x y z
#
# Youngs Moduli (GPa) = 62.84442 72.89886 73.49161
#
# Poissons Ratio (x) = 0.39441 0.40428
# Poissons Ratio (y) = 0.34001 0.16653
# Poissons Ratio (z) = 0.34571 0.16519
#
# Static dielectric constant tensor:
#      x y z
#    x 1.664150 0.000000 -0.022770 
#    y 0.000000 1.691100 0.000000 
#    z -0.022770 0.000000 1.695950 
# 
# From -- ./inp_files/164951.got.cif
#   From: 2010.05.17/outbox.cif.g08.bks.cpg/sg15_83_cif.got.tgz:164951.got - 2010.06.03 18:47:42.
