data_PCOD9296386
_publ_section_title
;
Structure prediction by ZEFSAII (Michael W. Deem and Ramdas Pophale) SiO2 
 PCOD9296386
Probable space group: C 2/C
;
_chemical_formula_sum "Si O2"
_cell_formula_units_Z 36
_cell_length_a 25.807104
_cell_length_b 7.847080
_cell_length_c 14.513043
_cell_angle_alpha 90.000000
_cell_angle_beta 151.560504
_cell_angle_gamma 90.000000
_cell_volume 1399.661484
_symmetry_space_group_name_H-M "C 2/C"
_symmetry_group_IT_number 15
_symmetry_cell_setting 'monoclinic'
loop_
_space_group_symop_operation_xyz
x,y,z
-x,y,1/2-z
-x,-y,-z
x,-y,1/2+z
1/2+x,1/2+y,z
1/2-x,1/2+y,1/2-z
1/2-x,1/2-y,-z
1/2+x,1/2-y,1/2+z
loop_
_atom_site_type_symbol
_atom_site_label
_atom_site_fract_x
_atom_site_fract_y
_atom_site_fract_z
Si Si1 0.500000 0.022798 0.750000
Si Si2 0.664217 0.130164 0.658628
Si Si3 0.890596 0.020709 0.937653
Si Si4 0.613252 0.602281 0.774721
Si Si5 0.647824 0.002856 0.331365
O O1 0.409410 0.930905 0.542652
O O2 0.422812 0.106305 0.707347
O O3 0.647854 0.329560 0.644893
O O4 0.791903 0.098233 0.840332
O O5 0.624890 0.037569 0.689622
O O6 0.903746 0.117327 0.861694
O O7 0.011810 0.989178 0.163197
O O8 0.624627 0.798742 0.822755
O O9 0.722527 0.495162 0.957577
#
# Coordination Sequence:
#
# PCOD9296386 Si02
#       5
#     4   8   8   8   8
#     4  12  24  46  66 106 132 190 232 282 328 440
#     4  12  26  44  72 100 141 183 230 283 346 404
#     4  11  24  44  68 107 140 177 231 282 342 416
#     4  10  23  44  73 101 140 173 239 277 347 406
#     4  11  24  45  75 100 137 187 225 288 344 406
#
# _framework density 25.720503000000001
#
# number of rings (size 3 to 8) (size 9 to 14) (size 15 to 20)
#    0.000    0.889    4.444    2.000    3.111    1.778 
#    0.000    0.000    0.000    2.667    0.000    0.000 
#    0.000    0.000    0.000    0.000    0.000    0.000 
#
# Total GULP energy -100730.144378 kJ/mol
# GULP energy per Si atom -5596.119132 kJ/mol
# Density = 2.566196 g / cm^3
# Si number density = 25.720503 Si / 1000 Ang^3
#
#
#
# Elastic Constant Matrix: (Units=GPa)
#
#
# Indices 1 2 3 4 5 6 
#
# 1 216.3001 22.0642 93.7407 0.0000 20.4001 0.0000
# 2 22.0642 65.4679 34.8146 0.0000 14.9879 0.0000
# 3 93.7407 34.8146 120.8379 0.0000 41.2422 0.0000
# 4 0.0000 0.0000 0.0000 20.0204 0.0000 3.8645
# 5 20.4001 14.9879 41.2422 0.0000 73.4633 0.0000
# 6 0.0000 0.0000 0.0000 3.8645 0.0000 26.3331
#
#
#
# Elastic Compliance Matrix: (Units=1/GPa)
#
#
# Indices 1 2 3 4 5 6 
#
# 1 0.007093 0.000557 -0.006126 0.000000 0.001356 0.000000
# 2 0.000557 0.018135 -0.005370 0.000000 -0.000840 0.000000
# 3 -0.006126 -0.005370 0.016849 0.000000 -0.006662 0.000000
# 4 0.000000 0.000000 0.000000 0.051405 0.000000 -0.007544
# 5 0.001356 -0.000840 -0.006662 0.000000 0.017147 0.000000
# 6 0.000000 0.000000 0.000000 -0.007544 0.000000 0.039082
#
#
# Mechanical properties :
#
#
# Convention : Reuss Voigt Hill
#
# Bulk Modulus (GPa) = 49.50865 78.20499 63.85682
# Shear Modulus (GPa) = 28.03901 40.76245 34.40073
#
# Velocity S-wave (km/s) = 3.30531 3.98530 3.66113
# Velocity P-wave (km/s) = 5.81870 7.18669 6.53857
#
# Compressibility (1/GPa) = 0.02019849
#
# Stress axis : x y z
#
# Youngs Moduli (GPa) = 140.97652 55.14201 59.35209
#
# Poissons Ratio (x) = -0.03069 0.36358
# Poissons Ratio (y) = -0.07846 0.31872
# Poissons Ratio (z) = 0.86359 0.29611
#
# Static dielectric constant tensor:
#      x y z
#    x 1.981660 0.000000 0.033970 
#    y 0.000000 1.949330 0.000000 
#    z 0.033970 0.000000 2.078600 
# 
# From -- ./inp_files/177067.got.cif
#   From: 2010.05.17/outbox.cif.g08.bks.cpg/sg15_89_cif.got.tgz:177067.got - 2010.06.03 18:47:42.
