data_PCOD9296795
_publ_section_title
;
Structure prediction by ZEFSAII (Michael W. Deem and Ramdas Pophale) SiO2 
 PCOD9296795
Probable space group: C 2/C
;
_chemical_formula_sum "Si O2"
_cell_formula_units_Z 40
_cell_length_a 19.171233
_cell_length_b 5.342127
_cell_length_c 23.918508
_cell_angle_alpha 90.000000
_cell_angle_beta 139.294967
_cell_angle_gamma 90.000000
_cell_volume 1597.555025
_symmetry_space_group_name_H-M "C 2/C"
_symmetry_group_IT_number 15
_symmetry_cell_setting 'monoclinic'
loop_
_space_group_symop_operation_xyz
x,y,z
-x,y,1/2-z
-x,-y,-z
x,-y,1/2+z
1/2+x,1/2+y,z
1/2-x,1/2+y,1/2-z
1/2-x,1/2-y,-z
1/2+x,1/2-y,1/2+z
loop_
_atom_site_type_symbol
_atom_site_label
_atom_site_fract_x
_atom_site_fract_y
_atom_site_fract_z
Si Si1 0.010913 0.310373 0.628318
Si Si2 0.718121 0.780007 0.699956
Si Si3 0.709524 0.609094 0.030378
Si Si4 0.838515 0.932441 0.185187
Si Si5 0.915113 0.698009 0.651665
O O1 0.092056 0.339213 0.625860
O O2 0.084788 0.194611 0.722560
O O3 0.917261 0.118824 0.553773
O O4 0.961305 0.569334 0.623360
O O5 0.763512 0.996149 0.769285
O O6 0.783792 0.835821 0.684001
O O7 0.744075 0.756191 0.106811
O O8 0.790679 0.378753 0.078828
O O9 0.750000 0.750000 0.000000
O O10 0.899767 0.020421 0.166235
O O11 0.000000 0.597062 0.750000
#
# Coordination Sequence:
#
# PCOD9296795 Si02
#       5
#     8   8   8   8   8
#     4  10  23  46  67 100 139 181 230 293 351 419
#     4  10  23  46  72 103 139 192 238 284 355 430
#     4  10  24  42  62 103 140 170 239 288 353 416
#     4  11  24  43  70  96 140 183 231 291 355 422
#     4  11  22  39  67  92 129 180 223 283 352 409
#
# _framework density 25.038260999999999
#
# number of rings (size 3 to 8) (size 9 to 14) (size 15 to 20)
#    0.000    1.600    2.000    1.200    8.400    4.000 
#    7.200    1.000    0.000    0.000    0.000    0.000 
#    0.000    0.000    0.000    0.000    0.000    0.000 
#
# Total GULP energy -111480.346141 kJ/mol
# GULP energy per Si atom -5574.017307 kJ/mol
# Density = 2.498127 g / cm^3
# Si number density = 25.038261 Si / 1000 Ang^3
#
#
#
# Elastic Constant Matrix: (Units=GPa)
#
#
# Indices 1 2 3 4 5 6 
#
# 1 99.9072 19.4268 23.6902 0.0003 25.2343 0.0060
# 2 19.4268 57.3258 38.1627 -0.0004 -5.0719 0.0203
# 3 23.6902 38.1627 170.0415 0.0003 15.3597 0.0005
# 4 0.0003 -0.0004 0.0003 41.4300 -0.0006 -4.7262
# 5 25.2343 -5.0719 15.3597 -0.0006 36.7479 -0.0012
# 6 0.0060 0.0203 0.0005 -4.7262 -0.0012 41.3790
#
#
#
# Elastic Compliance Matrix: (Units=1/GPa)
#
#
# Indices 1 2 3 4 5 6 
#
# 1 0.013654 -0.005751 0.000319 0.000000 -0.010303 0.000001
# 2 -0.005751 0.023832 -0.005405 -0.000001 0.009498 -0.000011
# 3 0.000319 -0.005405 0.007417 0.000000 -0.004065 0.000002
# 4 0.000000 -0.000001 0.000000 0.024456 0.000001 0.002793
# 5 -0.010303 0.009498 -0.004065 0.000001 0.037298 -0.000002
# 6 0.000001 -0.000011 0.000002 0.002793 -0.000002 0.024486
#
#
# Mechanical properties :
#
#
# Convention : Reuss Voigt Hill
#
# Bulk Modulus (GPa) = 43.05119 54.42597 48.73858
# Shear Modulus (GPa) = 31.14099 40.31102 35.72601
#
# Velocity S-wave (km/s) = 3.53049 4.01680 3.78147
# Velocity P-wave (km/s) = 5.81813 6.58007 6.21079
#
# Compressibility (1/GPa) = 0.02322816
#
# Stress axis : x y z
#
# Youngs Moduli (GPa) = 73.23665 41.96056 134.82937
#
# Poissons Ratio (x) = 0.24133 -0.04303
# Poissons Ratio (y) = 0.42121 0.72879
# Poissons Ratio (z) = -0.02337 0.22681
#
# Static dielectric constant tensor:
#      x y z
#    x 2.003410 -0.000010 0.020020 
#    y -0.000010 2.124440 0.000000 
#    z 0.020020 0.000000 2.019290 
# 
# From -- ./inp_files/170506.got.cif
#   From: 2010.05.17/outbox.cif.g08.bks.cpg/sg15_86_cif.got.tgz:170506.got - 2010.06.03 18:47:42.
