data_PCOD9296025
_publ_section_title
;
Structure prediction by ZEFSAII (Michael W. Deem and Ramdas Pophale) SiO2 
 PCOD9296025
Probable space group: C 2/C
;
_chemical_formula_sum "Si O2"
_cell_formula_units_Z 56
_cell_length_a 11.454305
_cell_length_b 15.121627
_cell_length_c 14.664395
_cell_angle_alpha 90.000000
_cell_angle_beta 62.460540
_cell_angle_gamma 90.000000
_cell_volume 2252.187300
_symmetry_space_group_name_H-M "C 2/C"
_symmetry_group_IT_number 15
_symmetry_cell_setting 'monoclinic'
loop_
_space_group_symop_operation_xyz
x,y,z
-x,y,1/2-z
-x,-y,-z
x,-y,1/2+z
1/2+x,1/2+y,z
1/2-x,1/2+y,1/2-z
1/2-x,1/2-y,-z
1/2+x,1/2-y,1/2+z
loop_
_atom_site_type_symbol
_atom_site_label
_atom_site_fract_x
_atom_site_fract_y
_atom_site_fract_z
Si Si1 0.665086 0.992893 0.344498
Si Si2 0.330033 0.824987 0.273301
Si Si3 0.981095 0.181612 0.647325
Si Si4 0.814410 0.041766 0.980528
Si Si5 0.855112 0.874868 0.772406
Si Si6 0.944548 0.623155 0.372178
Si Si7 0.262615 0.145409 0.989577
O O1 0.629576 0.902746 0.307323
O O2 0.739412 0.961783 0.409284
O O3 0.776975 0.048923 0.248117
O O4 0.533061 0.052299 0.395353
O O5 0.375014 0.725330 0.231242
O O6 0.360819 0.854480 0.366414
O O7 0.171418 0.818776 0.322965
O O8 0.057497 0.100400 0.575092
O O9 0.039645 0.277091 0.596813
O O10 0.000000 0.174681 0.750000
O O11 0.704941 0.092617 0.077607
O O12 0.829076 0.939206 0.002983
O O13 0.000000 0.906167 0.750000
O O14 0.752130 0.867390 0.894825
O O15 0.000000 0.623899 0.250000
O O16 0.250000 0.250000 0.000000
#
# Coordination Sequence:
#
# PCOD9296025 Si02
#       7
#     8   8   8   8   8   8   8
#     4  11  23  40  70  96 132 175 220 271 334 393
#     4  11  22  43  67  96 130 176 221 273 330 395
#     4  11  23  43  66  97 137 170 214 273 332 397
#     4  11  23  41  67  97 130 178 217 269 337 393
#     4  10  23  44  65  96 132 177 221 274 333 389
#     4  11  24  44  65  94 137 170 222 274 327 396
#     4   9  22  41  63  91 131 168 220 274 321 382
#
# _framework density 24.864716999999999
#
# number of rings (size 3 to 8) (size 9 to 14) (size 15 to 20)
#    0.000    1.429    2.857    1.714    4.000    3.429 
#    5.143    0.000    0.000    0.000    0.000    0.000 
#    0.000    0.000    0.000    0.000    0.000    0.000 
#
# Total GULP energy -156016.201657 kJ/mol
# GULP energy per Si atom -5572.007202 kJ/mol
# Density = 2.480812 g / cm^3
# Si number density = 24.864717 Si / 1000 Ang^3
#
#
#
# Elastic Constant Matrix: (Units=GPa)
#
#
# Indices 1 2 3 4 5 6 
#
# 1 117.4078 22.5887 12.4753 0.0000 -19.5950 0.0000
# 2 22.5887 143.2960 11.3976 0.0000 -8.1851 0.0000
# 3 12.4753 11.3976 19.3729 0.0000 9.9857 0.0000
# 4 0.0000 0.0000 0.0000 29.1595 0.0000 -5.2576
# 5 -19.5950 -8.1851 9.9857 0.0000 32.2816 0.0000
# 6 0.0000 0.0000 0.0000 -5.2576 0.0000 22.4034
#
#
#
# Elastic Compliance Matrix: (Units=1/GPa)
#
#
# Indices 1 2 3 4 5 6 
#
# 1 0.011850 -0.000162 -0.013351 0.000000 0.011282 0.000000
# 2 -0.000162 0.007736 -0.006433 0.000000 0.003853 0.000000
# 3 -0.013351 -0.006433 0.082111 0.000000 -0.035135 0.000000
# 4 0.000000 0.000000 0.000000 0.035809 0.000000 0.008404
# 5 0.011282 0.003853 -0.035135 0.000000 0.049671 0.000000
# 6 0.000000 0.000000 0.000000 0.008404 0.000000 0.046608
#
#
# Mechanical properties :
#
#
# Convention : Reuss Voigt Hill
#
# Bulk Modulus (GPa) = 16.17999 41.44442 28.81220
# Shear Modulus (GPa) = 16.99074 32.34323 24.66699
#
# Velocity S-wave (km/s) = 2.61689 3.61053 3.15310
# Velocity P-wave (km/s) = 3.95628 5.83827 4.98686
#
# Compressibility (1/GPa) = 0.06180474
#
# Stress axis : x y z
#
# Youngs Moduli (GPa) = 84.38865 129.26837 12.17870
#
# Poissons Ratio (x) = 0.02090 0.16260
# Poissons Ratio (y) = 0.01364 0.07835
# Poissons Ratio (z) = 1.12666 0.83162
#
# Static dielectric constant tensor:
#      x y z
#    x 2.005320 0.000000 0.081830 
#    y 0.000000 2.047580 0.000000 
#    z 0.081830 0.000000 2.052270 
# 
# From -- ./inp_files/198224.got.cif
#   From: 2010.05.17/outbox.cif.g08.bks.cpg/sg15_100_cif.got.tgz:198224.got - 2010.06.03 18:47:42.
