data_PCOD9296215
_publ_section_title
;
Structure prediction by ZEFSAII (Michael W. Deem and Ramdas Pophale) SiO2 
 PCOD9296215
Probable space group: C 2/C
;
_chemical_formula_sum "Si O2"
_cell_formula_units_Z 36
_cell_length_a 19.870306
_cell_length_b 7.739613
_cell_length_c 14.477895
_cell_angle_alpha 90.000000
_cell_angle_beta 131.714798
_cell_angle_gamma 90.000000
_cell_volume 1662.032285
_symmetry_space_group_name_H-M "C 2/C"
_symmetry_group_IT_number 15
_symmetry_cell_setting 'monoclinic'
loop_
_space_group_symop_operation_xyz
x,y,z
-x,y,1/2-z
-x,-y,-z
x,-y,1/2+z
1/2+x,1/2+y,z
1/2-x,1/2+y,1/2-z
1/2-x,1/2-y,-z
1/2+x,1/2-y,1/2+z
loop_
_atom_site_type_symbol
_atom_site_label
_atom_site_fract_x
_atom_site_fract_y
_atom_site_fract_z
Si Si1 0.654677 0.027982 0.250203
Si Si2 0.787690 0.433400 0.999176
Si Si3 0.521200 0.805401 0.376314
Si Si4 0.000000 0.000000 0.500000
Si Si5 0.688090 0.415963 0.235711
O O1 0.691602 0.037434 0.388652
O O2 0.558964 0.931647 0.163760
O O3 0.727138 0.925641 0.255065
O O4 0.649415 0.222820 0.209171
O O5 0.720248 0.518867 0.865267
O O6 0.750000 0.250000 0.000000
O O7 0.883350 0.403292 0.036658
O O8 0.500000 0.761418 0.250000
O O9 0.528424 0.635228 0.443546
O O10 0.892797 0.031097 0.376070
#
# Coordination Sequence:
#
# PCOD9296215 Si02
#       5
#     8   8   8   4   8
#     4  11  24  44  67  96 131 172 219 274 333 395
#     4  11  23  45  70  95 130 172 219 273 332 395
#     4  10  23  44  69  96 132 171 216 274 334 396
#     4  12  24  40  64  96 130 172 218 266 324 390
#     4  12  25  41  67  97 132 175 221 272 330 395
#
# _framework density 21.660228
#
# number of rings (size 3 to 8) (size 9 to 14) (size 15 to 20)
#    0.000    0.889    0.000    8.667    0.000    5.333 
#    0.000   14.444    0.000    0.000    0.000    0.000 
#    0.000    0.000    0.000    0.000    0.000    0.000 
#
# Total GULP energy -100269.842927 kJ/mol
# GULP energy per Si atom -5570.546829 kJ/mol
# Density = 2.161093 g / cm^3
# Si number density = 21.660228 Si / 1000 Ang^3
#
#
#
# Elastic Constant Matrix: (Units=GPa)
#
#
# Indices 1 2 3 4 5 6 
#
# 1 99.7396 22.4967 25.4248 0.0000 1.0223 0.0000
# 2 22.4967 44.1574 11.6226 0.0000 -19.4113 0.0000
# 3 25.4248 11.6226 109.1197 0.0000 4.7008 0.0000
# 4 0.0000 0.0000 0.0000 535.0275 0.0000 -120.9480
# 5 1.0223 -19.4113 4.7008 0.0000 33.8481 0.0000
# 6 0.0000 0.0000 0.0000 -120.9480 0.0000 53.9561
#
#
#
# Elastic Compliance Matrix: (Units=1/GPa)
#
#
# Indices 1 2 3 4 5 6 
#
# 1 0.012301 -0.007801 -0.001837 0.000000 -0.004590 0.000000
# 2 -0.007801 0.037065 -0.003074 0.000000 0.021919 0.000000
# 3 -0.001837 -0.003074 0.010054 0.000000 -0.003104 0.000000
# 4 0.000000 0.000000 0.000000 0.003789 0.000000 0.008494
# 5 -0.004590 0.021919 -0.003104 0.000000 0.042684 0.000000
# 6 0.000000 0.000000 0.000000 0.008494 0.000000 0.037573
#
#
# Mechanical properties :
#
#
# Convention : Reuss Voigt Hill
#
# Bulk Modulus (GPa) = 29.41721 41.34499 35.38110
# Shear Modulus (GPa) = 27.74333 137.46452 82.60392
#
# Velocity S-wave (km/s) = 3.58277 7.97507 6.18215
# Velocity P-wave (km/s) = 5.54307 10.19470 8.20541
#
# Compressibility (1/GPa) = 0.03399370
#
# Stress axis : x y z
#
# Youngs Moduli (GPa) = 81.29321 26.97938 99.46722
#
# Poissons Ratio (x) = 0.21047 0.18277
# Poissons Ratio (y) = 0.63418 0.30581
# Poissons Ratio (z) = 0.14938 0.08295
#
# Static dielectric constant tensor:
#      x y z
#    x 1.760690 0.000000 -0.022730 
#    y 0.000000 1.805670 0.000000 
#    z -0.022730 0.000000 1.850140 
# 
# From -- ./inp_files/159567.got.cif
#   From: 2010.05.17/outbox.cif.g08.bks.cpg/sg15_80_cif.got.tgz:159567.got - 2010.06.03 18:47:42.
