data_PCOD9296155
_publ_section_title
;
Structure prediction by ZEFSAII (Michael W. Deem and Ramdas Pophale) SiO2 
 PCOD9296155
Probable space group: C 2/C
;
_chemical_formula_sum "Si O2"
_cell_formula_units_Z 64
_cell_length_a 11.904961
_cell_length_b 24.285744
_cell_length_c 12.109379
_cell_angle_alpha 90.000000
_cell_angle_beta 111.989551
_cell_angle_gamma 90.000000
_cell_volume 3246.378201
_symmetry_space_group_name_H-M "C 2/C"
_symmetry_group_IT_number 15
_symmetry_cell_setting 'monoclinic'
loop_
_space_group_symop_operation_xyz
x,y,z
-x,y,1/2-z
-x,-y,-z
x,-y,1/2+z
1/2+x,1/2+y,z
1/2-x,1/2+y,1/2-z
1/2-x,1/2-y,-z
1/2+x,1/2-y,1/2+z
loop_
_atom_site_type_symbol
_atom_site_label
_atom_site_fract_x
_atom_site_fract_y
_atom_site_fract_z
Si Si1 0.819084 0.789995 0.442571
Si Si2 0.404564 0.450577 0.954956
Si Si3 0.511946 0.113603 0.126531
Si Si4 0.232879 0.421365 0.088363
Si Si5 0.445841 0.237852 0.064198
Si Si6 0.421833 0.618241 0.119781
Si Si7 0.244974 0.459305 0.684881
Si Si8 0.725649 0.299624 0.327863
O O1 0.750000 0.750000 0.500000
O O2 0.826938 0.845846 0.516285
O O3 0.764502 0.787734 0.298828
O O4 0.957398 0.773669 0.466409
O O5 0.480113 0.400634 0.932780
O O6 0.298866 0.461297 0.827664
O O7 0.500000 0.500000 0.000000
O O8 0.340242 0.435277 0.043629
O O9 0.500000 0.098699 0.250000
O O10 0.511667 0.180172 0.119264
O O11 0.632475 0.082469 0.131141
O O12 0.392239 0.093829 0.018823
O O13 0.211909 0.478151 0.144672
O O14 0.275638 0.366021 0.165456
O O15 0.384926 0.269947 0.145922
O O16 0.339771 0.221740 0.940000
O O17 0.500000 0.644496 0.250000
O O18 0.352116 0.566173 0.148251
#
# Coordination Sequence:
#
# PCOD9296155 Si02
#       8
#     8   8   8   8   8   8   8   8
#     4  12  25  41  66  95 133 172 209 268 335 396
#     4  11  22  40  63  92 126 170 210 267 323 387
#     4  11  21  40  66  91 122 169 219 264 322 383
#     4  11  23  40  66  95 131 166 215 275 324 392
#     4  10  23  44  68  95 130 165 227 276 317 393
#     4  10  24  40  60  92 126 169 210 256 324 391
#     4  11  23  41  62  92 132 167 217 262 327 393
#     4  10  24  43  68 100 124 174 219 273 333 382
#
# _framework density 19.714278
#
# number of rings (size 3 to 8) (size 9 to 14) (size 15 to 20)
#    0.000    1.250    2.500    3.000    3.500    0.000 
#    0.000    0.000    0.000    0.000    0.000    0.000 
#    0.000    0.000    0.000    0.000    0.000    0.000 
#
# Total GULP energy -178534.912783 kJ/mol
# GULP energy per Si atom -5579.216024 kJ/mol
# Density = 1.966941 g / cm^3
# Si number density = 19.714278 Si / 1000 Ang^3
#
#
#
# Elastic Constant Matrix: (Units=GPa)
#
#
# Indices 1 2 3 4 5 6 
#
# 1 75.8849 22.2494 27.9757 0.0000 -6.0594 0.0000
# 2 22.2494 103.3562 51.6618 0.0000 -3.0685 0.0000
# 3 27.9757 51.6618 101.0755 0.0000 -11.6930 0.0000
# 4 0.0000 0.0000 0.0000 22.9917 0.0000 4.0251
# 5 -6.0594 -3.0685 -11.6930 0.0000 27.7515 0.0000
# 6 0.0000 0.0000 0.0000 4.0251 0.0000 8.2303
#
#
#
# Elastic Compliance Matrix: (Units=1/GPa)
#
#
# Indices 1 2 3 4 5 6 
#
# 1 0.014937 -0.001610 -0.003106 0.000000 0.001775 0.000000
# 2 -0.001610 0.013223 -0.006501 0.000000 -0.001629 0.000000
# 3 -0.003106 -0.006501 0.014628 0.000000 0.004766 0.000000
# 4 0.000000 0.000000 0.000000 0.047567 0.000000 -0.023263
# 5 0.001775 -0.001629 0.004766 0.000000 0.038250 0.000000
# 6 0.000000 0.000000 0.000000 -0.023263 0.000000 0.132880
#
#
# Mechanical properties :
#
#
# Convention : Reuss Voigt Hill
#
# Bulk Modulus (GPa) = 49.13401 53.78781 51.46091
# Shear Modulus (GPa) = 17.19969 23.69000 20.44485
#
# Velocity S-wave (km/s) = 2.95693 3.47027 3.22383
# Velocity P-wave (km/s) = 6.05269 6.58786 6.32594
#
# Compressibility (1/GPa) = 0.02035250
#
# Stress axis : x y z
#
# Youngs Moduli (GPa) = 66.94930 75.62438 68.36383
#
# Poissons Ratio (x) = 0.12178 0.21233
# Poissons Ratio (y) = 0.10781 0.44446
# Poissons Ratio (z) = 0.20793 0.49167
#
# Static dielectric constant tensor:
#      x y z
#    x 1.706860 0.000000 0.046260 
#    y 0.000000 1.777140 0.000000 
#    z 0.046260 0.000000 1.718440 
# 
# From -- ./inp_files/91294.got.cif
#   From: 2010.05.17/outbox.cif.g08.bks.cpg/sg15_46_cif.got.tgz:91294.got - 2010.06.03 18:47:42.
