data_PCOD9296226
_publ_section_title
;
Structure prediction by ZEFSAII (Michael W. Deem and Ramdas Pophale) SiO2 
 PCOD9296226
Probable space group: C 2/C
;
_chemical_formula_sum "Si O2"
_cell_formula_units_Z 48
_cell_length_a 5.592250
_cell_length_b 22.182038
_cell_length_c 23.642581
_cell_angle_alpha 90.000000
_cell_angle_beta 128.275777
_cell_angle_gamma 90.000000
_cell_volume 2302.362844
_symmetry_space_group_name_H-M "C 2/C"
_symmetry_group_IT_number 15
_symmetry_cell_setting 'monoclinic'
loop_
_space_group_symop_operation_xyz
x,y,z
-x,y,1/2-z
-x,-y,-z
x,-y,1/2+z
1/2+x,1/2+y,z
1/2-x,1/2+y,1/2-z
1/2-x,1/2-y,-z
1/2+x,1/2-y,1/2+z
loop_
_atom_site_type_symbol
_atom_site_label
_atom_site_fract_x
_atom_site_fract_y
_atom_site_fract_z
Si Si1 0.849148 0.982476 0.061420
Si Si2 0.691470 0.699245 0.670726
Si Si3 0.762396 0.656966 0.332316
Si Si4 0.665640 0.623605 0.555543
Si Si5 0.451628 0.617571 0.405865
Si Si6 0.342244 0.405814 0.168724
O O1 0.938732 0.950250 0.133150
O O2 0.918283 0.928767 0.028006
O O3 0.020254 0.045510 0.085303
O O4 0.500000 0.000000 0.000000
O O5 0.695195 0.770828 0.667772
O O6 0.654959 0.674413 0.601775
O O7 0.430392 0.663373 0.666454
O O8 0.000000 0.680780 0.750000
O O9 0.500000 0.637512 0.250000
O O10 0.624612 0.639455 0.373960
O O11 0.094637 0.632648 0.362456
O O12 0.631685 0.644959 0.486473
O O13 0.981563 0.590665 0.614897
O O14 0.500000 0.421862 0.250000
#
# Coordination Sequence:
#
# PCOD9296226 Si02
#       6
#     8   8   8   8   8   8
#     4  11  24  44  68  99 142 184 224 287 358 418
#     4  10  23  44  69  98 140 182 231 293 348 402
#     4  11  28  49  70 100 141 194 234 282 349 423
#     4  11  24  42  72 103 134 178 235 293 350 405
#     4  12  26  46  72 103 143 185 233 283 351 426
#     4  11  23  41  72 104 133 178 239 293 346 406
#
# _framework density 20.848147000000001
#
# number of rings (size 3 to 8) (size 9 to 14) (size 15 to 20)
#    0.000    1.000    3.333    2.000    7.000    2.000 
#    3.000    0.000    0.000    0.000    0.000    0.000 
#    0.000    0.000    0.000    0.000    0.000    0.000 
#
# Total GULP energy -133934.067267 kJ/mol
# GULP energy per Si atom -5580.586136 kJ/mol
# Density = 2.080070 g / cm^3
# Si number density = 20.848147 Si / 1000 Ang^3
#
#
#
# Elastic Constant Matrix: (Units=GPa)
#
#
# Indices 1 2 3 4 5 6 
#
# 1 108.6959 33.2635 62.8177 0.0000 -2.6234 0.0000
# 2 33.2635 74.1662 39.2204 0.0000 0.6812 0.0000
# 3 62.8177 39.2204 141.7202 0.0000 -17.5783 0.0000
# 4 0.0000 0.0000 0.0000 18.5769 0.0000 21.0478
# 5 -2.6234 0.6812 -17.5783 0.0000 46.5871 0.0000
# 6 0.0000 0.0000 0.0000 21.0478 0.0000 9.5993
#
#
#
# Elastic Compliance Matrix: (Units=1/GPa)
#
#
# Indices 1 2 3 4 5 6 
#
# 1 0.013064 -0.003178 -0.005051 0.000000 -0.001124 0.000000
# 2 -0.003178 0.016743 -0.003438 0.000000 -0.001721 0.000000
# 3 -0.005051 -0.003438 0.010719 0.000000 0.003810 0.000000
# 4 0.000000 0.000000 0.000000 -0.036267 0.000000 0.079520
# 5 -0.001124 -0.001721 0.003810 0.000000 0.022865 0.000000
# 6 0.000000 0.000000 0.000000 0.079520 0.000000 -0.070185
#
#
# Mechanical properties :
#
#
# Convention : Reuss Voigt Hill
#
# Bulk Modulus (GPa) = 58.16662 66.13173 62.14918
# Shear Modulus (GPa) = -357.21508 27.57138 -164.82185
#
# Velocity S-wave (km/s) = -13.10394 3.64054 -8.90112
# Velocity P-wave (km/s) = 14.17711 7.03285 8.70429
#
# Compressibility (1/GPa) = 0.01719199
#
# Stress axis : x y z
#
# Youngs Moduli (GPa) = 76.54448 59.72780 93.29266
#
# Poissons Ratio (x) = 0.18982 0.47118
# Poissons Ratio (y) = 0.24327 0.32076
# Poissons Ratio (z) = 0.38659 0.20536
#
# Static dielectric constant tensor:
#      x y z
#    x 1.774700 0.000000 -0.074670 
#    y 0.000000 1.721690 0.000000 
#    z -0.074670 0.000000 1.749680 
# 
# From -- ./inp_files/228257.got.cif
#   From: 2010.05.17/outbox.cif.g08.bks.cpg/sg15_115_cif.got.tgz:228257.got - 2010.06.03 18:47:42.
