data_PCOD9296766
_publ_section_title
;
Structure prediction by ZEFSAII (Michael W. Deem and Ramdas Pophale) SiO2 
 PCOD9296766
Probable space group: C 2/C
;
_chemical_formula_sum "Si O2"
_cell_formula_units_Z 48
_cell_length_a 24.672008
_cell_length_b 6.935265
_cell_length_c 26.940772
_cell_angle_alpha 90.000000
_cell_angle_beta 30.370099
_cell_angle_gamma 90.000000
_cell_volume 2330.615068
_symmetry_space_group_name_H-M "C 2/C"
_symmetry_group_IT_number 15
_symmetry_cell_setting 'monoclinic'
loop_
_space_group_symop_operation_xyz
x,y,z
-x,y,1/2-z
-x,-y,-z
x,-y,1/2+z
1/2+x,1/2+y,z
1/2-x,1/2+y,1/2-z
1/2-x,1/2-y,-z
1/2+x,1/2-y,1/2+z
loop_
_atom_site_type_symbol
_atom_site_label
_atom_site_fract_x
_atom_site_fract_y
_atom_site_fract_z
Si Si1 0.621026 0.251741 0.162425
Si Si2 0.490871 0.610129 0.436088
Si Si3 0.866064 0.222174 0.085558
Si Si4 0.070748 0.493060 0.553463
Si Si5 0.875213 0.787228 0.226026
Si Si6 0.256811 0.977670 0.497512
O O1 0.500000 0.184905 0.250000
O O2 0.635215 0.323062 0.207032
O O3 0.702018 0.078701 0.085078
O O4 0.648282 0.422719 0.102326
O O5 0.553536 0.714607 0.431566
O O6 0.397076 0.473291 0.531496
O O7 0.445356 0.779229 0.438475
O O8 0.573123 0.468469 0.343035
O O9 0.743032 0.233395 0.199311
O O10 0.888774 0.398008 0.029923
O O11 0.156029 0.460374 0.529693
O O12 0.959135 0.387085 0.653292
O O13 0.250000 0.750000 0.500000
#
# Coordination Sequence:
#
# PCOD9296766 Si02
#       6
#     8   8   8   8   8   8
#     4  11  24  45  62  89 132 165 207 273 318 371
#     4  10  25  41  67  93 128 166 211 264 312 386
#     4  10  23  46  62  93 130 168 206 263 325 370
#     4  11  23  42  65  94 125 168 213 262 316 379
#     4  11  24  41  66  95 126 166 212 259 323 377
#     4  11  26  40  66  93 126 172 216 258 321 381
#
# _framework density 20.595421000000002
#
# number of rings (size 3 to 8) (size 9 to 14) (size 15 to 20)
#    0.000    1.333    3.333    0.500    7.000    3.333 
#    0.000    0.000    0.000    0.000    0.000    0.000 
#    0.000    0.000    0.000    0.000    0.000    0.000 
#
# Total GULP energy -134176.470275 kJ/mol
# GULP energy per Si atom -5590.686261 kJ/mol
# Density = 2.054855 g / cm^3
# Si number density = 20.595421 Si / 1000 Ang^3
#
#
#
# Elastic Constant Matrix: (Units=GPa)
#
#
# Indices 1 2 3 4 5 6 
#
# 1 49.5816 3.5597 1.7393 -0.0078 1.6715 0.0104
# 2 3.5597 90.2650 21.7961 -0.0088 0.8857 0.0069
# 3 1.7393 21.7961 81.4361 -0.0036 0.9365 0.0075
# 4 -0.0078 -0.0088 -0.0036 6.4715 0.0021 -2.2860
# 5 1.6715 0.8857 0.9365 0.0021 27.8527 -0.0050
# 6 0.0104 0.0069 0.0075 -2.2860 -0.0050 31.4011
#
#
#
# Elastic Compliance Matrix: (Units=1/GPa)
#
#
# Indices 1 2 3 4 5 6 
#
# 1 0.020269 -0.000734 -0.000223 0.000022 -0.001186 -0.000005
# 2 -0.000734 0.011873 -0.003159 0.000013 -0.000227 -0.000001
# 3 -0.000223 -0.003159 0.013134 0.000002 -0.000328 -0.000002
# 4 0.000022 0.000013 0.000002 0.158602 -0.000012 0.011546
# 5 -0.001186 -0.000227 -0.000328 -0.000012 0.035993 0.000005
# 6 -0.000005 -0.000001 -0.000002 0.011546 0.000005 0.032687
#
#
# Mechanical properties :
#
#
# Convention : Reuss Voigt Hill
#
# Bulk Modulus (GPa) = 26.99546 30.60811 28.80178
# Shear Modulus (GPa) = 17.05690 26.09091 21.57390
#
# Velocity S-wave (km/s) = 2.88095 3.56312 3.24004
# Velocity P-wave (km/s) = 4.91960 5.64107 5.29264
#
# Compressibility (1/GPa) = 0.03704327
#
# Stress axis : x y z
#
# Youngs Moduli (GPa) = 49.33582 84.22788 76.14007
#
# Poissons Ratio (x) = 0.06181 0.01697
# Poissons Ratio (y) = 0.03621 0.24055
# Poissons Ratio (z) = 0.01099 0.26611
#
# Static dielectric constant tensor:
#      x y z
#    x 1.747450 -0.000010 0.011440 
#    y -0.000010 1.695330 0.000000 
#    z 0.011440 0.000000 1.732670 
# 
# From -- ./inp_files/319238.got.cif
#   From: 2010.05.17/outbox.cif.g08.bks.cpg/sg15_160_cif.got.tgz:319238.got - 2010.06.03 18:47:42.
