data_PCOD9296352
_publ_section_title
;
Structure prediction by ZEFSAII (Michael W. Deem and Ramdas Pophale) SiO2 
 PCOD9296352
Probable space group: C 2/C
;
_chemical_formula_sum "Si O2"
_cell_formula_units_Z 32
_cell_length_a 22.254891
_cell_length_b 5.093104
_cell_length_c 14.719872
_cell_angle_alpha 90.000000
_cell_angle_beta 47.964318
_cell_angle_gamma 90.000000
_cell_volume 1239.201206
_symmetry_space_group_name_H-M "C 2/C"
_symmetry_group_IT_number 15
_symmetry_cell_setting 'monoclinic'
loop_
_space_group_symop_operation_xyz
x,y,z
-x,y,1/2-z
-x,-y,-z
x,-y,1/2+z
1/2+x,1/2+y,z
1/2-x,1/2+y,1/2-z
1/2-x,1/2-y,-z
1/2+x,1/2-y,1/2+z
loop_
_atom_site_type_symbol
_atom_site_label
_atom_site_fract_x
_atom_site_fract_y
_atom_site_fract_z
Si Si1 0.297865 0.427717 0.176130
Si Si2 0.032691 0.530986 0.614323
Si Si3 0.438397 0.466737 0.171764
Si Si4 0.165401 0.845330 0.044625
O O1 0.272186 0.140787 0.234795
O O2 0.372129 0.521199 0.163024
O O3 0.316172 0.441881 0.051099
O O4 0.119343 0.392294 0.539358
O O5 0.000000 0.536580 0.750000
O O6 0.977781 0.317378 0.618442
O O7 0.008778 0.816350 0.602348
O O8 0.391537 0.452892 0.316657
O O9 0.250000 0.750000 0.000000
#
# Coordination Sequence:
#
# PCOD9296352 Si02
#       4
#     8   8   8   8
#     4  12  27  45  72 110 147 188 246 305 357 430
#     4  10  23  44  72 104 141 188 237 297 361 429
#     4  11  24  47  72 102 147 185 240 302 356 433
#     4  11  25  49  76 110 144 200 240 301 372 430
#
# _framework density 25.823087000000001
#
# number of rings (size 3 to 8) (size 9 to 14) (size 15 to 20)
#    0.000    1.000    2.500    3.750    3.500    9.000 
#    0.000    0.000    0.000    1.500    0.000    0.000 
#    0.000    0.000    0.000    0.000    0.000    0.000 
#
# Total GULP energy -89766.511012 kJ/mol
# GULP energy per Si atom -5610.406938 kJ/mol
# Density = 2.576431 g / cm^3
# Si number density = 25.823087 Si / 1000 Ang^3
#
#
#
# Elastic Constant Matrix: (Units=GPa)
#
#
# Indices 1 2 3 4 5 6 
#
# 1 133.3687 -1.7393 33.9775 -0.0114 -9.1594 0.0147
# 2 -1.7393 114.0825 31.9005 -0.0576 3.5415 0.0424
# 3 33.9775 31.9005 128.6786 -0.0151 23.0219 0.0034
# 4 -0.0114 -0.0576 -0.0151 30.9645 0.0047 -6.3561
# 5 -9.1594 3.5415 23.0219 0.0047 61.3796 -0.0082
# 6 0.0147 0.0424 0.0034 -6.3561 -0.0082 29.1766
#
#
#
# Elastic Compliance Matrix: (Units=1/GPa)
#
#
# Indices 1 2 3 4 5 6 
#
# 1 0.008385 0.000849 -0.002830 0.000002 0.002264 -0.000004
# 2 0.000849 0.009512 -0.002687 0.000014 0.000586 -0.000011
# 3 -0.002830 -0.002687 0.009896 0.000000 -0.003979 0.000003
# 4 0.000002 0.000014 0.000000 0.033807 -0.000002 0.007365
# 5 0.002264 0.000586 -0.003979 -0.000002 0.018089 0.000003
# 6 -0.000004 -0.000011 0.000003 0.007365 0.000003 0.035879
#
#
# Mechanical properties :
#
#
# Convention : Reuss Voigt Hill
#
# Bulk Modulus (GPa) = 54.17657 56.04524 55.11090
# Shear Modulus (GPa) = 38.15175 45.10354 41.62765
#
# Velocity S-wave (km/s) = 3.84790 4.18381 4.01937
# Velocity P-wave (km/s) = 6.38492 6.71489 6.55198
#
# Compressibility (1/GPa) = 0.01845816
#
# Stress axis : x y z
#
# Youngs Moduli (GPa) = 119.25471 105.13369 101.04615
#
# Poissons Ratio (x) = -0.08924 0.28592
# Poissons Ratio (y) = -0.10122 0.27150
# Poissons Ratio (z) = 0.33744 0.28249
#
# Static dielectric constant tensor:
#      x y z
#    x 1.968140 -0.000030 0.007640 
#    y -0.000030 2.007930 0.000000 
#    z 0.007640 0.000000 2.060850 
# 
# From -- ./inp_files/258236.got.cif
#   From: 2010.05.17/outbox.cif.g08.bks.cpg/sg15_130_cif.got.tgz:258236.got - 2010.06.03 18:47:42.
