data_PCOD9296042
_publ_section_title
;
Structure prediction by ZEFSAII (Michael W. Deem and Ramdas Pophale) SiO2 
 PCOD9296042
Probable space group: C 2/C
;
_chemical_formula_sum "Si O2"
_cell_formula_units_Z 56
_cell_length_a 6.757117
_cell_length_b 21.212880
_cell_length_c 20.825883
_cell_angle_alpha 90.000000
_cell_angle_beta 64.088117
_cell_angle_gamma 90.000000
_cell_volume 2685.034150
_symmetry_space_group_name_H-M "C 2/C"
_symmetry_group_IT_number 15
_symmetry_cell_setting 'monoclinic'
loop_
_space_group_symop_operation_xyz
x,y,z
-x,y,1/2-z
-x,-y,-z
x,-y,1/2+z
1/2+x,1/2+y,z
1/2-x,1/2+y,1/2-z
1/2-x,1/2-y,-z
1/2+x,1/2-y,1/2+z
loop_
_atom_site_type_symbol
_atom_site_label
_atom_site_fract_x
_atom_site_fract_y
_atom_site_fract_z
Si Si1 0.890335 0.514914 0.946600
Si Si2 0.529789 0.584925 0.448806
Si Si3 0.604478 0.230684 0.621640
Si Si4 0.500000 0.134237 0.750000
Si Si5 0.737215 0.026958 0.787794
Si Si6 0.939988 0.229379 0.018968
Si Si7 0.456298 0.367768 0.682540
Si Si8 0.500000 0.913115 0.750000
O O1 0.742437 0.457059 0.937802
O O2 0.090708 0.537030 0.872744
O O3 0.692279 0.565278 0.982758
O O4 0.000000 0.500000 0.000000
O O5 0.580958 0.657307 0.455857
O O6 0.464759 0.582055 0.382201
O O7 0.572391 0.178389 0.680442
O O8 0.447585 0.227031 0.581355
O O9 0.562089 0.299660 0.657233
O O10 0.840257 0.232342 0.554523
O O11 0.685221 0.085841 0.748467
O O12 0.000000 0.021433 0.750000
O O13 0.625309 0.962528 0.777958
O O14 0.750000 0.250000 0.000000
O O15 0.500000 0.383349 0.750000
O O16 0.197469 0.367706 0.702285
#
# Coordination Sequence:
#
# PCOD9296042 Si02
#       8
#     8   8   8   4   8   8   8   4
#     4  11  25  43  71  98 139 182 233 287 356 410
#     4  10  24  44  67 104 133 177 235 286 337 428
#     4  10  23  44  66 106 135 183 230 286 340 427
#     4  11  24  46  68  96 146 179 236 288 350 423
#     4  11  26  45  69 100 137 187 230 291 354 420
#     4  10  23  44  72  97 142 179 231 281 357 410
#     4  11  23  41  71  97 139 179 230 290 349 406
#     4  11  24  42  66  96 138 173 232 292 346 403
#
# _framework density 20.856345000000001
#
# number of rings (size 3 to 8) (size 9 to 14) (size 15 to 20)
#    0.000    1.429    2.143    1.286    4.000   10.286 
#    1.286    0.000    0.000    0.000    0.000    0.000 
#    0.000    0.000    0.000    0.000    0.000    0.000 
#
# Total GULP energy -156149.744744 kJ/mol
# GULP energy per Si atom -5576.776598 kJ/mol
# Density = 2.080888 g / cm^3
# Si number density = 20.856345 Si / 1000 Ang^3
#
#
#
# Elastic Constant Matrix: (Units=GPa)
#
#
# Indices 1 2 3 4 5 6 
#
# 1 132.6711 45.1091 79.1752 0.0000 9.9729 0.0000
# 2 45.1091 92.2051 55.9141 0.0000 8.8389 0.0000
# 3 79.1752 55.9141 148.0705 0.0000 5.5234 0.0000
# 4 0.0000 0.0000 0.0000 21.3916 0.0000 -1.7439
# 5 9.9729 8.8389 5.5234 0.0000 41.1260 0.0000
# 6 0.0000 0.0000 0.0000 -1.7439 0.0000 21.6847
#
#
#
# Elastic Compliance Matrix: (Units=1/GPa)
#
#
# Indices 1 2 3 4 5 6 
#
# 1 0.011586 -0.002327 -0.005257 0.000000 -0.001604 0.000000
# 2 -0.002327 0.014758 -0.004253 0.000000 -0.002036 0.000000
# 3 -0.005257 -0.004253 0.011145 0.000000 0.000692 0.000000
# 4 0.000000 0.000000 0.000000 0.047056 0.000000 0.003784
# 5 -0.001604 -0.002036 0.000692 0.000000 0.025049 0.000000
# 6 0.000000 0.000000 0.000000 0.003784 0.000000 0.046420
#
#
# Mechanical properties :
#
#
# Convention : Reuss Voigt Hill
#
# Bulk Modulus (GPa) = 72.38027 81.48262 76.93144
# Shear Modulus (GPa) = 27.13097 29.69035 28.41066
#
# Velocity S-wave (km/s) = 3.61064 3.77711 3.69481
# Velocity P-wave (km/s) = 7.22232 7.62728 7.42756
#
# Compressibility (1/GPa) = 0.01381592
#
# Stress axis : x y z
#
# Youngs Moduli (GPa) = 86.30890 67.76082 89.72989
#
# Poissons Ratio (x) = 0.15766 0.47170
# Poissons Ratio (y) = 0.20082 0.38159
# Poissons Ratio (z) = 0.45372 0.28817
#
# Static dielectric constant tensor:
#      x y z
#    x 1.738170 0.000000 0.013970 
#    y 0.000000 1.758120 0.000000 
#    z 0.013970 0.000000 1.858890 
# 
# From -- ./inp_files/228108.got.cif
#   From: 2010.05.17/outbox.cif.g08.bks.cpg/sg15_115_cif.got.tgz:228108.got - 2010.06.03 18:47:42.
