data_PCOD9296286
_publ_section_title
;
Structure prediction by ZEFSAII (Michael W. Deem and Ramdas Pophale) SiO2 
 PCOD9296286
Probable space group: C 2/C
;
_chemical_formula_sum "Si O2"
_cell_formula_units_Z 40
_cell_length_a 14.374538
_cell_length_b 11.677494
_cell_length_c 10.876449
_cell_angle_alpha 90.000000
_cell_angle_beta 92.168782
_cell_angle_gamma 90.000000
_cell_volume 1824.397516
_symmetry_space_group_name_H-M "C 2/C"
_symmetry_group_IT_number 15
_symmetry_cell_setting 'monoclinic'
loop_
_space_group_symop_operation_xyz
x,y,z
-x,y,1/2-z
-x,-y,-z
x,-y,1/2+z
1/2+x,1/2+y,z
1/2-x,1/2+y,1/2-z
1/2-x,1/2-y,-z
1/2+x,1/2-y,1/2+z
loop_
_atom_site_type_symbol
_atom_site_label
_atom_site_fract_x
_atom_site_fract_y
_atom_site_fract_z
Si Si1 0.169716 0.692474 0.172805
Si Si2 0.389543 0.946906 0.252605
Si Si3 0.233013 0.847248 0.397406
Si Si4 0.055266 0.991018 0.875500
Si Si5 0.636541 0.260200 0.923404
O O1 0.139328 0.579317 0.242501
O O2 0.194739 0.784179 0.274999
O O3 0.263286 0.679663 0.095639
O O4 0.103715 0.740548 0.062112
O O5 0.500000 0.940843 0.250000
O O6 0.334349 0.898128 0.368238
O O7 0.359276 0.863854 0.140140
O O8 0.250000 0.750000 0.500000
O O9 0.152774 0.942804 0.409825
O O10 0.071962 0.854881 0.857410
O O11 0.000000 0.032941 0.750000
O O12 0.000000 0.000000 0.000000
#
# Coordination Sequence:
#
# PCOD9296286 Si02
#       5
#     8   8   8   8   8
#     4  10  23  44  70  99 144 192 236 299 374 444
#     4  11  25  44  72 103 141 187 242 300 375 443
#     4  11  27  46  72 104 148 189 244 306 375 446
#     4  12  27  46  79 109 148 197 259 309 376 448
#     4  10  23  44  71 101 147 187 244 302 368 444
#
# _framework density 21.925045999999998
#
# number of rings (size 3 to 8) (size 9 to 14) (size 15 to 20)
#    0.000    1.200    2.000    1.800   11.200    4.800 
#    0.000    0.000    0.000    0.000    0.000    0.000 
#    0.000    0.000    0.000    0.000    0.000    0.000 
#
# Total GULP energy -111405.006407 kJ/mol
# GULP energy per Si atom -5570.250320 kJ/mol
# Density = 2.187514 g / cm^3
# Si number density = 21.925046 Si / 1000 Ang^3
#
#
#
# Elastic Constant Matrix: (Units=GPa)
#
#
# Indices 1 2 3 4 5 6 
#
# 1 103.8425 56.8766 43.8630 0.0000 -19.5201 0.0000
# 2 56.8766 114.3025 36.9354 0.0000 -7.1329 0.0000
# 3 43.8630 36.9354 99.5675 0.0000 -9.5611 0.0000
# 4 0.0000 0.0000 0.0000 28.9670 0.0000 8.4914
# 5 -19.5201 -7.1329 -9.5611 0.0000 28.4127 0.0000
# 6 0.0000 0.0000 0.0000 8.4914 0.0000 17.4297
#
#
#
# Elastic Compliance Matrix: (Units=1/GPa)
#
#
# Indices 1 2 3 4 5 6 
#
# 1 0.016364 -0.006309 -0.004072 0.000000 0.008288 0.000000
# 2 -0.006309 0.012419 -0.002009 0.000000 -0.001893 0.000000
# 3 -0.004072 -0.002009 0.012675 0.000000 0.000963 0.000000
# 4 0.000000 0.000000 0.000000 0.040274 0.000000 -0.019621
# 5 0.008288 -0.001893 0.000963 0.000000 0.040738 0.000000
# 6 0.000000 0.000000 0.000000 -0.019621 0.000000 0.066932
#
#
# Mechanical properties :
#
#
# Convention : Reuss Voigt Hill
#
# Bulk Modulus (GPa) = 59.96579 65.89585 62.93082
# Shear Modulus (GPa) = 22.75371 26.96438 24.85905
#
# Velocity S-wave (km/s) = 3.22498 3.51072 3.37088
# Velocity P-wave (km/s) = 6.42472 6.82304 6.62687
#
# Compressibility (1/GPa) = 0.01667618
#
# Stress axis : x y z
#
# Youngs Moduli (GPa) = 61.10980 80.51883 78.89318
#
# Poissons Ratio (x) = 0.50803 0.32129
# Poissons Ratio (y) = 0.38557 0.15852
# Poissons Ratio (z) = 0.24887 0.16179
#
# Static dielectric constant tensor:
#      x y z
#    x 1.915040 0.000000 0.060350 
#    y 0.000000 1.795500 0.000000 
#    z 0.060350 0.000000 1.833620 
# 
# From -- ./inp_files/94534.got.cif
#   From: 2010.05.17/outbox.cif.g08.bks.cpg/sg15_48_cif.got.tgz:94534.got - 2010.06.03 18:47:42.
