data_PCOD9296321
_publ_section_title
;
Structure prediction by ZEFSAII (Michael W. Deem and Ramdas Pophale) SiO2 
 PCOD9296321
Probable space group: C 2/C
;
_chemical_formula_sum "Si O2"
_cell_formula_units_Z 60
_cell_length_a 24.598988
_cell_length_b 16.684197
_cell_length_c 9.248947
_cell_angle_alpha 90.000000
_cell_angle_beta 132.524870
_cell_angle_gamma 90.000000
_cell_volume 2797.518137
_symmetry_space_group_name_H-M "C 2/C"
_symmetry_group_IT_number 15
_symmetry_cell_setting 'monoclinic'
loop_
_space_group_symop_operation_xyz
x,y,z
-x,y,1/2-z
-x,-y,-z
x,-y,1/2+z
1/2+x,1/2+y,z
1/2-x,1/2+y,1/2-z
1/2-x,1/2-y,-z
1/2+x,1/2-y,1/2+z
loop_
_atom_site_type_symbol
_atom_site_label
_atom_site_fract_x
_atom_site_fract_y
_atom_site_fract_z
Si Si1 0.124281 0.862693 0.439907
Si Si2 0.438748 0.063017 0.046921
Si Si3 0.561662 0.640315 0.538906
Si Si4 0.844412 0.481076 0.630972
Si Si5 0.712424 0.106716 0.199751
Si Si6 0.000000 0.001496 0.750000
Si Si7 0.946213 0.738492 0.980420
Si Si8 0.086382 0.722493 0.883238
O O1 0.127412 0.864468 0.271690
O O2 0.203715 0.865661 0.655548
O O3 0.086721 0.783822 0.441543
O O4 0.070067 0.938810 0.368472
O O5 0.500000 0.015758 0.250000
O O6 0.376051 0.073630 0.057563
O O7 0.407423 0.018037 0.850915
O O8 0.471288 0.148564 0.059442
O O9 0.520582 0.559483 0.417733
O O10 0.505315 0.700475 0.518501
O O11 0.586967 0.686984 0.442472
O O12 0.804794 0.550218 0.468148
O O13 0.794319 0.437852 0.658451
O O14 0.645938 0.170897 0.076069
O O15 0.892773 0.723372 0.747633
O O16 0.000000 0.694674 0.750000
#
# Coordination Sequence:
#
# PCOD9296321 Si02
#       8
#     8   8   8   8   8   4   8   8
#     4  12  27  41  72 100 139 175 239 281 351 417
#     4  11  22  40  71  96 131 176 229 282 334 412
#     4  11  23  45  70 105 130 180 230 286 357 406
#     4  10  25  44  60  97 139 177 226 272 351 396
#     4  11  26  46  64 102 139 188 225 286 342 418
#     4  12  24  44  74 104 136 178 230 294 350 406
#     4  11  22  44  66 103 131 176 222 289 339 408
#     4  10  23  44  71  95 141 177 229 284 344 413
#
# _framework density 21.447581
#
# number of rings (size 3 to 8) (size 9 to 14) (size 15 to 20)
#    0.000    1.067    4.667    1.600    7.467    3.200 
#    0.000    0.000    0.000    0.000    0.000    0.000 
#    0.000    0.000    0.000    0.000    0.000    0.000 
#
# Total GULP energy -167247.758979 kJ/mol
# GULP energy per Si atom -5574.925299 kJ/mol
# Density = 2.139877 g / cm^3
# Si number density = 21.447581 Si / 1000 Ang^3
#
#
#
# Elastic Constant Matrix: (Units=GPa)
#
#
# Indices 1 2 3 4 5 6 
#
# 1 32.4634 5.6823 24.3029 0.0000 -3.3139 0.0000
# 2 5.6823 70.7064 13.3580 0.0000 4.3804 0.0000
# 3 24.3029 13.3580 118.8906 0.0000 -2.8388 0.0000
# 4 0.0000 0.0000 0.0000 -20.3725 0.0000 -15.7933
# 5 -3.3139 4.3804 -2.8388 0.0000 49.4584 0.0000
# 6 0.0000 0.0000 0.0000 -15.7933 0.0000 12.5368
#
#
#
# Elastic Compliance Matrix: (Units=1/GPa)
#
#
# Indices 1 2 3 4 5 6 
#
# 1 0.036772 -0.001718 -0.007271 0.000000 0.002199 0.000000
# 2 -0.001718 0.014624 -0.001327 0.000000 -0.001486 0.000000
# 3 -0.007271 -0.001327 0.010052 0.000000 0.000207 0.000000
# 4 0.000000 0.000000 0.000000 -0.024834 0.000000 -0.031284
# 5 0.002199 -0.001486 0.000207 0.000000 0.020510 0.000000
# 6 0.000000 0.000000 0.000000 -0.031284 0.000000 0.040355
#
#
# Mechanical properties :
#
#
# Convention : Reuss Voigt Hill
#
# Bulk Modulus (GPa) = 24.50080 34.30521 29.40301
# Shear Modulus (GPa) = 37.96010 20.23902 29.09956
#
# Velocity S-wave (km/s) = 4.21158 3.07522 3.68744
# Velocity P-wave (km/s) = 5.92438 5.35154 5.64523
#
# Compressibility (1/GPa) = 0.04081499
#
# Stress axis : x y z
#
# Youngs Moduli (GPa) = 27.19424 68.38118 99.48717
#
# Poissons Ratio (x) = 0.11746 0.72340
# Poissons Ratio (y) = 0.04671 0.13206
# Poissons Ratio (z) = 0.19774 0.09077
#
# Static dielectric constant tensor:
#      x y z
#    x 1.838710 0.000000 0.017840 
#    y 0.000000 1.780590 0.000000 
#    z 0.017840 0.000000 1.866760 
# 
# From -- ./inp_files/67044.got.cif
#   From: 2010.05.17/outbox.cif.g08.bks.cpg/sg15_34_cif.got.tgz:67044.got - 2010.06.03 18:47:42.
