data_PCOD9296306
_publ_section_title
;
Structure prediction by ZEFSAII (Michael W. Deem and Ramdas Pophale) SiO2 
 PCOD9296306
Probable space group: C 2/C
;
_chemical_formula_sum "Si O2"
_cell_formula_units_Z 40
_cell_length_a 26.189260
_cell_length_b 7.852317
_cell_length_c 10.529836
_cell_angle_alpha 90.000000
_cell_angle_beta 43.361592
_cell_angle_gamma 90.000000
_cell_volume 1486.779783
_symmetry_space_group_name_H-M "C 2/C"
_symmetry_group_IT_number 15
_symmetry_cell_setting 'monoclinic'
loop_
_space_group_symop_operation_xyz
x,y,z
-x,y,1/2-z
-x,-y,-z
x,-y,1/2+z
1/2+x,1/2+y,z
1/2-x,1/2+y,1/2-z
1/2-x,1/2-y,-z
1/2+x,1/2-y,1/2+z
loop_
_atom_site_type_symbol
_atom_site_label
_atom_site_fract_x
_atom_site_fract_y
_atom_site_fract_z
Si Si1 0.414929 0.843026 0.921049
Si Si2 0.424652 0.611191 0.148364
Si Si3 0.287286 0.501232 0.270672
Si Si4 0.353196 0.200821 0.995054
Si Si5 0.695486 0.341701 0.041207
O O1 0.500000 0.878522 0.750000
O O2 0.383242 0.749377 0.854440
O O3 0.407565 0.711308 0.049804
O O4 0.375836 0.020843 0.015499
O O5 0.416791 0.741001 0.279040
O O6 0.345218 0.509128 0.303576
O O7 0.500000 0.500000 0.000000
O O8 0.347706 0.350102 0.106052
O O9 0.226714 0.655916 0.421897
O O10 0.244207 0.348434 0.439172
O O11 0.278679 0.566768 0.135526
#
# Coordination Sequence:
#
# PCOD9296306 Si02
#       5
#     8   8   8   8   8
#     4  12  27  48  69  98 141 189 235 286 342 409
#     4  10  25  43  70 104 138 181 232 282 350 410
#     4  10  24  39  74 101 144 171 229 282 354 408
#     4  12  24  42  69 106 141 180 227 288 346 417
#     4  10  23  44  71 104 138 175 224 290 346 412
#
# _framework density 26.903782
#
# number of rings (size 3 to 8) (size 9 to 14) (size 15 to 20)
#    1.200    0.000    2.000    3.000    5.600    1.600 
#    3.600    2.000    0.000    0.000    0.000    0.000 
#    0.000    0.000    0.000    0.000    0.000    0.000 
#
# Total GULP energy -111478.315633 kJ/mol
# GULP energy per Si atom -5573.915782 kJ/mol
# Density = 2.684255 g / cm^3
# Si number density = 26.903782 Si / 1000 Ang^3
#
#
#
# Elastic Constant Matrix: (Units=GPa)
#
#
# Indices 1 2 3 4 5 6 
#
# 1 151.7867 65.3964 74.7939 0.0000 -4.4341 0.0000
# 2 65.3964 158.0572 63.4836 0.0000 12.6627 0.0000
# 3 74.7939 63.4836 131.4506 0.0000 -13.4900 0.0000
# 4 0.0000 0.0000 0.0000 26.9861 0.0000 -10.3842
# 5 -4.4341 12.6627 -13.4900 0.0000 60.7492 0.0000
# 6 0.0000 0.0000 0.0000 -10.3842 0.0000 69.6035
#
#
#
# Elastic Compliance Matrix: (Units=1/GPa)
#
#
# Indices 1 2 3 4 5 6 
#
# 1 0.009758 -0.002273 -0.004434 0.000000 0.000201 0.000000
# 2 -0.002273 0.008780 -0.003225 0.000000 -0.002712 0.000000
# 3 -0.004434 -0.003225 0.011997 0.000000 0.003013 0.000000
# 4 0.000000 0.000000 0.000000 0.039313 0.000000 0.005865
# 5 0.000201 -0.002712 0.003013 0.000000 0.017710 0.000000
# 6 0.000000 0.000000 0.000000 0.005865 0.000000 0.015242
#
#
# Mechanical properties :
#
#
# Convention : Reuss Voigt Hill
#
# Bulk Modulus (GPa) = 93.71179 94.29357 94.00268
# Shear Modulus (GPa) = 39.61279 47.30914 43.46096
#
# Velocity S-wave (km/s) = 3.84133 4.19794 4.02359
# Velocity P-wave (km/s) = 7.38798 7.65647 7.52342
#
# Compressibility (1/GPa) = 0.01067102
#
# Stress axis : x y z
#
# Youngs Moduli (GPa) = 102.47868 113.89612 83.35244
#
# Poissons Ratio (x) = 0.25884 0.36959
# Poissons Ratio (y) = 0.23290 0.26885
# Poissons Ratio (z) = 0.45439 0.36737
#
# Static dielectric constant tensor:
#      x y z
#    x 2.176050 0.000000 -0.105260 
#    y 0.000000 2.532200 0.000000 
#    z -0.105260 0.000000 2.174880 
# 
# From -- ./inp_files/109566.got.cif
#   From: 2010.05.17/outbox.cif.g08.bks.cpg/sg15_55_cif.got.tgz:109566.got - 2010.06.03 18:47:42.
