data_PCOD9296733
_publ_section_title
;
Structure prediction by ZEFSAII (Michael W. Deem and Ramdas Pophale) SiO2 
 PCOD9296733
Probable space group: C 2/C
;
_chemical_formula_sum "Si O2"
_cell_formula_units_Z 36
_cell_length_a 15.009850
_cell_length_b 7.947853
_cell_length_c 14.345102
_cell_angle_alpha 90.000000
_cell_angle_beta 100.676354
_cell_angle_gamma 90.000000
_cell_volume 1681.690468
_symmetry_space_group_name_H-M "C 2/C"
_symmetry_group_IT_number 15
_symmetry_cell_setting 'monoclinic'
loop_
_space_group_symop_operation_xyz
x,y,z
-x,y,1/2-z
-x,-y,-z
x,-y,1/2+z
1/2+x,1/2+y,z
1/2-x,1/2+y,1/2-z
1/2-x,1/2-y,-z
1/2+x,1/2-y,1/2+z
loop_
_atom_site_type_symbol
_atom_site_label
_atom_site_fract_x
_atom_site_fract_y
_atom_site_fract_z
Si Si1 0.574699 0.552336 0.589554
Si Si2 0.095215 0.441432 0.564218
Si Si3 0.232737 0.425240 0.944460
Si Si4 0.500000 0.648371 0.250000
Si Si5 0.098892 0.529288 0.766260
O O1 0.500000 0.500000 0.500000
O O2 0.581212 0.752478 0.595810
O O3 0.830601 0.426346 0.659665
O O4 0.544721 0.463866 0.679300
O O5 0.175624 0.461183 0.505787
O O6 0.120538 0.547701 0.661377
O O7 0.000000 0.500000 0.500000
O O8 0.328730 0.491946 0.929356
O O9 0.250000 0.250000 0.000000
O O10 0.423875 0.782966 0.198821
O O11 0.000000 0.443665 0.750000
#
# Coordination Sequence:
#
# PCOD9296733 Si02
#       5
#     8   8   8   4   8
#     4  12  27  42  69 105 143 185 237 296 355 430
#     4  12  24  46  73 102 146 190 237 295 361 425
#     4  12  26  45  73 109 144 190 244 296 363 436
#     4  10  24  46  72 100 146 182 244 288 364 418
#     4  10  23  45  74  99 145 186 237 295 369 417
#
# _framework density 21.407031
#
# number of rings (size 3 to 8) (size 9 to 14) (size 15 to 20)
#    0.667    0.000    2.222    6.000    1.556    5.333 
#    0.000    0.000    0.000    0.000    0.000    0.000 
#    0.000    0.000    0.000    0.000    0.000    0.000 
#
# Total GULP energy -100595.757998 kJ/mol
# GULP energy per Si atom -5588.653222 kJ/mol
# Density = 2.135831 g / cm^3
# Si number density = 21.407031 Si / 1000 Ang^3
#
#
#
# Elastic Constant Matrix: (Units=GPa)
#
#
# Indices 1 2 3 4 5 6 
#
# 1 178.8039 55.3282 86.4857 0.0000 -6.8844 0.0000
# 2 55.3282 147.1996 45.1094 0.0000 -9.0213 0.0000
# 3 86.4857 45.1094 139.7228 0.0000 -17.2658 0.0000
# 4 0.0000 0.0000 0.0000 38.0627 0.0000 -4.1246
# 5 -6.8844 -9.0213 -17.2658 0.0000 46.8894 0.0000
# 6 0.0000 0.0000 0.0000 -4.1246 0.0000 31.8936
#
#
#
# Elastic Compliance Matrix: (Units=1/GPa)
#
#
# Indices 1 2 3 4 5 6 
#
# 1 0.008393 -0.001756 -0.004733 0.000000 -0.000848 0.000000
# 2 -0.001756 0.007922 -0.001377 0.000000 0.000759 0.000000
# 3 -0.004733 -0.001377 0.010909 0.000000 0.003057 0.000000
# 4 0.000000 0.000000 0.000000 0.026646 0.000000 0.003446
# 5 -0.000848 0.000759 0.003057 0.000000 0.022474 0.000000
# 6 0.000000 0.000000 0.000000 0.003446 0.000000 0.031800
#
#
# Mechanical properties :
#
#
# Convention : Reuss Voigt Hill
#
# Bulk Modulus (GPa) = 87.01627 93.28585 90.15106
# Shear Modulus (GPa) = 39.15264 41.95601 40.55432
#
# Velocity S-wave (km/s) = 4.28128 4.43190 4.35724
# Velocity P-wave (km/s) = 8.07315 8.35828 8.21695
#
# Compressibility (1/GPa) = 0.01149210
#
# Stress axis : x y z
#
# Youngs Moduli (GPa) = 119.15161 126.23010 91.66950
#
# Poissons Ratio (x) = 0.22169 0.43385
# Poissons Ratio (y) = 0.20926 0.12620
# Poissons Ratio (z) = 0.56391 0.17378
#
# Static dielectric constant tensor:
#      x y z
#    x 1.791550 0.000000 0.000800 
#    y 0.000000 1.804560 0.000000 
#    z 0.000800 0.000000 1.843910 
# 
# From -- ./inp_files/150259.got.cif
#   From: 2010.05.17/outbox.cif.g08.bks.cpg/sg15_76_cif.got.tgz:150259.got - 2010.06.03 18:47:42.
