data_PCOD9296949
_publ_section_title
;
Structure prediction by ZEFSAII (Michael W. Deem and Ramdas Pophale) SiO2 
 PCOD9296949
Probable space group: C 2/C
;
_chemical_formula_sum "Si O2"
_cell_formula_units_Z 32
_cell_length_a 8.413132
_cell_length_b 32.472967
_cell_length_c 5.194679
_cell_angle_alpha 90.000000
_cell_angle_beta 119.780920
_cell_angle_gamma 90.000000
_cell_volume 1231.752752
_symmetry_space_group_name_H-M "C 2/C"
_symmetry_group_IT_number 15
_symmetry_cell_setting 'monoclinic'
loop_
_space_group_symop_operation_xyz
x,y,z
-x,y,1/2-z
-x,-y,-z
x,-y,1/2+z
1/2+x,1/2+y,z
1/2-x,1/2+y,1/2-z
1/2-x,1/2-y,-z
1/2+x,1/2-y,1/2+z
loop_
_atom_site_type_symbol
_atom_site_label
_atom_site_fract_x
_atom_site_fract_y
_atom_site_fract_z
Si Si1 0.500000 0.336526 0.750000
Si Si2 0.266550 0.221935 0.262003
Si Si3 0.206144 0.985303 0.084610
Si Si4 0.197683 0.396736 0.538602
Si Si5 0.000000 0.653360 0.250000
O O1 0.410949 0.307170 0.886358
O O2 0.339249 0.365521 0.521481
O O3 0.250000 0.250000 0.500000
O O4 0.436069 0.189338 0.403682
O O5 0.250000 0.250000 0.000000
O O6 0.224187 0.941809 0.955015
O O7 0.291889 0.984343 0.439166
O O8 0.000000 0.000000 0.000000
O O9 0.000000 0.394226 0.250000
O O10 0.159872 0.379734 0.797903
#
# Coordination Sequence:
#
# PCOD9296949 Si02
#       5
#     4   8   8   8   4
#     4  10  24  48  74 106 146 200 246 306 384 454
#     4  11  24  45  73 106 146 197 250 307 370 450
#     4  10  23  46  74 106 145 195 255 305 375 457
#     4  11  26  48  74 109 153 198 250 318 385 454
#     4  10  26  44  68 106 154 184 252 308 376 440
#
# _framework density 25.979240000000001
#
# number of rings (size 3 to 8) (size 9 to 14) (size 15 to 20)
#    0.000    1.500    0.000    3.000   10.500    1.000 
#    9.000    0.000    0.000    0.000    0.000    0.000 
#    0.000    0.000    0.000    0.000    0.000    0.000 
#
# Total GULP energy -89069.341195 kJ/mol
# GULP energy per Si atom -5566.833825 kJ/mol
# Density = 2.592011 g / cm^3
# Si number density = 25.979240 Si / 1000 Ang^3
#
#
#
# Elastic Constant Matrix: (Units=GPa)
#
#
# Indices 1 2 3 4 5 6 
#
# 1 157.7655 102.2332 56.9586 0.0000 -14.5011 0.0000
# 2 102.2332 211.9295 51.7735 0.0000 -28.2609 0.0000
# 3 56.9586 51.7735 120.3322 0.0000 -34.0705 0.0000
# 4 0.0000 0.0000 0.0000 -1.5462 0.0000 -17.6699
# 5 -14.5011 -28.2609 -34.0705 0.0000 60.3717 0.0000
# 6 0.0000 0.0000 0.0000 -17.6699 0.0000 79.3792
#
#
#
# Elastic Compliance Matrix: (Units=1/GPa)
#
#
# Indices 1 2 3 4 5 6 
#
# 1 0.010214 -0.004292 -0.003407 0.000000 -0.001478 0.000000
# 2 -0.004292 0.007180 -0.000473 0.000000 0.002063 0.000000
# 3 -0.003407 -0.000473 0.011702 0.000000 0.005564 0.000000
# 4 0.000000 0.000000 0.000000 -0.182499 0.000000 -0.040624
# 5 -0.001478 0.002063 0.005564 0.000000 0.020315 0.000000
# 6 0.000000 0.000000 0.000000 -0.040624 0.000000 0.003555
#
#
# Mechanical properties :
#
#
# Convention : Reuss Voigt Hill
#
# Bulk Modulus (GPa) = 78.42277 101.32865 89.87571
# Shear Modulus (GPa) = -45.89706 46.24508 0.17401
#
# Velocity S-wave (km/s) = -4.20775 4.22367 0.25909
# Velocity P-wave (km/s) = 2.57786 7.92933 5.89574
#
# Compressibility (1/GPa) = 0.01275140
#
# Stress axis : x y z
#
# Youngs Moduli (GPa) = 97.90731 139.28152 85.45628
#
# Poissons Ratio (x) = 0.59779 0.29111
# Poissons Ratio (y) = 0.42021 0.04046
# Poissons Ratio (z) = 0.33353 0.06594
#
# Static dielectric constant tensor:
#      x y z
#    x 2.113040 0.000000 0.146050 
#    y 0.000000 2.056310 0.000000 
#    z 0.146050 0.000000 2.687450 
# 
# From -- ./inp_files/2732.got.cif
#   From: 2010.05.17/outbox.cif.g08.bks.cpg/sg15_2_cif.got.tgz:2732.got - 2010.06.03 18:47:42.
