data_PCOD9296489
_publ_section_title
;
Structure prediction by ZEFSAII (Michael W. Deem and Ramdas Pophale) SiO2 
 PCOD9296489
Probable space group: C 2/C
;
_chemical_formula_sum "Si O2"
_cell_formula_units_Z 40
_cell_length_a 28.032140
_cell_length_b 7.431611
_cell_length_c 13.583070
_cell_angle_alpha 90.000000
_cell_angle_beta 35.765572
_cell_angle_gamma 90.000000
_cell_volume 1653.863055
_symmetry_space_group_name_H-M "C 2/C"
_symmetry_group_IT_number 15
_symmetry_cell_setting 'monoclinic'
loop_
_space_group_symop_operation_xyz
x,y,z
-x,y,1/2-z
-x,-y,-z
x,-y,1/2+z
1/2+x,1/2+y,z
1/2-x,1/2+y,1/2-z
1/2-x,1/2-y,-z
1/2+x,1/2-y,1/2+z
loop_
_atom_site_type_symbol
_atom_site_label
_atom_site_fract_x
_atom_site_fract_y
_atom_site_fract_z
Si Si1 0.708134 0.375978 0.988932
Si Si2 0.337195 0.250661 0.908482
Si Si3 0.919065 0.805514 0.448148
Si Si4 0.576930 0.274409 0.547020
Si Si5 0.881308 0.514615 0.667550
O O1 0.785308 0.475139 0.811197
O O2 0.750000 0.250000 0.000000
O O3 0.645453 0.533289 0.131104
O O4 0.657577 0.267194 0.994222
O O5 0.347901 0.218745 0.006729
O O6 0.385810 0.093152 0.770438
O O7 0.250000 0.250000 0.000000
O O8 0.913871 0.676457 0.548211
O O9 0.000000 0.775067 0.250000
O O10 0.915828 0.014058 0.485034
O O11 0.500000 0.248041 0.750000
O O12 0.575903 0.162152 0.448270
#
# Coordination Sequence:
#
# PCOD9296489 Si02
#       5
#     8   8   8   8   8
#     4  10  24  41  68  94 134 171 221 277 325 390
#     4   9  22  42  60  98 132 163 222 275 312 396
#     4  10  24  45  65  96 135 171 219 277 325 386
#     4  10  23  45  65  96 136 171 218 274 331 387
#     4  11  24  39  72  93 130 178 220 264 332 397
#
# _framework density 24.185798999999999
#
# number of rings (size 3 to 8) (size 9 to 14) (size 15 to 20)
#    0.000    2.000    0.000    0.600   16.800    0.800 
#    3.600    3.000    0.000    0.000    0.000    0.000 
#    0.000    0.000    0.000    0.000    0.000    0.000 
#
# Total GULP energy -111617.842537 kJ/mol
# GULP energy per Si atom -5580.892127 kJ/mol
# Density = 2.413075 g / cm^3
# Si number density = 24.185799 Si / 1000 Ang^3
#
#
#
# Elastic Constant Matrix: (Units=GPa)
#
#
# Indices 1 2 3 4 5 6 
#
# 1 48.0818 11.8440 3.7795 -0.0001 -8.5916 0.0000
# 2 11.8440 119.5623 55.6437 -0.0004 24.2706 0.0001
# 3 3.7795 55.6437 78.1839 -0.0001 1.1854 0.0001
# 4 -0.0001 -0.0004 -0.0001 -10.2585 0.0000 -40.9475
# 5 -8.5916 24.2706 1.1854 0.0000 31.0764 -0.0001
# 6 0.0000 0.0001 0.0001 -40.9475 -0.0001 -24.0227
#
#
#
# Elastic Compliance Matrix: (Units=1/GPa)
#
#
# Indices 1 2 3 4 5 6 
#
# 1 0.024070 -0.006058 0.002977 0.000000 0.011273 0.000000
# 2 -0.006058 0.017579 -0.011991 0.000000 -0.014946 0.000000
# 3 0.002977 -0.011991 0.021038 0.000000 0.009386 0.000000
# 4 0.000000 0.000000 0.000000 0.016796 0.000000 -0.028629
# 5 0.011273 -0.014946 0.009386 0.000000 0.046610 0.000000
# 6 0.000000 0.000000 0.000000 -0.028629 0.000000 0.007172
#
#
# Mechanical properties :
#
#
# Convention : Reuss Voigt Hill
#
# Bulk Modulus (GPa) = 30.72888 43.15138 36.94013
# Shear Modulus (GPa) = 28.69293 10.99643 19.84468
#
# Velocity S-wave (km/s) = 3.44809 2.13460 2.86756
# Velocity P-wave (km/s) = 5.34652 4.89446 5.12548
#
# Compressibility (1/GPa) = 0.03254268
#
# Stress axis : x y z
#
# Youngs Moduli (GPa) = 41.54471 56.88683 47.53212
#
# Poissons Ratio (x) = 0.34464 -0.14151
# Poissons Ratio (y) = 0.25169 0.56997
# Poissons Ratio (z) = -0.12369 0.68215
#
# Static dielectric constant tensor:
#      x y z
#    x 2.328670 0.000000 0.135400 
#    y 0.000000 1.990900 0.000000 
#    z 0.135400 0.000000 2.073590 
# 
# From -- ./inp_files/125456.got.cif
#   From: 2010.05.17/outbox.cif.g08.bks.cpg/sg15_63_cif.got.tgz:125456.got - 2010.06.03 18:47:42.
