data_PCOD9296835
_publ_section_title
;
Structure prediction by ZEFSAII (Michael W. Deem and Ramdas Pophale) SiO2 
 PCOD9296835
Probable space group: C 2/C
;
_chemical_formula_sum "Si O2"
_cell_formula_units_Z 32
_cell_length_a 17.736121
_cell_length_b 7.002648
_cell_length_c 10.403206
_cell_angle_alpha 90.000000
_cell_angle_beta 93.375142
_cell_angle_gamma 90.000000
_cell_volume 1289.835080
_symmetry_space_group_name_H-M "C 2/C"
_symmetry_group_IT_number 15
_symmetry_cell_setting 'monoclinic'
loop_
_space_group_symop_operation_xyz
x,y,z
-x,y,1/2-z
-x,-y,-z
x,-y,1/2+z
1/2+x,1/2+y,z
1/2-x,1/2+y,1/2-z
1/2-x,1/2-y,-z
1/2+x,1/2-y,1/2+z
loop_
_atom_site_type_symbol
_atom_site_label
_atom_site_fract_x
_atom_site_fract_y
_atom_site_fract_z
Si Si1 0.810558 0.185157 0.109086
Si Si2 0.678762 0.687935 0.755660
Si Si3 0.050983 0.053508 0.125763
Si Si4 0.915842 0.568686 0.747027
O O1 0.764874 0.261281 0.230892
O O2 0.888359 0.300655 0.123816
O O3 0.821667 0.959781 0.125988
O O4 0.750000 0.250000 0.000000
O O5 0.626708 0.573792 0.647006
O O6 0.861277 0.390214 0.740049
O O7 0.077833 0.274614 0.137796
O O8 0.000000 0.022312 0.250000
O O9 0.000000 0.000000 0.000000
O O10 0.000000 0.489451 0.750000
#
# Coordination Sequence:
#
# PCOD9296835 Si02
#       4
#     8   8   8   8
#     4  11  25  45  70 101 142 188 242 302 368 445
#     4  11  23  45  69 101 138 186 243 300 369 434
#     4  10  24  44  70 105 144 188 245 304 366 441
#     4  10  23  46  69 103 141 184 241 302 365 433
#
# _framework density 24.809373000000001
#
# number of rings (size 3 to 8) (size 9 to 14) (size 15 to 20)
#    0.000    1.500    2.500    0.750   10.500    3.000 
#    4.500    0.000    0.000    0.000    0.000    0.000 
#    0.000    0.000    0.000    0.000    0.000    0.000 
#
# Total GULP energy -89390.829820 kJ/mol
# GULP energy per Si atom -5586.926864 kJ/mol
# Density = 2.475291 g / cm^3
# Si number density = 24.809373 Si / 1000 Ang^3
#
#
#
# Elastic Constant Matrix: (Units=GPa)
#
#
# Indices 1 2 3 4 5 6 
#
# 1 104.6714 30.1209 24.3415 0.0000 29.4746 0.0000
# 2 30.1209 195.0902 47.5592 0.0000 17.3266 0.0000
# 3 24.3415 47.5592 135.1034 0.0000 41.4270 0.0000
# 4 0.0000 0.0000 0.0000 27.0893 0.0000 33.6980
# 5 29.4746 17.3266 41.4270 0.0000 42.0115 0.0000
# 6 0.0000 0.0000 0.0000 33.6980 0.0000 19.3859
#
#
#
# Elastic Compliance Matrix: (Units=1/GPa)
#
#
# Indices 1 2 3 4 5 6 
#
# 1 0.012252 -0.001341 0.001047 0.000000 -0.009075 0.000000
# 2 -0.001341 0.005762 -0.001930 0.000000 0.000468 0.000000
# 3 0.001047 -0.001930 0.011286 0.000000 -0.011068 0.000000
# 4 0.000000 0.000000 0.000000 -0.031759 0.000000 0.055206
# 5 -0.009075 0.000468 -0.011068 0.000000 0.040891 0.000000
# 6 0.000000 0.000000 0.000000 0.055206 0.000000 -0.044380
#
#
# Mechanical properties :
#
#
# Convention : Reuss Voigt Hill
#
# Bulk Modulus (GPa) = 40.23728 70.98980 55.61354
# Shear Modulus (GPa) = 737.07834 39.88691 388.48263
#
# Velocity S-wave (km/s) = 17.25519 4.01401 12.52705
# Velocity P-wave (km/s) = 20.32837 7.08232 15.22173
#
# Compressibility (1/GPa) = 0.02485257
#
# Stress axis : x y z
#
# Youngs Moduli (GPa) = 81.62245 173.55539 88.60306
#
# Poissons Ratio (x) = 0.23272 -0.09281
# Poissons Ratio (y) = 0.10945 0.17101
# Poissons Ratio (z) = -0.08550 0.33498
#
# Static dielectric constant tensor:
#      x y z
#    x 1.996650 0.000000 -0.118670 
#    y 0.000000 1.937990 0.000000 
#    z -0.118670 0.000000 2.078410 
# 
# From -- ./inp_files/102280.got.cif
#   From: 2010.05.17/outbox.cif.g08.bks.cpg/sg15_52_cif.got.tgz:102280.got - 2010.06.03 18:47:42.
