data_PCOD9296643
_publ_section_title
;
Structure prediction by ZEFSAII (Michael W. Deem and Ramdas Pophale) SiO2 
 PCOD9296643
Probable space group: C 2/C
;
_chemical_formula_sum "Si O2"
_cell_formula_units_Z 44
_cell_length_a 7.259051
_cell_length_b 8.608966
_cell_length_c 28.675780
_cell_angle_alpha 90.000000
_cell_angle_beta 111.053388
_cell_angle_gamma 90.000000
_cell_volume 1672.408097
_symmetry_space_group_name_H-M "C 2/C"
_symmetry_group_IT_number 15
_symmetry_cell_setting 'monoclinic'
loop_
_space_group_symop_operation_xyz
x,y,z
-x,y,1/2-z
-x,-y,-z
x,-y,1/2+z
1/2+x,1/2+y,z
1/2-x,1/2+y,1/2-z
1/2-x,1/2-y,-z
1/2+x,1/2-y,1/2+z
loop_
_atom_site_type_symbol
_atom_site_label
_atom_site_fract_x
_atom_site_fract_y
_atom_site_fract_z
Si Si1 0.500000 0.941957 0.250000
Si Si2 0.027854 0.767357 0.844962
Si Si3 0.297495 0.586465 0.529837
Si Si4 0.568298 0.435133 0.206262
Si Si5 0.344166 0.243901 0.123461
Si Si6 0.767658 0.566023 0.564016
O O1 0.487139 0.846336 0.200470
O O2 0.282344 0.012594 0.232149
O O3 0.164914 0.713058 0.900126
O O4 0.816300 0.778148 0.851134
O O5 0.074320 0.932651 0.826519
O O6 0.250000 0.750000 0.500000
O O7 0.258363 0.627188 0.579804
O O8 0.531937 0.553600 0.549529
O O9 0.198706 0.453134 0.488666
O O10 0.500000 0.377331 0.250000
O O11 0.545621 0.300960 0.165821
O O12 0.364998 0.082997 0.097941
#
# Coordination Sequence:
#
# PCOD9296643 Si02
#       6
#     4   8   8   8   8   8
#     4  12  26  46  70 100 142 188 242 298 342 424
#     4  12  25  43  70 103 140 185 238 296 349 423
#     4   9  20  43  72 102 140 185 235 291 353 430
#     4  12  27  49  70 104 141 190 243 290 356 421
#     4  11  23  44  72 103 140 185 235 295 354 424
#     4  10  23  45  71 103 141 186 234 294 356 423
#
# _framework density 26.309366000000001
#
# number of rings (size 3 to 8) (size 9 to 14) (size 15 to 20)
#    0.000    1.091    2.727    3.273    0.000    8.000 
#    4.909   12.727    0.000    1.091    0.000    0.000 
#    0.000    0.000    0.000    0.000    0.000    0.000 
#
# Total GULP energy -123098.462046 kJ/mol
# GULP energy per Si atom -5595.384638 kJ/mol
# Density = 2.624948 g / cm^3
# Si number density = 26.309366 Si / 1000 Ang^3
#
#
#
# Elastic Constant Matrix: (Units=GPa)
#
#
# Indices 1 2 3 4 5 6 
#
# 1 45.5661 -4.8965 34.2565 0.0000 4.9959 0.0000
# 2 -4.8965 58.1553 46.7161 0.0000 21.4706 0.0000
# 3 34.2565 46.7161 180.3234 0.0000 6.4677 0.0000
# 4 0.0000 0.0000 0.0000 51.2882 0.0000 6.7246
# 5 4.9959 21.4706 6.4677 0.0000 53.0554 0.0000
# 6 0.0000 0.0000 0.0000 6.7246 0.0000 21.5537
#
#
#
# Elastic Compliance Matrix: (Units=1/GPa)
#
#
# Indices 1 2 3 4 5 6 
#
# 1 0.030467 0.011973 -0.008651 0.000000 -0.006660 0.000000
# 2 0.011973 0.030589 -0.009757 0.000000 -0.012317 0.000000
# 3 -0.008651 -0.009757 0.009588 0.000000 0.003594 0.000000
# 4 0.000000 0.000000 0.000000 0.020329 0.000000 -0.006343
# 5 -0.006660 -0.012317 0.003594 0.000000 0.024021 0.000000
# 6 0.000000 0.000000 0.000000 -0.006343 0.000000 0.048375
#
#
# Mechanical properties :
#
#
# Convention : Reuss Voigt Hill
#
# Bulk Modulus (GPa) = 17.30912 48.46632 32.88772
# Shear Modulus (GPa) = 25.57589 39.04402 32.30995
#
# Velocity S-wave (km/s) = 3.12127 3.85650 3.50820
# Velocity P-wave (km/s) = 4.42528 6.18804 5.37935
#
# Compressibility (1/GPa) = 0.05777300
#
# Stress axis : x y z
#
# Youngs Moduli (GPa) = 32.82284 32.69177 104.29802
#
# Poissons Ratio (x) = -0.39142 0.90226
# Poissons Ratio (y) = -0.39299 1.01767
# Poissons Ratio (z) = 0.28394 0.31899
#
# Static dielectric constant tensor:
#      x y z
#    x 2.089150 0.000000 0.018530 
#    y 0.000000 2.085050 0.000000 
#    z 0.018530 0.000000 2.014360 
# 
# From -- ./inp_files/306754.got.cif
#   From: 2010.05.17/outbox.cif.g08.bks.cpg/sg15_154_cif.got.tgz:306754.got - 2010.06.03 18:47:42.
