data_PCOD9296631
_publ_section_title
;
Structure prediction by ZEFSAII (Michael W. Deem and Ramdas Pophale) SiO2 
 PCOD9296631
Probable space group: C 2/C
;
_chemical_formula_sum "Si O2"
_cell_formula_units_Z 24
_cell_length_a 12.071263
_cell_length_b 11.692392
_cell_length_c 8.499959
_cell_angle_alpha 90.000000
_cell_angle_beta 69.499058
_cell_angle_gamma 90.000000
_cell_volume 1123.719368
_symmetry_space_group_name_H-M "C 2/C"
_symmetry_group_IT_number 15
_symmetry_cell_setting 'monoclinic'
loop_
_space_group_symop_operation_xyz
x,y,z
-x,y,1/2-z
-x,-y,-z
x,-y,1/2+z
1/2+x,1/2+y,z
1/2-x,1/2+y,1/2-z
1/2-x,1/2-y,-z
1/2+x,1/2-y,1/2+z
loop_
_atom_site_type_symbol
_atom_site_label
_atom_site_fract_x
_atom_site_fract_y
_atom_site_fract_z
Si Si1 0.429148 0.401880 0.626643
Si Si2 0.840714 0.453664 0.739379
Si Si3 0.064329 0.650476 0.985373
O O1 0.500000 0.375469 0.750000
O O2 0.500000 0.500000 0.500000
O O3 0.296486 0.442409 0.728981
O O4 0.420366 0.285089 0.532464
O O5 0.884016 0.583460 0.690378
O O6 0.868198 0.404504 0.898431
O O7 0.927212 0.381330 0.582041
#
# Coordination Sequence:
#
# PCOD9296631 Si02
#       3
#     8   8   8
#     4  12  28  42  67 100 135 172 216 272 329 383
#     4  10  23  45  70  94 131 172 223 263 329 382
#     4  10  24  43  73  94 129 175 221 268 322 388
#
# _framework density 21.357647
#
# number of rings (size 3 to 8) (size 9 to 14) (size 15 to 20)
#    0.000    1.333    0.000    3.000   18.667    1.333 
#    0.000    0.000    0.000    0.000    0.000    0.000 
#    0.000    0.000    0.000    0.000    0.000    0.000 
#
# Total GULP energy -67129.598464 kJ/mol
# GULP energy per Si atom -5594.133205 kJ/mol
# Density = 2.130904 g / cm^3
# Si number density = 21.357647 Si / 1000 Ang^3
#
#
#
# Elastic Constant Matrix: (Units=GPa)
#
#
# Indices 1 2 3 4 5 6 
#
# 1 165.0980 26.2397 52.1835 0.0000 -30.9007 0.0000
# 2 26.2397 162.9073 44.1219 0.0000 -10.1671 0.0000
# 3 52.1835 44.1219 68.8819 0.0000 7.7275 0.0000
# 4 0.0000 0.0000 0.0000 20.1620 0.0000 5.3219
# 5 -30.9007 -10.1671 7.7275 0.0000 49.9410 0.0000
# 6 0.0000 0.0000 0.0000 5.3219 0.0000 13.4103
#
#
#
# Elastic Compliance Matrix: (Units=1/GPa)
#
#
# Indices 1 2 3 4 5 6 
#
# 1 0.010482 0.001492 -0.009829 0.000000 0.008310 0.000000
# 2 0.001492 0.007905 -0.006593 0.000000 0.003553 0.000000
# 3 -0.009829 -0.006593 0.027497 0.000000 -0.011679 0.000000
# 4 0.000000 0.000000 0.000000 0.055402 0.000000 -0.021986
# 5 0.008310 0.003553 -0.011679 0.000000 0.027696 0.000000
# 6 0.000000 0.000000 0.000000 -0.021986 0.000000 0.083295
#
#
# Mechanical properties :
#
#
# Convention : Reuss Voigt Hill
#
# Bulk Modulus (GPa) = 62.40189 71.33082 66.86635
# Shear Modulus (GPa) = 20.20377 34.99216 27.59796
#
# Velocity S-wave (km/s) = 3.07901 4.05209 3.59859
# Velocity P-wave (km/s) = 6.47467 7.44066 6.97441
#
# Compressibility (1/GPa) = 0.01602516
#
# Stress axis : x y z
#
# Youngs Moduli (GPa) = 95.40154 126.49456 36.36717
#
# Poissons Ratio (x) = -0.18879 0.35746
# Poissons Ratio (y) = -0.14238 0.23977
# Poissons Ratio (z) = 0.93772 0.83399
#
# Static dielectric constant tensor:
#      x y z
#    x 1.760790 0.000000 0.036280 
#    y 0.000000 1.769570 0.000000 
#    z 0.036280 0.000000 1.793300 
# 
# From -- ./inp_files/26931.got.cif
#   From: 2010.05.17/outbox.cif.g08.bks.cpg/sg15_14_cif.got.tgz:26931.got - 2010.06.03 18:47:42.
