data_PCOD9296300
_publ_section_title
;
Structure prediction by ZEFSAII (Michael W. Deem and Ramdas Pophale) SiO2 
 PCOD9296300
Probable space group: C 2/C
;
_chemical_formula_sum "Si O2"
_cell_formula_units_Z 36
_cell_length_a 7.655113
_cell_length_b 26.255926
_cell_length_c 7.862219
_cell_angle_alpha 90.000000
_cell_angle_beta 82.352438
_cell_angle_gamma 90.000000
_cell_volume 1566.188135
_symmetry_space_group_name_H-M "C 2/C"
_symmetry_group_IT_number 15
_symmetry_cell_setting 'monoclinic'
loop_
_space_group_symop_operation_xyz
x,y,z
-x,y,1/2-z
-x,-y,-z
x,-y,1/2+z
1/2+x,1/2+y,z
1/2-x,1/2+y,1/2-z
1/2-x,1/2-y,-z
1/2+x,1/2-y,1/2+z
loop_
_atom_site_type_symbol
_atom_site_label
_atom_site_fract_x
_atom_site_fract_y
_atom_site_fract_z
Si Si1 0.304360 0.974878 0.696853
Si Si2 0.109524 0.115830 0.398441
Si Si3 0.789963 0.922908 0.147849
Si Si4 0.500000 0.840270 0.250000
Si Si5 0.617087 0.205344 0.068621
O O1 0.500000 0.977026 0.750000
O O2 0.192163 0.937160 0.827592
O O3 0.293689 0.949487 0.511902
O O4 0.218348 0.030645 0.718309
O O5 0.263935 0.155348 0.414658
O O6 0.000000 0.136163 0.250000
O O7 0.972293 0.102306 0.564314
O O8 0.666324 0.877728 0.226180
O O9 0.498057 0.807007 0.420311
O O10 0.500000 0.216410 0.250000
O O11 0.750000 0.250000 0.000000
#
# Coordination Sequence:
#
# PCOD9296300 Si02
#       5
#     8   8   8   4   8
#     4  11  21  39  65 102 149 197 245 295 364 432
#     4  10  23  44  71 102 151 193 251 303 371 436
#     4  11  24  40  67 106 147 200 242 304 352 449
#     4  12  28  50  76 110 150 196 254 300 388 444
#     4  12  30  53  82 110 145 193 249 321 383 448
#
# _framework density 22.985744
#
# number of rings (size 3 to 8) (size 9 to 14) (size 15 to 20)
#    0.000    0.889    1.111    6.000    7.778    0.889 
#    0.000    0.000    0.000    0.000    0.000    0.000 
#    0.000    0.000    0.000    0.000    0.000    0.000 
#
# Total GULP energy -100881.811896 kJ/mol
# GULP energy per Si atom -5604.545105 kJ/mol
# Density = 2.293343 g / cm^3
# Si number density = 22.985744 Si / 1000 Ang^3
#
#
#
# Elastic Constant Matrix: (Units=GPa)
#
#
# Indices 1 2 3 4 5 6 
#
# 1 74.8959 14.4880 37.2354 0.0000 -18.3688 0.0000
# 2 14.4880 88.2369 44.4141 0.0000 -6.7074 0.0000
# 3 37.2354 44.4141 175.2794 0.0000 -7.8514 0.0000
# 4 0.0000 0.0000 0.0000 19.5052 0.0000 -18.0429
# 5 -18.3688 -6.7074 -7.8514 0.0000 47.5953 0.0000
# 6 0.0000 0.0000 0.0000 -18.0429 0.0000 14.1746
#
#
#
# Elastic Compliance Matrix: (Units=1/GPa)
#
#
# Indices 1 2 3 4 5 6 
#
# 1 0.016412 -0.000726 -0.003046 0.000000 0.005729 0.000000
# 2 -0.000726 0.013102 -0.003119 0.000000 0.001052 0.000000
# 3 -0.003046 -0.003119 0.007123 0.000000 -0.000440 0.000000
# 4 0.000000 0.000000 0.000000 -0.288883 0.000000 -0.367720
# 5 0.005729 0.001052 -0.000440 0.000000 0.023297 0.000000
# 6 0.000000 0.000000 0.000000 -0.367720 0.000000 -0.397524
#
#
# Mechanical properties :
#
#
# Convention : Reuss Voigt Hill
#
# Bulk Modulus (GPa) = 43.75314 58.96525 51.35920
# Shear Modulus (GPa) = -8.26345 32.40667 12.07161
#
# Velocity S-wave (km/s) = -1.89811 3.75888 2.29416
# Velocity P-wave (km/s) = 3.77789 6.67440 5.42310
#
# Compressibility (1/GPa) = 0.02285550
#
# Stress axis : x y z
#
# Youngs Moduli (GPa) = 60.93221 76.32403 140.39594
#
# Poissons Ratio (x) = 0.05542 0.42762
# Poissons Ratio (y) = 0.04424 0.43783
# Poissons Ratio (z) = 0.18559 0.23802
#
# Static dielectric constant tensor:
#      x y z
#    x 1.896060 0.000000 0.061260 
#    y 0.000000 1.791210 0.000000 
#    z 0.061260 0.000000 1.892290 
# 
# From -- ./inp_files/23304.got.cif
#   From: 2010.05.17/outbox.cif.g08.bks.cpg/sg15_12_cif.got.tgz:23304.got - 2010.06.03 18:47:42.
