data_PCOD9296755
_publ_section_title
;
Structure prediction by ZEFSAII (Michael W. Deem and Ramdas Pophale) SiO2 
 PCOD9296755
Probable space group: C 2/C
;
_chemical_formula_sum "Si O2"
_cell_formula_units_Z 48
_cell_length_a 10.106516
_cell_length_b 9.449547
_cell_length_c 19.720253
_cell_angle_alpha 90.000000
_cell_angle_beta 78.540883
_cell_angle_gamma 90.000000
_cell_volume 1845.782732
_symmetry_space_group_name_H-M "C 2/C"
_symmetry_group_IT_number 15
_symmetry_cell_setting 'monoclinic'
loop_
_space_group_symop_operation_xyz
x,y,z
-x,y,1/2-z
-x,-y,-z
x,-y,1/2+z
1/2+x,1/2+y,z
1/2-x,1/2+y,1/2-z
1/2-x,1/2-y,-z
1/2+x,1/2-y,1/2+z
loop_
_atom_site_type_symbol
_atom_site_label
_atom_site_fract_x
_atom_site_fract_y
_atom_site_fract_z
Si Si1 0.388948 0.013557 0.705962
Si Si2 0.102671 0.958209 0.789258
Si Si3 0.983212 0.633991 0.551644
Si Si4 0.621084 0.382638 0.482644
Si Si5 0.232648 0.144957 0.416731
Si Si6 0.977213 0.764938 0.144508
O O1 0.500000 0.054260 0.750000
O O2 0.395905 0.843314 0.698429
O O3 0.234354 0.034075 0.743265
O O4 0.437355 0.076430 0.629462
O O5 0.120021 0.302944 0.615130
O O6 0.005904 0.082905 0.824986
O O7 0.158760 0.884268 0.851452
O O8 0.856818 0.732229 0.540378
O O9 0.000000 0.500000 0.500000
O O10 0.100537 0.758098 0.539997
O O11 0.500000 0.500000 0.500000
O O12 0.738300 0.496742 0.457367
O O13 0.602602 0.293264 0.416334
O O14 0.000000 0.125042 0.250000
#
# Coordination Sequence:
#
# PCOD9296755 Si02
#       6
#     8   8   8   8   8   8
#     4  12  25  44  76 112 154 202 251 317 392 463
#     4  11  25  45  75 111 148 202 265 316 381 469
#     4  11  23  44  69 109 154 194 249 321 383 446
#     4   9  21  43  73 105 145 196 260 304 378 467
#     4  10  23  45  78 106 145 206 261 311 389 468
#     4  11  22  46  76 104 152 204 254 316 396 462
#
# _framework density 26.005229
#
# number of rings (size 3 to 8) (size 9 to 14) (size 15 to 20)
#    0.000    1.333    3.333    1.500    2.333    3.333 
#    0.000    2.500    3.667    0.000    0.000    0.000 
#    0.000    0.000    0.000    0.000    0.000    0.000 
#
# Total GULP energy -134277.873062 kJ/mol
# GULP energy per Si atom -5594.911378 kJ/mol
# Density = 2.594604 g / cm^3
# Si number density = 26.005229 Si / 1000 Ang^3
#
#
#
# Elastic Constant Matrix: (Units=GPa)
#
#
# Indices 1 2 3 4 5 6 
#
# 1 143.9780 48.3570 39.5089 0.0000 -0.4182 0.0000
# 2 48.3570 194.3082 46.7277 0.0000 -8.7326 0.0000
# 3 39.5089 46.7277 118.4433 0.0000 -1.2364 0.0000
# 4 0.0000 0.0000 0.0000 46.2503 0.0000 -16.3558
# 5 -0.4182 -8.7326 -1.2364 0.0000 41.9912 0.0000
# 6 0.0000 0.0000 0.0000 -16.3558 0.0000 41.3926
#
#
#
# Elastic Compliance Matrix: (Units=1/GPa)
#
#
# Indices 1 2 3 4 5 6 
#
# 1 0.008023 -0.001509 -0.002084 0.000000 -0.000295 0.000000
# 2 -0.001509 0.006022 -0.001860 0.000000 0.001183 0.000000
# 3 -0.002084 -0.001860 0.009871 0.000000 -0.000117 0.000000
# 4 0.000000 0.000000 0.000000 0.025134 0.000000 0.009931
# 5 -0.000295 0.001183 -0.000117 0.000000 0.024054 0.000000
# 6 0.000000 0.000000 0.000000 0.009931 0.000000 0.028083
#
#
# Mechanical properties :
#
#
# Convention : Reuss Voigt Hill
#
# Bulk Modulus (GPa) = 76.86400 80.65739 78.76069
# Shear Modulus (GPa) = 42.94405 47.40254 45.17330
#
# Velocity S-wave (km/s) = 4.06810 4.27407 4.17236
# Velocity P-wave (km/s) = 7.18939 7.44581 7.31872
#
# Compressibility (1/GPa) = 0.01300999
#
# Stress axis : x y z
#
# Youngs Moduli (GPa) = 124.63679 166.04448 101.30924
#
# Poissons Ratio (x) = 0.25053 0.21114
# Poissons Ratio (y) = 0.18805 0.18847
# Poissons Ratio (z) = 0.25976 0.30890
#
# Static dielectric constant tensor:
#      x y z
#    x 2.309130 0.000000 -0.084080 
#    y 0.000000 2.051530 0.000000 
#    z -0.084080 0.000000 2.153230 
# 
# From -- ./inp_files/242303.got.cif
#   From: 2010.05.17/outbox.cif.g08.bks.cpg/sg15_122_cif.got.tgz:242303.got - 2010.06.03 18:47:42.
