data_PCOD9296229
_publ_section_title
;
Structure prediction by ZEFSAII (Michael W. Deem and Ramdas Pophale) SiO2 
 PCOD9296229
Probable space group: C 2/C
;
_chemical_formula_sum "Si O2"
_cell_formula_units_Z 44
_cell_length_a 9.239223
_cell_length_b 8.177621
_cell_length_c 27.013015
_cell_angle_alpha 90.000000
_cell_angle_beta 105.411119
_cell_angle_gamma 90.000000
_cell_volume 1967.579446
_symmetry_space_group_name_H-M "C 2/C"
_symmetry_group_IT_number 15
_symmetry_cell_setting 'monoclinic'
loop_
_space_group_symop_operation_xyz
x,y,z
-x,y,1/2-z
-x,-y,-z
x,-y,1/2+z
1/2+x,1/2+y,z
1/2-x,1/2+y,1/2-z
1/2-x,1/2-y,-z
1/2+x,1/2-y,1/2+z
loop_
_atom_site_type_symbol
_atom_site_label
_atom_site_fract_x
_atom_site_fract_y
_atom_site_fract_z
Si Si1 0.160467 0.871942 0.428527
Si Si2 0.639236 0.012369 0.474757
Si Si3 0.932738 0.461936 0.694016
Si Si4 0.500000 0.643043 0.750000
Si Si5 0.943860 0.630944 0.880560
Si Si6 0.100629 0.988936 0.660855
O O1 0.209990 0.990412 0.478569
O O2 0.143880 0.689913 0.448975
O O3 0.298484 0.877755 0.402300
O O4 0.011534 0.919389 0.386127
O O5 0.500000 0.000000 0.500000
O O6 0.592141 0.884279 0.428463
O O7 0.906249 0.274115 0.708741
O O8 0.772330 0.527694 0.663707
O O9 0.000000 0.540826 0.750000
O O10 0.046107 0.487017 0.659248
O O11 0.582138 0.537236 0.716525
O O12 0.937832 0.799835 0.850888
#
# Coordination Sequence:
#
# PCOD9296229 Si02
#       6
#     8   8   8   4   8   8
#     4  10  23  44  69  99 133 175 218 267 334 396
#     4   9  20  43  70  97 138 175 211 270 334 397
#     4  10  27  43  63  90 133 172 217 273 330 387
#     4  10  26  42  64  88 134 172 220 276 328 386
#     4  11  23  42  67  99 132 172 218 274 327 396
#     4  12  25  40  68  97 125 172 224 270 325 392
#
# _framework density 22.362501999999999
#
# number of rings (size 3 to 8) (size 9 to 14) (size 15 to 20)
#    0.545    1.091    0.000    3.273    6.364    5.091 
#    0.000   12.727    0.000    0.000    0.000    0.000 
#    0.000    0.000    0.000    0.000    0.000    0.000 
#
# Total GULP energy -122780.141626 kJ/mol
# GULP energy per Si atom -5580.915528 kJ/mol
# Density = 2.231160 g / cm^3
# Si number density = 22.362502 Si / 1000 Ang^3
#
#
#
# Elastic Constant Matrix: (Units=GPa)
#
#
# Indices 1 2 3 4 5 6 
#
# 1 97.7012 39.4612 62.1509 0.0000 3.8161 0.0000
# 2 39.4612 60.1255 58.2148 0.0000 6.0241 0.0000
# 3 62.1509 58.2148 130.3266 0.0000 -1.6024 0.0000
# 4 0.0000 0.0000 0.0000 48.2299 0.0000 -7.7327
# 5 3.8161 6.0241 -1.6024 0.0000 38.7012 0.0000
# 6 0.0000 0.0000 0.0000 -7.7327 0.0000 15.5948
#
#
#
# Elastic Compliance Matrix: (Units=1/GPa)
#
#
# Indices 1 2 3 4 5 6 
#
# 1 0.015646 -0.005177 -0.005161 0.000000 -0.000951 0.000000
# 2 -0.005177 0.032064 -0.011915 0.000000 -0.004974 0.000000
# 3 -0.005161 -0.011915 0.015493 0.000000 0.003005 0.000000
# 4 0.000000 0.000000 0.000000 0.022525 0.000000 0.011169
# 5 -0.000951 -0.004974 0.003005 0.000000 0.026831 0.000000
# 6 0.000000 0.000000 0.000000 0.011169 0.000000 0.069662
#
#
# Mechanical properties :
#
#
# Convention : Reuss Voigt Hill
#
# Bulk Modulus (GPa) = 53.47992 67.53413 60.50703
# Shear Modulus (GPa) = 21.46293 29.06027 25.26160
#
# Velocity S-wave (km/s) = 3.10138 3.60878 3.36466
# Velocity P-wave (km/s) = 6.06561 6.90143 6.49697
#
# Compressibility (1/GPa) = 0.01869861
#
# Stress axis : x y z
#
# Youngs Moduli (GPa) = 63.91301 31.18750 64.54418
#
# Poissons Ratio (x) = 0.16145 0.33310
# Poissons Ratio (y) = 0.33087 0.76904
# Poissons Ratio (z) = 0.32984 0.37160
#
# Static dielectric constant tensor:
#      x y z
#    x 1.819190 0.000000 0.003170 
#    y 0.000000 1.862370 0.000000 
#    z 0.003170 0.000000 1.869760 
# 
# From -- ./inp_files/306545.got.cif
#   From: 2010.05.17/outbox.cif.g08.bks.cpg/sg15_154_cif.got.tgz:306545.got - 2010.06.03 18:47:42.
