data_PCOD9296050
_publ_section_title
;
Structure prediction by ZEFSAII (Michael W. Deem and Ramdas Pophale) SiO2 
 PCOD9296050
Probable space group: C 2/C
;
_chemical_formula_sum "Si O2"
_cell_formula_units_Z 60
_cell_length_a 12.428244
_cell_length_b 8.720590
_cell_length_c 26.671528
_cell_angle_alpha 90.000000
_cell_angle_beta 71.765432
_cell_angle_gamma 90.000000
_cell_volume 2745.542237
_symmetry_space_group_name_H-M "C 2/C"
_symmetry_group_IT_number 15
_symmetry_cell_setting 'monoclinic'
loop_
_space_group_symop_operation_xyz
x,y,z
-x,y,1/2-z
-x,-y,-z
x,-y,1/2+z
1/2+x,1/2+y,z
1/2-x,1/2+y,1/2-z
1/2-x,1/2-y,-z
1/2+x,1/2-y,1/2+z
loop_
_atom_site_type_symbol
_atom_site_label
_atom_site_fract_x
_atom_site_fract_y
_atom_site_fract_z
Si Si1 0.500000 0.702488 0.750000
Si Si2 0.329430 0.527964 0.118291
Si Si3 0.845330 0.877221 0.502077
Si Si4 0.084153 0.278352 0.841374
Si Si5 0.556591 0.836632 0.996801
Si Si6 0.271544 0.937601 0.609043
Si Si7 0.656509 0.728066 0.644219
Si Si8 0.422850 0.649914 0.415889
O O1 0.573372 0.783592 0.782918
O O2 0.595999 0.635499 0.698866
O O3 0.316908 0.538141 0.059277
O O4 0.352287 0.367660 0.143093
O O5 0.219642 0.620231 0.153055
O O6 0.445693 0.619461 0.112275
O O7 0.750000 0.750000 0.500000
O O8 0.964036 0.789149 0.494352
O O9 0.872666 0.010372 0.457725
O O10 0.151240 0.419267 0.853891
O O11 0.950589 0.267934 0.875478
O O12 0.661469 0.850843 0.944568
O O13 0.591295 0.799428 0.048303
O O14 0.500000 0.000000 0.000000
O O15 0.149318 0.857373 0.624048
O O16 0.248317 0.117722 0.606100
#
# Coordination Sequence:
#
# PCOD9296050 Si02
#       8
#     4   8   8   8   8   8   8   8
#     4   8  22  48  68  92 128 156 206 274 340 388
#     4  11  21  40  69  91 130 177 215 257 324 375
#     4  11  23  37  63  89 135 181 215 263 306 370
#     4  10  23  44  66  95 121 165 210 268 327 387
#     4  11  23  35  55  93 130 170 221 260 299 366
#     4  12  22  39  67  90 131 165 213 259 307 384
#     4  10  23  45  66  95 126 162 209 273 322 392
#     4  11  21  40  56  93 134 175 217 252 313 369
#
# _framework density 21.853608000000001
#
# number of rings (size 3 to 8) (size 9 to 14) (size 15 to 20)
#    0.800    0.533    1.333    6.800    1.867    2.133 
#    2.400    0.000    0.000    1.600    0.000    0.000 
#    0.000    0.000    0.000    0.000    0.000    0.000 
#
# Total GULP energy -167202.535350 kJ/mol
# GULP energy per Si atom -5573.417845 kJ/mol
# Density = 2.180387 g / cm^3
# Si number density = 21.853608 Si / 1000 Ang^3
#
#
#
# Elastic Constant Matrix: (Units=GPa)
#
#
# Indices 1 2 3 4 5 6 
#
# 1 134.7908 45.0635 24.7010 0.0000 22.1656 0.0000
# 2 45.0635 73.5817 5.7989 0.0000 5.5921 0.0000
# 3 24.7010 5.7989 57.7986 0.0000 5.2852 0.0000
# 4 0.0000 0.0000 0.0000 13.4711 0.0000 8.0179
# 5 22.1656 5.5921 5.2852 0.0000 34.9819 0.0000
# 6 0.0000 0.0000 0.0000 8.0179 0.0000 32.8850
#
#
#
# Elastic Compliance Matrix: (Units=1/GPa)
#
#
# Indices 1 2 3 4 5 6 
#
# 1 0.010992 -0.006034 -0.003593 0.000000 -0.005458 0.000000
# 2 -0.006034 0.017152 0.000770 0.000000 0.000965 0.000000
# 3 -0.003593 0.000770 0.018823 0.000000 -0.000690 0.000000
# 4 0.000000 0.000000 0.000000 0.086834 0.000000 -0.021171
# 5 -0.005458 0.000965 -0.000690 0.000000 0.031994 0.000000
# 6 0.000000 0.000000 0.000000 -0.021171 0.000000 0.035571
#
#
# Mechanical properties :
#
#
# Convention : Reuss Voigt Hill
#
# Bulk Modulus (GPa) = 34.18605 46.36642 40.27624
# Shear Modulus (GPa) = 21.85015 28.97478 25.41246
#
# Velocity S-wave (km/s) = 3.16546 3.64518 3.41376
# Velocity P-wave (km/s) = 5.38863 6.24335 5.83167
#
# Compressibility (1/GPa) = 0.02925170
#
# Stress axis : x y z
#
# Youngs Moduli (GPa) = 90.97434 58.30330 53.12660
#
# Poissons Ratio (x) = 0.35180 0.19089
# Poissons Ratio (y) = 0.54893 -0.04089
# Poissons Ratio (z) = 0.32689 -0.04487
#
# Static dielectric constant tensor:
#      x y z
#    x 1.884300 0.000000 -0.026400 
#    y 0.000000 1.852170 0.000000 
#    z -0.026400 0.000000 1.897340 
# 
# From -- ./inp_files/309982.got.cif
#   From: 2010.05.17/outbox.cif.g08.bks.cpg/sg15_155_cif.got.tgz:309982.got - 2010.06.03 18:47:42.
