data_PCOD9296888
_publ_section_title
;
Structure prediction by ZEFSAII (Michael W. Deem and Ramdas Pophale) SiO2 
 PCOD9296888
Probable space group: C 2/C
;
_chemical_formula_sum "Si O2"
_cell_formula_units_Z 48
_cell_length_a 11.266051
_cell_length_b 10.000182
_cell_length_c 18.174510
_cell_angle_alpha 90.000000
_cell_angle_beta 113.111172
_cell_angle_gamma 90.000000
_cell_volume 1883.257706
_symmetry_space_group_name_H-M "C 2/C"
_symmetry_group_IT_number 15
_symmetry_cell_setting 'monoclinic'
loop_
_space_group_symop_operation_xyz
x,y,z
-x,y,1/2-z
-x,-y,-z
x,-y,1/2+z
1/2+x,1/2+y,z
1/2-x,1/2+y,1/2-z
1/2-x,1/2-y,-z
1/2+x,1/2-y,1/2+z
loop_
_atom_site_type_symbol
_atom_site_label
_atom_site_fract_x
_atom_site_fract_y
_atom_site_fract_z
Si Si1 0.268458 0.602274 0.835056
Si Si2 0.481570 0.464478 0.580662
Si Si3 0.604486 0.288288 0.711691
Si Si4 0.349014 0.880804 0.841793
Si Si5 0.222224 0.400227 0.069199
Si Si6 0.134549 0.362546 0.885950
O O1 0.412570 0.554346 0.851191
O O2 0.165445 0.645057 0.747536
O O3 0.303930 0.749263 0.877409
O O4 0.201813 0.496684 0.872796
O O5 0.500000 0.500000 0.500000
O O6 0.528425 0.317836 0.617947
O O7 0.341775 0.507376 0.572153
O O8 0.500000 0.318539 0.750000
O O9 0.730856 0.381459 0.755177
O O10 0.483383 0.858054 0.833733
O O11 0.357443 0.007690 0.895870
O O12 0.286458 0.268133 0.120421
O O13 0.146136 0.358208 0.977703
#
# Coordination Sequence:
#
# PCOD9296888 Si02
#       6
#     8   8   8   8   8   8
#     4  10  24  45  72 110 151 196 255 312 390 461
#     4  12  22  47  78 111 153 211 257 319 399 467
#     4  10  23  47  70 103 151 198 258 314 386 464
#     4  10  23  46  71 105 153 197 256 312 381 464
#     4  11  22  43  73 110 159 200 245 317 390 455
#     4  11  23  44  69 114 155 192 256 315 378 472
#
# _framework density 25.487749999999998
#
# number of rings (size 3 to 8) (size 9 to 14) (size 15 to 20)
#    1.000    0.333    5.000    0.500    0.000    2.000 
#   12.000    0.000    0.000    0.000    0.000    0.000 
#    0.000    0.000    0.000    0.000    0.000    0.000 
#
# Total GULP energy -134175.434639 kJ/mol
# GULP energy per Si atom -5590.643110 kJ/mol
# Density = 2.542974 g / cm^3
# Si number density = 25.487750 Si / 1000 Ang^3
#
#
#
# Elastic Constant Matrix: (Units=GPa)
#
#
# Indices 1 2 3 4 5 6 
#
# 1 111.6665 19.8585 24.3601 0.0000 18.0618 0.0000
# 2 19.8585 113.9317 12.7806 0.0000 -12.5489 0.0000
# 3 24.3601 12.7806 69.4167 0.0000 7.3581 0.0000
# 4 0.0000 0.0000 0.0000 36.3836 0.0000 5.0098
# 5 18.0618 -12.5489 7.3581 0.0000 43.4992 0.0000
# 6 0.0000 0.0000 0.0000 5.0098 0.0000 42.0219
#
#
#
# Elastic Compliance Matrix: (Units=1/GPa)
#
#
# Indices 1 2 3 4 5 6 
#
# 1 0.010682 -0.002037 -0.002893 0.000000 -0.004534 0.000000
# 2 -0.002037 0.009729 -0.001490 0.000000 0.003905 0.000000
# 3 -0.002893 -0.001490 0.015899 0.000000 -0.001918 0.000000
# 4 0.000000 0.000000 0.000000 0.027944 0.000000 -0.003331
# 5 -0.004534 0.003905 -0.001918 0.000000 0.026322 0.000000
# 6 0.000000 0.000000 0.000000 -0.003331 0.000000 0.024194
#
#
# Mechanical properties :
#
#
# Convention : Reuss Voigt Hill
#
# Bulk Modulus (GPa) = 42.60817 45.44592 44.02705
# Shear Modulus (GPa) = 36.91845 40.24866 38.58355
#
# Velocity S-wave (km/s) = 3.81002 3.97815 3.89499
# Velocity P-wave (km/s) = 6.00902 6.24260 6.12693
#
# Compressibility (1/GPa) = 0.02346968
#
# Stress axis : x y z
#
# Youngs Moduli (GPa) = 93.61691 102.78069 62.89818
#
# Poissons Ratio (x) = 0.20933 0.18196
# Poissons Ratio (y) = 0.19067 0.09375
# Poissons Ratio (z) = 0.27083 0.15319
#
# Static dielectric constant tensor:
#      x y z
#    x 1.932260 0.000000 -0.024540 
#    y 0.000000 2.140900 0.000000 
#    z -0.024540 0.000000 2.048740 
# 
# From -- ./inp_files/237234.got.cif
#   From: 2010.05.17/outbox.cif.g08.bks.cpg/sg15_119_cif.got.tgz:237234.got - 2010.06.03 18:47:42.
