data_PCOD9296500
_publ_section_title
;
Structure prediction by ZEFSAII (Michael W. Deem and Ramdas Pophale) SiO2 
 PCOD9296500
Probable space group: C 2/C
;
_chemical_formula_sum "Si O2"
_cell_formula_units_Z 28
_cell_length_a 12.082230
_cell_length_b 16.042089
_cell_length_c 10.100404
_cell_angle_alpha 90.000000
_cell_angle_beta 35.467891
_cell_angle_gamma 90.000000
_cell_volume 1135.950457
_symmetry_space_group_name_H-M "C 2/C"
_symmetry_group_IT_number 15
_symmetry_cell_setting 'monoclinic'
loop_
_space_group_symop_operation_xyz
x,y,z
-x,y,1/2-z
-x,-y,-z
x,-y,1/2+z
1/2+x,1/2+y,z
1/2-x,1/2+y,1/2-z
1/2-x,1/2-y,-z
1/2+x,1/2-y,1/2+z
loop_
_atom_site_type_symbol
_atom_site_label
_atom_site_fract_x
_atom_site_fract_y
_atom_site_fract_z
Si Si1 0.569834 0.824755 0.405510
Si Si2 0.994330 0.136322 0.414794
Si Si3 0.000000 0.403131 0.750000
Si Si4 0.334194 0.036600 0.065616
O O1 0.573918 0.726907 0.377936
O O2 0.494271 0.844938 0.627238
O O3 0.423196 0.872172 0.451831
O O4 0.779551 0.863530 0.178909
O O5 0.134475 0.062250 0.322382
O O6 0.000000 0.130982 0.250000
O O7 0.168289 0.470203 0.551199
O O8 0.500000 0.000000 0.000000
#
# Coordination Sequence:
#
# PCOD9296500 Si02
#       4
#     8   8   4   8
#     4  11  24  43  72 106 141 194 244 301 362 430
#     4  12  24  42  76 106 140 192 256 295 354 437
#     4  10  24  44  66 100 154 182 232 306 370 422
#     4  10  23  45  66 103 146 188 238 303 360 428
#
# _framework density 24.648963999999999
#
# number of rings (size 3 to 8) (size 9 to 14) (size 15 to 20)
#    0.000    1.143    2.857    2.571    2.000    5.714 
#    0.000    5.714    0.000    0.000    0.000    0.000 
#    0.000    0.000    0.000    0.000    0.000    0.000 
#
# Total GULP energy -78153.141742 kJ/mol
# GULP energy per Si atom -5582.367267 kJ/mol
# Density = 2.459286 g / cm^3
# Si number density = 24.648964 Si / 1000 Ang^3
#
#
#
# Elastic Constant Matrix: (Units=GPa)
#
#
# Indices 1 2 3 4 5 6 
#
# 1 81.1981 26.9752 52.4378 -0.0031 9.4745 0.0012
# 2 26.9752 121.5825 46.4919 -0.0029 -16.1014 0.0013
# 3 52.4378 46.4919 145.8198 -0.0070 -18.1469 0.0045
# 4 -0.0031 -0.0029 -0.0070 63.1233 0.0036 -5.0579
# 5 9.4745 -16.1014 -18.1469 0.0036 55.3436 -0.0013
# 6 0.0012 0.0013 0.0045 -5.0579 -0.0013 41.8058
#
#
#
# Elastic Compliance Matrix: (Units=1/GPa)
#
#
# Indices 1 2 3 4 5 6 
#
# 1 0.017917 -0.002286 -0.006442 0.000000 -0.005844 0.000000
# 2 -0.002286 0.009838 -0.001991 0.000000 0.002601 0.000000
# 3 -0.006442 -0.001991 0.010294 0.000000 0.003899 -0.000001
# 4 0.000000 0.000000 0.000000 0.015997 -0.000001 0.001935
# 5 -0.005844 0.002601 0.003899 -0.000001 0.021105 0.000000
# 6 0.000000 0.000000 -0.000001 0.001935 0.000000 0.024154
#
#
# Mechanical properties :
#
#
# Convention : Reuss Voigt Hill
#
# Bulk Modulus (GPa) = 60.19735 66.71226 63.45480
# Shear Modulus (GPa) = 39.59488 46.90089 43.24788
#
# Velocity S-wave (km/s) = 4.01228 4.36679 4.19328
# Velocity P-wave (km/s) = 6.77786 7.24906 7.01741
#
# Compressibility (1/GPa) = 0.01661203
#
# Stress axis : x y z
#
# Youngs Moduli (GPa) = 55.81317 101.64916 97.14244
#
# Poissons Ratio (x) = 0.23237 0.62575
# Poissons Ratio (y) = 0.12759 0.19340
# Poissons Ratio (z) = 0.35952 0.20237
#
# Static dielectric constant tensor:
#      x y z
#    x 2.052820 0.000000 0.003310 
#    y 0.000000 2.008240 0.000000 
#    z 0.003310 0.000000 1.985290 
# 
# From -- ./inp_files/97638.got.cif
#   From: 2010.05.17/outbox.cif.g08.bks.cpg/sg15_49_cif.got.tgz:97638.got - 2010.06.03 18:47:42.
