data_PCOD9296972
_publ_section_title
;
Structure prediction by ZEFSAII (Michael W. Deem and Ramdas Pophale) SiO2 
 PCOD9296972
Probable space group: C 2/C
;
_chemical_formula_sum "Si O2"
_cell_formula_units_Z 32
_cell_length_a 12.671888
_cell_length_b 12.285964
_cell_length_c 8.793159
_cell_angle_alpha 90.000000
_cell_angle_beta 64.127951
_cell_angle_gamma 90.000000
_cell_volume 1231.763600
_symmetry_space_group_name_H-M "C 2/C"
_symmetry_group_IT_number 15
_symmetry_cell_setting 'monoclinic'
loop_
_space_group_symop_operation_xyz
x,y,z
-x,y,1/2-z
-x,-y,-z
x,-y,1/2+z
1/2+x,1/2+y,z
1/2-x,1/2+y,1/2-z
1/2-x,1/2-y,-z
1/2+x,1/2-y,1/2+z
loop_
_atom_site_type_symbol
_atom_site_label
_atom_site_fract_x
_atom_site_fract_y
_atom_site_fract_z
Si Si1 0.652191 0.134591 0.494367
Si Si2 0.039385 0.227527 0.553195
Si Si3 0.318862 0.911550 0.172923
Si Si4 0.385438 0.561321 0.221739
O O1 0.567200 0.226104 0.483278
O O2 0.644573 0.114499 0.678381
O O3 0.789315 0.142663 0.360341
O O4 0.622555 0.022281 0.425268
O O5 0.144144 0.313880 0.458534
O O6 0.082699 0.113259 0.459730
O O7 0.000000 0.227507 0.750000
O O8 0.182741 0.947541 0.254035
O O9 0.500000 0.556216 0.250000
#
# Coordination Sequence:
#
# PCOD9296972 Si02
#       4
#     8   8   8   8
#     4  10  23  46  77 103 147 192 248 294 368 434
#     4  12  25  47  79 109 144 194 253 302 361 442
#     4  10  23  46  76 109 142 192 249 303 362 435
#     4  10  26  48  72 110 149 194 241 310 368 437
#
# _framework density 25.979009999999999
#
# number of rings (size 3 to 8) (size 9 to 14) (size 15 to 20)
#    1.500    0.000    0.000    4.500    0.000    6.000 
#    4.500    0.000    0.000    3.000    0.000    0.000 
#    0.000    0.000    0.000    0.000    0.000    0.000 
#
# Total GULP energy -89763.917542 kJ/mol
# GULP energy per Si atom -5610.244846 kJ/mol
# Density = 2.591988 g / cm^3
# Si number density = 25.979010 Si / 1000 Ang^3
#
#
#
# Elastic Constant Matrix: (Units=GPa)
#
#
# Indices 1 2 3 4 5 6 
#
# 1 174.3814 60.1922 63.0833 0.0000 -17.7874 0.0000
# 2 60.1922 126.5948 77.1639 0.0000 -6.5112 0.0000
# 3 63.0833 77.1639 241.0829 0.0000 7.4312 0.0000
# 4 0.0000 0.0000 0.0000 44.5377 0.0000 5.6853
# 5 -17.7874 -6.5112 7.4312 0.0000 36.1140 0.0000
# 6 0.0000 0.0000 0.0000 5.6853 0.0000 27.1077
#
#
#
# Elastic Compliance Matrix: (Units=1/GPa)
#
#
# Indices 1 2 3 4 5 6 
#
# 1 0.007426 -0.002616 -0.001212 0.000000 0.003435 0.000000
# 2 -0.002616 0.010952 -0.002860 0.000000 0.001275 0.000000
# 3 -0.001212 -0.002860 0.005449 0.000000 -0.002234 0.000000
# 4 0.000000 0.000000 0.000000 0.023071 0.000000 -0.004839
# 5 0.003435 0.001275 -0.002234 0.000000 0.030072 0.000000
# 6 0.000000 0.000000 0.000000 -0.004839 0.000000 0.037905
#
#
# Mechanical properties :
#
#
# Convention : Reuss Voigt Hill
#
# Bulk Modulus (GPa) = 95.67549 104.77088 100.22319
# Shear Modulus (GPa) = 37.95528 44.32653 41.14090
#
# Velocity S-wave (km/s) = 3.82645 4.13515 3.98379
# Velocity P-wave (km/s) = 7.51200 7.95084 7.73454
#
# Compressibility (1/GPa) = 0.01045200
#
# Stress axis : x y z
#
# Youngs Moduli (GPa) = 134.65786 91.30885 183.50566
#
# Poissons Ratio (x) = 0.23882 0.22240
# Poissons Ratio (y) = 0.35220 0.52488
# Poissons Ratio (z) = 0.16320 0.26117
#
# Static dielectric constant tensor:
#      x y z
#    x 2.070390 0.000000 -0.093070 
#    y 0.000000 2.052390 0.000000 
#    z -0.093070 0.000000 1.987280 
# 
# From -- ./inp_files/27879.got.cif
#   From: 2010.05.17/outbox.cif.g08.bks.cpg/sg15_14_cif.got.tgz:27879.got - 2010.06.03 18:47:42.
