data_PCOD9296475
_publ_section_title
;
Structure prediction by ZEFSAII (Michael W. Deem and Ramdas Pophale) SiO2 
 PCOD9296475
Probable space group: C 2/C
;
_chemical_formula_sum "Si O2"
_cell_formula_units_Z 36
_cell_length_a 21.686378
_cell_length_b 14.866618
_cell_length_c 8.381664
_cell_angle_alpha 90.000000
_cell_angle_beta 142.676709
_cell_angle_gamma 90.000000
_cell_volume 1638.420645
_symmetry_space_group_name_H-M "C 2/C"
_symmetry_group_IT_number 15
_symmetry_cell_setting 'monoclinic'
loop_
_space_group_symop_operation_xyz
x,y,z
-x,y,1/2-z
-x,-y,-z
x,-y,1/2+z
1/2+x,1/2+y,z
1/2-x,1/2+y,1/2-z
1/2-x,1/2-y,-z
1/2+x,1/2-y,1/2+z
loop_
_atom_site_type_symbol
_atom_site_label
_atom_site_fract_x
_atom_site_fract_y
_atom_site_fract_z
Si Si1 0.198154 0.523349 0.704839
Si Si2 0.541847 0.370646 0.515457
Si Si3 0.441234 0.169123 0.955866
Si Si4 0.342561 0.442460 0.224450
Si Si5 0.500000 0.087744 0.750000
O O1 0.152933 0.600664 0.725030
O O2 0.272462 0.569624 0.732258
O O3 0.097734 0.475910 0.432009
O O4 0.264552 0.443364 0.918009
O O5 0.500000 0.381464 0.250000
O O6 0.589561 0.272863 0.629821
O O7 0.440375 0.379780 0.414413
O O8 0.613185 0.455685 0.691837
O O9 0.500000 0.165033 0.250000
O O10 0.505271 0.141024 0.929517
#
# Coordination Sequence:
#
# PCOD9296475 Si02
#       5
#     8   8   8   8   4
#     4  12  22  42  68  97 129 182 227 272 338 411
#     4  10  23  45  64  99 140 176 221 290 335 405
#     4  11  24  43  68  97 141 175 222 286 339 391
#     4  11  23  41  70  94 132 181 228 269 345 408
#     4  12  24  44  66 100 140 178 224 282 342 406
#
# _framework density 21.972380000000001
#
# number of rings (size 3 to 8) (size 9 to 14) (size 15 to 20)
#    0.000    0.889    5.556    2.000    0.000    2.667 
#    4.000    3.333    0.000    0.000    0.000    0.000 
#    0.000    0.000    0.000    0.000    0.000    0.000 
#
# Total GULP energy -100469.567142 kJ/mol
# GULP energy per Si atom -5581.642619 kJ/mol
# Density = 2.192237 g / cm^3
# Si number density = 21.972380 Si / 1000 Ang^3
#
#
#
# Elastic Constant Matrix: (Units=GPa)
#
#
# Indices 1 2 3 4 5 6 
#
# 1 154.2433 2.8408 19.0574 0.0000 4.4656 0.0000
# 2 2.8408 71.3860 15.5209 0.0000 4.7248 0.0000
# 3 19.0574 15.5209 50.5266 0.0000 10.1839 0.0000
# 4 0.0000 0.0000 0.0000 11.8914 0.0000 -3.5980
# 5 4.4656 4.7248 10.1839 0.0000 32.2170 0.0000
# 6 0.0000 0.0000 0.0000 -3.5980 0.0000 14.9307
#
#
#
# Elastic Compliance Matrix: (Units=1/GPa)
#
#
# Indices 1 2 3 4 5 6 
#
# 1 0.006807 0.000312 -0.002632 0.000000 -0.000157 0.000000
# 2 0.000312 0.015044 -0.004577 0.000000 -0.000803 0.000000
# 3 -0.002632 -0.004577 0.023477 0.000000 -0.006385 0.000000
# 4 0.000000 0.000000 0.000000 0.090708 0.000000 0.021859
# 5 -0.000157 -0.000803 -0.006385 0.000000 0.033197 0.000000
# 6 0.000000 0.000000 0.000000 0.021859 0.000000 0.072244
#
#
# Mechanical properties :
#
#
# Convention : Reuss Voigt Hill
#
# Bulk Modulus (GPa) = 31.71115 38.99932 35.35524
# Shear Modulus (GPa) = 18.81233 27.72363 23.26798
#
# Velocity S-wave (km/s) = 2.92923 3.55596 3.25770
# Velocity P-wave (km/s) = 5.08961 5.88622 5.50235
#
# Compressibility (1/GPa) = 0.03153465
#
# Stress axis : x y z
#
# Youngs Moduli (GPa) = 146.90288 66.47070 42.59474
#
# Poissons Ratio (x) = -0.02072 0.11209
# Poissons Ratio (y) = -0.04579 0.19496
# Poissons Ratio (z) = 0.38658 0.30424
#
# Static dielectric constant tensor:
#      x y z
#    x 1.876520 0.000000 -0.044170 
#    y 0.000000 1.773230 0.000000 
#    z -0.044170 0.000000 1.839440 
# 
# From -- ./inp_files/28832.got.cif
#   From: 2010.05.17/outbox.cif.g08.bks.cpg/sg15_15_cif.got.tgz:28832.got - 2010.06.03 18:47:42.
