data_PCOD9296886
_publ_section_title
;
Structure prediction by ZEFSAII (Michael W. Deem and Ramdas Pophale) SiO2 
 PCOD9296886
Probable space group: C 2/C
;
_chemical_formula_sum "Si O2"
_cell_formula_units_Z 52
_cell_length_a 17.980967
_cell_length_b 15.133040
_cell_length_c 9.102055
_cell_angle_alpha 90.000000
_cell_angle_beta 61.643989
_cell_angle_gamma 90.000000
_cell_volume 2179.555849
_symmetry_space_group_name_H-M "C 2/C"
_symmetry_group_IT_number 15
_symmetry_cell_setting 'monoclinic'
loop_
_space_group_symop_operation_xyz
x,y,z
-x,y,1/2-z
-x,-y,-z
x,-y,1/2+z
1/2+x,1/2+y,z
1/2-x,1/2+y,1/2-z
1/2-x,1/2-y,-z
1/2+x,1/2-y,1/2+z
loop_
_atom_site_type_symbol
_atom_site_label
_atom_site_fract_x
_atom_site_fract_y
_atom_site_fract_z
Si Si1 0.823901 0.805954 0.997798
Si Si2 0.500000 0.307399 0.750000
Si Si3 0.500000 0.967462 0.250000
Si Si4 0.650294 0.608719 0.728387
Si Si5 0.119291 0.086435 0.301366
Si Si6 0.000000 0.231321 0.750000
Si Si7 0.748430 0.161732 0.101668
Si Si8 0.934131 0.619853 0.108742
O O1 0.815238 0.831778 0.172495
O O2 0.838177 0.650050 0.229662
O O3 0.750000 0.750000 0.000000
O O4 0.835903 0.896427 0.897055
O O5 0.471860 0.369441 0.639938
O O6 0.585529 0.260729 0.622154
O O7 0.456612 0.912084 0.423131
O O8 0.442727 0.034948 0.208703
O O9 0.616089 0.517226 0.826204
O O10 0.578110 0.664929 0.710188
O O11 0.728194 0.590134 0.545605
O O12 0.175168 0.145642 0.356883
O O13 0.995095 0.301507 0.617059
O O14 0.750000 0.250000 0.000000
#
# Coordination Sequence:
#
# PCOD9296886 Si02
#       8
#     8   4   4   8   8   4   8   8
#     4  10  23  46  71 105 150 197 259 323 387 464
#     4   8  23  42  72 102 145 188 252 320 374 474
#     4   9  22  50  86 112 159 204 284 327 399 480
#     4  12  25  43  74 107 154 212 250 327 394 480
#     4  10  24  46  70 110 146 195 268 315 395 476
#     4  11  25  42  74 110 164 206 262 321 407 474
#     4  12  25  44  73 112 161 202 258 330 400 483
#     4  10  23  48  77 122 154 214 265 338 400 473
#
# _framework density 23.858072
#
# number of rings (size 3 to 8) (size 9 to 14) (size 15 to 20)
#    0.923    0.615    1.538    2.308    4.308    0.615 
#    0.000    2.308    0.000    0.000    0.000    0.000 
#    0.000    0.000    0.000    0.000    0.000    0.000 
#
# Total GULP energy -144977.754638 kJ/mol
# GULP energy per Si atom -5576.067486 kJ/mol
# Density = 2.380377 g / cm^3
# Si number density = 23.858072 Si / 1000 Ang^3
#
#
#
# Elastic Constant Matrix: (Units=GPa)
#
#
# Indices 1 2 3 4 5 6 
#
# 1 166.2971 75.5845 72.6151 0.0000 12.0213 0.0000
# 2 75.5845 153.5529 40.1534 0.0000 10.2406 0.0000
# 3 72.6151 40.1534 170.7058 0.0000 6.9432 0.0000
# 4 0.0000 0.0000 0.0000 18.7193 0.0000 -22.2976
# 5 12.0213 10.2406 6.9432 0.0000 38.4036 0.0000
# 6 0.0000 0.0000 0.0000 -22.2976 0.0000 5.3897
#
#
#
# Elastic Compliance Matrix: (Units=1/GPa)
#
#
# Indices 1 2 3 4 5 6 
#
# 1 0.009023 -0.003583 -0.002941 0.000000 -0.001337 0.000000
# 2 -0.003583 0.008457 -0.000422 0.000000 -0.001057 0.000000
# 3 -0.002941 -0.000422 0.007219 0.000000 -0.000272 0.000000
# 4 0.000000 0.000000 0.000000 -0.013600 0.000000 -0.056266
# 5 -0.001337 -0.001057 -0.000272 0.000000 0.026789 0.000000
# 6 0.000000 0.000000 0.000000 -0.056266 0.000000 -0.047236
#
#
# Mechanical properties :
#
#
# Convention : Reuss Voigt Hill
#
# Bulk Modulus (GPa) = 92.53275 96.36242 94.44758
# Shear Modulus (GPa) = 613.77038 32.64938 323.20988
#
# Velocity S-wave (km/s) = 16.05670 3.70332 11.65187
# Velocity P-wave (km/s) = 19.56082 7.66574 14.85579
#
# Compressibility (1/GPa) = 0.01080698
#
# Stress axis : x y z
#
# Youngs Moduli (GPa) = 110.83098 118.24469 138.51602
#
# Poissons Ratio (x) = 0.42369 0.40736
# Poissons Ratio (y) = 0.39712 0.05846
# Poissons Ratio (z) = 0.32594 0.04991
#
# Static dielectric constant tensor:
#      x y z
#    x 1.942320 0.000000 0.020580 
#    y 0.000000 1.990300 0.000000 
#    z 0.020580 0.000000 2.055890 
# 
# From -- ./inp_files/55319.got.cif
#   From: 2010.05.17/outbox.cif.g08.bks.cpg/sg15_28_cif.got.tgz:55319.got - 2010.06.03 18:47:42.
