data_PCOD9296223
_publ_section_title
;
Structure prediction by ZEFSAII (Michael W. Deem and Ramdas Pophale) SiO2 
 PCOD9296223
Probable space group: C 2/C
;
_chemical_formula_sum "Si O2"
_cell_formula_units_Z 44
_cell_length_a 5.286079
_cell_length_b 23.145497
_cell_length_c 15.816680
_cell_angle_alpha 90.000000
_cell_angle_beta 117.850249
_cell_angle_gamma 90.000000
_cell_volume 1711.008054
_symmetry_space_group_name_H-M "C 2/C"
_symmetry_group_IT_number 15
_symmetry_cell_setting 'monoclinic'
loop_
_space_group_symop_operation_xyz
x,y,z
-x,y,1/2-z
-x,-y,-z
x,-y,1/2+z
1/2+x,1/2+y,z
1/2-x,1/2+y,1/2-z
1/2-x,1/2-y,-z
1/2+x,1/2-y,1/2+z
loop_
_atom_site_type_symbol
_atom_site_label
_atom_site_fract_x
_atom_site_fract_y
_atom_site_fract_z
Si Si1 0.000000 0.173271 0.750000
Si Si2 0.500000 0.702711 0.250000
Si Si3 0.489120 0.164041 0.431036
Si Si4 0.799684 0.952228 0.584017
Si Si5 0.344916 0.993880 0.613990
Si Si6 0.500000 0.902932 0.250000
Si Si7 0.127727 0.750483 0.590471
O O1 0.272120 0.134701 0.766487
O O2 0.085097 0.212411 0.844561
O O3 0.775873 0.665998 0.317680
O O4 0.463623 0.739344 0.328327
O O5 0.403019 0.103616 0.459042
O O6 0.785487 0.188624 0.438971
O O7 0.446301 0.210937 0.499289
O O8 0.747871 0.995429 0.497380
O O9 0.677390 0.977672 0.652266
O O10 0.142478 0.946603 0.627505
O O11 0.328746 0.053678 0.661543
#
# Coordination Sequence:
#
# PCOD9296223 Si02
#       7
#     4   4   8   8   8   4   8
#     4  12  24  44  72 104 145 189 244 304 354 436
#     4  12  23  46  65 100 148 191 240 313 344 450
#     4  11  25  43  72 101 144 201 240 298 381 441
#     4  10  23  44  69  98 136 183 226 294 362 427
#     4  10  23  45  67 100 138 168 240 299 348 430
#     4  12  25  42  75 102 135 188 238 301 376 414
#     4  11  25  45  66 105 148 190 251 302 359 449
#
# _framework density 25.715834000000001
#
# number of rings (size 3 to 8) (size 9 to 14) (size 15 to 20)
#    0.000    1.091    1.818    3.273    2.545    4.364 
#    3.273    0.000    0.000    0.000    0.000    0.000 
#    0.000    0.000    0.000    0.000    0.000    0.000 
#
# Total GULP energy -122779.892372 kJ/mol
# GULP energy per Si atom -5580.904199 kJ/mol
# Density = 2.565730 g / cm^3
# Si number density = 25.715834 Si / 1000 Ang^3
#
#
#
# Elastic Constant Matrix: (Units=GPa)
#
#
# Indices 1 2 3 4 5 6 
#
# 1 160.5629 60.1127 19.3941 0.0000 -32.9057 0.0000
# 2 60.1127 123.1250 12.2091 0.0000 -13.8460 0.0000
# 3 19.3941 12.2091 114.3563 0.0000 -7.7760 0.0000
# 4 0.0000 0.0000 0.0000 18.2299 0.0000 -9.4073
# 5 -32.9057 -13.8460 -7.7760 0.0000 41.4982 0.0000
# 6 0.0000 0.0000 0.0000 -9.4073 0.0000 35.2145
#
#
#
# Elastic Compliance Matrix: (Units=1/GPa)
#
#
# Indices 1 2 3 4 5 6 
#
# 1 0.008823 -0.003599 -0.000727 0.000000 0.005659 0.000000
# 2 -0.003599 0.009965 -0.000427 0.000000 0.000391 0.000000
# 3 -0.000727 -0.000427 0.008979 0.000000 0.000963 0.000000
# 4 0.000000 0.000000 0.000000 0.063626 0.000000 0.016997
# 5 0.005659 0.000391 0.000963 0.000000 0.028896 0.000000
# 6 0.000000 0.000000 0.000000 0.016997 0.000000 0.032938
#
#
# Mechanical properties :
#
#
# Convention : Reuss Voigt Hill
#
# Bulk Modulus (GPa) = 54.76232 64.60844 59.68538
# Shear Modulus (GPa) = 29.61709 39.41040 34.51374
#
# Velocity S-wave (km/s) = 3.39736 3.91901 3.66747
# Velocity P-wave (km/s) = 6.06060 6.75697 6.41824
#
# Compressibility (1/GPa) = 0.01826073
#
# Stress axis : x y z
#
# Youngs Moduli (GPa) = 113.33736 100.34762 111.37057
#
# Poissons Ratio (x) = 0.36117 0.08100
# Poissons Ratio (y) = 0.40792 0.04755
# Poissons Ratio (z) = 0.08243 0.04284
#
# Static dielectric constant tensor:
#      x y z
#    x 2.330820 0.000000 0.115360 
#    y 0.000000 2.068340 0.000000 
#    z 0.115360 0.000000 2.000690 
# 
# From -- ./inp_files/129520.got.cif
#   From: 2010.05.17/outbox.cif.g08.bks.cpg/sg15_65_cif.got.tgz:129520.got - 2010.06.03 18:47:42.
