data_PCOD9296999
_publ_section_title
;
Structure prediction by ZEFSAII (Michael W. Deem and Ramdas Pophale) SiO2 
 PCOD9296999
Probable space group: C 2/C
;
_chemical_formula_sum "Si O2"
_cell_formula_units_Z 52
_cell_length_a 16.460492
_cell_length_b 12.546168
_cell_length_c 13.707384
_cell_angle_alpha 90.000000
_cell_angle_beta 130.125874
_cell_angle_gamma 90.000000
_cell_volume 2164.512391
_symmetry_space_group_name_H-M "C 2/C"
_symmetry_group_IT_number 15
_symmetry_cell_setting 'monoclinic'
loop_
_space_group_symop_operation_xyz
x,y,z
-x,y,1/2-z
-x,-y,-z
x,-y,1/2+z
1/2+x,1/2+y,z
1/2-x,1/2+y,1/2-z
1/2-x,1/2-y,-z
1/2+x,1/2-y,1/2+z
loop_
_atom_site_type_symbol
_atom_site_label
_atom_site_fract_x
_atom_site_fract_y
_atom_site_fract_z
Si Si1 0.038470 0.631911 0.911169
Si Si2 0.012496 0.059958 0.663667
Si Si3 0.332061 0.750135 0.652449
Si Si4 0.169236 0.024410 0.602838
Si Si5 0.000000 0.566217 0.250000
Si Si6 0.172821 0.707821 0.833411
Si Si7 0.291759 0.145705 0.307155
O O1 0.030556 0.512523 0.862087
O O2 0.113888 0.692725 0.890896
O O3 0.921069 0.678163 0.814367
O O4 0.091981 0.641815 0.056989
O O5 0.086106 0.152527 0.772703
O O6 0.084838 0.045914 0.623462
O O7 0.000000 0.984093 0.750000
O O8 0.894723 0.050370 0.523351
O O9 0.250000 0.750000 0.500000
O O10 0.402645 0.856352 0.696095
O O11 0.277504 0.762770 0.715311
O O12 0.227885 0.125840 0.600210
O O13 0.260624 0.961083 0.729713
O O14 0.213282 0.824000 0.834495
#
# Coordination Sequence:
#
# PCOD9296999 Si02
#       7
#     8   8   8   8   4   8   8
#     4  10  25  44  70 104 138 190 239 298 356 419
#     4  11  25  47  69 104 144 181 235 293 356 430
#     4  12  26  43  72 102 141 188 235 293 360 425
#     4  11  26  44  71 106 140 186 240 290 356 434
#     4  10  24  46  68  98 142 180 246 296 344 432
#     4  10  23  47  68 100 147 179 241 296 358 428
#     4  12  25  41  74 101 141 191 233 291 362 428
#
# _framework density 24.023886000000001
#
# number of rings (size 3 to 8) (size 9 to 14) (size 15 to 20)
#    0.000    1.231    2.308    3.231    6.462    2.462 
#    2.769    0.000    0.000    0.000    0.000    0.000 
#    0.000    0.000    0.000    0.000    0.000    0.000 
#
# Total GULP energy -145020.012889 kJ/mol
# GULP energy per Si atom -5577.692803 kJ/mol
# Density = 2.396921 g / cm^3
# Si number density = 24.023886 Si / 1000 Ang^3
#
#
#
# Elastic Constant Matrix: (Units=GPa)
#
#
# Indices 1 2 3 4 5 6 
#
# 1 91.8016 7.2219 28.8972 0.0000 8.9353 0.0000
# 2 7.2219 48.6623 36.0811 0.0000 -9.1770 0.0000
# 3 28.8972 36.0811 214.9576 0.0000 -16.6539 0.0000
# 4 0.0000 0.0000 0.0000 21.3802 0.0000 -7.3564
# 5 8.9353 -9.1770 -16.6539 0.0000 20.9668 0.0000
# 6 0.0000 0.0000 0.0000 -7.3564 0.0000 9.4082
#
#
#
# Elastic Compliance Matrix: (Units=1/GPa)
#
#
# Indices 1 2 3 4 5 6 
#
# 1 0.012394 -0.001833 -0.001950 0.000000 -0.007633 0.000000
# 2 -0.001833 0.024940 -0.003233 0.000000 0.009130 0.000000
# 3 -0.001950 -0.003233 0.005766 0.000000 0.003996 0.000000
# 4 0.000000 0.000000 0.000000 0.063987 0.000000 0.050032
# 5 -0.007633 0.009130 0.003996 0.000000 0.058117 0.000000
# 6 0.000000 0.000000 0.000000 0.050032 0.000000 0.145410
#
#
# Mechanical properties :
#
#
# Convention : Reuss Voigt Hill
#
# Bulk Modulus (GPa) = 34.39997 55.53575 44.96786
# Shear Modulus (GPa) = 14.95503 29.23248 22.09376
#
# Velocity S-wave (km/s) = 2.49772 3.49206 3.03588
# Velocity P-wave (km/s) = 4.76112 6.27905 5.57201
#
# Compressibility (1/GPa) = 0.02906979
#
# Stress axis : x y z
#
# Youngs Moduli (GPa) = 80.68444 40.09564 173.41839
#
# Poissons Ratio (x) = 0.07350 0.33813
# Poissons Ratio (y) = 0.14790 0.56058
# Poissons Ratio (z) = 0.15732 0.12961
#
# Static dielectric constant tensor:
#      x y z
#    x 2.133130 0.000000 -0.038840 
#    y 0.000000 1.971160 0.000000 
#    z -0.038840 0.000000 1.913280 
# 
# From -- ./inp_files/162619.got.cif
#   From: 2010.05.17/outbox.cif.g08.bks.cpg/sg15_82_cif.got.tgz:162619.got - 2010.06.03 18:47:42.
