data_PCOD9296256
_publ_section_title
;
Structure prediction by ZEFSAII (Michael W. Deem and Ramdas Pophale) SiO2 
 PCOD9296256
Probable space group: C 2/C
;
_chemical_formula_sum "Si O2"
_cell_formula_units_Z 44
_cell_length_a 22.315653
_cell_length_b 7.981623
_cell_length_c 10.569472
_cell_angle_alpha 90.000000
_cell_angle_beta 71.287309
_cell_angle_gamma 90.000000
_cell_volume 1783.068108
_symmetry_space_group_name_H-M "C 2/C"
_symmetry_group_IT_number 15
_symmetry_cell_setting 'monoclinic'
loop_
_space_group_symop_operation_xyz
x,y,z
-x,y,1/2-z
-x,-y,-z
x,-y,1/2+z
1/2+x,1/2+y,z
1/2-x,1/2+y,1/2-z
1/2-x,1/2-y,-z
1/2+x,1/2-y,1/2+z
loop_
_atom_site_type_symbol
_atom_site_label
_atom_site_fract_x
_atom_site_fract_y
_atom_site_fract_z
Si Si1 0.000000 0.634156 0.750000
Si Si2 0.832912 0.224901 0.991851
Si Si3 0.740303 0.907141 0.101774
Si Si4 0.559003 0.398737 0.905105
Si Si5 0.848548 0.816436 0.199051
Si Si6 0.124015 0.436403 0.042694
O O1 0.034992 0.754241 0.828009
O O2 0.052765 0.531556 0.636637
O O3 0.842969 0.263806 0.838224
O O4 0.834551 0.413536 0.046686
O O5 0.897143 0.155125 0.008068
O O6 0.778602 0.081153 0.040202
O O7 0.777603 0.860352 0.202877
O O8 0.664719 0.900268 0.142174
O O9 0.750000 0.750000 0.000000
O O10 0.607197 0.524818 0.803913
O O11 0.500000 0.500000 0.000000
O O12 0.876372 0.709997 0.062695
#
# Coordination Sequence:
#
# PCOD9296256 Si02
#       6
#     4   8   8   8   8   8
#     4  12  26  44  72 102 152 204 242 316 362 454
#     4  11  25  43  73 103 140 189 239 309 377 433
#     4   9  22  45  70 104 137 181 250 301 367 440
#     4  11  23  44  70  98 139 191 257 296 369 431
#     4  10  23  44  70 104 140 191 247 310 363 435
#     4  11  25  45  68 107 151 191 244 294 377 447
#
# _framework density 24.676565
#
# number of rings (size 3 to 8) (size 9 to 14) (size 15 to 20)
#    0.000    1.455    1.818    1.636    7.636    5.091 
#    3.273    0.000    0.000    0.000    0.000    0.000 
#    0.000    0.000    0.000    0.000    0.000    0.000 
#
# Total GULP energy -122681.951830 kJ/mol
# GULP energy per Si atom -5576.452356 kJ/mol
# Density = 2.462040 g / cm^3
# Si number density = 24.676565 Si / 1000 Ang^3
#
#
#
# Elastic Constant Matrix: (Units=GPa)
#
#
# Indices 1 2 3 4 5 6 
#
# 1 164.7747 34.1494 37.6198 0.0000 -10.3081 0.0000
# 2 34.1494 93.7662 12.1600 0.0000 -7.2448 0.0000
# 3 37.6198 12.1600 83.5612 0.0000 0.4560 0.0000
# 4 0.0000 0.0000 0.0000 -15.2584 0.0000 6.7889
# 5 -10.3081 -7.2448 0.4560 0.0000 29.8875 0.0000
# 6 0.0000 0.0000 0.0000 6.7889 0.0000 36.3373
#
#
#
# Elastic Compliance Matrix: (Units=1/GPa)
#
#
# Indices 1 2 3 4 5 6 
#
# 1 0.007321 -0.002119 -0.002999 0.000000 0.002057 0.000000
# 2 -0.002119 0.011699 -0.000760 0.000000 0.002117 0.000000
# 3 -0.002999 -0.000760 0.013436 0.000000 -0.001424 0.000000
# 4 0.000000 0.000000 0.000000 -0.060508 0.000000 0.011305
# 5 0.002057 0.002117 -0.001424 0.000000 0.034703 0.000000
# 6 0.000000 0.000000 0.000000 0.011305 0.000000 0.025408
#
#
# Mechanical properties :
#
#
# Convention : Reuss Voigt Hill
#
# Bulk Modulus (GPa) = 48.30865 56.66228 52.48546
# Shear Modulus (GPa) = 98.59057 27.40478 62.99768
#
# Velocity S-wave (km/s) = 6.32771 3.33612 5.05814
# Velocity P-wave (km/s) = 8.54434 6.15235 7.44504
#
# Compressibility (1/GPa) = 0.02070023
#
# Stress axis : x y z
#
# Youngs Moduli (GPa) = 136.58617 85.48096 74.42764
#
# Poissons Ratio (x) = 0.18109 0.22321
# Poissons Ratio (y) = 0.28936 0.05658
# Poissons Ratio (z) = 0.40963 0.06498
#
# Static dielectric constant tensor:
#      x y z
#    x 1.922600 0.000000 0.051010 
#    y 0.000000 2.304830 0.000000 
#    z 0.051010 0.000000 1.742620 
# 
# From -- ./inp_files/110045.got.cif
#   From: 2010.05.17/outbox.cif.g08.bks.cpg/sg15_56_cif.got.tgz:110045.got - 2010.06.03 18:47:42.
