data_PCOD9296317
_publ_section_title
;
Structure prediction by ZEFSAII (Michael W. Deem and Ramdas Pophale) SiO2 
 PCOD9296317
Probable space group: C 2/C
;
_chemical_formula_sum "Si O2"
_cell_formula_units_Z 36
_cell_length_a 7.760579
_cell_length_b 18.140861
_cell_length_c 15.375312
_cell_angle_alpha 90.000000
_cell_angle_beta 45.314317
_cell_angle_gamma 90.000000
_cell_volume 1538.970938
_symmetry_space_group_name_H-M "C 2/C"
_symmetry_group_IT_number 15
_symmetry_cell_setting 'monoclinic'
loop_
_space_group_symop_operation_xyz
x,y,z
-x,y,1/2-z
-x,-y,-z
x,-y,1/2+z
1/2+x,1/2+y,z
1/2-x,1/2+y,1/2-z
1/2-x,1/2-y,-z
1/2+x,1/2-y,1/2+z
loop_
_atom_site_type_symbol
_atom_site_label
_atom_site_fract_x
_atom_site_fract_y
_atom_site_fract_z
Si Si1 0.500000 0.153087 0.750000
Si Si2 0.737395 0.056449 0.815350
Si Si3 0.222495 0.603644 0.239168
Si Si4 0.106043 0.654388 0.003878
Si Si5 0.495347 0.309422 0.996586
O O1 0.627827 0.101094 0.774872
O O2 0.716348 0.193878 0.622865
O O3 0.587190 0.080492 0.954002
O O4 0.000000 0.085016 0.750000
O O5 0.767691 0.973370 0.771027
O O6 0.000000 0.592559 0.250000
O O7 0.116041 0.657916 0.349720
O O8 0.443312 0.638634 0.107087
O O9 0.344780 0.658329 0.979765
O O10 0.097522 0.727018 0.947615
#
# Coordination Sequence:
#
# PCOD9296317 Si02
#       5
#     4   8   8   8   8
#     4  12  26  46  74 106 146 188 238 298 348 426
#     4  12  25  45  73 105 145 188 237 292 361 429
#     4  10  23  44  71 107 145 187 240 298 354 420
#     4  10  23  45  76 103 142 192 237 294 361 425
#     4  10  24  45  74 106 147 186 239 297 356 420
#
# _framework density 23.392254000000001
#
# number of rings (size 3 to 8) (size 9 to 14) (size 15 to 20)
#    0.000    1.333    3.333    0.667    3.111    6.222 
#    2.000    0.000    0.000    0.000    0.000    0.000 
#    0.000    0.000    0.000    0.000    0.000    0.000 
#
# Total GULP energy -100621.323496 kJ/mol
# GULP energy per Si atom -5590.073528 kJ/mol
# Density = 2.333901 g / cm^3
# Si number density = 23.392254 Si / 1000 Ang^3
#
#
#
# Elastic Constant Matrix: (Units=GPa)
#
#
# Indices 1 2 3 4 5 6 
#
# 1 106.4845 37.9383 36.9603 0.0000 6.2442 0.0000
# 2 37.9383 116.8049 45.2446 0.0000 17.9428 0.0000
# 3 36.9603 45.2446 148.2788 0.0000 -7.1375 0.0000
# 4 0.0000 0.0000 0.0000 28.8180 0.0000 15.0045
# 5 6.2442 17.9428 -7.1375 0.0000 32.0910 0.0000
# 6 0.0000 0.0000 0.0000 15.0045 0.0000 27.9061
#
#
#
# Elastic Compliance Matrix: (Units=1/GPa)
#
#
# Indices 1 2 3 4 5 6 
#
# 1 0.011101 -0.002654 -0.002011 0.000000 -0.001123 0.000000
# 2 -0.002654 0.011715 -0.003238 0.000000 -0.006754 0.000000
# 3 -0.002011 -0.003238 0.008430 0.000000 0.004077 0.000000
# 4 0.000000 0.000000 0.000000 0.048192 0.000000 -0.025912
# 5 -0.001123 -0.006754 0.004077 0.000000 0.036063 0.000000
# 6 0.000000 0.000000 0.000000 -0.025912 0.000000 0.049767
#
#
# Mechanical properties :
#
#
# Convention : Reuss Voigt Hill
#
# Bulk Modulus (GPa) = 64.77242 67.98383 66.37813
# Shear Modulus (GPa) = 26.85000 34.52469 30.68734
#
# Velocity S-wave (km/s) = 3.39162 3.84592 3.62589
# Velocity P-wave (km/s) = 6.56409 6.98907 6.77991
#
# Compressibility (1/GPa) = 0.01543867
#
# Stress axis : x y z
#
# Youngs Moduli (GPa) = 90.08587 85.35988 118.62787
#
# Poissons Ratio (x) = 0.22653 0.23859
# Poissons Ratio (y) = 0.23907 0.38415
# Poissons Ratio (z) = 0.18119 0.27642
#
# Static dielectric constant tensor:
#      x y z
#    x 1.863300 0.000000 -0.013290 
#    y 0.000000 1.856250 0.000000 
#    z -0.013290 0.000000 1.926820 
# 
# From -- ./inp_files/76988.got.cif
#   From: 2010.05.17/outbox.cif.g08.bks.cpg/sg15_39_cif.got.tgz:76988.got - 2010.06.03 18:47:42.
