data_PCOD9296427
_publ_section_title
;
Structure prediction by ZEFSAII (Michael W. Deem and Ramdas Pophale) SiO2 
 PCOD9296427
Probable space group: C 2/C
;
_chemical_formula_sum "Si O2"
_cell_formula_units_Z 32
_cell_length_a 9.066704
_cell_length_b 18.443089
_cell_length_c 8.868767
_cell_angle_alpha 90.000000
_cell_angle_beta 81.529436
_cell_angle_gamma 90.000000
_cell_volume 1466.840490
_symmetry_space_group_name_H-M "C 2/C"
_symmetry_group_IT_number 15
_symmetry_cell_setting 'monoclinic'
loop_
_space_group_symop_operation_xyz
x,y,z
-x,y,1/2-z
-x,-y,-z
x,-y,1/2+z
1/2+x,1/2+y,z
1/2-x,1/2+y,1/2-z
1/2-x,1/2-y,-z
1/2+x,1/2-y,1/2+z
loop_
_atom_site_type_symbol
_atom_site_label
_atom_site_fract_x
_atom_site_fract_y
_atom_site_fract_z
Si Si1 0.039269 0.078323 0.919895
Si Si2 0.678744 0.414901 0.679218
Si Si3 0.763298 0.832487 0.545770
Si Si4 0.102480 0.453743 0.373351
O O1 0.000000 0.074647 0.750000
O O2 0.930078 0.142372 0.985330
O O3 0.186732 0.096266 0.996623
O O4 0.000000 0.000000 0.000000
O O5 0.500000 0.415135 0.750000
O O6 0.755706 0.355353 0.775597
O O7 0.764453 0.490991 0.698973
O O8 0.750000 0.750000 0.500000
O O9 0.665781 0.886016 0.456361
O O10 0.000000 0.431749 0.250000
O O11 0.000000 0.500000 0.000000
#
# Coordination Sequence:
#
# PCOD9296427 Si02
#       4
#     8   8   8   8
#     4  11  22  39  73 101 128 179 247 277 329 419
#     4  10  23  44  74  98 136 184 247 277 331 441
#     4  11  25  45  68 104 143 178 227 302 354 402
#     4  12  25  42  70 102 143 182 233 290 354 412
#
# _framework density 21.815594999999998
#
# number of rings (size 3 to 8) (size 9 to 14) (size 15 to 20)
#    0.000    1.000    5.000    2.250    3.500    3.000 
#    4.500    1.250    0.000    0.000    0.000    0.000 
#    0.000    0.000    0.000    0.000    0.000    0.000 
#
# Total GULP energy -89111.350732 kJ/mol
# GULP energy per Si atom -5569.459421 kJ/mol
# Density = 2.176594 g / cm^3
# Si number density = 21.815595 Si / 1000 Ang^3
#
#
#
# Elastic Constant Matrix: (Units=GPa)
#
#
# Indices 1 2 3 4 5 6 
#
# 1 80.5164 39.6215 32.3150 0.0000 25.5554 0.0000
# 2 39.6215 185.6922 72.4497 0.0000 27.9801 0.0000
# 3 32.3150 72.4497 225.0062 0.0000 64.0694 0.0000
# 4 0.0000 0.0000 0.0000 27.6487 0.0000 10.8300
# 5 25.5554 27.9801 64.0694 0.0000 52.0733 0.0000
# 6 0.0000 0.0000 0.0000 10.8300 0.0000 27.5888
#
#
#
# Elastic Compliance Matrix: (Units=1/GPa)
#
#
# Indices 1 2 3 4 5 6 
#
# 1 0.015656 -0.002499 0.000557 0.000000 -0.007025 0.000000
# 2 -0.002499 0.006619 -0.001707 0.000000 -0.000230 0.000000
# 3 0.000557 -0.001707 0.007282 0.000000 -0.008315 0.000000
# 4 0.000000 0.000000 0.000000 0.042740 0.000000 -0.016777
# 5 -0.007025 -0.000230 -0.008315 0.000000 0.033006 0.000000
# 6 0.000000 0.000000 0.000000 -0.016777 0.000000 0.042833
#
#
# Mechanical properties :
#
#
# Convention : Reuss Voigt Hill
#
# Bulk Modulus (GPa) = 44.92749 86.66526 65.79637
# Shear Modulus (GPa) = 30.70251 44.58407 37.64329
#
# Velocity S-wave (km/s) = 3.75556 4.52561 4.15845
# Velocity P-wave (km/s) = 6.28049 8.19272 7.29949
#
# Compressibility (1/GPa) = 0.02225809
#
# Stress axis : x y z
#
# Youngs Moduli (GPa) = 63.87315 151.07755 137.33095
#
# Poissons Ratio (x) = 0.37757 -0.07644
# Poissons Ratio (y) = 0.15963 0.23440
# Poissons Ratio (z) = -0.03555 0.25787
#
# Static dielectric constant tensor:
#      x y z
#    x 1.945980 0.000000 -0.041910 
#    y 0.000000 1.768740 0.000000 
#    z -0.041910 0.000000 2.300180 
# 
# From -- ./inp_files/22897.got.cif
#   From: 2010.05.17/outbox.cif.g08.bks.cpg/sg15_12_cif.got.tgz:22897.got - 2010.06.03 18:47:42.
