data_PCOD9296264
_publ_section_title
;
Structure prediction by ZEFSAII (Michael W. Deem and Ramdas Pophale) SiO2 
 PCOD9296264
Probable space group: C 2/C
;
_chemical_formula_sum "Si O2"
_cell_formula_units_Z 32
_cell_length_a 10.625682
_cell_length_b 14.554242
_cell_length_c 16.973898
_cell_angle_alpha 90.000000
_cell_angle_beta 146.560426
_cell_angle_gamma 90.000000
_cell_volume 1446.520868
_symmetry_space_group_name_H-M "C 2/C"
_symmetry_group_IT_number 15
_symmetry_cell_setting 'monoclinic'
loop_
_space_group_symop_operation_xyz
x,y,z
-x,y,1/2-z
-x,-y,-z
x,-y,1/2+z
1/2+x,1/2+y,z
1/2-x,1/2+y,1/2-z
1/2-x,1/2-y,-z
1/2+x,1/2-y,1/2+z
loop_
_atom_site_type_symbol
_atom_site_label
_atom_site_fract_x
_atom_site_fract_y
_atom_site_fract_z
Si Si1 0.746343 0.406120 0.911389
Si Si2 0.503987 0.242604 0.165201
Si Si3 0.984241 0.457324 0.872974
Si Si4 0.911370 0.656274 0.791700
O O1 0.500000 0.382953 0.750000
O O2 0.888254 0.426999 0.907270
O O3 0.765845 0.498636 0.976113
O O4 0.884412 0.333941 0.037048
O O5 0.500000 0.285563 0.250000
O O6 0.545775 0.133459 0.192422
O O7 0.694442 0.286922 0.208255
O O8 0.250000 0.250000 0.000000
O O9 0.858829 0.546574 0.771951
O O10 0.000000 0.674524 0.750000
#
# Coordination Sequence:
#
# PCOD9296264 Si02
#       4
#     8   8   8   8
#     4   9  20  40  75  95 137 187 235 284 355 413
#     4  12  27  45  72 106 145 186 238 293 354 424
#     4   9  22  41  68  99 138 183 236 282 353 409
#     4  10  23  44  70 106 143 181 239 290 354 424
#
# _framework density 22.122046000000001
#
# number of rings (size 3 to 8) (size 9 to 14) (size 15 to 20)
#    1.500    0.500    0.000    2.250    3.500    3.000 
#    0.000    7.500    0.000    0.000    0.000    0.000 
#    0.000    0.000    0.000    0.000    0.000    0.000 
#
# Total GULP energy -89119.148039 kJ/mol
# GULP energy per Si atom -5569.946752 kJ/mol
# Density = 2.207170 g / cm^3
# Si number density = 22.122046 Si / 1000 Ang^3
#
#
#
# Elastic Constant Matrix: (Units=GPa)
#
#
# Indices 1 2 3 4 5 6 
#
# 1 179.3554 58.7354 91.3596 0.0000 -19.6845 0.0000
# 2 58.7354 141.1200 31.6766 0.0000 13.8532 0.0000
# 3 91.3596 31.6766 156.5975 -0.0002 20.1856 -0.0001
# 4 0.0000 0.0000 -0.0002 20.7951 0.0000 1.4875
# 5 -19.6845 13.8532 20.1856 0.0000 26.5717 0.0000
# 6 0.0000 0.0000 -0.0001 1.4875 0.0000 20.5129
#
#
#
# Elastic Compliance Matrix: (Units=1/GPa)
#
#
# Indices 1 2 3 4 5 6 
#
# 1 0.015820 -0.006423 -0.010944 0.000000 0.023382 0.000000
# 2 -0.006423 0.010257 0.003298 0.000000 -0.012611 0.000000
# 3 -0.010944 0.003298 0.014821 0.000000 -0.021086 0.000000
# 4 0.000000 0.000000 0.000000 0.048339 0.000000 -0.003505
# 5 0.023382 -0.012611 -0.021086 0.000000 0.077548 0.000000
# 6 0.000000 0.000000 0.000000 -0.003505 0.000000 0.049004
#
#
# Mechanical properties :
#
#
# Convention : Reuss Voigt Hill
#
# Bulk Modulus (GPa) = 78.36787 93.40178 85.88482
# Shear Modulus (GPa) = 20.14656 33.26270 26.70463
#
# Velocity S-wave (km/s) = 3.02106 3.88183 3.47818
# Velocity P-wave (km/s) = 6.90443 7.89964 7.41874
#
# Compressibility (1/GPa) = 0.01276033
#
# Stress axis : x y z
#
# Youngs Moduli (GPa) = 63.21222 97.49255 67.46985
#
# Poissons Ratio (x) = 0.62620 0.73839
# Poissons Ratio (y) = 0.40602 -0.22252
# Poissons Ratio (z) = 0.69179 -0.32153
#
# Static dielectric constant tensor:
#      x y z
#    x 2.082930 0.000000 0.012390 
#    y 0.000000 1.764360 0.000000 
#    z 0.012390 0.000000 1.838730 
# 
# From -- ./inp_files/198162.got.cif
#   From: 2010.05.17/outbox.cif.g08.bks.cpg/sg15_100_cif.got.tgz:198162.got - 2010.06.03 18:47:42.
