data_PCOD9296168
_publ_section_title
;
Structure prediction by ZEFSAII (Michael W. Deem and Ramdas Pophale) SiO2 
 PCOD9296168
Probable space group: C 2/C
;
_chemical_formula_sum "Si O2"
_cell_formula_units_Z 44
_cell_length_a 6.081216
_cell_length_b 13.209658
_cell_length_c 25.934277
_cell_angle_alpha 90.000000
_cell_angle_beta 101.288010
_cell_angle_gamma 90.000000
_cell_volume 2043.020289
_symmetry_space_group_name_H-M "C 2/C"
_symmetry_group_IT_number 15
_symmetry_cell_setting 'monoclinic'
loop_
_space_group_symop_operation_xyz
x,y,z
-x,y,1/2-z
-x,-y,-z
x,-y,1/2+z
1/2+x,1/2+y,z
1/2-x,1/2+y,1/2-z
1/2-x,1/2-y,-z
1/2+x,1/2-y,1/2+z
loop_
_atom_site_type_symbol
_atom_site_label
_atom_site_fract_x
_atom_site_fract_y
_atom_site_fract_z
Si Si1 0.566507 0.411890 0.886218
Si Si2 0.623290 0.272490 0.702186
Si Si3 0.500000 0.067532 0.250000
Si Si4 0.229218 0.038993 0.037269
Si Si5 0.890482 0.352465 0.992815
Si Si6 0.687473 0.440307 0.303361
O O1 0.546852 0.316539 0.847429
O O2 0.341183 0.426759 0.909280
O O3 0.762329 0.394070 0.936201
O O4 0.607636 0.507419 0.851744
O O5 0.500000 0.246486 0.750000
O O6 0.798880 0.361271 0.722224
O O7 0.752939 0.176026 0.687338
O O8 0.403928 0.998703 0.291266
O O9 0.350579 0.132016 0.013162
O O10 0.371256 0.935634 0.037752
O O11 0.000000 0.000000 0.000000
O O12 0.750000 0.250000 0.000000
O O13 0.500000 0.449793 0.250000
#
# Coordination Sequence:
#
# PCOD9296168 Si02
#       6
#     8   8   4   8   8   8
#     4  11  24  41  65 101 132 173 236 279 346 422
#     4  12  25  42  66 100 135 184 227 277 347 410
#     4  12  22  44  66  86 146 172 226 282 330 402
#     4   9  22  43  66  93 133 173 220 287 345 415
#     4  10  23  44  68  97 134 178 225 291 361 421
#     4  12  25  43  67  97 137 183 223 285 338 406
#
# _framework density 21.536743000000001
#
# number of rings (size 3 to 8) (size 9 to 14) (size 15 to 20)
#    0.000    1.091    5.455    0.000    2.545    8.727 
#    3.273    0.000    0.000    0.000    0.000    0.000 
#    0.000    0.000    0.000    0.000    0.000    0.000 
#
# Total GULP energy -122817.516515 kJ/mol
# GULP energy per Si atom -5582.614387 kJ/mol
# Density = 2.148772 g / cm^3
# Si number density = 21.536743 Si / 1000 Ang^3
#
#
#
# Elastic Constant Matrix: (Units=GPa)
#
#
# Indices 1 2 3 4 5 6 
#
# 1 77.9804 21.0274 17.3790 0.0000 -22.1512 0.0000
# 2 21.0274 119.1441 28.8240 0.0000 -12.7079 0.0000
# 3 17.3790 28.8240 84.3133 0.0000 -12.4144 0.0000
# 4 0.0000 0.0000 0.0000 -7.8638 0.0000 -7.5390
# 5 -22.1512 -12.7079 -12.4144 0.0000 47.5839 0.0000
# 6 0.0000 0.0000 0.0000 -7.5390 0.0000 49.3069
#
#
#
# Elastic Compliance Matrix: (Units=1/GPa)
#
#
# Indices 1 2 3 4 5 6 
#
# 1 0.015435 -0.001642 -0.001692 0.000000 0.006305 0.000000
# 2 -0.001642 0.009458 -0.002741 0.000000 0.001046 0.000000
# 3 -0.001692 -0.002741 0.013439 0.000000 0.001987 0.000000
# 4 0.000000 0.000000 0.000000 -0.110907 0.000000 -0.016958
# 5 0.006305 0.001046 0.001987 0.000000 0.024748 0.000000
# 6 0.000000 0.000000 0.000000 -0.016958 0.000000 0.017688
#
#
# Mechanical properties :
#
#
# Convention : Reuss Voigt Hill
#
# Bulk Modulus (GPa) = 38.19448 46.21096 42.20272
# Shear Modulus (GPa) = -539.79140 32.08587 -253.85277
#
# Velocity S-wave (km/s) = -15.84871 3.86401 -10.86856
# Velocity P-wave (km/s) = 17.80830 6.43512 11.74148
#
# Compressibility (1/GPa) = 0.02618180
#
# Stress axis : x y z
#
# Youngs Moduli (GPa) = 64.78937 105.73424 74.41193
#
# Poissons Ratio (x) = 0.17364 0.12588
# Poissons Ratio (y) = 0.10640 0.20394
# Poissons Ratio (z) = 0.10960 0.28979
#
# Static dielectric constant tensor:
#      x y z
#    x 1.905310 0.000000 0.042160 
#    y 0.000000 1.778060 0.000000 
#    z 0.042160 0.000000 1.742820 
# 
# From -- ./inp_files/260399.got.cif
#   From: 2010.05.17/outbox.cif.g08.bks.cpg/sg15_131_cif.got.tgz:260399.got - 2010.06.03 18:47:42.
