data_PCOD9296814
_publ_section_title
;
Structure prediction by ZEFSAII (Michael W. Deem and Ramdas Pophale) SiO2 
 PCOD9296814
Probable space group: C 2/C
;
_chemical_formula_sum "Si O2"
_cell_formula_units_Z 48
_cell_length_a 8.764939
_cell_length_b 15.509942
_cell_length_c 26.107338
_cell_angle_alpha 90.000000
_cell_angle_beta 139.122538
_cell_angle_gamma 90.000000
_cell_volume 2322.703538
_symmetry_space_group_name_H-M "C 2/C"
_symmetry_group_IT_number 15
_symmetry_cell_setting 'monoclinic'
loop_
_space_group_symop_operation_xyz
x,y,z
-x,y,1/2-z
-x,-y,-z
x,-y,1/2+z
1/2+x,1/2+y,z
1/2-x,1/2+y,1/2-z
1/2-x,1/2-y,-z
1/2+x,1/2-y,1/2+z
loop_
_atom_site_type_symbol
_atom_site_label
_atom_site_fract_x
_atom_site_fract_y
_atom_site_fract_z
Si Si1 0.332079 0.286799 0.756508
Si Si2 0.374395 0.027735 0.271786
Si Si3 0.760005 0.249499 0.064989
Si Si4 0.514137 0.624843 0.692033
Si Si5 0.275669 0.560644 0.941175
Si Si6 0.496065 0.907440 0.023305
O O1 0.500000 0.279969 0.750000
O O2 0.224703 0.382300 0.732230
O O3 0.486183 0.267552 0.846656
O O4 0.139297 0.212170 0.705904
O O5 0.500000 0.045126 0.250000
O O6 0.167583 0.957661 0.213914
O O7 0.570676 0.984151 0.357147
O O8 0.674075 0.341453 0.064663
O O9 0.750000 0.250000 0.000000
O O10 0.605731 0.166563 0.039151
O O11 0.500000 0.623572 0.750000
O O12 0.252821 0.619034 0.605587
O O13 0.170451 0.578279 0.970274
O O14 0.500000 0.500000 0.000000
O O15 0.500000 0.000000 0.000000
#
# Coordination Sequence:
#
# PCOD9296814 Si02
#       6
#     8   8   8   8   8   8
#     4  12  27  45  74 105 141 185 242 298 358 430
#     4  12  27  44  71 102 142 189 239 293 354 425
#     4  10  23  46  68 100 141 184 228 290 357 424
#     4  12  23  47  71 102 139 183 236 291 358 426
#     4  11  26  44  68 100 141 182 235 289 353 427
#     4  11  25  43  71 101 140 186 228 291 359 421
#
# _framework density 20.665572999999998
#
# number of rings (size 3 to 8) (size 9 to 14) (size 15 to 20)
#    0.000    0.667    3.333    3.500   11.667    0.000 
#    0.000    1.667    0.000    0.000    0.000    0.000 
#    0.000    0.000    0.000    0.000    0.000    0.000 
#
# Total GULP energy -134194.359734 kJ/mol
# GULP energy per Si atom -5591.431656 kJ/mol
# Density = 2.061854 g / cm^3
# Si number density = 20.665573 Si / 1000 Ang^3
#
#
#
# Elastic Constant Matrix: (Units=GPa)
#
#
# Indices 1 2 3 4 5 6 
#
# 1 93.7713 43.7232 9.8971 0.0000 14.9136 0.0000
# 2 43.7232 210.5835 64.0745 0.0000 31.4235 0.0000
# 3 9.8971 64.0745 85.2089 -0.0002 25.4691 0.0000
# 4 0.0000 0.0000 -0.0002 36.1637 0.0000 10.7953
# 5 14.9136 31.4235 25.4691 0.0000 38.1226 0.0000
# 6 0.0000 0.0000 0.0000 10.7953 0.0000 33.8667
#
#
#
# Elastic Compliance Matrix: (Units=1/GPa)
#
#
# Indices 1 2 3 4 5 6 
#
# 1 0.012248 -0.002448 0.001558 0.000000 -0.003815 0.000000
# 2 -0.002448 0.006840 -0.004323 0.000000 -0.001792 0.000000
# 3 0.001558 -0.004323 0.017397 0.000000 -0.008669 0.000000
# 4 0.000000 0.000000 0.000000 0.030560 0.000000 -0.009741
# 5 -0.003815 -0.001792 -0.008669 0.000000 0.034992 0.000000
# 6 0.000000 0.000000 0.000000 -0.009741 0.000000 0.032633
#
#
# Mechanical properties :
#
#
# Convention : Reuss Voigt Hill
#
# Bulk Modulus (GPa) = 38.37481 69.43928 53.90704
# Shear Modulus (GPa) = 32.51370 39.75519 36.13444
#
# Velocity S-wave (km/s) = 3.97082 4.39080 4.18608
# Velocity P-wave (km/s) = 6.29547 7.70584 7.03608
#
# Compressibility (1/GPa) = 0.02605876
#
# Stress axis : x y z
#
# Youngs Moduli (GPa) = 81.64676 146.20187 57.48120
#
# Poissons Ratio (x) = 0.35790 -0.08958
# Poissons Ratio (y) = 0.19987 0.24852
# Poissons Ratio (z) = -0.12724 0.63209
#
# Static dielectric constant tensor:
#      x y z
#    x 1.729330 0.000000 0.009890 
#    y 0.000000 1.917740 0.000000 
#    z 0.009890 0.000000 1.627770 
# 
# From -- ./inp_files/289072.got.cif
#   From: 2010.05.17/outbox.cif.g08.bks.cpg/sg15_145_cif.got.tgz:289072.got - 2010.06.03 18:47:42.
