data_PCOD9296559
_publ_section_title
;
Structure prediction by ZEFSAII (Michael W. Deem and Ramdas Pophale) SiO2 
 PCOD9296559
Probable space group: C 2/C
;
_chemical_formula_sum "Si O2"
_cell_formula_units_Z 40
_cell_length_a 14.621062
_cell_length_b 13.880041
_cell_length_c 26.748249
_cell_angle_alpha 90.000000
_cell_angle_beta 160.637709
_cell_angle_gamma 90.000000
_cell_volume 1799.705016
_symmetry_space_group_name_H-M "C 2/C"
_symmetry_group_IT_number 15
_symmetry_cell_setting 'monoclinic'
loop_
_space_group_symop_operation_xyz
x,y,z
-x,y,1/2-z
-x,-y,-z
x,-y,1/2+z
1/2+x,1/2+y,z
1/2-x,1/2+y,1/2-z
1/2-x,1/2-y,-z
1/2+x,1/2-y,1/2+z
loop_
_atom_site_type_symbol
_atom_site_label
_atom_site_fract_x
_atom_site_fract_y
_atom_site_fract_z
Si Si1 0.604168 0.467258 0.360184
Si Si2 0.094492 0.149624 0.429502
Si Si3 0.075663 0.891402 0.136399
Si Si4 0.425080 0.008750 0.655962
Si Si5 0.506388 0.192451 0.404333
O O1 0.500000 0.479008 0.250000
O O2 0.639410 0.569579 0.407791
O O3 0.395753 0.405669 0.288782
O O4 0.872718 0.396440 0.501739
O O5 0.250000 0.250000 0.500000
O O6 0.231317 0.102054 0.548763
O O7 0.767130 0.162292 0.266361
O O8 0.113850 0.788033 0.130392
O O9 0.296209 0.963482 0.227772
O O10 0.764945 0.926649 0.965505
O O11 0.500000 0.983221 0.750000
O O12 0.750000 0.250000 0.500000
#
# Coordination Sequence:
#
# PCOD9296559 Si02
#       5
#     8   8   8   8   8
#     4  10  25  44  72 105 141 186 233 289 360 417
#     4  11  24  44  68  97 140 179 232 294 346 419
#     4  10  23  45  68 102 145 181 239 293 350 415
#     4  11  24  43  70 103 134 191 237 291 351 416
#     4  10  23  45  69  97 139 188 229 288 353 414
#
# _framework density 22.225864000000001
#
# number of rings (size 3 to 8) (size 9 to 14) (size 15 to 20)
#    0.000    1.600    2.000    0.600   16.800    2.400 
#    7.200    0.000    0.000    0.000    0.000    0.000 
#    0.000    0.000    0.000    0.000    0.000    0.000 
#
# Total GULP energy -111366.941376 kJ/mol
# GULP energy per Si atom -5568.347069 kJ/mol
# Density = 2.217528 g / cm^3
# Si number density = 22.225864 Si / 1000 Ang^3
#
#
#
# Elastic Constant Matrix: (Units=GPa)
#
#
# Indices 1 2 3 4 5 6 
#
# 1 65.3676 2.5382 44.3724 0.0073 -12.3483 0.0016
# 2 2.5382 157.4180 44.7412 0.0377 -2.3370 0.0001
# 3 44.3724 44.7412 127.2335 0.1268 4.2941 -0.0367
# 4 0.0073 0.0377 0.1268 62.6167 0.0037 2.0479
# 5 -12.3483 -2.3370 4.2941 0.0037 41.6794 -0.0021
# 6 0.0016 0.0001 -0.0367 2.0479 -0.0021 10.2534
#
#
#
# Elastic Compliance Matrix: (Units=1/GPa)
#
#
# Indices 1 2 3 4 5 6 
#
# 1 0.022820 0.002317 -0.009037 0.000015 0.007822 -0.000037
# 2 0.002317 0.007311 -0.003428 0.000003 0.001449 -0.000013
# 3 -0.009037 -0.003428 0.012356 -0.000023 -0.004143 0.000049
# 4 0.000015 0.000003 -0.000023 0.016075 0.000005 -0.003211
# 5 0.007822 0.001449 -0.004143 0.000005 0.026818 -0.000012
# 6 -0.000037 -0.000013 0.000049 -0.003211 -0.000012 0.098170
#
#
# Mechanical properties :
#
#
# Convention : Reuss Voigt Hill
#
# Bulk Modulus (GPa) = 45.06284 59.25808 52.16046
# Shear Modulus (GPa) = 23.66922 40.13440 31.90181
#
# Velocity S-wave (km/s) = 3.26688 4.25402 3.79271
# Velocity P-wave (km/s) = 5.87784 7.13082 6.53443
#
# Compressibility (1/GPa) = 0.02219124
#
# Stress axis : x y z
#
# Youngs Moduli (GPa) = 43.82065 136.78209 80.92931
#
# Poissons Ratio (x) = -0.31688 0.73137
# Poissons Ratio (y) = -0.10152 0.27740
# Poissons Ratio (z) = 0.39602 0.46885
#
# Static dielectric constant tensor:
#      x y z
#    x 1.879150 0.000010 0.084580 
#    y 0.000010 2.021780 0.000000 
#    z 0.084580 0.000000 1.855700 
# 
# From -- ./inp_files/296641.got.cif
#   From: 2010.05.17/outbox.cif.g08.bks.cpg/sg15_149_cif.got.tgz:296641.got - 2010.06.03 18:47:42.
