data_PCOD9296080
_publ_section_title
;
Structure prediction by ZEFSAII (Michael W. Deem and Ramdas Pophale) SiO2 
 PCOD9296080
Probable space group: C 2/C
;
_chemical_formula_sum "Si O2"
_cell_formula_units_Z 56
_cell_length_a 9.008272
_cell_length_b 17.390529
_cell_length_c 17.254633
_cell_angle_alpha 90.000000
_cell_angle_beta 115.802504
_cell_angle_gamma 90.000000
_cell_volume 2433.588474
_symmetry_space_group_name_H-M "C 2/C"
_symmetry_group_IT_number 15
_symmetry_cell_setting 'monoclinic'
loop_
_space_group_symop_operation_xyz
x,y,z
-x,y,1/2-z
-x,-y,-z
x,-y,1/2+z
1/2+x,1/2+y,z
1/2-x,1/2+y,1/2-z
1/2-x,1/2-y,-z
1/2+x,1/2-y,1/2+z
loop_
_atom_site_type_symbol
_atom_site_label
_atom_site_fract_x
_atom_site_fract_y
_atom_site_fract_z
Si Si1 0.314302 0.296034 0.231038
Si Si2 0.570603 0.583637 0.538801
Si Si3 0.276085 0.449562 0.270723
Si Si4 0.179074 0.666080 0.005779
Si Si5 0.865136 0.763378 0.953107
Si Si6 0.713891 0.845476 0.688698
Si Si7 0.000000 0.439799 0.750000
Si Si8 0.000000 0.935816 0.750000
O O1 0.500000 0.317328 0.250000
O O2 0.206522 0.371801 0.219114
O O3 0.244294 0.241207 0.148711
O O4 0.311420 0.244888 0.307403
O O5 0.500000 0.500000 0.500000
O O6 0.591255 0.579139 0.636126
O O7 0.746595 0.605802 0.538787
O O8 0.455642 0.654705 0.485607
O O9 0.153635 0.502832 0.291641
O O10 0.352987 0.500278 0.219127
O O11 0.238995 0.637680 0.103940
O O12 0.250000 0.750000 0.000000
O O13 0.989391 0.690442 0.973585
O O14 0.750000 0.750000 0.000000
O O15 0.556824 0.886605 0.691625
O O16 0.883778 0.873663 0.768187
#
# Coordination Sequence:
#
# PCOD9296080 Si02
#       8
#     8   8   8   8   8   8   4   4
#     4  12  24  42  71  98 133 182 234 286 341 412
#     4  11  25  44  72 102 143 179 228 292 359 417
#     4  11  24  45  68  99 140 177 234 279 355 415
#     4  10  23  44  66  99 140 181 230 279 349 425
#     4  11  26  44  68  99 138 183 233 285 353 418
#     4  11  23  43  71  97 137 175 237 282 345 412
#     4  10  26  42  70 100 136 172 232 296 344 406
#     4  10  24  40  72  98 132 180 228 284 346 410
#
# _framework density 23.011285999999998
#
# number of rings (size 3 to 8) (size 9 to 14) (size 15 to 20)
#    0.000    1.143    1.429    4.286   10.000    0.571 
#    0.000    1.429    0.000    0.000    0.000    0.000 
#    0.000    0.000    0.000    0.000    0.000    0.000 
#
# Total GULP energy -155909.818822 kJ/mol
# GULP energy per Si atom -5568.207815 kJ/mol
# Density = 2.295891 g / cm^3
# Si number density = 23.011286 Si / 1000 Ang^3
#
#
#
# Elastic Constant Matrix: (Units=GPa)
#
#
# Indices 1 2 3 4 5 6 
#
# 1 128.4734 52.6800 12.8487 0.0000 -13.4468 0.0000
# 2 52.6800 154.7979 18.9372 0.0000 -10.3830 0.0000
# 3 12.8487 18.9372 75.9204 0.0000 -13.2913 0.0000
# 4 0.0000 0.0000 0.0000 16.2272 0.0000 5.4451
# 5 -13.4468 -10.3830 -13.2913 0.0000 29.1419 0.0000
# 6 0.0000 0.0000 0.0000 5.4451 0.0000 41.5672
#
#
#
# Elastic Compliance Matrix: (Units=1/GPa)
#
#
# Indices 1 2 3 4 5 6 
#
# 1 0.009344 -0.002933 -0.000302 0.000000 0.003129 0.000000
# 2 -0.002933 0.007668 -0.001277 0.000000 0.000796 0.000000
# 3 -0.000302 -0.001277 0.014603 0.000000 0.006066 0.000000
# 4 0.000000 0.000000 0.000000 0.064458 0.000000 -0.008444
# 5 0.003129 0.000796 0.006066 0.000000 0.038809 0.000000
# 6 0.000000 0.000000 0.000000 -0.008444 0.000000 0.025164
#
#
# Mechanical properties :
#
#
# Convention : Reuss Voigt Hill
#
# Bulk Modulus (GPa) = 44.26490 58.68040 51.47265
# Shear Modulus (GPa) = 28.31253 35.70231 32.00742
#
# Velocity S-wave (km/s) = 3.51148 3.94320 3.73358
# Velocity P-wave (km/s) = 5.97650 6.80351 6.40337
#
# Compressibility (1/GPa) = 0.02259126
#
# Stress axis : x y z
#
# Youngs Moduli (GPa) = 107.01922 130.41494 68.47780
#
# Poissons Ratio (x) = 0.38252 0.02068
# Poissons Ratio (y) = 0.31390 0.08744
# Poissons Ratio (z) = 0.03232 0.16652
#
# Static dielectric constant tensor:
#      x y z
#    x 1.886180 0.000000 0.031590 
#    y 0.000000 1.893790 0.000000 
#    z 0.031590 0.000000 2.113450 
# 
# From -- ./inp_files/190968.got.cif
#   From: 2010.05.17/outbox.cif.g08.bks.cpg/sg15_96_cif.got.tgz:190968.got - 2010.06.03 18:47:42.
