data_PCOD9296596
_publ_section_title
;
Structure prediction by ZEFSAII (Michael W. Deem and Ramdas Pophale) SiO2 
 PCOD9296596
Probable space group: C 2/C
;
_chemical_formula_sum "Si O2"
_cell_formula_units_Z 40
_cell_length_a 15.506139
_cell_length_b 27.645868
_cell_length_c 14.450313
_cell_angle_alpha 90.000000
_cell_angle_beta 160.987939
_cell_angle_gamma 90.000000
_cell_volume 2017.987581
_symmetry_space_group_name_H-M "C 2/C"
_symmetry_group_IT_number 15
_symmetry_cell_setting 'monoclinic'
loop_
_space_group_symop_operation_xyz
x,y,z
-x,y,1/2-z
-x,-y,-z
x,-y,1/2+z
1/2+x,1/2+y,z
1/2-x,1/2+y,1/2-z
1/2-x,1/2-y,-z
1/2+x,1/2-y,1/2+z
loop_
_atom_site_type_symbol
_atom_site_label
_atom_site_fract_x
_atom_site_fract_y
_atom_site_fract_z
Si Si1 0.441960 0.884126 0.300753
Si Si2 0.382164 0.538274 0.808814
Si Si3 0.980089 0.214786 0.626068
Si Si4 0.521618 0.638734 0.042790
Si Si5 0.361798 0.998610 0.208045
O O1 0.500000 0.875629 0.250000
O O2 0.201226 0.854601 0.103435
O O3 0.361472 0.941079 0.228734
O O4 0.703940 0.872530 0.626027
O O5 0.435119 0.591572 0.897385
O O6 0.073519 0.527523 0.484808
O O7 0.500000 0.500000 0.000000
O O8 0.577399 0.523603 0.923618
O O9 0.963063 0.179953 0.519983
O O10 0.000000 0.191028 0.750000
O O11 0.730943 0.250300 0.372666
O O12 0.500000 0.002018 0.250000
#
# Coordination Sequence:
#
# PCOD9296596 Si02
#       5
#     8   8   8   8   8
#     4  11  22  38  59  90 125 167 207 239 290 366
#     4  12  21  36  55  85 125 157 204 255 299 348
#     4  10  23  45  69  93 122 155 201 261 323 378
#     4  12  23  38  67  90 120 165 206 255 311 369
#     4  11  22  36  53  79 122 170 204 243 296 357
#
# _framework density 19.821728
#
# number of rings (size 3 to 8) (size 9 to 14) (size 15 to 20)
#    0.000    0.800    4.000    4.200    0.000    4.800 
#    0.000    2.000    0.000   12.000    0.000    0.000 
#    0.000    0.000    0.000    0.000    0.000    0.000 
#
# Total GULP energy -111616.176373 kJ/mol
# GULP energy per Si atom -5580.808819 kJ/mol
# Density = 1.977661 g / cm^3
# Si number density = 19.821728 Si / 1000 Ang^3
#
#
#
# Elastic Constant Matrix: (Units=GPa)
#
#
# Indices 1 2 3 4 5 6 
#
# 1 156.6423 53.2733 36.9674 -0.0010 6.4489 0.0002
# 2 53.2733 62.3294 11.8927 -0.0010 -5.6720 0.0007
# 3 36.9674 11.8927 93.7067 -0.0029 8.9270 0.0028
# 4 -0.0010 -0.0010 -0.0029 14.6841 -0.0001 -0.1603
# 5 6.4489 -5.6720 8.9270 -0.0001 42.3634 0.0010
# 6 0.0002 0.0007 0.0028 -0.1603 0.0010 33.9366
#
#
#
# Elastic Compliance Matrix: (Units=1/GPa)
#
#
# Indices 1 2 3 4 5 6 
#
# 1 0.009849 -0.008093 -0.002666 0.000000 -0.002021 0.000000
# 2 -0.008093 0.023400 -0.000197 0.000001 0.004406 -0.000001
# 3 -0.002666 -0.000197 0.011952 0.000002 -0.002139 -0.000001
# 4 0.000000 0.000001 0.000002 0.068105 0.000000 0.000322
# 5 -0.002021 0.004406 -0.002139 0.000000 0.024954 -0.000001
# 6 0.000000 -0.000001 -0.000001 0.000322 -0.000001 0.029468
#
#
# Mechanical properties :
#
#
# Convention : Reuss Voigt Hill
#
# Bulk Modulus (GPa) = 42.93839 57.43837 50.18838
# Shear Modulus (GPa) = 25.32919 32.23313 28.78116
#
# Velocity S-wave (km/s) = 3.57858 4.03693 3.81465
# Velocity P-wave (km/s) = 6.22770 7.12527 6.69155
#
# Compressibility (1/GPa) = 0.02328918
#
# Stress axis : x y z
#
# Youngs Moduli (GPa) = 101.53651 42.73595 83.66829
#
# Poissons Ratio (x) = 0.34586 0.22303
# Poissons Ratio (y) = 0.82174 0.01646
# Poissons Ratio (z) = 0.27066 0.00841
#
# Static dielectric constant tensor:
#      x y z
#    x 1.761410 0.000000 -0.075830 
#    y 0.000000 1.654240 0.000000 
#    z -0.075830 0.000000 1.609980 
# 
# From -- ./inp_files/157138.got.cif
#   From: 2010.05.17/outbox.cif.g08.bks.cpg/sg15_79_cif.got.tgz:157138.got - 2010.06.03 18:47:42.
