data_PCOD9296247
_publ_section_title
;
Structure prediction by ZEFSAII (Michael W. Deem and Ramdas Pophale) SiO2 
 PCOD9296247
Probable space group: C 2/C
;
_chemical_formula_sum "Si O2"
_cell_formula_units_Z 40
_cell_length_a 7.784714
_cell_length_b 26.556056
_cell_length_c 11.813126
_cell_angle_alpha 90.000000
_cell_angle_beta 142.426633
_cell_angle_gamma 90.000000
_cell_volume 1489.162123
_symmetry_space_group_name_H-M "C 2/C"
_symmetry_group_IT_number 15
_symmetry_cell_setting 'monoclinic'
loop_
_space_group_symop_operation_xyz
x,y,z
-x,y,1/2-z
-x,-y,-z
x,-y,1/2+z
1/2+x,1/2+y,z
1/2-x,1/2+y,1/2-z
1/2-x,1/2-y,-z
1/2+x,1/2-y,1/2+z
loop_
_atom_site_type_symbol
_atom_site_label
_atom_site_fract_x
_atom_site_fract_y
_atom_site_fract_z
Si Si1 0.832865 0.686881 0.407015
Si Si2 0.173144 0.886960 0.106427
Si Si3 0.365859 0.489168 0.302930
Si Si4 0.645078 0.911646 0.706370
Si Si5 0.855798 0.212359 0.794725
O O1 0.500000 0.687348 0.250000
O O2 0.933011 0.631593 0.421724
O O3 0.908151 0.730747 0.357640
O O4 0.019019 0.704000 0.610070
O O5 0.500000 0.885295 0.250000
O O6 0.051285 0.832354 0.074484
O O7 0.156284 0.928934 0.196000
O O8 0.981798 0.905067 0.901625
O O9 0.500000 0.499009 0.250000
O O10 0.500000 0.500000 0.500000
O O11 0.104483 0.528958 0.163966
O O12 0.500000 0.900388 0.750000
O O13 0.000000 0.203071 0.750000
#
# Coordination Sequence:
#
# PCOD9296247 Si02
#       5
#     8   8   8   8   8
#     4  12  24  41  64  94 130 176 226 286 346 413
#     4  11  23  43  66  97 133 176 226 285 344 411
#     4  10  23  44  70 102 140 184 232 286 346 412
#     4  11  23  43  66  97 133 176 226 285 344 411
#     4  12  24  41  64  94 130 176 226 286 346 413
#
# _framework density 26.860742999999999
#
# number of rings (size 3 to 8) (size 9 to 14) (size 15 to 20)
#    0.000    0.800    0.000    7.800    0.000    3.200 
#    0.000    9.000    0.000    0.000    0.000    0.000 
#    0.000    0.000    0.000    0.000    0.000    0.000 
#
# Total GULP energy -111909.557129 kJ/mol
# GULP energy per Si atom -5595.477856 kJ/mol
# Density = 2.679961 g / cm^3
# Si number density = 26.860743 Si / 1000 Ang^3
#
#
#
# Elastic Constant Matrix: (Units=GPa)
#
#
# Indices 1 2 3 4 5 6 
#
# 1 116.9818 21.9235 9.1042 0.0000 -14.3508 0.0000
# 2 21.9235 159.5589 31.7884 0.0000 -28.8075 0.0000
# 3 9.1042 31.7884 96.2296 0.0000 2.4090 0.0000
# 4 0.0000 0.0000 0.0000 33.0021 0.0000 -7.6881
# 5 -14.3508 -28.8075 2.4090 0.0000 32.4921 0.0000
# 6 0.0000 0.0000 0.0000 -7.6881 0.0000 51.5624
#
#
#
# Elastic Compliance Matrix: (Units=1/GPa)
#
#
# Indices 1 2 3 4 5 6 
#
# 1 0.009148 -0.000420 -0.000820 0.000000 0.003729 0.000000
# 2 -0.000420 0.008214 -0.002856 0.000000 0.007308 0.000000
# 3 -0.000820 -0.002856 0.011507 0.000000 -0.003748 0.000000
# 4 0.000000 0.000000 0.000000 0.031391 0.000000 0.004681
# 5 0.003729 0.007308 -0.003748 0.000000 0.039181 0.000000
# 6 0.000000 0.000000 0.000000 0.004681 0.000000 0.020092
#
#
# Mechanical properties :
#
#
# Convention : Reuss Voigt Hill
#
# Bulk Modulus (GPa) = 48.36754 55.37803 51.87278
# Shear Modulus (GPa) = 37.14208 44.07495 40.60851
#
# Velocity S-wave (km/s) = 3.72259 4.05516 3.89243
# Velocity P-wave (km/s) = 6.04341 6.52589 6.28928
#
# Compressibility (1/GPa) = 0.02067502
#
# Stress axis : x y z
#
# Youngs Moduli (GPa) = 109.30929 121.74948 86.90516
#
# Poissons Ratio (x) = 0.05119 0.07126
# Poissons Ratio (y) = 0.04596 0.24824
# Poissons Ratio (z) = 0.08963 0.34777
#
# Static dielectric constant tensor:
#      x y z
#    x 2.046160 0.000000 0.023190 
#    y 0.000000 2.176020 0.000000 
#    z 0.023190 0.000000 2.181010 
# 
# From -- ./inp_files/137637.got.cif
#   From: 2010.05.17/outbox.cif.g08.bks.cpg/sg15_69_cif.got.tgz:137637.got - 2010.06.03 18:47:42.
