data_PCOD9296320
_publ_section_title
;
Structure prediction by ZEFSAII (Michael W. Deem and Ramdas Pophale) SiO2 
 PCOD9296320
Probable space group: C 2/C
;
_chemical_formula_sum "Si O2"
_cell_formula_units_Z 44
_cell_length_a 11.592357
_cell_length_b 20.053370
_cell_length_c 9.977176
_cell_angle_alpha 90.000000
_cell_angle_beta 131.557908
_cell_angle_gamma 90.000000
_cell_volume 1735.538121
_symmetry_space_group_name_H-M "C 2/C"
_symmetry_group_IT_number 15
_symmetry_cell_setting 'monoclinic'
loop_
_space_group_symop_operation_xyz
x,y,z
-x,y,1/2-z
-x,-y,-z
x,-y,1/2+z
1/2+x,1/2+y,z
1/2-x,1/2+y,1/2-z
1/2-x,1/2-y,-z
1/2+x,1/2-y,1/2+z
loop_
_atom_site_type_symbol
_atom_site_label
_atom_site_fract_x
_atom_site_fract_y
_atom_site_fract_z
Si Si1 0.350639 0.305858 0.899493
Si Si2 0.682925 0.041340 0.585633
Si Si3 0.012101 0.325484 0.553193
Si Si4 0.500000 0.631361 0.250000
Si Si5 0.225077 0.558136 0.904915
Si Si6 0.000000 0.889856 0.250000
Si Si7 0.000000 0.327397 0.250000
O O1 0.380133 0.229939 0.968926
O O2 0.410866 0.324966 0.794587
O O3 0.168064 0.320396 0.758925
O O4 0.453098 0.347658 0.083027
O O5 0.560568 0.101380 0.484398
O O6 0.847529 0.067890 0.662190
O O7 0.639747 0.980083 0.458132
O O8 0.717023 0.017230 0.762663
O O9 0.063375 0.302799 0.440708
O O10 0.388237 0.582128 0.082964
O O11 0.139705 0.626907 0.807129
#
# Coordination Sequence:
#
# PCOD9296320 Si02
#       7
#     8   8   8   4   8   4   4
#     4  12  27  46  79 108 151 192 247 304 375 435
#     4  11  27  47  74 106 152 191 251 297 370 435
#     4  11  26  47  74 111 148 197 244 309 366 443
#     4  12  24  46  76 112 144 196 242 312 362 440
#     4  11  25  45  72 108 145 195 243 304 361 439
#     4  12  27  48  71 111 148 193 240 308 372 446
#     4  10  23  44  71 109 146 189 250 298 370 428
#
# _framework density 25.352367999999998
#
# number of rings (size 3 to 8) (size 9 to 14) (size 15 to 20)
#    0.000    0.727    3.636    2.182    5.091   10.909 
#    0.000    0.000    0.000    0.000    0.000    0.000 
#    0.000    0.000    0.000    0.000    0.000    0.000 
#
# Total GULP energy -123056.799196 kJ/mol
# GULP energy per Si atom -5593.490873 kJ/mol
# Density = 2.529466 g / cm^3
# Si number density = 25.352368 Si / 1000 Ang^3
#
#
#
# Elastic Constant Matrix: (Units=GPa)
#
#
# Indices 1 2 3 4 5 6 
#
# 1 79.5586 21.1824 39.4737 0.0000 15.3023 0.0000
# 2 21.1824 67.5937 21.8440 0.0000 11.8915 0.0000
# 3 39.4737 21.8440 141.0209 0.0000 3.8425 0.0000
# 4 0.0000 0.0000 0.0000 15.8070 0.0000 5.7170
# 5 15.3023 11.8915 3.8425 0.0000 59.7224 0.0000
# 6 0.0000 0.0000 0.0000 5.7170 0.0000 31.7928
#
#
#
# Elastic Compliance Matrix: (Units=1/GPa)
#
#
# Indices 1 2 3 4 5 6 
#
# 1 0.015962 -0.003182 -0.003888 0.000000 -0.003206 0.000000
# 2 -0.003182 0.016745 -0.001637 0.000000 -0.002414 0.000000
# 3 -0.003888 -0.001637 0.008412 0.000000 0.000781 0.000000
# 4 0.000000 0.000000 0.000000 0.067664 0.000000 -0.012167
# 5 -0.003206 -0.002414 0.000781 0.000000 0.017996 0.000000
# 6 0.000000 0.000000 0.000000 -0.012167 0.000000 0.033642
#
#
# Mechanical properties :
#
#
# Convention : Reuss Voigt Hill
#
# Bulk Modulus (GPa) = 42.18502 50.35259 46.26880
# Shear Modulus (GPa) = 26.91994 35.17600 31.04797
#
# Velocity S-wave (km/s) = 3.26211 3.72894 3.50331
# Velocity P-wave (km/s) = 5.55555 6.20034 5.88678
#
# Compressibility (1/GPa) = 0.02370510
#
# Stress axis : x y z
#
# Youngs Moduli (GPa) = 62.64823 59.71884 118.88119
#
# Poissons Ratio (x) = 0.19001 0.46219
# Poissons Ratio (y) = 0.19933 0.19466
# Poissons Ratio (z) = 0.24356 0.09779
#
# Static dielectric constant tensor:
#      x y z
#    x 2.065670 0.000000 -0.127990 
#    y 0.000000 2.045560 0.000000 
#    z -0.127990 0.000000 2.146590 
# 
# From -- ./inp_files/32782.got.cif
#   From: 2010.05.17/outbox.cif.g08.bks.cpg/sg15_17_cif.got.tgz:32782.got - 2010.06.03 18:47:42.
