data_PCOD9296910
_publ_section_title
;
Structure prediction by ZEFSAII (Michael W. Deem and Ramdas Pophale) SiO2 
 PCOD9296910
Probable space group: C 2/C
;
_chemical_formula_sum "Si O2"
_cell_formula_units_Z 56
_cell_length_a 27.459120
_cell_length_b 9.342000
_cell_length_c 9.440349
_cell_angle_alpha 90.000000
_cell_angle_beta 75.887385
_cell_angle_gamma 90.000000
_cell_volume 2348.577668
_symmetry_space_group_name_H-M "C 2/C"
_symmetry_group_IT_number 15
_symmetry_cell_setting 'monoclinic'
loop_
_space_group_symop_operation_xyz
x,y,z
-x,y,1/2-z
-x,-y,-z
x,-y,1/2+z
1/2+x,1/2+y,z
1/2-x,1/2+y,1/2-z
1/2-x,1/2-y,-z
1/2+x,1/2-y,1/2+z
loop_
_atom_site_type_symbol
_atom_site_label
_atom_site_fract_x
_atom_site_fract_y
_atom_site_fract_z
Si Si1 0.500000 0.002141 0.750000
Si Si2 0.779097 0.972093 0.050058
Si Si3 0.396359 0.583443 0.476678
Si Si4 0.910319 0.600907 0.454105
Si Si5 0.064264 0.239738 0.318389
Si Si6 0.257815 0.820739 0.705699
Si Si7 0.500000 0.500000 0.000000
Si Si8 0.875805 0.660457 0.165565
O O1 0.459563 0.108746 0.711542
O O2 0.530010 0.902404 0.621199
O O3 0.751903 0.844900 0.161915
O O4 0.761839 0.121792 0.129967
O O5 0.839593 0.971539 0.019062
O O6 0.764611 0.924573 0.900921
O O7 0.402924 0.674121 0.329496
O O8 0.445704 0.487809 0.452335
O O9 0.401106 0.687461 0.610864
O O10 0.900030 0.722925 0.575064
O O11 0.883781 0.622386 0.323229
O O12 0.898163 0.453384 0.540355
O O13 0.018350 0.136661 0.390936
O O14 0.317654 0.834046 0.669836
#
# Coordination Sequence:
#
# PCOD9296910 Si02
#       8
#     4   8   8   8   8   8   4   8
#     4  12  22  44  66 100 140 178 232 298 342 412
#     4  10  24  46  75 102 142 183 235 295 367 418
#     4  11  25  46  69  99 144 188 234 292 346 430
#     4  12  24  38  71 102 139 181 231 292 354 421
#     4  12  25  45  68  97 142 186 232 289 342 421
#     4  10  23  46  72 103 138 185 230 303 352 430
#     4  12  26  44  68  98 140 196 236 278 346 426
#     4  11  22  43  69 104 140 179 235 287 366 411
#
# _framework density 23.844218999999999
#
# number of rings (size 3 to 8) (size 9 to 14) (size 15 to 20)
#    0.000    0.857    4.286    1.286    4.000    5.143 
#    2.571    0.000    0.000    0.000    0.000    0.000 
#    0.000    0.000    0.000    0.000    0.000    0.000 
#
# Total GULP energy -156073.026690 kJ/mol
# GULP energy per Si atom -5574.036667 kJ/mol
# Density = 2.378995 g / cm^3
# Si number density = 23.844219 Si / 1000 Ang^3
#
#
#
# Elastic Constant Matrix: (Units=GPa)
#
#
# Indices 1 2 3 4 5 6 
#
# 1 38.8647 1.1235 19.0204 0.0000 3.6212 0.0000
# 2 1.1235 21.0421 18.9245 0.0000 7.2006 0.0000
# 3 19.0204 18.9245 75.5714 0.0000 24.9311 0.0000
# 4 0.0000 0.0000 0.0000 -46.1369 0.0000 29.7827
# 5 3.6212 7.2006 24.9311 0.0000 35.9942 0.0000
# 6 0.0000 0.0000 0.0000 29.7827 0.0000 11.9551
#
#
#
# Elastic Compliance Matrix: (Units=1/GPa)
#
#
# Indices 1 2 3 4 5 6 
#
# 1 0.030257 0.006598 -0.010147 0.000000 0.002664 0.000000
# 2 0.006598 0.062902 -0.016905 0.000000 -0.001538 0.000000
# 3 -0.010147 -0.016905 0.024067 0.000000 -0.012267 0.000000
# 4 0.000000 0.000000 0.000000 -0.008310 0.000000 0.020703
# 5 0.002664 -0.001538 -0.012267 0.000000 0.036318 0.000000
# 6 0.000000 0.000000 0.000000 0.020703 0.000000 0.032071
#
#
# Mechanical properties :
#
#
# Convention : Reuss Voigt Hill
#
# Bulk Modulus (GPa) = 13.10296 23.73500 18.41898
# Shear Modulus (GPa) = 20.52116 6.78978 13.65547
#
# Velocity S-wave (km/s) = 2.93684 1.68930 2.39570
# Velocity P-wave (km/s) = 4.12398 3.71225 3.92352
#
# Compressibility (1/GPa) = 0.07631865
#
# Stress axis : x y z
#
# Youngs Moduli (GPa) = 33.05008 15.89781 41.55149
#
# Poissons Ratio (x) = -0.10490 0.42160
# Poissons Ratio (y) = -0.21808 0.70243
# Poissons Ratio (z) = 0.33534 0.26875
#
# Static dielectric constant tensor:
#      x y z
#    x 1.869120 0.000000 0.011580 
#    y 0.000000 1.998260 0.000000 
#    z 0.011580 0.000000 1.915970 
# 
# From -- ./inp_files/65485.got.cif
#   From: 2010.05.17/outbox.cif.g08.bks.cpg/sg15_33_cif.got.tgz:65485.got - 2010.06.03 18:47:42.
