data_PCOD9296483
_publ_section_title
;
Structure prediction by ZEFSAII (Michael W. Deem and Ramdas Pophale) SiO2 
 PCOD9296483
Probable space group: C 2/C
;
_chemical_formula_sum "Si O2"
_cell_formula_units_Z 48
_cell_length_a 8.932503
_cell_length_b 22.528380
_cell_length_c 11.767571
_cell_angle_alpha 90.000000
_cell_angle_beta 80.422097
_cell_angle_gamma 90.000000
_cell_volume 2335.035171
_symmetry_space_group_name_H-M "C 2/C"
_symmetry_group_IT_number 15
_symmetry_cell_setting 'monoclinic'
loop_
_space_group_symop_operation_xyz
x,y,z
-x,y,1/2-z
-x,-y,-z
x,-y,1/2+z
1/2+x,1/2+y,z
1/2-x,1/2+y,1/2-z
1/2-x,1/2-y,-z
1/2+x,1/2-y,1/2+z
loop_
_atom_site_type_symbol
_atom_site_label
_atom_site_fract_x
_atom_site_fract_y
_atom_site_fract_z
Si Si1 0.342732 0.121210 0.026499
Si Si2 0.695652 0.100918 0.042070
Si Si3 0.160462 0.896613 0.216838
Si Si4 0.336496 0.201927 0.813783
Si Si5 0.819601 0.317904 0.755390
Si Si6 0.838849 0.017118 0.579132
O O1 0.520758 0.105845 0.023593
O O2 0.278595 0.137892 0.157909
O O3 0.332859 0.178907 0.944188
O O4 0.248428 0.067339 0.983818
O O5 0.739850 0.156329 0.117264
O O6 0.730763 0.040073 0.102904
O O7 0.799980 0.095403 0.918266
O O8 0.293851 0.857301 0.251060
O O9 0.142218 0.953906 0.298958
O O10 0.000000 0.863516 0.250000
O O11 0.500000 0.221902 0.750000
O O12 0.227660 0.253897 0.784686
O O13 0.000000 0.319154 0.750000
O O14 0.000000 0.000000 0.500000
#
# Coordination Sequence:
#
# PCOD9296483 Si02
#       6
#     8   8   8   8   8   8
#     4  10  23  45  65  92 136 171 220 265 331 396
#     4  11  23  43  65  97 128 175 216 267 331 390
#     4  11  23  42  65  92 134 172 217 270 330 386
#     4  11  22  42  67  95 125 174 219 270 329 393
#     4  10  24  43  65  96 130 171 218 273 326 388
#     4  11  24  39  66  95 130 172 214 272 324 387
#
# _framework density 20.556436000000001
#
# number of rings (size 3 to 8) (size 9 to 14) (size 15 to 20)
#    0.000    1.333    3.333    1.500    2.333    2.000 
#    6.000    0.000    0.000    0.000    0.000    0.000 
#    0.000    0.000    0.000    0.000    0.000    0.000 
#
# Total GULP energy -133896.631458 kJ/mol
# GULP energy per Si atom -5579.026311 kJ/mol
# Density = 2.050965 g / cm^3
# Si number density = 20.556436 Si / 1000 Ang^3
#
#
#
# Elastic Constant Matrix: (Units=GPa)
#
#
# Indices 1 2 3 4 5 6 
#
# 1 46.8538 27.2538 36.3341 0.0000 18.5496 0.0000
# 2 27.2538 96.4224 45.0271 0.0000 13.9946 0.0000
# 3 36.3341 45.0271 134.2016 0.0000 5.9052 0.0000
# 4 0.0000 0.0000 0.0000 4.2978 0.0000 20.4074
# 5 18.5496 13.9946 5.9052 0.0000 28.2525 0.0000
# 6 0.0000 0.0000 0.0000 20.4074 0.0000 33.6166
#
#
#
# Elastic Compliance Matrix: (Units=1/GPa)
#
#
# Indices 1 2 3 4 5 6 
#
# 1 0.038527 -0.003940 -0.008157 0.000000 -0.021639 0.000000
# 2 -0.003940 0.013533 -0.003323 0.000000 -0.003422 0.000000
# 3 -0.008157 -0.003323 0.010564 0.000000 0.004794 0.000000
# 4 0.000000 0.000000 0.000000 -0.123598 0.000000 0.075031
# 5 -0.021639 -0.003422 0.004794 0.000000 0.050296 0.000000
# 6 0.000000 0.000000 0.000000 0.075031 0.000000 -0.015802
#
#
# Mechanical properties :
#
#
# Convention : Reuss Voigt Hill
#
# Bulk Modulus (GPa) = 31.46224 54.96754 43.21489
# Shear Modulus (GPa) = 334.30223 24.49090 179.39656
#
# Velocity S-wave (km/s) = 12.76635 3.45541 9.35199
# Velocity P-wave (km/s) = 15.25269 6.53588 11.73376
#
# Compressibility (1/GPa) = 0.03178413
#
# Stress axis : x y z
#
# Youngs Moduli (GPa) = 25.95558 73.89186 94.66097
#
# Poissons Ratio (x) = 0.29113 0.77214
# Poissons Ratio (y) = 0.10227 0.31459
# Poissons Ratio (z) = 0.21172 0.24557
#
# Static dielectric constant tensor:
#      x y z
#    x 1.743260 0.000000 0.011120 
#    y 0.000000 1.726600 0.000000 
#    z 0.011120 0.000000 1.764700 
# 
# From -- ./inp_files/79153.got.cif
#   From: 2010.05.17/outbox.cif.g08.bks.cpg/sg15_40_cif.got.tgz:79153.got - 2010.06.03 18:47:42.
