data_PCOD9296771
_publ_section_title
;
Structure prediction by ZEFSAII (Michael W. Deem and Ramdas Pophale) SiO2 
 PCOD9296771
Probable space group: C 2/C
;
_chemical_formula_sum "Si O2"
_cell_formula_units_Z 56
_cell_length_a 17.347873
_cell_length_b 18.384355
_cell_length_c 10.924803
_cell_angle_alpha 90.000000
_cell_angle_beta 50.070717
_cell_angle_gamma 90.000000
_cell_volume 2671.846034
_symmetry_space_group_name_H-M "C 2/C"
_symmetry_group_IT_number 15
_symmetry_cell_setting 'monoclinic'
loop_
_space_group_symop_operation_xyz
x,y,z
-x,y,1/2-z
-x,-y,-z
x,-y,1/2+z
1/2+x,1/2+y,z
1/2-x,1/2+y,1/2-z
1/2-x,1/2-y,-z
1/2+x,1/2-y,1/2+z
loop_
_atom_site_type_symbol
_atom_site_label
_atom_site_fract_x
_atom_site_fract_y
_atom_site_fract_z
Si Si1 0.566848 0.153163 0.794197
Si Si2 0.500000 0.990466 0.250000
Si Si3 0.568920 0.782839 0.855942
Si Si4 0.000000 0.164720 0.750000
Si Si5 0.233031 0.819109 0.282314
Si Si6 0.360404 0.887366 0.930083
Si Si7 0.391833 0.462441 0.085224
Si Si8 0.831734 0.042136 0.909189
O O1 0.500000 0.185516 0.750000
O O2 0.564047 0.066623 0.766259
O O3 0.681627 0.179802 0.698458
O O4 0.500766 0.173656 0.979667
O O5 0.565087 0.047959 0.104964
O O6 0.506428 0.715171 0.862937
O O7 0.672060 0.753967 0.812604
O O8 0.595469 0.830829 0.710901
O O9 0.904942 0.111841 0.840309
O O10 0.143191 0.878188 0.387751
O O11 0.299945 0.846099 0.098121
O O12 0.276820 0.931759 0.941924
O O13 0.331885 0.486489 0.269612
O O14 0.500000 0.500000 0.000000
O O15 0.368385 0.488232 0.973624
#
# Coordination Sequence:
#
# PCOD9296771 Si02
#       8
#     8   4   8   4   8   8   8   8
#     4  10  26  46  66  97 142 185 238 290 352 439
#     4  10  23  46  64  97 134 176 230 286 352 415
#     4  12  24  41  70 100 133 182 228 289 353 420
#     4  12  21  42  64  97 134 168 230 284 340 407
#     4  11  23  42  67  98 143 176 234 292 355 430
#     4  11  23  40  69 103 125 174 226 293 352 412
#     4  11  20  41  63  98 136 181 221 287 351 419
#     4  11  23  38  66  97 137 169 228 283 345 419
#
# _framework density 20.959291
#
# number of rings (size 3 to 8) (size 9 to 14) (size 15 to 20)
#    0.429    0.571    4.286    3.429    2.000    5.143 
#    0.000    2.857    0.000    0.000    0.000    0.000 
#    0.000    0.000    0.000    0.000    0.000    0.000 
#
# Total GULP energy -155873.721565 kJ/mol
# GULP energy per Si atom -5566.918627 kJ/mol
# Density = 2.091159 g / cm^3
# Si number density = 20.959291 Si / 1000 Ang^3
#
#
#
# Elastic Constant Matrix: (Units=GPa)
#
#
# Indices 1 2 3 4 5 6 
#
# 1 105.8009 22.4739 3.1896 0.0000 -16.6494 0.0000
# 2 22.4739 69.0284 31.0752 0.0000 -4.3111 0.0000
# 3 3.1896 31.0752 54.4032 0.0000 -0.4211 0.0000
# 4 0.0000 0.0000 0.0000 29.5735 0.0000 -3.1167
# 5 -16.6494 -4.3111 -0.4211 0.0000 37.2874 0.0000
# 6 0.0000 0.0000 0.0000 -3.1167 0.0000 39.0993
#
#
#
# Elastic Compliance Matrix: (Units=1/GPa)
#
#
# Indices 1 2 3 4 5 6 
#
# 1 0.010962 -0.004062 0.001712 0.000000 0.004445 0.000000
# 2 -0.004062 0.021177 -0.011854 0.000000 0.000501 0.000000
# 3 0.001712 -0.011854 0.025050 0.000000 -0.000323 0.000000
# 4 0.000000 0.000000 0.000000 0.034101 0.000000 0.002718
# 5 0.004445 0.000501 -0.000323 0.000000 0.028858 0.000000
# 6 0.000000 0.000000 0.000000 0.002718 0.000000 0.025793
#
#
# Mechanical properties :
#
#
# Convention : Reuss Voigt Hill
#
# Bulk Modulus (GPa) = 34.74625 38.07886 36.41256
# Shear Modulus (GPa) = 27.18240 32.69161 29.93700
#
# Velocity S-wave (km/s) = 3.60518 3.95367 3.78344
# Velocity P-wave (km/s) = 5.82612 6.24896 6.04124
#
# Compressibility (1/GPa) = 0.02878008
#
# Stress axis : x y z
#
# Youngs Moduli (GPa) = 91.22088 47.22052 39.92070
#
# Poissons Ratio (x) = 0.19182 -0.06835
# Poissons Ratio (y) = 0.37056 0.47324
# Poissons Ratio (z) = -0.15617 0.55977
#
# Static dielectric constant tensor:
#      x y z
#    x 1.836020 0.000000 -0.031570 
#    y 0.000000 1.765730 0.000000 
#    z -0.031570 0.000000 1.770760 
# 
# From -- ./inp_files/106663.got.cif
#   From: 2010.05.17/outbox.cif.g08.bks.cpg/sg15_54_cif.got.tgz:106663.got - 2010.06.03 18:47:42.
