data_PCOD9296709
_publ_section_title
;
Structure prediction by ZEFSAII (Michael W. Deem and Ramdas Pophale) SiO2 
 PCOD9296709
Probable space group: C 2/C
;
_chemical_formula_sum "Si O2"
_cell_formula_units_Z 44
_cell_length_a 26.655381
_cell_length_b 12.257870
_cell_length_c 9.520242
_cell_angle_alpha 90.000000
_cell_angle_beta 30.670738
_cell_angle_gamma 90.000000
_cell_volume 1586.742211
_symmetry_space_group_name_H-M "C 2/C"
_symmetry_group_IT_number 15
_symmetry_cell_setting 'monoclinic'
loop_
_space_group_symop_operation_xyz
x,y,z
-x,y,1/2-z
-x,-y,-z
x,-y,1/2+z
1/2+x,1/2+y,z
1/2-x,1/2+y,1/2-z
1/2-x,1/2-y,-z
1/2+x,1/2-y,1/2+z
loop_
_atom_site_type_symbol
_atom_site_label
_atom_site_fract_x
_atom_site_fract_y
_atom_site_fract_z
Si Si1 0.500000 0.745204 0.250000
Si Si2 0.393549 0.175736 0.753179
Si Si3 0.616667 0.340195 0.948641
Si Si4 0.909233 0.950331 0.132286
Si Si5 0.114309 0.364891 0.631527
Si Si6 0.697522 0.989092 0.684589
O O1 0.578534 0.810605 0.152832
O O2 0.443332 0.665943 0.494372
O O3 0.365234 0.290191 0.750596
O O4 0.496189 0.136221 0.435169
O O5 0.311052 0.091157 0.905750
O O6 0.500000 0.324164 0.250000
O O7 0.618607 0.470585 0.930519
O O8 0.654749 0.249024 0.967643
O O9 0.806897 0.952525 0.460796
O O10 0.000000 0.000000 0.000000
O O11 0.153650 0.394340 0.691213
O O12 0.144368 0.458381 0.447474
#
# Coordination Sequence:
#
# PCOD9296709 Si02
#       6
#     4   8   8   8   8   8
#     4  12  26  44  80 112 160 208 258 324 392 462
#     4  10  23  45  73 109 150 198 248 324 390 455
#     4   9  19  41  69  97 142 198 241 305 381 442
#     4  12  26  45  73 105 155 208 263 314 383 470
#     4  10  24  46  74 112 150 196 256 326 392 457
#     4  11  26  44  77 112 150 202 258 320 389 460
#
# _framework density 27.729773000000002
#
# number of rings (size 3 to 8) (size 9 to 14) (size 15 to 20)
#    0.000    1.455    2.727    2.182    5.091    4.364 
#    0.000    0.909    0.000    0.000    0.000    0.000 
#    0.000    0.000    0.000    0.000    0.000    0.000 
#
# Total GULP energy -123149.890649 kJ/mol
# GULP energy per Si atom -5597.722302 kJ/mol
# Density = 2.766666 g / cm^3
# Si number density = 27.729773 Si / 1000 Ang^3
#
#
#
# Elastic Constant Matrix: (Units=GPa)
#
#
# Indices 1 2 3 4 5 6 
#
# 1 181.2266 51.4418 57.6266 0.0000 12.0510 0.0000
# 2 51.4418 140.5164 14.4678 0.0000 5.0388 0.0000
# 3 57.6266 14.4678 100.9917 0.0000 -28.9043 0.0000
# 4 0.0000 0.0000 0.0000 22.3216 0.0000 21.8641
# 5 12.0510 5.0388 -28.9043 0.0000 47.4533 0.0000
# 6 0.0000 0.0000 0.0000 21.8641 0.0000 66.0332
#
#
#
# Elastic Compliance Matrix: (Units=1/GPa)
#
#
# Indices 1 2 3 4 5 6 
#
# 1 0.008491 -0.002274 -0.006137 0.000000 -0.005653 0.000000
# 2 -0.002274 0.007946 0.000100 0.000000 -0.000205 0.000000
# 3 -0.006137 0.000100 0.016753 0.000000 0.011752 0.000000
# 4 0.000000 0.000000 0.000000 0.066303 0.000000 -0.021953
# 5 -0.005653 -0.000205 0.011752 0.000000 0.029689 0.000000
# 6 0.000000 0.000000 0.000000 -0.021953 0.000000 0.022413
#
#
# Mechanical properties :
#
#
# Convention : Reuss Voigt Hill
#
# Bulk Modulus (GPa) = 60.35480 74.42304 67.38892
# Shear Modulus (GPa) = 28.77887 47.10819 37.94353
#
# Velocity S-wave (km/s) = 3.22504 4.12616 3.70311
# Velocity P-wave (km/s) = 5.97331 7.04253 6.52984
#
# Compressibility (1/GPa) = 0.01656869
#
# Stress axis : x y z
#
# Youngs Moduli (GPa) = 117.77522 125.84879 59.69153
#
# Poissons Ratio (x) = 0.28615 0.36633
# Poissons Ratio (y) = 0.26780 -0.00599
# Poissons Ratio (z) = 0.72279 -0.01264
#
# Static dielectric constant tensor:
#      x y z
#    x 2.176400 0.000000 0.064620 
#    y 0.000000 2.157460 0.000000 
#    z 0.064620 0.000000 2.240760 
# 
# From -- ./inp_files/118484.got.cif
#   From: 2010.05.17/outbox.cif.g08.bks.cpg/sg15_60_cif.got.tgz:118484.got - 2010.06.03 18:47:42.
