data_PCOD9296315
_publ_section_title
;
Structure prediction by ZEFSAII (Michael W. Deem and Ramdas Pophale) SiO2 
 PCOD9296315
Probable space group: C 2/C
;
_chemical_formula_sum "Si O2"
_cell_formula_units_Z 36
_cell_length_a 15.188487
_cell_length_b 8.565427
_cell_length_c 15.393225
_cell_angle_alpha 90.000000
_cell_angle_beta 129.717391
_cell_angle_gamma 90.000000
_cell_volume 1540.407435
_symmetry_space_group_name_H-M "C 2/C"
_symmetry_group_IT_number 15
_symmetry_cell_setting 'monoclinic'
loop_
_space_group_symop_operation_xyz
x,y,z
-x,y,1/2-z
-x,-y,-z
x,-y,1/2+z
1/2+x,1/2+y,z
1/2-x,1/2+y,1/2-z
1/2-x,1/2-y,-z
1/2+x,1/2-y,1/2+z
loop_
_atom_site_type_symbol
_atom_site_label
_atom_site_fract_x
_atom_site_fract_y
_atom_site_fract_z
Si Si1 0.079267 0.951184 0.685078
Si Si2 0.128673 0.275677 0.791279
Si Si3 0.500000 0.184523 0.750000
Si Si4 0.864480 0.878552 0.979488
Si Si5 0.988002 0.553591 0.089702
O O1 0.084017 0.802351 0.751166
O O2 0.118001 0.916587 0.611373
O O3 0.144119 0.098355 0.769253
O O4 0.944686 0.004474 0.585879
O O5 0.229815 0.356062 0.907823
O O6 0.000000 0.280130 0.750000
O O7 0.112512 0.385077 0.697739
O O8 0.544907 0.075276 0.857887
O O9 0.913304 0.708744 0.032007
O O10 0.000000 0.500000 0.000000
#
# Coordination Sequence:
#
# PCOD9296315 Si02
#       5
#     8   8   4   8   8
#     4  10  23  44  71 107 143 185 245 291 355 437
#     4  11  24  46  73 104 145 190 238 293 363 429
#     4  12  22  46  70 106 142 182 248 300 348 438
#     4  10  24  45  72 102 147 193 231 297 366 425
#     4  11  24  44  70 103 143 183 239 299 358 426
#
# _framework density 23.370439999999999
#
# number of rings (size 3 to 8) (size 9 to 14) (size 15 to 20)
#    0.000    1.333    4.444    0.000    3.111    3.556 
#    0.000    4.444    0.000    0.000    0.000    0.000 
#    0.000    0.000    0.000    0.000    0.000    0.000 
#
# Total GULP energy -100329.905857 kJ/mol
# GULP energy per Si atom -5573.883659 kJ/mol
# Density = 2.331725 g / cm^3
# Si number density = 23.370440 Si / 1000 Ang^3
#
#
#
# Elastic Constant Matrix: (Units=GPa)
#
#
# Indices 1 2 3 4 5 6 
#
# 1 81.8801 40.2382 43.1544 0.0000 -16.5386 0.0000
# 2 40.2382 127.6005 27.9896 0.0000 -10.1139 0.0000
# 3 43.1544 27.9896 78.1921 0.0000 2.1893 0.0000
# 4 0.0000 0.0000 0.0000 48.2289 0.0000 -24.6215
# 5 -16.5386 -10.1139 2.1893 0.0000 51.8697 0.0000
# 6 0.0000 0.0000 0.0000 -24.6215 0.0000 29.2825
#
#
#
# Elastic Compliance Matrix: (Units=1/GPa)
#
#
# Indices 1 2 3 4 5 6 
#
# 1 0.020774 -0.003794 -0.010284 0.000000 0.006318 0.000000
# 2 -0.003794 0.009367 -0.001278 0.000000 0.000671 0.000000
# 3 -0.010284 -0.001278 0.019043 0.000000 -0.004332 0.000000
# 4 0.000000 0.000000 0.000000 0.036329 0.000000 0.030546
# 5 0.006318 0.000671 -0.004332 0.000000 0.021607 0.000000
# 6 0.000000 0.000000 0.000000 0.030546 0.000000 0.059834
#
#
# Mechanical properties :
#
#
# Convention : Reuss Voigt Hill
#
# Bulk Modulus (GPa) = 54.13467 56.71522 55.42494
# Shear Modulus (GPa) = 24.53111 37.62892 31.08002
#
# Velocity S-wave (km/s) = 3.24337 4.01697 3.65072
# Velocity P-wave (km/s) = 6.10245 6.77018 6.44497
#
# Compressibility (1/GPa) = 0.01847245
#
# Stress axis : x y z
#
# Youngs Moduli (GPa) = 48.13772 106.75896 52.51201
#
# Poissons Ratio (x) = 0.40508 0.54002
# Poissons Ratio (y) = 0.18265 0.06709
# Poissons Ratio (z) = 0.49504 0.13640
#
# Static dielectric constant tensor:
#      x y z
#    x 2.035490 0.000000 -0.118200 
#    y 0.000000 1.910160 0.000000 
#    z -0.118200 0.000000 2.122750 
# 
# From -- ./inp_files/209372.got.cif
#   From: 2010.05.17/outbox.cif.g08.bks.cpg/sg15_105_cif.got.tgz:209372.got - 2010.06.03 18:47:42.
