data_PCOD9296861
_publ_section_title
;
Structure prediction by ZEFSAII (Michael W. Deem and Ramdas Pophale) SiO2 
 PCOD9296861
Probable space group: C 2/C
;
_chemical_formula_sum "Si O2"
_cell_formula_units_Z 44
_cell_length_a 15.767177
_cell_length_b 20.608938
_cell_length_c 9.923641
_cell_angle_alpha 90.000000
_cell_angle_beta 150.260468
_cell_angle_gamma 90.000000
_cell_volume 1599.605720
_symmetry_space_group_name_H-M "C 2/C"
_symmetry_group_IT_number 15
_symmetry_cell_setting 'monoclinic'
loop_
_space_group_symop_operation_xyz
x,y,z
-x,y,1/2-z
-x,-y,-z
x,-y,1/2+z
1/2+x,1/2+y,z
1/2-x,1/2+y,1/2-z
1/2-x,1/2-y,-z
1/2+x,1/2-y,1/2+z
loop_
_atom_site_type_symbol
_atom_site_label
_atom_site_fract_x
_atom_site_fract_y
_atom_site_fract_z
Si Si1 0.382874 0.517063 0.968395
Si Si2 0.500000 0.250134 0.750000
Si Si3 0.511320 0.841379 0.621488
Si Si4 0.394533 0.055671 0.739110
Si Si5 0.207188 0.209651 0.152186
Si Si6 0.925963 0.867904 0.826911
O O1 0.500000 0.492096 0.250000
O O2 0.401457 0.595642 0.977956
O O3 0.500000 0.500000 0.000000
O O4 0.192207 0.506912 0.767238
O O5 0.363098 0.211597 0.475436
O O6 0.415826 0.299484 0.738492
O O7 0.500000 0.876494 0.750000
O O8 0.472062 0.888318 0.441891
O O9 0.698041 0.810827 0.852263
O O10 0.385768 0.778818 0.464234
O O11 0.500000 0.034541 0.750000
O O12 0.229991 0.087701 0.436095
O O13 0.085995 0.151526 0.034542
#
# Coordination Sequence:
#
# PCOD9296861 Si02
#       6
#     8   4   8   8   8   8
#     4  10  23  46  70  95 127 160 217 279 347 399
#     4  12  18  34  66  96 122 170 230 270 306 386
#     4  12  25  38  55  93 146 181 213 262 333 396
#     4  11  21  41  69  94 122 169 225 278 318 386
#     4  12  22  35  59  93 134 178 224 259 323 386
#     4  11  19  36  64  91 122 165 216 272 314 388
#
# _framework density 27.506779000000002
#
# number of rings (size 3 to 8) (size 9 to 14) (size 15 to 20)
#    0.000    0.727    8.182    2.182    0.000    0.000 
#    3.273    3.636    0.000    0.000    0.000    0.000 
#    0.000    0.000    0.000    0.000    0.000    0.000 
#
# Total GULP energy -122845.970063 kJ/mol
# GULP energy per Si atom -5583.907730 kJ/mol
# Density = 2.744417 g / cm^3
# Si number density = 27.506779 Si / 1000 Ang^3
#
#
#
# Elastic Constant Matrix: (Units=GPa)
#
#
# Indices 1 2 3 4 5 6 
#
# 1 290.2866 58.9328 41.1369 0.0000 -11.4861 0.0000
# 2 58.9328 73.4594 22.5792 0.0000 1.8698 0.0000
# 3 41.1369 22.5792 63.8739 0.0000 -15.0450 0.0000
# 4 0.0000 0.0000 0.0000 21.3966 0.0000 -5.8172
# 5 -11.4861 1.8698 -15.0450 0.0000 45.5481 0.0000
# 6 0.0000 0.0000 0.0000 -5.8172 0.0000 52.5363
#
#
#
# Elastic Compliance Matrix: (Units=1/GPa)
#
#
# Indices 1 2 3 4 5 6 
#
# 1 0.004299 -0.002991 -0.001548 0.000000 0.000696 0.000000
# 2 -0.002991 0.017646 -0.005053 0.000000 -0.003148 0.000000
# 3 -0.001548 -0.005053 0.019948 0.000000 0.006406 0.000000
# 4 0.000000 0.000000 0.000000 0.048187 0.000000 0.005336
# 5 0.000696 -0.003148 0.006406 0.000000 0.024375 0.000000
# 6 0.000000 0.000000 0.000000 0.005336 0.000000 0.019625
#
#
# Mechanical properties :
#
#
# Convention : Reuss Voigt Hill
#
# Bulk Modulus (GPa) = 44.03415 74.76865 59.40140
# Shear Modulus (GPa) = 31.08834 44.22759 37.65796
#
# Velocity S-wave (km/s) = 3.36550 4.01419 3.70407
# Velocity P-wave (km/s) = 5.58080 6.98039 6.31946
#
# Compressibility (1/GPa) = 0.02270965
#
# Stress axis : x y z
#
# Youngs Moduli (GPa) = 232.61846 56.67147 50.13150
#
# Poissons Ratio (x) = 0.16949 0.07758
# Poissons Ratio (y) = 0.69572 0.25331
# Poissons Ratio (z) = 0.35998 0.28635
#
# Static dielectric constant tensor:
#      x y z
#    x 2.387590 0.000000 0.008470 
#    y 0.000000 2.261270 0.000000 
#    z 0.008470 0.000000 2.238670 
# 
# From -- ./inp_files/43697.got.cif
#   From: 2010.05.17/outbox.cif.g08.bks.cpg/sg15_22_cif.got.tgz:43697.got - 2010.06.03 18:47:42.
