data_PCOD9296342
_publ_section_title
;
Structure prediction by ZEFSAII (Michael W. Deem and Ramdas Pophale) SiO2 
 PCOD9296342
Probable space group: C 2/C
;
_chemical_formula_sum "Si O2"
_cell_formula_units_Z 36
_cell_length_a 13.863928
_cell_length_b 9.911829
_cell_length_c 22.729069
_cell_angle_alpha 90.000000
_cell_angle_beta 150.412493
_cell_angle_gamma 90.000000
_cell_volume 1542.165008
_symmetry_space_group_name_H-M "C 2/C"
_symmetry_group_IT_number 15
_symmetry_cell_setting 'monoclinic'
loop_
_space_group_symop_operation_xyz
x,y,z
-x,y,1/2-z
-x,-y,-z
x,-y,1/2+z
1/2+x,1/2+y,z
1/2-x,1/2+y,1/2-z
1/2-x,1/2-y,-z
1/2+x,1/2-y,1/2+z
loop_
_atom_site_type_symbol
_atom_site_label
_atom_site_fract_x
_atom_site_fract_y
_atom_site_fract_z
Si Si1 0.812192 0.965076 0.829137
Si Si2 0.775739 0.896573 0.489544
Si Si3 0.000000 0.488808 0.750000
Si Si4 0.160698 0.864124 0.385495
Si Si5 0.558703 0.769593 0.624056
O O1 0.706424 0.891559 0.717499
O O2 0.030751 0.909763 0.946954
O O3 0.688027 0.921717 0.820237
O O4 0.835950 0.128182 0.836241
O O5 0.750000 0.750000 0.500000
O O6 0.589309 0.931310 0.351743
O O7 0.804056 0.001379 0.557606
O O8 0.380100 0.813442 0.486873
O O9 0.000000 0.886080 0.250000
O O10 0.057286 0.761389 0.376401
#
# Coordination Sequence:
#
# PCOD9296342 Si02
#       5
#     8   8   4   8   8
#     4  11  24  44  75 107 144 193 248 300 368 435
#     4  11  25  45  70 111 145 190 246 305 370 430
#     4  12  24  44  72 100 148 190 244 300 356 450
#     4  10  23  44  72 101 148 189 238 303 371 439
#     4  10  23  45  69 109 141 190 241 299 368 435
#
# _framework density 23.343806000000001
#
# number of rings (size 3 to 8) (size 9 to 14) (size 15 to 20)
#    0.000    1.333    2.222    2.000    3.111    1.778 
#    0.000    4.444    0.000    0.000    0.000    0.000 
#    0.000    0.000    0.000    0.000    0.000    0.000 
#
# Total GULP energy -100611.900743 kJ/mol
# GULP energy per Si atom -5589.550041 kJ/mol
# Density = 2.329067 g / cm^3
# Si number density = 23.343806 Si / 1000 Ang^3
#
#
#
# Elastic Constant Matrix: (Units=GPa)
#
#
# Indices 1 2 3 4 5 6 
#
# 1 64.4430 25.8807 38.2788 0.0000 19.0007 0.0000
# 2 25.8807 150.2803 73.9598 0.0001 -1.5101 0.0000
# 3 38.2788 73.9598 203.3914 0.0003 -14.9481 0.0000
# 4 0.0000 0.0001 0.0003 36.4793 0.0000 7.1126
# 5 19.0007 -1.5101 -14.9481 0.0000 56.5738 0.0000
# 6 0.0000 0.0000 0.0000 7.1126 0.0000 7.9487
#
#
#
# Elastic Compliance Matrix: (Units=1/GPa)
#
#
# Indices 1 2 3 4 5 6 
#
# 1 0.020929 -0.001771 -0.003891 0.000000 -0.008105 0.000000
# 2 -0.001771 0.008273 -0.002667 0.000000 0.000111 0.000000
# 3 -0.003891 -0.002667 0.006842 0.000000 0.003043 0.000000
# 4 0.000000 0.000000 0.000000 0.033206 0.000000 -0.029713
# 5 -0.008105 0.000111 0.003043 0.000000 0.021205 0.000000
# 6 0.000000 0.000000 0.000000 -0.029713 0.000000 0.152395
#
#
# Mechanical properties :
#
#
# Convention : Reuss Voigt Hill
#
# Bulk Modulus (GPa) = 51.57940 77.15036 64.36488
# Shear Modulus (GPa) = 18.79913 38.86672 28.83292
#
# Velocity S-wave (km/s) = 2.84089 4.08483 3.51827
# Velocity P-wave (km/s) = 5.73623 7.44104 6.64355
#
# Compressibility (1/GPa) = 0.01938758
#
# Stress axis : x y z
#
# Youngs Moduli (GPa) = 47.77955 120.87803 146.15083
#
# Poissons Ratio (x) = 0.21409 0.56861
# Poissons Ratio (y) = 0.08462 0.38975
# Poissons Ratio (z) = 0.18589 0.32235
#
# Static dielectric constant tensor:
#      x y z
#    x 1.940210 0.000000 -0.084500 
#    y 0.000000 1.924310 0.000000 
#    z -0.084500 0.000000 2.081320 
# 
# From -- ./inp_files/295510.got.cif
#   From: 2010.05.17/outbox.cif.g08.bks.cpg/sg15_148_cif.got.tgz:295510.got - 2010.06.03 18:47:42.
