data_PCOD9296382
_publ_section_title
;
Structure prediction by ZEFSAII (Michael W. Deem and Ramdas Pophale) SiO2 
 PCOD9296382
Probable space group: C 2/C
;
_chemical_formula_sum "Si O2"
_cell_formula_units_Z 56
_cell_length_a 5.299848
_cell_length_b 24.860224
_cell_length_c 18.622935
_cell_angle_alpha 90.000000
_cell_angle_beta 65.732291
_cell_angle_gamma 90.000000
_cell_volume 2236.853780
_symmetry_space_group_name_H-M "C 2/C"
_symmetry_group_IT_number 15
_symmetry_cell_setting 'monoclinic'
loop_
_space_group_symop_operation_xyz
x,y,z
-x,y,1/2-z
-x,-y,-z
x,-y,1/2+z
1/2+x,1/2+y,z
1/2-x,1/2+y,1/2-z
1/2-x,1/2-y,-z
1/2+x,1/2-y,1/2+z
loop_
_atom_site_type_symbol
_atom_site_label
_atom_site_fract_x
_atom_site_fract_y
_atom_site_fract_z
Si Si1 0.100969 0.659367 0.524622
Si Si2 0.156148 0.245434 0.917436
Si Si3 0.702743 0.213561 0.158835
Si Si4 0.449407 0.458294 0.442635
Si Si5 0.495779 0.901329 0.173822
Si Si6 0.566008 0.892573 0.585240
Si Si7 0.746731 0.988714 0.822892
O O1 0.015251 0.712905 0.489965
O O2 0.332543 0.687620 0.546829
O O3 0.923800 0.631327 0.609308
O O4 0.173073 0.622681 0.446563
O O5 0.477002 0.267060 0.866612
O O6 0.973175 0.244687 0.868494
O O7 0.500000 0.206452 0.250000
O O8 0.671887 0.157186 0.119274
O O9 0.500000 0.500000 0.500000
O O10 0.716962 0.429699 0.379951
O O11 0.283806 0.412079 0.501805
O O12 0.301383 0.491705 0.397493
O O13 0.500000 0.870960 0.250000
O O14 0.310954 0.954305 0.207995
O O15 0.483477 0.942790 0.644379
O O16 0.000000 0.963603 0.750000
#
# Coordination Sequence:
#
# PCOD9296382 Si02
#       7
#     8   8   8   8   8   8   8
#     4  10  23  44  73 100 137 177 240 288 354 424
#     4  10  24  47  73 106 139 184 231 302 357 418
#     4  11  25  45  73 105 146 180 235 289 362 430
#     4  12  23  39  68  90 134 183 236 282 334 409
#     4  12  24  41  64  98 134 184 228 282 348 416
#     4  11  24  42  70 100 134 189 235 290 347 420
#     4  12  25  44  62  97 143 179 228 286 347 407
#
# _framework density 25.035164999999999
#
# number of rings (size 3 to 8) (size 9 to 14) (size 15 to 20)
#    0.000    0.857    4.286    2.571    0.000   12.571 
#    0.000    0.714    0.000    0.000    0.000    0.000 
#    0.000    0.000    0.000    0.000    0.000    0.000 
#
# Total GULP energy -156254.181632 kJ/mol
# GULP energy per Si atom -5580.506487 kJ/mol
# Density = 2.497818 g / cm^3
# Si number density = 25.035165 Si / 1000 Ang^3
#
#
#
# Elastic Constant Matrix: (Units=GPa)
#
#
# Indices 1 2 3 4 5 6 
#
# 1 92.9104 19.1810 38.1383 0.0000 -11.6394 0.0000
# 2 19.1810 83.4179 22.6262 0.0000 -0.4981 0.0000
# 3 38.1383 22.6262 148.2150 0.0000 -7.6875 0.0000
# 4 0.0000 0.0000 0.0000 20.4368 0.0000 -7.3681
# 5 -11.6394 -0.4981 -7.6875 0.0000 48.2013 0.0000
# 6 0.0000 0.0000 0.0000 -7.3681 0.0000 24.6557
#
#
#
# Elastic Compliance Matrix: (Units=1/GPa)
#
#
# Indices 1 2 3 4 5 6 
#
# 1 0.012680 -0.002140 -0.002801 0.000000 0.002593 0.000000
# 2 -0.002140 0.012868 -0.001446 0.000000 -0.000614 0.000000
# 3 -0.002801 -0.001446 0.007716 0.000000 0.000539 0.000000
# 4 0.000000 0.000000 0.000000 0.054840 0.000000 0.016388
# 5 0.002593 -0.000614 0.000539 0.000000 0.021452 0.000000
# 6 0.000000 0.000000 0.000000 0.016388 0.000000 0.045456
#
#
# Mechanical properties :
#
#
# Convention : Reuss Voigt Hill
#
# Bulk Modulus (GPa) = 48.80444 53.82604 51.31524
# Shear Modulus (GPa) = 28.63409 34.96529 31.79969
#
# Velocity S-wave (km/s) = 3.38561 3.74123 3.56785
# Velocity P-wave (km/s) = 5.90083 6.34108 6.12491
#
# Compressibility (1/GPa) = 0.02048994
#
# Stress axis : x y z
#
# Youngs Moduli (GPa) = 78.86632 77.70979 129.59270
#
# Poissons Ratio (x) = 0.16631 0.36305
# Poissons Ratio (y) = 0.16879 0.18734
# Poissons Ratio (z) = 0.22094 0.11234
#
# Static dielectric constant tensor:
#      x y z
#    x 2.278970 0.000000 -0.056960 
#    y 0.000000 2.114330 0.000000 
#    z -0.056960 0.000000 2.022020 
# 
# From -- ./inp_files/186100.got.cif
#   From: 2010.05.17/outbox.cif.g08.bks.cpg/sg15_94_cif.got.tgz:186100.got - 2010.06.03 18:47:42.
