data_PCOD9296925
_publ_section_title
;
Structure prediction by ZEFSAII (Michael W. Deem and Ramdas Pophale) SiO2 
 PCOD9296925
Probable space group: C 2/C
;
_chemical_formula_sum "Si O2"
_cell_formula_units_Z 64
_cell_length_a 17.086351
_cell_length_b 27.627445
_cell_length_c 11.218162
_cell_angle_alpha 90.000000
_cell_angle_beta 147.957157
_cell_angle_gamma 90.000000
_cell_volume 2809.575644
_symmetry_space_group_name_H-M "C 2/C"
_symmetry_group_IT_number 15
_symmetry_cell_setting 'monoclinic'
loop_
_space_group_symop_operation_xyz
x,y,z
-x,y,1/2-z
-x,-y,-z
x,-y,1/2+z
1/2+x,1/2+y,z
1/2-x,1/2+y,1/2-z
1/2-x,1/2-y,-z
1/2+x,1/2-y,1/2+z
loop_
_atom_site_type_symbol
_atom_site_label
_atom_site_fract_x
_atom_site_fract_y
_atom_site_fract_z
Si Si1 0.336188 0.797621 0.069888
Si Si2 0.533301 0.423754 0.662673
Si Si3 0.382712 0.343808 0.903470
Si Si4 0.667218 0.820170 0.804333
Si Si5 0.342711 0.976694 0.079753
Si Si6 0.271790 0.033897 0.750406
Si Si7 0.850331 0.353874 0.324014
Si Si8 0.830996 0.211607 0.747846
O O1 0.500000 0.780848 0.250000
O O2 0.362611 0.838030 0.204309
O O3 0.250000 0.750000 0.000000
O O4 0.237762 0.824225 0.844623
O O5 0.500000 0.400267 0.750000
O O6 0.532941 0.387949 0.550362
O O7 0.407248 0.464693 0.486477
O O8 0.698223 0.443912 0.880818
O O9 0.291322 0.354060 0.904980
O O10 0.506124 0.303148 0.083354
O O11 0.506047 0.841967 0.586701
O O12 0.671806 0.768880 0.740110
O O13 0.716902 0.804927 0.999151
O O14 0.500000 0.952849 0.250000
O O15 0.335382 0.991524 0.211428
O O16 0.324499 0.014867 0.947096
O O17 0.314572 0.090244 0.794423
O O18 0.722095 0.318972 0.208504
#
# Coordination Sequence:
#
# PCOD9296925 Si02
#       8
#     8   8   8   8   8   8   8   8
#     4  12  26  40  65 102 140 191 241 294 351 414
#     4  10  23  46  72  99 139 183 227 287 363 436
#     4  12  24  41  66  99 139 179 240 292 350 418
#     4  11  24  43  67  99 141 191 242 297 340 420
#     4  11  25  46  77 108 138 185 229 306 363 439
#     4  11  25  49  73 107 147 186 240 290 376 435
#     4  12  25  44  72 102 145 192 235 296 351 430
#     4  11  24  44  66  97 141 195 241 287 358 405
#
# _framework density 22.779242
#
# number of rings (size 3 to 8) (size 9 to 14) (size 15 to 20)
#    0.000    0.750    2.500    5.250    3.500    4.000 
#    2.250    0.000    0.000    0.000    0.000    0.000 
#    0.000    0.000    0.000    0.000    0.000    0.000 
#
# Total GULP energy -178938.947342 kJ/mol
# GULP energy per Si atom -5591.842104 kJ/mol
# Density = 2.272740 g / cm^3
# Si number density = 22.779242 Si / 1000 Ang^3
#
#
#
# Elastic Constant Matrix: (Units=GPa)
#
#
# Indices 1 2 3 4 5 6 
#
# 1 111.6437 44.3835 23.1348 0.0000 21.5663 0.0000
# 2 44.3835 57.8334 15.9673 0.0000 -2.0869 0.0000
# 3 23.1348 15.9673 115.3175 0.0000 23.9187 0.0000
# 4 0.0000 0.0000 0.0000 22.1335 0.0000 2.8298
# 5 21.5663 -2.0869 23.9187 0.0000 48.9623 0.0000
# 6 0.0000 0.0000 0.0000 2.8298 0.0000 28.0679
#
#
#
# Elastic Compliance Matrix: (Units=1/GPa)
#
#
# Indices 1 2 3 4 5 6 
#
# 1 0.015016 -0.011813 0.000111 0.000000 -0.007171 0.000000
# 2 -0.011813 0.027488 -0.003070 0.000000 0.007874 0.000000
# 3 0.000111 -0.003070 0.010139 0.000000 -0.005133 0.000000
# 4 0.000000 0.000000 0.000000 0.045770 0.000000 -0.004615
# 5 -0.007171 0.007874 -0.005133 0.000000 0.026426 0.000000
# 6 0.000000 0.000000 0.000000 -0.004615 0.000000 0.036093
#
#
# Mechanical properties :
#
#
# Convention : Reuss Voigt Hill
#
# Bulk Modulus (GPa) = 43.29061 50.19619 46.74340
# Shear Modulus (GPa) = 25.23019 33.25335 29.24177
#
# Velocity S-wave (km/s) = 3.33167 3.82489 3.58677
# Velocity P-wave (km/s) = 5.81770 6.44904 6.14149
#
# Compressibility (1/GPa) = 0.02309970
#
# Stress axis : x y z
#
# Youngs Moduli (GPa) = 66.59742 36.37911 98.62798
#
# Poissons Ratio (x) = 0.42974 -0.01092
# Poissons Ratio (y) = 0.78671 0.30274
# Poissons Ratio (z) = -0.00737 0.11167
#
# Static dielectric constant tensor:
#      x y z
#    x 1.907120 0.000000 -0.039120 
#    y 0.000000 1.831180 0.000000 
#    z -0.039120 0.000000 1.858690 
# 
# From -- ./inp_files/108657.got.cif
#   From: 2010.05.17/outbox.cif.g08.bks.cpg/sg15_55_cif.got.tgz:108657.got - 2010.06.03 18:47:42.
