data_PCOD9296314
_publ_section_title
;
Structure prediction by ZEFSAII (Michael W. Deem and Ramdas Pophale) SiO2 
 PCOD9296314
Probable space group: C 2/C
;
_chemical_formula_sum "Si O2"
_cell_formula_units_Z 32
_cell_length_a 5.407537
_cell_length_b 16.372621
_cell_length_c 18.657385
_cell_angle_alpha 90.000000
_cell_angle_beta 127.228207
_cell_angle_gamma 90.000000
_cell_volume 1315.249679
_symmetry_space_group_name_H-M "C 2/C"
_symmetry_group_IT_number 15
_symmetry_cell_setting 'monoclinic'
loop_
_space_group_symop_operation_xyz
x,y,z
-x,y,1/2-z
-x,-y,-z
x,-y,1/2+z
1/2+x,1/2+y,z
1/2-x,1/2+y,1/2-z
1/2-x,1/2-y,-z
1/2+x,1/2-y,1/2+z
loop_
_atom_site_type_symbol
_atom_site_label
_atom_site_fract_x
_atom_site_fract_y
_atom_site_fract_z
Si Si1 0.000000 0.698616 0.250000
Si Si2 0.707307 0.441634 0.611131
Si Si3 0.203297 0.666116 0.944112
Si Si4 0.301166 0.970912 0.398001
Si Si5 0.500000 0.203520 0.750000
O O1 0.791747 0.640407 0.165953
O O2 0.776021 0.747851 0.261352
O O3 0.462893 0.404078 0.509360
O O4 0.538244 0.498764 0.640445
O O5 0.020598 0.482674 0.635331
O O6 0.171482 0.670418 0.852565
O O7 0.871207 0.624797 0.905529
O O8 0.250000 0.750000 0.000000
O O9 0.500000 0.000000 0.500000
#
# Coordination Sequence:
#
# PCOD9296314 Si02
#       5
#     4   8   8   8   4
#     4  12  26  45  72 109 144 200 242 296 364 437
#     4  11  24  47  72 102 146 189 243 294 357 429
#     4  11  24  48  76 106 147 191 233 311 355 432
#     4  10  23  44  71 107 137 189 242 291 365 427
#     4  12  28  45  70 115 146 186 254 294 380 431
#
# _framework density 24.329982000000001
#
# number of rings (size 3 to 8) (size 9 to 14) (size 15 to 20)
#    0.000    1.000    2.500    4.500    3.500    8.000 
#    0.000    2.500    0.000    0.000    0.000    0.000 
#    0.000    0.000    0.000    0.000    0.000    0.000 
#
# Total GULP energy -89219.405612 kJ/mol
# GULP energy per Si atom -5576.212851 kJ/mol
# Density = 2.427461 g / cm^3
# Si number density = 24.329982 Si / 1000 Ang^3
#
#
#
# Elastic Constant Matrix: (Units=GPa)
#
#
# Indices 1 2 3 4 5 6 
#
# 1 209.4377 87.3851 45.8483 0.0000 -25.4845 0.0000
# 2 87.3851 134.7370 45.3583 0.0000 -14.8341 0.0000
# 3 45.8483 45.3583 145.8696 0.0000 -20.4760 0.0000
# 4 0.0000 0.0000 0.0000 -8.1218 0.0000 -18.5958
# 5 -25.4845 -14.8341 -20.4760 0.0000 23.1522 0.0000
# 6 0.0000 0.0000 0.0000 -18.5958 0.0000 64.4990
#
#
#
# Elastic Compliance Matrix: (Units=1/GPa)
#
#
# Indices 1 2 3 4 5 6 
#
# 1 0.007099 -0.003951 -0.000298 0.000000 0.005019 0.000000
# 2 -0.003951 0.010739 -0.001989 0.000000 0.000772 0.000000
# 3 -0.000298 -0.001989 0.008383 0.000000 0.005812 0.000000
# 4 0.000000 0.000000 0.000000 -0.074167 0.000000 -0.021383
# 5 0.005019 0.000772 0.005812 0.000000 0.054352 0.000000
# 6 0.000000 0.000000 0.000000 -0.021383 0.000000 0.009339
#
#
# Mechanical properties :
#
#
# Convention : Reuss Voigt Hill
#
# Bulk Modulus (GPa) = 72.75441 94.13641 83.44541
# Shear Modulus (GPa) = 152.41471 36.66938 94.54205
#
# Velocity S-wave (km/s) = 7.92343 3.88644 6.24040
# Velocity P-wave (km/s) = 10.66189 7.67559 9.28953
#
# Compressibility (1/GPa) = 0.01374487
#
# Stress axis : x y z
#
# Youngs Moduli (GPa) = 140.85793 93.11681 119.28273
#
# Poissons Ratio (x) = 0.36794 0.03557
# Poissons Ratio (y) = 0.55659 0.23725
# Poissons Ratio (z) = 0.04200 0.18521
#
# Static dielectric constant tensor:
#      x y z
#    x 1.986550 0.000000 0.045240 
#    y 0.000000 2.084300 0.000000 
#    z 0.045240 0.000000 2.089160 
# 
# From -- ./inp_files/183917.got.cif
#   From: 2010.05.17/outbox.cif.g08.bks.cpg/sg15_92_cif.got.tgz:183917.got - 2010.06.03 18:47:42.
