data_PCOD9296780
_publ_section_title
;
Structure prediction by ZEFSAII (Michael W. Deem and Ramdas Pophale) SiO2 
 PCOD9296780
Probable space group: C 2/C
;
_chemical_formula_sum "Si O2"
_cell_formula_units_Z 56
_cell_length_a 22.418822
_cell_length_b 16.328208
_cell_length_c 13.277835
_cell_angle_alpha 90.000000
_cell_angle_beta 33.857701
_cell_angle_gamma 90.000000
_cell_volume 2707.926273
_symmetry_space_group_name_H-M "C 2/C"
_symmetry_group_IT_number 15
_symmetry_cell_setting 'monoclinic'
loop_
_space_group_symop_operation_xyz
x,y,z
-x,y,1/2-z
-x,-y,-z
x,-y,1/2+z
1/2+x,1/2+y,z
1/2-x,1/2+y,1/2-z
1/2-x,1/2-y,-z
1/2+x,1/2-y,1/2+z
loop_
_atom_site_type_symbol
_atom_site_label
_atom_site_fract_x
_atom_site_fract_y
_atom_site_fract_z
Si Si1 0.864033 0.380584 0.581702
Si Si2 0.244225 0.239364 0.126613
Si Si3 0.421400 0.937365 0.953649
Si Si4 0.052766 0.873467 0.328631
Si Si5 0.813845 0.894185 0.161689
Si Si6 0.990306 0.712092 0.488014
Si Si7 0.839627 0.935271 0.520476
O O1 0.800515 0.345786 0.575534
O O2 0.919231 0.467247 0.485606
O O3 0.772361 0.393311 0.794243
O O4 0.944784 0.310967 0.504027
O O5 0.297678 0.312489 0.117904
O O6 0.120282 0.243412 0.331617
O O7 0.250000 0.250000 0.000000
O O8 0.500000 0.926768 0.750000
O O9 0.466364 0.875702 0.973746
O O10 0.296478 0.910954 0.121337
O O11 0.092016 0.893117 0.386941
O O12 0.052924 0.774228 0.327112
O O13 0.935185 0.902762 0.458684
O O14 0.128214 0.913850 0.138358
O O15 0.828223 0.969301 0.064146
#
# Coordination Sequence:
#
# PCOD9296780 Si02
#       7
#     8   8   8   8   8   8   8
#     4  11  23  45  65  97 138 177 223 277 336 402
#     4  11  25  44  68  97 135 174 226 279 336 406
#     4  10  25  41  68  99 134 175 226 277 334 402
#     4  11  22  42  71  96 137 174 223 281 339 396
#     4  10  23  46  65  98 134 178 224 279 338 404
#     4  11  24  43  68  99 135 169 230 280 328 406
#     4  10  24  41  66 100 134 177 223 277 337 404
#
# _framework density 20.680032000000001
#
# number of rings (size 3 to 8) (size 9 to 14) (size 15 to 20)
#    0.000    1.429    2.857    0.857    6.000    2.857 
#    5.143    0.000    0.000    0.000    0.000    0.000 
#    0.000    0.000    0.000    0.000    0.000    0.000 
#
# Total GULP energy -156288.836490 kJ/mol
# GULP energy per Si atom -5581.744160 kJ/mol
# Density = 2.063296 g / cm^3
# Si number density = 20.680032 Si / 1000 Ang^3
#
#
#
# Elastic Constant Matrix: (Units=GPa)
#
#
# Indices 1 2 3 4 5 6 
#
# 1 79.2698 24.9551 32.4855 0.0000 2.2533 0.0000
# 2 24.9551 99.9655 27.2501 0.0000 4.1601 0.0000
# 3 32.4855 27.2501 51.1496 0.0000 21.5177 0.0000
# 4 0.0000 0.0000 0.0000 19.6362 0.0000 -0.6231
# 5 2.2533 4.1601 21.5177 0.0000 25.8669 0.0000
# 6 0.0000 0.0000 0.0000 -0.6231 0.0000 12.7002
#
#
#
# Elastic Compliance Matrix: (Units=1/GPa)
#
#
# Indices 1 2 3 4 5 6 
#
# 1 0.019684 -0.000644 -0.017661 0.000000 0.013080 0.000000
# 2 -0.000644 0.012175 -0.008118 0.000000 0.004851 0.000000
# 3 -0.017661 -0.008118 0.052143 0.000000 -0.040532 0.000000
# 4 0.000000 0.000000 0.000000 0.051006 0.000000 0.002502
# 5 0.013080 0.004851 -0.040532 0.000000 0.070457 0.000000
# 6 0.000000 0.000000 0.000000 0.002502 0.000000 0.078862
#
#
# Mechanical properties :
#
#
# Convention : Reuss Voigt Hill
#
# Bulk Modulus (GPa) = 32.09663 44.41847 38.25755
# Shear Modulus (GPa) = 14.38610 21.35362 17.86986
#
# Velocity S-wave (km/s) = 2.64038 3.21685 2.94277
# Velocity P-wave (km/s) = 4.98496 5.94332 5.48511
#
# Compressibility (1/GPa) = 0.03115592
#
# Stress axis : x y z
#
# Youngs Moduli (GPa) = 50.80374 82.13333 19.17795
#
# Poissons Ratio (x) = 0.05288 0.33870
# Poissons Ratio (y) = 0.03271 0.15570
# Poissons Ratio (z) = 0.89724 0.66679
#
# Static dielectric constant tensor:
#      x y z
#    x 1.743450 0.000000 -0.020630 
#    y 0.000000 1.739870 0.000000 
#    z -0.020630 0.000000 1.754970 
# 
# From -- ./inp_files/173776.got.cif
#   From: 2010.05.17/outbox.cif.g08.bks.cpg/sg15_87_cif.got.tgz:173776.got - 2010.06.03 18:47:42.
