data_PCOD9296613
_publ_section_title
;
Structure prediction by ZEFSAII (Michael W. Deem and Ramdas Pophale) SiO2 
 PCOD9296613
Probable space group: C 2/C
;
_chemical_formula_sum "Si O2"
_cell_formula_units_Z 36
_cell_length_a 4.676500
_cell_length_b 22.250494
_cell_length_c 14.327282
_cell_angle_alpha 90.000000
_cell_angle_beta 65.563403
_cell_angle_gamma 90.000000
_cell_volume 1357.269246
_symmetry_space_group_name_H-M "C 2/C"
_symmetry_group_IT_number 15
_symmetry_cell_setting 'monoclinic'
loop_
_space_group_symop_operation_xyz
x,y,z
-x,y,1/2-z
-x,-y,-z
x,-y,1/2+z
1/2+x,1/2+y,z
1/2-x,1/2+y,1/2-z
1/2-x,1/2-y,-z
1/2+x,1/2-y,1/2+z
loop_
_atom_site_type_symbol
_atom_site_label
_atom_site_fract_x
_atom_site_fract_y
_atom_site_fract_z
Si Si1 0.199223 0.450164 0.418360
Si Si2 0.500000 0.468451 0.750000
Si Si3 0.178706 0.220578 0.407898
Si Si4 0.500000 0.685304 0.750000
Si Si5 0.500000 0.102335 0.750000
Si Si6 0.133920 0.365539 0.904855
O O1 0.508279 0.485919 0.338376
O O2 0.000000 0.500000 0.500000
O O3 0.043063 0.431443 0.341882
O O4 0.142177 0.392830 0.492495
O O5 0.256388 0.420660 0.825598
O O6 0.250000 0.250000 0.500000
O O7 0.220740 0.275389 0.331648
O O8 0.482841 0.179980 0.353970
O O9 0.885839 0.175459 0.428737
O O10 0.316401 0.642840 0.702575
#
# Coordination Sequence:
#
# PCOD9296613 Si02
#       6
#     8   4   8   4   4   8
#     4  10  24  45  72 103 140 186 236 291 353 418
#     4  10  23  45  70 100 138 181 231 286 346 412
#     4  12  24  43  68 100 138 182 229 286 349 417
#     4  12  25  42  69 102 139 186 237 290 352 420
#     4  12  24  45  69 102 141 185 238 296 350 422
#     4  11  24  44  69 102 139 181 231 288 349 419
#
# _framework density 26.523842999999999
#
# number of rings (size 3 to 8) (size 9 to 14) (size 15 to 20)
#    0.000    0.889    0.000    6.667    0.000    5.333 
#    0.000   11.111    0.000    0.000    0.000    0.000 
#    0.000    0.000    0.000    0.000    0.000    0.000 
#
# Total GULP energy -100351.595016 kJ/mol
# GULP energy per Si atom -5575.088612 kJ/mol
# Density = 2.646347 g / cm^3
# Si number density = 26.523843 Si / 1000 Ang^3
#
#
#
# Elastic Constant Matrix: (Units=GPa)
#
#
# Indices 1 2 3 4 5 6 
#
# 1 103.6734 36.7383 20.1146 0.0000 4.9019 0.0000
# 2 36.7383 144.5839 54.9433 0.0000 3.3500 0.0000
# 3 20.1146 54.9433 186.1635 0.0000 -5.1202 0.0000
# 4 0.0000 0.0000 0.0000 37.1390 0.0000 -2.7907
# 5 4.9019 3.3500 -5.1202 0.0000 29.7178 0.0000
# 6 0.0000 0.0000 0.0000 -2.7907 0.0000 20.1271
#
#
#
# Elastic Compliance Matrix: (Units=1/GPa)
#
#
# Indices 1 2 3 4 5 6 
#
# 1 0.010697 -0.002508 -0.000459 0.000000 -0.001561 0.000000
# 2 -0.002508 0.008427 -0.002241 0.000000 -0.000922 0.000000
# 3 -0.000459 -0.002241 0.006121 0.000000 0.001383 0.000000
# 4 0.000000 0.000000 0.000000 0.027209 0.000000 0.003773
# 5 -0.001561 -0.000922 0.001383 0.000000 0.034250 0.000000
# 6 0.000000 0.000000 0.000000 0.003773 0.000000 0.050207
#
#
# Mechanical properties :
#
#
# Convention : Reuss Voigt Hill
#
# Bulk Modulus (GPa) = 67.43495 73.11258 70.27376
# Shear Modulus (GPa) = 32.83655 38.90509 35.87082
#
# Velocity S-wave (km/s) = 3.52234 3.83403 3.68149
# Velocity P-wave (km/s) = 6.48244 6.87200 6.68006
#
# Compressibility (1/GPa) = 0.01482911
#
# Stress axis : x y z
#
# Youngs Moduli (GPa) = 93.48341 118.67000 163.37890
#
# Poissons Ratio (x) = 0.29758 0.07493
# Poissons Ratio (y) = 0.23442 0.36621
# Poissons Ratio (z) = 0.04287 0.26599
#
# Static dielectric constant tensor:
#      x y z
#    x 2.077090 0.000000 -0.080060 
#    y 0.000000 2.209810 0.000000 
#    z -0.080060 0.000000 2.120740 
# 
# From -- ./inp_files/129009.got.cif
#   From: 2010.05.17/outbox.cif.g08.bks.cpg/sg15_65_cif.got.tgz:129009.got - 2010.06.03 18:47:42.
