data_PCOD9296177
_publ_section_title
;
Structure prediction by ZEFSAII (Michael W. Deem and Ramdas Pophale) SiO2 
 PCOD9296177
Probable space group: C 2/C
;
_chemical_formula_sum "Si O2"
_cell_formula_units_Z 52
_cell_length_a 23.112828
_cell_length_b 6.710758
_cell_length_c 18.482829
_cell_angle_alpha 90.000000
_cell_angle_beta 118.187437
_cell_angle_gamma 90.000000
_cell_volume 2526.792785
_symmetry_space_group_name_H-M "C 2/C"
_symmetry_group_IT_number 15
_symmetry_cell_setting 'monoclinic'
loop_
_space_group_symop_operation_xyz
x,y,z
-x,y,1/2-z
-x,-y,-z
x,-y,1/2+z
1/2+x,1/2+y,z
1/2-x,1/2+y,1/2-z
1/2-x,1/2-y,-z
1/2+x,1/2-y,1/2+z
loop_
_atom_site_type_symbol
_atom_site_label
_atom_site_fract_x
_atom_site_fract_y
_atom_site_fract_z
Si Si1 0.753684 0.026824 0.978157
Si Si2 0.987000 0.387888 0.659896
Si Si3 0.147074 0.274865 0.994695
Si Si4 0.337548 0.750725 0.329682
Si Si5 0.803700 0.396469 0.707204
Si Si6 0.000000 0.218810 0.250000
Si Si7 0.909854 0.076590 0.780004
O O1 0.710668 0.904356 0.010379
O O2 0.719876 0.998868 0.880269
O O3 0.750000 0.250000 0.000000
O O4 0.827364 0.944043 0.012612
O O5 0.916329 0.342931 0.586051
O O6 0.992618 0.627337 0.677189
O O7 0.000000 0.319884 0.750000
O O8 0.039075 0.236437 0.654236
O O9 0.137588 0.291845 0.074710
O O10 0.261050 0.687422 0.291721
O O11 0.377765 0.569099 0.319803
O O12 0.339484 0.943175 0.279260
O O13 0.852125 0.216919 0.715939
O O14 0.058597 0.072111 0.260850
#
# Coordination Sequence:
#
# PCOD9296177 Si02
#       7
#     8   8   8   8   8   4   8
#     4  10  24  41  70 100 138 186 236 294 347 414
#     4  10  23  44  68  99 135 179 240 288 348 420
#     4  10  24  45  61 104 144 179 236 294 346 418
#     4  11  25  41  71 102 143 187 226 291 360 419
#     4  11  24  44  70 104 139 187 234 289 356 423
#     4  10  24  44  70 104 126 194 230 296 348 418
#     4  12  23  43  72 100 140 181 243 287 348 425
#
# _framework density 20.579450000000001
#
# number of rings (size 3 to 8) (size 9 to 14) (size 15 to 20)
#    0.462    0.923    2.308    1.846    4.308    4.308 
#    0.000    3.077    0.000    0.000    0.000    0.000 
#    0.000    0.000    0.000    0.000    0.000    0.000 
#
# Total GULP energy -145046.136923 kJ/mol
# GULP energy per Si atom -5578.697574 kJ/mol
# Density = 2.053261 g / cm^3
# Si number density = 20.579450 Si / 1000 Ang^3
#
#
#
# Elastic Constant Matrix: (Units=GPa)
#
#
# Indices 1 2 3 4 5 6 
#
# 1 101.2053 64.3581 36.2238 0.0000 6.8046 0.0000
# 2 64.3581 160.4915 54.6007 0.0000 -0.4896 0.0000
# 3 36.2238 54.6007 82.7015 0.0000 -1.1929 0.0000
# 4 0.0000 0.0000 0.0000 16.7653 0.0000 -1.4753
# 5 6.8046 -0.4896 -1.1929 0.0000 23.7579 0.0000
# 6 0.0000 0.0000 0.0000 -1.4753 0.0000 38.6580
#
#
#
# Elastic Compliance Matrix: (Units=1/GPa)
#
#
# Indices 1 2 3 4 5 6 
#
# 1 0.014287 -0.004633 -0.003262 0.000000 -0.004351 0.000000
# 2 -0.004633 0.009538 -0.004249 0.000000 0.001310 0.000000
# 3 -0.003262 -0.004249 0.016350 0.000000 0.001668 0.000000
# 4 0.000000 0.000000 0.000000 0.059848 0.000000 0.002284
# 5 -0.004351 0.001310 0.001668 0.000000 0.043448 0.000000
# 6 0.000000 0.000000 0.000000 0.002284 0.000000 0.025955
#
#
# Mechanical properties :
#
#
# Convention : Reuss Voigt Hill
#
# Bulk Modulus (GPa) = 62.94329 72.75151 67.84740
# Shear Modulus (GPa) = 25.12438 28.45063 26.78750
#
# Velocity S-wave (km/s) = 3.49785 3.72220 3.61177
# Velocity P-wave (km/s) = 6.85312 7.34175 7.10164
#
# Compressibility (1/GPa) = 0.01588732
#
# Stress axis : x y z
#
# Youngs Moduli (GPa) = 69.99357 104.84136 61.16235
#
# Poissons Ratio (x) = 0.48570 0.19951
# Poissons Ratio (y) = 0.32426 0.25989
# Poissons Ratio (z) = 0.22832 0.44549
#
# Static dielectric constant tensor:
#      x y z
#    x 1.782400 0.000000 0.032950 
#    y 0.000000 1.803290 0.000000 
#    z 0.032950 0.000000 1.652290 
# 
# From -- ./inp_files/254416.got.cif
#   From: 2010.05.17/outbox.cif.g08.bks.cpg/sg15_128_cif.got.tgz:254416.got - 2010.06.03 18:47:42.
