data_PCOD9296865
_publ_section_title
;
Structure prediction by ZEFSAII (Michael W. Deem and Ramdas Pophale) SiO2 
 PCOD9296865
Probable space group: C 2/C
;
_chemical_formula_sum "Si O2"
_cell_formula_units_Z 40
_cell_length_a 12.027938
_cell_length_b 10.512318
_cell_length_c 13.980222
_cell_angle_alpha 90.000000
_cell_angle_beta 117.453603
_cell_angle_gamma 90.000000
_cell_volume 1568.612084
_symmetry_space_group_name_H-M "C 2/C"
_symmetry_group_IT_number 15
_symmetry_cell_setting 'monoclinic'
loop_
_space_group_symop_operation_xyz
x,y,z
-x,y,1/2-z
-x,-y,-z
x,-y,1/2+z
1/2+x,1/2+y,z
1/2-x,1/2+y,1/2-z
1/2-x,1/2-y,-z
1/2+x,1/2-y,1/2+z
loop_
_atom_site_type_symbol
_atom_site_label
_atom_site_fract_x
_atom_site_fract_y
_atom_site_fract_z
Si Si1 0.393840 0.377457 0.357374
Si Si2 0.113599 0.477879 0.933331
Si Si3 0.528324 0.353252 0.901715
Si Si4 0.750000 0.250000 0.000000
Si Si5 0.857377 0.385518 0.356400
Si Si6 0.500000 0.181571 0.250000
O O1 0.387230 0.328889 0.465572
O O2 0.476428 0.505522 0.384666
O O3 0.261184 0.402918 0.257196
O O4 0.460163 0.270327 0.321609
O O5 0.964773 0.507489 0.885720
O O6 0.115494 0.401403 0.835584
O O7 0.174545 0.614478 0.959500
O O8 0.170876 0.396181 0.042002
O O9 0.642477 0.320776 0.878637
O O10 0.420298 0.250565 0.861781
#
# Coordination Sequence:
#
# PCOD9296865 Si02
#       6
#     8   8   8   4   8   4
#     4  11  26  43  71 102 143 188 237 297 368 427
#     4  10  24  45  70 104 140 188 245 291 370 428
#     4  10  24  48  68 104 139 187 242 294 363 442
#     4  10  24  46  70 100 144 182 240 306 350 430
#     4  10  23  46  70  96 142 189 234 300 361 437
#     4  12  26  44  68 108 140 190 236 306 360 432
#
# _framework density 25.500250999999999
#
# number of rings (size 3 to 8) (size 9 to 14) (size 15 to 20)
#    0.000    1.600    2.000    0.000    8.400    2.400 
#    3.600    0.000    0.000    0.000    0.000    0.000 
#    0.000    0.000    0.000    0.000    0.000    0.000 
#
# Total GULP energy -111643.833622 kJ/mol
# GULP energy per Si atom -5582.191681 kJ/mol
# Density = 2.544221 g / cm^3
# Si number density = 25.500251 Si / 1000 Ang^3
#
#
#
# Elastic Constant Matrix: (Units=GPa)
#
#
# Indices 1 2 3 4 5 6 
#
# 1 52.5621 30.2771 47.4055 0.0000 15.5291 0.0000
# 2 30.2771 166.9747 69.3117 0.0000 14.3096 0.0000
# 3 47.4055 69.3117 188.6479 0.0000 5.6618 0.0000
# 4 0.0000 0.0000 0.0000 43.3354 0.0000 7.8202
# 5 15.5291 14.3096 5.6618 0.0000 48.0515 0.0000
# 6 0.0000 0.0000 0.0000 7.8202 0.0000 21.4115
#
#
#
# Elastic Compliance Matrix: (Units=1/GPa)
#
#
# Indices 1 2 3 4 5 6 
#
# 1 0.027875 -0.001865 -0.006087 0.000000 -0.007736 0.000000
# 2 -0.001865 0.007351 -0.002192 0.000000 -0.001328 0.000000
# 3 -0.006087 -0.002192 0.007584 0.000000 0.001727 0.000000
# 4 0.000000 0.000000 0.000000 0.024704 0.000000 -0.009023
# 5 -0.007736 -0.001328 0.001727 0.000000 0.023503 0.000000
# 6 0.000000 0.000000 0.000000 -0.009023 0.000000 0.049999
#
#
# Mechanical properties :
#
#
# Convention : Reuss Voigt Hill
#
# Bulk Modulus (GPa) = 44.40251 78.01924 61.21088
# Shear Modulus (GPa) = 29.61861 39.97237 34.79549
#
# Velocity S-wave (km/s) = 3.41178 3.96350 3.69794
# Velocity P-wave (km/s) = 5.74201 7.18385 6.50301
#
# Compressibility (1/GPa) = 0.02252125
#
# Stress axis : x y z
#
# Youngs Moduli (GPa) = 35.87449 136.03719 131.85122
#
# Poissons Ratio (x) = 0.25365 0.80264
# Poissons Ratio (y) = 0.06689 0.28907
# Poissons Ratio (z) = 0.21838 0.29825
#
# Static dielectric constant tensor:
#      x y z
#    x 0.007210 0.000000 -0.000450 
#    y 0.000000 1.499200 0.000000 
#    z -0.000450 0.000000 2.087180 
# 
# From -- ./inp_files/203708.got.cif
#   From: 2010.05.17/outbox.cif.g08.bks.cpg/sg15_102_cif.got.tgz:203708.got - 2010.06.03 18:47:42.
