data_PCOD9296714
_publ_section_title
;
Structure prediction by ZEFSAII (Michael W. Deem and Ramdas Pophale) SiO2 
 PCOD9296714
Probable space group: C 2/C
;
_chemical_formula_sum "Si O2"
_cell_formula_units_Z 40
_cell_length_a 14.284506
_cell_length_b 8.904702
_cell_length_c 14.466988
_cell_angle_alpha 90.000000
_cell_angle_beta 74.651266
_cell_angle_gamma 90.000000
_cell_volume 1774.555547
_symmetry_space_group_name_H-M "C 2/C"
_symmetry_group_IT_number 15
_symmetry_cell_setting 'monoclinic'
loop_
_space_group_symop_operation_xyz
x,y,z
-x,y,1/2-z
-x,-y,-z
x,-y,1/2+z
1/2+x,1/2+y,z
1/2-x,1/2+y,1/2-z
1/2-x,1/2-y,-z
1/2+x,1/2-y,1/2+z
loop_
_atom_site_type_symbol
_atom_site_label
_atom_site_fract_x
_atom_site_fract_y
_atom_site_fract_z
Si Si1 0.839690 0.578872 0.046252
Si Si2 0.413957 0.589581 0.172653
Si Si3 0.037681 0.758835 0.335208
Si Si4 0.872922 0.800953 0.876381
Si Si5 0.644131 0.259539 0.985985
O O1 0.889880 0.669954 0.116602
O O2 0.723496 0.601656 0.080560
O O3 0.874319 0.408786 0.046283
O O4 0.866468 0.651152 0.939605
O O5 0.411134 0.416946 0.204328
O O6 0.525966 0.624512 0.120346
O O7 0.381943 0.701140 0.262942
O O8 0.355362 0.620500 0.095973
O O9 0.000000 0.684675 0.250000
O O10 0.941378 0.791511 0.420059
O O11 0.750000 0.250000 0.000000
#
# Coordination Sequence:
#
# PCOD9296714 Si02
#       5
#     8   8   8   8   8
#     4  11  26  45  70 104 142 177 229 287 345 397
#     4  11  24  45  73  97 140 182 233 275 347 410
#     4  12  26  45  71 103 136 182 229 285 340 411
#     4  10  23  45  73  98 138 185 224 278 350 404
#     4  12  28  45  70 104 140 182 231 281 344 411
#
# _framework density 22.540855000000001
#
# number of rings (size 3 to 8) (size 9 to 14) (size 15 to 20)
#    0.000    0.800    4.000    2.400    8.400    1.600 
#    0.000    0.000    0.000    0.000    0.000    0.000 
#    0.000    0.000    0.000    0.000    0.000    0.000 
#
# Total GULP energy -111839.748962 kJ/mol
# GULP energy per Si atom -5591.987448 kJ/mol
# Density = 2.248955 g / cm^3
# Si number density = 22.540855 Si / 1000 Ang^3
#
#
#
# Elastic Constant Matrix: (Units=GPa)
#
#
# Indices 1 2 3 4 5 6 
#
# 1 85.6996 -5.6292 48.0462 0.0000 16.2451 0.0000
# 2 -5.6292 47.9919 25.2839 0.0000 -2.9977 0.0000
# 3 48.0462 25.2839 95.1384 0.0000 21.0167 0.0000
# 4 0.0000 0.0000 0.0000 9.1591 0.0000 -6.2695
# 5 16.2451 -2.9977 21.0167 0.0000 38.1922 0.0000
# 6 0.0000 0.0000 0.0000 -6.2695 0.0000 22.3294
#
#
#
# Elastic Compliance Matrix: (Units=1/GPa)
#
#
# Indices 1 2 3 4 5 6 
#
# 1 0.018821 0.008167 -0.011439 0.000000 -0.001070 0.000000
# 2 0.008167 0.029135 -0.013211 0.000000 0.006083 0.000000
# 3 -0.011439 -0.013211 0.021576 0.000000 -0.008044 0.000000
# 4 0.000000 0.000000 0.000000 0.135158 0.000000 0.037949
# 5 -0.001070 0.006083 -0.008044 0.000000 0.031542 0.000000
# 6 0.000000 0.000000 0.000000 0.037949 0.000000 0.055439
#
#
# Mechanical properties :
#
#
# Convention : Reuss Voigt Hill
#
# Bulk Modulus (GPa) = 27.34782 40.47018 33.90900
# Shear Modulus (GPa) = 14.84446 24.67807 19.76126
#
# Velocity S-wave (km/s) = 2.56902 3.31239 2.96410
# Velocity P-wave (km/s) = 4.57807 5.71160 5.17596
#
# Compressibility (1/GPa) = 0.03656599
#
# Stress axis : x y z
#
# Youngs Moduli (GPa) = 53.13177 34.32299 46.34778
#
# Poissons Ratio (x) = -0.28033 0.53018
# Poissons Ratio (y) = -0.43395 0.61231
# Poissons Ratio (z) = 0.60778 0.45345
#
# Static dielectric constant tensor:
#      x y z
#    x 1.808740 0.000000 0.003640 
#    y 0.000000 1.855600 0.000000 
#    z 0.003640 0.000000 1.824250 
# 
# From -- ./inp_files/150557.got.cif
#   From: 2010.05.17/outbox.cif.g08.bks.cpg/sg15_76_cif.got.tgz:150557.got - 2010.06.03 18:47:42.
