data_PCOD9296378
_publ_section_title
;
Structure prediction by ZEFSAII (Michael W. Deem and Ramdas Pophale) SiO2 
 PCOD9296378
Probable space group: C 2/C
;
_chemical_formula_sum "Si O2"
_cell_formula_units_Z 44
_cell_length_a 5.351573
_cell_length_b 20.544083
_cell_length_c 18.982481
_cell_angle_alpha 90.000000
_cell_angle_beta 63.903788
_cell_angle_gamma 90.000000
_cell_volume 1874.238810
_symmetry_space_group_name_H-M "C 2/C"
_symmetry_group_IT_number 15
_symmetry_cell_setting 'monoclinic'
loop_
_space_group_symop_operation_xyz
x,y,z
-x,y,1/2-z
-x,-y,-z
x,-y,1/2+z
1/2+x,1/2+y,z
1/2-x,1/2+y,1/2-z
1/2-x,1/2-y,-z
1/2+x,1/2-y,1/2+z
loop_
_atom_site_type_symbol
_atom_site_label
_atom_site_fract_x
_atom_site_fract_y
_atom_site_fract_z
Si Si1 0.771061 0.084811 0.649293
Si Si2 0.000000 0.015521 0.750000
Si Si3 0.781066 0.737364 0.835183
Si Si4 0.774154 0.363431 0.005876
Si Si5 0.539568 0.981320 0.911952
Si Si6 0.120520 0.246050 0.423678
O O1 0.798685 0.059504 0.726132
O O2 0.673349 0.159367 0.662360
O O3 0.082104 0.092793 0.579312
O O4 0.629494 0.034026 0.613462
O O5 0.827799 0.978096 0.831978
O O6 0.452647 0.750092 0.861801
O O7 0.000000 0.759965 0.750000
O O8 0.905998 0.768996 0.889472
O O9 0.601714 0.309000 0.985147
O O10 0.920329 0.408360 0.930540
O O11 0.946058 0.317488 0.036859
O O12 0.500000 0.000000 0.000000
#
# Coordination Sequence:
#
# PCOD9296378 Si02
#       6
#     8   4   8   8   8   8
#     4  11  25  43  72 102 138 187 244 310 360 438
#     4  12  26  44  66 112 144 182 250 298 380 438
#     4  11  23  41  70  99 145 181 243 300 366 421
#     4  10  23  44  72  97 140 187 241 293 366 429
#     4  12  24  44  72 105 142 188 238 301 375 438
#     4  10  24  44  67 107 134 191 243 295 350 445
#
# _framework density 23.476199000000001
#
# number of rings (size 3 to 8) (size 9 to 14) (size 15 to 20)
#    0.000    1.091    1.818    3.818    7.636    8.000 
#    1.636    1.818    0.000    0.000    0.000    0.000 
#    0.000    0.000    0.000    0.000    0.000    0.000 
#
# Total GULP energy -122802.638040 kJ/mol
# GULP energy per Si atom -5581.938093 kJ/mol
# Density = 2.342277 g / cm^3
# Si number density = 23.476199 Si / 1000 Ang^3
#
#
#
# Elastic Constant Matrix: (Units=GPa)
#
#
# Indices 1 2 3 4 5 6 
#
# 1 95.2797 6.0183 46.5806 0.0000 -7.1008 0.0000
# 2 6.0183 45.6112 30.5489 0.0000 -11.2563 0.0000
# 3 46.5806 30.5489 164.1035 0.0000 -15.3788 0.0000
# 4 0.0000 0.0000 0.0000 38.6585 0.0000 -9.6349
# 5 -7.1008 -11.2563 -15.3788 0.0000 43.3456 0.0000
# 6 0.0000 0.0000 0.0000 -9.6349 0.0000 15.4956
#
#
#
# Elastic Compliance Matrix: (Units=1/GPa)
#
#
# Indices 1 2 3 4 5 6 
#
# 1 0.012253 0.001026 -0.003575 0.000000 0.001005 0.000000
# 2 0.001026 0.026234 -0.004676 0.000000 0.005322 0.000000
# 3 -0.003575 -0.004676 0.008079 0.000000 0.001066 0.000000
# 4 0.000000 0.000000 0.000000 0.030611 0.000000 0.019034
# 5 0.001005 0.005322 0.001066 0.000000 0.024995 0.000000
# 6 0.000000 0.000000 0.000000 0.019034 0.000000 0.076370
#
#
# Mechanical properties :
#
#
# Convention : Reuss Voigt Hill
#
# Bulk Modulus (GPa) = 31.13728 52.36554 41.75141
# Shear Modulus (GPa) = 24.54609 34.28971 29.41790
#
# Velocity S-wave (km/s) = 3.23704 3.82595 3.54375
# Velocity P-wave (km/s) = 5.22143 6.47081 5.87940
#
# Compressibility (1/GPa) = 0.03211584
#
# Stress axis : x y z
#
# Youngs Moduli (GPa) = 81.61136 38.11802 123.78047
#
# Poissons Ratio (x) = -0.03909 0.44249
# Poissons Ratio (y) = -0.08370 0.57881
# Poissons Ratio (z) = 0.29174 0.17824
#
# Static dielectric constant tensor:
#      x y z
#    x 1.988610 0.000000 -0.081590 
#    y 0.000000 1.924150 0.000000 
#    z -0.081590 0.000000 1.965810 
# 
# From -- ./inp_files/184807.got.cif
#   From: 2010.05.17/outbox.cif.g08.bks.cpg/sg15_93_cif.got.tgz:184807.got - 2010.06.03 18:47:42.
