data_PCOD9296129
_publ_section_title
;
Structure prediction by ZEFSAII (Michael W. Deem and Ramdas Pophale) SiO2 
 PCOD9296129
Probable space group: C 2/C
;
_chemical_formula_sum "Si O2"
_cell_formula_units_Z 40
_cell_length_a 9.733052
_cell_length_b 22.739213
_cell_length_c 8.915217
_cell_angle_alpha 90.000000
_cell_angle_beta 109.721948
_cell_angle_gamma 90.000000
_cell_volume 1857.391811
_symmetry_space_group_name_H-M "C 2/C"
_symmetry_group_IT_number 15
_symmetry_cell_setting 'monoclinic'
loop_
_space_group_symop_operation_xyz
x,y,z
-x,y,1/2-z
-x,-y,-z
x,-y,1/2+z
1/2+x,1/2+y,z
1/2-x,1/2+y,1/2-z
1/2-x,1/2-y,-z
1/2+x,1/2-y,1/2+z
loop_
_atom_site_type_symbol
_atom_site_label
_atom_site_fract_x
_atom_site_fract_y
_atom_site_fract_z
Si Si1 0.253457 0.418739 0.929911
Si Si2 0.500000 0.162546 0.250000
Si Si3 0.500000 0.881759 0.250000
Si Si4 0.740159 0.533522 0.743522
Si Si5 0.949894 0.904260 0.577792
Si Si6 0.803943 0.310785 0.950367
O O1 0.110943 0.378543 0.885554
O O2 0.224328 0.466881 0.788940
O O3 0.398247 0.382451 0.938833
O O4 0.291218 0.454433 0.094486
O O5 0.611694 0.195313 0.177796
O O6 0.621063 0.925106 0.230718
O O7 0.577135 0.840733 0.398960
O O8 0.622999 0.556909 0.579093
O O9 0.835320 0.855059 0.590898
O O10 0.000000 0.936682 0.750000
O O11 0.750000 0.250000 0.000000
#
# Coordination Sequence:
#
# PCOD9296129 Si02
#       6
#     8   4   4   8   8   8
#     4  12  24  41  69 103 145 184 233 274 352 421
#     4  12  25  46  74 102 132 184 233 288 352 426
#     4  10  23  44  68 102 142 176 233 292 346 422
#     4  11  24  40  67 103 146 189 226 283 347 418
#     4  11  23  44  68  99 143 182 233 291 337 413
#     4  11  26  49  74 100 136 181 235 305 354 404
#
# _framework density 21.535572999999999
#
# number of rings (size 3 to 8) (size 9 to 14) (size 15 to 20)
#    0.000    0.800    4.000    3.000    4.200    1.600 
#    7.200    2.000    0.000    0.000    0.000    0.000 
#    0.000    0.000    0.000    0.000    0.000    0.000 
#
# Total GULP energy -111664.318224 kJ/mol
# GULP energy per Si atom -5583.215911 kJ/mol
# Density = 2.148656 g / cm^3
# Si number density = 21.535573 Si / 1000 Ang^3
#
#
#
# Elastic Constant Matrix: (Units=GPa)
#
#
# Indices 1 2 3 4 5 6 
#
# 1 147.9259 51.4168 61.0125 0.0000 -8.1223 0.0000
# 2 51.4168 80.8758 31.6993 0.0000 -9.5110 0.0000
# 3 61.0125 31.6993 118.7180 0.0000 -14.1192 0.0000
# 4 0.0000 0.0000 0.0000 17.4645 0.0000 -16.6342
# 5 -8.1223 -9.5110 -14.1192 0.0000 45.0028 0.0000
# 6 0.0000 0.0000 0.0000 -16.6342 0.0000 19.9394
#
#
#
# Elastic Compliance Matrix: (Units=1/GPa)
#
#
# Indices 1 2 3 4 5 6 
#
# 1 0.010056 -0.004914 -0.003909 0.000000 -0.000450 0.000000
# 2 -0.004914 0.016357 -0.001596 0.000000 0.002069 0.000000
# 3 -0.003909 -0.001596 0.011151 0.000000 0.002455 0.000000
# 4 0.000000 0.000000 0.000000 0.278735 0.000000 0.232531
# 5 -0.000450 0.002069 0.002455 0.000000 0.023347 0.000000
# 6 0.000000 0.000000 0.000000 0.232531 0.000000 0.244138
#
#
# Mechanical properties :
#
#
# Convention : Reuss Voigt Hill
#
# Bulk Modulus (GPa) = 59.78980 70.64190 65.21585
# Shear Modulus (GPa) = 8.19407 30.04074 19.11740
#
# Velocity S-wave (km/s) = 1.95273 3.73894 2.98268
# Velocity P-wave (km/s) = 5.73653 7.17727 6.49696
#
# Compressibility (1/GPa) = 0.01672526
#
# Stress axis : x y z
#
# Youngs Moduli (GPa) = 99.44516 61.13413 89.67969
#
# Poissons Ratio (x) = 0.30039 0.35060
# Poissons Ratio (y) = 0.48863 0.14316
# Poissons Ratio (z) = 0.38878 0.09759
#
# Static dielectric constant tensor:
#      x y z
#    x 1.833780 0.000000 -0.037070 
#    y 0.000000 1.735020 0.000000 
#    z -0.037070 0.000000 1.817160 
# 
# From -- ./inp_files/23565.got.cif
#   From: 2010.05.17/outbox.cif.g08.bks.cpg/sg15_12_cif.got.tgz:23565.got - 2010.06.03 18:47:42.
