data_PCOD9296461
_publ_section_title
;
Structure prediction by ZEFSAII (Michael W. Deem and Ramdas Pophale) SiO2 
 PCOD9296461
Probable space group: C 2/C
;
_chemical_formula_sum "Si O2"
_cell_formula_units_Z 60
_cell_length_a 8.718475
_cell_length_b 21.950128
_cell_length_c 18.005620
_cell_angle_alpha 90.000000
_cell_angle_beta 46.819112
_cell_angle_gamma 90.000000
_cell_volume 2512.641307
_symmetry_space_group_name_H-M "C 2/C"
_symmetry_group_IT_number 15
_symmetry_cell_setting 'monoclinic'
loop_
_space_group_symop_operation_xyz
x,y,z
-x,y,1/2-z
-x,-y,-z
x,-y,1/2+z
1/2+x,1/2+y,z
1/2-x,1/2+y,1/2-z
1/2-x,1/2-y,-z
1/2+x,1/2-y,1/2+z
loop_
_atom_site_type_symbol
_atom_site_label
_atom_site_fract_x
_atom_site_fract_y
_atom_site_fract_z
Si Si1 0.777967 0.987307 0.283602
Si Si2 0.278423 0.444989 0.632592
Si Si3 0.125691 0.577795 0.443980
Si Si4 0.500000 0.343471 0.750000
Si Si5 0.300163 0.850053 0.960066
Si Si6 0.767653 0.431021 0.427955
Si Si7 0.677948 0.638111 0.821918
Si Si8 0.630860 0.230777 0.285146
O O1 0.000000 0.984874 0.250000
O O2 0.773471 0.922199 0.242845
O O3 0.765808 0.039339 0.223330
O O4 0.644922 0.013435 0.396131
O O5 0.187277 0.384974 0.624142
O O6 0.523348 0.440680 0.530212
O O7 0.176084 0.504132 0.627019
O O8 0.334671 0.615966 0.350849
O O9 0.119411 0.581116 0.533727
O O10 0.924781 0.609509 0.476849
O O11 0.660871 0.308043 0.755225
O O12 0.441496 0.789715 0.903743
O O13 0.063280 0.853009 0.068755
O O14 0.794425 0.377034 0.360596
O O15 0.713504 0.700375 0.767276
O O16 0.500000 0.227539 0.250000
#
# Coordination Sequence:
#
# PCOD9296461 Si02
#       8
#     8   8   8   4   8   8   8   8
#     4  11  20  35  67  90 130 170 212 273 338 394
#     4   9  18  34  55  91 122 162 208 261 328 384
#     4  11  21  38  64  99 126 169 219 278 338 392
#     4  10  24  42  64 102 124 166 234 278 332 390
#     4  10  24  38  66  94 131 167 231 271 327 406
#     4   9  18  35  60  84 127 169 202 266 328 395
#     4  10  23  45  63  95 132 179 221 271 343 398
#     4  11  25  45  69  94 133 182 229 283 331 395
#
# _framework density 23.879252999999999
#
# number of rings (size 3 to 8) (size 9 to 14) (size 15 to 20)
#    0.000    1.867    2.000    1.600    7.467    0.533 
#    2.400    4.000    0.000    0.000    0.000    0.000 
#    0.000    0.000    0.000    0.000    0.000    0.000 
#
# Total GULP energy -167451.518471 kJ/mol
# GULP energy per Si atom -5581.717282 kJ/mol
# Density = 2.382490 g / cm^3
# Si number density = 23.879253 Si / 1000 Ang^3
#
#
#
# Elastic Constant Matrix: (Units=GPa)
#
#
# Indices 1 2 3 4 5 6 
#
# 1 157.3898 54.7875 53.5734 0.0000 31.6280 0.0000
# 2 54.7875 122.7114 33.6636 0.0000 15.4973 0.0000
# 3 53.5734 33.6636 104.2063 0.0000 14.2891 0.0000
# 4 0.0000 0.0000 0.0000 34.7332 0.0000 20.4714
# 5 31.6280 15.4973 14.2891 0.0000 48.4303 0.0000
# 6 0.0000 0.0000 0.0000 20.4714 0.0000 48.5036
#
#
#
# Elastic Compliance Matrix: (Units=1/GPa)
#
#
# Indices 1 2 3 4 5 6 
#
# 1 0.009267 -0.002696 -0.003316 0.000000 -0.004211 0.000000
# 2 -0.002696 0.009934 -0.001697 0.000000 -0.000917 0.000000
# 3 -0.003316 -0.001697 0.011962 0.000000 -0.000821 0.000000
# 4 0.000000 0.000000 0.000000 0.038324 0.000000 -0.016175
# 5 -0.004211 -0.000917 -0.000821 0.000000 0.023934 0.000000
# 6 0.000000 0.000000 0.000000 -0.016175 0.000000 0.027444
#
#
# Mechanical properties :
#
#
# Convention : Reuss Voigt Hill
#
# Bulk Modulus (GPa) = 63.51354 74.26183 68.88769
# Shear Modulus (GPa) = 35.32755 42.48562 38.90658
#
# Velocity S-wave (km/s) = 3.85050 4.22262 4.04084
# Velocity P-wave (km/s) = 6.81352 7.41218 7.11914
#
# Compressibility (1/GPa) = 0.01574467
#
# Stress axis : x y z
#
# Youngs Moduli (GPa) = 107.90938 100.65994 83.59831
#
# Poissons Ratio (x) = 0.27138 0.27720
# Poissons Ratio (y) = 0.29093 0.14190
# Poissons Ratio (z) = 0.35782 0.17086
#
# Static dielectric constant tensor:
#      x y z
#    x 1.925090 0.000000 -0.029970 
#    y 0.000000 2.363750 0.000000 
#    z -0.029970 0.000000 1.856090 
# 
# From -- ./inp_files/192530.got.cif
#   From: 2010.05.17/outbox.cif.g08.bks.cpg/sg15_97_cif.got.tgz:192530.got - 2010.06.03 18:47:42.
