data_PCOD9296580
_publ_section_title
;
Structure prediction by ZEFSAII (Michael W. Deem and Ramdas Pophale) SiO2 
 PCOD9296580
Probable space group: C 2/C
;
_chemical_formula_sum "Si O2"
_cell_formula_units_Z 60
_cell_length_a 21.116479
_cell_length_b 19.076160
_cell_length_c 13.215554
_cell_angle_alpha 90.000000
_cell_angle_beta 149.591931
_cell_angle_gamma 90.000000
_cell_volume 2694.520930
_symmetry_space_group_name_H-M "C 2/C"
_symmetry_group_IT_number 15
_symmetry_cell_setting 'monoclinic'
loop_
_space_group_symop_operation_xyz
x,y,z
-x,y,1/2-z
-x,-y,-z
x,-y,1/2+z
1/2+x,1/2+y,z
1/2-x,1/2+y,1/2-z
1/2-x,1/2-y,-z
1/2+x,1/2-y,1/2+z
loop_
_atom_site_type_symbol
_atom_site_label
_atom_site_fract_x
_atom_site_fract_y
_atom_site_fract_z
Si Si1 0.568365 0.840269 0.625608
Si Si2 0.560508 0.693324 0.502006
Si Si3 0.772576 0.935641 0.818606
Si Si4 0.640522 0.940256 0.252860
Si Si5 0.189350 0.510709 0.507709
Si Si6 0.500000 0.872940 0.750000
Si Si7 0.314203 0.686009 0.032471
Si Si8 0.046261 0.064275 0.633251
O O1 0.544048 0.767465 0.534975
O O2 0.701272 0.871758 0.773849
O O3 0.472526 0.900752 0.456234
O O4 0.549864 0.832252 0.720282
O O5 0.440331 0.674086 0.268782
O O6 0.665069 0.699917 0.558568
O O7 0.576313 0.631663 0.605079
O O8 0.723664 0.007979 0.800363
O O9 0.725342 0.950628 0.637998
O O10 0.921761 0.923889 0.027907
O O11 0.729545 0.881515 0.420839
O O12 0.599867 0.983972 0.294733
O O13 0.116243 0.578640 0.446933
O O14 0.320989 0.537898 0.641162
O O15 0.250000 0.750000 0.000000
O O16 0.000000 0.000000 0.500000
#
# Coordination Sequence:
#
# PCOD9296580 Si02
#       8
#     8   8   8   8   8   4   8   8
#     4  12  26  44  70 102 141 182 232 292 353 416
#     4  11  26  43  69 103 143 187 228 285 357 412
#     4  11  23  42  69 104 138 184 234 285 347 413
#     4  12  23  42  72 103 139 181 227 296 351 407
#     4  11  23  40  72 100 137 179 233 283 345 411
#     4  12  24  48  66 102 136 180 240 282 348 412
#     4  11  23  41  66 106 142 179 226 286 355 418
#     4  10  23  45  68  98 139 186 232 283 339 418
#
# _framework density 22.267408
#
# number of rings (size 3 to 8) (size 9 to 14) (size 15 to 20)
#    0.000    0.800    4.000    4.400    3.733    1.600 
#    0.000    2.000    0.000    0.000    0.000    0.000 
#    0.000    0.000    0.000    0.000    0.000    0.000 
#
# Total GULP energy -167655.833148 kJ/mol
# GULP energy per Si atom -5588.527772 kJ/mol
# Density = 2.221673 g / cm^3
# Si number density = 22.267408 Si / 1000 Ang^3
#
#
#
# Elastic Constant Matrix: (Units=GPa)
#
#
# Indices 1 2 3 4 5 6 
#
# 1 124.9395 43.5211 19.8473 0.0000 2.8911 0.0000
# 2 43.5211 59.9802 22.9148 0.0000 -3.3989 0.0000
# 3 19.8473 22.9148 57.7195 0.0000 6.0495 0.0000
# 4 0.0000 0.0000 0.0000 26.5435 0.0000 -7.2519
# 5 2.8911 -3.3989 6.0495 0.0000 37.1076 0.0000
# 6 0.0000 0.0000 0.0000 -7.2519 0.0000 23.6233
#
#
#
# Elastic Compliance Matrix: (Units=1/GPa)
#
#
# Indices 1 2 3 4 5 6 
#
# 1 0.010812 -0.007741 -0.000490 0.000000 -0.001472 0.000000
# 2 -0.007741 0.025559 -0.007929 0.000000 0.004237 0.000000
# 3 -0.000490 -0.007929 0.021074 0.000000 -0.004124 0.000000
# 4 0.000000 0.000000 0.000000 0.041123 0.000000 0.012624
# 5 -0.001472 0.004237 -0.004124 0.000000 0.028124 0.000000
# 6 0.000000 0.000000 0.000000 0.012624 0.000000 0.046206
#
#
# Mechanical properties :
#
#
# Convention : Reuss Voigt Hill
#
# Bulk Modulus (GPa) = 39.80361 46.13396 42.96878
# Shear Modulus (GPa) = 23.40893 27.87861 25.64377
#
# Velocity S-wave (km/s) = 3.24584 3.54219 3.39725
# Velocity P-wave (km/s) = 5.65344 6.12312 5.89296
#
# Compressibility (1/GPa) = 0.02512335
#
# Stress axis : x y z
#
# Youngs Moduli (GPa) = 92.48590 39.12583 47.45232
#
# Poissons Ratio (x) = 0.30289 0.02327
# Poissons Ratio (y) = 0.71598 0.37625
# Poissons Ratio (z) = 0.04535 0.31023
#
# Static dielectric constant tensor:
#      x y z
#    x 1.922590 0.000000 -0.011020 
#    y 0.000000 1.780230 0.000000 
#    z -0.011020 0.000000 1.820610 
# 
# From -- ./inp_files/174122.got.cif
#   From: 2010.05.17/outbox.cif.g08.bks.cpg/sg15_88_cif.got.tgz:174122.got - 2010.06.03 18:47:42.
