data_PCOD9296272
_publ_section_title
;
Structure prediction by ZEFSAII (Michael W. Deem and Ramdas Pophale) SiO2 
 PCOD9296272
Probable space group: C 2/C
;
_chemical_formula_sum "Si O2"
_cell_formula_units_Z 60
_cell_length_a 14.732842
_cell_length_b 20.090390
_cell_length_c 8.927242
_cell_angle_alpha 90.000000
_cell_angle_beta 92.587504
_cell_angle_gamma 90.000000
_cell_volume 2639.667293
_symmetry_space_group_name_H-M "C 2/C"
_symmetry_group_IT_number 15
_symmetry_cell_setting 'monoclinic'
loop_
_space_group_symop_operation_xyz
x,y,z
-x,y,1/2-z
-x,-y,-z
x,-y,1/2+z
1/2+x,1/2+y,z
1/2-x,1/2+y,1/2-z
1/2-x,1/2-y,-z
1/2+x,1/2-y,1/2+z
loop_
_atom_site_type_symbol
_atom_site_label
_atom_site_fract_x
_atom_site_fract_y
_atom_site_fract_z
Si Si1 0.500000 0.617087 0.750000
Si Si2 0.876215 0.972564 0.038793
Si Si3 0.024789 0.351247 0.924878
Si Si4 0.100571 0.910475 0.759414
Si Si5 0.756708 0.176322 0.134079
Si Si6 0.396631 0.269008 0.406254
Si Si7 0.133991 0.574708 0.930890
Si Si8 0.827630 0.567844 0.920643
O O1 0.548908 0.571658 0.874705
O O2 0.572457 0.665521 0.675648
O O3 0.780146 0.940259 0.072523
O O4 0.882191 0.048821 0.088465
O O5 0.893124 0.966692 0.865106
O O6 0.986182 0.276083 0.940208
O O7 0.000000 0.369270 0.750000
O O8 0.962307 0.394409 0.031607
O O9 0.125294 0.372159 0.983312
O O10 0.184224 0.861917 0.739680
O O11 0.000000 0.880094 0.750000
O O12 0.676665 0.223442 0.187441
O O13 0.836307 0.214134 0.047701
O O14 0.705983 0.123868 0.019823
O O15 0.149542 0.572353 0.754251
O O16 0.138580 0.501348 0.002207
#
# Coordination Sequence:
#
# PCOD9296272 Si02
#       8
#     4   8   8   8   8   8   8   8
#     4  12  24  46  66  96 136 176 230 266 346 390
#     4  12  27  40  72 102 139 175 221 288 343 411
#     4  11  24  43  69  97 138 185 228 277 339 406
#     4  12  25  44  68 106 138 171 225 285 351 408
#     4  10  23  44  70  96 135 180 233 265 344 396
#     4  10  23  44  71  91 132 196 218 273 328 411
#     4  11  23  41  69 100 142 181 218 289 338 415
#     4  12  24  41  66 108 137 174 232 279 350 404
#
# _framework density 22.730138
#
# number of rings (size 3 to 8) (size 9 to 14) (size 15 to 20)
#    0.000    0.800    2.667    4.400    5.600    0.000 
#    0.000   14.667    0.000    0.000    0.000    0.000 
#    0.000    0.000    0.000    0.000    0.000    0.000 
#
# Total GULP energy -167775.719184 kJ/mol
# GULP energy per Si atom -5592.523973 kJ/mol
# Density = 2.267840 g / cm^3
# Si number density = 22.730138 Si / 1000 Ang^3
#
#
#
# Elastic Constant Matrix: (Units=GPa)
#
#
# Indices 1 2 3 4 5 6 
#
# 1 117.4795 24.5416 11.0684 0.0000 11.2064 0.0000
# 2 24.5416 62.0971 -8.2301 0.0000 6.8504 0.0000
# 3 11.0684 -8.2301 56.8846 0.0000 -8.1905 0.0000
# 4 0.0000 0.0000 0.0000 19.3560 0.0000 -9.0462
# 5 11.2064 6.8504 -8.1905 0.0000 34.1849 0.0000
# 6 0.0000 0.0000 0.0000 -9.0462 0.0000 51.1807
#
#
#
# Elastic Compliance Matrix: (Units=1/GPa)
#
#
# Indices 1 2 3 4 5 6 
#
# 1 0.009921 -0.003964 -0.002960 0.000000 -0.003167 0.000000
# 2 -0.003964 0.018269 0.003184 0.000000 -0.001599 0.000000
# 3 -0.002960 0.003184 0.019331 0.000000 0.004964 0.000000
# 4 0.000000 0.000000 0.000000 0.056316 0.000000 0.009954
# 5 -0.003167 -0.001599 0.004964 0.000000 0.031801 0.000000
# 6 0.000000 0.000000 0.000000 0.009954 0.000000 0.021298
#
#
# Mechanical properties :
#
#
# Convention : Reuss Voigt Hill
#
# Bulk Modulus (GPa) = 24.97406 32.35789 28.66597
# Shear Modulus (GPa) = 28.12762 34.88307 31.50535
#
# Velocity S-wave (km/s) = 3.52157 3.92173 3.72702
# Velocity P-wave (km/s) = 5.24846 5.89688 5.58209
#
# Compressibility (1/GPa) = 0.04004155
#
# Stress axis : x y z
#
# Youngs Moduli (GPa) = 100.79457 54.73824 51.73090
#
# Poissons Ratio (x) = 0.21698 0.15312
# Poissons Ratio (y) = 0.39954 -0.16472
# Poissons Ratio (z) = 0.29835 -0.17430
#
# Static dielectric constant tensor:
#      x y z
#    x 1.880510 0.000000 0.028940 
#    y 0.000000 1.873260 0.000000 
#    z 0.028940 0.000000 1.885480 
# 
# From -- ./inp_files/42254.got.cif
#   From: 2010.05.17/outbox.cif.g08.bks.cpg/sg15_22_cif.got.tgz:42254.got - 2010.06.03 18:47:42.
