data_PCOD9296143
_publ_section_title
;
Structure prediction by ZEFSAII (Michael W. Deem and Ramdas Pophale) SiO2 
 PCOD9296143
Probable space group: C 2/C
;
_chemical_formula_sum "Si O2"
_cell_formula_units_Z 40
_cell_length_a 4.756968
_cell_length_b 24.822588
_cell_length_c 13.728137
_cell_angle_alpha 90.000000
_cell_angle_beta 94.404292
_cell_angle_gamma 90.000000
_cell_volume 1616.235068
_symmetry_space_group_name_H-M "C 2/C"
_symmetry_group_IT_number 15
_symmetry_cell_setting 'monoclinic'
loop_
_space_group_symop_operation_xyz
x,y,z
-x,y,1/2-z
-x,-y,-z
x,-y,1/2+z
1/2+x,1/2+y,z
1/2-x,1/2+y,1/2-z
1/2-x,1/2-y,-z
1/2+x,1/2-y,1/2+z
loop_
_atom_site_type_symbol
_atom_site_label
_atom_site_fract_x
_atom_site_fract_y
_atom_site_fract_z
Si Si1 0.725879 0.967866 0.380869
Si Si2 0.757855 0.155773 0.159108
Si Si3 0.500000 0.200834 0.750000
Si Si4 0.318531 0.282810 0.906227
Si Si5 0.000000 0.119527 0.750000
Si Si6 0.228601 0.963137 0.884806
O O1 0.867657 0.918252 0.330094
O O2 0.737946 0.959289 0.497360
O O3 0.406935 0.985544 0.352381
O O4 0.906396 0.021037 0.359895
O O5 0.472722 0.191759 0.145168
O O6 0.678824 0.093435 0.155509
O O7 0.000000 0.161394 0.250000
O O8 0.953322 0.169954 0.070830
O O9 0.494703 0.242059 0.840887
O O10 0.251782 0.161119 0.775904
O O11 0.250000 0.250000 0.000000
#
# Coordination Sequence:
#
# PCOD9296143 Si02
#       6
#     8   8   4   8   4   8
#     4  10  23  44  68 106 142 187 243 300 357 457
#     4  12  26  47  76 111 147 197 252 317 382 453
#     4  12  28  48  71 106 145 194 254 324 364 448
#     4  12  28  49  76 107 149 200 256 318 381 452
#     4  12  26  44  75 102 145 192 250 304 376 444
#     4  10  23  44  71 102 147 188 238 301 371 446
#
# _framework density 24.748877
#
# number of rings (size 3 to 8) (size 9 to 14) (size 15 to 20)
#    0.000    0.800    1.000    4.800    7.000    0.000 
#    0.000    0.000    0.000    0.000    0.000    0.000 
#    0.000    0.000    0.000    0.000    0.000    0.000 
#
# Total GULP energy -111699.656803 kJ/mol
# GULP energy per Si atom -5584.982840 kJ/mol
# Density = 2.469255 g / cm^3
# Si number density = 24.748877 Si / 1000 Ang^3
#
#
#
# Elastic Constant Matrix: (Units=GPa)
#
#
# Indices 1 2 3 4 5 6 
#
# 1 147.8984 38.4428 6.6571 0.0000 -7.9612 0.0000
# 2 38.4428 127.6629 22.4846 0.0000 -1.7697 0.0000
# 3 6.6571 22.4846 86.6518 0.0000 -23.1501 0.0000
# 4 0.0000 0.0000 0.0000 19.0563 0.0000 -15.3775
# 5 -7.9612 -1.7697 -23.1501 0.0000 32.5151 0.0000
# 6 0.0000 0.0000 0.0000 -15.3775 0.0000 57.7726
#
#
#
# Elastic Compliance Matrix: (Units=1/GPa)
#
#
# Indices 1 2 3 4 5 6 
#
# 1 0.007452 -0.002320 0.000597 0.000000 0.002123 0.000000
# 2 -0.002320 0.008976 -0.002682 0.000000 -0.001989 0.000000
# 3 0.000597 -0.002682 0.015054 0.000000 0.010718 0.000000
# 4 0.000000 0.000000 0.000000 0.066831 0.000000 0.017788
# 5 0.002123 -0.001989 0.010718 0.000000 0.038798 0.000000
# 6 0.000000 0.000000 0.000000 0.017788 0.000000 0.022044
#
#
# Mechanical properties :
#
#
# Convention : Reuss Voigt Hill
#
# Bulk Modulus (GPa) = 44.10819 55.26467 49.68643
# Shear Modulus (GPa) = 28.48632 41.51071 34.99852
#
# Velocity S-wave (km/s) = 3.39634 4.09990 3.76459
# Velocity P-wave (km/s) = 5.76552 6.69260 6.24628
#
# Compressibility (1/GPa) = 0.02267153
#
# Stress axis : x y z
#
# Youngs Moduli (GPa) = 134.19680 111.40209 66.42663
#
# Poissons Ratio (x) = 0.25840 -0.03963
# Poissons Ratio (y) = 0.31128 0.17819
# Poissons Ratio (z) = -0.08006 0.29883
#
# Static dielectric constant tensor:
#      x y z
#    x 1.948080 0.000000 0.024880 
#    y 0.000000 1.934720 0.000000 
#    z 0.024880 0.000000 2.039890 
# 
# From -- ./inp_files/129623.got.cif
#   From: 2010.05.17/outbox.cif.g08.bks.cpg/sg15_65_cif.got.tgz:129623.got - 2010.06.03 18:47:42.
