data_PCOD9296776
_publ_section_title
;
Structure prediction by ZEFSAII (Michael W. Deem and Ramdas Pophale) SiO2 
 PCOD9296776
Probable space group: C 2/C
;
_chemical_formula_sum "Si O2"
_cell_formula_units_Z 56
_cell_length_a 20.050268
_cell_length_b 14.682767
_cell_length_c 8.757232
_cell_angle_alpha 90.000000
_cell_angle_beta 100.944869
_cell_angle_gamma 90.000000
_cell_volume 2531.177148
_symmetry_space_group_name_H-M "C 2/C"
_symmetry_group_IT_number 15
_symmetry_cell_setting 'monoclinic'
loop_
_space_group_symop_operation_xyz
x,y,z
-x,y,1/2-z
-x,-y,-z
x,-y,1/2+z
1/2+x,1/2+y,z
1/2-x,1/2+y,1/2-z
1/2-x,1/2-y,-z
1/2+x,1/2-y,1/2+z
loop_
_atom_site_type_symbol
_atom_site_label
_atom_site_fract_x
_atom_site_fract_y
_atom_site_fract_z
Si Si1 0.710756 0.785223 0.636010
Si Si2 0.586031 0.096592 0.128730
Si Si3 0.934150 0.227910 0.327287
Si Si4 0.075946 0.397553 0.987622
Si Si5 0.988380 0.098221 0.921965
Si Si6 0.179009 0.912644 0.828254
Si Si7 0.834044 0.102248 0.836986
O O1 0.750000 0.750000 0.500000
O O2 0.638066 0.832465 0.574347
O O3 0.757624 0.864032 0.725162
O O4 0.700989 0.694849 0.732899
O O5 0.506661 0.113505 0.055481
O O6 0.596289 0.104908 0.317216
O O7 0.596667 0.994213 0.070293
O O8 0.901163 0.317737 0.386911
O O9 0.961968 0.169997 0.481743
O O10 0.882503 0.158567 0.222339
O O11 0.000000 0.248148 0.250000
O O12 0.000000 0.089626 0.750000
O O13 0.911324 0.127854 0.907676
O O14 0.000000 0.000000 0.000000
O O15 0.163822 0.012792 0.762703
O O16 0.197049 0.923868 0.013466
#
# Coordination Sequence:
#
# PCOD9296776 Si02
#       7
#     8   8   8   8   8   8   8
#     4  10  25  44  68  94 137 188 226 274 344 421
#     4  10  23  46  65 104 136 178 233 282 354 408
#     4  12  25  41  65 104 136 176 227 286 349 416
#     4  10  25  40  74 100 137 176 227 298 344 413
#     4  12  23  38  68  99 135 171 213 283 347 400
#     4  11  25  42  64  97 128 178 226 272 343 403
#     4  11  23  43  64  92 133 172 219 277 329 406
#
# _framework density 22.124093999999999
#
# number of rings (size 3 to 8) (size 9 to 14) (size 15 to 20)
#    0.000    1.143    2.857    2.143   10.000    3.429 
#    0.000    1.429    0.000    0.000    0.000    0.000 
#    0.000    0.000    0.000    0.000    0.000    0.000 
#
# Total GULP energy -156402.101884 kJ/mol
# GULP energy per Si atom -5585.789353 kJ/mol
# Density = 2.207374 g / cm^3
# Si number density = 22.124094 Si / 1000 Ang^3
#
#
#
# Elastic Constant Matrix: (Units=GPa)
#
#
# Indices 1 2 3 4 5 6 
#
# 1 66.4704 27.3956 -2.0990 0.0000 -13.2067 0.0000
# 2 27.3956 116.8665 19.8245 0.0000 -15.4643 0.0000
# 3 -2.0990 19.8245 78.0591 0.0000 -18.8119 0.0000
# 4 0.0000 0.0000 0.0000 5.4972 0.0000 18.2173
# 5 -13.2067 -15.4643 -18.8119 0.0000 17.1825 0.0000
# 6 0.0000 0.0000 0.0000 18.2173 0.0000 14.8046
#
#
#
# Elastic Compliance Matrix: (Units=1/GPa)
#
#
# Indices 1 2 3 4 5 6 
#
# 1 0.020429 -0.003248 0.006050 0.000000 0.019403 0.000000
# 2 -0.003248 0.010244 -0.001452 0.000000 0.005134 0.000000
# 3 0.006050 -0.001452 0.019219 0.000000 0.024385 0.000000
# 4 0.000000 0.000000 0.000000 -0.059104 0.000000 0.072728
# 5 0.019403 0.005134 0.024385 0.000000 0.104430 0.000000
# 6 0.000000 0.000000 0.000000 0.072728 0.000000 -0.021946
#
#
# Mechanical properties :
#
#
# Convention : Reuss Voigt Hill
#
# Bulk Modulus (GPa) = 19.01397 39.07088 29.04242
# Shear Modulus (GPa) = 56.75336 21.91519 39.33428
#
# Velocity S-wave (km/s) = 5.07030 3.15073 4.22108
# Velocity P-wave (km/s) = 6.54906 5.56186 6.07555
#
# Compressibility (1/GPa) = 0.05259291
#
# Stress axis : x y z
#
# Youngs Moduli (GPa) = 48.95011 97.62126 52.03222
#
# Poissons Ratio (x) = 0.31705 -0.31480
# Poissons Ratio (y) = 0.15898 0.07554
# Poissons Ratio (z) = -0.29616 0.14172
#
# Static dielectric constant tensor:
#      x y z
#    x 1.846480 0.000000 0.020510 
#    y 0.000000 1.822590 0.000000 
#    z 0.020510 0.000000 1.800220 
# 
# From -- ./inp_files/55662.got.cif
#   From: 2010.05.17/outbox.cif.g08.bks.cpg/sg15_28_cif.got.tgz:55662.got - 2010.06.03 18:47:42.
