data_PCOD9296034
_publ_section_title
;
Structure prediction by ZEFSAII (Michael W. Deem and Ramdas Pophale) SiO2 
 PCOD9296034
Probable space group: C 2/C
;
_chemical_formula_sum "Si O2"
_cell_formula_units_Z 36
_cell_length_a 16.516781
_cell_length_b 13.166115
_cell_length_c 17.629982
_cell_angle_alpha 90.000000
_cell_angle_beta 25.371390
_cell_angle_gamma 90.000000
_cell_volume 1642.742688
_symmetry_space_group_name_H-M "C 2/C"
_symmetry_group_IT_number 15
_symmetry_cell_setting 'monoclinic'
loop_
_space_group_symop_operation_xyz
x,y,z
-x,y,1/2-z
-x,-y,-z
x,-y,1/2+z
1/2+x,1/2+y,z
1/2-x,1/2+y,1/2-z
1/2-x,1/2-y,-z
1/2+x,1/2-y,1/2+z
loop_
_atom_site_type_symbol
_atom_site_label
_atom_site_fract_x
_atom_site_fract_y
_atom_site_fract_z
Si Si1 0.343222 0.143781 0.445849
Si Si2 0.000000 0.014112 0.250000
Si Si3 0.445666 0.881118 0.208469
Si Si4 0.181822 0.844856 0.706823
Si Si5 0.894848 0.436435 0.655032
O O1 0.500000 0.120588 0.250000
O O2 0.250000 0.250000 0.500000
O O3 0.458607 0.139343 0.427428
O O4 0.180014 0.059665 0.590315
O O5 0.016787 0.088681 0.308280
O O6 0.500000 0.889434 0.250000
O O7 0.345197 0.774623 0.278273
O O8 0.339887 0.978842 0.263630
O O9 0.640239 0.872581 0.996750
O O10 0.228745 0.877961 0.752594
O O11 0.000000 0.500000 0.500000
#
# Coordination Sequence:
#
# PCOD9296034 Si02
#       5
#     8   4   8   8   8
#     4  12  26  45  76 104 142 189 232 287 362 424
#     4  12  24  46  70 102 144 180 242 284 354 410
#     4  11  22  41  67  97 134 184 231 281 352 416
#     4  11  25  41  72  98 142 180 234 295 346 414
#     4  10  23  44  66 100 146 181 229 301 343 413
#
# _framework density 21.914570000000001
#
# number of rings (size 3 to 8) (size 9 to 14) (size 15 to 20)
#    0.000    0.889    6.667    1.333    0.000    5.333 
#    0.000    2.222    0.000    0.000    0.000    0.000 
#    0.000    0.000    0.000    0.000    0.000    0.000 
#
# Total GULP energy -100629.064123 kJ/mol
# GULP energy per Si atom -5590.503562 kJ/mol
# Density = 2.186469 g / cm^3
# Si number density = 21.914570 Si / 1000 Ang^3
#
#
#
# Elastic Constant Matrix: (Units=GPa)
#
#
# Indices 1 2 3 4 5 6 
#
# 1 218.8052 109.7759 17.5250 -0.0012 -24.7470 0.0001
# 2 109.7759 187.5585 12.4495 -0.0010 -20.2874 0.0003
# 3 17.5250 12.4495 46.2940 -0.0005 -0.3270 0.0009
# 4 -0.0012 -0.0010 -0.0005 14.7756 -0.0001 0.0612
# 5 -24.7470 -20.2874 -0.3270 -0.0001 30.1060 0.0003
# 6 0.0001 0.0003 0.0009 0.0612 0.0003 47.1857
#
#
#
# Elastic Compliance Matrix: (Units=1/GPa)
#
#
# Indices 1 2 3 4 5 6 
#
# 1 0.006845 -0.003551 -0.001613 0.000000 0.003216 0.000000
# 2 -0.003551 0.007702 -0.000711 0.000000 0.002263 0.000000
# 3 -0.001613 -0.000711 0.022392 0.000001 -0.001562 0.000000
# 4 0.000000 0.000000 0.000001 0.067679 0.000001 -0.000088
# 5 0.003216 0.002263 -0.001562 0.000001 0.037368 0.000000
# 6 0.000000 0.000000 0.000000 -0.000088 0.000000 0.021193
#
#
# Mechanical properties :
#
#
# Convention : Reuss Voigt Hill
#
# Bulk Modulus (GPa) = 39.70185 81.35096 60.52640
# Shear Modulus (GPa) = 27.27373 39.27394 33.27384
#
# Velocity S-wave (km/s) = 3.53164 4.23796 3.90082
# Velocity P-wave (km/s) = 5.89796 7.81981 6.92587
#
# Compressibility (1/GPa) = 0.02518774
#
# Stress axis : x y z
#
# Youngs Moduli (GPa) = 146.09321 129.83253 44.65875
#
# Poissons Ratio (x) = 0.46108 0.07206
# Poissons Ratio (y) = 0.51882 0.03175
# Poissons Ratio (z) = 0.23572 0.09230
#
# Static dielectric constant tensor:
#      x y z
#    x 1.863330 0.000000 -0.053910 
#    y 0.000000 1.854950 0.000000 
#    z -0.053910 0.000000 1.853810 
# 
# From -- ./inp_files/205258.got.cif
#   From: 2010.05.17/outbox.cif.g08.bks.cpg/sg15_103_cif.got.tgz:205258.got - 2010.06.03 18:47:42.
