data_PCOD9296340
_publ_section_title
;
Structure prediction by ZEFSAII (Michael W. Deem and Ramdas Pophale) SiO2 
 PCOD9296340
Probable space group: C 2/C
;
_chemical_formula_sum "Si O2"
_cell_formula_units_Z 40
_cell_length_a 10.693684
_cell_length_b 12.435059
_cell_length_c 24.346065
_cell_angle_alpha 90.000000
_cell_angle_beta 146.049182
_cell_angle_gamma 90.000000
_cell_volume 1808.058277
_symmetry_space_group_name_H-M "C 2/C"
_symmetry_group_IT_number 15
_symmetry_cell_setting 'monoclinic'
loop_
_space_group_symop_operation_xyz
x,y,z
-x,y,1/2-z
-x,-y,-z
x,-y,1/2+z
1/2+x,1/2+y,z
1/2-x,1/2+y,1/2-z
1/2-x,1/2-y,-z
1/2+x,1/2-y,1/2+z
loop_
_atom_site_type_symbol
_atom_site_label
_atom_site_fract_x
_atom_site_fract_y
_atom_site_fract_z
Si Si1 0.035495 0.034360 0.075353
Si Si2 0.240342 0.748552 0.312935
Si Si3 0.238405 0.594256 0.141474
Si Si4 0.912361 0.580338 0.534860
Si Si5 0.761098 0.678218 0.693117
O O1 0.217511 0.123948 0.157812
O O2 0.799502 0.088547 0.004007
O O3 0.101967 0.924976 0.131261
O O4 0.000000 0.000000 0.000000
O O5 0.432780 0.816395 0.412802
O O6 0.273352 0.779236 0.260570
O O7 0.000000 0.780729 0.250000
O O8 0.500000 0.582768 0.250000
O O9 0.197580 0.559875 0.064263
O O10 0.174265 0.717594 0.128333
O O11 0.074337 0.515278 0.114363
O O12 0.000000 0.652559 0.750000
#
# Coordination Sequence:
#
# PCOD9296340 Si02
#       5
#     8   8   8   8   8
#     4  12  26  45  71 104 149 188 242 299 365 426
#     4  12  28  45  74 108 147 188 244 296 363 432
#     4  10  23  44  72 101 137 186 241 292 352 426
#     4  11  25  43  73 102 143 182 243 292 357 430
#     4  11  25  45  73  99 146 191 239 290 365 427
#
# _framework density 22.123182
#
# number of rings (size 3 to 8) (size 9 to 14) (size 15 to 20)
#    0.000    0.800    0.000    6.600   14.000    0.800 
#    0.000    0.000    0.000    0.000    0.000    0.000 
#    0.000    0.000    0.000    0.000    0.000    0.000 
#
# Total GULP energy -111779.317892 kJ/mol
# GULP energy per Si atom -5588.965895 kJ/mol
# Density = 2.207283 g / cm^3
# Si number density = 22.123182 Si / 1000 Ang^3
#
#
#
# Elastic Constant Matrix: (Units=GPa)
#
#
# Indices 1 2 3 4 5 6 
#
# 1 109.6742 -6.5943 47.3512 0.0000 14.1814 0.0000
# 2 -6.5943 117.7231 49.2916 0.0000 16.2315 0.0000
# 3 47.3512 49.2916 105.6297 0.0002 2.4614 0.0001
# 4 0.0000 0.0000 0.0002 1.1474 0.0000 -19.5825
# 5 14.1814 16.2315 2.4614 0.0000 37.7600 0.0000
# 6 0.0000 0.0000 0.0001 -19.5825 0.0000 14.7257
#
#
#
# Elastic Compliance Matrix: (Units=1/GPa)
#
#
# Indices 1 2 3 4 5 6 
#
# 1 0.014097 0.005392 -0.008671 0.000000 -0.007047 0.000000
# 2 0.005392 0.013338 -0.008473 0.000000 -0.007206 0.000000
# 3 -0.008671 -0.008473 0.017174 0.000000 0.005780 0.000000
# 4 0.000000 0.000000 0.000000 -0.040171 0.000000 -0.053420
# 5 -0.007047 -0.007206 0.005780 0.000000 0.031851 0.000000
# 6 0.000000 0.000000 0.000000 -0.053420 0.000000 -0.003130
#
#
# Mechanical properties :
#
#
# Convention : Reuss Voigt Hill
#
# Bulk Modulus (GPa) = 47.38572 57.01378 52.19975
# Shear Modulus (GPa) = 78.49541 26.92520 52.71030
#
# Velocity S-wave (km/s) = 5.96306 3.49242 4.88647
# Velocity P-wave (km/s) = 8.29918 6.48766 7.44869
#
# Compressibility (1/GPa) = 0.02110341
#
# Stress axis : x y z
#
# Youngs Moduli (GPa) = 70.93647 74.97408 58.22920
#
# Poissons Ratio (x) = -0.40426 0.50493
# Poissons Ratio (y) = -0.38249 0.49339
# Poissons Ratio (z) = 0.61511 0.63528
#
# Static dielectric constant tensor:
#      x y z
#    x 2.202570 0.000000 -0.025700 
#    y 0.000000 1.835500 0.000000 
#    z -0.025700 0.000000 1.806630 
# 
# From -- ./inp_files/292416.got.cif
#   From: 2010.05.17/outbox.cif.g08.bks.cpg/sg15_147_cif.got.tgz:292416.got - 2010.06.03 18:47:42.
