data_PCOD9296784
_publ_section_title
;
Structure prediction by ZEFSAII (Michael W. Deem and Ramdas Pophale) SiO2 
 PCOD9296784
Probable space group: C 2/C
;
_chemical_formula_sum "Si O2"
_cell_formula_units_Z 36
_cell_length_a 7.986042
_cell_length_b 23.512673
_cell_length_c 9.366274
_cell_angle_alpha 90.000000
_cell_angle_beta 87.077558
_cell_angle_gamma 90.000000
_cell_volume 1756.447887
_symmetry_space_group_name_H-M "C 2/C"
_symmetry_group_IT_number 15
_symmetry_cell_setting 'monoclinic'
loop_
_space_group_symop_operation_xyz
x,y,z
-x,y,1/2-z
-x,-y,-z
x,-y,1/2+z
1/2+x,1/2+y,z
1/2-x,1/2+y,1/2-z
1/2-x,1/2-y,-z
1/2+x,1/2-y,1/2+z
loop_
_atom_site_type_symbol
_atom_site_label
_atom_site_fract_x
_atom_site_fract_y
_atom_site_fract_z
Si Si1 0.821992 0.320654 0.839654
Si Si2 0.000000 0.865075 0.250000
Si Si3 0.309206 0.948862 0.805475
Si Si4 0.670465 0.799814 0.320681
Si Si5 0.140793 0.969990 0.086113
O O1 0.756863 0.382631 0.794533
O O2 0.700952 0.267929 0.811613
O O3 0.000000 0.312259 0.750000
O O4 0.841670 0.317845 0.011697
O O5 0.165442 0.827123 0.261889
O O6 0.062274 0.909171 0.127834
O O7 0.500000 0.953361 0.750000
O O8 0.198422 0.992358 0.717446
O O9 0.295290 0.962950 0.972759
O O10 0.500000 0.816617 0.250000
O O11 0.000000 0.000000 0.000000
#
# Coordination Sequence:
#
# PCOD9296784 Si02
#       5
#     8   4   8   8   8
#     4  10  23  46  66 102 138 172 235 281 328 411
#     4  12  24  44  68  98 142 168 236 272 336 412
#     4  11  24  43  69  99 135 178 228 280 336 407
#     4  11  25  45  71  99 138 184 222 280 346 396
#     4  12  24  44  65  97 137 181 221 279 342 400
#
# _framework density 20.495912000000001
#
# number of rings (size 3 to 8) (size 9 to 14) (size 15 to 20)
#    0.000    0.889    5.556    0.667    0.000    7.111 
#    0.000    0.000    0.000    0.000    0.000    0.000 
#    0.000    0.000    0.000    0.000    0.000    0.000 
#
# Total GULP energy -100452.175392 kJ/mol
# GULP energy per Si atom -5580.676411 kJ/mol
# Density = 2.044926 g / cm^3
# Si number density = 20.495912 Si / 1000 Ang^3
#
#
#
# Elastic Constant Matrix: (Units=GPa)
#
#
# Indices 1 2 3 4 5 6 
#
# 1 126.0539 48.0505 50.8715 0.0000 -11.3295 0.0000
# 2 48.0505 108.2063 37.2602 0.0000 5.3680 0.0000
# 3 50.8715 37.2602 99.3346 0.0000 -28.7966 0.0000
# 4 0.0000 0.0000 0.0000 15.9649 0.0000 -25.3727
# 5 -11.3295 5.3680 -28.7966 0.0000 41.5381 0.0000
# 6 0.0000 0.0000 0.0000 -25.3727 0.0000 14.2224
#
#
#
# Elastic Compliance Matrix: (Units=1/GPa)
#
#
# Indices 1 2 3 4 5 6 
#
# 1 0.010987 -0.003474 -0.004161 0.000000 0.000561 0.000000
# 2 -0.003474 0.012679 -0.004664 0.000000 -0.005819 0.000000
# 3 -0.004161 -0.004664 0.017262 0.000000 0.011435 0.000000
# 4 0.000000 0.000000 0.000000 -0.034130 0.000000 -0.060888
# 5 0.000561 -0.005819 0.011435 0.000000 0.032907 0.000000
# 6 0.000000 0.000000 0.000000 -0.060888 0.000000 -0.038311
#
#
# Mechanical properties :
#
#
# Convention : Reuss Voigt Hill
#
# Bulk Modulus (GPa) = 61.23387 67.32879 64.28133
# Shear Modulus (GPa) = 159.06336 27.50592 93.28464
#
# Velocity S-wave (km/s) = 8.81906 3.66733 6.75371
# Velocity P-wave (km/s) = 11.56037 7.13117 9.60458
#
# Compressibility (1/GPa) = 0.01633083
#
# Stress axis : x y z
#
# Youngs Moduli (GPa) = 91.01641 78.87158 57.93019
#
# Poissons Ratio (x) = 0.27400 0.24105
# Poissons Ratio (y) = 0.31619 0.27017
# Poissons Ratio (z) = 0.37872 0.36783
#
# Static dielectric constant tensor:
#      x y z
#    x 3.280330 0.000000 0.272350 
#    y 0.000000 1.772660 0.000000 
#    z 0.272350 0.000000 1.811120 
# 
# From -- ./inp_files/22532.got.cif
#   From: 2010.05.17/outbox.cif.g08.bks.cpg/sg15_12_cif.got.tgz:22532.got - 2010.06.03 18:47:42.
