data_PCOD9296594
_publ_section_title
;
Structure prediction by ZEFSAII (Michael W. Deem and Ramdas Pophale) SiO2 
 PCOD9296594
Probable space group: C 2/C
;
_chemical_formula_sum "Si O2"
_cell_formula_units_Z 56
_cell_length_a 19.855660
_cell_length_b 5.264881
_cell_length_c 21.898567
_cell_angle_alpha 90.000000
_cell_angle_beta 102.199687
_cell_angle_gamma 90.000000
_cell_volume 2237.528076
_symmetry_space_group_name_H-M "C 2/C"
_symmetry_group_IT_number 15
_symmetry_cell_setting 'monoclinic'
loop_
_space_group_symop_operation_xyz
x,y,z
-x,y,1/2-z
-x,-y,-z
x,-y,1/2+z
1/2+x,1/2+y,z
1/2-x,1/2+y,1/2-z
1/2-x,1/2-y,-z
1/2+x,1/2-y,1/2+z
loop_
_atom_site_type_symbol
_atom_site_label
_atom_site_fract_x
_atom_site_fract_y
_atom_site_fract_z
Si Si1 0.945647 0.118378 0.194877
Si Si2 0.155533 0.575223 0.747120
Si Si3 0.742425 0.717553 0.831828
Si Si4 0.055281 0.911378 0.060481
Si Si5 0.043915 0.569864 0.635493
Si Si6 0.705717 0.521627 0.546368
Si Si7 0.822604 0.908633 0.586647
O O1 0.889332 0.204669 0.232706
O O2 0.899910 0.048012 0.126341
O O3 0.000000 0.971003 0.250000
O O4 0.987239 0.359115 0.175316
O O5 0.221343 0.683332 0.725364
O O6 0.175214 0.381954 0.803767
O O7 0.110156 0.461919 0.684060
O O8 0.722460 0.463400 0.862003
O O9 0.787036 0.850811 0.892353
O O10 0.026114 0.656510 0.086522
O O11 0.131139 0.843683 0.046772
O O12 0.059756 0.157685 0.106515
O O13 0.000000 0.000000 0.000000
O O14 0.781991 0.654874 0.557413
O O15 0.690274 0.417883 0.475224
#
# Coordination Sequence:
#
# PCOD9296594 Si02
#       7
#     8   8   8   8   8   8   8
#     4  10  23  45  69 106 142 190 241 308 372 446
#     4  11  24  41  71 104 141 188 245 308 371 450
#     4  12  24  44  70 105 142 190 244 313 375 444
#     4  12  26  48  74 107 144 197 246 307 370 451
#     4  11  26  47  71 104 148 190 249 298 377 443
#     4  11  25  45  73 105 145 191 246 312 375 446
#     4  11  24  46  72 106 143 190 252 306 377 450
#
# _framework density 25.027622000000001
#
# number of rings (size 3 to 8) (size 9 to 14) (size 15 to 20)
#    0.000    0.857    2.857    3.429    2.000    4.571 
#    2.571    4.286    0.000    0.000    0.000    0.000 
#    0.000    0.000    0.000    0.000    0.000    0.000 
#
# Total GULP energy -156056.347828 kJ/mol
# GULP energy per Si atom -5573.440994 kJ/mol
# Density = 2.497066 g / cm^3
# Si number density = 25.027622 Si / 1000 Ang^3
#
#
#
# Elastic Constant Matrix: (Units=GPa)
#
#
# Indices 1 2 3 4 5 6 
#
# 1 67.5333 12.0701 28.2661 0.0000 8.7140 0.0000
# 2 12.0701 65.0110 32.9806 0.0000 -0.0502 0.0000
# 3 28.2661 32.9806 167.8744 0.0000 28.8375 0.0000
# 4 0.0000 0.0000 0.0000 42.3573 0.0000 -0.5626
# 5 8.7140 -0.0502 28.8375 0.0000 55.2103 0.0000
# 6 0.0000 0.0000 0.0000 -0.5626 0.0000 10.6841
#
#
#
# Elastic Compliance Matrix: (Units=1/GPa)
#
#
# Indices 1 2 3 4 5 6 
#
# 1 0.016223 -0.001950 -0.002096 0.000000 -0.001467 0.000000
# 2 -0.001950 0.017511 -0.003480 0.000000 0.002141 0.000000
# 3 -0.002096 -0.003480 0.007621 0.000000 -0.003653 0.000000
# 4 0.000000 0.000000 0.000000 0.023625 0.000000 0.001244
# 5 -0.001467 0.002141 -0.003653 0.000000 0.020254 0.000000
# 6 0.000000 0.000000 0.000000 0.001244 0.000000 0.093663
#
#
# Mechanical properties :
#
#
# Convention : Reuss Voigt Hill
#
# Bulk Modulus (GPa) = 38.01835 49.67250 43.84543
# Shear Modulus (GPa) = 24.66508 36.79046 30.72777
#
# Velocity S-wave (km/s) = 3.14270 3.83821 3.50773
# Velocity P-wave (km/s) = 5.32844 6.28750 5.82773
#
# Compressibility (1/GPa) = 0.02630309
#
# Stress axis : x y z
#
# Youngs Moduli (GPa) = 61.64180 57.10722 131.21709
#
# Poissons Ratio (x) = 0.11133 0.27510
# Poissons Ratio (y) = 0.12017 0.45660
# Poissons Ratio (z) = 0.12923 0.19872
#
# Static dielectric constant tensor:
#      x y z
#    x 2.088790 0.000000 0.044040 
#    y 0.000000 2.041930 0.000000 
#    z 0.044040 0.000000 2.052430 
# 
# From -- ./inp_files/254382.got.cif
#   From: 2010.05.17/outbox.cif.g08.bks.cpg/sg15_128_cif.got.tgz:254382.got - 2010.06.03 18:47:42.
