data_PCOD9296000
_publ_section_title
;
Structure prediction by ZEFSAII (Michael W. Deem and Ramdas Pophale) SiO2 
 PCOD9296000
Probable space group: C 2/C
;
_chemical_formula_sum "Si O2"
_cell_formula_units_Z 52
_cell_length_a 13.740336
_cell_length_b 20.943741
_cell_length_c 13.730232
_cell_angle_alpha 90.000000
_cell_angle_beta 41.167419
_cell_angle_gamma 90.000000
_cell_volume 2600.925661
_symmetry_space_group_name_H-M "C 2/C"
_symmetry_group_IT_number 15
_symmetry_cell_setting 'monoclinic'
loop_
_space_group_symop_operation_xyz
x,y,z
-x,y,1/2-z
-x,-y,-z
x,-y,1/2+z
1/2+x,1/2+y,z
1/2-x,1/2+y,1/2-z
1/2-x,1/2-y,-z
1/2+x,1/2-y,1/2+z
loop_
_atom_site_type_symbol
_atom_site_label
_atom_site_fract_x
_atom_site_fract_y
_atom_site_fract_z
Si Si1 0.006133 0.309309 0.951926
Si Si2 0.893516 0.444888 0.118266
Si Si3 0.782144 0.314937 0.529312
Si Si4 0.950909 0.983244 0.144022
Si Si5 0.298571 0.740024 0.851300
Si Si6 0.500000 0.622986 0.750000
Si Si7 0.000000 0.405496 0.250000
Si Si8 0.500000 0.401782 0.750000
O O1 0.129187 0.299180 0.940279
O O2 0.089337 0.289026 0.787816
O O3 0.944373 0.380833 0.020897
O O4 0.861545 0.265467 0.078483
O O5 0.722678 0.463060 0.225459
O O6 0.926178 0.439251 0.210622
O O7 0.000000 0.500000 0.000000
O O8 0.750000 0.250000 0.500000
O O9 0.637543 0.355532 0.656765
O O10 0.878621 0.360266 0.388583
O O11 0.987361 0.048508 0.171831
O O12 0.038317 0.925855 0.133386
O O13 0.000000 0.000000 0.000000
O O14 0.380023 0.671517 0.795662
O O15 0.250000 0.750000 0.000000
#
# Coordination Sequence:
#
# PCOD9296000 Si02
#       8
#     8   8   8   8   8   4   4   4
#     4  11  26  43  73  99 145 188 232 296 361 429
#     4  11  24  46  67 101 140 185 239 292 360 428
#     4  11  25  42  68 100 136 180 228 290 354 418
#     4  11  24  43  71  96 134 187 230 287 350 416
#     4  12  24  47  69 106 143 181 237 294 360 438
#     4  11  24  42  68 100 140 175 234 292 344 423
#     4  10  23  44  64  96 141 178 228 294 346 420
#     4  11  25  44  66 104 133 171 238 280 340 431
#
# _framework density 19.992881000000001
#
# number of rings (size 3 to 8) (size 9 to 14) (size 15 to 20)
#    0.000    0.923    3.077    3.231    6.462    4.923 
#    2.769    0.000    0.000    0.000    0.000    0.000 
#    0.000    0.000    0.000    0.000    0.000    0.000 
#
# Total GULP energy -144938.212338 kJ/mol
# GULP energy per Si atom -5574.546628 kJ/mol
# Density = 1.994738 g / cm^3
# Si number density = 19.992881 Si / 1000 Ang^3
#
#
#
# Elastic Constant Matrix: (Units=GPa)
#
#
# Indices 1 2 3 4 5 6 
#
# 1 127.6204 31.9569 36.9868 -0.0004 3.3101 0.0001
# 2 31.9569 64.6290 4.7191 -0.0003 14.9793 0.0001
# 3 36.9868 4.7191 73.5549 -0.0012 12.4633 0.0007
# 4 -0.0004 -0.0003 -0.0012 18.9445 0.0006 -6.9662
# 5 3.3101 14.9793 12.4633 0.0006 44.6543 -0.0003
# 6 0.0001 0.0001 0.0007 -6.9662 -0.0003 32.8667
#
#
#
# Elastic Compliance Matrix: (Units=1/GPa)
#
#
# Indices 1 2 3 4 5 6 
#
# 1 0.010737 -0.005507 -0.005483 0.000000 0.002582 0.000000
# 2 -0.005507 0.019603 0.002683 0.000001 -0.006917 0.000000
# 3 -0.005483 0.002683 0.017071 0.000001 -0.005258 0.000000
# 4 0.000000 0.000001 0.000001 0.057247 -0.000001 0.012134
# 5 0.002582 -0.006917 -0.005258 -0.000001 0.025991 0.000000
# 6 0.000000 0.000000 0.000000 0.012134 0.000000 0.032998
#
#
# Mechanical properties :
#
#
# Convention : Reuss Voigt Hill
#
# Bulk Modulus (GPa) = 32.46978 45.90333 39.18656
# Shear Modulus (GPa) = 26.24305 32.10254 29.17279
#
# Velocity S-wave (km/s) = 3.62694 4.01146 3.82404
# Velocity P-wave (km/s) = 5.81511 6.66824 6.25624
#
# Compressibility (1/GPa) = 0.03079787
#
# Stress axis : x y z
#
# Youngs Moduli (GPa) = 93.13674 51.01223 58.57778
#
# Poissons Ratio (x) = 0.28093 0.32119
# Poissons Ratio (y) = 0.51291 -0.15719
# Poissons Ratio (z) = 0.51068 -0.13689
#
# Static dielectric constant tensor:
#      x y z
#    x 1.665880 -0.000010 -0.026300 
#    y -0.000010 1.670790 0.000000 
#    z -0.026300 0.000000 1.690320 
# 
# From -- ./inp_files/155456.got.cif
#   From: 2010.05.17/outbox.cif.g08.bks.cpg/sg15_78_cif.got.tgz:155456.got - 2010.06.03 18:47:42.
