data_PCOD9296848
_publ_section_title
;
Structure prediction by ZEFSAII (Michael W. Deem and Ramdas Pophale) SiO2 
 PCOD9296848
Probable space group: C 2/C
;
_chemical_formula_sum "Si O2"
_cell_formula_units_Z 36
_cell_length_a 10.594207
_cell_length_b 14.404605
_cell_length_c 24.704692
_cell_angle_alpha 90.000000
_cell_angle_beta 154.080648
_cell_angle_gamma 90.000000
_cell_volume 1647.918074
_symmetry_space_group_name_H-M "C 2/C"
_symmetry_group_IT_number 15
_symmetry_cell_setting 'monoclinic'
loop_
_space_group_symop_operation_xyz
x,y,z
-x,y,1/2-z
-x,-y,-z
x,-y,1/2+z
1/2+x,1/2+y,z
1/2-x,1/2+y,1/2-z
1/2-x,1/2-y,-z
1/2+x,1/2-y,1/2+z
loop_
_atom_site_type_symbol
_atom_site_label
_atom_site_fract_x
_atom_site_fract_y
_atom_site_fract_z
Si Si1 0.000000 0.761718 0.250000
Si Si2 0.059842 0.176451 0.960064
Si Si3 0.903908 0.507328 0.075335
Si Si4 0.013434 0.078822 0.668439
Si Si5 0.600738 0.683727 0.485713
O O1 0.056379 0.834559 0.320171
O O2 0.731717 0.696670 0.157720
O O3 0.862656 0.124218 0.839528
O O4 0.291799 0.096252 0.065687
O O5 0.250000 0.250000 0.000000
O O6 0.893639 0.210857 0.948546
O O7 0.774047 0.528910 0.965262
O O8 0.735267 0.417067 0.030770
O O9 0.242732 0.485591 0.210774
O O10 0.750000 0.750000 0.500000
#
# Coordination Sequence:
#
# PCOD9296848 Si02
#       5
#     4   8   8   8   8
#     4  12  24  46  72 104 156 190 242 308 374 436
#     4  10  23  46  70 100 144 192 239 302 361 428
#     4  10  24  45  71 108 140 193 245 302 358 444
#     4  10  24  44  73 106 144 190 247 297 367 441
#     4  12  24  43  72 105 143 192 244 301 365 436
#
# _framework density 21.845746999999999
#
# number of rings (size 3 to 8) (size 9 to 14) (size 15 to 20)
#    1.333    0.000    4.444    0.667    3.111    1.778 
#    4.000    0.000    0.000    0.000    0.000    0.000 
#    0.000    0.000    0.000    0.000    0.000    0.000 
#
# Total GULP energy -100279.958657 kJ/mol
# GULP energy per Si atom -5571.108814 kJ/mol
# Density = 2.179603 g / cm^3
# Si number density = 21.845747 Si / 1000 Ang^3
#
#
#
# Elastic Constant Matrix: (Units=GPa)
#
#
# Indices 1 2 3 4 5 6 
#
# 1 102.7142 40.8940 3.0410 -0.0002 -14.0455 -0.0005
# 2 40.8940 82.4193 9.6594 -0.0001 -1.0102 0.0001
# 3 3.0410 9.6594 103.2361 -0.0018 -18.2711 0.0003
# 4 -0.0002 -0.0001 -0.0018 22.1381 0.0006 -14.9115
# 5 -14.0455 -1.0102 -18.2711 0.0006 33.7208 0.0000
# 6 -0.0005 0.0001 0.0003 -14.9115 0.0000 31.1284
#
#
#
# Elastic Compliance Matrix: (Units=1/GPa)
#
#
# Indices 1 2 3 4 5 6 
#
# 1 0.013141 -0.006598 0.001287 0.000000 0.005974 0.000000
# 2 -0.006598 0.015583 -0.001844 0.000000 -0.003281 0.000000
# 3 0.001287 -0.001844 0.010957 0.000001 0.006418 0.000000
# 4 0.000000 0.000000 0.000001 0.066689 0.000000 0.031946
# 5 0.005974 -0.003281 0.006418 0.000000 0.035523 0.000000
# 6 0.000000 0.000000 0.000000 0.031946 0.000000 0.047428
#
#
# Mechanical properties :
#
#
# Convention : Reuss Voigt Hill
#
# Bulk Modulus (GPa) = 39.41427 43.95092 41.68260
# Shear Modulus (GPa) = 23.57510 33.04912 28.31211
#
# Velocity S-wave (km/s) = 3.28862 3.89374 3.60391
# Velocity P-wave (km/s) = 5.70099 6.35432 6.03650
#
# Compressibility (1/GPa) = 0.02537152
#
# Stress axis : x y z
#
# Youngs Moduli (GPa) = 76.09542 64.17352 91.26552
#
# Poissons Ratio (x) = 0.42342 -0.11750
# Poissons Ratio (y) = 0.50208 0.16832
# Poissons Ratio (z) = -0.09797 0.11835
#
# Static dielectric constant tensor:
#      x y z
#    x 1.862280 0.000000 -0.046760 
#    y 0.000000 1.794430 0.000000 
#    z -0.046760 0.000000 1.833770 
# 
# From -- ./inp_files/311285.got.cif
#   From: 2010.05.17/outbox.cif.g08.bks.cpg/sg15_156_cif.got.tgz:311285.got - 2010.06.03 18:47:42.
