data_PCOD9296381
_publ_section_title
;
Structure prediction by ZEFSAII (Michael W. Deem and Ramdas Pophale) SiO2 
 PCOD9296381
Probable space group: C 2/C
;
_chemical_formula_sum "Si O2"
_cell_formula_units_Z 48
_cell_length_a 11.944814
_cell_length_b 20.885625
_cell_length_c 12.028111
_cell_angle_alpha 90.000000
_cell_angle_beta 135.319026
_cell_angle_gamma 90.000000
_cell_volume 2109.976445
_symmetry_space_group_name_H-M "C 2/C"
_symmetry_group_IT_number 15
_symmetry_cell_setting 'monoclinic'
loop_
_space_group_symop_operation_xyz
x,y,z
-x,y,1/2-z
-x,-y,-z
x,-y,1/2+z
1/2+x,1/2+y,z
1/2-x,1/2+y,1/2-z
1/2-x,1/2-y,-z
1/2+x,1/2-y,1/2+z
loop_
_atom_site_type_symbol
_atom_site_label
_atom_site_fract_x
_atom_site_fract_y
_atom_site_fract_z
Si Si1 0.836713 0.977519 0.829959
Si Si2 0.532612 0.959743 0.140211
Si Si3 0.000000 0.016379 0.750000
Si Si4 0.592927 0.280195 0.126767
Si Si5 0.692161 0.621263 0.021256
Si Si6 0.957665 0.686171 0.847118
Si Si7 0.500000 0.187747 0.250000
O O1 0.767529 0.913908 0.834434
O O2 0.722266 0.036235 0.771426
O O3 0.882465 0.971529 0.735379
O O4 0.000000 0.000000 0.000000
O O5 0.500000 0.979893 0.250000
O O6 0.481249 0.886488 0.089554
O O7 0.500000 0.000000 0.000000
O O8 0.880919 0.064767 0.603913
O O9 0.766719 0.310072 0.231849
O O10 0.595880 0.231641 0.232398
O O11 0.451190 0.329550 0.057907
O O12 0.539402 0.237959 0.984330
O O13 0.857687 0.648332 0.091451
O O14 0.000000 0.701472 0.750000
#
# Coordination Sequence:
#
# PCOD9296381 Si02
#       7
#     8   8   4   8   8   8   4
#     4  10  24  43  67 101 138 192 239 296 365 435
#     4  11  28  47  73 108 148 193 247 305 369 441
#     4  10  23  44  72  98 146 189 236 304 368 434
#     4  12  25  47  72 104 143 188 238 304 369 430
#     4  11  25  43  69 104 142 184 242 299 366 441
#     4  11  26  49  72 103 144 191 243 298 363 444
#     4  12  27  42  68 112 138 183 244 298 374 424
#
# _framework density 22.749068999999999
#
# number of rings (size 3 to 8) (size 9 to 14) (size 15 to 20)
#    0.000    1.000    1.667    3.500   12.833    0.000 
#    1.500    0.000    0.000    0.000    0.000    0.000 
#    0.000    0.000    0.000    0.000    0.000    0.000 
#
# Total GULP energy -133902.820476 kJ/mol
# GULP energy per Si atom -5579.284186 kJ/mol
# Density = 2.269729 g / cm^3
# Si number density = 22.749069 Si / 1000 Ang^3
#
#
#
# Elastic Constant Matrix: (Units=GPa)
#
#
# Indices 1 2 3 4 5 6 
#
# 1 115.7063 1.9830 24.8863 0.0000 2.1818 0.0000
# 2 1.9830 48.9054 21.7502 0.0000 -2.8580 0.0000
# 3 24.8863 21.7502 83.1439 0.0000 -3.1529 0.0000
# 4 0.0000 0.0000 0.0000 8.1663 0.0000 -2.2523
# 5 2.1818 -2.8580 -3.1529 0.0000 35.1561 0.0000
# 6 0.0000 0.0000 0.0000 -2.2523 0.0000 7.9077
#
#
#
# Elastic Compliance Matrix: (Units=1/GPa)
#
#
# Indices 1 2 3 4 5 6 
#
# 1 0.009299 0.000938 -0.003058 0.000000 -0.000775 0.000000
# 2 0.000938 0.023298 -0.006327 0.000000 0.001268 0.000000
# 3 -0.003058 -0.006327 0.014635 0.000000 0.000988 0.000000
# 4 0.000000 0.000000 0.000000 0.132893 0.000000 0.037851
# 5 -0.000775 0.001268 0.000988 0.000000 0.028684 0.000000
# 6 0.000000 0.000000 0.000000 0.037851 0.000000 0.137240
#
#
# Mechanical properties :
#
#
# Convention : Reuss Voigt Hill
#
# Bulk Modulus (GPa) = 32.96325 38.33275 35.64800
# Shear Modulus (GPa) = 13.40280 23.52176 18.46228
#
# Velocity S-wave (km/s) = 2.42989 3.21902 2.85188
# Velocity P-wave (km/s) = 4.73222 5.54103 5.15252
#
# Compressibility (1/GPa) = 0.03033681
#
# Stress axis : x y z
#
# Youngs Moduli (GPa) = 107.54043 42.92273 68.32802
#
# Poissons Ratio (x) = -0.04025 0.20895
# Poissons Ratio (y) = -0.10084 0.43232
# Poissons Ratio (z) = 0.32886 0.27158
#
# Static dielectric constant tensor:
#      x y z
#    x 1.915270 0.000000 -0.103250 
#    y 0.000000 1.966050 0.000000 
#    z -0.103250 0.000000 1.981350 
# 
# From -- ./inp_files/89839.got.cif
#   From: 2010.05.17/outbox.cif.g08.bks.cpg/sg15_45_cif.got.tgz:89839.got - 2010.06.03 18:47:42.
