data_PCOD9296355
_publ_section_title
;
Structure prediction by ZEFSAII (Michael W. Deem and Ramdas Pophale) SiO2 
 PCOD9296355
Probable space group: C 2/C
;
_chemical_formula_sum "Si O2"
_cell_formula_units_Z 32
_cell_length_a 5.454180
_cell_length_b 13.142963
_cell_length_c 18.037667
_cell_angle_alpha 90.000000
_cell_angle_beta 101.367261
_cell_angle_gamma 90.000000
_cell_volume 1267.649859
_symmetry_space_group_name_H-M "C 2/C"
_symmetry_group_IT_number 15
_symmetry_cell_setting 'monoclinic'
loop_
_space_group_symop_operation_xyz
x,y,z
-x,y,1/2-z
-x,-y,-z
x,-y,1/2+z
1/2+x,1/2+y,z
1/2-x,1/2+y,1/2-z
1/2-x,1/2-y,-z
1/2+x,1/2-y,1/2+z
loop_
_atom_site_type_symbol
_atom_site_label
_atom_site_fract_x
_atom_site_fract_y
_atom_site_fract_z
Si Si1 0.676312 0.906745 0.031344
Si Si2 0.722319 0.834026 0.704257
Si Si3 0.929563 0.776138 0.444222
Si Si4 0.716696 0.929202 0.200664
O O1 0.648418 0.876866 0.117378
O O2 0.977879 0.892944 0.045671
O O3 0.618307 0.820027 0.966641
O O4 0.500000 0.000000 0.000000
O O5 0.500000 0.824478 0.750000
O O6 0.683762 0.749693 0.640621
O O7 0.000000 0.819818 0.750000
O O8 0.715298 0.951183 0.677366
O O9 0.750000 0.750000 0.500000
O O10 0.500000 0.916842 0.250000
O O11 0.000000 0.909745 0.250000
#
# Coordination Sequence:
#
# PCOD9296355 Si02
#       4
#     8   8   8   8
#     4  11  25  47  72 102 149 193 252 317 378 464
#     4  10  23  45  73 102 148 193 242 312 381 457
#     4  11  27  45  71 109 143 198 254 311 392 459
#     4  10  23  44  72 105 140 194 249 304 384 458
#
# _framework density 25.243565
#
# number of rings (size 3 to 8) (size 9 to 14) (size 15 to 20)
#    0.000    1.500    2.500    0.000   10.500    4.000 
#    0.000    0.000    0.000    0.000    0.000    0.000 
#    0.000    0.000    0.000    0.000    0.000    0.000 
#
# Total GULP energy -89182.526117 kJ/mol
# GULP energy per Si atom -5573.907882 kJ/mol
# Density = 2.518611 g / cm^3
# Si number density = 25.243565 Si / 1000 Ang^3
#
#
#
# Elastic Constant Matrix: (Units=GPa)
#
#
# Indices 1 2 3 4 5 6 
#
# 1 139.1124 25.6792 58.1985 0.0000 -1.9977 0.0000
# 2 25.6792 123.5172 13.3015 0.0000 17.0573 0.0000
# 3 58.1985 13.3015 122.8759 0.0000 12.3663 0.0000
# 4 0.0000 0.0000 0.0000 42.9116 0.0000 11.4886
# 5 -1.9977 17.0573 12.3663 0.0000 38.1379 0.0000
# 6 0.0000 0.0000 0.0000 11.4886 0.0000 58.9870
#
#
#
# Elastic Compliance Matrix: (Units=1/GPa)
#
#
# Indices 1 2 3 4 5 6 
#
# 1 0.009488 -0.001869 -0.004575 0.000000 0.002816 0.000000
# 2 -0.001869 0.009035 0.000334 0.000000 -0.004247 0.000000
# 3 -0.004575 0.000334 0.010656 0.000000 -0.003844 0.000000
# 4 0.000000 0.000000 0.000000 0.024586 0.000000 -0.004788
# 5 0.002816 -0.004247 -0.003844 0.000000 0.029514 0.000000
# 6 0.000000 0.000000 0.000000 -0.004788 0.000000 0.017886
#
#
# Mechanical properties :
#
#
# Convention : Reuss Voigt Hill
#
# Bulk Modulus (GPa) = 58.96092 64.42932 61.69512
# Shear Modulus (GPa) = 42.00414 47.22905 44.61660
#
# Velocity S-wave (km/s) = 4.08358 4.33012 4.20866
# Velocity P-wave (km/s) = 6.75587 7.11185 6.93614
#
# Compressibility (1/GPa) = 0.01696039
#
# Stress axis : x y z
#
# Youngs Moduli (GPa) = 105.39896 110.67991 93.84547
#
# Poissons Ratio (x) = 0.20683 0.42933
# Poissons Ratio (y) = 0.19696 -0.03139
# Poissons Ratio (z) = 0.48219 -0.03702
#
# Static dielectric constant tensor:
#      x y z
#    x 2.054730 0.000000 0.280440 
#    y 0.000000 2.590290 0.000000 
#    z 0.280440 0.000000 2.085420 
# 
# From -- ./inp_files/183698.got.cif
#   From: 2010.05.17/outbox.cif.g08.bks.cpg/sg15_92_cif.got.tgz:183698.got - 2010.06.03 18:47:42.
