data_PCOD9296739
_publ_section_title
;
Structure prediction by ZEFSAII (Michael W. Deem and Ramdas Pophale) SiO2 
 PCOD9296739
Probable space group: C 2/C
;
_chemical_formula_sum "Si O2"
_cell_formula_units_Z 40
_cell_length_a 20.056114
_cell_length_b 16.325539
_cell_length_c 5.157814
_cell_angle_alpha 90.000000
_cell_angle_beta 61.822104
_cell_angle_gamma 90.000000
_cell_volume 1488.659117
_symmetry_space_group_name_H-M "C 2/C"
_symmetry_group_IT_number 15
_symmetry_cell_setting 'monoclinic'
loop_
_space_group_symop_operation_xyz
x,y,z
-x,y,1/2-z
-x,-y,-z
x,-y,1/2+z
1/2+x,1/2+y,z
1/2-x,1/2+y,1/2-z
1/2-x,1/2-y,-z
1/2+x,1/2-y,1/2+z
loop_
_atom_site_type_symbol
_atom_site_label
_atom_site_fract_x
_atom_site_fract_y
_atom_site_fract_z
Si Si1 0.211500 0.162429 0.127161
Si Si2 0.573867 0.295630 0.266099
Si Si3 0.614525 0.556331 0.992160
Si Si4 0.188474 0.675656 0.144917
Si Si5 0.913644 0.444788 0.953696
O O1 0.134648 0.178993 0.430823
O O2 0.190467 0.109680 0.913028
O O3 0.269907 0.120216 0.218706
O O4 0.250000 0.250000 0.000000
O O5 0.500000 0.271042 0.250000
O O6 0.561577 0.373761 0.469656
O O7 0.613405 0.226014 0.367585
O O8 0.608293 0.511005 0.278110
O O9 0.150290 0.623006 0.987198
O O10 0.250000 0.750000 0.000000
O O11 0.906523 0.515330 0.748085
O O12 0.000000 0.413654 0.750000
#
# Coordination Sequence:
#
# PCOD9296739 Si02
#       5
#     8   8   8   8   8
#     4  11  24  47  75 107 155 201 257 321 388 465
#     4  11  25  47  76 111 154 210 259 315 390 470
#     4  12  26  48  75 111 150 202 259 318 386 467
#     4  10  23  45  75 108 149 198 254 312 385 467
#     4  10  23  46  73 108 148 192 249 318 389 453
#
# _framework density 26.869820000000001
#
# number of rings (size 3 to 8) (size 9 to 14) (size 15 to 20)
#    0.000    1.200    4.000    0.600    0.000    6.400 
#    0.000    2.000    0.000    0.000    0.000    0.000 
#    0.000    0.000    0.000    0.000    0.000    0.000 
#
# Total GULP energy -111716.960720 kJ/mol
# GULP energy per Si atom -5585.848036 kJ/mol
# Density = 2.680866 g / cm^3
# Si number density = 26.869820 Si / 1000 Ang^3
#
#
#
# Elastic Constant Matrix: (Units=GPa)
#
#
# Indices 1 2 3 4 5 6 
#
# 1 187.5272 38.8597 42.4331 0.0000 0.0737 0.0000
# 2 38.8597 80.0123 11.0746 0.0000 -4.0166 0.0000
# 3 42.4331 11.0746 126.6056 0.0000 10.7895 0.0000
# 4 0.0000 0.0000 0.0000 20.3239 0.0000 24.4696
# 5 0.0737 -4.0166 10.7895 0.0000 51.6450 0.0000
# 6 0.0000 0.0000 0.0000 24.4696 0.0000 52.4291
#
#
#
# Elastic Compliance Matrix: (Units=1/GPa)
#
#
# Indices 1 2 3 4 5 6 
#
# 1 0.006344 -0.002810 -0.001895 0.000000 0.000168 0.000000
# 2 -0.002810 0.013974 -0.000380 0.000000 0.001170 0.000000
# 3 -0.001895 -0.000380 0.008724 0.000000 -0.001850 0.000000
# 4 0.000000 0.000000 0.000000 0.112316 0.000000 -0.052420
# 5 0.000168 0.001170 -0.001850 0.000000 0.019840 0.000000
# 6 0.000000 0.000000 0.000000 -0.052420 0.000000 0.043539
#
#
# Mechanical properties :
#
#
# Convention : Reuss Voigt Hill
#
# Bulk Modulus (GPa) = 52.98817 64.32000 58.65409
# Shear Modulus (GPa) = 22.60421 44.99808 33.80115
#
# Velocity S-wave (km/s) = 2.90358 4.09671 3.55062
# Velocity P-wave (km/s) = 5.56814 6.80933 6.21977
#
# Compressibility (1/GPa) = 0.01887214
#
# Stress axis : x y z
#
# Youngs Moduli (GPa) = 157.64083 71.55995 114.62071
#
# Poissons Ratio (x) = 0.20110 0.21716
# Poissons Ratio (y) = 0.44300 0.04358
# Poissons Ratio (z) = 0.29867 0.02721
#
# Static dielectric constant tensor:
#      x y z
#    x 2.109540 0.000000 0.040720 
#    y 0.000000 2.152190 0.000000 
#    z 0.040720 0.000000 2.446580 
# 
# From -- ./inp_files/12755.got.cif
#   From: 2010.05.17/outbox.cif.g08.bks.cpg/sg15_7_cif.got.tgz:12755.got - 2010.06.03 18:47:42.
