data_PCOD9296832
_publ_section_title
;
Structure prediction by ZEFSAII (Michael W. Deem and Ramdas Pophale) SiO2 
 PCOD9296832
Probable space group: C 2/C
;
_chemical_formula_sum "Si O2"
_cell_formula_units_Z 48
_cell_length_a 25.566482
_cell_length_b 15.418816
_cell_length_c 8.592377
_cell_angle_alpha 90.000000
_cell_angle_beta 139.524610
_cell_angle_gamma 90.000000
_cell_volume 2198.675981
_symmetry_space_group_name_H-M "C 2/C"
_symmetry_group_IT_number 15
_symmetry_cell_setting 'monoclinic'
loop_
_space_group_symop_operation_xyz
x,y,z
-x,y,1/2-z
-x,-y,-z
x,-y,1/2+z
1/2+x,1/2+y,z
1/2-x,1/2+y,1/2-z
1/2-x,1/2-y,-z
1/2+x,1/2-y,1/2+z
loop_
_atom_site_type_symbol
_atom_site_label
_atom_site_fract_x
_atom_site_fract_y
_atom_site_fract_z
Si Si1 0.298900 0.597940 0.979798
Si Si2 0.780145 0.546939 0.383685
Si Si3 0.023624 0.908688 0.485573
Si Si4 0.753915 0.769362 0.825088
Si Si5 0.437034 0.749321 0.750613
Si Si6 0.055881 0.559653 0.227703
O O1 0.290175 0.516698 0.840966
O O2 0.280869 0.687845 0.850025
O O3 0.235915 0.575118 0.974855
O O4 0.384087 0.605096 0.259070
O O5 0.784292 0.637181 0.299321
O O6 0.860410 0.489088 0.552818
O O7 0.971595 0.827950 0.433366
O O8 0.000000 0.000000 0.500000
O O9 0.000000 0.913213 0.250000
O O10 0.750000 0.750000 0.000000
O O11 0.848230 0.775517 0.993243
O O12 0.500000 0.754967 0.750000
O O13 0.429842 0.844374 0.807924
O O14 0.000000 0.571956 0.250000
O O15 0.000000 0.500000 0.000000
#
# Coordination Sequence:
#
# PCOD9296832 Si02
#       6
#     8   8   8   8   8   8
#     4  12  25  46  73 105 142 194 243 303 375 438
#     4  12  25  44  73 102 142 190 245 301 371 441
#     4  11  24  44  71 102 139 186 242 299 366 433
#     4  12  27  46  71 108 147 189 247 307 366 444
#     4  10  23  46  69 101 145 186 237 300 361 433
#     4  11  25  42  69 101 143 188 239 292 359 440
#
# _framework density 21.831320999999999
#
# number of rings (size 3 to 8) (size 9 to 14) (size 15 to 20)
#    0.000    0.667    1.667    6.500    7.000    1.333 
#    0.000    0.833    0.000    0.000    0.000    0.000 
#    0.000    0.000    0.000    0.000    0.000    0.000 
#
# Total GULP energy -134134.266087 kJ/mol
# GULP energy per Si atom -5588.927754 kJ/mol
# Density = 2.178163 g / cm^3
# Si number density = 21.831321 Si / 1000 Ang^3
#
#
#
# Elastic Constant Matrix: (Units=GPa)
#
#
# Indices 1 2 3 4 5 6 
#
# 1 65.3979 41.3554 46.1803 0.0000 9.8655 0.0000
# 2 41.3554 249.1179 84.6304 0.0000 -3.1849 0.0000
# 3 46.1803 84.6304 147.5773 0.0000 10.3143 0.0000
# 4 0.0000 0.0000 0.0000 32.2261 0.0000 -14.9390
# 5 9.8655 -3.1849 10.3143 0.0000 33.9157 0.0000
# 6 0.0000 0.0000 0.0000 -14.9390 0.0000 16.7301
#
#
#
# Elastic Compliance Matrix: (Units=1/GPa)
#
#
# Indices 1 2 3 4 5 6 
#
# 1 0.020741 -0.001748 -0.005165 0.000000 -0.004627 0.000000
# 2 -0.001748 0.005195 -0.002556 0.000000 0.001774 0.000000
# 3 -0.005165 -0.002556 0.009982 0.000000 -0.001773 0.000000
# 4 0.000000 0.000000 0.000000 0.052948 0.000000 0.047280
# 5 -0.004627 0.001774 -0.001773 0.000000 0.031537 0.000000
# 6 0.000000 0.000000 0.000000 0.047280 0.000000 0.101991
#
#
# Mechanical properties :
#
#
# Convention : Reuss Voigt Hill
#
# Bulk Modulus (GPa) = 58.88934 89.60281 74.24608
# Shear Modulus (GPa) = 20.24348 35.90284 28.07316
#
# Velocity S-wave (km/s) = 3.04841 4.05971 3.58985
# Velocity P-wave (km/s) = 6.27883 7.94401 7.15999
#
# Compressibility (1/GPa) = 0.01698100
#
# Stress axis : x y z
#
# Youngs Moduli (GPa) = 48.21303 192.47544 100.17750
#
# Poissons Ratio (x) = 0.33640 0.51739
# Poissons Ratio (y) = 0.08427 0.25610
# Poissons Ratio (z) = 0.24901 0.49206
#
# Static dielectric constant tensor:
#      x y z
#    x 1.788170 0.000000 0.028070 
#    y 0.000000 1.898450 0.000000 
#    z 0.028070 0.000000 1.758470 
# 
# From -- ./inp_files/66509.got.cif
#   From: 2010.05.17/outbox.cif.g08.bks.cpg/sg15_34_cif.got.tgz:66509.got - 2010.06.03 18:47:42.
