data_PCOD9296311
_publ_section_title
;
Structure prediction by ZEFSAII (Michael W. Deem and Ramdas Pophale) SiO2 
 PCOD9296311
Probable space group: C 2/C
;
_chemical_formula_sum "Si O2"
_cell_formula_units_Z 36
_cell_length_a 11.996221
_cell_length_b 13.807650
_cell_length_c 10.053166
_cell_angle_alpha 90.000000
_cell_angle_beta 53.694296
_cell_angle_gamma 90.000000
_cell_volume 1341.935726
_symmetry_space_group_name_H-M "C 2/C"
_symmetry_group_IT_number 15
_symmetry_cell_setting 'monoclinic'
loop_
_space_group_symop_operation_xyz
x,y,z
-x,y,1/2-z
-x,-y,-z
x,-y,1/2+z
1/2+x,1/2+y,z
1/2-x,1/2+y,1/2-z
1/2-x,1/2-y,-z
1/2+x,1/2-y,1/2+z
loop_
_atom_site_type_symbol
_atom_site_label
_atom_site_fract_x
_atom_site_fract_y
_atom_site_fract_z
Si Si1 0.693447 0.513067 0.273932
Si Si2 0.371711 0.969884 0.409993
Si Si3 0.484520 0.695329 0.105784
Si Si4 0.794721 0.795818 0.264256
Si Si5 0.500000 0.151567 0.250000
O O1 0.767597 0.492734 0.362199
O O2 0.566428 0.584930 0.383843
O O3 0.673393 0.407368 0.222229
O O4 0.792956 0.566134 0.095003
O O5 0.500000 0.913803 0.250000
O O6 0.445744 0.072468 0.394953
O O7 0.500000 0.704181 0.250000
O O8 0.363078 0.763602 0.135740
O O9 0.627917 0.713986 0.931622
O O10 0.874504 0.720145 0.300531
#
# Coordination Sequence:
#
# PCOD9296311 Si02
#       5
#     8   8   8   8   4
#     4  12  25  44  74 107 146 192 245 303 365 426
#     4  10  23  44  71 105 148 189 246 292 362 439
#     4  12  27  49  69 111 148 193 243 297 371 437
#     4  12  27  45  77 104 151 192 242 303 362 436
#     4  10  24  46  74 102 146 186 254 284 372 418
#
# _framework density 26.826919
#
# number of rings (size 3 to 8) (size 9 to 14) (size 15 to 20)
#    0.667    0.000    2.222    4.667    4.667    4.444 
#    0.000    0.000    0.000    0.000    0.000    0.000 
#    0.000    0.000    0.000    0.000    0.000    0.000 
#
# Total GULP energy -100874.998604 kJ/mol
# GULP energy per Si atom -5604.166589 kJ/mol
# Density = 2.676586 g / cm^3
# Si number density = 26.826919 Si / 1000 Ang^3
#
#
#
# Elastic Constant Matrix: (Units=GPa)
#
#
# Indices 1 2 3 4 5 6 
#
# 1 76.4666 14.9715 -17.1426 0.0000 18.4881 0.0000
# 2 14.9715 175.4661 -12.7601 0.0000 -16.8636 0.0000
# 3 -17.1426 -12.7601 117.0247 0.0000 4.0997 0.0000
# 4 0.0000 0.0000 0.0000 23.1585 0.0000 -9.6444
# 5 18.4881 -16.8636 4.0997 0.0000 24.6532 0.0000
# 6 0.0000 0.0000 0.0000 -9.6444 0.0000 35.7499
#
#
#
# Elastic Compliance Matrix: (Units=1/GPa)
#
#
# Indices 1 2 3 4 5 6 
#
# 1 0.018189 -0.002887 0.002914 0.000000 -0.016100 0.000000
# 2 -0.002887 0.006590 0.000062 0.000000 0.006663 0.000000
# 3 0.002914 0.000062 0.009107 0.000000 -0.003657 0.000000
# 4 0.000000 0.000000 0.000000 0.048646 0.000000 0.013123
# 5 -0.016100 0.006663 -0.003657 0.000000 0.057802 0.000000
# 6 0.000000 0.000000 0.000000 0.013123 0.000000 0.031513
#
#
# Mechanical properties :
#
#
# Convention : Reuss Voigt Hill
#
# Bulk Modulus (GPa) = 29.35747 37.67721 33.51734
# Shear Modulus (GPa) = 27.31880 42.30490 34.81185
#
# Velocity S-wave (km/s) = 3.19460 3.97540 3.60619
# Velocity P-wave (km/s) = 4.95725 5.92847 5.46448
#
# Compressibility (1/GPa) = 0.03406288
#
# Stress axis : x y z
#
# Youngs Moduli (GPa) = 54.97907 151.73678 109.80684
#
# Poissons Ratio (x) = 0.43812 -0.31993
# Poissons Ratio (y) = 0.15875 -0.00683
# Poissons Ratio (z) = -0.16019 -0.00944
#
# Static dielectric constant tensor:
#      x y z
#    x 2.055450 0.000000 -0.029650 
#    y 0.000000 2.163960 0.000000 
#    z -0.029650 0.000000 2.146200 
# 
# From -- ./inp_files/95489.got.cif
#   From: 2010.05.17/outbox.cif.g08.bks.cpg/sg15_48_cif.got.tgz:95489.got - 2010.06.03 18:47:42.
