data_PCOD9296764
_publ_section_title
;
Structure prediction by ZEFSAII (Michael W. Deem and Ramdas Pophale) SiO2 
 PCOD9296764
Probable space group: C 2/C
;
_chemical_formula_sum "Si O2"
_cell_formula_units_Z 40
_cell_length_a 13.842689
_cell_length_b 8.027969
_cell_length_c 20.168115
_cell_angle_alpha 90.000000
_cell_angle_beta 116.079638
_cell_angle_gamma 90.000000
_cell_volume 2013.059945
_symmetry_space_group_name_H-M "C 2/C"
_symmetry_group_IT_number 15
_symmetry_cell_setting 'monoclinic'
loop_
_space_group_symop_operation_xyz
x,y,z
-x,y,1/2-z
-x,-y,-z
x,-y,1/2+z
1/2+x,1/2+y,z
1/2-x,1/2+y,1/2-z
1/2-x,1/2-y,-z
1/2+x,1/2-y,1/2+z
loop_
_atom_site_type_symbol
_atom_site_label
_atom_site_fract_x
_atom_site_fract_y
_atom_site_fract_z
Si Si1 0.827170 0.309489 0.465137
Si Si2 0.125411 0.351561 0.277923
Si Si3 0.174622 0.899207 0.672297
Si Si4 0.242967 0.686377 0.072492
Si Si5 0.534619 0.637148 0.564395
O O1 0.750000 0.250000 0.500000
O O2 0.824044 0.201331 0.396995
O O3 0.786984 0.493240 0.435617
O O4 0.943978 0.278712 0.533855
O O5 0.150097 0.226896 0.224336
O O6 0.210723 0.503122 0.291728
O O7 0.157245 0.248726 0.353948
O O8 0.000000 0.400854 0.250000
O O9 0.074656 0.031312 0.639664
O O10 0.143157 0.779299 0.074234
O O11 0.250000 0.750000 0.000000
O O12 0.500000 0.500000 0.500000
#
# Coordination Sequence:
#
# PCOD9296764 Si02
#       5
#     8   8   8   8   8
#     4  11  22  39  66  98 132 171 221 277 337 399
#     4  11  25  44  70  95 138 183 221 284 342 400
#     4  10  23  46  61  97 136 171 231 272 338 411
#     4  11  23  41  66  97 129 173 226 270 338 400
#     4   9  20  38  63  91 128 163 210 278 322 391
#
# _framework density 19.870246999999999
#
# number of rings (size 3 to 8) (size 9 to 14) (size 15 to 20)
#    0.000    1.600    0.000    5.400    8.400    0.000 
#   18.000    1.000    0.000    0.000    0.000    0.000 
#    0.000    0.000    0.000    0.000    0.000    0.000 
#
# Total GULP energy -111484.321654 kJ/mol
# GULP energy per Si atom -5574.216083 kJ/mol
# Density = 1.982502 g / cm^3
# Si number density = 19.870247 Si / 1000 Ang^3
#
#
#
# Elastic Constant Matrix: (Units=GPa)
#
#
# Indices 1 2 3 4 5 6 
#
# 1 69.8125 7.5433 39.0421 0.0000 17.8084 0.0000
# 2 7.5433 77.7206 21.1283 0.0000 4.2341 0.0000
# 3 39.0421 21.1283 99.5394 0.0000 -6.9391 0.0000
# 4 0.0000 0.0000 0.0000 30.5034 0.0000 -5.9603
# 5 17.8084 4.2341 -6.9391 0.0000 42.3670 0.0000
# 6 0.0000 0.0000 0.0000 -5.9603 0.0000 29.5021
#
#
#
# Elastic Compliance Matrix: (Units=1/GPa)
#
#
# Indices 1 2 3 4 5 6 
#
# 1 0.022592 0.001104 -0.009878 0.000000 -0.011225 0.000000
# 2 0.001104 0.013855 -0.003543 0.000000 -0.002429 0.000000
# 3 -0.009878 -0.003543 0.015160 0.000000 0.006989 0.000000
# 4 0.000000 0.000000 0.000000 0.034131 0.000000 0.006895
# 5 -0.011225 -0.002429 0.006989 0.000000 0.029709 0.000000
# 6 0.000000 0.000000 0.000000 0.006895 0.000000 0.035289
#
#
# Mechanical properties :
#
#
# Convention : Reuss Voigt Hill
#
# Bulk Modulus (GPa) = 37.07440 42.49999 39.78719
# Shear Modulus (GPa) = 27.12063 32.43177 29.77620
#
# Velocity S-wave (km/s) = 3.69844 4.04440 3.87529
# Velocity P-wave (km/s) = 6.07756 6.57608 6.33173
#
# Compressibility (1/GPa) = 0.02697279
#
# Stress axis : x y z
#
# Youngs Moduli (GPa) = 44.26271 72.17603 65.96251
#
# Poissons Ratio (x) = -0.07969 0.65159
# Poissons Ratio (y) = -0.04887 0.23372
# Poissons Ratio (z) = 0.43724 0.25574
#
# Static dielectric constant tensor:
#      x y z
#    x 1.684780 0.000000 0.088650 
#    y 0.000000 1.794410 0.000000 
#    z 0.088650 0.000000 1.811760 
# 
# From -- ./inp_files/202326.got.cif
#   From: 2010.05.17/outbox.cif.g08.bks.cpg/sg15_102_cif.got.tgz:202326.got - 2010.06.03 18:47:42.
