data_PCOD9296968
_publ_section_title
;
Structure prediction by ZEFSAII (Michael W. Deem and Ramdas Pophale) SiO2 
 PCOD9296968
Probable space group: C 2/C
;
_chemical_formula_sum "Si O2"
_cell_formula_units_Z 44
_cell_length_a 8.942643
_cell_length_b 12.108578
_cell_length_c 20.429296
_cell_angle_alpha 90.000000
_cell_angle_beta 119.695730
_cell_angle_gamma 90.000000
_cell_volume 1921.615440
_symmetry_space_group_name_H-M "C 2/C"
_symmetry_group_IT_number 15
_symmetry_cell_setting 'monoclinic'
loop_
_space_group_symop_operation_xyz
x,y,z
-x,y,1/2-z
-x,-y,-z
x,-y,1/2+z
1/2+x,1/2+y,z
1/2-x,1/2+y,1/2-z
1/2-x,1/2-y,-z
1/2+x,1/2-y,1/2+z
loop_
_atom_site_type_symbol
_atom_site_label
_atom_site_fract_x
_atom_site_fract_y
_atom_site_fract_z
Si Si1 0.218250 0.812908 0.410948
Si Si2 0.951322 0.633100 0.373273
Si Si3 0.047155 0.618695 0.919824
Si Si4 0.577006 0.686146 0.337257
Si Si5 0.596749 0.534570 0.455186
Si Si6 0.000000 0.734484 0.250000
O O1 0.375039 0.793852 0.577446
O O2 0.421255 0.821809 0.444156
O O3 0.137537 0.807325 0.319541
O O4 0.154295 0.922822 0.431941
O O5 0.782642 0.670399 0.375141
O O6 0.983360 0.505814 0.394732
O O7 0.918283 0.659384 0.289209
O O8 0.043002 0.689775 0.853168
O O9 0.239677 0.606515 0.987360
O O10 0.500000 0.660892 0.250000
O O11 0.504930 0.607115 0.379252
O O12 0.500000 0.500000 0.500000
#
# Coordination Sequence:
#
# PCOD9296968 Si02
#       6
#     8   8   8   8   8   4
#     4  10  23  46  76 106 151 194 252 310 374 447
#     4  10  24  47  74 111 149 196 251 311 383 445
#     4  12  26  47  77 112 150 200 252 311 386 454
#     4  12  28  49  78 111 154 197 259 317 379 455
#     4  12  28  49  76 112 156 207 251 317 383 461
#     4   8  22  44  72 112 148 190 250 320 380 440
#
# _framework density 22.897400000000001
#
# number of rings (size 3 to 8) (size 9 to 14) (size 15 to 20)
#    1.091    0.000    1.818    3.273    5.091    0.727 
#    0.000    0.000    0.000    0.000    0.000    0.000 
#    0.000    0.000    0.000    0.000    0.000    0.000 
#
# Total GULP energy -123043.485718 kJ/mol
# GULP energy per Si atom -5592.885714 kJ/mol
# Density = 2.284528 g / cm^3
# Si number density = 22.897400 Si / 1000 Ang^3
#
#
#
# Elastic Constant Matrix: (Units=GPa)
#
#
# Indices 1 2 3 4 5 6 
#
# 1 138.6345 51.7354 61.2465 0.0000 -15.0377 0.0000
# 2 51.7354 116.1426 37.7632 0.0000 -7.7873 0.0000
# 3 61.2465 37.7632 120.9526 0.0000 -12.1349 0.0000
# 4 0.0000 0.0000 0.0000 46.7270 0.0000 -15.2007
# 5 -15.0377 -7.7873 -12.1349 0.0000 39.5157 0.0000
# 6 0.0000 0.0000 0.0000 -15.2007 0.0000 31.0858
#
#
#
# Elastic Compliance Matrix: (Units=1/GPa)
#
#
# Indices 1 2 3 4 5 6 
#
# 1 0.010428 -0.003179 -0.004078 0.000000 0.002089 0.000000
# 2 -0.003179 0.010591 -0.001660 0.000000 0.000368 0.000000
# 3 -0.004078 -0.001660 0.011001 0.000000 0.001499 0.000000
# 4 0.000000 0.000000 0.000000 0.025449 0.000000 0.012444
# 5 0.002089 0.000368 0.001499 0.000000 0.026634 0.000000
# 6 0.000000 0.000000 0.000000 0.012444 0.000000 0.038254
#
#
# Mechanical properties :
#
#
# Convention : Reuss Voigt Hill
#
# Bulk Modulus (GPa) = 70.49355 75.24665 72.87010
# Shear Modulus (GPa) = 34.50170 38.46468 36.48319
#
# Velocity S-wave (km/s) = 3.88596 4.10307 3.99599
# Velocity P-wave (km/s) = 7.14057 7.44183 7.29275
#
# Compressibility (1/GPa) = 0.01418570
#
# Stress axis : x y z
#
# Youngs Moduli (GPa) = 95.89708 94.42407 90.89725
#
# Poissons Ratio (x) = 0.30017 0.37069
# Poissons Ratio (y) = 0.30485 0.15088
# Poissons Ratio (z) = 0.39108 0.15674
#
# Static dielectric constant tensor:
#      x y z
#    x 1.860560 0.000000 0.014410 
#    y 0.000000 1.808010 0.000000 
#    z 0.014410 0.000000 1.925770 
# 
# From -- ./inp_files/189352.got.cif
#   From: 2010.05.17/outbox.cif.g08.bks.cpg/sg15_95_cif.got.tgz:189352.got - 2010.06.03 18:47:42.
