data_PCOD9296614
_publ_section_title
;
Structure prediction by ZEFSAII (Michael W. Deem and Ramdas Pophale) SiO2 
 PCOD9296614
Probable space group: C 2/C
;
_chemical_formula_sum "Si O2"
_cell_formula_units_Z 56
_cell_length_a 25.749626
_cell_length_b 13.101621
_cell_length_c 9.787167
_cell_angle_alpha 90.000000
_cell_angle_beta 49.725484
_cell_angle_gamma 90.000000
_cell_volume 2519.140622
_symmetry_space_group_name_H-M "C 2/C"
_symmetry_group_IT_number 15
_symmetry_cell_setting 'monoclinic'
loop_
_space_group_symop_operation_xyz
x,y,z
-x,y,1/2-z
-x,-y,-z
x,-y,1/2+z
1/2+x,1/2+y,z
1/2-x,1/2+y,1/2-z
1/2-x,1/2-y,-z
1/2+x,1/2-y,1/2+z
loop_
_atom_site_type_symbol
_atom_site_label
_atom_site_fract_x
_atom_site_fract_y
_atom_site_fract_z
Si Si1 0.452560 0.097590 0.073447
Si Si2 0.686322 0.926504 0.850808
Si Si3 0.500000 0.219535 0.250000
Si Si4 0.649420 0.286009 0.561671
Si Si5 0.500000 0.755427 0.250000
Si Si6 0.880060 0.828399 0.584308
Si Si7 0.702805 0.335028 0.021690
Si Si8 0.192881 0.956446 0.291594
O O1 0.381304 0.061411 0.125373
O O2 0.456346 0.149061 0.217946
O O3 0.484735 0.174746 0.907843
O O4 0.500000 0.000000 0.000000
O O5 0.747330 0.910691 0.640878
O O6 0.727586 0.010432 0.869755
O O7 0.673228 0.822818 0.959806
O O8 0.456297 0.292313 0.425330
O O9 0.569954 0.303272 0.658335
O O10 0.650821 0.287236 0.722625
O O11 0.689550 0.379022 0.424621
O O12 0.842998 0.784623 0.514661
O O13 0.859008 0.947746 0.612534
O O14 0.666666 0.391298 0.206385
O O15 0.750000 0.250000 0.000000
#
# Coordination Sequence:
#
# PCOD9296614 Si02
#       8
#     8   8   4   8   4   8   8   8
#     4  11  24  45  72 102 139 183 239 298 353 424
#     4  10  24  44  73  99 142 188 233 286 360 416
#     4  12  25  45  70 106 140 186 242 292 358 420
#     4  11  23  48  70 102 146 183 237 294 351 426
#     4  10  23  45  70 100 138 192 228 292 364 404
#     4  11  25  43  69 101 137 180 237 287 355 419
#     4  11  22  43  67 100 140 182 226 290 347 413
#     4  11  25  45  72 105 139 187 238 286 356 433
#
# _framework density 22.229803
#
# number of rings (size 3 to 8) (size 9 to 14) (size 15 to 20)
#    0.000    1.143    2.857    3.000    2.000    7.429 
#    5.143    2.143    0.000    0.000    0.000    0.000 
#    0.000    0.000    0.000    0.000    0.000    0.000 
#
# Total GULP energy -156177.117261 kJ/mol
# GULP energy per Si atom -5577.754188 kJ/mol
# Density = 2.217921 g / cm^3
# Si number density = 22.229803 Si / 1000 Ang^3
#
#
#
# Elastic Constant Matrix: (Units=GPa)
#
#
# Indices 1 2 3 4 5 6 
#
# 1 111.8725 47.9746 28.4986 0.0000 4.5047 0.0000
# 2 47.9746 74.9935 27.0827 0.0000 -0.2241 0.0000
# 3 28.4986 27.0827 96.3710 0.0000 17.2322 0.0000
# 4 0.0000 0.0000 0.0000 28.5485 0.0000 -3.6304
# 5 4.5047 -0.2241 17.2322 0.0000 44.3239 0.0000
# 6 0.0000 0.0000 0.0000 -3.6304 0.0000 24.7470
#
#
#
# Elastic Compliance Matrix: (Units=1/GPa)
#
#
# Indices 1 2 3 4 5 6 
#
# 1 0.012563 -0.007507 -0.001473 0.000000 -0.000742 0.000000
# 2 -0.007507 0.019465 -0.003659 0.000000 0.002284 0.000000
# 3 -0.001473 -0.003659 0.012700 0.000000 -0.004806 0.000000
# 4 0.000000 0.000000 0.000000 0.035694 0.000000 0.005236
# 5 -0.000742 0.002284 -0.004806 0.000000 0.024517 0.000000
# 6 0.000000 0.000000 0.000000 0.005236 0.000000 0.041177
#
#
# Mechanical properties :
#
#
# Convention : Reuss Voigt Hill
#
# Bulk Modulus (GPa) = 51.41153 54.48321 52.94737
# Shear Modulus (GPa) = 28.10944 31.50261 29.80603
#
# Velocity S-wave (km/s) = 3.55983 3.76857 3.66569
# Velocity P-wave (km/s) = 6.33040 6.59533 6.46423
#
# Compressibility (1/GPa) = 0.01945089
#
# Stress axis : x y z
#
# Youngs Moduli (GPa) = 79.59797 51.37416 78.74264
#
# Poissons Ratio (x) = 0.38568 0.11596
# Poissons Ratio (y) = 0.59756 0.28808
# Poissons Ratio (z) = 0.11722 0.18795
#
# Static dielectric constant tensor:
#      x y z
#    x 1.805770 0.000000 -0.010820 
#    y 0.000000 3.045260 0.000000 
#    z -0.010820 0.000000 1.833280 
# 
# From -- ./inp_files/61844.got.cif
#   From: 2010.05.17/outbox.cif.g08.bks.cpg/sg15_31_cif.got.tgz:61844.got - 2010.06.03 18:47:42.
