data_PCOD9296239
_publ_section_title
;
Structure prediction by ZEFSAII (Michael W. Deem and Ramdas Pophale) SiO2 
 PCOD9296239
Probable space group: C 2/C
;
_chemical_formula_sum "Si O2"
_cell_formula_units_Z 32
_cell_length_a 18.553512
_cell_length_b 5.106829
_cell_length_c 13.561636
_cell_angle_alpha 90.000000
_cell_angle_beta 104.406525
_cell_angle_gamma 90.000000
_cell_volume 1244.553991
_symmetry_space_group_name_H-M "C 2/C"
_symmetry_group_IT_number 15
_symmetry_cell_setting 'monoclinic'
loop_
_space_group_symop_operation_xyz
x,y,z
-x,y,1/2-z
-x,-y,-z
x,-y,1/2+z
1/2+x,1/2+y,z
1/2-x,1/2+y,1/2-z
1/2-x,1/2-y,-z
1/2+x,1/2-y,1/2+z
loop_
_atom_site_type_symbol
_atom_site_label
_atom_site_fract_x
_atom_site_fract_y
_atom_site_fract_z
Si Si1 0.078254 0.444482 0.293090
Si Si2 0.541765 0.255554 0.975373
Si Si3 0.312851 0.963167 0.000265
Si Si4 0.706380 0.762686 0.197884
O O1 0.047749 0.226418 0.359178
O O2 0.140805 0.565341 0.388596
O O3 0.125938 0.330994 0.219204
O O4 0.000000 0.596253 0.250000
O O5 0.500000 0.500000 0.000000
O O6 0.625901 0.212464 0.037631
O O7 0.500000 0.000000 0.000000
O O8 0.293963 0.195421 0.919658
O O9 0.250000 0.750000 0.000000
O O10 0.763444 0.983634 0.257655
#
# Coordination Sequence:
#
# PCOD9296239 Si02
#       4
#     8   8   8   8
#     4  10  24  46  73 109 145 194 244 299 368 435
#     4  10  23  44  70 100 142 185 232 293 359 419
#     4  10  23  48  71 112 144 194 241 309 359 435
#     4  12  26  47  75 108 146 193 247 301 366 435
#
# _framework density 25.712024
#
# number of rings (size 3 to 8) (size 9 to 14) (size 15 to 20)
#    1.500    0.000    2.500    1.500    0.000    9.000 
#    0.000    2.500    0.000    0.000    0.000    0.000 
#    0.000    0.000    0.000    0.000    0.000    0.000 
#
# Total GULP energy -89389.228322 kJ/mol
# GULP energy per Si atom -5586.826770 kJ/mol
# Density = 2.565350 g / cm^3
# Si number density = 25.712024 Si / 1000 Ang^3
#
#
#
# Elastic Constant Matrix: (Units=GPa)
#
#
# Indices 1 2 3 4 5 6 
#
# 1 211.6508 39.8989 26.0054 0.0000 -9.1230 0.0000
# 2 39.8989 111.9593 10.0348 0.0000 1.0990 0.0000
# 3 26.0054 10.0348 125.0721 0.0000 -1.0620 0.0000
# 4 0.0000 0.0000 0.0000 27.5056 0.0000 -1.6075
# 5 -9.1230 1.0990 -1.0620 0.0000 57.3325 0.0000
# 6 0.0000 0.0000 0.0000 -1.6075 0.0000 27.1344
#
#
#
# Elastic Compliance Matrix: (Units=1/GPa)
#
#
# Indices 1 2 3 4 5 6 
#
# 1 0.005212 -0.001782 -0.000934 0.000000 0.000846 0.000000
# 2 -0.001782 0.009608 -0.000404 0.000000 -0.000475 0.000000
# 3 -0.000934 -0.000404 0.008222 0.000000 0.000012 0.000000
# 4 0.000000 0.000000 0.000000 0.036483 0.000000 0.002161
# 5 0.000846 -0.000475 0.000012 0.000000 0.017586 0.000000
# 6 0.000000 0.000000 0.000000 0.002161 0.000000 0.036982
#
#
# Mechanical properties :
#
#
# Convention : Reuss Voigt Hill
#
# Bulk Modulus (GPa) = 59.51697 66.72893 63.12295
# Shear Modulus (GPa) = 39.70388 47.24406 43.47397
#
# Velocity S-wave (km/s) = 3.93386 4.29118 4.11640
# Velocity P-wave (km/s) = 6.62053 7.11063 6.86995
#
# Compressibility (1/GPa) = 0.01680193
#
# Stress axis : x y z
#
# Youngs Moduli (GPa) = 191.86991 104.08245 121.62454
#
# Poissons Ratio (x) = 0.18547 0.11354
# Poissons Ratio (y) = 0.34191 0.04918
# Poissons Ratio (z) = 0.17911 0.04209
#
# Static dielectric constant tensor:
#      x y z
#    x 2.140050 0.000000 0.080220 
#    y 0.000000 1.975340 0.000000 
#    z 0.080220 0.000000 2.179310 
# 
# From -- ./inp_files/158024.got.cif
#   From: 2010.05.17/outbox.cif.g08.bks.cpg/sg15_80_cif.got.tgz:158024.got - 2010.06.03 18:47:42.
