data_PCOD9296246
_publ_section_title
;
Structure prediction by ZEFSAII (Michael W. Deem and Ramdas Pophale) SiO2 
 PCOD9296246
Probable space group: C 2/C
;
_chemical_formula_sum "Si O2"
_cell_formula_units_Z 40
_cell_length_a 15.711128
_cell_length_b 21.309477
_cell_length_c 5.036927
_cell_angle_alpha 90.000000
_cell_angle_beta 94.482645
_cell_angle_gamma 90.000000
_cell_volume 1681.184181
_symmetry_space_group_name_H-M "C 2/C"
_symmetry_group_IT_number 15
_symmetry_cell_setting 'monoclinic'
loop_
_space_group_symop_operation_xyz
x,y,z
-x,y,1/2-z
-x,-y,-z
x,-y,1/2+z
1/2+x,1/2+y,z
1/2-x,1/2+y,1/2-z
1/2-x,1/2-y,-z
1/2+x,1/2-y,1/2+z
loop_
_atom_site_type_symbol
_atom_site_label
_atom_site_fract_x
_atom_site_fract_y
_atom_site_fract_z
Si Si1 0.717924 0.857441 0.523638
Si Si2 0.000000 0.909401 0.750000
Si Si3 0.598419 0.042746 0.727686
Si Si4 0.000000 0.174238 0.750000
Si Si5 0.818528 0.039520 0.360762
Si Si6 0.171769 0.236862 0.783764
O O1 0.660560 0.901464 0.325124
O O2 0.764544 0.900848 0.752826
O O3 0.791090 0.818296 0.391801
O O4 0.659622 0.802661 0.631560
O O5 0.081541 0.946945 0.662948
O O6 0.972258 0.867965 0.491806
O O7 0.500000 0.062279 0.750000
O O8 0.610713 0.015336 0.436497
O O9 0.081295 0.213855 0.868910
O O10 0.800305 0.017337 0.652795
O O11 0.250000 0.250000 0.000000
#
# Coordination Sequence:
#
# PCOD9296246 Si02
#       6
#     8   4   8   4   8   8
#     4  11  25  45  68 104 136 183 235 291 347 425
#     4  12  24  47  70 102 146 181 236 282 348 426
#     4  10  23  44  70 102 139 178 228 288 352 418
#     4  12  26  49  74 102 146 189 232 308 348 418
#     4  12  25  42  71 103 139 184 230 283 350 418
#     4  11  27  46  73 102 140 188 244 290 357 421
#
# _framework density 23.792750999999999
#
# number of rings (size 3 to 8) (size 9 to 14) (size 15 to 20)
#    0.000    0.800    2.000    4.200    8.400    1.600 
#    1.800    0.000    0.000    0.000    0.000    0.000 
#    0.000    0.000    0.000    0.000    0.000    0.000 
#
# Total GULP energy -112123.170545 kJ/mol
# GULP energy per Si atom -5606.158527 kJ/mol
# Density = 2.373860 g / cm^3
# Si number density = 23.792751 Si / 1000 Ang^3
#
#
#
# Elastic Constant Matrix: (Units=GPa)
#
#
# Indices 1 2 3 4 5 6 
#
# 1 85.9658 41.0977 3.8685 0.0000 16.1644 0.0000
# 2 41.0977 118.8016 20.8716 0.0000 7.9468 0.0000
# 3 3.8685 20.8716 81.2411 0.0000 5.0515 0.0000
# 4 0.0000 0.0000 0.0000 25.9551 0.0000 19.9709
# 5 16.1644 7.9468 5.0515 0.0000 34.5952 0.0000
# 6 0.0000 0.0000 0.0000 19.9709 0.0000 -44.5508
#
#
#
# Elastic Compliance Matrix: (Units=1/GPa)
#
#
# Indices 1 2 3 4 5 6 
#
# 1 0.015113 -0.004988 0.000938 0.000000 -0.006053 0.000000
# 2 -0.004988 0.010563 -0.002493 0.000000 0.000268 0.000000
# 3 0.000938 -0.002493 0.013015 0.000000 -0.001766 0.000000
# 4 0.000000 0.000000 0.000000 0.028647 0.000000 0.012842
# 5 -0.006053 0.000268 -0.001766 0.000000 0.031930 0.000000
# 6 0.000000 0.000000 0.000000 0.012842 0.000000 -0.016690
#
#
# Mechanical properties :
#
#
# Convention : Reuss Voigt Hill
#
# Bulk Modulus (GPa) = 39.05473 46.40934 42.73203
# Shear Modulus (GPa) = 47.98519 17.87794 32.93157
#
# Velocity S-wave (km/s) = 4.49575 2.74415 3.72439
# Velocity P-wave (km/s) = 6.58781 5.43953 6.04101
#
# Compressibility (1/GPa) = 0.02560509
#
# Stress axis : x y z
#
# Youngs Moduli (GPa) = 66.16783 94.67028 76.83663
#
# Poissons Ratio (x) = 0.47223 -0.07209
# Poissons Ratio (y) = 0.33005 0.19154
# Poissons Ratio (z) = -0.06208 0.23600
#
# Static dielectric constant tensor:
#      x y z
#    x 1.887610 0.000000 0.003860 
#    y 0.000000 1.890140 0.000000 
#    z 0.003860 0.000000 1.900830 
# 
# From -- ./inp_files/9878.got.cif
#   From: 2010.05.17/outbox.cif.g08.bks.cpg/sg15_5_cif.got.tgz:9878.got - 2010.06.03 18:47:42.
