data_PCOD9296593
_publ_section_title
;
Structure prediction by ZEFSAII (Michael W. Deem and Ramdas Pophale) SiO2 
 PCOD9296593
Probable space group: C 2/C
;
_chemical_formula_sum "Si O2"
_cell_formula_units_Z 36
_cell_length_a 10.250098
_cell_length_b 23.277158
_cell_length_c 8.278512
_cell_angle_alpha 90.000000
_cell_angle_beta 48.185346
_cell_angle_gamma 90.000000
_cell_volume 1472.124642
_symmetry_space_group_name_H-M "C 2/C"
_symmetry_group_IT_number 15
_symmetry_cell_setting 'monoclinic'
loop_
_space_group_symop_operation_xyz
x,y,z
-x,y,1/2-z
-x,-y,-z
x,-y,1/2+z
1/2+x,1/2+y,z
1/2-x,1/2+y,1/2-z
1/2-x,1/2-y,-z
1/2+x,1/2-y,1/2+z
loop_
_atom_site_type_symbol
_atom_site_label
_atom_site_fract_x
_atom_site_fract_y
_atom_site_fract_z
Si Si1 0.710982 0.580351 0.065929
Si Si2 0.827210 0.700921 0.050506
Si Si3 0.457371 0.712581 0.962428
Si Si4 0.806973 0.532980 0.337164
Si Si5 0.000000 0.105546 0.750000
O O1 0.500000 0.587716 0.250000
O O2 0.805364 0.641511 0.976929
O O3 0.782180 0.552852 0.174157
O O4 0.760595 0.534392 0.889492
O O5 0.721183 0.692739 0.306535
O O6 0.001517 0.732422 0.961581
O O7 0.750000 0.750000 0.000000
O O8 0.500000 0.736464 0.750000
O O9 0.550830 0.650296 0.853955
O O10 0.660742 0.567157 0.560791
O O11 0.000000 0.543145 0.250000
#
# Coordination Sequence:
#
# PCOD9296593 Si02
#       5
#     8   8   8   8   4
#     4  12  26  48  73 107 157 202 249 313 391 453
#     4  12  25  42  71 108 148 195 252 314 380 448
#     4  10  23  45  69 105 146 204 249 305 381 458
#     4  12  27  48  79 115 148 200 262 317 377 458
#     4  10  24  48  80 106 156 202 254 314 388 452
#
# _framework density 24.454450000000001
#
# number of rings (size 3 to 8) (size 9 to 14) (size 15 to 20)
#    0.667    0.000    3.333    4.000    0.000    4.444 
#    0.000    0.000    0.000    0.000    0.000    0.000 
#    0.000    0.000    0.000    0.000    0.000    0.000 
#
# Total GULP energy -100383.561536 kJ/mol
# GULP energy per Si atom -5576.864530 kJ/mol
# Density = 2.439879 g / cm^3
# Si number density = 24.454450 Si / 1000 Ang^3
#
#
#
# Elastic Constant Matrix: (Units=GPa)
#
#
# Indices 1 2 3 4 5 6 
#
# 1 66.3009 44.4520 8.1288 0.0000 -0.2437 0.0000
# 2 44.4520 232.1011 24.8380 0.0000 1.6425 0.0000
# 3 8.1288 24.8380 99.8775 0.0000 0.8035 0.0000
# 4 0.0000 0.0000 0.0000 50.9812 0.0000 30.2349
# 5 -0.2437 1.6425 0.8035 0.0000 28.9095 0.0000
# 6 0.0000 0.0000 0.0000 30.2349 0.0000 71.4126
#
#
#
# Elastic Compliance Matrix: (Units=1/GPa)
#
#
# Indices 1 2 3 4 5 6 
#
# 1 0.017343 -0.003259 -0.000604 0.000000 0.000348 0.000000
# 2 -0.003259 0.005040 -0.000986 0.000000 -0.000286 0.000000
# 3 -0.000604 -0.000986 0.010308 0.000000 -0.000236 0.000000
# 4 0.000000 0.000000 0.000000 0.026192 0.000000 -0.011089
# 5 0.000348 -0.000286 -0.000236 0.000000 0.034617 0.000000
# 6 0.000000 0.000000 0.000000 -0.011089 0.000000 0.018698
#
#
# Mechanical properties :
#
#
# Convention : Reuss Voigt Hill
#
# Bulk Modulus (GPa) = 43.48970 61.45747 52.47358
# Shear Modulus (GPa) = 38.59186 51.65136 45.12161
#
# Velocity S-wave (km/s) = 3.97686 4.60079 4.30016
# Velocity P-wave (km/s) = 6.23777 7.30815 6.79407
#
# Compressibility (1/GPa) = 0.02299395
#
# Stress axis : x y z
#
# Youngs Moduli (GPa) = 57.65886 198.40308 97.00770
#
# Poissons Ratio (x) = 0.64669 0.05857
# Poissons Ratio (y) = 0.18794 0.09563
# Poissons Ratio (z) = 0.03481 0.19559
#
# Static dielectric constant tensor:
#      x y z
#    x 1.979390 0.000000 0.000270 
#    y 0.000000 1.893040 0.000000 
#    z 0.000270 0.000000 1.938560 
# 
# From -- ./inp_files/31676.got.cif
#   From: 2010.05.17/outbox.cif.g08.bks.cpg/sg15_16_cif.got.tgz:31676.got - 2010.06.03 18:47:42.
