data_PCOD9296534
_publ_section_title
;
Structure prediction by ZEFSAII (Michael W. Deem and Ramdas Pophale) SiO2 
 PCOD9296534
Probable space group: C 2/C
;
_chemical_formula_sum "Si O2"
_cell_formula_units_Z 56
_cell_length_a 9.036761
_cell_length_b 11.553818
_cell_length_c 24.781651
_cell_angle_alpha 90.000000
_cell_angle_beta 114.988307
_cell_angle_gamma 90.000000
_cell_volume 2345.230778
_symmetry_space_group_name_H-M "C 2/C"
_symmetry_group_IT_number 15
_symmetry_cell_setting 'monoclinic'
loop_
_space_group_symop_operation_xyz
x,y,z
-x,y,1/2-z
-x,-y,-z
x,-y,1/2+z
1/2+x,1/2+y,z
1/2-x,1/2+y,1/2-z
1/2-x,1/2-y,-z
1/2+x,1/2-y,1/2+z
loop_
_atom_site_type_symbol
_atom_site_label
_atom_site_fract_x
_atom_site_fract_y
_atom_site_fract_z
Si Si1 0.142830 0.187545 0.591321
Si Si2 0.886828 0.014255 0.058985
Si Si3 0.635359 0.509348 0.815465
Si Si4 0.382692 0.155420 0.000399
Si Si5 0.601175 0.837705 0.680567
Si Si6 0.968609 0.737774 0.583123
Si Si7 0.796197 0.279588 0.684114
O O1 0.154119 0.222375 0.656128
O O2 0.318512 0.181577 0.591006
O O3 0.032057 0.074284 0.565726
O O4 0.045558 0.302784 0.555530
O O5 0.892215 0.013747 0.125314
O O6 0.716168 0.963460 0.010535
O O7 0.907444 0.145789 0.043910
O O8 0.500000 0.469692 0.750000
O O9 0.805676 0.446960 0.828512
O O10 0.650608 0.646407 0.810864
O O11 0.432015 0.165363 0.945408
O O12 0.250000 0.250000 0.000000
O O13 0.404320 0.842811 0.654682
O O14 0.659607 0.827099 0.750965
O O15 0.105556 0.782839 0.645064
#
# Coordination Sequence:
#
# PCOD9296534 Si02
#       7
#     8   8   8   8   8   8   8
#     4  11  23  41  66 101 135 173 229 281 325 401
#     4  11  23  44  68  96 133 180 221 275 341 392
#     4  12  21  42  71  95 132 178 217 276 340 394
#     4  10  23  45  67  94 140 178 222 280 335 393
#     4  11  23  41  68 100 128 181 219 267 342 398
#     4  12  24  42  69 101 131 176 227 279 333 401
#     4  11  23  44  68  96 143 170 221 282 331 405
#
# _framework density 23.878249
#
# number of rings (size 3 to 8) (size 9 to 14) (size 15 to 20)
#    0.000    0.857    5.714    2.143    0.000    4.000 
#    0.000    1.429    0.000    0.000    0.000    0.000 
#    0.000    0.000    0.000    0.000    0.000    0.000 
#
# Total GULP energy -156671.246919 kJ/mol
# GULP energy per Si atom -5595.401676 kJ/mol
# Density = 2.382390 g / cm^3
# Si number density = 23.878249 Si / 1000 Ang^3
#
#
#
# Elastic Constant Matrix: (Units=GPa)
#
#
# Indices 1 2 3 4 5 6 
#
# 1 178.3487 34.6091 34.9294 0.0000 4.7025 0.0000
# 2 34.6091 61.3325 -12.7217 0.0000 6.5084 0.0000
# 3 34.9294 -12.7217 57.2227 0.0000 0.8063 0.0000
# 4 0.0000 0.0000 0.0000 31.2309 0.0000 5.1742
# 5 4.7025 6.5084 0.8063 0.0000 37.5354 0.0000
# 6 0.0000 0.0000 0.0000 5.1742 0.0000 40.2034
#
#
#
# Elastic Compliance Matrix: (Units=1/GPa)
#
#
# Indices 1 2 3 4 5 6 
#
# 1 0.007916 -0.005749 -0.006112 0.000000 0.000136 0.000000
# 2 -0.005749 0.021624 0.008362 0.000000 -0.003209 0.000000
# 3 -0.006112 0.008362 0.023082 0.000000 -0.001180 0.000000
# 4 0.000000 0.000000 0.000000 0.032717 0.000000 -0.004211
# 5 0.000136 -0.003209 -0.001180 0.000000 0.027206 0.000000
# 6 0.000000 0.000000 0.000000 -0.004211 0.000000 0.025415
#
#
# Mechanical properties :
#
#
# Convention : Reuss Voigt Hill
#
# Bulk Modulus (GPa) = 21.91868 45.61526 33.76697
# Shear Modulus (GPa) = 31.21734 37.79975 34.50854
#
# Velocity S-wave (km/s) = 3.61966 3.98303 3.80569
# Velocity P-wave (km/s) = 5.16416 6.34803 5.78645
#
# Compressibility (1/GPa) = 0.04562319
#
# Stress axis : x y z
#
# Youngs Moduli (GPa) = 126.32462 46.24545 43.32350
#
# Poissons Ratio (x) = 0.26588 0.26480
# Poissons Ratio (y) = 0.72627 -0.36227
# Poissons Ratio (z) = 0.77212 -0.38670
#
# Static dielectric constant tensor:
#      x y z
#    x 1.917730 0.000000 0.004990 
#    y 0.000000 1.891940 0.000000 
#    z 0.004990 0.000000 1.991540 
# 
# From -- ./inp_files/307403.got.cif
#   From: 2010.05.17/outbox.cif.g08.bks.cpg/sg15_154_cif.got.tgz:307403.got - 2010.06.03 18:47:42.
