data_PCOD9296700
_publ_section_title
;
Structure prediction by ZEFSAII (Michael W. Deem and Ramdas Pophale) SiO2 
 PCOD9296700
Probable space group: C 2/C
;
_chemical_formula_sum "Si O2"
_cell_formula_units_Z 44
_cell_length_a 14.212708
_cell_length_b 25.269336
_cell_length_c 5.430520
_cell_angle_alpha 90.000000
_cell_angle_beta 104.940285
_cell_angle_gamma 90.000000
_cell_volume 1884.416459
_symmetry_space_group_name_H-M "C 2/C"
_symmetry_group_IT_number 15
_symmetry_cell_setting 'monoclinic'
loop_
_space_group_symop_operation_xyz
x,y,z
-x,y,1/2-z
-x,-y,-z
x,-y,1/2+z
1/2+x,1/2+y,z
1/2-x,1/2+y,1/2-z
1/2-x,1/2-y,-z
1/2+x,1/2-y,1/2+z
loop_
_atom_site_type_symbol
_atom_site_label
_atom_site_fract_x
_atom_site_fract_y
_atom_site_fract_z
Si Si1 0.693462 0.266981 0.711263
Si Si2 0.401442 0.835697 0.331561
Si Si3 0.000000 0.404221 0.750000
Si Si4 0.786426 0.120280 0.085434
Si Si5 0.149104 0.530749 0.100897
Si Si6 0.610270 0.476739 0.049366
O O1 0.750000 0.250000 0.500000
O O2 0.602752 0.227405 0.643841
O O3 0.676305 0.329578 0.732688
O O4 0.750000 0.250000 0.000000
O O5 0.500000 0.847745 0.250000
O O6 0.416581 0.865814 0.595927
O O7 0.300897 0.856917 0.146708
O O8 0.955052 0.441959 0.924237
O O9 0.728822 0.076257 0.199905
O O10 0.869160 0.084861 0.002705
O O11 0.156957 0.488157 0.324881
O O12 0.651709 0.490329 0.345302
O O13 0.500000 0.500000 0.000000
#
# Coordination Sequence:
#
# PCOD9296700 Si02
#       6
#     8   8   4   8   8   8
#     4  10  24  44  70 101 135 184 240 292 357 434
#     4  11  24  45  70 103 146 185 238 297 364 439
#     4  12  24  42  68 100 150 190 234 290 360 428
#     4  11  23  46  72 103 144 194 236 297 375 426
#     4  12  25  39  63  99 140 186 232 280 341 427
#     4  10  23  45  73 103 144 189 248 304 356 429
#
# _framework density 23.349404
#
# number of rings (size 3 to 8) (size 9 to 14) (size 15 to 20)
#    0.000    1.091    1.818    3.818    2.545    5.818 
#    3.273    0.000    0.000    0.000    0.000    0.000 
#    0.000    0.000    0.000    0.000    0.000    0.000 
#
# Total GULP energy -122748.213586 kJ/mol
# GULP energy per Si atom -5579.464254 kJ/mol
# Density = 2.329626 g / cm^3
# Si number density = 23.349404 Si / 1000 Ang^3
#
#
#
# Elastic Constant Matrix: (Units=GPa)
#
#
# Indices 1 2 3 4 5 6 
#
# 1 89.0347 56.3334 27.2581 0.0000 -9.5761 0.0000
# 2 56.3334 206.2960 52.9311 0.0000 -9.8156 0.0000
# 3 27.2581 52.9311 124.0298 0.0000 -18.3936 0.0000
# 4 0.0000 0.0000 0.0000 40.1838 0.0000 -0.2257
# 5 -9.5761 -9.8156 -18.3936 0.0000 41.8725 0.0000
# 6 0.0000 0.0000 0.0000 -0.2257 0.0000 53.0613
#
#
#
# Elastic Compliance Matrix: (Units=1/GPa)
#
#
# Indices 1 2 3 4 5 6 
#
# 1 0.013983 -0.003383 -0.001361 0.000000 0.001807 0.000000
# 2 -0.003383 0.006265 -0.001954 0.000000 -0.000164 0.000000
# 3 -0.001361 -0.001954 0.009715 0.000000 0.003498 0.000000
# 4 0.000000 0.000000 0.000000 0.024886 0.000000 0.000106
# 5 0.001807 -0.000164 0.003498 0.000000 0.025793 0.000000
# 6 0.000000 0.000000 0.000000 0.000106 0.000000 0.018847
#
#
# Mechanical properties :
#
#
# Convention : Reuss Voigt Hill
#
# Bulk Modulus (GPa) = 60.36840 76.93396 68.65118
# Shear Modulus (GPa) = 42.22675 45.87938 44.05307
#
# Velocity S-wave (km/s) = 4.25723 4.43753 4.34832
# Velocity P-wave (km/s) = 7.07643 7.69910 7.39432
#
# Compressibility (1/GPa) = 0.01656496
#
# Stress axis : x y z
#
# Youngs Moduli (GPa) = 71.51408 159.61924 102.93835
#
# Poissons Ratio (x) = 0.54002 0.14014
# Poissons Ratio (y) = 0.24194 0.20118
# Poissons Ratio (z) = 0.09736 0.31195
#
# Static dielectric constant tensor:
#      x y z
#    x 5.178360 0.000000 1.539900 
#    y 0.000000 1.936170 0.000000 
#    z 1.539900 0.000000 2.586090 
# 
# From -- ./inp_files/7627.got.cif
#   From: 2010.05.17/outbox.cif.g08.bks.cpg/sg15_4_cif.got.tgz:7627.got - 2010.06.03 18:47:42.
