data_PCOD9296822
_publ_section_title
;
Structure prediction by ZEFSAII (Michael W. Deem and Ramdas Pophale) SiO2 
 PCOD9296822
Probable space group: C 2/C
;
_chemical_formula_sum "Si O2"
_cell_formula_units_Z 56
_cell_length_a 14.743693
_cell_length_b 19.899697
_cell_length_c 8.914197
_cell_angle_alpha 90.000000
_cell_angle_beta 62.789005
_cell_angle_gamma 90.000000
_cell_volume 2325.933262
_symmetry_space_group_name_H-M "C 2/C"
_symmetry_group_IT_number 15
_symmetry_cell_setting 'monoclinic'
loop_
_space_group_symop_operation_xyz
x,y,z
-x,y,1/2-z
-x,-y,-z
x,-y,1/2+z
1/2+x,1/2+y,z
1/2-x,1/2+y,1/2-z
1/2-x,1/2-y,-z
1/2+x,1/2-y,1/2+z
loop_
_atom_site_type_symbol
_atom_site_label
_atom_site_fract_x
_atom_site_fract_y
_atom_site_fract_z
Si Si1 0.500000 0.697873 0.750000
Si Si2 0.199333 0.383016 0.948168
Si Si3 0.510587 0.927109 0.918091
Si Si4 0.892166 0.047954 0.170122
Si Si5 0.315760 0.875194 0.202641
Si Si6 0.144169 0.926280 0.130177
Si Si7 0.000000 0.843212 0.750000
Si Si8 0.142279 0.233429 0.916496
O O1 0.408898 0.645583 0.859690
O O2 0.555001 0.736274 0.848715
O O3 0.305233 0.419250 0.839210
O O4 0.192352 0.303316 0.927187
O O5 0.122766 0.407164 0.880171
O O6 0.167435 0.400834 0.141162
O O7 0.500000 0.930540 0.750000
O O8 0.428155 0.873911 0.046966
O O9 0.500000 0.000000 0.000000
O O10 0.977009 0.104495 0.131773
O O11 0.919003 0.974722 0.211011
O O12 0.849925 0.041306 0.036353
O O13 0.251182 0.919776 0.134622
O O14 0.236528 0.813169 0.287783
O O15 0.085512 0.796949 0.606632
#
# Coordination Sequence:
#
# PCOD9296822 Si02
#       8
#     4   8   8   8   8   8   4   8
#     4  10  23  46  68 104 145 192 236 294 368 422
#     4  12  26  45  74 106 143 193 241 301 366 431
#     4  12  27  49  75 105 141 190 248 303 366 428
#     4  12  25  42  70 107 143 192 238 297 365 433
#     4  11  24  47  71 105 143 189 237 300 359 424
#     4  11  24  43  70 102 149 184 240 299 362 438
#     4  12  25  44  72 106 147 188 248 284 370 442
#     4  11  26  46  74 108 149 189 241 300 357 449
#
# _framework density 24.076357000000002
#
# number of rings (size 3 to 8) (size 9 to 14) (size 15 to 20)
#    0.000    0.571    2.857    4.714    5.000    1.143 
#    0.000    2.143    0.000    0.000    0.000    0.000 
#    0.000    0.000    0.000    0.000    0.000    0.000 
#
# Total GULP energy -156475.686806 kJ/mol
# GULP energy per Si atom -5588.417386 kJ/mol
# Density = 2.402156 g / cm^3
# Si number density = 24.076357 Si / 1000 Ang^3
#
#
#
# Elastic Constant Matrix: (Units=GPa)
#
#
# Indices 1 2 3 4 5 6 
#
# 1 114.3721 16.3701 22.9472 0.0000 31.2043 0.0000
# 2 16.3701 78.4872 31.5495 0.0000 -0.7910 0.0000
# 3 22.9472 31.5495 122.2626 0.0000 30.2531 0.0000
# 4 0.0000 0.0000 0.0000 16.6929 0.0000 2.8988
# 5 31.2043 -0.7910 30.2531 0.0000 64.1870 0.0000
# 6 0.0000 0.0000 0.0000 2.8988 0.0000 25.4883
#
#
#
# Elastic Compliance Matrix: (Units=1/GPa)
#
#
# Indices 1 2 3 4 5 6 
#
# 1 0.010460 -0.002169 -0.000157 0.000000 -0.005038 0.000000
# 2 -0.002169 0.014934 -0.004248 0.000000 0.003241 0.000000
# 3 -0.000157 -0.004248 0.010527 0.000000 -0.004938 0.000000
# 4 0.000000 0.000000 0.000000 0.061113 0.000000 -0.006950
# 5 -0.005038 0.003241 -0.004938 0.000000 0.020396 0.000000
# 6 0.000000 0.000000 0.000000 -0.006950 0.000000 0.040024
#
#
# Mechanical properties :
#
#
# Convention : Reuss Voigt Hill
#
# Bulk Modulus (GPa) = 43.91538 50.76171 47.33854
# Shear Modulus (GPa) = 28.05954 37.55730 32.80842
#
# Velocity S-wave (km/s) = 3.41756 3.95387 3.69546
# Velocity P-wave (km/s) = 5.81830 6.47870 6.15736
#
# Compressibility (1/GPa) = 0.02277107
#
# Stress axis : x y z
#
# Youngs Moduli (GPa) = 95.60383 66.96210 94.99714
#
# Poissons Ratio (x) = 0.14526 0.01490
# Poissons Ratio (y) = 0.20740 0.40359
# Poissons Ratio (z) = 0.01499 0.28449
#
# Static dielectric constant tensor:
#      x y z
#    x 1.096910 0.000000 0.279600 
#    y 0.000000 2.011690 0.000000 
#    z 0.279600 0.000000 1.811970 
# 
# From -- ./inp_files/42560.got.cif
#   From: 2010.05.17/outbox.cif.g08.bks.cpg/sg15_22_cif.got.tgz:42560.got - 2010.06.03 18:47:42.
