data_PCOD9296806
_publ_section_title
;
Structure prediction by ZEFSAII (Michael W. Deem and Ramdas Pophale) SiO2 
 PCOD9296806
Probable space group: C 2/C
;
_chemical_formula_sum "Si O2"
_cell_formula_units_Z 64
_cell_length_a 8.221256
_cell_length_b 14.671152
_cell_length_c 26.088766
_cell_angle_alpha 90.000000
_cell_angle_beta 111.914055
_cell_angle_gamma 90.000000
_cell_volume 2919.338279
_symmetry_space_group_name_H-M "C 2/C"
_symmetry_group_IT_number 15
_symmetry_cell_setting 'monoclinic'
loop_
_space_group_symop_operation_xyz
x,y,z
-x,y,1/2-z
-x,-y,-z
x,-y,1/2+z
1/2+x,1/2+y,z
1/2-x,1/2+y,1/2-z
1/2-x,1/2-y,-z
1/2+x,1/2-y,1/2+z
loop_
_atom_site_type_symbol
_atom_site_label
_atom_site_fract_x
_atom_site_fract_y
_atom_site_fract_z
Si Si1 0.360581 0.721916 0.938178
Si Si2 0.786213 0.451685 0.360857
Si Si3 0.483773 0.074305 0.453670
Si Si4 0.677966 0.669626 0.029135
Si Si5 0.195798 0.979938 0.746324
Si Si6 0.048566 0.724947 0.607884
Si Si7 0.096647 0.135950 0.669707
Si Si8 0.677678 0.268846 0.736883
O O1 0.431334 0.822455 0.960593
O O2 0.156555 0.735114 0.922962
O O3 0.380729 0.686447 0.881811
O O4 0.481624 0.652502 0.984969
O O5 0.810679 0.473911 0.304099
O O6 0.602562 0.399608 0.348161
O O7 0.829232 0.542818 0.396803
O O8 0.922799 0.380921 0.399185
O O9 0.680595 0.089015 0.454471
O O10 0.500000 0.000000 0.500000
O O11 0.656915 0.712143 0.082467
O O12 0.750000 0.750000 0.000000
O O13 0.198901 0.041882 0.695914
O O14 0.000000 0.982474 0.750000
O O15 0.235254 0.874424 0.743162
O O16 0.119362 0.741755 0.673234
O O17 0.170187 0.206004 0.721120
O O18 0.500000 0.260350 0.750000
#
# Coordination Sequence:
#
# PCOD9296806 Si02
#       8
#     8   8   8   8   8   8   8   8
#     4  11  23  42  72  97 140 179 229 294 362 413
#     4  11  22  40  65  99 136 183 237 282 344 424
#     4  11  23  44  71  99 131 184 238 292 349 427
#     4  10  23  46  67  97 131 185 235 286 353 420
#     4   9  21  37  63  94 133 179 234 276 339 427
#     4  12  24  41  68 101 138 181 232 291 357 425
#     4  11  21  41  70  99 137 192 234 283 352 431
#     4  11  22  42  66 100 142 184 228 287 363 424
#
# _framework density 21.922777
#
# number of rings (size 3 to 8) (size 9 to 14) (size 15 to 20)
#    0.000    1.250    2.500    4.875    3.500    0.000 
#    2.250    1.250    2.750    0.000    0.000    0.000 
#    0.000    0.000    0.000    0.000    0.000    0.000 
#
# Total GULP energy -178525.554226 kJ/mol
# GULP energy per Si atom -5578.923570 kJ/mol
# Density = 2.187288 g / cm^3
# Si number density = 21.922777 Si / 1000 Ang^3
#
#
#
# Elastic Constant Matrix: (Units=GPa)
#
#
# Indices 1 2 3 4 5 6 
#
# 1 67.1456 40.0737 31.2141 0.0000 7.5901 0.0000
# 2 40.0737 103.7117 23.0588 0.0000 12.8560 0.0000
# 3 31.2141 23.0588 107.7277 0.0000 1.0010 0.0000
# 4 0.0000 0.0000 0.0000 35.6277 0.0000 8.4119
# 5 7.5901 12.8560 1.0010 0.0000 35.0508 0.0000
# 6 0.0000 0.0000 0.0000 8.4119 0.0000 28.8625
#
#
#
# Elastic Compliance Matrix: (Units=1/GPa)
#
#
# Indices 1 2 3 4 5 6 
#
# 1 0.021488 -0.007015 -0.004706 0.000000 -0.001946 0.000000
# 2 -0.007015 0.012904 -0.000700 0.000000 -0.003194 0.000000
# 3 -0.004706 -0.000700 0.010787 0.000000 0.000968 0.000000
# 4 0.000000 0.000000 0.000000 0.030142 0.000000 -0.008785
# 5 -0.001946 -0.003194 0.000968 0.000000 0.030095 0.000000
# 6 0.000000 0.000000 0.000000 -0.008785 0.000000 0.037207
#
#
# Mechanical properties :
#
#
# Convention : Reuss Voigt Hill
#
# Bulk Modulus (GPa) = 49.17309 51.91981 50.54645
# Shear Modulus (GPa) = 28.69523 32.19076 30.44300
#
# Velocity S-wave (km/s) = 3.62183 3.83609 3.73050
# Velocity P-wave (km/s) = 6.32211 6.58447 6.45462
#
# Compressibility (1/GPa) = 0.02033633
#
# Stress axis : x y z
#
# Youngs Moduli (GPa) = 46.53856 77.49391 92.70307
#
# Poissons Ratio (x) = 0.54363 0.43629
# Poissons Ratio (y) = 0.32647 0.06487
# Poissons Ratio (z) = 0.21903 0.05423
#
# Static dielectric constant tensor:
#      x y z
#    x 1.655790 0.000000 -0.002980 
#    y 0.000000 1.826200 0.000000 
#    z -0.002980 0.000000 1.838720 
# 
# From -- ./inp_files/288848.got.cif
#   From: 2010.05.17/outbox.cif.g08.bks.cpg/sg15_145_cif.got.tgz:288848.got - 2010.06.03 18:47:42.
