data_PCOD9296344
_publ_section_title
;
Structure prediction by ZEFSAII (Michael W. Deem and Ramdas Pophale) SiO2 
 PCOD9296344
Probable space group: C 2/C
;
_chemical_formula_sum "Si O2"
_cell_formula_units_Z 44
_cell_length_a 10.852712
_cell_length_b 20.335751
_cell_length_c 9.003125
_cell_angle_alpha 90.000000
_cell_angle_beta 67.589525
_cell_angle_gamma 90.000000
_cell_volume 1836.908734
_symmetry_space_group_name_H-M "C 2/C"
_symmetry_group_IT_number 15
_symmetry_cell_setting 'monoclinic'
loop_
_space_group_symop_operation_xyz
x,y,z
-x,y,1/2-z
-x,-y,-z
x,-y,1/2+z
1/2+x,1/2+y,z
1/2-x,1/2+y,1/2-z
1/2-x,1/2-y,-z
1/2+x,1/2-y,1/2+z
loop_
_atom_site_type_symbol
_atom_site_label
_atom_site_fract_x
_atom_site_fract_y
_atom_site_fract_z
Si Si1 0.746872 0.227333 0.670566
Si Si2 0.158638 0.089020 0.943147
Si Si3 0.739097 0.009921 0.853889
Si Si4 0.140648 0.585586 0.172734
Si Si5 0.395957 0.669747 0.086798
Si Si6 0.000000 0.225510 0.750000
O O1 0.750000 0.250000 0.500000
O O2 0.746708 0.148213 0.658061
O O3 0.627506 0.263283 0.812042
O O4 0.884417 0.249825 0.689846
O O5 0.973709 0.126663 0.443556
O O6 0.209639 0.045002 0.054875
O O7 0.147361 0.041437 0.804633
O O8 0.637223 0.977242 0.783978
O O9 0.671807 0.063262 0.991668
O O10 0.265680 0.626647 0.170757
O O11 0.000000 0.621409 0.250000
O O12 0.407550 0.685865 0.907507
#
# Coordination Sequence:
#
# PCOD9296344 Si02
#       6
#     8   8   8   8   8   4
#     4  11  24  44  71 106 156 194 243 307 376 461
#     4  10  24  47  75 110 142 187 257 310 379 436
#     4  10  23  44  72 102 138 192 245 317 364 437
#     4  11  23  39  64  96 142 187 243 296 370 448
#     4  11  24  44  71 107 148 193 245 311 378 447
#     4  10  24  44  70 100 148 190 244 306 364 448
#
# _framework density 23.953285000000001
#
# number of rings (size 3 to 8) (size 9 to 14) (size 15 to 20)
#    0.000    1.455    0.000    4.364    1.273   10.909 
#    3.273    0.000   24.000    0.000    0.000    0.000 
#    0.000    0.000    0.000    0.000    0.000    0.000 
#
# Total GULP energy -122930.029172 kJ/mol
# GULP energy per Si atom -5587.728599 kJ/mol
# Density = 2.389877 g / cm^3
# Si number density = 23.953285 Si / 1000 Ang^3
#
#
#
# Elastic Constant Matrix: (Units=GPa)
#
#
# Indices 1 2 3 4 5 6 
#
# 1 84.6033 25.2632 47.3760 0.0000 -2.0721 0.0000
# 2 25.2632 95.6626 64.4599 0.0000 -2.7980 0.0000
# 3 47.3760 64.4599 161.7600 0.0000 14.8791 0.0000
# 4 0.0000 0.0000 0.0000 53.7105 0.0000 -1.3787
# 5 -2.0721 -2.7980 14.8791 0.0000 44.3041 0.0000
# 6 0.0000 0.0000 0.0000 -1.3787 0.0000 27.5684
#
#
#
# Elastic Compliance Matrix: (Units=1/GPa)
#
#
# Indices 1 2 3 4 5 6 
#
# 1 0.014412 -0.001073 -0.003972 0.000000 0.001940 0.000000
# 2 -0.001073 0.014742 -0.005821 0.000000 0.002836 0.000000
# 3 -0.003972 -0.005821 0.010026 0.000000 -0.003920 0.000000
# 4 0.000000 0.000000 0.000000 0.018642 0.000000 0.000932
# 5 0.001940 0.002836 -0.003920 0.000000 0.024158 0.000000
# 6 0.000000 0.000000 0.000000 0.000932 0.000000 0.036320
#
#
# Mechanical properties :
#
#
# Convention : Reuss Voigt Hill
#
# Bulk Modulus (GPa) = 57.31418 68.46934 62.89176
# Shear Modulus (GPa) = 34.28233 38.77839 36.53036
#
# Velocity S-wave (km/s) = 3.78725 4.02794 3.90945
# Velocity P-wave (km/s) = 6.56534 7.09077 6.83311
#
# Compressibility (1/GPa) = 0.01744769
#
# Stress axis : x y z
#
# Youngs Moduli (GPa) = 69.38695 67.83249 99.74467
#
# Poissons Ratio (x) = 0.07278 0.39617
# Poissons Ratio (y) = 0.07445 0.58064
# Poissons Ratio (z) = 0.27560 0.39487
#
# Static dielectric constant tensor:
#      x y z
#    x 1.935620 0.000000 -0.007370 
#    y 0.000000 1.997150 0.000000 
#    z -0.007370 0.000000 1.877980 
# 
# From -- ./inp_files/30737.got.cif
#   From: 2010.05.17/outbox.cif.g08.bks.cpg/sg15_16_cif.got.tgz:30737.got - 2010.06.03 18:47:42.
