data_PCOD9296856
_publ_section_title
;
Structure prediction by ZEFSAII (Michael W. Deem and Ramdas Pophale) SiO2 
 PCOD9296856
Probable space group: C 2/C
;
_chemical_formula_sum "Si O2"
_cell_formula_units_Z 64
_cell_length_a 14.878595
_cell_length_b 17.816126
_cell_length_c 13.979469
_cell_angle_alpha 90.000000
_cell_angle_beta 46.747149
_cell_angle_gamma 90.000000
_cell_volume 2698.970709
_symmetry_space_group_name_H-M "C 2/C"
_symmetry_group_IT_number 15
_symmetry_cell_setting 'monoclinic'
loop_
_space_group_symop_operation_xyz
x,y,z
-x,y,1/2-z
-x,-y,-z
x,-y,1/2+z
1/2+x,1/2+y,z
1/2-x,1/2+y,1/2-z
1/2-x,1/2-y,-z
1/2+x,1/2-y,1/2+z
loop_
_atom_site_type_symbol
_atom_site_label
_atom_site_fract_x
_atom_site_fract_y
_atom_site_fract_z
Si Si1 0.599901 0.522484 0.596405
Si Si2 0.731937 0.894040 0.380208
Si Si3 0.757468 0.616367 0.008996
Si Si4 0.874539 0.249370 0.496345
Si Si5 0.029473 0.389568 0.835506
Si Si6 0.064741 0.137219 0.460476
Si Si7 0.260354 0.459116 0.773490
Si Si8 0.704212 0.232753 0.237728
O O1 0.500000 0.497842 0.750000
O O2 0.694329 0.577607 0.581970
O O3 0.687554 0.451848 0.498849
O O4 0.536095 0.579871 0.567604
O O5 0.588202 0.896628 0.511429
O O6 0.777861 0.814689 0.313361
O O7 0.757992 0.952487 0.277446
O O8 0.882875 0.670641 0.932817
O O9 0.764087 0.571535 0.102806
O O10 0.670874 0.686663 0.045497
O O11 0.785908 0.268127 0.653189
O O12 0.979191 0.201956 0.477676
O O13 0.147143 0.432641 0.791179
O O14 0.074125 0.303393 0.804603
O O15 0.000000 0.414377 0.750000
O O16 0.109982 0.077272 0.348651
O O17 0.190736 0.182723 0.388307
#
# Coordination Sequence:
#
# PCOD9296856 Si02
#       8
#     8   8   8   8   8   8   8   8
#     4  11  26  45  71 114 147 194 250 314 375 446
#     4  11  24  42  71 102 147 190 245 304 369 449
#     4  10  24  44  68 100 145 187 243 302 367 447
#     4  11  23  43  71  99 144 197 239 300 377 450
#     4  11  23  44  71  98 144 192 239 306 370 445
#     4  11  24  43  74 103 147 192 248 308 376 441
#     4  10  23  46  70 104 147 188 247 311 378 434
#     4  11  24  42  67 108 142 192 246 301 374 446
#
# _framework density 23.712743
#
# number of rings (size 3 to 8) (size 9 to 14) (size 15 to 20)
#    0.000    1.250    2.500    3.375    5.250    4.000 
#    0.000    0.000    0.000    0.000    0.000    0.000 
#    0.000    0.000    0.000    0.000    0.000    0.000 
#
# Total GULP energy -178154.528002 kJ/mol
# GULP energy per Si atom -5567.329000 kJ/mol
# Density = 2.365877 g / cm^3
# Si number density = 23.712743 Si / 1000 Ang^3
#
#
#
# Elastic Constant Matrix: (Units=GPa)
#
#
# Indices 1 2 3 4 5 6 
#
# 1 112.6107 24.4388 28.7522 0.0000 -3.4198 0.0000
# 2 24.4388 157.3197 38.1043 0.0000 -17.4540 0.0000
# 3 28.7522 38.1043 52.2255 0.0000 -11.3485 0.0000
# 4 0.0000 0.0000 0.0000 54.7284 0.0000 -13.2274
# 5 -3.4198 -17.4540 -11.3485 0.0000 19.9176 0.0000
# 6 0.0000 0.0000 0.0000 -13.2274 0.0000 45.7705
#
#
#
# Elastic Compliance Matrix: (Units=1/GPa)
#
#
# Indices 1 2 3 4 5 6 
#
# 1 0.010403 -0.000413 -0.005840 0.000000 -0.001903 0.000000
# 2 -0.000413 0.008036 -0.004703 0.000000 0.004291 0.000000
# 3 -0.005840 -0.004703 0.028168 0.000000 0.010925 0.000000
# 4 0.000000 0.000000 0.000000 0.019644 0.000000 0.005677
# 5 -0.001903 0.004291 0.010925 0.000000 0.059865 0.000000
# 6 0.000000 0.000000 0.000000 0.005677 0.000000 0.023489
#
#
# Mechanical properties :
#
#
# Convention : Reuss Voigt Hill
#
# Bulk Modulus (GPa) = 40.49267 56.08293 48.28780
# Shear Modulus (GPa) = 27.81661 39.47401 33.64531
#
# Velocity S-wave (km/s) = 3.42872 4.08447 3.77088
# Velocity P-wave (km/s) = 5.72610 6.77836 6.27433
#
# Compressibility (1/GPa) = 0.02469582
#
# Stress axis : x y z
#
# Youngs Moduli (GPa) = 96.12690 124.44173 35.50090
#
# Poissons Ratio (x) = 0.05136 0.20731
# Poissons Ratio (y) = 0.03968 0.16697
# Poissons Ratio (z) = 0.56134 0.58529
#
# Static dielectric constant tensor:
#      x y z
#    x 1.995260 0.000000 -0.007170 
#    y 0.000000 2.008600 0.000000 
#    z -0.007170 0.000000 1.935800 
# 
# From -- ./inp_files/155490.got.cif
#   From: 2010.05.17/outbox.cif.g08.bks.cpg/sg15_78_cif.got.tgz:155490.got - 2010.06.03 18:47:42.
