data_PCOD9296235
_publ_section_title
;
Structure prediction by ZEFSAII (Michael W. Deem and Ramdas Pophale) SiO2 
 PCOD9296235
Probable space group: C 2/C
;
_chemical_formula_sum "Si O2"
_cell_formula_units_Z 56
_cell_length_a 26.133374
_cell_length_b 10.096410
_cell_length_c 9.342256
_cell_angle_alpha 90.000000
_cell_angle_beta 67.441467
_cell_angle_gamma 90.000000
_cell_volume 2276.384035
_symmetry_space_group_name_H-M "C 2/C"
_symmetry_group_IT_number 15
_symmetry_cell_setting 'monoclinic'
loop_
_space_group_symop_operation_xyz
x,y,z
-x,y,1/2-z
-x,-y,-z
x,-y,1/2+z
1/2+x,1/2+y,z
1/2-x,1/2+y,1/2-z
1/2-x,1/2-y,-z
1/2+x,1/2-y,1/2+z
loop_
_atom_site_type_symbol
_atom_site_label
_atom_site_fract_x
_atom_site_fract_y
_atom_site_fract_z
Si Si1 0.057512 0.168796 0.861139
Si Si2 0.632845 0.198887 0.667607
Si Si3 0.062098 0.050419 0.142821
Si Si4 0.748083 0.869949 0.178581
Si Si5 0.764860 0.406005 0.987978
Si Si6 0.341495 0.843795 0.663244
Si Si7 0.480084 0.869827 0.102775
O O1 0.108094 0.267278 0.820074
O O2 0.062376 0.095700 0.706302
O O3 0.066682 0.052339 0.967642
O O4 0.005805 0.250679 0.979321
O O5 0.606238 0.342485 0.654084
O O6 0.694020 0.201082 0.669629
O O7 0.635536 0.114647 0.516462
O O8 0.586371 0.138397 0.820561
O O9 0.000000 0.097472 0.250000
O O10 0.731247 0.935332 0.349038
O O11 0.793909 0.760666 0.165834
O O12 0.773086 0.982530 0.046357
O O13 0.815991 0.423263 0.823488
O O14 0.750000 0.250000 0.000000
O O15 0.500000 0.872544 0.250000
O O16 0.500000 0.000000 0.000000
#
# Coordination Sequence:
#
# PCOD9296235 Si02
#       7
#     8   8   8   8   8   8   8
#     4  11  24  44  72 101 142 183 231 297 362 424
#     4  11  23  43  71 100 140 185 233 290 361 420
#     4  11  22  42  72  98 141 176 230 291 355 425
#     4  11  24  41  71 101 140 188 234 292 358 432
#     4  10  24  44  67 100 143 181 240 290 351 432
#     4  10  23  44  69  99 141 181 232 290 355 431
#     4  12  26  49  68 100 141 187 243 294 356 429
#
# _framework density 24.600418999999999
#
# number of rings (size 3 to 8) (size 9 to 14) (size 15 to 20)
#    0.000    1.143    4.286    1.714    2.000   10.857 
#    0.000    0.000    0.000    0.000    0.000    0.000 
#    0.000    0.000    0.000    0.000    0.000    0.000 
#
# Total GULP energy -156411.173687 kJ/mol
# GULP energy per Si atom -5586.113346 kJ/mol
# Density = 2.454443 g / cm^3
# Si number density = 24.600419 Si / 1000 Ang^3
#
#
#
# Elastic Constant Matrix: (Units=GPa)
#
#
# Indices 1 2 3 4 5 6 
#
# 1 38.7122 13.7433 9.6938 0.0000 -18.6901 0.0000
# 2 13.7433 89.1934 39.7748 0.0000 6.5856 0.0000
# 3 9.6938 39.7748 122.5408 0.0000 7.0690 0.0000
# 4 0.0000 0.0000 0.0000 60.8160 0.0000 6.8629
# 5 -18.6901 6.5856 7.0690 0.0000 40.1683 0.0000
# 6 0.0000 0.0000 0.0000 6.8629 0.0000 35.7703
#
#
#
# Elastic Compliance Matrix: (Units=1/GPa)
#
#
# Indices 1 2 3 4 5 6 
#
# 1 0.037725 -0.006306 -0.002030 0.000000 0.018945 0.000000
# 2 -0.006306 0.014243 -0.003859 0.000000 -0.004590 0.000000
# 3 -0.002030 -0.003859 0.009690 0.000000 -0.002017 0.000000
# 4 0.000000 0.000000 0.000000 0.016807 0.000000 -0.003225
# 5 0.018945 -0.004590 -0.002017 0.000000 0.034818 0.000000
# 6 0.000000 0.000000 0.000000 -0.003225 0.000000 0.028575
#
#
# Mechanical properties :
#
#
# Convention : Reuss Voigt Hill
#
# Bulk Modulus (GPa) = 26.83359 41.87447 34.35403
# Shear Modulus (GPa) = 27.98417 39.83323 33.90870
#
# Velocity S-wave (km/s) = 3.37642 4.02831 3.71668
# Velocity P-wave (km/s) = 5.11192 6.22054 5.69328
#
# Compressibility (1/GPa) = 0.03726673
#
# Stress axis : x y z
#
# Youngs Moduli (GPa) = 26.50748 70.20841 103.19654
#
# Poissons Ratio (x) = 0.44275 0.20952
# Poissons Ratio (y) = 0.16716 0.39828
# Poissons Ratio (z) = 0.05382 0.27097
#
# Static dielectric constant tensor:
#      x y z
#    x 2.012160 0.000000 0.014700 
#    y 0.000000 2.033200 0.000000 
#    z 0.014700 0.000000 1.972980 
# 
# From -- ./inp_files/65430.got.cif
#   From: 2010.05.17/outbox.cif.g08.bks.cpg/sg15_33_cif.got.tgz:65430.got - 2010.06.03 18:47:42.
