data_PCOD9296695
_publ_section_title
;
Structure prediction by ZEFSAII (Michael W. Deem and Ramdas Pophale) SiO2 
 PCOD9296695
Probable space group: C 2/C
;
_chemical_formula_sum "Si O2"
_cell_formula_units_Z 36
_cell_length_a 20.489492
_cell_length_b 9.071566
_cell_length_c 18.157427
_cell_angle_alpha 90.000000
_cell_angle_beta 154.648557
_cell_angle_gamma 90.000000
_cell_volume 1445.051783
_symmetry_space_group_name_H-M "C 2/C"
_symmetry_group_IT_number 15
_symmetry_cell_setting 'monoclinic'
loop_
_space_group_symop_operation_xyz
x,y,z
-x,y,1/2-z
-x,-y,-z
x,-y,1/2+z
1/2+x,1/2+y,z
1/2-x,1/2+y,1/2-z
1/2-x,1/2-y,-z
1/2+x,1/2-y,1/2+z
loop_
_atom_site_type_symbol
_atom_site_label
_atom_site_fract_x
_atom_site_fract_y
_atom_site_fract_z
Si Si1 0.500000 0.760380 0.250000
Si Si2 0.492372 0.201379 0.152725
Si Si3 0.835232 0.493688 0.371769
Si Si4 0.799285 0.033572 0.416404
Si Si5 0.251449 0.704093 0.099706
O O1 0.409462 0.674851 0.221123
O O2 0.618061 0.860517 0.413728
O O3 0.500000 0.190690 0.250000
O O4 0.653698 0.136472 0.288784
O O5 0.447935 0.370631 0.087074
O O6 0.366415 0.115480 0.972412
O O7 0.715902 0.478147 0.183657
O O8 0.777051 0.643985 0.349511
O O9 0.000000 0.500000 0.500000
O O10 0.774680 0.879222 0.432733
#
# Coordination Sequence:
#
# PCOD9296695 Si02
#       5
#     4   8   8   8   8
#     4  10  24  40  68 106 138 182 244 308 348 418
#     4  11  25  44  70 103 149 193 241 311 375 432
#     4  10  23  45  73 101 144 191 240 304 378 439
#     4  11  25  44  69 103 147 193 244 297 377 447
#     4  11  24  43  73 101 143 186 251 293 366 436
#
# _framework density 24.912602
#
# number of rings (size 3 to 8) (size 9 to 14) (size 15 to 20)
#    0.000    1.333    0.000    4.667   10.889    3.556 
#    0.000    6.667    0.000    0.000    0.000    0.000 
#    0.000    0.000    0.000    0.000    0.000    0.000 
#
# Total GULP energy -100372.413725 kJ/mol
# GULP energy per Si atom -5576.245207 kJ/mol
# Density = 2.485590 g / cm^3
# Si number density = 24.912602 Si / 1000 Ang^3
#
#
#
# Elastic Constant Matrix: (Units=GPa)
#
#
# Indices 1 2 3 4 5 6 
#
# 1 132.4045 49.9025 51.5203 0.0000 -18.5119 0.0000
# 2 49.9025 136.5020 25.8074 0.0000 -9.3058 0.0000
# 3 51.5203 25.8074 88.7148 0.0000 -15.5279 0.0000
# 4 0.0000 0.0000 0.0000 45.3378 0.0000 -3.8987
# 5 -18.5119 -9.3058 -15.5279 0.0000 58.9335 0.0000
# 6 0.0000 0.0000 0.0000 -3.8987 0.0000 23.9714
#
#
#
# Elastic Compliance Matrix: (Units=1/GPa)
#
#
# Indices 1 2 3 4 5 6 
#
# 1 0.010889 -0.002888 -0.005205 0.000000 0.001593 0.000000
# 2 -0.002888 0.008543 -0.000766 0.000000 0.000240 0.000000
# 3 -0.005205 -0.000766 0.014897 0.000000 0.002169 0.000000
# 4 0.000000 0.000000 0.000000 0.022369 0.000000 0.003638
# 5 0.001593 0.000240 0.002169 0.000000 0.018078 0.000000
# 6 0.000000 0.000000 0.000000 0.003638 0.000000 0.042308
#
#
# Mechanical properties :
#
#
# Convention : Reuss Voigt Hill
#
# Bulk Modulus (GPa) = 60.19897 68.00909 64.10403
# Shear Modulus (GPa) = 35.62781 41.00796 38.31789
#
# Velocity S-wave (km/s) = 3.78578 4.06158 3.92611
# Velocity P-wave (km/s) = 6.58225 7.02521 6.80734
#
# Compressibility (1/GPa) = 0.01661158
#
# Stress axis : x y z
#
# Youngs Moduli (GPa) = 91.83479 117.05582 67.12693
#
# Poissons Ratio (x) = 0.33808 0.34938
# Poissons Ratio (y) = 0.26524 0.05141
# Poissons Ratio (z) = 0.47797 0.08965
#
# Static dielectric constant tensor:
#      x y z
#    x 1.949810 0.000000 0.002020 
#    y 0.000000 2.003280 0.000000 
#    z 0.002020 0.000000 2.005710 
# 
# From -- ./inp_files/214376.got.cif
#   From: 2010.05.17/outbox.cif.g08.bks.cpg/sg15_108_cif.got.tgz:214376.got - 2010.06.03 18:47:42.
