data_PCOD9296763
_publ_section_title
;
Structure prediction by ZEFSAII (Michael W. Deem and Ramdas Pophale) SiO2 
 PCOD9296763
Probable space group: C 2/C
;
_chemical_formula_sum "Si O2"
_cell_formula_units_Z 48
_cell_length_a 6.663064
_cell_length_b 28.285321
_cell_length_c 15.120653
_cell_angle_alpha 90.000000
_cell_angle_beta 54.279649
_cell_angle_gamma 90.000000
_cell_volume 2313.638259
_symmetry_space_group_name_H-M "C 2/C"
_symmetry_group_IT_number 15
_symmetry_cell_setting 'monoclinic'
loop_
_space_group_symop_operation_xyz
x,y,z
-x,y,1/2-z
-x,-y,-z
x,-y,1/2+z
1/2+x,1/2+y,z
1/2-x,1/2+y,1/2-z
1/2-x,1/2-y,-z
1/2+x,1/2-y,1/2+z
loop_
_atom_site_type_symbol
_atom_site_label
_atom_site_fract_x
_atom_site_fract_y
_atom_site_fract_z
Si Si1 0.380127 0.809321 0.874643
Si Si2 0.835710 0.955341 0.875681
Si Si3 0.009564 0.726316 0.521278
Si Si4 0.288907 0.935115 0.078492
Si Si5 0.509058 0.142036 0.852500
Si Si6 0.029679 0.895654 0.981068
O O1 0.500000 0.799228 0.750000
O O2 0.253436 0.860529 0.901594
O O3 0.169607 0.770536 0.943905
O O4 0.548393 0.801567 0.918550
O O5 0.000000 0.939396 0.750000
O O6 0.985996 0.938430 0.923846
O O7 0.790231 0.011488 0.880901
O O8 0.555944 0.935603 0.958952
O O9 0.250000 0.750000 0.500000
O O10 0.901797 0.688243 0.618204
O O11 0.334883 0.902716 0.152351
O O12 0.087989 0.914035 0.063838
O O13 0.500000 0.147436 0.750000
O O14 0.225614 0.133154 0.954400
#
# Coordination Sequence:
#
# PCOD9296763 Si02
#       6
#     8   8   8   8   8   8
#     4  11  26  41  69  97 131 175 211 270 329 382
#     4  10  24  41  66  95 127 173 212 266 327 384
#     4  11  24  46  62  97 136 166 223 266 314 395
#     4  10  23  46  61  95 134 161 221 269 314 399
#     4  11  25  41  69  95 128 175 214 269 330 383
#     4  11  23  43  65  97 128 167 217 270 321 389
#
# _framework density 20.746544
#
# number of rings (size 3 to 8) (size 9 to 14) (size 15 to 20)
#    0.000    1.333    3.333    0.500    7.000    0.000 
#    0.000    0.000    0.000    0.000    0.000    0.000 
#    0.000    0.000    0.000    0.000    0.000    0.000 
#
# Total GULP energy -134004.019662 kJ/mol
# GULP energy per Si atom -5583.500819 kJ/mol
# Density = 2.069932 g / cm^3
# Si number density = 20.746544 Si / 1000 Ang^3
#
#
#
# Elastic Constant Matrix: (Units=GPa)
#
#
# Indices 1 2 3 4 5 6 
#
# 1 101.5267 25.5927 15.6395 0.0000 24.6033 0.0000
# 2 25.5927 81.7171 -5.2053 0.0000 14.9701 0.0000
# 3 15.6395 -5.2053 74.8404 0.0000 22.8052 0.0000
# 4 0.0000 0.0000 0.0000 12.6172 0.0000 1.1754
# 5 24.6033 14.9701 22.8052 0.0000 35.1376 0.0000
# 6 0.0000 0.0000 0.0000 1.1754 0.0000 -56.9607
#
#
#
# Elastic Compliance Matrix: (Units=1/GPa)
#
#
# Indices 1 2 3 4 5 6 
#
# 1 0.012324 -0.002586 -0.000575 0.000000 -0.007154 0.000000
# 2 -0.002586 0.014503 0.003590 0.000000 -0.006699 0.000000
# 3 -0.000575 0.003590 0.017545 0.000000 -0.012514 0.000000
# 4 0.000000 0.000000 0.000000 0.079105 0.000000 0.001632
# 5 -0.007154 -0.006699 -0.012514 0.000000 0.044445 0.000000
# 6 0.000000 0.000000 0.000000 0.001632 0.000000 -0.017522
#
#
# Mechanical properties :
#
#
# Convention : Reuss Voigt Hill
#
# Bulk Modulus (GPa) = 22.10907 36.68199 29.39553
# Shear Modulus (GPa) = 30.37357 12.96263 21.66810
#
# Velocity S-wave (km/s) = 3.83042 2.50233 3.23525
# Velocity P-wave (km/s) = 5.49933 5.10571 5.30617
#
# Compressibility (1/GPa) = 0.04523031
#
# Stress axis : x y z
#
# Youngs Moduli (GPa) = 81.14440 68.95147 56.99677
#
# Poissons Ratio (x) = 0.17828 0.03278
# Poissons Ratio (y) = 0.20981 -0.20463
# Poissons Ratio (z) = 0.04667 -0.24755
#
# Static dielectric constant tensor:
#      x y z
#    x 1.755890 0.000000 0.008370 
#    y 0.000000 1.749130 0.000000 
#    z 0.008370 0.000000 1.753850 
# 
# From -- ./inp_files/130574.got.cif
#   From: 2010.05.17/outbox.cif.g08.bks.cpg/sg15_66_cif.got.tgz:130574.got - 2010.06.03 18:47:42.
