data_PCOD9296633
_publ_section_title
;
Structure prediction by ZEFSAII (Michael W. Deem and Ramdas Pophale) SiO2 
 PCOD9296633
Probable space group: C 2/C
;
_chemical_formula_sum "Si O2"
_cell_formula_units_Z 56
_cell_length_a 17.114261
_cell_length_b 8.589062
_cell_length_c 27.463405
_cell_angle_alpha 90.000000
_cell_angle_beta 138.206134
_cell_angle_gamma 90.000000
_cell_volume 2690.466406
_symmetry_space_group_name_H-M "C 2/C"
_symmetry_group_IT_number 15
_symmetry_cell_setting 'monoclinic'
loop_
_space_group_symop_operation_xyz
x,y,z
-x,y,1/2-z
-x,-y,-z
x,-y,1/2+z
1/2+x,1/2+y,z
1/2-x,1/2+y,1/2-z
1/2-x,1/2-y,-z
1/2+x,1/2-y,1/2+z
loop_
_atom_site_type_symbol
_atom_site_label
_atom_site_fract_x
_atom_site_fract_y
_atom_site_fract_z
Si Si1 0.194530 0.482470 0.285284
Si Si2 0.454808 0.090071 0.527276
Si Si3 0.280585 0.071361 0.025405
Si Si4 0.905251 0.126404 0.938679
Si Si5 0.469436 0.831547 0.683287
Si Si6 0.642347 0.737229 0.180411
Si Si7 0.016937 0.936946 0.390582
O O1 0.275175 0.431627 0.367242
O O2 0.252782 0.645739 0.296621
O O3 0.196667 0.343408 0.247436
O O4 0.060018 0.525663 0.226309
O O5 0.398534 0.239675 0.475167
O O6 0.565801 0.151795 0.609867
O O7 0.500000 0.000000 0.500000
O O8 0.365736 0.001978 0.523093
O O9 0.149049 0.003200 0.963872
O O10 0.250000 0.250000 0.000000
O O11 0.349995 0.087693 0.108532
O O12 0.960626 0.155681 0.910542
O O13 0.000000 0.000000 0.000000
O O14 0.500000 0.760296 0.750000
O O15 0.485230 0.689336 0.653166
O O16 0.559013 0.591091 0.156182
#
# Coordination Sequence:
#
# PCOD9296633 Si02
#       7
#     8   8   8   8   8   8   8
#     4  11  23  43  65  97 137 171 231 281 346 402
#     4  12  24  42  70 106 132 177 241 276 351 422
#     4  10  23  45  70  97 140 183 225 288 343 416
#     4  11  23  44  69 102 133 181 227 292 347 411
#     4  11  24  42  69  97 131 184 226 280 348 408
#     4  11  24  42  69  97 135 182 216 296 338 406
#     4  10  23  47  67  98 145 177 234 282 352 415
#
# _framework density 20.814235
#
# number of rings (size 3 to 8) (size 9 to 14) (size 15 to 20)
#    0.000    1.143    4.286    3.429    4.000    2.857 
#    7.714    0.000    0.000    0.000    0.000    0.000 
#    0.000    0.000    0.000    0.000    0.000    0.000 
#
# Total GULP energy -155971.930630 kJ/mol
# GULP energy per Si atom -5570.426094 kJ/mol
# Density = 2.076686 g / cm^3
# Si number density = 20.814235 Si / 1000 Ang^3
#
#
#
# Elastic Constant Matrix: (Units=GPa)
#
#
# Indices 1 2 3 4 5 6 
#
# 1 94.6469 29.5223 45.3358 0.0000 -17.7458 0.0000
# 2 29.5223 74.8872 37.2731 0.0000 -15.8389 0.0000
# 3 45.3358 37.2731 183.4398 0.0000 -5.1762 0.0000
# 4 0.0000 0.0000 0.0000 70.0357 0.0000 -19.8224
# 5 -17.7458 -15.8389 -5.1762 0.0000 36.4539 0.0000
# 6 0.0000 0.0000 0.0000 -19.8224 0.0000 49.4874
#
#
#
# Elastic Compliance Matrix: (Units=1/GPa)
#
#
# Indices 1 2 3 4 5 6 
#
# 1 0.013707 -0.003042 -0.002629 0.000000 0.004977 0.000000
# 2 -0.003042 0.016991 -0.002544 0.000000 0.005540 0.000000
# 3 -0.002629 -0.002544 0.006577 0.000000 -0.001451 0.000000
# 4 0.000000 0.000000 0.000000 0.016104 0.000000 0.006451
# 5 0.004977 0.005540 -0.001451 0.000000 0.032056 0.000000
# 6 0.000000 0.000000 0.000000 0.006451 0.000000 0.022791
#
#
# Mechanical properties :
#
#
# Convention : Reuss Voigt Hill
#
# Bulk Modulus (GPa) = 47.97545 64.13736 56.05641
# Shear Modulus (GPa) = 37.99242 47.25156 42.62199
#
# Velocity S-wave (km/s) = 4.27700 4.76978 4.53010
# Velocity P-wave (km/s) = 6.89128 7.82404 7.37242
#
# Compressibility (1/GPa) = 0.02084400
#
# Stress axis : x y z
#
# Youngs Moduli (GPa) = 72.95491 58.85530 152.04272
#
# Poissons Ratio (x) = 0.17906 0.39972
# Poissons Ratio (y) = 0.22196 0.38681
# Poissons Ratio (z) = 0.19180 0.14973
#
# Static dielectric constant tensor:
#      x y z
#    x 1.695420 0.000000 -0.049300 
#    y 0.000000 1.760680 0.000000 
#    z -0.049300 0.000000 2.002720 
# 
# From -- ./inp_files/315539.got.cif
#   From: 2010.05.17/outbox.cif.g08.bks.cpg/sg15_158_cif.got.tgz:315539.got - 2010.06.03 18:47:42.
