data_PCOD9296772
_publ_section_title
;
Structure prediction by ZEFSAII (Michael W. Deem and Ramdas Pophale) SiO2 
 PCOD9296772
Probable space group: C 2/C
;
_chemical_formula_sum "Si O2"
_cell_formula_units_Z 40
_cell_length_a 11.416420
_cell_length_b 9.604483
_cell_length_c 18.015050
_cell_angle_alpha 90.000000
_cell_angle_beta 64.218404
_cell_angle_gamma 90.000000
_cell_volume 1778.701684
_symmetry_space_group_name_H-M "C 2/C"
_symmetry_group_IT_number 15
_symmetry_cell_setting 'monoclinic'
loop_
_space_group_symop_operation_xyz
x,y,z
-x,y,1/2-z
-x,-y,-z
x,-y,1/2+z
1/2+x,1/2+y,z
1/2-x,1/2+y,1/2-z
1/2-x,1/2-y,-z
1/2+x,1/2-y,1/2+z
loop_
_atom_site_type_symbol
_atom_site_label
_atom_site_fract_x
_atom_site_fract_y
_atom_site_fract_z
Si Si1 0.865003 0.058707 0.068851
Si Si2 0.956186 0.650549 0.601255
Si Si3 0.795513 0.513342 0.019713
Si Si4 0.851480 0.909521 0.801729
Si Si5 0.259112 0.127690 0.771089
O O1 0.905466 0.193753 0.103716
O O2 0.771494 0.080954 0.024111
O O3 0.788239 0.952813 0.143244
O O4 0.000000 0.000000 0.000000
O O5 0.882229 0.569321 0.555378
O O6 0.901025 0.598932 0.695537
O O7 0.107469 0.622128 0.546507
O O8 0.685972 0.581393 0.101839
O O9 0.759566 0.791637 0.789927
O O10 0.000000 0.867825 0.750000
O O11 0.831378 0.059749 0.768087
#
# Coordination Sequence:
#
# PCOD9296772 Si02
#       5
#     8   8   8   8   8
#     4  12  24  40  70 101 131 180 226 280 342 408
#     4  10  23  46  64  97 140 173 232 277 334 418
#     4  10  24  42  70  98 133 180 220 286 340 397
#     4  11  24  45  68  99 139 181 227 282 339 408
#     4  11  24  42  68  98 139 176 227 280 337 407
#
# _framework density 22.488312000000001
#
# number of rings (size 3 to 8) (size 9 to 14) (size 15 to 20)
#    0.000    1.200    2.000    3.000    2.800    1.600 
#    0.000    7.000    4.400    0.000    0.000    0.000 
#    0.000    0.000    0.000    0.000    0.000    0.000 
#
# Total GULP energy -111685.155079 kJ/mol
# GULP energy per Si atom -5584.257754 kJ/mol
# Density = 2.243713 g / cm^3
# Si number density = 22.488312 Si / 1000 Ang^3
#
#
#
# Elastic Constant Matrix: (Units=GPa)
#
#
# Indices 1 2 3 4 5 6 
#
# 1 82.7958 27.0109 39.9365 0.0000 -3.5252 0.0000
# 2 27.0109 92.2861 28.9508 0.0000 -11.3680 0.0000
# 3 39.9365 28.9508 181.0901 0.0000 -19.9191 0.0000
# 4 0.0000 0.0000 0.0000 25.1187 0.0000 6.7457
# 5 -3.5252 -11.3680 -19.9191 0.0000 29.0518 0.0000
# 6 0.0000 0.0000 0.0000 6.7457 0.0000 31.6774
#
#
#
# Elastic Compliance Matrix: (Units=1/GPa)
#
#
# Indices 1 2 3 4 5 6 
#
# 1 0.014527 -0.003564 -0.002805 0.000000 -0.001555 0.000000
# 2 -0.003564 0.012616 -0.000796 0.000000 0.003959 0.000000
# 3 -0.002805 -0.000796 0.006702 0.000000 0.003943 0.000000
# 4 0.000000 0.000000 0.000000 0.042226 0.000000 -0.008992
# 5 -0.001555 0.003959 0.003943 0.000000 0.038485 0.000000
# 6 0.000000 0.000000 0.000000 -0.008992 0.000000 0.033483
#
#
# Mechanical properties :
#
#
# Convention : Reuss Voigt Hill
#
# Bulk Modulus (GPa) = 51.23838 60.88540 56.06189
# Shear Modulus (GPa) = 29.60802 34.52117 32.06460
#
# Velocity S-wave (km/s) = 3.63243 3.92225 3.78012
# Velocity P-wave (km/s) = 6.35819 6.90254 6.63595
#
# Compressibility (1/GPa) = 0.01951662
#
# Stress axis : x y z
#
# Youngs Moduli (GPa) = 68.83604 79.26383 149.21666
#
# Poissons Ratio (x) = 0.28246 0.41857
# Poissons Ratio (y) = 0.24530 0.11872
# Poissons Ratio (z) = 0.19309 0.06306
#
# Static dielectric constant tensor:
#      x y z
#    x 1.822350 0.000000 0.017560 
#    y 0.000000 1.852240 0.000000 
#    z 0.017560 0.000000 1.854270 
# 
# From -- ./inp_files/195231.got.cif
#   From: 2010.05.17/outbox.cif.g08.bks.cpg/sg15_98_cif.got.tgz:195231.got - 2010.06.03 18:47:42.
