data_PCOD9296794
_publ_section_title
;
Structure prediction by ZEFSAII (Michael W. Deem and Ramdas Pophale) SiO2 
 PCOD9296794
Probable space group: C 2/C
;
_chemical_formula_sum "Si O2"
_cell_formula_units_Z 56
_cell_length_a 8.215255
_cell_length_b 14.229243
_cell_length_c 29.539216
_cell_angle_alpha 90.000000
_cell_angle_beta 123.795325
_cell_angle_gamma 90.000000
_cell_volume 2869.580657
_symmetry_space_group_name_H-M "C 2/C"
_symmetry_group_IT_number 15
_symmetry_cell_setting 'monoclinic'
loop_
_space_group_symop_operation_xyz
x,y,z
-x,y,1/2-z
-x,-y,-z
x,-y,1/2+z
1/2+x,1/2+y,z
1/2-x,1/2+y,1/2-z
1/2-x,1/2-y,-z
1/2+x,1/2-y,1/2+z
loop_
_atom_site_type_symbol
_atom_site_label
_atom_site_fract_x
_atom_site_fract_y
_atom_site_fract_z
Si Si1 0.107469 0.400272 0.640536
Si Si2 0.267469 0.213063 0.640536
Si Si3 0.584785 0.673001 0.979471
Si Si4 0.155522 0.850578 0.979471
Si Si5 0.031717 0.113333 0.359463
Si Si6 0.363482 0.976421 0.520529
Si Si7 0.870076 0.499999 0.185038
O O1 0.151206 0.288662 0.654717
O O2 0.321542 0.434784 0.654718
O O3 0.971160 0.417158 0.575491
O O4 0.000566 0.452724 0.665054
O O5 0.455558 0.276555 0.654717
O O6 0.115157 0.201511 0.575491
O O7 0.315793 0.108867 0.665054
O O8 0.750000 0.750000 0.000000
O O9 0.549543 0.653540 0.026813
O O10 0.674645 0.578811 0.973188
O O11 0.133372 0.881332 0.924509
O O12 0.250000 0.750000 0.000000
O O13 0.285977 0.925271 0.026812
O O14 0.826035 0.061591 0.334946
O O15 0.500000 0.000000 0.500000
O O16 0.000000 0.499999 0.250000
#
# Coordination Sequence:
#
# PCOD9296794 Si02
#       7
#     8   8   8   8   8   8   8
#     4  10  23  46  67 100 139 178 228 289 341 415
#     4  10  23  46  67 100 139 178 228 289 341 415
#     4  12  21  37  61  96 139 180 219 261 336 418
#     4  12  21  37  61  96 139 180 219 261 336 418
#     4  10  23  46  67 100 139 178 228 289 341 415
#     4  12  21  37  61  96 139 180 219 261 336 418
#     4  12  27  48  73  95 130 183 234 303 361 389
#
# _framework density 19.515046999999999
#
# number of rings (size 3 to 8) (size 9 to 14) (size 15 to 20)
#    0.857    0.000    4.286    3.857    0.000    1.714 
#    2.571    0.000    0.000    0.000    0.000    0.000 
#    0.000    0.000    0.000    0.000    0.000    0.000 
#
# Total GULP energy -155912.647533 kJ/mol
# GULP energy per Si atom -5568.308840 kJ/mol
# Density = 1.947063 g / cm^3
# Si number density = 19.515047 Si / 1000 Ang^3
#
#
#
# Elastic Constant Matrix: (Units=GPa)
#
#
# Indices 1 2 3 4 5 6 
#
# 1 164.0708 83.6965 47.2500 0.0000 -11.1802 0.0000
# 2 83.6965 166.7889 45.4632 0.0000 0.5508 0.0000
# 3 47.2500 45.4632 87.0939 0.0000 0.2333 0.0000
# 4 0.0000 0.0000 0.0000 17.9369 0.0000 1.8057
# 5 -11.1802 0.5508 0.2333 0.0000 19.8363 0.0000
# 6 0.0000 0.0000 0.0000 1.8057 0.0000 42.2607
#
#
#
# Elastic Compliance Matrix: (Units=1/GPa)
#
#
# Indices 1 2 3 4 5 6 
#
# 1 0.009309 -0.003857 -0.003051 0.000000 0.005389 0.000000
# 2 -0.003857 0.008589 -0.002384 0.000000 -0.002384 0.000000
# 3 -0.003051 -0.002384 0.014387 0.000000 -0.001823 0.000000
# 4 0.000000 0.000000 0.000000 0.055992 0.000000 -0.002392
# 5 0.005389 -0.002384 -0.001823 0.000000 0.053538 0.000000
# 6 0.000000 0.000000 0.000000 -0.002392 0.000000 0.023765
#
#
# Mechanical properties :
#
#
# Convention : Reuss Voigt Hill
#
# Bulk Modulus (GPa) = 72.99919 85.64144 79.32031
# Shear Modulus (GPa) = 26.49279 32.10970 29.30125
#
# Velocity S-wave (km/s) = 3.68850 4.06073 3.87908
# Velocity P-wave (km/s) = 7.45841 8.12195 7.79724
#
# Compressibility (1/GPa) = 0.01369878
#
# Stress axis : x y z
#
# Youngs Moduli (GPa) = 107.42856 116.42715 69.50885
#
# Poissons Ratio (x) = 0.44909 0.21207
# Poissons Ratio (y) = 0.41438 0.16574
# Poissons Ratio (z) = 0.32776 0.27762
#
# Static dielectric constant tensor:
#      x y z
#    x 1.791340 0.000000 -0.011170 
#    y 0.000000 1.792340 0.000000 
#    z -0.011170 0.000000 1.667520 
# 
# From -- ./inp_files/288874.got.cif
#   From: 2010.05.17/outbox.cif.g08.bks.cpg/sg15_145_cif.got.tgz:288874.got - 2010.06.03 18:47:42.
