data_PCOD9296622
_publ_section_title
;
Structure prediction by ZEFSAII (Michael W. Deem and Ramdas Pophale) SiO2 
 PCOD9296622
Probable space group: C 2/C
;
_chemical_formula_sum "Si O2"
_cell_formula_units_Z 32
_cell_length_a 24.664087
_cell_length_b 4.995176
_cell_length_c 14.247016
_cell_angle_alpha 90.000000
_cell_angle_beta 130.259634
_cell_angle_gamma 90.000000
_cell_volume 1339.475450
_symmetry_space_group_name_H-M "C 2/C"
_symmetry_group_IT_number 15
_symmetry_cell_setting 'monoclinic'
loop_
_space_group_symop_operation_xyz
x,y,z
-x,y,1/2-z
-x,-y,-z
x,-y,1/2+z
1/2+x,1/2+y,z
1/2-x,1/2+y,1/2-z
1/2-x,1/2-y,-z
1/2+x,1/2-y,1/2+z
loop_
_atom_site_type_symbol
_atom_site_label
_atom_site_fract_x
_atom_site_fract_y
_atom_site_fract_z
Si Si1 0.922848 0.394481 0.641707
Si Si2 0.131925 0.175854 0.720749
Si Si3 0.429723 0.828917 0.442843
Si Si4 0.768022 0.495019 0.955407
O O1 0.897556 0.244649 0.707612
O O2 0.932996 0.240159 0.555279
O O3 0.851495 0.550642 0.532251
O O4 0.000000 0.523817 0.750000
O O5 0.128318 0.450858 0.657607
O O6 0.211152 0.047778 0.810051
O O7 0.082059 0.940706 0.627134
O O8 0.500000 0.000000 0.500000
O O9 0.750000 0.750000 0.000000
O O10 0.750000 0.250000 0.000000
#
# Coordination Sequence:
#
# PCOD9296622 Si02
#       4
#     8   8   8   8
#     4  11  25  46  74 107 142 195 235 295 365 421
#     4  11  25  48  70 102 150 182 238 300 350 426
#     4  12  26  45  72 108 141 186 243 296 355 426
#     4  10  23  45  70 103 140 187 233 289 355 421
#
# _framework density 23.889949999999999
#
# number of rings (size 3 to 8) (size 9 to 14) (size 15 to 20)
#    0.000    1.000    2.500    3.750    0.000    8.000 
#    0.000    0.000    0.000    0.000    0.000    0.000 
#    0.000    0.000    0.000    0.000    0.000    0.000 
#
# Total GULP energy -89158.043213 kJ/mol
# GULP energy per Si atom -5572.377701 kJ/mol
# Density = 2.383558 g / cm^3
# Si number density = 23.889950 Si / 1000 Ang^3
#
#
#
# Elastic Constant Matrix: (Units=GPa)
#
#
# Indices 1 2 3 4 5 6 
#
# 1 102.5570 1.2445 59.0886 0.0000 11.1638 0.0000
# 2 1.2445 106.4451 12.8434 0.0000 -13.8830 0.0000
# 3 59.0886 12.8434 129.2047 0.0000 5.4613 0.0000
# 4 0.0000 0.0000 0.0000 39.7731 0.0000 0.8653
# 5 11.1638 -13.8830 5.4613 0.0000 77.5513 0.0000
# 6 0.0000 0.0000 0.0000 0.8653 0.0000 9.2042
#
#
#
# Elastic Compliance Matrix: (Units=1/GPa)
#
#
# Indices 1 2 3 4 5 6 
#
# 1 0.013427 0.000395 -0.006119 0.000000 -0.001431 0.000000
# 2 0.000395 0.009770 -0.001227 0.000000 0.001779 0.000000
# 3 -0.006119 -0.001227 0.010664 0.000000 -0.000090 0.000000
# 4 0.000000 0.000000 0.000000 0.025194 0.000000 -0.002368
# 5 -0.001431 0.001779 -0.000090 0.000000 0.013425 0.000000
# 6 0.000000 0.000000 0.000000 -0.002368 0.000000 0.108869
#
#
# Mechanical properties :
#
#
# Convention : Reuss Voigt Hill
#
# Bulk Modulus (GPa) = 50.10491 53.83997 51.97244
# Shear Modulus (GPa) = 24.76399 42.97439 33.86919
#
# Velocity S-wave (km/s) = 3.22310 4.24588 3.76934
# Velocity P-wave (km/s) = 5.90507 6.82805 6.38327
#
# Compressibility (1/GPa) = 0.01995812
#
# Stress axis : x y z
#
# Youngs Moduli (GPa) = 74.47434 102.35523 93.77355
#
# Poissons Ratio (x) = -0.04040 0.57384
# Poissons Ratio (y) = -0.02939 0.11505
# Poissons Ratio (z) = 0.45574 0.12557
#
# Static dielectric constant tensor:
#      x y z
#    x 2.056310 0.000000 0.046090 
#    y 0.000000 1.875370 0.000000 
#    z 0.046090 0.000000 2.069110 
# 
# From -- ./inp_files/175206.got.cif
#   From: 2010.05.17/outbox.cif.g08.bks.cpg/sg15_88_cif.got.tgz:175206.got - 2010.06.03 18:47:42.
