data_PCOD9296351
_publ_section_title
;
Structure prediction by ZEFSAII (Michael W. Deem and Ramdas Pophale) SiO2 
 PCOD9296351
Probable space group: C 2/C
;
_chemical_formula_sum "Si O2"
_cell_formula_units_Z 32
_cell_length_a 23.078142
_cell_length_b 4.826147
_cell_length_c 13.943183
_cell_angle_alpha 90.000000
_cell_angle_beta 128.987847
_cell_angle_gamma 90.000000
_cell_volume 1207.092325
_symmetry_space_group_name_H-M "C 2/C"
_symmetry_group_IT_number 15
_symmetry_cell_setting 'monoclinic'
loop_
_space_group_symop_operation_xyz
x,y,z
-x,y,1/2-z
-x,-y,-z
x,-y,1/2+z
1/2+x,1/2+y,z
1/2-x,1/2+y,1/2-z
1/2-x,1/2-y,-z
1/2+x,1/2-y,1/2+z
loop_
_atom_site_type_symbol
_atom_site_label
_atom_site_fract_x
_atom_site_fract_y
_atom_site_fract_z
Si Si1 0.672033 0.965694 0.265862
Si Si2 0.953499 0.248026 0.493981
Si Si3 0.237532 0.440914 0.081794
Si Si4 0.578303 0.035295 0.347876
O O1 0.627059 0.812955 0.135124
O O2 0.712774 0.712427 0.360656
O O3 0.610933 0.091859 0.276704
O O4 0.729054 0.219207 0.305001
O O5 0.947124 0.230621 0.602448
O O6 0.000000 0.500000 0.500000
O O7 0.000000 0.000000 0.500000
O O8 0.250000 0.250000 0.000000
O O9 0.152801 0.557729 0.983342
O O10 0.500000 0.874945 0.250000
#
# Coordination Sequence:
#
# PCOD9296351 Si02
#       4
#     8   8   8   8
#     4  11  24  48  71 102 148 185 241 301 360 434
#     4  12  27  46  70 109 146 185 243 307 357 431
#     4  10  23  44  72 104 140 189 237 296 361 434
#     4  11  24  46  73 105 143 192 240 293 373 426
#
# _framework density 26.509988
#
# number of rings (size 3 to 8) (size 9 to 14) (size 15 to 20)
#    0.000    1.000    2.500    4.500    3.500    8.000 
#    0.000    0.000    0.000    0.000    0.000    0.000 
#    0.000    0.000    0.000    0.000    0.000    0.000 
#
# Total GULP energy -89177.167403 kJ/mol
# GULP energy per Si atom -5573.572963 kJ/mol
# Density = 2.644965 g / cm^3
# Si number density = 26.509988 Si / 1000 Ang^3
#
#
#
# Elastic Constant Matrix: (Units=GPa)
#
#
# Indices 1 2 3 4 5 6 
#
# 1 153.9035 39.4492 65.8127 0.0000 14.8930 0.0000
# 2 39.4492 172.9327 46.9317 0.0001 16.3362 0.0001
# 3 65.8127 46.9317 181.3611 0.0000 26.5903 0.0000
# 4 0.0000 0.0001 0.0000 37.7936 0.0000 7.9325
# 5 14.8930 16.3362 26.5903 0.0000 75.8545 0.0000
# 6 0.0000 0.0001 0.0000 7.9325 0.0000 18.7524
#
#
#
# Elastic Compliance Matrix: (Units=1/GPa)
#
#
# Indices 1 2 3 4 5 6 
#
# 1 0.007894 -0.001075 -0.002523 0.000000 -0.000434 0.000000
# 2 -0.001075 0.006414 -0.001158 0.000000 -0.000765 0.000000
# 3 -0.002523 -0.001158 0.006978 0.000000 -0.001702 0.000000
# 4 0.000000 0.000000 0.000000 0.029038 0.000000 -0.012283
# 5 -0.000434 -0.000765 -0.001702 0.000000 0.014029 0.000000
# 6 0.000000 0.000000 0.000000 -0.012283 0.000000 0.058522
#
#
# Mechanical properties :
#
#
# Convention : Reuss Voigt Hill
#
# Bulk Modulus (GPa) = 84.92132 90.28717 87.60424
# Shear Modulus (GPa) = 36.68054 50.21369 43.44712
#
# Velocity S-wave (km/s) = 3.72378 4.35690 4.05272
# Velocity P-wave (km/s) = 7.11280 7.70985 7.41734
#
# Compressibility (1/GPa) = 0.01177561
#
# Stress axis : x y z
#
# Youngs Moduli (GPa) = 126.67965 155.90330 143.30023
#
# Poissons Ratio (x) = 0.16762 0.36151
# Poissons Ratio (y) = 0.13620 0.16589
# Poissons Ratio (z) = 0.31958 0.18048
#
# Static dielectric constant tensor:
#      x y z
#    x 2.139740 0.000000 -0.074460 
#    y 0.000000 1.961870 0.000000 
#    z -0.074460 0.000000 2.304860 
# 
# From -- ./inp_files/170679.got.cif
#   From: 2010.05.17/outbox.cif.g08.bks.cpg/sg15_86_cif.got.tgz:170679.got - 2010.06.03 18:47:42.
