data_PCOD9296936
_publ_section_title
;
Structure prediction by ZEFSAII (Michael W. Deem and Ramdas Pophale) SiO2 
 PCOD9296936
Probable space group: C 2/C
;
_chemical_formula_sum "Si O2"
_cell_formula_units_Z 48
_cell_length_a 9.794265
_cell_length_b 15.461033
_cell_length_c 13.479199
_cell_angle_alpha 90.000000
_cell_angle_beta 67.575893
_cell_angle_gamma 90.000000
_cell_volume 1886.807624
_symmetry_space_group_name_H-M "C 2/C"
_symmetry_group_IT_number 15
_symmetry_cell_setting 'monoclinic'
loop_
_space_group_symop_operation_xyz
x,y,z
-x,y,1/2-z
-x,-y,-z
x,-y,1/2+z
1/2+x,1/2+y,z
1/2-x,1/2+y,1/2-z
1/2-x,1/2-y,-z
1/2+x,1/2-y,1/2+z
loop_
_atom_site_type_symbol
_atom_site_label
_atom_site_fract_x
_atom_site_fract_y
_atom_site_fract_z
Si Si1 0.988827 0.152312 0.617742
Si Si2 0.500000 0.506722 0.750000
Si Si3 0.072937 0.593552 0.470359
Si Si4 0.500000 0.218531 0.750000
Si Si5 0.190569 0.306577 0.378679
Si Si6 0.625043 0.364811 0.568995
Si Si7 0.856091 0.329961 0.739000
O O1 0.703395 0.120111 0.508521
O O2 0.961734 0.141293 0.509936
O O3 0.908974 0.238803 0.677467
O O4 0.159881 0.159337 0.607934
O O5 0.417031 0.573492 0.699532
O O6 0.573513 0.446283 0.647692
O O7 0.166413 0.604348 0.342998
O O8 0.000000 0.500000 0.500000
O O9 0.940194 0.662496 0.512659
O O10 0.592266 0.282249 0.649622
O O11 0.612066 0.169168 0.793601
O O12 0.230033 0.205028 0.346315
O O13 0.000000 0.367300 0.750000
#
# Coordination Sequence:
#
# PCOD9296936 Si02
#       7
#     8   4   8   4   8   8   8
#     4  11  23  46  75 102 143 207 266 311 387 472
#     4  11  22  44  70 103 152 200 256 311 386 462
#     4  12  27  47  71 112 155 192 256 325 395 454
#     4  11  24  44  76 109 154 198 260 323 390 466
#     4  11  24  46  76 106 148 201 257 328 382 457
#     4  11  26  44  71 112 154 199 251 324 394 472
#     4  10  23  46  73 104 145 194 261 313 378 468
#
# _framework density 25.439795
#
# number of rings (size 3 to 8) (size 9 to 14) (size 15 to 20)
#    0.000    1.000    4.167    2.500    2.333    7.333 
#    4.500    0.000    0.000    0.000    0.000    0.000 
#    0.000    0.000    0.000    0.000    0.000    0.000 
#
# Total GULP energy -133879.663666 kJ/mol
# GULP energy per Si atom -5578.319319 kJ/mol
# Density = 2.538189 g / cm^3
# Si number density = 25.439795 Si / 1000 Ang^3
#
#
#
# Elastic Constant Matrix: (Units=GPa)
#
#
# Indices 1 2 3 4 5 6 
#
# 1 204.5213 36.0807 67.8229 0.0000 8.5091 0.0000
# 2 36.0807 99.4689 52.9395 0.0000 -0.8856 0.0000
# 3 67.8229 52.9395 128.2640 0.0000 20.1799 0.0000
# 4 0.0000 0.0000 0.0000 42.1734 0.0000 2.7713
# 5 8.5091 -0.8856 20.1799 0.0000 47.6355 0.0000
# 6 0.0000 0.0000 0.0000 2.7713 0.0000 15.9109
#
#
#
# Elastic Compliance Matrix: (Units=1/GPa)
#
#
# Indices 1 2 3 4 5 6 
#
# 1 0.005960 -0.000601 -0.002929 0.000000 0.000165 0.000000
# 2 -0.000601 0.013269 -0.005587 0.000000 0.002721 0.000000
# 3 -0.002929 -0.005587 0.012413 0.000000 -0.004839 0.000000
# 4 0.000000 0.000000 0.000000 0.023986 0.000000 -0.004178
# 5 0.000165 0.002721 -0.004839 0.000000 0.023064 0.000000
# 6 0.000000 0.000000 0.000000 -0.004178 0.000000 0.063578
#
#
# Mechanical properties :
#
#
# Convention : Reuss Voigt Hill
#
# Bulk Modulus (GPa) = 74.58868 82.88227 78.73548
# Shear Modulus (GPa) = 30.30794 39.50470 34.90632
#
# Velocity S-wave (km/s) = 3.45535 3.94492 3.70823
# Velocity P-wave (km/s) = 6.73072 7.30756 7.02506
#
# Compressibility (1/GPa) = 0.01340686
#
# Stress axis : x y z
#
# Youngs Moduli (GPa) = 167.78217 75.36272 80.56354
#
# Poissons Ratio (x) = 0.04532 0.23600
# Poissons Ratio (y) = 0.10091 0.45009
# Poissons Ratio (z) = 0.49149 0.42103
#
# Static dielectric constant tensor:
#      x y z
#    x 2.204300 0.000000 -0.006590 
#    y 0.000000 2.010630 0.000000 
#    z -0.006590 0.000000 2.168400 
# 
# From -- ./inp_files/189819.got.cif
#   From: 2010.05.17/outbox.cif.g08.bks.cpg/sg15_95_cif.got.tgz:189819.got - 2010.06.03 18:47:42.
