data_PCOD9296420
_publ_section_title
;
Structure prediction by ZEFSAII (Michael W. Deem and Ramdas Pophale) SiO2 
 PCOD9296420
Probable space group: C 2/C
;
_chemical_formula_sum "Si O2"
_cell_formula_units_Z 36
_cell_length_a 5.578695
_cell_length_b 20.214702
_cell_length_c 14.281017
_cell_angle_alpha 90.000000
_cell_angle_beta 73.779709
_cell_angle_gamma 90.000000
_cell_volume 1546.387952
_symmetry_space_group_name_H-M "C 2/C"
_symmetry_group_IT_number 15
_symmetry_cell_setting 'monoclinic'
loop_
_space_group_symop_operation_xyz
x,y,z
-x,y,1/2-z
-x,-y,-z
x,-y,1/2+z
1/2+x,1/2+y,z
1/2-x,1/2+y,1/2-z
1/2-x,1/2-y,-z
1/2+x,1/2-y,1/2+z
loop_
_atom_site_type_symbol
_atom_site_label
_atom_site_fract_x
_atom_site_fract_y
_atom_site_fract_z
Si Si1 0.606706 0.973264 0.332841
Si Si2 0.000000 0.136984 0.750000
Si Si3 0.859790 0.800537 0.910176
Si Si4 0.376821 0.756401 0.885042
Si Si5 0.678808 0.554034 0.026740
O O1 0.500000 0.004962 0.250000
O O2 0.767165 0.911781 0.278606
O O3 0.411140 0.945357 0.430063
O O4 0.758404 0.025538 0.377764
O O5 0.017459 0.186285 0.660791
O O6 0.618641 0.803857 0.867357
O O7 0.913046 0.871861 0.949516
O O8 0.133214 0.774847 0.848912
O O9 0.750000 0.750000 0.000000
O O10 0.250000 0.750000 0.000000
O O11 0.500000 0.500000 0.000000
#
# Coordination Sequence:
#
# PCOD9296420 Si02
#       5
#     8   4   8   8   8
#     4  11  26  44  76 110 153 205 270 322 394 491
#     4  12  26  46  76 112 146 212 262 324 402 488
#     4  10  23  44  74 107 151 198 251 322 399 467
#     4  10  24  42  72 107 149 192 254 320 388 466
#     4  11  26  47  77 111 158 208 263 335 404 476
#
# _framework density 23.280055000000001
#
# number of rings (size 3 to 8) (size 9 to 14) (size 15 to 20)
#    0.000    1.333    0.000    4.000   21.778    0.000 
#    2.000    2.222    0.000    0.000    0.000    0.000 
#    0.000    0.000    0.000    0.000    0.000    0.000 
#
# Total GULP energy -100528.834472 kJ/mol
# GULP energy per Si atom -5584.935248 kJ/mol
# Density = 2.322707 g / cm^3
# Si number density = 23.280055 Si / 1000 Ang^3
#
#
#
# Elastic Constant Matrix: (Units=GPa)
#
#
# Indices 1 2 3 4 5 6 
#
# 1 158.7007 44.5040 28.3265 0.0000 3.5409 0.0000
# 2 44.5040 141.5455 43.1797 0.0000 -5.8219 0.0000
# 3 28.3265 43.1797 133.8125 0.0000 10.4328 0.0000
# 4 0.0000 0.0000 0.0000 42.1733 0.0000 -1.0514
# 5 3.5409 -5.8219 10.4328 0.0000 38.4626 0.0000
# 6 0.0000 0.0000 0.0000 -1.0514 0.0000 20.3763
#
#
#
# Elastic Compliance Matrix: (Units=1/GPa)
#
#
# Indices 1 2 3 4 5 6 
#
# 1 0.007018 -0.001998 -0.000784 0.000000 -0.000736 0.000000
# 2 -0.001998 0.008545 -0.002503 0.000000 0.002156 0.000000
# 3 -0.000784 -0.002503 0.008653 0.000000 -0.002654 0.000000
# 4 0.000000 0.000000 0.000000 0.023742 0.000000 0.001225
# 5 -0.000736 0.002156 -0.002654 0.000000 0.027113 0.000000
# 6 0.000000 0.000000 0.000000 0.001225 0.000000 0.049140
#
#
# Mechanical properties :
#
#
# Convention : Reuss Voigt Hill
#
# Bulk Modulus (GPa) = 73.26800 74.00877 73.63838
# Shear Modulus (GPa) = 35.88634 41.40567 38.64601
#
# Velocity S-wave (km/s) = 3.93046 4.22191 4.07879
# Velocity P-wave (km/s) = 7.22072 7.45826 7.34045
#
# Compressibility (1/GPa) = 0.01364852
#
# Stress axis : x y z
#
# Youngs Moduli (GPa) = 142.49778 117.02612 115.56030
#
# Poissons Ratio (x) = 0.23378 0.09055
# Poissons Ratio (y) = 0.28467 0.28920
# Poissons Ratio (z) = 0.11165 0.29287
#
# Static dielectric constant tensor:
#      x y z
#    x 1.962350 0.000000 0.066600 
#    y 0.000000 1.837820 0.000000 
#    z 0.066600 0.000000 1.899730 
# 
# From -- ./inp_files/128692.got.cif
#   From: 2010.05.17/outbox.cif.g08.bks.cpg/sg15_65_cif.got.tgz:128692.got - 2010.06.03 18:47:42.
