data_PCOD9296582
_publ_section_title
;
Structure prediction by ZEFSAII (Michael W. Deem and Ramdas Pophale) SiO2 
 PCOD9296582
Probable space group: C 2/C
;
_chemical_formula_sum "Si O2"
_cell_formula_units_Z 48
_cell_length_a 14.901799
_cell_length_b 16.062291
_cell_length_c 10.941557
_cell_angle_alpha 90.000000
_cell_angle_beta 62.989655
_cell_angle_gamma 90.000000
_cell_volume 2333.276674
_symmetry_space_group_name_H-M "C 2/C"
_symmetry_group_IT_number 15
_symmetry_cell_setting 'monoclinic'
loop_
_space_group_symop_operation_xyz
x,y,z
-x,y,1/2-z
-x,-y,-z
x,-y,1/2+z
1/2+x,1/2+y,z
1/2-x,1/2+y,1/2-z
1/2-x,1/2-y,-z
1/2+x,1/2-y,1/2+z
loop_
_atom_site_type_symbol
_atom_site_label
_atom_site_fract_x
_atom_site_fract_y
_atom_site_fract_z
Si Si1 0.783672 0.866088 0.792814
Si Si2 0.110233 0.723238 0.627481
Si Si3 0.195111 0.454234 0.068031
Si Si4 0.500000 0.645854 0.750000
Si Si5 0.000000 0.431761 0.750000
Si Si6 0.101757 0.044238 0.478224
Si Si7 0.592791 0.791112 0.848481
O O1 0.826363 0.801274 0.864773
O O2 0.871392 0.898199 0.653248
O O3 0.706221 0.819772 0.750943
O O4 0.723983 0.936861 0.907007
O O5 0.162605 0.636991 0.635219
O O6 0.095099 0.721347 0.491673
O O7 0.000000 0.727829 0.750000
O O8 0.098574 0.513375 0.154186
O O9 0.298080 0.488830 0.062967
O O10 0.574378 0.591454 0.620560
O O11 0.560484 0.707523 0.801861
O O12 0.975428 0.368227 0.654076
O O13 0.000000 0.000000 0.500000
#
# Coordination Sequence:
#
# PCOD9296582 Si02
#       7
#     8   8   8   4   4   8   8
#     4  11  25  44  71  99 138 181 230 277 339 411
#     4  11  24  43  70 100 135 186 225 279 340 405
#     4  11  24  44  67 104 133 178 228 280 345 395
#     4  11  26  46  70  97 138 182 222 277 350 406
#     4  11  22  46  70 103 138 174 230 285 344 402
#     4  12  27  46  70 101 139 181 228 286 342 405
#     4  10  23  45  68  99 138 173 227 281 331 417
#
# _framework density 20.571928
#
# number of rings (size 3 to 8) (size 9 to 14) (size 15 to 20)
#    0.000    1.000    2.500    4.000    7.000    4.667 
#    3.000    0.000    0.000    0.000    0.000    0.000 
#    0.000    0.000    0.000    0.000    0.000    0.000 
#
# Total GULP energy -134054.778576 kJ/mol
# GULP energy per Si atom -5585.615774 kJ/mol
# Density = 2.052511 g / cm^3
# Si number density = 20.571928 Si / 1000 Ang^3
#
#
#
# Elastic Constant Matrix: (Units=GPa)
#
#
# Indices 1 2 3 4 5 6 
#
# 1 154.4217 75.6708 47.6408 0.0000 -13.0689 0.0000
# 2 75.6708 91.1390 47.5854 0.0000 -0.4692 0.0000
# 3 47.6408 47.5854 93.7820 0.0000 -12.4663 0.0000
# 4 0.0000 0.0000 0.0000 31.2426 0.0000 -7.9735
# 5 -13.0689 -0.4692 -12.4663 0.0000 40.6821 0.0000
# 6 0.0000 0.0000 0.0000 -7.9735 0.0000 33.4787
#
#
#
# Elastic Compliance Matrix: (Units=1/GPa)
#
#
# Indices 1 2 3 4 5 6 
#
# 1 0.011447 -0.009092 -0.000758 0.000000 0.003340 0.000000
# 2 -0.009092 0.022346 -0.007374 0.000000 -0.004923 0.000000
# 3 -0.000758 -0.007374 0.015372 0.000000 0.004382 0.000000
# 4 0.000000 0.000000 0.000000 0.034079 0.000000 0.008116
# 5 0.003340 -0.004923 0.004382 0.000000 0.026940 0.000000
# 6 0.000000 0.000000 0.000000 0.008116 0.000000 0.031803
#
#
# Mechanical properties :
#
#
# Convention : Reuss Voigt Hill
#
# Bulk Modulus (GPa) = 67.94532 75.68184 71.81358
# Shear Modulus (GPa) = 27.57241 32.31039 29.94140
#
# Velocity S-wave (km/s) = 3.66497 3.96739 3.81917
# Velocity P-wave (km/s) = 7.14208 7.60629 7.37783
#
# Compressibility (1/GPa) = 0.01471772
#
# Stress axis : x y z
#
# Youngs Moduli (GPa) = 87.35555 44.75154 65.05197
#
# Poissons Ratio (x) = 0.40686 0.04932
# Poissons Ratio (y) = 0.79420 0.47970
# Poissons Ratio (z) = 0.06623 0.33000
#
# Static dielectric constant tensor:
#      x y z
#    x 1.767240 0.000000 -0.027910 
#    y 0.000000 1.759610 0.000000 
#    z -0.027910 0.000000 1.838820 
# 
# From -- ./inp_files/96911.got.cif
#   From: 2010.05.17/outbox.cif.g08.bks.cpg/sg15_49_cif.got.tgz:96911.got - 2010.06.03 18:47:42.
