data_PCOD9296601
_publ_section_title
;
Structure prediction by ZEFSAII (Michael W. Deem and Ramdas Pophale) SiO2 
 PCOD9296601
Probable space group: C 2/C
;
_chemical_formula_sum "Si O2"
_cell_formula_units_Z 32
_cell_length_a 10.399433
_cell_length_b 24.833770
_cell_length_c 10.648533
_cell_angle_alpha 90.000000
_cell_angle_beta 29.096456
_cell_angle_gamma 90.000000
_cell_volume 1337.302619
_symmetry_space_group_name_H-M "C 2/C"
_symmetry_group_IT_number 15
_symmetry_cell_setting 'monoclinic'
loop_
_space_group_symop_operation_xyz
x,y,z
-x,y,1/2-z
-x,-y,-z
x,-y,1/2+z
1/2+x,1/2+y,z
1/2-x,1/2+y,1/2-z
1/2-x,1/2-y,-z
1/2+x,1/2-y,1/2+z
loop_
_atom_site_type_symbol
_atom_site_label
_atom_site_fract_x
_atom_site_fract_y
_atom_site_fract_z
Si Si1 0.512045 0.087972 0.397696
Si Si2 0.298259 0.973974 0.524638
Si Si3 0.988983 0.160009 0.617047
Si Si4 0.291692 0.690325 0.520279
O O1 0.654963 0.054163 0.383488
O O2 0.278815 0.125099 0.648527
O O3 0.345527 0.038404 0.480594
O O4 0.741181 0.124639 0.135656
O O5 0.000000 0.964307 0.750000
O O6 0.500000 0.952171 0.250000
O O7 0.926187 0.193662 0.543615
O O8 0.000000 0.184899 0.750000
O O9 0.250000 0.750000 0.500000
O O10 0.000000 0.665896 0.750000
O O11 0.500000 0.662076 0.250000
#
# Coordination Sequence:
#
# PCOD9296601 Si02
#       4
#     8   8   8   8
#     4  11  24  38  59  91 129 172 222 271 316 376
#     4  11  22  38  58  85 127 180 225 267 318 370
#     4  12  24  41  66  96 129 170 217 270 328 388
#     4  10  23  45  69  96 129 163 203 264 333 397
#
# _framework density 23.928764999999999
#
# number of rings (size 3 to 8) (size 9 to 14) (size 15 to 20)
#    0.000    1.000    0.000    7.500    0.000   10.000 
#    0.000    5.000    0.000    0.000    0.000    0.000 
#    0.000    0.000    0.000    0.000    0.000    0.000 
#
# Total GULP energy -89230.204891 kJ/mol
# GULP energy per Si atom -5576.887806 kJ/mol
# Density = 2.387430 g / cm^3
# Si number density = 23.928765 Si / 1000 Ang^3
#
#
#
# Elastic Constant Matrix: (Units=GPa)
#
#
# Indices 1 2 3 4 5 6 
#
# 1 58.9286 45.3923 17.2764 0.0000 -3.8120 0.0000
# 2 45.3923 83.6838 24.3571 0.0000 5.4148 0.0000
# 3 17.2764 24.3571 191.1958 0.0000 -33.1812 0.0000
# 4 0.0000 0.0000 0.0000 10.6357 0.0000 5.7243
# 5 -3.8120 5.4148 -33.1812 0.0000 57.0460 0.0000
# 6 0.0000 0.0000 0.0000 5.7243 0.0000 43.5436
#
#
#
# Elastic Compliance Matrix: (Units=1/GPa)
#
#
# Indices 1 2 3 4 5 6 
#
# 1 0.029848 -0.016425 0.000013 0.000000 0.003561 0.000000
# 2 -0.016425 0.021734 -0.002039 0.000000 -0.004346 0.000000
# 3 0.000013 -0.002039 0.006143 0.000000 0.003767 0.000000
# 4 0.000000 0.000000 0.000000 0.101181 0.000000 -0.013301
# 5 0.003561 -0.004346 0.003767 0.000000 0.020372 0.000000
# 6 0.000000 0.000000 0.000000 -0.013301 0.000000 0.024714
#
#
# Mechanical properties :
#
#
# Convention : Reuss Voigt Hill
#
# Bulk Modulus (GPa) = 48.02196 56.42888 52.22542
# Shear Modulus (GPa) = 20.17489 38.69722 29.43605
#
# Velocity S-wave (km/s) = 2.90681 4.02579 3.51116
# Velocity P-wave (km/s) = 5.60164 6.72625 6.18954
#
# Compressibility (1/GPa) = 0.02082380
#
# Stress axis : x y z
#
# Youngs Moduli (GPa) = 33.50312 46.01172 162.79837
#
# Poissons Ratio (x) = 0.75573 -0.00218
# Poissons Ratio (y) = 0.55028 0.33193
# Poissons Ratio (z) = -0.00045 0.09381
#
# Static dielectric constant tensor:
#      x y z
#    x 2.372210 0.000000 -0.281230 
#    y 0.000000 2.039440 0.000000 
#    z -0.281230 0.000000 2.355920 
# 
# From -- ./inp_files/90551.got.cif
#   From: 2010.05.17/outbox.cif.g08.bks.cpg/sg15_46_cif.got.tgz:90551.got - 2010.06.03 18:47:42.
