data_PCOD9296295
_publ_section_title
;
Structure prediction by ZEFSAII (Michael W. Deem and Ramdas Pophale) SiO2 
 PCOD9296295
Probable space group: C 2/C
;
_chemical_formula_sum "Si O2"
_cell_formula_units_Z 36
_cell_length_a 26.799514
_cell_length_b 9.928660
_cell_length_c 14.854294
_cell_angle_alpha 90.000000
_cell_angle_beta 20.043730
_cell_angle_gamma 90.000000
_cell_volume 1354.661778
_symmetry_space_group_name_H-M "C 2/C"
_symmetry_group_IT_number 15
_symmetry_cell_setting 'monoclinic'
loop_
_space_group_symop_operation_xyz
x,y,z
-x,y,1/2-z
-x,-y,-z
x,-y,1/2+z
1/2+x,1/2+y,z
1/2-x,1/2+y,1/2-z
1/2-x,1/2-y,-z
1/2+x,1/2-y,1/2+z
loop_
_atom_site_type_symbol
_atom_site_label
_atom_site_fract_x
_atom_site_fract_y
_atom_site_fract_z
Si Si1 0.868630 0.028999 0.153952
Si Si2 0.262705 0.255327 0.361340
Si Si3 0.000000 0.920455 0.250000
Si Si4 0.471258 0.915167 0.403689
Si Si5 0.063056 0.677417 0.928076
O O1 0.650648 0.198839 0.373002
O O2 0.921507 0.001192 0.962765
O O3 0.849080 0.188445 0.198487
O O4 0.000000 0.000000 0.000000
O O5 0.114948 0.174263 0.605860
O O6 0.250792 0.416040 0.378031
O O7 0.387126 0.210611 0.222804
O O8 0.500000 0.919252 0.250000
O O9 0.414101 0.057276 0.540784
O O10 0.590063 0.873145 0.279517
#
# Coordination Sequence:
#
# PCOD9296295 Si02
#       5
#     8   8   4   8   8
#     4  10  23  44  71 102 140 190 248 293 363 427
#     4   9  22  44  68 104 147 190 242 292 363 442
#     4  12  26  44  70 110 154 190 232 306 364 434
#     4   9  18  38  73 106 151 188 241 305 363 418
#     4   8  19  40  68 110 139 185 255 293 360 435
#
# _framework density 26.5749
#
# number of rings (size 3 to 8) (size 9 to 14) (size 15 to 20)
#    1.333    1.333    0.000    0.000    3.111    5.333 
#    4.000    0.000    0.000    8.000    0.000    0.000 
#    0.000    0.000    0.000    0.000    0.000    0.000 
#
# Total GULP energy -100632.170086 kJ/mol
# GULP energy per Si atom -5590.676116 kJ/mol
# Density = 2.651441 g / cm^3
# Si number density = 26.574900 Si / 1000 Ang^3
#
#
#
# Elastic Constant Matrix: (Units=GPa)
#
#
# Indices 1 2 3 4 5 6 
#
# 1 207.2353 32.7904 24.2728 0.0000 17.2625 0.0000
# 2 32.7904 187.3430 17.1799 0.0000 9.6454 0.0000
# 3 24.2728 17.1799 57.4960 0.0000 -9.6901 0.0000
# 4 0.0000 0.0000 0.0000 36.7982 0.0000 4.3247
# 5 17.2625 9.6454 -9.6901 0.0000 40.2994 0.0000
# 6 0.0000 0.0000 0.0000 4.3247 0.0000 26.4434
#
#
#
# Elastic Compliance Matrix: (Units=1/GPa)
#
#
# Indices 1 2 3 4 5 6 
#
# 1 0.005457 -0.000570 -0.002610 0.000000 -0.002829 0.000000
# 2 -0.000570 0.005673 -0.001711 0.000000 -0.001525 0.000000
# 3 -0.002610 -0.001711 0.020077 0.000000 0.006355 0.000000
# 4 0.000000 0.000000 0.000000 0.027708 0.000000 -0.004532
# 5 -0.002829 -0.001525 0.006355 0.000000 0.027919 0.000000
# 6 0.000000 0.000000 0.000000 -0.004532 0.000000 0.038558
#
#
# Mechanical properties :
#
#
# Convention : Reuss Voigt Hill
#
# Bulk Modulus (GPa) = 46.67776 66.72896 56.70336
# Shear Modulus (GPa) = 35.13303 45.89695 40.51499
#
# Velocity S-wave (km/s) = 3.63993 4.16032 3.90880
# Velocity P-wave (km/s) = 5.93870 6.94565 6.46182
#
# Compressibility (1/GPa) = 0.02142348
#
# Stress axis : x y z
#
# Youngs Moduli (GPa) = 183.25127 176.27174 49.80852
#
# Poissons Ratio (x) = 0.10050 0.13001
# Poissons Ratio (y) = 0.10448 0.08525
# Poissons Ratio (z) = 0.47831 0.30168
#
# Static dielectric constant tensor:
#      x y z
#    x 2.113320 0.000000 0.037800 
#    y 0.000000 2.012970 0.000000 
#    z 0.037800 0.000000 2.092690 
# 
# From -- ./inp_files/167476.got.cif
#   From: 2010.05.17/outbox.cif.g08.bks.cpg/sg15_84_cif.got.tgz:167476.got - 2010.06.03 18:47:42.
