data_PCOD9296339
_publ_section_title
;
Structure prediction by ZEFSAII (Michael W. Deem and Ramdas Pophale) SiO2 
 PCOD9296339
Probable space group: C 2/C
;
_chemical_formula_sum "Si O2"
_cell_formula_units_Z 32
_cell_length_a 22.178855
_cell_length_b 7.729094
_cell_length_c 9.107059
_cell_angle_alpha 90.000000
_cell_angle_beta 69.409512
_cell_angle_gamma 90.000000
_cell_volume 1461.424643
_symmetry_space_group_name_H-M "C 2/C"
_symmetry_group_IT_number 15
_symmetry_cell_setting 'monoclinic'
loop_
_space_group_symop_operation_xyz
x,y,z
-x,y,1/2-z
-x,-y,-z
x,-y,1/2+z
1/2+x,1/2+y,z
1/2-x,1/2+y,1/2-z
1/2-x,1/2-y,-z
1/2+x,1/2-y,1/2+z
loop_
_atom_site_type_symbol
_atom_site_label
_atom_site_fract_x
_atom_site_fract_y
_atom_site_fract_z
Si Si1 0.459147 0.620669 0.428361
Si Si2 0.190050 0.409930 0.085996
Si Si3 0.637376 0.811965 0.820630
Si Si4 0.172276 0.023639 0.111141
O O1 0.500000 0.668514 0.250000
O O2 0.500000 0.500000 0.500000
O O3 0.432149 0.775471 0.550516
O O4 0.393676 0.528474 0.425886
O O5 0.140331 0.544470 0.193947
O O6 0.179296 0.220697 0.166734
O O7 0.178959 0.378605 0.922764
O O8 0.261683 0.488459 0.038582
O O9 0.664943 0.633923 0.729127
#
# Coordination Sequence:
#
# PCOD9296339 Si02
#       4
#     8   8   8   8
#     4  11  23  45  73  97 133 195 241 275 342 415
#     4  10  25  41  70 111 138 178 234 287 367 412
#     4  11  24  44  71 102 143 183 226 293 349 420
#     4  10  23  44  72 100 145 182 227 294 349 419
#
# _framework density 21.896440999999999
#
# number of rings (size 3 to 8) (size 9 to 14) (size 15 to 20)
#    0.000    1.500    2.500    0.750   10.500    4.000 
#    0.000    5.000   11.000    0.000    0.000    0.000 
#    0.000    0.000    0.000    0.000    0.000    0.000 
#
# Total GULP energy -89337.898571 kJ/mol
# GULP energy per Si atom -5583.618661 kJ/mol
# Density = 2.184660 g / cm^3
# Si number density = 21.896441 Si / 1000 Ang^3
#
#
#
# Elastic Constant Matrix: (Units=GPa)
#
#
# Indices 1 2 3 4 5 6 
#
# 1 130.8567 22.5839 45.7446 0.0000 -7.5382 0.0000
# 2 22.5839 107.1412 95.4309 0.0000 -7.5618 0.0000
# 3 45.7446 95.4309 137.7377 0.0000 -18.1406 0.0000
# 4 0.0000 0.0000 0.0000 60.7007 0.0000 -12.5600
# 5 -7.5382 -7.5618 -18.1406 0.0000 31.3071 0.0000
# 6 0.0000 0.0000 0.0000 -12.5600 0.0000 19.6466
#
#
#
# Elastic Compliance Matrix: (Units=1/GPa)
#
#
# Indices 1 2 3 4 5 6 
#
# 1 0.008800 0.001939 -0.004250 0.000000 0.000125 0.000000
# 2 0.001939 0.025330 -0.018758 0.000000 -0.004284 0.000000
# 3 -0.004250 -0.018758 0.022666 0.000000 0.007580 0.000000
# 4 0.000000 0.000000 0.000000 0.018986 0.000000 0.012138
# 5 0.000125 -0.004284 0.007580 0.000000 0.035329 0.000000
# 6 0.000000 0.000000 0.000000 0.012138 0.000000 0.058659
#
#
# Mechanical properties :
#
#
# Convention : Reuss Voigt Hill
#
# Bulk Modulus (GPa) = 68.21685 78.13938 73.17811
# Shear Modulus (GPa) = 23.06331 36.46263 29.76297
#
# Velocity S-wave (km/s) = 3.24896 4.08515 3.69081
# Velocity P-wave (km/s) = 6.73025 7.61673 7.18717
#
# Compressibility (1/GPa) = 0.01465913
#
# Stress axis : x y z
#
# Youngs Moduli (GPa) = 113.63550 39.47826 44.11818
#
# Poissons Ratio (x) = -0.07655 0.18749
# Poissons Ratio (y) = -0.22034 0.82758
# Poissons Ratio (z) = 0.48291 0.74054
#
# Static dielectric constant tensor:
#      x y z
#    x 1.846710 0.000000 0.006600 
#    y 0.000000 1.822600 0.000000 
#    z 0.006600 0.000000 1.821620 
# 
# From -- ./inp_files/59607.got.cif
#   From: 2010.05.17/outbox.cif.g08.bks.cpg/sg15_30_cif.got.tgz:59607.got - 2010.06.03 18:47:42.
