data_PCOD9296890
_publ_section_title
;
Structure prediction by ZEFSAII (Michael W. Deem and Ramdas Pophale) SiO2 
 PCOD9296890
Probable space group: C 2/C
;
_chemical_formula_sum "Si O2"
_cell_formula_units_Z 48
_cell_length_a 27.959224
_cell_length_b 5.171157
_cell_length_c 20.008228
_cell_angle_alpha 90.000000
_cell_angle_beta 135.487844
_cell_angle_gamma 90.000000
_cell_volume 2028.042297
_symmetry_space_group_name_H-M "C 2/C"
_symmetry_group_IT_number 15
_symmetry_cell_setting 'monoclinic'
loop_
_space_group_symop_operation_xyz
x,y,z
-x,y,1/2-z
-x,-y,-z
x,-y,1/2+z
1/2+x,1/2+y,z
1/2-x,1/2+y,1/2-z
1/2-x,1/2-y,-z
1/2+x,1/2-y,1/2+z
loop_
_atom_site_type_symbol
_atom_site_label
_atom_site_fract_x
_atom_site_fract_y
_atom_site_fract_z
Si Si1 0.318495 0.434791 0.542647
Si Si2 0.400315 0.356657 0.996764
Si Si3 0.264195 0.653309 0.296551
Si Si4 0.436209 0.116398 0.735859
Si Si5 0.808567 0.646208 0.141707
Si Si6 0.483723 0.133236 0.556482
O O1 0.360157 0.574019 0.524276
O O2 0.377963 0.252389 0.631859
O O3 0.242708 0.408936 0.432172
O O4 0.297542 0.619732 0.581531
O O5 0.436551 0.612439 0.003479
O O6 0.448087 0.111889 0.056790
O O7 0.341836 0.268590 0.887313
O O8 0.261132 0.344941 0.285879
O O9 0.215943 0.719522 0.309984
O O10 0.500000 0.073414 0.750000
O O11 0.461970 0.231153 0.832800
O O12 0.389541 0.886855 0.717219
O O13 0.500000 0.000000 0.500000
#
# Coordination Sequence:
#
# PCOD9296890 Si02
#       6
#     8   8   8   8   8   8
#     4  10  23  46  71 106 141 191 249 321 374 438
#     4  11  25  49  72 103 152 192 251 313 376 441
#     4  11  26  46  76 107 144 197 252 310 375 452
#     4  12  25  43  74 106 147 195 247 308 371 455
#     4  10  25  43  73 104 144 190 253 316 375 441
#     4  12  28  46  73 106 152 203 245 306 376 458
#
# _framework density 23.668146
#
# number of rings (size 3 to 8) (size 9 to 14) (size 15 to 20)
#    0.000    1.000    1.667    3.000    9.333    0.667 
#    0.000    0.000    0.000    0.000    0.000    0.000 
#    0.000    0.000    0.000    0.000    0.000    0.000 
#
# Total GULP energy -133602.390997 kJ/mol
# GULP energy per Si atom -5566.766292 kJ/mol
# Density = 2.361428 g / cm^3
# Si number density = 23.668146 Si / 1000 Ang^3
#
#
#
# Elastic Constant Matrix: (Units=GPa)
#
#
# Indices 1 2 3 4 5 6 
#
# 1 130.8401 27.3011 38.0687 -0.0018 9.7886 0.0009
# 2 27.3011 91.4002 -2.5255 -0.0040 6.1746 0.0018
# 3 38.0687 -2.5255 47.0428 0.0005 -11.0422 0.0011
# 4 -0.0018 -0.0040 0.0005 30.7824 0.0011 -1.3023
# 5 9.7886 6.1746 -11.0422 0.0011 29.3382 0.0017
# 6 0.0009 0.0018 0.0011 -1.3023 0.0017 65.9268
#
#
#
# Elastic Compliance Matrix: (Units=1/GPa)
#
#
# Indices 1 2 3 4 5 6 
#
# 1 0.012540 -0.003540 -0.012225 0.000001 -0.008040 0.000000
# 2 -0.003540 0.012098 0.003504 0.000001 -0.000046 0.000000
# 3 -0.012225 0.003504 0.035236 -0.000001 0.016603 -0.000001
# 4 0.000001 0.000001 -0.000001 0.032513 -0.000002 0.000642
# 5 -0.008040 -0.000046 0.016603 -0.000002 0.043027 -0.000001
# 6 0.000000 0.000000 -0.000001 0.000642 -0.000001 0.015181
#
#
# Mechanical properties :
#
#
# Convention : Reuss Voigt Hill
#
# Bulk Modulus (GPa) = 28.28834 43.88573 36.08704
# Shear Modulus (GPa) = 26.75187 38.97207 32.86197
#
# Velocity S-wave (km/s) = 3.36563 4.06224 3.73023
# Velocity P-wave (km/s) = 5.20397 6.37062 5.81661
#
# Compressibility (1/GPa) = 0.03535025
#
# Stress axis : x y z
#
# Youngs Moduli (GPa) = 79.74352 82.65596 28.38023
#
# Poissons Ratio (x) = 0.29263 0.34696
# Poissons Ratio (y) = 0.28232 -0.09943
# Poissons Ratio (z) = 0.97489 -0.28960
#
# Static dielectric constant tensor:
#      x y z
#    x 1.898860 0.000000 -0.016470 
#    y 0.000000 1.883990 -0.000010 
#    z -0.016470 -0.000010 2.168290 
# 
# From -- ./inp_files/256640.got.cif
#   From: 2010.05.17/outbox.cif.g08.bks.cpg/sg15_129_cif.got.tgz:256640.got - 2010.06.03 18:47:42.
