data_PCOD9296204
_publ_section_title
;
Structure prediction by ZEFSAII (Michael W. Deem and Ramdas Pophale) SiO2 
 PCOD9296204
Probable space group: C 2/C
;
_chemical_formula_sum "Si O2"
_cell_formula_units_Z 48
_cell_length_a 29.269556
_cell_length_b 8.322819
_cell_length_c 19.608347
_cell_angle_alpha 90.000000
_cell_angle_beta 23.778677
_cell_angle_gamma 90.000000
_cell_volume 1925.986413
_symmetry_space_group_name_H-M "C 2/C"
_symmetry_group_IT_number 15
_symmetry_cell_setting 'monoclinic'
loop_
_space_group_symop_operation_xyz
x,y,z
-x,y,1/2-z
-x,-y,-z
x,-y,1/2+z
1/2+x,1/2+y,z
1/2-x,1/2+y,1/2-z
1/2-x,1/2-y,-z
1/2+x,1/2-y,1/2+z
loop_
_atom_site_type_symbol
_atom_site_label
_atom_site_fract_x
_atom_site_fract_y
_atom_site_fract_z
Si Si1 0.852915 0.540014 0.995552
Si Si2 0.653790 0.561436 0.850267
Si Si3 0.996468 0.743386 0.467465
Si Si4 0.832515 0.706324 0.804341
Si Si5 0.652909 0.116039 0.136748
Si Si6 0.514922 0.676048 0.153494
O O1 0.782376 0.464576 0.153619
O O2 0.772069 0.683362 0.075783
O O3 0.872313 0.419019 0.907885
O O4 0.962248 0.633461 0.871620
O O5 0.600831 0.694141 0.871772
O O6 0.581735 0.399449 0.938896
O O7 0.625318 0.608518 0.965651
O O8 0.049165 0.676686 0.325960
O O9 0.912117 0.646990 0.632874
O O10 0.803254 0.548631 0.887390
O O11 0.910851 0.827583 0.743165
O O12 0.750000 0.250000 0.000000
O O13 0.500000 0.611426 0.250000
#
# Coordination Sequence:
#
# PCOD9296204 Si02
#       6
#     8   8   8   8   8   8
#     4  11  23  45  66  97 134 171 221 271 324 392
#     4   9  20  42  62  93 127 170 212 273 321 384
#     4   9  19  39  68  93 126 166 220 264 327 386
#     4  10  23  44  69  90 132 180 214 264 332 389
#     4  12  22  35  67 104 125 164 221 273 320 386
#     4  11  23  41  68  91 131 174 218 259 330 395
#
# _framework density 24.922295999999999
#
# number of rings (size 3 to 8) (size 9 to 14) (size 15 to 20)
#    0.000    1.667    3.333    2.000    0.000    0.000 
#   12.000    1.667    3.667    0.000    0.000    0.000 
#    0.000    0.000    0.000    0.000    0.000    0.000 
#
# Total GULP energy -134323.419215 kJ/mol
# GULP energy per Si atom -5596.809134 kJ/mol
# Density = 2.486557 g / cm^3
# Si number density = 24.922296 Si / 1000 Ang^3
#
#
#
# Elastic Constant Matrix: (Units=GPa)
#
#
# Indices 1 2 3 4 5 6 
#
# 1 79.8372 2.4522 37.5402 0.0002 15.9365 0.0000
# 2 2.4522 36.6529 28.5532 0.0024 12.9435 -0.0009
# 3 37.5402 28.5532 172.3749 0.0013 47.7568 -0.0004
# 4 0.0002 0.0024 0.0013 57.8567 -0.0003 11.4165
# 5 15.9365 12.9435 47.7568 -0.0003 57.3433 0.0000
# 6 0.0000 -0.0009 -0.0004 11.4165 0.0000 34.9593
#
#
#
# Elastic Compliance Matrix: (Units=1/GPa)
#
#
# Indices 1 2 3 4 5 6 
#
# 1 0.014215 0.001994 -0.002869 0.000000 -0.002011 0.000000
# 2 0.001994 0.032179 -0.004678 -0.000002 -0.003922 0.000001
# 3 -0.002869 -0.004678 0.008693 0.000000 -0.005387 0.000000
# 4 0.000000 -0.000002 0.000000 0.018475 0.000000 -0.006033
# 5 -0.002011 -0.003922 -0.005387 0.000000 0.023369 0.000000
# 6 0.000000 0.000001 0.000000 -0.006033 0.000000 0.030575
#
#
# Mechanical properties :
#
#
# Convention : Reuss Voigt Hill
#
# Bulk Modulus (GPa) = 22.73691 47.32847 35.03269
# Shear Modulus (GPa) = 32.62183 44.71981 38.67082
#
# Velocity S-wave (km/s) = 3.62185 4.24060 3.94338
# Velocity P-wave (km/s) = 5.16075 6.55809 5.90093
#
# Compressibility (1/GPa) = 0.04398134
#
# Stress axis : x y z
#
# Youngs Moduli (GPa) = 70.34993 31.07639 115.02953
#
# Poissons Ratio (x) = -0.06197 0.32999
# Poissons Ratio (y) = -0.14028 0.53812
# Poissons Ratio (z) = 0.20182 0.14538
#
# Static dielectric constant tensor:
#      x y z
#    x 1.989440 0.000000 0.025050 
#    y 0.000000 1.999910 0.000000 
#    z 0.025050 0.000000 2.029670 
# 
# From -- ./inp_files/208959.got.cif
#   From: 2010.05.17/outbox.cif.g08.bks.cpg/sg15_105_cif.got.tgz:208959.got - 2010.06.03 18:47:42.
