data_PCOD9296903
_publ_section_title
;
Structure prediction by ZEFSAII (Michael W. Deem and Ramdas Pophale) SiO2 
 PCOD9296903
Probable space group: C 2/C
;
_chemical_formula_sum "Si O2"
_cell_formula_units_Z 64
_cell_length_a 10.836383
_cell_length_b 12.139366
_cell_length_c 23.901112
_cell_angle_alpha 90.000000
_cell_angle_beta 107.052374
_cell_angle_gamma 90.000000
_cell_volume 3005.890837
_symmetry_space_group_name_H-M "C 2/C"
_symmetry_group_IT_number 15
_symmetry_cell_setting 'monoclinic'
loop_
_space_group_symop_operation_xyz
x,y,z
-x,y,1/2-z
-x,-y,-z
x,-y,1/2+z
1/2+x,1/2+y,z
1/2-x,1/2+y,1/2-z
1/2-x,1/2-y,-z
1/2+x,1/2-y,1/2+z
loop_
_atom_site_type_symbol
_atom_site_label
_atom_site_fract_x
_atom_site_fract_y
_atom_site_fract_z
Si Si1 0.615051 0.774027 0.812564
Si Si2 0.214242 0.310674 0.937401
Si Si3 0.676443 0.421345 0.892564
Si Si4 0.132622 0.479846 0.487846
Si Si5 0.141832 0.522187 0.794526
Si Si6 0.842866 0.049444 0.722798
Si Si7 0.431753 0.528424 0.432074
Si Si8 0.720511 0.837102 0.403317
O O1 0.500000 0.776312 0.750000
O O2 0.620940 0.748271 0.880585
O O3 0.696616 0.673198 0.800110
O O4 0.659800 0.899251 0.820367
O O5 0.143159 0.421779 0.945686
O O6 0.347121 0.360508 0.929802
O O7 0.250000 0.250000 0.000000
O O8 0.691897 0.467757 0.832293
O O9 0.531709 0.443557 0.895995
O O10 0.724423 0.294460 0.900794
O O11 0.761259 0.485185 0.949672
O O12 0.157434 0.371152 0.454313
O O13 0.000000 0.500000 0.500000
O O14 0.259881 0.530625 0.766943
O O15 0.140096 0.616963 0.840549
O O16 0.000000 0.524668 0.750000
O O17 0.000000 0.044290 0.750000
O O18 0.500000 0.500000 0.500000
O O19 0.346417 0.416812 0.412496
#
# Coordination Sequence:
#
# PCOD9296903 Si02
#       8
#     8   8   8   8   8   8   8   8
#     4  10  23  46  71  98 144 192 240 296 369 444
#     4  11  23  42  70 103 140 190 241 301 365 434
#     4  12  26  46  74 105 142 189 240 302 374 439
#     4  11  25  43  65 107 141 178 242 296 358 441
#     4  11  25  48  71 101 143 188 241 301 372 436
#     4  11  27  47  72 106 139 185 247 298 361 451
#     4  11  23  44  67 102 146 186 235 295 370 438
#     4  11  25  47  70 104 146 188 236 302 369 446
#
# _framework density 21.291525
#
# number of rings (size 3 to 8) (size 9 to 14) (size 15 to 20)
#    0.000    1.000    5.000    1.875    5.250    1.500 
#    4.500    0.000    0.000    0.000    0.000    0.000 
#    0.000    0.000    0.000    0.000    0.000    0.000 
#
# Total GULP energy -178256.417947 kJ/mol
# GULP energy per Si atom -5570.513061 kJ/mol
# Density = 2.124306 g / cm^3
# Si number density = 21.291525 Si / 1000 Ang^3
#
#
#
# Elastic Constant Matrix: (Units=GPa)
#
#
# Indices 1 2 3 4 5 6 
#
# 1 80.7776 5.9643 14.3990 0.0000 3.8668 0.0000
# 2 5.9643 67.0147 18.2773 0.0000 -1.0366 0.0000
# 3 14.3990 18.2773 133.0157 0.0000 9.8110 0.0000
# 4 0.0000 0.0000 0.0000 42.8785 0.0000 1.0322
# 5 3.8668 -1.0366 9.8110 0.0000 18.3231 0.0000
# 6 0.0000 0.0000 0.0000 1.0322 0.0000 12.9568
#
#
#
# Elastic Compliance Matrix: (Units=1/GPa)
#
#
# Indices 1 2 3 4 5 6 
#
# 1 0.012743 -0.000867 -0.001102 0.000000 -0.002148 0.000000
# 2 -0.000867 0.015640 -0.002222 0.000000 0.002257 0.000000
# 3 -0.001102 -0.002222 0.008261 0.000000 -0.004316 0.000000
# 4 0.000000 0.000000 0.000000 0.023367 0.000000 -0.001861
# 5 -0.002148 0.002257 -0.004316 0.000000 0.057468 0.000000
# 6 0.000000 0.000000 0.000000 -0.001861 0.000000 0.077328
#
#
# Mechanical properties :
#
#
# Convention : Reuss Voigt Hill
#
# Bulk Modulus (GPa) = 35.38192 39.78767 37.58479
# Shear Modulus (GPa) = 23.51749 30.97620 27.24684
#
# Velocity S-wave (km/s) = 3.32708 3.81840 3.58118
# Velocity P-wave (km/s) = 5.60475 6.17802 5.89835
#
# Compressibility (1/GPa) = 0.02826302
#
# Stress axis : x y z
#
# Youngs Moduli (GPa) = 78.47495 63.93823 121.05315
#
# Poissons Ratio (x) = 0.05542 0.13338
# Poissons Ratio (y) = 0.06802 0.26895
# Poissons Ratio (z) = 0.08647 0.14205
#
# Static dielectric constant tensor:
#      x y z
#    x 0.936100 0.000000 0.355820 
#    y 0.000000 1.765610 0.000000 
#    z 0.355820 0.000000 6.045260 
# 
# From -- ./inp_files/269283.got.cif
#   From: 2010.05.17/outbox.cif.g08.bks.cpg/sg15_135_cif.got.tgz:269283.got - 2010.06.03 18:47:42.
