data_PCOD9296569
_publ_section_title
;
Structure prediction by ZEFSAII (Michael W. Deem and Ramdas Pophale) SiO2 
 PCOD9296569
Probable space group: C 2/C
;
_chemical_formula_sum "Si O2"
_cell_formula_units_Z 56
_cell_length_a 26.240361
_cell_length_b 8.176826
_cell_length_c 19.892367
_cell_angle_alpha 90.000000
_cell_angle_beta 145.892951
_cell_angle_gamma 90.000000
_cell_volume 2393.333568
_symmetry_space_group_name_H-M "C 2/C"
_symmetry_group_IT_number 15
_symmetry_cell_setting 'monoclinic'
loop_
_space_group_symop_operation_xyz
x,y,z
-x,y,1/2-z
-x,-y,-z
x,-y,1/2+z
1/2+x,1/2+y,z
1/2-x,1/2+y,1/2-z
1/2-x,1/2-y,-z
1/2+x,1/2-y,1/2+z
loop_
_atom_site_type_symbol
_atom_site_label
_atom_site_fract_x
_atom_site_fract_y
_atom_site_fract_z
Si Si1 0.816530 0.875270 0.166052
Si Si2 0.232250 0.024657 0.028965
Si Si3 0.113336 0.350473 0.238184
Si Si4 0.484887 0.190670 0.403723
Si Si5 0.747646 0.139007 0.193831
Si Si6 0.856884 0.898689 0.939896
Si Si7 0.051880 0.209896 0.487570
O O1 0.766635 0.706066 0.090210
O O2 0.916416 0.821884 0.296493
O O3 0.771329 0.977135 0.177036
O O4 0.809753 0.977735 0.090208
O O5 0.161114 0.002691 0.011339
O O6 0.317372 0.902686 0.127550
O O7 0.059231 0.516786 0.161382
O O8 0.181542 0.275172 0.256832
O O9 0.030405 0.224641 0.155029
O O10 0.585565 0.233872 0.487648
O O11 0.484437 0.213372 0.482927
O O12 0.769168 0.122305 0.296775
O O13 0.644146 0.192955 0.071293
O O14 0.919929 0.024230 0.967829
#
# Coordination Sequence:
#
# PCOD9296569 Si02
#       7
#     8   8   8   8   8   8   8
#     4  10  23  45  68  93 133 188 218 279 340 415
#     4  10  24  45  68  93 135 180 233 270 342 413
#     4  11  24  43  62 103 136 175 223 290 341 404
#     4  11  23  40  69  95 139 172 225 284 336 415
#     4  12  24  40  71  99 138 177 227 285 357 404
#     4  12  24  41  67 102 132 179 225 285 341 416
#     4  12  24  39  66 104 133 177 226 286 347 409
#
# _framework density 23.398325
#
# number of rings (size 3 to 8) (size 9 to 14) (size 15 to 20)
#    0.000    0.857    4.286    3.429    2.000    1.143 
#    0.000    0.714    0.000    0.000    0.000    0.000 
#    0.000    0.000    0.000    0.000    0.000    0.000 
#
# Total GULP energy -156517.845555 kJ/mol
# GULP energy per Si atom -5589.923056 kJ/mol
# Density = 2.334507 g / cm^3
# Si number density = 23.398325 Si / 1000 Ang^3
#
#
#
# Elastic Constant Matrix: (Units=GPa)
#
#
# Indices 1 2 3 4 5 6 
#
# 1 52.3606 -0.8440 47.2318 0.0000 8.4794 0.0000
# 2 -0.8440 73.2484 26.6523 0.0000 4.4711 0.0000
# 3 47.2318 26.6523 136.0439 0.0000 4.1395 0.0000
# 4 0.0000 0.0000 0.0000 42.5041 0.0000 5.6034
# 5 8.4794 4.4711 4.1395 0.0000 41.6021 0.0000
# 6 0.0000 0.0000 0.0000 5.6034 0.0000 24.5740
#
#
#
# Elastic Compliance Matrix: (Units=1/GPa)
#
#
# Indices 1 2 3 4 5 6 
#
# 1 0.030239 0.004787 -0.011267 0.000000 -0.005557 0.000000
# 2 0.004787 0.015528 -0.004638 0.000000 -0.002183 0.000000
# 3 -0.011267 -0.004638 0.012123 0.000000 0.001589 0.000000
# 4 0.000000 0.000000 0.000000 0.024256 0.000000 -0.005531
# 5 -0.005557 -0.002183 0.001589 0.000000 0.025246 0.000000
# 6 0.000000 0.000000 0.000000 -0.005531 0.000000 0.041955
#
#
# Mechanical properties :
#
#
# Convention : Reuss Voigt Hill
#
# Bulk Modulus (GPa) = 28.04709 45.30368 36.67538
# Shear Modulus (GPa) = 27.25289 34.31021 30.78155
#
# Velocity S-wave (km/s) = 3.41653 3.83345 3.63098
# Velocity P-wave (km/s) = 5.25132 6.24482 5.76949
#
# Compressibility (1/GPa) = 0.03565433
#
# Stress axis : x y z
#
# Youngs Moduli (GPa) = 33.07000 64.39947 82.49104
#
# Poissons Ratio (x) = -0.30830 0.92944
# Poissons Ratio (y) = -0.15832 0.38257
# Poissons Ratio (z) = 0.37260 0.29867
#
# Static dielectric constant tensor:
#      x y z
#    x 1.994690 0.000000 0.027100 
#    y 0.000000 2.003140 0.000000 
#    z 0.027100 0.000000 1.834210 
# 
# From -- ./inp_files/259008.got.cif
#   From: 2010.05.17/outbox.cif.g08.bks.cpg/sg15_130_cif.got.tgz:259008.got - 2010.06.03 18:47:42.
