data_PCOD9296893
_publ_section_title
;
Structure prediction by ZEFSAII (Michael W. Deem and Ramdas Pophale) SiO2 
 PCOD9296893
Probable space group: C 2/C
;
_chemical_formula_sum "Si O2"
_cell_formula_units_Z 32
_cell_length_a 18.503856
_cell_length_b 9.617110
_cell_length_c 13.835992
_cell_angle_alpha 90.000000
_cell_angle_beta 27.496022
_cell_angle_gamma 90.000000
_cell_volume 1136.749568
_symmetry_space_group_name_H-M "C 2/C"
_symmetry_group_IT_number 15
_symmetry_cell_setting 'monoclinic'
loop_
_space_group_symop_operation_xyz
x,y,z
-x,y,1/2-z
-x,-y,-z
x,-y,1/2+z
1/2+x,1/2+y,z
1/2-x,1/2+y,1/2-z
1/2-x,1/2-y,-z
1/2+x,1/2-y,1/2+z
loop_
_atom_site_type_symbol
_atom_site_label
_atom_site_fract_x
_atom_site_fract_y
_atom_site_fract_z
Si Si1 0.843760 0.091487 0.377467
Si Si2 0.450206 0.970559 0.670407
Si Si3 0.699863 0.185719 0.373564
Si Si4 0.970901 0.837028 0.098687
O O1 0.718544 0.017506 0.595696
O O2 0.895825 0.963750 0.244252
O O3 0.000000 0.133668 0.250000
O O4 0.789705 0.214534 0.367569
O O5 0.465212 0.806385 0.665760
O O6 0.500000 0.000000 0.500000
O O7 0.583835 0.069003 0.554055
O O8 0.614729 0.294911 0.402438
O O9 0.845684 0.134190 0.136134
#
# Coordination Sequence:
#
# PCOD9296893 Si02
#       4
#     8   8   8   8
#     4  12  25  45  75 111 143 188 246 306 365 431
#     4  10  23  46  71 106 147 189 242 306 361 428
#     4  11  25  44  71 106 148 190 240 301 363 433
#     4  11  24  47  75 105 145 197 243 295 366 442
#
# _framework density 28.15044
#
# number of rings (size 3 to 8) (size 9 to 14) (size 15 to 20)
#    0.000    1.000    0.000    6.750    0.000    6.000 
#    0.000   17.500    0.000    0.000    0.000    0.000 
#    0.000    0.000    0.000    0.000    0.000    0.000 
#
# Total GULP energy -89582.268682 kJ/mol
# GULP energy per Si atom -5598.891793 kJ/mol
# Density = 2.808637 g / cm^3
# Si number density = 28.150440 Si / 1000 Ang^3
#
#
#
# Elastic Constant Matrix: (Units=GPa)
#
#
# Indices 1 2 3 4 5 6 
#
# 1 172.1957 28.0650 36.9737 0.0000 -9.6634 0.0000
# 2 28.0650 169.9684 33.0364 0.0000 -4.7876 0.0000
# 3 36.9737 33.0364 239.6514 0.0000 -7.1565 0.0000
# 4 0.0000 0.0000 0.0000 6.5272 0.0000 -13.1783
# 5 -9.6634 -4.7876 -7.1565 0.0000 43.6656 0.0000
# 6 0.0000 0.0000 0.0000 -13.1783 0.0000 32.5164
#
#
#
# Elastic Compliance Matrix: (Units=1/GPa)
#
#
# Indices 1 2 3 4 5 6 
#
# 1 0.006180 -0.000832 -0.000805 0.000000 0.001145 0.000000
# 2 -0.000832 0.006170 -0.000711 0.000000 0.000376 0.000000
# 3 -0.000805 -0.000711 0.004409 0.000000 0.000467 0.000000
# 4 0.000000 0.000000 0.000000 0.842964 0.000000 0.341638
# 5 0.001145 0.000376 0.000467 0.000000 0.023272 0.000000
# 6 0.000000 0.000000 0.000000 0.341638 0.000000 0.169214
#
#
# Mechanical properties :
#
#
# Convention : Reuss Voigt Hill
#
# Bulk Modulus (GPa) = 82.89385 86.44063 84.66724
# Shear Modulus (GPa) = 4.71287 48.79119 26.75203
#
# Velocity S-wave (km/s) = 1.29530 4.16772 3.08608
# Velocity P-wave (km/s) = 5.63451 7.34393 6.54526
#
# Compressibility (1/GPa) = 0.01206362
#
# Stress axis : x y z
#
# Youngs Moduli (GPa) = 161.81465 162.08614 226.81913
#
# Poissons Ratio (x) = 0.13482 0.18250
# Poissons Ratio (y) = 0.13460 0.16125
# Poissons Ratio (z) = 0.13020 0.11523
#
# Static dielectric constant tensor:
#      x y z
#    x 2.546700 0.000000 -0.122750 
#    y 0.000000 2.216680 0.000000 
#    z -0.122750 0.000000 2.312120 
# 
# From -- ./inp_files/203759.got.cif
#   From: 2010.05.17/outbox.cif.g08.bks.cpg/sg15_102_cif.got.tgz:203759.got - 2010.06.03 18:47:42.
