data_PCOD9296743
_publ_section_title
;
Structure prediction by ZEFSAII (Michael W. Deem and Ramdas Pophale) SiO2 
 PCOD9296743
Probable space group: C 2/C
;
_chemical_formula_sum "Si O2"
_cell_formula_units_Z 52
_cell_length_a 13.459599
_cell_length_b 27.950096
_cell_length_c 7.608294
_cell_angle_alpha 90.000000
_cell_angle_beta 134.305669
_cell_angle_gamma 90.000000
_cell_volume 2048.270840
_symmetry_space_group_name_H-M "C 2/C"
_symmetry_group_IT_number 15
_symmetry_cell_setting 'monoclinic'
loop_
_space_group_symop_operation_xyz
x,y,z
-x,y,1/2-z
-x,-y,-z
x,-y,1/2+z
1/2+x,1/2+y,z
1/2-x,1/2+y,1/2-z
1/2-x,1/2-y,-z
1/2+x,1/2-y,1/2+z
loop_
_atom_site_type_symbol
_atom_site_label
_atom_site_fract_x
_atom_site_fract_y
_atom_site_fract_z
Si Si1 0.242119 0.926803 0.284540
Si Si2 0.000000 0.573097 0.750000
Si Si3 0.152111 0.656062 0.766228
Si Si4 0.300568 0.972910 0.735895
Si Si5 0.561355 0.227791 0.127183
Si Si6 0.941453 0.909431 0.979968
Si Si7 0.664722 0.696961 0.222538
O O1 0.297655 0.872240 0.343571
O O2 0.288698 0.948091 0.531047
O O3 0.080032 0.918836 0.042723
O O4 0.287220 0.970324 0.214503
O O5 0.879438 0.610277 0.654150
O O6 0.934540 0.543455 0.510034
O O7 0.010421 0.683001 0.555731
O O8 0.257663 0.691424 0.993961
O O9 0.167625 0.951807 0.674088
O O10 0.500000 0.225694 0.250000
O O11 0.724084 0.221511 0.277235
O O12 0.479275 0.273967 0.951350
O O13 0.000000 0.911217 0.250000
O O14 0.873598 0.857436 0.874266
#
# Coordination Sequence:
#
# PCOD9296743 Si02
#       7
#     8   4   8   8   8   8   8
#     4  11  27  44  75 113 146 208 251 318 379 457
#     4  12  24  48  72 104 152 206 246 324 368 456
#     4  12  26  45  72 107 151 198 257 310 386 450
#     4  11  24  47  72 108 155 195 260 309 380 447
#     4  12  28  47  81 110 153 195 259 315 390 459
#     4  10  23  45  76 104 152 193 255 314 381 450
#     4  12  26  52  74 113 152 198 254 319 384 463
#
# _framework density 25.387267999999999
#
# number of rings (size 3 to 8) (size 9 to 14) (size 15 to 20)
#    0.000    0.615    3.077    2.769    8.615    3.077 
#    0.000    0.000    0.000    0.000    0.000    0.000 
#    0.000    0.000    0.000    0.000    0.000    0.000 
#
# Total GULP energy -145420.795302 kJ/mol
# GULP energy per Si atom -5593.107512 kJ/mol
# Density = 2.532949 g / cm^3
# Si number density = 25.387268 Si / 1000 Ang^3
#
#
#
# Elastic Constant Matrix: (Units=GPa)
#
#
# Indices 1 2 3 4 5 6 
#
# 1 66.2044 34.7315 34.5542 0.0000 20.9904 0.0000
# 2 34.7315 128.2924 29.8242 0.0000 17.6058 0.0000
# 3 34.5542 29.8242 113.0855 0.0000 5.7723 0.0000
# 4 0.0000 0.0000 0.0000 41.6276 0.0000 -3.2863
# 5 20.9904 17.6058 5.7723 0.0000 53.0573 0.0000
# 6 0.0000 0.0000 0.0000 -3.2863 0.0000 37.7843
#
#
#
# Elastic Compliance Matrix: (Units=1/GPa)
#
#
# Indices 1 2 3 4 5 6 
#
# 1 0.022094 -0.003779 -0.005402 0.000000 -0.006899 0.000000
# 2 -0.003779 0.009302 -0.001224 0.000000 -0.001459 0.000000
# 3 -0.005402 -0.001224 0.010746 0.000000 0.001374 0.000000
# 4 0.000000 0.000000 0.000000 0.024189 0.000000 0.002104
# 5 -0.006899 -0.001459 0.001374 0.000000 0.021912 0.000000
# 6 0.000000 0.000000 0.000000 0.002104 0.000000 0.026649
#
#
# Mechanical properties :
#
#
# Convention : Reuss Voigt Hill
#
# Bulk Modulus (GPa) = 46.87722 56.20023 51.53873
# Shear Modulus (GPa) = 35.01071 40.39200 37.70135
#
# Velocity S-wave (km/s) = 3.71761 3.99310 3.85781
# Velocity P-wave (km/s) = 6.07720 6.59129 6.33946
#
# Compressibility (1/GPa) = 0.02133232
#
# Stress axis : x y z
#
# Youngs Moduli (GPa) = 45.26083 107.49852 93.05506
#
# Poissons Ratio (x) = 0.40620 0.50272
# Poissons Ratio (y) = 0.17103 0.11393
# Poissons Ratio (z) = 0.24451 0.13161
#
# Static dielectric constant tensor:
#      x y z
#    x 2.333730 0.000000 -0.038330 
#    y 0.000000 1.920820 0.000000 
#    z -0.038330 0.000000 1.959610 
# 
# From -- ./inp_files/44934.got.cif
#   From: 2010.05.17/outbox.cif.g08.bks.cpg/sg15_23_cif.got.tgz:44934.got - 2010.06.03 18:47:42.
