data_PCOD9296185
_publ_section_title
;
Structure prediction by ZEFSAII (Michael W. Deem and Ramdas Pophale) SiO2 
 PCOD9296185
Probable space group: C 2/C
;
_chemical_formula_sum "Si O2"
_cell_formula_units_Z 64
_cell_length_a 16.055297
_cell_length_b 15.966994
_cell_length_c 13.607321
_cell_angle_alpha 90.000000
_cell_angle_beta 123.760045
_cell_angle_gamma 90.000000
_cell_volume 2900.077694
_symmetry_space_group_name_H-M "C 2/C"
_symmetry_group_IT_number 15
_symmetry_cell_setting 'monoclinic'
loop_
_space_group_symop_operation_xyz
x,y,z
-x,y,1/2-z
-x,-y,-z
x,-y,1/2+z
1/2+x,1/2+y,z
1/2-x,1/2+y,1/2-z
1/2-x,1/2-y,-z
1/2+x,1/2-y,1/2+z
loop_
_atom_site_type_symbol
_atom_site_label
_atom_site_fract_x
_atom_site_fract_y
_atom_site_fract_z
Si Si1 0.095950 0.660584 0.134002
Si Si2 0.742285 0.019681 0.153547
Si Si3 0.634754 0.766184 0.450145
Si Si4 0.746057 0.708037 0.105120
Si Si5 0.309177 0.518839 0.405813
Si Si6 0.590368 0.416043 0.874367
Si Si7 0.121740 0.361136 0.078183
Si Si8 0.399100 0.076135 0.713075
O O1 0.151936 0.574778 0.139024
O O2 0.149134 0.694140 0.267501
O O3 0.120425 0.718869 0.056353
O O4 0.977101 0.647225 0.052946
O O5 0.815286 0.005665 0.293443
O O6 0.805937 0.070188 0.116745
O O7 0.696328 0.932736 0.086657
O O8 0.750000 0.750000 0.500000
O O9 0.576384 0.681723 0.385691
O O10 0.604280 0.845976 0.364794
O O11 0.695400 0.616620 0.071075
O O12 0.678751 0.773239 0.122313
O O13 0.750000 0.750000 0.000000
O O14 0.394247 0.468837 0.517669
O O15 0.201462 0.477334 0.362082
O O16 0.500000 0.448335 0.750000
O O17 0.094990 0.390976 0.171052
O O18 0.500000 0.027266 0.750000
#
# Coordination Sequence:
#
# PCOD9296185 Si02
#       8
#     8   8   8   8   8   8   8   8
#     4  11  23  42  72 104 135 176 226 293 352 409
#     4  10  23  44  69 100 144 172 225 290 344 414
#     4  12  21  38  69 102 144 169 213 284 356 407
#     4  11  26  48  64  91 140 188 241 277 330 403
#     4  10  24  45  64  95 138 182 222 283 332 412
#     4  12  26  43  69 101 138 187 228 275 349 416
#     4  11  24  43  73 105 138 181 231 282 349 413
#     4  11  21  40  72 112 139 167 214 288 366 418
#
# _framework density 22.068373000000001
#
# number of rings (size 3 to 8) (size 9 to 14) (size 15 to 20)
#    0.000    1.000    3.750    2.250    3.500    1.000 
#   11.250    0.000    0.000    0.000    0.000    0.000 
#    0.000    0.000    0.000    0.000    0.000    0.000 
#
# Total GULP energy -179001.012532 kJ/mol
# GULP energy per Si atom -5593.781642 kJ/mol
# Density = 2.201814 g / cm^3
# Si number density = 22.068373 Si / 1000 Ang^3
#
#
#
# Elastic Constant Matrix: (Units=GPa)
#
#
# Indices 1 2 3 4 5 6 
#
# 1 31.3091 18.5788 7.4712 0.0000 -8.3803 0.0000
# 2 18.5788 122.2001 42.0124 0.0000 3.8131 0.0000
# 3 7.4712 42.0124 138.6635 0.0000 1.2023 0.0000
# 4 0.0000 0.0000 0.0000 41.2857 0.0000 -4.9240
# 5 -8.3803 3.8131 1.2023 0.0000 32.8492 0.0000
# 6 0.0000 0.0000 0.0000 -4.9240 0.0000 4.2280
#
#
#
# Elastic Compliance Matrix: (Units=1/GPa)
#
#
# Indices 1 2 3 4 5 6 
#
# 1 0.038428 -0.006059 -0.000326 0.000000 0.010519 0.000000
# 2 -0.006059 0.010120 -0.002717 0.000000 -0.002621 0.000000
# 3 -0.000326 -0.002717 0.008053 0.000000 -0.000063 0.000000
# 4 0.000000 0.000000 0.000000 0.028128 0.000000 0.032759
# 5 0.010519 -0.002621 -0.000063 0.000000 0.033432 0.000000
# 6 0.000000 0.000000 0.000000 0.032759 0.000000 0.274671
#
#
# Mechanical properties :
#
#
# Convention : Reuss Voigt Hill
#
# Bulk Modulus (GPa) = 26.04306 47.58863 36.81584
# Shear Modulus (GPa) = 11.79702 30.61328 21.20515
#
# Velocity S-wave (km/s) = 2.31458 3.72856 3.10318
# Velocity P-wave (km/s) = 4.35543 6.33618 5.43677
#
# Compressibility (1/GPa) = 0.03839795
#
# Stress axis : x y z
#
# Youngs Moduli (GPa) = 26.02263 98.81091 124.17662
#
# Poissons Ratio (x) = 0.59865 0.04049
# Poissons Ratio (y) = 0.15766 0.33740
# Poissons Ratio (z) = 0.00849 0.26848
#
# Static dielectric constant tensor:
#      x y z
#    x 1.837310 0.000000 -0.015410 
#    y 0.000000 1.804820 0.000000 
#    z -0.015410 0.000000 1.832180 
# 
# From -- ./inp_files/162563.got.cif
#   From: 2010.05.17/outbox.cif.g08.bks.cpg/sg15_82_cif.got.tgz:162563.got - 2010.06.03 18:47:42.
