data_PCOD9296674
_publ_section_title
;
Structure prediction by ZEFSAII (Michael W. Deem and Ramdas Pophale) SiO2 
 PCOD9296674
Probable space group: C 2/C
;
_chemical_formula_sum "Si O2"
_cell_formula_units_Z 28
_cell_length_a 7.603575
_cell_length_b 31.236839
_cell_length_c 5.282804
_cell_angle_alpha 90.000000
_cell_angle_beta 102.269552
_cell_angle_gamma 90.000000
_cell_volume 1226.067808
_symmetry_space_group_name_H-M "C 2/C"
_symmetry_group_IT_number 15
_symmetry_cell_setting 'monoclinic'
loop_
_space_group_symop_operation_xyz
x,y,z
-x,y,1/2-z
-x,-y,-z
x,-y,1/2+z
1/2+x,1/2+y,z
1/2-x,1/2+y,1/2-z
1/2-x,1/2-y,-z
1/2+x,1/2-y,1/2+z
loop_
_atom_site_type_symbol
_atom_site_label
_atom_site_fract_x
_atom_site_fract_y
_atom_site_fract_z
Si Si1 0.342795 0.188821 0.370959
Si Si2 0.217658 0.525483 0.811444
Si Si3 0.500000 0.263597 0.750000
Si Si4 0.381848 0.381490 0.456891
O O1 0.500000 0.169230 0.250000
O O2 0.427694 0.231333 0.517621
O O3 0.271520 0.154141 0.547553
O O4 0.159207 0.206771 0.190469
O O5 0.272026 0.505764 0.558154
O O6 0.000000 0.528371 0.750000
O O7 0.297847 0.572108 0.880782
O O8 0.500000 0.383501 0.750000
O O9 0.500000 0.369981 0.250000
#
# Coordination Sequence:
#
# PCOD9296674 Si02
#       4
#     8   8   4   8
#     4  11  25  44  74 102 145 190 242 301 362 427
#     4  10  23  45  72 102 140 189 241 292 356 429
#     4  10  24  46  70 106 138 188 250 296 364 430
#     4  12  28  45  70 109 150 186 242 299 357 431
#
# _framework density 22.837233999999999
#
# number of rings (size 3 to 8) (size 9 to 14) (size 15 to 20)
#    0.000    1.143    1.429    2.571    6.000   11.429 
#    0.000    0.000    0.000    0.000    0.000    0.000 
#    0.000    0.000    0.000    0.000    0.000    0.000 
#
# Total GULP energy -78379.569421 kJ/mol
# GULP energy per Si atom -5598.540673 kJ/mol
# Density = 2.278526 g / cm^3
# Si number density = 22.837234 Si / 1000 Ang^3
#
#
#
# Elastic Constant Matrix: (Units=GPa)
#
#
# Indices 1 2 3 4 5 6 
#
# 1 144.4050 66.0398 61.8375 0.0000 -27.0472 0.0000
# 2 66.0398 154.2787 47.2215 0.0000 -8.0218 0.0000
# 3 61.8375 47.2215 130.8560 0.0000 -13.7487 0.0000
# 4 0.0000 0.0000 0.0000 44.9240 0.0000 10.7830
# 5 -27.0472 -8.0218 -13.7487 0.0000 37.8894 0.0000
# 6 0.0000 0.0000 0.0000 10.7830 0.0000 52.8183
#
#
#
# Elastic Compliance Matrix: (Units=1/GPa)
#
#
# Indices 1 2 3 4 5 6 
#
# 1 0.011023 -0.003380 -0.003366 0.000000 0.005932 0.000000
# 2 -0.003380 0.008337 -0.001538 0.000000 -0.001206 0.000000
# 3 -0.003366 -0.001538 0.009878 0.000000 0.000856 0.000000
# 4 0.000000 0.000000 0.000000 0.023407 0.000000 -0.004779
# 5 0.005932 -0.001206 0.000856 0.000000 0.030682 0.000000
# 6 0.000000 0.000000 0.000000 -0.004779 0.000000 0.019908
#
#
# Mechanical properties :
#
#
# Convention : Reuss Voigt Hill
#
# Bulk Modulus (GPa) = 78.92971 86.63747 82.78359
# Shear Modulus (GPa) = 40.31423 44.08906 42.20164
#
# Velocity S-wave (km/s) = 4.20609 4.39860 4.30342
# Velocity P-wave (km/s) = 7.63054 7.98850 7.81157
#
# Compressibility (1/GPa) = 0.01266950
#
# Stress axis : x y z
#
# Youngs Moduli (GPa) = 90.71827 119.95403 101.23892
#
# Poissons Ratio (x) = 0.40541 0.34079
# Poissons Ratio (y) = 0.30661 0.15570
# Poissons Ratio (z) = 0.30538 0.18448
#
# Static dielectric constant tensor:
#      x y z
#    x 1.890240 0.000000 0.028010 
#    y 0.000000 1.782270 0.000000 
#    z 0.028010 0.000000 1.857100 
# 
# From -- ./inp_files/1933.got.cif
#   From: 2010.05.17/outbox.cif.g08.bks.cpg/sg15_1_cif.got.tgz:1933.got - 2010.06.03 18:47:42.
