data_PCOD9296193
_publ_section_title
;
Structure prediction by ZEFSAII (Michael W. Deem and Ramdas Pophale) SiO2 
 PCOD9296193
Probable space group: C 2/C
;
_chemical_formula_sum "Si O2"
_cell_formula_units_Z 52
_cell_length_a 10.768710
_cell_length_b 9.477080
_cell_length_c 19.397580
_cell_angle_alpha 90.000000
_cell_angle_beta 84.035415
_cell_angle_gamma 90.000000
_cell_volume 1968.920856
_symmetry_space_group_name_H-M "C 2/C"
_symmetry_group_IT_number 15
_symmetry_cell_setting 'monoclinic'
loop_
_space_group_symop_operation_xyz
x,y,z
-x,y,1/2-z
-x,-y,-z
x,-y,1/2+z
1/2+x,1/2+y,z
1/2-x,1/2+y,1/2-z
1/2-x,1/2-y,-z
1/2+x,1/2-y,1/2+z
loop_
_atom_site_type_symbol
_atom_site_label
_atom_site_fract_x
_atom_site_fract_y
_atom_site_fract_z
Si Si1 0.108788 0.306753 0.507375
Si Si2 0.292714 0.808707 0.177764
Si Si3 0.553752 0.506144 0.669273
Si Si4 0.313938 0.515893 0.095722
Si Si5 0.220566 0.753207 0.662727
Si Si6 0.500000 0.500000 0.500000
Si Si7 0.063205 0.465697 0.891085
O O1 0.250000 0.250000 0.500000
O O2 0.020174 0.175967 0.493562
O O3 0.093742 0.429245 0.452057
O O4 0.063234 0.382838 0.580950
O O5 0.173098 0.894446 0.157030
O O6 0.307510 0.665996 0.133395
O O7 0.262461 0.762530 0.256684
O O8 0.407478 0.921194 0.171555
O O9 0.500000 0.526212 0.750000
O O10 0.458978 0.528967 0.611344
O O11 0.598530 0.346221 0.660202
O O12 0.221957 0.401496 0.131293
O O13 0.343416 0.487092 0.014706
O O14 0.336078 0.842213 0.626252
#
# Coordination Sequence:
#
# PCOD9296193 Si02
#       7
#     8   8   8   8   8   4   8
#     4  11  25  48  72 101 136 186 238 289 351 415
#     4  11  22  42  69 101 135 180 229 284 350 423
#     4  11  23  43  71  98 137 189 220 284 360 405
#     4  12  24  46  65 100 143 175 238 283 349 415
#     4  11  22  41  70 102 137 178 229 291 348 418
#     4  12  26  44  72 100 136 186 232 290 334 424
#     4  10  23  44  69 102 140 181 231 288 350 414
#
# _framework density 26.410406999999999
#
# number of rings (size 3 to 8) (size 9 to 14) (size 15 to 20)
#    0.000    0.923    6.154    0.923    4.308    0.000 
#    2.769    6.154    0.000    0.000    0.000    0.000 
#    0.000    0.000    0.000    0.000    0.000    0.000 
#
# Total GULP energy -145080.783536 kJ/mol
# GULP energy per Si atom -5580.030136 kJ/mol
# Density = 2.635030 g / cm^3
# Si number density = 26.410407 Si / 1000 Ang^3
#
#
#
# Elastic Constant Matrix: (Units=GPa)
#
#
# Indices 1 2 3 4 5 6 
#
# 1 77.5847 63.0105 24.7873 0.0000 -6.2150 0.0000
# 2 63.0105 212.6023 70.2795 0.0000 -26.5403 0.0000
# 3 24.7873 70.2795 93.4621 0.0000 -31.0270 0.0000
# 4 0.0000 0.0000 0.0000 74.2079 0.0000 -0.6106
# 5 -6.2150 -26.5403 -31.0270 0.0000 48.0999 0.0000
# 6 0.0000 0.0000 0.0000 -0.6106 0.0000 61.6614
#
#
#
# Elastic Compliance Matrix: (Units=1/GPa)
#
#
# Indices 1 2 3 4 5 6 
#
# 1 0.017105 -0.004777 -0.001381 0.000000 -0.001317 0.000000
# 2 -0.004777 0.007605 -0.004152 0.000000 0.000900 0.000000
# 3 -0.001381 -0.004152 0.017011 0.000000 0.008503 0.000000
# 4 0.000000 0.000000 0.000000 0.013477 0.000000 0.000133
# 5 -0.001317 0.000900 0.008503 0.000000 0.026602 0.000000
# 6 0.000000 0.000000 0.000000 0.000133 0.000000 0.016219
#
#
# Mechanical properties :
#
#
# Convention : Reuss Voigt Hill
#
# Bulk Modulus (GPa) = 47.39650 77.75597 62.57624
# Shear Modulus (GPa) = 39.78581 51.83196 45.80889
#
# Velocity S-wave (km/s) = 3.88551 4.43488 4.16925
# Velocity P-wave (km/s) = 6.17371 7.46522 6.84997
#
# Compressibility (1/GPa) = 0.02109860
#
# Stress axis : x y z
#
# Youngs Moduli (GPa) = 58.46315 131.50053 58.78456
#
# Poissons Ratio (x) = 0.62821 0.08120
# Poissons Ratio (y) = 0.27929 0.24410
# Poissons Ratio (z) = 0.08075 0.54605
#
# Static dielectric constant tensor:
#      x y z
#    x 2.132870 0.000000 0.043900 
#    y 0.000000 2.078680 0.000000 
#    z 0.043900 0.000000 2.070960 
# 
# From -- ./inp_files/291124.got.cif
#   From: 2010.05.17/outbox.cif.g08.bks.cpg/sg15_146_cif.got.tgz:291124.got - 2010.06.03 18:47:42.
