data_PCOD9296441
_publ_section_title
;
Structure prediction by ZEFSAII (Michael W. Deem and Ramdas Pophale) SiO2 
 PCOD9296441
Probable space group: C 2/C
;
_chemical_formula_sum "Si O2"
_cell_formula_units_Z 32
_cell_length_a 16.126181
_cell_length_b 9.357365
_cell_length_c 23.619394
_cell_angle_alpha 90.000000
_cell_angle_beta 157.306386
_cell_angle_gamma 90.000000
_cell_volume 1375.053815
_symmetry_space_group_name_H-M "C 2/C"
_symmetry_group_IT_number 15
_symmetry_cell_setting 'monoclinic'
loop_
_space_group_symop_operation_xyz
x,y,z
-x,y,1/2-z
-x,-y,-z
x,-y,1/2+z
1/2+x,1/2+y,z
1/2-x,1/2+y,1/2-z
1/2-x,1/2-y,-z
1/2+x,1/2-y,1/2+z
loop_
_atom_site_type_symbol
_atom_site_label
_atom_site_fract_x
_atom_site_fract_y
_atom_site_fract_z
Si Si1 0.657917 0.689286 0.200328
Si Si2 0.119713 0.870623 0.882388
Si Si3 0.029570 0.166368 0.528299
Si Si4 0.865481 0.338702 0.523737
O O1 0.550946 0.577966 0.176252
O O2 0.745173 0.807968 0.298581
O O3 0.876906 0.641761 0.307261
O O4 0.256960 0.007847 0.951565
O O5 0.495867 0.735368 0.049418
O O6 0.000000 0.819039 0.750000
O O7 0.250000 0.750000 0.000000
O O8 0.860332 0.243929 0.463138
O O9 0.000000 0.000000 0.500000
O O10 0.750000 0.250000 0.500000
#
# Coordination Sequence:
#
# PCOD9296441 Si02
#       4
#     8   8   8   8
#     4  10  25  45  74 109 150 198 250 319 385 453
#     4  12  28  48  73 110 156 206 255 313 390 460
#     4  10  23  44  76 110 154 197 253 324 386 448
#     4  10  26  44  78 109 149 198 261 316 386 455
#
# _framework density 23.271818
#
# number of rings (size 3 to 8) (size 9 to 14) (size 15 to 20)
#    1.500    0.000    0.000    3.000    7.000    1.000 
#    0.000    0.000    0.000    0.000    0.000    0.000 
#    0.000    0.000    0.000    0.000    0.000    0.000 
#
# Total GULP energy -89260.989299 kJ/mol
# GULP energy per Si atom -5578.811831 kJ/mol
# Density = 2.321885 g / cm^3
# Si number density = 23.271818 Si / 1000 Ang^3
#
#
#
# Elastic Constant Matrix: (Units=GPa)
#
#
# Indices 1 2 3 4 5 6 
#
# 1 190.3196 59.1085 60.1613 0.0000 -21.7096 0.0000
# 2 59.1085 148.6813 61.2205 -0.0012 -15.0497 0.0002
# 3 60.1613 61.2205 127.8463 -0.0046 -33.1819 0.0006
# 4 0.0000 -0.0012 -0.0046 36.1016 0.0010 4.6271
# 5 -21.7096 -15.0497 -33.1819 0.0010 61.6689 0.0002
# 6 0.0000 0.0002 0.0006 4.6271 0.0002 37.1157
#
#
#
# Elastic Compliance Matrix: (Units=1/GPa)
#
#
# Indices 1 2 3 4 5 6 
#
# 1 0.006512 -0.001658 -0.002069 0.000000 0.000774 0.000000
# 2 -0.001658 0.008801 -0.003520 0.000000 -0.000330 0.000000
# 3 -0.002069 -0.003520 0.011703 0.000001 0.004710 0.000000
# 4 0.000000 0.000000 0.000001 0.028149 0.000000 -0.003509
# 5 0.000774 -0.000330 0.004710 0.000000 0.018942 0.000000
# 6 0.000000 0.000000 0.000000 -0.003509 0.000000 0.027380
#
#
# Mechanical properties :
#
#
# Convention : Reuss Voigt Hill
#
# Bulk Modulus (GPa) = 79.86104 91.98088 85.92096
# Shear Modulus (GPa) = 41.61257 46.06770 43.84013
#
# Velocity S-wave (km/s) = 4.23319 4.45404 4.34502
# Velocity P-wave (km/s) = 7.63442 8.12783 7.88499
#
# Compressibility (1/GPa) = 0.01252175
#
# Stress axis : x y z
#
# Youngs Moduli (GPa) = 153.56776 113.62419 85.44511
#
# Poissons Ratio (x) = 0.18843 0.17680
# Poissons Ratio (y) = 0.25468 0.30073
# Poissons Ratio (z) = 0.31776 0.39991
#
# Static dielectric constant tensor:
#      x y z
#    x 1.979870 0.000000 0.077530 
#    y 0.000000 1.870410 0.000000 
#    z 0.077530 0.000000 1.991450 
# 
# From -- ./inp_files/273298.got.cif
#   From: 2010.05.17/outbox.cif.g08.bks.cpg/sg15_137_cif.got.tgz:273298.got - 2010.06.03 18:47:42.
