data_PCOD9296482
_publ_section_title
;
Structure prediction by ZEFSAII (Michael W. Deem and Ramdas Pophale) SiO2 
 PCOD9296482
Probable space group: C 2/C
;
_chemical_formula_sum "Si O2"
_cell_formula_units_Z 40
_cell_length_a 13.702935
_cell_length_b 24.607124
_cell_length_c 10.907368
_cell_angle_alpha 90.000000
_cell_angle_beta 146.685127
_cell_angle_gamma 90.000000
_cell_volume 2020.023355
_symmetry_space_group_name_H-M "C 2/C"
_symmetry_group_IT_number 15
_symmetry_cell_setting 'monoclinic'
loop_
_space_group_symop_operation_xyz
x,y,z
-x,y,1/2-z
-x,-y,-z
x,-y,1/2+z
1/2+x,1/2+y,z
1/2-x,1/2+y,1/2-z
1/2-x,1/2-y,-z
1/2+x,1/2-y,1/2+z
loop_
_atom_site_type_symbol
_atom_site_label
_atom_site_fract_x
_atom_site_fract_y
_atom_site_fract_z
Si Si1 0.887355 0.998725 0.508036
Si Si2 0.225020 0.608378 0.741350
Si Si3 0.470309 0.683675 0.367702
Si Si4 0.056893 0.306963 0.450506
Si Si5 0.530710 0.035877 0.151869
O O1 0.780376 0.941525 0.388425
O O2 0.000000 0.999905 0.750000
O O3 0.740762 0.046710 0.360555
O O4 0.000000 0.000000 0.500000
O O5 0.075319 0.649346 0.631897
O O6 0.123941 0.581066 0.519935
O O7 0.405534 0.642783 0.926303
O O8 0.500000 0.676709 0.250000
O O9 0.526502 0.745115 0.461829
O O10 0.262266 0.677027 0.174779
O O11 0.000000 0.304472 0.250000
O O12 0.500000 0.007701 0.250000
O O13 0.500000 0.000000 0.000000
#
# Coordination Sequence:
#
# PCOD9296482 Si02
#       5
#     8   8   8   8   8
#     4  11  24  41  63  91 124 163 214 266 323 385
#     4  11  23  36  61  90 119 168 206 260 317 384
#     4  11  19  36  54  92 131 172 209 263 321 373
#     4  11  20  33  58  88 136 167 210 266 316 377
#     4  10  23  45  65  90 128 164 212 270 324 383
#
# _framework density 19.801752
#
# number of rings (size 3 to 8) (size 9 to 14) (size 15 to 20)
#    0.000    1.200    4.000    4.200    2.800    3.200 
#    0.000    0.000    0.000    1.200    0.000    0.000 
#    0.000    0.000    0.000    0.000    0.000    0.000 
#
# Total GULP energy -111404.670721 kJ/mol
# GULP energy per Si atom -5570.233536 kJ/mol
# Density = 1.975668 g / cm^3
# Si number density = 19.801752 Si / 1000 Ang^3
#
#
#
# Elastic Constant Matrix: (Units=GPa)
#
#
# Indices 1 2 3 4 5 6 
#
# 1 81.5604 17.4529 57.5352 0.0000 -0.1714 0.0000
# 2 17.4529 74.5406 53.8027 0.0000 5.6780 0.0000
# 3 57.5352 53.8027 189.6001 0.0000 32.4501 0.0000
# 4 0.0000 0.0000 0.0000 77.6371 0.0000 43.4744
# 5 -0.1714 5.6780 32.4501 0.0000 41.2797 0.0000
# 6 0.0000 0.0000 0.0000 43.4744 0.0000 57.5713
#
#
#
# Elastic Compliance Matrix: (Units=1/GPa)
#
#
# Indices 1 2 3 4 5 6 
#
# 1 0.016316 -0.000038 -0.005723 0.000000 0.004572 0.000000
# 2 -0.000038 0.016971 -0.005090 0.000000 0.001666 0.000000
# 3 -0.005723 -0.005090 0.009636 0.000000 -0.006898 0.000000
# 4 0.000000 0.000000 0.000000 0.022318 0.000000 -0.016853
# 5 0.004572 0.001666 -0.006898 0.000000 0.029438 0.000000
# 6 0.000000 0.000000 0.000000 -0.016853 0.000000 0.030096
#
#
# Mechanical properties :
#
#
# Convention : Reuss Voigt Hill
#
# Bulk Modulus (GPa) = 47.12054 67.03141 57.07597
# Shear Modulus (GPa) = 32.56313 49.75830 41.16072
#
# Velocity S-wave (km/s) = 4.05959 5.01824 4.56416
# Velocity P-wave (km/s) = 6.76916 8.21595 7.52739
#
# Compressibility (1/GPa) = 0.02122217
#
# Stress axis : x y z
#
# Youngs Moduli (GPa) = 61.29125 58.92389 103.77947
#
# Poissons Ratio (x) = 0.00222 0.59391
# Poissons Ratio (y) = 0.00231 0.52820
# Poissons Ratio (z) = 0.35076 0.29990
#
# Static dielectric constant tensor:
#      x y z
#    x 1.721200 0.000000 0.028640 
#    y 0.000000 1.791190 0.000000 
#    z 0.028640 0.000000 1.761850 
# 
# From -- ./inp_files/100751.got.cif
#   From: 2010.05.17/outbox.cif.g08.bks.cpg/sg15_51_cif.got.tgz:100751.got - 2010.06.03 18:47:42.
