data_PCOD9296012
_publ_section_title
;
Structure prediction by ZEFSAII (Michael W. Deem and Ramdas Pophale) SiO2 
 PCOD9296012
Probable space group: C 2/C
;
_chemical_formula_sum "Si O2"
_cell_formula_units_Z 48
_cell_length_a 24.521976
_cell_length_b 13.671236
_cell_length_c 19.963184
_cell_angle_alpha 90.000000
_cell_angle_beta 162.210200
_cell_angle_gamma 90.000000
_cell_volume 2044.753410
_symmetry_space_group_name_H-M "C 2/C"
_symmetry_group_IT_number 15
_symmetry_cell_setting 'monoclinic'
loop_
_space_group_symop_operation_xyz
x,y,z
-x,y,1/2-z
-x,-y,-z
x,-y,1/2+z
1/2+x,1/2+y,z
1/2-x,1/2+y,1/2-z
1/2-x,1/2-y,-z
1/2+x,1/2-y,1/2+z
loop_
_atom_site_type_symbol
_atom_site_label
_atom_site_fract_x
_atom_site_fract_y
_atom_site_fract_z
Si Si1 0.213500 0.099046 0.505380
Si Si2 0.184103 0.227626 0.599810
Si Si3 0.682103 0.614281 0.319383
Si Si4 0.370256 0.099063 0.162135
Si Si5 0.407553 0.385716 0.270275
Si Si6 0.352684 0.772374 0.436973
O O1 0.237933 0.172149 0.594626
O O2 0.259799 0.133929 0.484545
O O3 0.000000 0.078153 0.250000
O O4 0.320704 0.999994 0.641401
O O5 0.182912 0.342135 0.577518
O O6 0.997645 0.177194 0.400399
O O7 0.315662 0.213990 0.815661
O O8 0.626563 0.499999 0.253127
O O9 0.500000 0.078180 0.250000
O O10 0.475444 0.172162 0.332139
O O11 0.189678 0.133936 0.914421
O O12 0.606313 0.342137 0.500926
O O13 0.307862 0.322809 0.210617
#
# Coordination Sequence:
#
# PCOD9296012 Si02
#       6
#     8   8   8   8   8   8
#     4   9  20  39  62  88 120 162 207 251 301 360
#     4  11  23  38  61  92 124 159 199 252 313 362
#     4  10  23  44  65  87 123 166 207 250 299 363
#     4   9  20  39  62  88 120 162 207 251 301 360
#     4  10  23  44  65  87 123 166 207 250 299 363
#     4  11  23  38  61  92 124 159 199 252 313 362
#
# _framework density 23.474713000000001
#
# number of rings (size 3 to 8) (size 9 to 14) (size 15 to 20)
#    0.000    2.000    0.000    2.000    0.000   11.333 
#    0.000    8.333    0.000    0.000    0.000    0.000 
#    0.000    0.000    0.000    0.000    0.000    0.000 
#
# Total GULP energy -134173.701564 kJ/mol
# GULP energy per Si atom -5590.570899 kJ/mol
# Density = 2.342128 g / cm^3
# Si number density = 23.474713 Si / 1000 Ang^3
#
#
#
# Elastic Constant Matrix: (Units=GPa)
#
#
# Indices 1 2 3 4 5 6 
#
# 1 80.4954 49.1031 30.6964 0.0009 -14.0909 -0.0009
# 2 49.1031 123.1744 49.3146 0.0038 -1.4580 0.0008
# 3 30.6964 49.3146 84.5889 0.0093 -14.7712 -0.0015
# 4 0.0009 0.0038 0.0093 28.2594 0.0006 13.0509
# 5 -14.0909 -1.4580 -14.7712 0.0006 30.6989 -0.0040
# 6 -0.0009 0.0008 -0.0015 13.0509 -0.0040 30.1023
#
#
#
# Elastic Compliance Matrix: (Units=1/GPa)
#
#
# Indices 1 2 3 4 5 6 
#
# 1 0.018322 -0.006614 -0.001506 0.000000 0.007371 0.000002
# 2 -0.006614 0.013186 -0.006232 0.000002 -0.005408 -0.000002
# 3 -0.001506 -0.006232 0.017281 -0.000007 0.007328 0.000005
# 4 0.000000 0.000002 -0.000007 0.044245 -0.000007 -0.019183
# 5 0.007371 -0.005408 0.007328 -0.000007 0.039227 0.000009
# 6 0.000002 -0.000002 0.000005 -0.019183 0.000009 0.041537
#
#
# Mechanical properties :
#
#
# Convention : Reuss Voigt Hill
#
# Bulk Modulus (GPa) = 49.78490 60.72076 55.25283
# Shear Modulus (GPa) = 23.90093 28.42177 26.16135
#
# Velocity S-wave (km/s) = 3.19432 3.48334 3.34196
# Velocity P-wave (km/s) = 5.90414 6.48852 6.20321
#
# Compressibility (1/GPa) = 0.02008641
#
# Stress axis : x y z
#
# Youngs Moduli (GPa) = 54.57838 75.83744 57.86729
#
# Poissons Ratio (x) = 0.50159 0.08714
# Poissons Ratio (y) = 0.36098 0.36061
# Poissons Ratio (z) = 0.08219 0.47259
#
# Static dielectric constant tensor:
#      x y z
#    x 1.952710 0.000000 0.110080 
#    y 0.000000 1.915080 0.000000 
#    z 0.110080 0.000000 1.937080 
# 
# From -- ./inp_files/257578.got.cif
#   From: 2010.05.17/outbox.cif.g08.bks.cpg/sg15_129_cif.got.tgz:257578.got - 2010.06.03 18:47:42.
