data_PCOD9296800
_publ_section_title
;
Structure prediction by ZEFSAII (Michael W. Deem and Ramdas Pophale) SiO2 
 PCOD9296800
Probable space group: C 2/C
;
_chemical_formula_sum "Si O2"
_cell_formula_units_Z 28
_cell_length_a 12.977431
_cell_length_b 5.019133
_cell_length_c 18.839818
_cell_angle_alpha 90.000000
_cell_angle_beta 57.061358
_cell_angle_gamma 90.000000
_cell_volume 1029.881398
_symmetry_space_group_name_H-M "C 2/C"
_symmetry_group_IT_number 15
_symmetry_cell_setting 'monoclinic'
loop_
_space_group_symop_operation_xyz
x,y,z
-x,y,1/2-z
-x,-y,-z
x,-y,1/2+z
1/2+x,1/2+y,z
1/2-x,1/2+y,1/2-z
1/2-x,1/2-y,-z
1/2+x,1/2-y,1/2+z
loop_
_atom_site_type_symbol
_atom_site_label
_atom_site_fract_x
_atom_site_fract_y
_atom_site_fract_z
Si Si1 0.293689 0.561711 0.920844
Si Si2 0.129966 0.869301 0.466451
Si Si3 0.210085 0.514245 0.723377
Si Si4 0.500000 0.614023 0.250000
O O1 0.173130 0.429400 0.930747
O O2 0.405976 0.579254 0.825658
O O3 0.250000 0.750000 0.000000
O O4 0.359616 0.352374 0.952200
O O5 0.228869 0.024331 0.378263
O O6 0.000000 0.000000 0.500000
O O7 0.207059 0.234691 0.765625
O O8 0.084870 0.680397 0.762510
#
# Coordination Sequence:
#
# PCOD9296800 Si02
#       4
#     8   8   8   4
#     4  10  23  46  71 106 147 198 256 309 387 457
#     4  10  23  46  67 106 146 190 248 312 378 452
#     4  11  26  48  75 112 148 198 257 303 384 460
#     4  10  24  50  72 106 152 202 244 324 376 454
#
# _framework density 27.187595999999999
#
# number of rings (size 3 to 8) (size 9 to 14) (size 15 to 20)
#    0.000    1.714    0.000    1.714    8.000    2.286 
#   30.857    0.000    0.000    0.000    0.000    0.000 
#    0.000    0.000    0.000    0.000    0.000    0.000 
#
# Total GULP energy -78058.430807 kJ/mol
# GULP energy per Si atom -5575.602201 kJ/mol
# Density = 2.712572 g / cm^3
# Si number density = 27.187596 Si / 1000 Ang^3
#
#
#
# Elastic Constant Matrix: (Units=GPa)
#
#
# Indices 1 2 3 4 5 6 
#
# 1 113.1277 -5.6904 49.6807 0.0006 -33.6938 0.0031
# 2 -5.6904 77.9545 40.9767 0.0004 -41.5188 0.0081
# 3 49.6807 40.9767 205.3300 -0.0006 -26.4204 0.0009
# 4 0.0006 0.0004 -0.0006 25.0166 -0.0007 -6.1714
# 5 -33.6938 -41.5188 -26.4204 -0.0007 60.8934 0.0002
# 6 0.0031 0.0081 0.0009 -6.1714 0.0002 58.5331
#
#
#
# Elastic Compliance Matrix: (Units=1/GPa)
#
#
# Indices 1 2 3 4 5 6 
#
# 1 0.015339 0.010727 -0.004045 -0.000001 0.014046 -0.000002
# 2 0.010727 0.028812 -0.005353 -0.000001 0.023258 -0.000005
# 3 -0.004045 -0.005353 0.006524 0.000000 -0.003057 0.000001
# 4 -0.000001 -0.000001 0.000000 0.041041 -0.000001 0.004327
# 5 0.014046 0.023258 -0.003057 -0.000001 0.038726 -0.000004
# 6 -0.000002 -0.000005 0.000001 0.004327 -0.000004 0.017541
#
#
# Mechanical properties :
#
#
# Convention : Reuss Voigt Hill
#
# Bulk Modulus (GPa) = 18.74991 62.92736 40.83864
# Shear Modulus (GPa) = 30.65604 49.65164 40.15384
#
# Velocity S-wave (km/s) = 3.36158 4.27811 3.84724
# Velocity P-wave (km/s) = 4.68812 6.89919 5.89819
#
# Compressibility (1/GPa) = 0.05333358
#
# Stress axis : x y z
#
# Youngs Moduli (GPa) = 65.19354 34.70812 153.28794
#
# Poissons Ratio (x) = -0.37231 0.62000
# Poissons Ratio (y) = -0.69933 0.82049
# Poissons Ratio (z) = 0.26369 0.18578
#
# Static dielectric constant tensor:
#      x y z
#    x 3.002180 -0.000190 0.453870 
#    y -0.000190 3.869440 -0.000130 
#    z 0.453870 -0.000130 2.422300 
# 
# From -- ./inp_files/149487.got.cif
#   From: 2010.05.17/outbox.cif.g08.bks.cpg/sg15_75_cif.got.tgz:149487.got - 2010.06.03 18:47:42.
