data_PCOD9296532
_publ_section_title
;
Structure prediction by ZEFSAII (Michael W. Deem and Ramdas Pophale) SiO2 
 PCOD9296532
Probable space group: C 2/C
;
_chemical_formula_sum "Si O2"
_cell_formula_units_Z 40
_cell_length_a 19.501357
_cell_length_b 8.588916
_cell_length_c 13.745764
_cell_angle_alpha 90.000000
_cell_angle_beta 122.609223
_cell_angle_gamma 90.000000
_cell_volume 1939.423819
_symmetry_space_group_name_H-M "C 2/C"
_symmetry_group_IT_number 15
_symmetry_cell_setting 'monoclinic'
loop_
_space_group_symop_operation_xyz
x,y,z
-x,y,1/2-z
-x,-y,-z
x,-y,1/2+z
1/2+x,1/2+y,z
1/2-x,1/2+y,1/2-z
1/2-x,1/2-y,-z
1/2+x,1/2-y,1/2+z
loop_
_atom_site_type_symbol
_atom_site_label
_atom_site_fract_x
_atom_site_fract_y
_atom_site_fract_z
Si Si1 0.785802 0.571003 0.750488
Si Si2 0.068789 0.369737 0.569558
Si Si3 0.999745 0.913464 0.137687
Si Si4 0.651675 0.631993 0.491553
Si Si5 0.659615 0.392790 0.769673
O O1 0.859108 0.448400 0.812164
O O2 0.730198 0.577278 0.611707
O O3 0.723553 0.525981 0.788722
O O4 0.822007 0.743989 0.782833
O O5 0.025215 0.228397 0.590623
O O6 0.113734 0.288467 0.511252
O O7 0.000000 0.500000 0.500000
O O8 0.000000 0.860997 0.250000
O O9 0.069537 0.044301 0.183943
O O10 0.915330 0.996097 0.049328
O O11 0.667657 0.650539 0.389292
#
# Coordination Sequence:
#
# PCOD9296532 Si02
#       5
#     8   8   8   8   8
#     4  12  24  41  69  97 133 171 219 274 321 396
#     4  12  26  41  67  99 133 173 220 270 327 393
#     4  10  23  45  67  94 131 174 218 268 328 392
#     4  11  24  44  72  91 135 178 216 272 333 385
#     4  11  23  45  68  98 132 174 219 271 335 382
#
# _framework density 20.624683999999998
#
# number of rings (size 3 to 8) (size 9 to 14) (size 15 to 20)
#    0.000    0.800    4.000    2.400    2.800    1.600 
#    0.000    3.000    0.000    0.000    0.000    0.000 
#    0.000    0.000    0.000    0.000    0.000    0.000 
#
# Total GULP energy -111846.733303 kJ/mol
# GULP energy per Si atom -5592.336665 kJ/mol
# Density = 2.057774 g / cm^3
# Si number density = 20.624684 Si / 1000 Ang^3
#
#
#
# Elastic Constant Matrix: (Units=GPa)
#
#
# Indices 1 2 3 4 5 6 
#
# 1 100.5325 54.5316 39.9858 0.0000 -4.4576 0.0000
# 2 54.5316 102.3868 54.8032 0.0000 -14.9315 0.0000
# 3 39.9858 54.8032 89.3467 0.0000 15.3720 0.0000
# 4 0.0000 0.0000 0.0000 11.8757 0.0000 3.9539
# 5 -4.4576 -14.9315 15.3720 0.0000 42.9725 0.0000
# 6 0.0000 0.0000 0.0000 3.9539 0.0000 30.1746
#
#
#
# Elastic Compliance Matrix: (Units=1/GPa)
#
#
# Indices 1 2 3 4 5 6 
#
# 1 0.014382 -0.006161 -0.002713 0.000000 0.000322 0.000000
# 2 -0.006161 0.021138 -0.012107 0.000000 0.011037 0.000000
# 3 -0.002713 -0.012107 0.021956 0.000000 -0.012342 0.000000
# 4 0.000000 0.000000 0.000000 0.088047 0.000000 -0.011537
# 5 0.000322 0.011037 -0.012342 0.000000 0.031554 0.000000
# 6 0.000000 0.000000 0.000000 -0.011537 0.000000 0.034652
#
#
# Mechanical properties :
#
#
# Convention : Reuss Voigt Hill
#
# Bulk Modulus (GPa) = 64.45618 65.65635 65.05626
# Shear Modulus (GPa) = 19.31520 26.53427 22.92474
#
# Velocity S-wave (km/s) = 3.06356 3.59071 3.33756
# Velocity P-wave (km/s) = 6.62070 7.00671 6.81644
#
# Compressibility (1/GPa) = 0.01551442
#
# Stress axis : x y z
#
# Youngs Moduli (GPa) = 69.53028 47.30742 45.54513
#
# Poissons Ratio (x) = 0.29147 0.12356
# Poissons Ratio (y) = 0.42838 0.55143
# Poissons Ratio (z) = 0.18862 0.57277
#
# Static dielectric constant tensor:
#      x y z
#    x 1.756950 0.000000 0.006970 
#    y 0.000000 1.715730 0.000000 
#    z 0.006970 0.000000 1.752660 
# 
# From -- ./inp_files/159504.got.cif
#   From: 2010.05.17/outbox.cif.g08.bks.cpg/sg15_80_cif.got.tgz:159504.got - 2010.06.03 18:47:42.
