data_PCOD9296549
_publ_section_title
;
Structure prediction by ZEFSAII (Michael W. Deem and Ramdas Pophale) SiO2 
 PCOD9296549
Probable space group: C 2/C
;
_chemical_formula_sum "Si O2"
_cell_formula_units_Z 32
_cell_length_a 16.648309
_cell_length_b 10.372416
_cell_length_c 12.542072
_cell_angle_alpha 90.000000
_cell_angle_beta 35.925264
_cell_angle_gamma 90.000000
_cell_volume 1270.741617
_symmetry_space_group_name_H-M "C 2/C"
_symmetry_group_IT_number 15
_symmetry_cell_setting 'monoclinic'
loop_
_space_group_symop_operation_xyz
x,y,z
-x,y,1/2-z
-x,-y,-z
x,-y,1/2+z
1/2+x,1/2+y,z
1/2-x,1/2+y,1/2-z
1/2-x,1/2-y,-z
1/2+x,1/2-y,1/2+z
loop_
_atom_site_type_symbol
_atom_site_label
_atom_site_fract_x
_atom_site_fract_y
_atom_site_fract_z
Si Si1 0.213233 0.970181 0.488806
Si Si2 0.115165 0.791073 0.997469
Si Si3 0.500000 0.943465 0.750000
Si Si4 0.000000 0.230210 0.250000
Si Si5 0.122610 0.202176 0.905783
O O1 0.148673 0.112263 0.558698
O O2 0.371056 0.975611 0.347956
O O3 0.124799 0.867330 0.650383
O O4 0.190912 0.918629 0.392798
O O5 0.258282 0.776201 0.782695
O O6 0.063111 0.653016 0.094567
O O7 0.995884 0.837892 0.047579
O O8 0.943814 0.280929 0.423454
#
# Coordination Sequence:
#
# PCOD9296549 Si02
#       5
#     8   8   4   4   8
#     4  10  23  45  67  99 140 184 220 285 344 404
#     4  12  23  44  71 107 136 179 234 286 338 407
#     4  12  25  40  73 106 140 172 243 282 333 406
#     4   8  23  46  65  96 134 192 213 276 349 406
#     4  10  25  43  70 101 140 181 229 280 348 404
#
# _framework density 25.182144000000001
#
# number of rings (size 3 to 8) (size 9 to 14) (size 15 to 20)
#    1.500    0.000    2.500    2.250    3.500    2.000 
#    4.500    0.000    0.000    0.000    0.000    0.000 
#    0.000    0.000    0.000    0.000    0.000    0.000 
#
# Total GULP energy -89481.531358 kJ/mol
# GULP energy per Si atom -5592.595710 kJ/mol
# Density = 2.512483 g / cm^3
# Si number density = 25.182144 Si / 1000 Ang^3
#
#
#
# Elastic Constant Matrix: (Units=GPa)
#
#
# Indices 1 2 3 4 5 6 
#
# 1 117.9590 -2.4074 52.8967 0.0000 -36.5821 0.0000
# 2 -2.4074 23.2329 12.2382 0.0000 2.0178 0.0000
# 3 52.8967 12.2382 179.6686 0.0000 -5.9661 0.0000
# 4 0.0000 0.0000 0.0000 9.4417 0.0000 -4.6448
# 5 -36.5821 2.0178 -5.9661 0.0000 58.8725 0.0000
# 6 0.0000 0.0000 0.0000 -4.6448 0.0000 27.3218
#
#
#
# Elastic Compliance Matrix: (Units=1/GPa)
#
#
# Indices 1 2 3 4 5 6 
#
# 1 0.012380 0.002538 -0.003577 0.000000 0.007243 0.000000
# 2 0.002538 0.045365 -0.003850 0.000000 -0.000368 0.000000
# 3 -0.003577 -0.003850 0.006835 0.000000 -0.001398 0.000000
# 4 0.000000 0.000000 0.000000 0.115580 0.000000 0.019649
# 5 0.007243 -0.000368 -0.001398 0.000000 0.021357 0.000000
# 6 0.000000 0.000000 0.000000 0.019649 0.000000 0.039941
#
#
# Mechanical properties :
#
#
# Convention : Reuss Voigt Hill
#
# Bulk Modulus (GPa) = 18.24740 49.59061 33.91900
# Shear Modulus (GPa) = 18.55270 36.33606 27.44438
#
# Velocity S-wave (km/s) = 2.71724 3.80271 3.30485
# Velocity P-wave (km/s) = 4.13599 6.24631 5.29730
#
# Compressibility (1/GPa) = 0.05480232
#
# Stress axis : x y z
#
# Youngs Moduli (GPa) = 80.77783 22.04335 146.31159
#
# Poissons Ratio (x) = -0.05595 0.52337
# Poissons Ratio (y) = -0.20501 0.56323
# Poissons Ratio (z) = 0.28895 0.08486
#
# Static dielectric constant tensor:
#      x y z
#    x 1.928090 0.000000 0.001080 
#    y 0.000000 2.196010 0.000000 
#    z 0.001080 0.000000 1.964660 
# 
# From -- ./inp_files/37401.got.cif
#   From: 2010.05.17/outbox.cif.g08.bks.cpg/sg15_19_cif.got.tgz:37401.got - 2010.06.03 18:47:42.
