data_PCOD9296942
_publ_section_title
;
Structure prediction by ZEFSAII (Michael W. Deem and Ramdas Pophale) SiO2 
 PCOD9296942
Probable space group: C 2/C
;
_chemical_formula_sum "Si O2"
_cell_formula_units_Z 40
_cell_length_a 7.976734
_cell_length_b 14.393773
_cell_length_c 21.242883
_cell_angle_alpha 90.000000
_cell_angle_beta 142.298166
_cell_angle_gamma 90.000000
_cell_volume 1491.581085
_symmetry_space_group_name_H-M "C 2/C"
_symmetry_group_IT_number 15
_symmetry_cell_setting 'monoclinic'
loop_
_space_group_symop_operation_xyz
x,y,z
-x,y,1/2-z
-x,-y,-z
x,-y,1/2+z
1/2+x,1/2+y,z
1/2-x,1/2+y,1/2-z
1/2-x,1/2-y,-z
1/2+x,1/2-y,1/2+z
loop_
_atom_site_type_symbol
_atom_site_label
_atom_site_fract_x
_atom_site_fract_y
_atom_site_fract_z
Si Si1 0.609740 0.684038 0.010281
Si Si2 0.550206 0.484379 0.403370
Si Si3 0.362162 0.105563 0.285456
Si Si4 0.100235 0.560395 0.609262
Si Si5 0.010496 0.714859 0.825623
O O1 0.840981 0.655506 0.129091
O O2 0.750000 0.750000 0.000000
O O3 0.521846 0.587381 0.951450
O O4 0.322078 0.729737 0.941638
O O5 0.269729 0.533761 0.302670
O O6 0.683538 0.432180 0.382776
O O7 0.788599 0.557419 0.491717
O O8 0.151539 0.189653 0.225466
O O9 0.364219 0.041878 0.349010
O O10 0.122773 0.640599 0.667159
O O11 0.000000 0.680056 0.750000
#
# Coordination Sequence:
#
# PCOD9296942 Si02
#       5
#     8   8   8   8   8
#     4  11  25  45  74 108 147 198 247 304 379 446
#     4  10  23  46  73  98 149 192 247 304 372 445
#     4  11  24  45  73 104 149 200 246 302 381 443
#     4  10  24  43  75 104 139 198 250 300 371 453
#     4  12  24  44  77 106 151 194 247 312 374 440
#
# _framework density 26.817181999999999
#
# number of rings (size 3 to 8) (size 9 to 14) (size 15 to 20)
#    0.000    1.200    2.000    3.000    5.600    4.000 
#    0.000    3.000    0.000    0.000    0.000    0.000 
#    0.000    0.000    0.000    0.000    0.000    0.000 
#
# Total GULP energy -112238.975117 kJ/mol
# GULP energy per Si atom -5611.948756 kJ/mol
# Density = 2.675614 g / cm^3
# Si number density = 26.817182 Si / 1000 Ang^3
#
#
#
# Elastic Constant Matrix: (Units=GPa)
#
#
# Indices 1 2 3 4 5 6 
#
# 1 84.6692 37.0668 43.9942 0.0002 1.5866 0.0000
# 2 37.0668 123.2612 71.0206 0.0001 -3.3298 0.0000
# 3 43.9942 71.0206 213.1424 0.0007 56.0546 0.0002
# 4 0.0002 0.0001 0.0007 55.0801 0.0002 -4.5862
# 5 1.5866 -3.3298 56.0546 0.0002 46.0765 0.0000
# 6 0.0000 0.0000 0.0002 -4.5862 0.0000 41.6015
#
#
#
# Elastic Compliance Matrix: (Units=1/GPa)
#
#
# Indices 1 2 3 4 5 6 
#
# 1 0.014370 -0.002629 -0.002808 0.000000 0.002732 0.000000
# 2 -0.002629 0.012366 -0.005642 0.000000 0.007848 0.000000
# 3 -0.002808 -0.005642 0.010636 0.000000 -0.013250 0.000000
# 4 0.000000 0.000000 0.000000 0.018324 0.000000 0.002020
# 5 0.002732 0.007848 -0.013250 0.000000 0.038296 0.000000
# 6 0.000000 0.000000 0.000000 0.002020 0.000000 0.024260
#
#
# Mechanical properties :
#
#
# Convention : Reuss Voigt Hill
#
# Bulk Modulus (GPa) = 65.73233 80.58177 73.15705
# Shear Modulus (GPa) = 34.36883 46.48437 40.42660
#
# Velocity S-wave (km/s) = 3.58382 4.16790 3.88685
# Velocity P-wave (km/s) = 6.45674 7.29902 6.89076
#
# Compressibility (1/GPa) = 0.01521321
#
# Stress axis : x y z
#
# Youngs Moduli (GPa) = 69.59056 80.86615 94.02192
#
# Poissons Ratio (x) = 0.21263 0.26404
# Poissons Ratio (y) = 0.18298 0.53043
# Poissons Ratio (z) = 0.19543 0.45621
#
# Static dielectric constant tensor:
#      x y z
#    x 2.105870 0.000000 -0.038910 
#    y 0.000000 2.038010 0.000000 
#    z -0.038910 0.000000 2.117250 
# 
# From -- ./inp_files/264532.got.cif
#   From: 2010.05.17/outbox.cif.g08.bks.cpg/sg15_133_cif.got.tgz:264532.got - 2010.06.03 18:47:42.
