data_PCOD9296052
_publ_section_title
;
Structure prediction by ZEFSAII (Michael W. Deem and Ramdas Pophale) SiO2 
 PCOD9296052
Probable space group: C 2/C
;
_chemical_formula_sum "Si O2"
_cell_formula_units_Z 44
_cell_length_a 7.688506
_cell_length_b 27.095161
_cell_length_c 11.293938
_cell_angle_alpha 90.000000
_cell_angle_beta 70.696341
_cell_angle_gamma 90.000000
_cell_volume 2220.494952
_symmetry_space_group_name_H-M "C 2/C"
_symmetry_group_IT_number 15
_symmetry_cell_setting 'monoclinic'
loop_
_space_group_symop_operation_xyz
x,y,z
-x,y,1/2-z
-x,-y,-z
x,-y,1/2+z
1/2+x,1/2+y,z
1/2-x,1/2+y,1/2-z
1/2-x,1/2-y,-z
1/2+x,1/2-y,1/2+z
loop_
_atom_site_type_symbol
_atom_site_label
_atom_site_fract_x
_atom_site_fract_y
_atom_site_fract_z
Si Si1 0.622924 0.446518 0.839020
Si Si2 0.500000 0.109958 0.250000
Si Si3 0.410651 0.822692 0.987323
Si Si4 0.479098 0.285583 0.389845
Si Si5 0.919038 0.063956 0.636285
Si Si6 0.832716 0.348843 0.367816
O O1 0.500000 0.433893 0.750000
O O2 0.627480 0.505962 0.847385
O O3 0.823611 0.424523 0.766988
O O4 0.542379 0.429383 0.987029
O O5 0.573761 0.147466 0.135492
O O6 0.451024 0.764213 0.970117
O O7 0.196776 0.822067 0.072929
O O8 0.567994 0.848214 0.029500
O O9 0.500000 0.269284 0.250000
O O10 0.657296 0.313662 0.396647
O O11 0.741015 0.098171 0.656530
O O12 0.000000 0.076444 0.750000
O O13 0.000000 0.329795 0.250000
#
# Coordination Sequence:
#
# PCOD9296052 Si02
#       6
#     8   4   8   8   8   8
#     4  10  23  45  65  92 135 171 220 268 330 390
#     4  12  24  40  68  96 128 174 216 266 330 392
#     4  11  25  42  65  95 128 170 217 266 328 389
#     4  11  22  45  63  90 133 169 213 272 320 388
#     4  10  23  44  66  95 131 173 215 280 325 380
#     4  12  24  38  65  96 126 163 218 262 325 384
#
# _framework density 19.815401000000001
#
# number of rings (size 3 to 8) (size 9 to 14) (size 15 to 20)
#    0.000    1.091    2.727    3.273    3.818    0.000 
#    0.000    4.545    0.000    0.000    0.000    0.000 
#    0.000    0.000    0.000    0.000    0.000    0.000 
#
# Total GULP energy -122659.517996 kJ/mol
# GULP energy per Si atom -5575.432636 kJ/mol
# Density = 1.977030 g / cm^3
# Si number density = 19.815401 Si / 1000 Ang^3
#
#
#
# Elastic Constant Matrix: (Units=GPa)
#
#
# Indices 1 2 3 4 5 6 
#
# 1 164.5599 54.0696 34.5967 0.0000 -4.5286 0.0000
# 2 54.0696 63.9197 19.2970 0.0000 1.1100 0.0000
# 3 34.5967 19.2970 62.4506 0.0000 1.3707 0.0000
# 4 0.0000 0.0000 0.0000 34.6845 0.0000 3.9416
# 5 -4.5286 1.1100 1.3707 0.0000 31.9083 0.0000
# 6 0.0000 0.0000 0.0000 3.9416 0.0000 15.3072
#
#
#
# Elastic Compliance Matrix: (Units=1/GPa)
#
#
# Indices 1 2 3 4 5 6 
#
# 1 0.008939 -0.006710 -0.002914 0.000000 0.001627 0.000000
# 2 -0.006710 0.022295 -0.003137 0.000000 -0.001593 0.000000
# 3 -0.002914 -0.003137 0.018621 0.000000 -0.001104 0.000000
# 4 0.000000 0.000000 0.000000 0.029700 0.000000 -0.007648
# 5 0.001627 -0.001593 -0.001104 0.000000 0.031674 0.000000
# 6 0.000000 0.000000 0.000000 -0.007648 0.000000 0.067298
#
#
# Mechanical properties :
#
#
# Convention : Reuss Voigt Hill
#
# Bulk Modulus (GPa) = 41.09758 56.31741 48.70749
# Shear Modulus (GPa) = 23.56706 28.57780 26.07243
#
# Velocity S-wave (km/s) = 3.45241 3.80175 3.63128
# Velocity P-wave (km/s) = 6.05619 6.91041 6.49735
#
# Compressibility (1/GPa) = 0.02433234
#
# Stress axis : x y z
#
# Youngs Moduli (GPa) = 111.86921 44.85259 53.70349
#
# Poissons Ratio (x) = 0.30096 0.15652
# Poissons Ratio (y) = 0.75063 0.16847
# Poissons Ratio (z) = 0.32604 0.14070
#
# Static dielectric constant tensor:
#      x y z
#    x 1.438230 0.000000 -0.216540 
#    y 0.000000 1.672050 0.000000 
#    z -0.216540 0.000000 1.600160 
# 
# From -- ./inp_files/73880.got.cif
#   From: 2010.05.17/outbox.cif.g08.bks.cpg/sg15_37_cif.got.tgz:73880.got - 2010.06.03 18:47:42.
