data_PCOD9296389
_publ_section_title
;
Structure prediction by ZEFSAII (Michael W. Deem and Ramdas Pophale) SiO2 
 PCOD9296389
Probable space group: C 2/C
;
_chemical_formula_sum "Si O2"
_cell_formula_units_Z 32
_cell_length_a 5.800766
_cell_length_b 14.873037
_cell_length_c 17.298801
_cell_angle_alpha 90.000000
_cell_angle_beta 74.173001
_cell_angle_gamma 90.000000
_cell_volume 1435.874622
_symmetry_space_group_name_H-M "C 2/C"
_symmetry_group_IT_number 15
_symmetry_cell_setting 'monoclinic'
loop_
_space_group_symop_operation_xyz
x,y,z
-x,y,1/2-z
-x,-y,-z
x,-y,1/2+z
1/2+x,1/2+y,z
1/2-x,1/2+y,1/2-z
1/2-x,1/2-y,-z
1/2+x,1/2-y,1/2+z
loop_
_atom_site_type_symbol
_atom_site_label
_atom_site_fract_x
_atom_site_fract_y
_atom_site_fract_z
Si Si1 0.500000 0.803264 0.250000
Si Si2 0.278282 0.565040 0.040527
Si Si3 0.500000 0.596722 0.750000
Si Si4 0.392873 0.301577 0.919339
Si Si5 0.318788 0.994562 0.605333
O O1 0.759167 0.851452 0.243015
O O2 0.551663 0.750607 0.164759
O O3 0.364278 0.658868 0.064949
O O4 0.087391 0.515948 0.113472
O O5 0.500000 0.500000 0.000000
O O6 0.157377 0.565584 0.967266
O O7 0.608092 0.533080 0.674902
O O8 0.252450 0.392749 0.909295
O O9 0.250000 0.250000 0.000000
#
# Coordination Sequence:
#
# PCOD9296389 Si02
#       5
#     4   8   4   8   8
#     4  12  31  48  71 116 150 196 254 318 379 442
#     4   9  21  41  74 102 138 187 252 288 375 445
#     4  12  29  48  73 104 154 196 258 308 369 452
#     4  11  25  45  73 107 152 192 244 316 385 440
#     4  10  23  44  73 104 139 201 248 302 371 457
#
# _framework density 22.286068
#
# number of rings (size 3 to 8) (size 9 to 14) (size 15 to 20)
#    0.000    1.500    0.000    2.250   21.000    1.000 
#    0.000    0.000    0.000    0.000    0.000    0.000 
#    0.000    0.000    0.000    0.000    0.000    0.000 
#
# Total GULP energy -89131.099187 kJ/mol
# GULP energy per Si atom -5570.693699 kJ/mol
# Density = 2.223534 g / cm^3
# Si number density = 22.286068 Si / 1000 Ang^3
#
#
#
# Elastic Constant Matrix: (Units=GPa)
#
#
# Indices 1 2 3 4 5 6 
#
# 1 158.3179 83.6084 73.1785 0.0000 -27.9038 0.0000
# 2 83.6084 125.7423 98.2613 0.0000 -6.2369 0.0000
# 3 73.1785 98.2613 179.4559 0.0000 -29.3543 0.0000
# 4 0.0000 0.0000 0.0000 44.3543 0.0000 -4.1927
# 5 -27.9038 -6.2369 -29.3543 0.0000 37.4131 0.0000
# 6 0.0000 0.0000 0.0000 -4.1927 0.0000 57.5470
#
#
#
# Elastic Compliance Matrix: (Units=1/GPa)
#
#
# Indices 1 2 3 4 5 6 
#
# 1 0.011520 -0.008075 0.001043 0.000000 0.008064 0.000000
# 2 -0.008075 0.020159 -0.009385 0.000000 -0.010025 0.000000
# 3 0.001043 -0.009385 0.011653 0.000000 0.008356 0.000000
# 4 0.000000 0.000000 0.000000 0.022702 0.000000 0.001654
# 5 0.008064 -0.010025 0.008356 0.000000 0.037628 0.000000
# 6 0.000000 0.000000 0.000000 0.001654 0.000000 0.017498
#
#
# Mechanical properties :
#
#
# Convention : Reuss Voigt Hill
#
# Bulk Modulus (GPa) = 95.26223 108.17917 101.72070
# Shear Modulus (GPa) = 31.74765 41.76074 36.75419
#
# Velocity S-wave (km/s) = 3.77842 4.33349 4.06544
# Velocity P-wave (km/s) = 7.86595 8.58402 8.23282
#
# Compressibility (1/GPa) = 0.01049734
#
# Stress axis : x y z
#
# Youngs Moduli (GPa) = 86.80514 49.60685 85.81673
#
# Poissons Ratio (x) = 0.40057 -0.08949
# Poissons Ratio (y) = 0.70094 0.80539
# Poissons Ratio (z) = -0.09052 0.46556
#
# Static dielectric constant tensor:
#      x y z
#    x 2.078990 0.000000 0.000090 
#    y 0.000000 1.818920 0.000000 
#    z 0.000090 0.000000 2.015980 
# 
# From -- ./inp_files/183759.got.cif
#   From: 2010.05.17/outbox.cif.g08.bks.cpg/sg15_92_cif.got.tgz:183759.got - 2010.06.03 18:47:42.
