data_PCOD9296879
_publ_section_title
;
Structure prediction by ZEFSAII (Michael W. Deem and Ramdas Pophale) SiO2 
 PCOD9296879
Probable space group: C 2/C
;
_chemical_formula_sum "Si O2"
_cell_formula_units_Z 52
_cell_length_a 11.709764
_cell_length_b 25.954367
_cell_length_c 9.467698
_cell_angle_alpha 90.000000
_cell_angle_beta 60.017840
_cell_angle_gamma 90.000000
_cell_volume 2492.365068
_symmetry_space_group_name_H-M "C 2/C"
_symmetry_group_IT_number 15
_symmetry_cell_setting 'monoclinic'
loop_
_space_group_symop_operation_xyz
x,y,z
-x,y,1/2-z
-x,-y,-z
x,-y,1/2+z
1/2+x,1/2+y,z
1/2-x,1/2+y,1/2-z
1/2-x,1/2-y,-z
1/2+x,1/2-y,1/2+z
loop_
_atom_site_type_symbol
_atom_site_label
_atom_site_fract_x
_atom_site_fract_y
_atom_site_fract_z
Si Si1 0.234502 0.893917 0.089485
Si Si2 0.000000 0.844340 0.750000
Si Si3 0.371560 0.740571 0.526161
Si Si4 0.848715 0.216962 0.844855
Si Si5 0.773557 0.912705 0.734905
Si Si6 0.899150 0.016229 0.686221
Si Si7 0.515514 0.155169 0.411312
O O1 0.153565 0.841988 0.112040
O O2 0.175225 0.929139 0.250680
O O3 0.227975 0.918097 0.936071
O O4 0.380812 0.873584 0.035541
O O5 0.046817 0.805138 0.597371
O O6 0.109561 0.880157 0.759953
O O7 0.250000 0.750000 0.500000
O O8 0.305671 0.721809 0.711274
O O9 0.452883 0.792392 0.520172
O O10 0.000000 0.233202 0.750000
O O11 0.750000 0.250000 0.000000
O O12 0.640166 0.882383 0.853553
O O13 0.792601 0.971131 0.773135
O O14 0.000000 0.017620 0.750000
O O15 0.000000 0.000000 0.500000
O O16 0.500000 0.163273 0.250000
#
# Coordination Sequence:
#
# PCOD9296879 Si02
#       7
#     8   4   8   8   8   8   8
#     4  11  25  44  73 101 141 195 253 295 363 455
#     4  12  26  42  70 108 154 192 240 316 384 434
#     4  12  26  42  67 106 152 189 243 308 378 436
#     4  12  26  45  74 103 144 198 252 297 370 461
#     4  11  23  44  70 104 141 189 243 311 367 439
#     4  12  25  44  73 104 139 180 248 308 366 431
#     4  10  23  46  71 102 147 198 246 294 366 459
#
# _framework density 20.863717000000001
#
# number of rings (size 3 to 8) (size 9 to 14) (size 15 to 20)
#    0.000    0.615    3.846    4.615    6.462    0.615 
#    0.000    0.769    0.000    0.000    0.000    0.000 
#    0.000    0.000    0.000    0.000    0.000    0.000 
#
# Total GULP energy -145053.646467 kJ/mol
# GULP energy per Si atom -5578.986403 kJ/mol
# Density = 2.081623 g / cm^3
# Si number density = 20.863717 Si / 1000 Ang^3
#
#
#
# Elastic Constant Matrix: (Units=GPa)
#
#
# Indices 1 2 3 4 5 6 
#
# 1 121.1783 24.5104 14.6282 0.0000 -11.5729 0.0000
# 2 24.5104 126.6255 25.8596 0.0000 -22.6463 0.0000
# 3 14.6282 25.8596 95.3650 0.0000 -15.4426 0.0000
# 4 0.0000 0.0000 0.0000 38.8718 0.0000 0.0580
# 5 -11.5729 -22.6463 -15.4426 0.0000 24.1346 0.0000
# 6 0.0000 0.0000 0.0000 0.0580 0.0000 26.7341
#
#
#
# Elastic Compliance Matrix: (Units=1/GPa)
#
#
# Indices 1 2 3 4 5 6 
#
# 1 0.008813 -0.001077 -0.000601 0.000000 0.002831 0.000000
# 2 -0.001077 0.009760 -0.001207 0.000000 0.007869 0.000000
# 3 -0.000601 -0.001207 0.011909 0.000000 0.006199 0.000000
# 4 0.000000 0.000000 0.000000 0.025726 0.000000 -0.000056
# 5 0.002831 0.007869 0.006199 0.000000 0.054142 0.000000
# 6 0.000000 0.000000 0.000000 -0.000056 0.000000 0.037406
#
#
# Mechanical properties :
#
#
# Convention : Reuss Voigt Hill
#
# Bulk Modulus (GPa) = 40.46708 52.57390 46.52049
# Shear Modulus (GPa) = 30.90940 36.49281 33.70111
#
# Velocity S-wave (km/s) = 3.85319 4.18677 4.02344
# Velocity P-wave (km/s) = 6.26371 6.97319 6.62795
#
# Compressibility (1/GPa) = 0.02471145
#
# Stress axis : x y z
#
# Youngs Moduli (GPa) = 113.46805 102.46342 83.96693
#
# Poissons Ratio (x) = 0.11033 0.05050
# Poissons Ratio (y) = 0.12218 0.10135
# Poissons Ratio (z) = 0.06825 0.12368
#
# Static dielectric constant tensor:
#      x y z
#    x 1.851870 0.000000 0.127540 
#    y 0.000000 1.739160 0.000000 
#    z 0.127540 0.000000 2.107790 
# 
# From -- ./inp_files/34064.got.cif
#   From: 2010.05.17/outbox.cif.g08.bks.cpg/sg15_18_cif.got.tgz:34064.got - 2010.06.03 18:47:42.
