data_PCOD9296829
_publ_section_title
;
Structure prediction by ZEFSAII (Michael W. Deem and Ramdas Pophale) SiO2 
 PCOD9296829
Probable space group: C 2/C
;
_chemical_formula_sum "Si O2"
_cell_formula_units_Z 60
_cell_length_a 13.247450
_cell_length_b 9.615874
_cell_length_c 22.126969
_cell_angle_alpha 90.000000
_cell_angle_beta 107.244475
_cell_angle_gamma 90.000000
_cell_volume 2691.958890
_symmetry_space_group_name_H-M "C 2/C"
_symmetry_group_IT_number 15
_symmetry_cell_setting 'monoclinic'
loop_
_space_group_symop_operation_xyz
x,y,z
-x,y,1/2-z
-x,-y,-z
x,-y,1/2+z
1/2+x,1/2+y,z
1/2-x,1/2+y,1/2-z
1/2-x,1/2-y,-z
1/2+x,1/2-y,1/2+z
loop_
_atom_site_type_symbol
_atom_site_label
_atom_site_fract_x
_atom_site_fract_y
_atom_site_fract_z
Si Si1 0.981823 0.808896 0.148464
Si Si2 0.330515 0.213518 0.747622
Si Si3 0.240364 0.755136 0.628056
Si Si4 0.936586 0.859669 0.473314
Si Si5 0.954140 0.383809 0.449009
Si Si6 0.510804 0.000516 0.672500
Si Si7 0.736641 0.074738 0.876965
Si Si8 0.000000 0.951823 0.750000
O O1 0.856196 0.785520 0.127812
O O2 0.021652 0.663575 0.184684
O O3 0.022273 0.818795 0.086818
O O4 0.001631 0.945797 0.192301
O O5 0.276736 0.222477 0.803699
O O6 0.251397 0.170428 0.680328
O O7 0.398602 0.349151 0.740178
O O8 0.414469 0.087217 0.769822
O O9 0.161022 0.683774 0.566448
O O10 0.220778 0.919576 0.623892
O O11 0.809757 0.869724 0.443743
O O12 0.968040 0.746500 0.528961
O O13 0.000000 0.000000 0.500000
O O14 0.000000 0.500000 0.500000
O O15 0.943371 0.460535 0.384026
O O16 0.389784 0.053172 0.640928
#
# Coordination Sequence:
#
# PCOD9296829 Si02
#       8
#     8   8   8   8   8   8   8   4
#     4  11  27  44  69 102 138 186 231 282 351 422
#     4  11  24  44  69 102 142 174 230 292 346 418
#     4  10  25  43  70  98 135 185 229 279 345 416
#     4  12  26  44  70 102 143 181 235 292 345 407
#     4  11  23  46  70  98 137 177 233 292 334 414
#     4  10  23  46  69 100 134 183 230 281 354 416
#     4  11  23  42  70  98 134 185 223 283 352 406
#     4  12  26  42  68 106 146 168 228 298 352 414
#
# _framework density 22.288601
#
# number of rings (size 3 to 8) (size 9 to 14) (size 15 to 20)
#    0.000    1.067    4.000    0.800    9.333    3.200 
#    0.000    0.000    0.000    0.000    0.000    0.000 
#    0.000    0.000    0.000    0.000    0.000    0.000 
#
# Total GULP energy -167440.309142 kJ/mol
# GULP energy per Si atom -5581.343638 kJ/mol
# Density = 2.223787 g / cm^3
# Si number density = 22.288601 Si / 1000 Ang^3
#
#
#
# Elastic Constant Matrix: (Units=GPa)
#
#
# Indices 1 2 3 4 5 6 
#
# 1 45.8854 16.2358 -3.2588 0.0000 7.3070 0.0000
# 2 16.2358 137.5784 35.5972 0.0000 27.6715 0.0000
# 3 -3.2588 35.5972 52.3116 0.0000 24.4267 0.0000
# 4 0.0000 0.0000 0.0000 41.8048 0.0000 0.6360
# 5 7.3070 27.6715 24.4267 0.0000 35.1215 0.0000
# 6 0.0000 0.0000 0.0000 0.6360 0.0000 22.8247
#
#
#
# Elastic Compliance Matrix: (Units=1/GPa)
#
#
# Indices 1 2 3 4 5 6 
#
# 1 0.024694 -0.003273 0.007346 0.000000 -0.007668 0.000000
# 2 -0.003273 0.009675 -0.005252 0.000000 -0.003290 0.000000
# 3 0.007346 -0.005252 0.032476 0.000000 -0.019977 0.000000
# 4 0.000000 0.000000 0.000000 0.023931 0.000000 -0.000667
# 5 -0.007668 -0.003290 -0.019977 0.000000 0.046554 0.000000
# 6 0.000000 0.000000 0.000000 -0.000667 0.000000 0.043831
#
#
# Mechanical properties :
#
#
# Convention : Reuss Voigt Hill
#
# Bulk Modulus (GPa) = 15.50656 36.99154 26.24905
# Shear Modulus (GPa) = 24.38862 32.43027 28.40944
#
# Velocity S-wave (km/s) = 3.31149 3.81861 3.57405
# Velocity P-wave (km/s) = 4.64688 6.00624 5.36975
#
# Compressibility (1/GPa) = 0.06448882
#
# Stress axis : x y z
#
# Youngs Moduli (GPa) = 40.49530 103.35653 30.79210
#
# Poissons Ratio (x) = 0.33824 -0.22620
# Poissons Ratio (y) = 0.13252 0.16171
# Poissons Ratio (z) = -0.29748 0.54279
#
# Static dielectric constant tensor:
#      x y z
#    x 1.903840 0.000000 0.048400 
#    y 0.000000 1.867050 0.000000 
#    z 0.048400 0.000000 1.446680 
# 
# From -- ./inp_files/273219.got.cif
#   From: 2010.05.17/outbox.cif.g08.bks.cpg/sg15_137_cif.got.tgz:273219.got - 2010.06.03 18:47:42.
