data_PCOD9296428
_publ_section_title
;
Structure prediction by ZEFSAII (Michael W. Deem and Ramdas Pophale) SiO2 
 PCOD9296428
Probable space group: C 2/C
;
_chemical_formula_sum "Si O2"
_cell_formula_units_Z 40
_cell_length_a 17.268607
_cell_length_b 5.097469
_cell_length_c 18.951352
_cell_angle_alpha 90.000000
_cell_angle_beta 87.961163
_cell_angle_gamma 90.000000
_cell_volume 1667.159212
_symmetry_space_group_name_H-M "C 2/C"
_symmetry_group_IT_number 15
_symmetry_cell_setting 'monoclinic'
loop_
_space_group_symop_operation_xyz
x,y,z
-x,y,1/2-z
-x,-y,-z
x,-y,1/2+z
1/2+x,1/2+y,z
1/2-x,1/2+y,1/2-z
1/2-x,1/2-y,-z
1/2+x,1/2-y,1/2+z
loop_
_atom_site_type_symbol
_atom_site_label
_atom_site_fract_x
_atom_site_fract_y
_atom_site_fract_z
Si Si1 0.018426 0.623485 0.396772
Si Si2 0.212700 0.244800 0.156421
Si Si3 0.838555 0.271224 0.923049
Si Si4 0.860625 0.463579 0.204450
Si Si5 0.392569 0.359022 0.570672
O O1 0.072043 0.852196 0.428168
O O2 0.056014 0.583620 0.317740
O O3 0.035975 0.348454 0.434892
O O4 0.929069 0.686120 0.401066
O O5 0.207902 0.468928 0.097383
O O6 0.154733 0.342573 0.219349
O O7 0.294715 0.179847 0.190463
O O8 0.188437 0.974702 0.121475
O O9 0.839687 0.201575 0.005537
O O10 0.853931 0.236037 0.144991
#
# Coordination Sequence:
#
# PCOD9296428 Si02
#       5
#     8   8   8   8   8
#     4  10  23  45  72  98 136 183 222 280 349 420
#     4  12  27  44  68 101 140 183 223 293 329 421
#     4  12  25  44  73 106 135 167 244 286 341 390
#     4  10  28  46  69  92 146 185 228 260 377 390
#     4  10  23  44  74  99 135 184 221 284 345 423
#
# _framework density 23.992906999999999
#
# number of rings (size 3 to 8) (size 9 to 14) (size 15 to 20)
#    1.200    0.000    0.000    4.800    8.400    2.400 
#    0.000    0.000    0.000    0.000    0.000    0.000 
#    0.000    0.000    0.000    0.000    0.000    0.000 
#
# Total GULP energy -111919.360702 kJ/mol
# GULP energy per Si atom -5595.968035 kJ/mol
# Density = 2.393830 g / cm^3
# Si number density = 23.992907 Si / 1000 Ang^3
#
#
#
# Elastic Constant Matrix: (Units=GPa)
#
#
# Indices 1 2 3 4 5 6 
#
# 1 42.6427 6.2465 8.2604 0.0000 -10.8534 0.0000
# 2 6.2465 104.3054 18.3025 0.0000 6.8092 0.0000
# 3 8.2604 18.3025 97.0133 0.0000 -6.2893 0.0000
# 4 0.0000 0.0000 0.0000 42.8421 0.0000 1.9865
# 5 -10.8534 6.8092 -6.2893 0.0000 33.0168 0.0000
# 6 0.0000 0.0000 0.0000 1.9865 0.0000 34.3933
#
#
#
# Elastic Compliance Matrix: (Units=1/GPa)
#
#
# Indices 1 2 3 4 5 6 
#
# 1 0.026214 -0.001913 -0.001303 0.000000 0.008764 0.000000
# 2 -0.001913 0.010252 -0.001973 0.000000 -0.003119 0.000000
# 3 -0.001303 -0.001973 0.010925 0.000000 0.002060 0.000000
# 4 0.000000 0.000000 0.000000 0.023404 0.000000 -0.001352
# 5 0.008764 -0.003119 0.002060 0.000000 0.034204 0.000000
# 6 0.000000 0.000000 0.000000 -0.001352 0.000000 0.029154
#
#
# Mechanical properties :
#
#
# Convention : Reuss Voigt Hill
#
# Bulk Modulus (GPa) = 27.01906 34.39780 30.70843
# Shear Modulus (GPa) = 31.87389 36.12722 34.00056
#
# Velocity S-wave (km/s) = 3.64877 3.88460 3.76853
# Velocity P-wave (km/s) = 5.38861 5.87265 5.63583
#
# Compressibility (1/GPa) = 0.03701091
#
# Stress axis : x y z
#
# Youngs Moduli (GPa) = 38.14777 97.54476 91.53625
#
# Poissons Ratio (x) = 0.18664 0.11927
# Poissons Ratio (y) = 0.07299 0.18064
# Poissons Ratio (z) = 0.04970 0.19249
#
# Static dielectric constant tensor:
#      x y z
#    x 1.937910 0.000000 -0.031500 
#    y 0.000000 1.864950 0.000000 
#    z -0.031500 0.000000 1.917780 
# 
# From -- ./inp_files/246310.got.cif
#   From: 2010.05.17/outbox.cif.g08.bks.cpg/sg15_124_cif.got.tgz:246310.got - 2010.06.03 18:47:42.
