data_PCOD9296285
_publ_section_title
;
Structure prediction by ZEFSAII (Michael W. Deem and Ramdas Pophale) SiO2 
 PCOD9296285
Probable space group: C 2/C
;
_chemical_formula_sum "Si O2"
_cell_formula_units_Z 60
_cell_length_a 16.016854
_cell_length_b 27.218968
_cell_length_c 8.582699
_cell_angle_alpha 90.000000
_cell_angle_beta 42.163295
_cell_angle_gamma 90.000000
_cell_volume 2511.622607
_symmetry_space_group_name_H-M "C 2/C"
_symmetry_group_IT_number 15
_symmetry_cell_setting 'monoclinic'
loop_
_space_group_symop_operation_xyz
x,y,z
-x,y,1/2-z
-x,-y,-z
x,-y,1/2+z
1/2+x,1/2+y,z
1/2-x,1/2+y,1/2-z
1/2-x,1/2-y,-z
1/2+x,1/2-y,1/2+z
loop_
_atom_site_type_symbol
_atom_site_label
_atom_site_fract_x
_atom_site_fract_y
_atom_site_fract_z
Si Si1 0.585767 0.174543 0.983517
Si Si2 0.019168 0.054851 0.408526
Si Si3 0.500000 0.016047 0.750000
Si Si4 0.235242 0.606539 0.279945
Si Si5 0.530004 0.067149 0.971610
Si Si6 0.895567 0.130632 0.775943
Si Si7 0.172292 0.775557 0.244247
Si Si8 0.660801 0.791962 0.050303
O O1 0.569624 0.116806 0.994197
O O2 0.727028 0.186978 0.825504
O O3 0.575438 0.192965 0.817472
O O4 0.500000 0.192645 0.250000
O O5 0.151882 0.076604 0.291459
O O6 0.000000 0.053549 0.250000
O O7 0.910267 0.091838 0.618832
O O8 0.000000 0.000000 0.500000
O O9 0.555084 0.977373 0.552334
O O10 0.591599 0.049981 0.724988
O O11 0.111730 0.576623 0.394767
O O12 0.208437 0.655117 0.421864
O O13 0.277422 0.628354 0.051785
O O14 0.928917 0.186328 0.679128
O O15 0.000000 0.112987 0.750000
O O16 0.130207 0.738532 0.434602
O O17 0.250000 0.750000 0.000000
O O18 0.750000 0.750000 0.000000
#
# Coordination Sequence:
#
# PCOD9296285 Si02
#       8
#     8   8   4   8   8   8   8   8
#     4  11  24  44  69  99 143 190 234 291 359 431
#     4  11  26  48  73 104 138 188 248 302 370 435
#     4  10  24  40  64  98 140 172 236 278 344 446
#     4  11  23  46  70 102 144 183 236 303 358 441
#     4  11  23  44  64 102 136 184 226 291 361 424
#     4  10  23  44  70  99 141 181 233 302 363 427
#     4  11  23  45  70 103 144 186 243 294 357 436
#     4  10  24  43  69 103 143 184 243 290 355 433
#
# _framework density 23.888940000000002
#
# number of rings (size 3 to 8) (size 9 to 14) (size 15 to 20)
#    0.000    1.333    2.000    2.800    3.733    2.667 
#    4.800    0.000    0.000    0.000    0.000    0.000 
#    0.000    0.000    0.000    0.000    0.000    0.000 
#
# Total GULP energy -167078.772019 kJ/mol
# GULP energy per Si atom -5569.292401 kJ/mol
# Density = 2.383457 g / cm^3
# Si number density = 23.888940 Si / 1000 Ang^3
#
#
#
# Elastic Constant Matrix: (Units=GPa)
#
#
# Indices 1 2 3 4 5 6 
#
# 1 76.2355 56.5754 40.3065 0.0000 15.6856 0.0000
# 2 56.5754 175.6797 62.1982 0.0000 14.6030 0.0000
# 3 40.3065 62.1982 130.5960 0.0000 50.8097 0.0000
# 4 0.0000 0.0000 0.0000 30.0481 0.0000 20.9818
# 5 15.6856 14.6030 50.8097 0.0000 51.8259 0.0000
# 6 0.0000 0.0000 0.0000 20.9818 0.0000 54.0615
#
#
#
# Elastic Compliance Matrix: (Units=1/GPa)
#
#
# Indices 1 2 3 4 5 6 
#
# 1 0.018506 -0.004831 -0.002847 0.000000 -0.001448 0.000000
# 2 -0.004831 0.008245 -0.003396 0.000000 0.002469 0.000000
# 3 -0.002847 -0.003396 0.015271 0.000000 -0.013152 0.000000
# 4 0.000000 0.000000 0.000000 0.045652 0.000000 -0.017718
# 5 -0.001448 0.002469 -0.013152 0.000000 0.031933 0.000000
# 6 0.000000 0.000000 0.000000 -0.017718 0.000000 0.025374
#
#
# Mechanical properties :
#
#
# Convention : Reuss Voigt Hill
#
# Bulk Modulus (GPa) = 50.32092 77.85236 64.08664
# Shear Modulus (GPa) = 28.77641 42.08252 35.42946
#
# Velocity S-wave (km/s) = 3.47449 4.20168 3.85527
# Velocity P-wave (km/s) = 6.09970 7.49659 6.83393
#
# Compressibility (1/GPa) = 0.01987245
#
# Stress axis : x y z
#
# Youngs Moduli (GPa) = 54.03703 121.28241 65.48559
#
# Poissons Ratio (x) = 0.58594 0.18645
# Poissons Ratio (y) = 0.26106 0.22241
# Poissons Ratio (z) = 0.15385 0.41191
#
# Static dielectric constant tensor:
#      x y z
#    x 2.125550 0.000000 0.043640 
#    y 0.000000 1.889050 0.000000 
#    z 0.043640 0.000000 2.084500 
# 
# From -- ./inp_files/58745.got.cif
#   From: 2010.05.17/outbox.cif.g08.bks.cpg/sg15_30_cif.got.tgz:58745.got - 2010.06.03 18:47:42.
