data_PCOD9296362
_publ_section_title
;
Structure prediction by ZEFSAII (Michael W. Deem and Ramdas Pophale) SiO2 
 PCOD9296362
Probable space group: C 2/C
;
_chemical_formula_sum "Si O2"
_cell_formula_units_Z 40
_cell_length_a 14.496906
_cell_length_b 11.616358
_cell_length_c 16.687893
_cell_angle_alpha 90.000000
_cell_angle_beta 38.898111
_cell_angle_gamma 90.000000
_cell_volume 1764.668637
_symmetry_space_group_name_H-M "C 2/C"
_symmetry_group_IT_number 15
_symmetry_cell_setting 'monoclinic'
loop_
_space_group_symop_operation_xyz
x,y,z
-x,y,1/2-z
-x,-y,-z
x,-y,1/2+z
1/2+x,1/2+y,z
1/2-x,1/2+y,1/2-z
1/2-x,1/2-y,-z
1/2+x,1/2-y,1/2+z
loop_
_atom_site_type_symbol
_atom_site_label
_atom_site_fract_x
_atom_site_fract_y
_atom_site_fract_z
Si Si1 0.578801 0.218656 0.111129
Si Si2 0.887397 0.028038 0.264166
Si Si3 0.922377 0.111161 0.593276
Si Si4 0.402071 0.730412 0.443679
Si Si5 0.067482 0.472909 0.040265
O O1 0.500000 0.232012 0.250000
O O2 0.519228 0.299687 0.079674
O O3 0.750000 0.250000 0.000000
O O4 0.553930 0.085767 0.103069
O O5 0.000000 0.968340 0.250000
O O6 0.984443 0.136160 0.168734
O O7 0.835745 0.950826 0.223858
O O8 0.739890 0.052424 0.410670
O O9 0.861885 0.183871 0.559930
O O10 0.000000 0.000000 0.500000
O O11 0.250000 0.750000 0.500000
O O12 0.488358 0.851693 0.388302
O O13 0.000000 0.500000 0.000000
#
# Coordination Sequence:
#
# PCOD9296362 Si02
#       5
#     8   8   8   8   8
#     4  12  27  48  77 110 153 199 255 319 388 463
#     4  11  23  45  76 102 152 199 249 318 389 457
#     4  10  23  44  72 107 143 200 250 306 387 456
#     4  11  24  46  74 108 144 199 258 311 385 459
#     4  12  26  48  71 113 152 195 259 318 385 465
#
# _framework density 22.667145000000001
#
# number of rings (size 3 to 8) (size 9 to 14) (size 15 to 20)
#    0.000    0.800    4.000    3.000    2.800    5.600 
#    0.000    0.000    0.000    0.000    0.000    0.000 
#    0.000    0.000    0.000    0.000    0.000    0.000 
#
# Total GULP energy -111673.136656 kJ/mol
# GULP energy per Si atom -5583.656833 kJ/mol
# Density = 2.261555 g / cm^3
# Si number density = 22.667145 Si / 1000 Ang^3
#
#
#
# Elastic Constant Matrix: (Units=GPa)
#
#
# Indices 1 2 3 4 5 6 
#
# 1 164.1674 72.3951 52.2536 0.0000 20.8086 0.0000
# 2 72.3951 208.8124 40.7892 0.0000 22.7562 0.0000
# 3 52.2536 40.7892 102.7717 0.0000 10.6372 0.0000
# 4 0.0000 0.0000 0.0000 18.4618 0.0000 12.6407
# 5 20.8086 22.7562 10.6372 0.0000 35.8011 0.0000
# 6 0.0000 0.0000 0.0000 12.6407 0.0000 50.3521
#
#
#
# Elastic Compliance Matrix: (Units=1/GPa)
#
#
# Indices 1 2 3 4 5 6 
#
# 1 0.008303 -0.001973 -0.003166 0.000000 -0.002631 0.000000
# 2 -0.001973 0.005942 -0.001117 0.000000 -0.002298 0.000000
# 3 -0.003166 -0.001117 0.011885 0.000000 -0.000981 0.000000
# 4 0.000000 0.000000 0.000000 0.065409 0.000000 -0.016421
# 5 -0.002631 -0.002298 -0.000981 0.000000 0.031213 0.000000
# 6 0.000000 0.000000 0.000000 -0.016421 0.000000 0.023983
#
#
# Mechanical properties :
#
#
# Convention : Reuss Voigt Hill
#
# Bulk Modulus (GPa) = 73.43966 89.62526 81.53246
# Shear Modulus (GPa) = 30.52768 41.61058 36.06913
#
# Velocity S-wave (km/s) = 3.67383 4.28918 3.99338
# Velocity P-wave (km/s) = 7.10391 8.00968 7.57036
#
# Compressibility (1/GPa) = 0.01361662
#
# Stress axis : x y z
#
# Youngs Moduli (GPa) = 120.44199 168.29940 84.14037
#
# Poissons Ratio (x) = 0.33213 0.26638
# Poissons Ratio (y) = 0.23768 0.09399
# Poissons Ratio (z) = 0.38131 0.18800
#
# Static dielectric constant tensor:
#      x y z
#    x 1.794810 0.000000 0.051620 
#    y 0.000000 1.930200 0.000000 
#    z 0.051620 0.000000 1.814100 
# 
# From -- ./inp_files/126350.got.cif
#   From: 2010.05.17/outbox.cif.g08.bks.cpg/sg15_64_cif.got.tgz:126350.got - 2010.06.03 18:47:42.
