data_PCOD9296116
_publ_section_title
;
Structure prediction by ZEFSAII (Michael W. Deem and Ramdas Pophale) SiO2 
 PCOD9296116
Probable space group: C 2/C
;
_chemical_formula_sum "Si O2"
_cell_formula_units_Z 56
_cell_length_a 5.828104
_cell_length_b 20.809043
_cell_length_c 20.870203
_cell_angle_alpha 90.000000
_cell_angle_beta 68.170438
_cell_angle_gamma 90.000000
_cell_volume 2349.587709
_symmetry_space_group_name_H-M "C 2/C"
_symmetry_group_IT_number 15
_symmetry_cell_setting 'monoclinic'
loop_
_space_group_symop_operation_xyz
x,y,z
-x,y,1/2-z
-x,-y,-z
x,-y,1/2+z
1/2+x,1/2+y,z
1/2-x,1/2+y,1/2-z
1/2-x,1/2-y,-z
1/2+x,1/2-y,1/2+z
loop_
_atom_site_type_symbol
_atom_site_label
_atom_site_fract_x
_atom_site_fract_y
_atom_site_fract_z
Si Si1 0.211075 0.824120 0.520820
Si Si2 0.000000 0.228617 0.250000
Si Si3 0.276614 0.413284 0.562941
Si Si4 0.234913 0.669880 0.811115
Si Si5 0.000000 0.561069 0.750000
Si Si6 0.011420 0.990317 0.853305
Si Si7 0.214033 0.371314 0.845131
Si Si8 0.858380 0.404429 0.069137
O O1 0.250000 0.750000 0.500000
O O2 0.296829 0.836785 0.584477
O O3 0.361990 0.876426 0.461659
O O4 0.930560 0.847443 0.547122
O O5 0.929415 0.270964 0.195856
O O6 0.771892 0.182515 0.288174
O O7 0.430574 0.469895 0.579594
O O8 0.193346 0.422144 0.499039
O O9 0.044913 0.406103 0.634269
O O10 0.500000 0.673415 0.750000
O O11 0.085812 0.608772 0.797993
O O12 0.271747 0.656810 0.882565
O O13 0.246583 0.522391 0.703387
O O14 0.927222 0.924739 0.828160
O O15 0.771426 0.036383 0.880628
#
# Coordination Sequence:
#
# PCOD9296116 Si02
#       8
#     8   4   8   8   4   8   8   8
#     4  10  23  44  67  99 137 182 235 281 343 406
#     4  11  26  44  70  94 138 179 238 288 352 421
#     4  10  25  43  69 103 138 185 231 285 351 410
#     4  11  25  45  67 101 134 180 234 290 353 407
#     4  11  26  44  68 102 140 181 230 288 348 419
#     4  11  25  43  69 103 143 180 232 284 358 417
#     4  10  25  44  65 102 132 183 228 284 347 415
#     4  11  24  42  72 100 142 178 232 291 342 420
#
# _framework density 23.833969
#
# number of rings (size 3 to 8) (size 9 to 14) (size 15 to 20)
#    0.000    1.429    1.429    1.286    6.000   12.000 
#    0.000    0.000    0.000    0.000    0.000    0.000 
#    0.000    0.000    0.000    0.000    0.000    0.000 
#
# Total GULP energy -156381.241982 kJ/mol
# GULP energy per Si atom -5585.044357 kJ/mol
# Density = 2.377972 g / cm^3
# Si number density = 23.833969 Si / 1000 Ang^3
#
#
#
# Elastic Constant Matrix: (Units=GPa)
#
#
# Indices 1 2 3 4 5 6 
#
# 1 69.8459 44.6260 9.8629 0.0000 -19.9455 0.0000
# 2 44.6260 138.3523 41.5673 0.0000 -11.5406 0.0000
# 3 9.8629 41.5673 83.7270 0.0000 -10.7297 0.0000
# 4 0.0000 0.0000 0.0000 25.1025 0.0000 -10.1512
# 5 -19.9455 -11.5406 -10.7297 0.0000 30.9343 0.0000
# 6 0.0000 0.0000 0.0000 -10.1512 0.0000 11.0617
#
#
#
# Elastic Compliance Matrix: (Units=1/GPa)
#
#
# Indices 1 2 3 4 5 6 
#
# 1 0.021803 -0.006706 0.002346 0.000000 0.012370 0.000000
# 2 -0.006706 0.010653 -0.004755 0.000000 -0.001999 0.000000
# 3 0.002346 -0.004755 0.014645 0.000000 0.004819 0.000000
# 4 0.000000 0.000000 0.000000 0.063344 0.000000 0.058130
# 5 0.012370 -0.001999 0.004819 0.000000 0.041228 0.000000
# 6 0.000000 0.000000 0.000000 0.058130 0.000000 0.143748
#
#
# Mechanical properties :
#
#
# Convention : Reuss Voigt Hill
#
# Bulk Modulus (GPa) = 34.63593 53.78195 44.20894
# Shear Modulus (GPa) = 15.46677 26.47763 20.97220
#
# Velocity S-wave (km/s) = 2.55019 3.33666 2.96958
# Velocity P-wave (km/s) = 4.82027 6.12035 5.50880
#
# Compressibility (1/GPa) = 0.02887176
#
# Stress axis : x y z
#
# Youngs Moduli (GPa) = 45.86597 93.87304 68.28104
#
# Poissons Ratio (x) = 0.62947 -0.16018
# Poissons Ratio (y) = 0.30756 0.32467
# Poissons Ratio (z) = -0.10760 0.44636
#
# Static dielectric constant tensor:
#      x y z
#    x 1.936420 0.000000 -0.006410 
#    y 0.000000 1.874120 0.000000 
#    z -0.006410 0.000000 1.969680 
# 
# From -- ./inp_files/261351.got.cif
#   From: 2010.05.17/outbox.cif.g08.bks.cpg/sg15_131_cif.got.tgz:261351.got - 2010.06.03 18:47:42.
