data_PCOD9296180
_publ_section_title
;
Structure prediction by ZEFSAII (Michael W. Deem and Ramdas Pophale) SiO2 
 PCOD9296180
Probable space group: C 2/C
;
_chemical_formula_sum "Si O2"
_cell_formula_units_Z 40
_cell_length_a 9.931196
_cell_length_b 10.643168
_cell_length_c 16.173650
_cell_angle_alpha 90.000000
_cell_angle_beta 109.235530
_cell_angle_gamma 90.000000
_cell_volume 1614.104859
_symmetry_space_group_name_H-M "C 2/C"
_symmetry_group_IT_number 15
_symmetry_cell_setting 'monoclinic'
loop_
_space_group_symop_operation_xyz
x,y,z
-x,y,1/2-z
-x,-y,-z
x,-y,1/2+z
1/2+x,1/2+y,z
1/2-x,1/2+y,1/2-z
1/2-x,1/2-y,-z
1/2+x,1/2-y,1/2+z
loop_
_atom_site_type_symbol
_atom_site_label
_atom_site_fract_x
_atom_site_fract_y
_atom_site_fract_z
Si Si1 0.500000 0.275985 0.750000
Si Si2 0.259588 0.879506 0.140564
Si Si3 0.968289 0.010960 0.630815
Si Si4 0.071330 0.656741 0.096869
Si Si5 0.500000 0.268135 0.250000
Si Si6 0.309479 0.034837 0.001838
O O1 0.636279 0.185332 0.772416
O O2 0.460293 0.373349 0.668895
O O3 0.164442 0.769933 0.080073
O O4 0.349754 0.950820 0.089867
O O5 0.136228 0.966169 0.153070
O O6 0.915827 0.127979 0.678328
O O7 0.861137 0.029781 0.533450
O O8 0.073478 0.680938 0.195957
O O9 0.906753 0.656453 0.034258
O O10 0.140259 0.532570 0.072238
#
# Coordination Sequence:
#
# PCOD9296180 Si02
#       6
#     4   8   8   8   4   8
#     4  11  24  43  64 100 144 173 234 279 324 406
#     4  11  24  43  71 101 133 189 221 275 350 395
#     4  10  23  45  69 101 138 176 229 283 326 411
#     4  10  23  44  69 100 136 176 226 277 332 410
#     4   9  22  43  64 100 134 179 228 265 346 390
#     4  11  23  45  70 103 141 170 231 283 333 401
#
# _framework density 24.781537
#
# number of rings (size 3 to 8) (size 9 to 14) (size 15 to 20)
#    0.000    1.600    2.000    1.200    0.000    8.800 
#   14.400    0.000    0.000    0.000    0.000    0.000 
#    0.000    0.000    0.000    0.000    0.000    0.000 
#
# Total GULP energy -111513.232908 kJ/mol
# GULP energy per Si atom -5575.661645 kJ/mol
# Density = 2.472513 g / cm^3
# Si number density = 24.781537 Si / 1000 Ang^3
#
#
#
# Elastic Constant Matrix: (Units=GPa)
#
#
# Indices 1 2 3 4 5 6 
#
# 1 122.0995 23.3527 27.4220 0.0000 10.8243 0.0000
# 2 23.3527 47.9463 21.0530 0.0000 -2.3575 0.0000
# 3 27.4220 21.0530 59.9642 0.0000 3.2843 0.0000
# 4 0.0000 0.0000 0.0000 25.1650 0.0000 1.9316
# 5 10.8243 -2.3575 3.2843 0.0000 52.2957 0.0000
# 6 0.0000 0.0000 0.0000 1.9316 0.0000 37.8281
#
#
#
# Elastic Compliance Matrix: (Units=1/GPa)
#
#
# Indices 1 2 3 4 5 6 
#
# 1 0.009729 -0.003464 -0.003125 0.000000 -0.001974 0.000000
# 2 -0.003464 0.026036 -0.007687 0.000000 0.002373 0.000000
# 3 -0.003125 -0.007687 0.020860 0.000000 -0.001010 0.000000
# 4 0.000000 0.000000 0.000000 0.039894 0.000000 -0.002037
# 5 -0.001974 0.002373 -0.001010 0.000000 0.019701 0.000000
# 6 0.000000 0.000000 0.000000 -0.002037 0.000000 0.026539
#
#
# Mechanical properties :
#
#
# Convention : Reuss Voigt Hill
#
# Bulk Modulus (GPa) = 35.62083 41.51838 38.56961
# Shear Modulus (GPa) = 27.67499 33.60325 30.63912
#
# Velocity S-wave (km/s) = 3.34542 3.68636 3.52002
# Velocity P-wave (km/s) = 5.41549 5.90839 5.66730
#
# Compressibility (1/GPa) = 0.02807346
#
# Stress axis : x y z
#
# Youngs Moduli (GPa) = 102.78214 38.40883 47.93888
#
# Poissons Ratio (x) = 0.13303 0.14982
# Poissons Ratio (y) = 0.35599 0.36851
# Poissons Ratio (z) = 0.32121 0.29525
#
# Static dielectric constant tensor:
#      x y z
#    x 2.040790 0.000000 -0.027670 
#    y 0.000000 1.960570 0.000000 
#    z -0.027670 0.000000 2.008120 
# 
# From -- ./inp_files/187846.got.cif
#   From: 2010.05.17/outbox.cif.g08.bks.cpg/sg15_94_cif.got.tgz:187846.got - 2010.06.03 18:47:42.
