data_PCOD9296693
_publ_section_title
;
Structure prediction by ZEFSAII (Michael W. Deem and Ramdas Pophale) SiO2 
 PCOD9296693
Probable space group: C 2/C
;
_chemical_formula_sum "Si O2"
_cell_formula_units_Z 32
_cell_length_a 15.875616
_cell_length_b 16.186762
_cell_length_c 9.960397
_cell_angle_alpha 90.000000
_cell_angle_beta 150.270407
_cell_angle_gamma 90.000000
_cell_volume 1269.309908
_symmetry_space_group_name_H-M "C 2/C"
_symmetry_group_IT_number 15
_symmetry_cell_setting 'monoclinic'
loop_
_space_group_symop_operation_xyz
x,y,z
-x,y,1/2-z
-x,-y,-z
x,-y,1/2+z
1/2+x,1/2+y,z
1/2-x,1/2+y,1/2-z
1/2-x,1/2-y,-z
1/2+x,1/2-y,1/2+z
loop_
_atom_site_type_symbol
_atom_site_label
_atom_site_fract_x
_atom_site_fract_y
_atom_site_fract_z
Si Si1 0.400051 0.713092 0.395223
Si Si2 0.000000 0.102705 0.750000
Si Si3 0.000000 0.823998 0.750000
Si Si4 0.324267 0.065864 0.350416
Si Si5 0.833877 0.607279 0.832960
O O1 0.533678 0.660961 0.667496
O O2 0.454809 0.727580 0.319407
O O3 0.244955 0.647199 0.170673
O O4 0.366787 0.798649 0.424961
O O5 0.825398 0.058743 0.469808
O O6 0.841248 0.879680 0.488550
O O7 0.507081 0.085443 0.542734
O O8 0.322724 0.974011 0.411726
#
# Coordination Sequence:
#
# PCOD9296693 Si02
#       5
#     8   4   4   8   8
#     4  10  23  45  73 100 141 183 234 283 353 415
#     4   8  21  48  70  95 140 186 233 284 338 423
#     4  12  25  40  70 103 144 182 225 290 358 411
#     4   9  22  45  68 100 140 183 239 283 344 415
#     4  11  22  42  69 104 135 187 230 293 341 412
#
# _framework density 25.210550999999999
#
# number of rings (size 3 to 8) (size 9 to 14) (size 15 to 20)
#    1.500    0.500    0.000    3.000    0.000    3.000 
#    0.000    2.500    0.000    0.000    0.000    0.000 
#    0.000    0.000    0.000    0.000    0.000    0.000 
#
# Total GULP energy -89140.731598 kJ/mol
# GULP energy per Si atom -5571.295725 kJ/mol
# Density = 2.515317 g / cm^3
# Si number density = 25.210551 Si / 1000 Ang^3
#
#
#
# Elastic Constant Matrix: (Units=GPa)
#
#
# Indices 1 2 3 4 5 6 
#
# 1 66.5396 23.6912 12.3362 0.0000 1.1948 0.0000
# 2 23.6912 202.4584 9.4811 0.0000 9.9946 0.0000
# 3 12.3362 9.4811 135.9010 0.0000 24.2759 0.0000
# 4 0.0000 0.0000 0.0000 81.0217 0.0000 26.0710
# 5 1.1948 9.9946 24.2759 0.0000 33.4747 0.0000
# 6 0.0000 0.0000 0.0000 26.0710 0.0000 28.6732
#
#
#
# Elastic Compliance Matrix: (Units=1/GPa)
#
#
# Indices 1 2 3 4 5 6 
#
# 1 0.015948 -0.001849 -0.001511 0.000000 0.001079 0.000000
# 2 -0.001849 0.005229 0.000081 0.000000 -0.001554 0.000000
# 3 -0.001511 0.000081 0.008598 0.000000 -0.006206 0.000000
# 4 0.000000 0.000000 0.000000 0.017447 0.000000 -0.015864
# 5 0.001079 -0.001554 -0.006206 0.000000 0.034799 0.000000
# 6 0.000000 0.000000 0.000000 -0.015864 0.000000 0.049300
#
#
# Mechanical properties :
#
#
# Convention : Reuss Voigt Hill
#
# Bulk Modulus (GPa) = 43.07431 55.10179 49.08805
# Shear Modulus (GPa) = 34.33653 52.59328 43.46490
#
# Velocity S-wave (km/s) = 3.69452 4.57241 4.15670
# Velocity P-wave (km/s) = 5.94325 7.05549 6.52312
#
# Compressibility (1/GPa) = 0.02321570
#
# Stress axis : x y z
#
# Youngs Moduli (GPa) = 62.70504 191.25834 116.30091
#
# Poissons Ratio (x) = 0.35357 0.17577
# Poissons Ratio (y) = 0.11592 -0.00937
# Poissons Ratio (z) = 0.09477 -0.01540
#
# Static dielectric constant tensor:
#      x y z
#    x 2.008080 0.000000 -0.017980 
#    y 0.000000 2.071300 0.000000 
#    z -0.017980 0.000000 2.000070 
# 
# From -- ./inp_files/106576.got.cif
#   From: 2010.05.17/outbox.cif.g08.bks.cpg/sg15_54_cif.got.tgz:106576.got - 2010.06.03 18:47:42.
