data_PCOD9296333
_publ_section_title
;
Structure prediction by ZEFSAII (Michael W. Deem and Ramdas Pophale) SiO2 
 PCOD9296333
Probable space group: C 2/C
;
_chemical_formula_sum "Si O2"
_cell_formula_units_Z 48
_cell_length_a 14.304021
_cell_length_b 9.151107
_cell_length_c 16.850732
_cell_angle_alpha 90.000000
_cell_angle_beta 93.606638
_cell_angle_gamma 90.000000
_cell_volume 2201.352280
_symmetry_space_group_name_H-M "C 2/C"
_symmetry_group_IT_number 15
_symmetry_cell_setting 'monoclinic'
loop_
_space_group_symop_operation_xyz
x,y,z
-x,y,1/2-z
-x,-y,-z
x,-y,1/2+z
1/2+x,1/2+y,z
1/2-x,1/2+y,1/2-z
1/2-x,1/2-y,-z
1/2+x,1/2-y,1/2+z
loop_
_atom_site_type_symbol
_atom_site_label
_atom_site_fract_x
_atom_site_fract_y
_atom_site_fract_z
Si Si1 0.482545 0.384944 0.114334
Si Si2 0.500000 0.844099 0.750000
Si Si3 0.500000 0.632357 0.250000
Si Si4 0.673323 0.362071 0.526605
Si Si5 0.172364 0.739416 0.685816
Si Si6 0.697384 0.917440 0.707337
Si Si7 0.692914 0.319921 0.069778
O O1 0.462243 0.257780 0.176914
O O2 0.493974 0.525980 0.172485
O O3 0.579276 0.340373 0.074308
O O4 0.401036 0.399907 0.045650
O O5 0.587215 0.928371 0.718899
O O6 0.409140 0.733195 0.254612
O O7 0.750000 0.250000 0.500000
O O8 0.628651 0.276618 0.598418
O O9 0.719426 0.510121 0.562373
O O10 0.247823 0.861311 0.713574
O O11 0.222753 0.582523 0.686317
O O12 0.714804 0.789468 0.644000
O O13 0.750000 0.250000 0.000000
#
# Coordination Sequence:
#
# PCOD9296333 Si02
#       7
#     8   4   4   8   8   8   8
#     4  10  23  44  71  99 139 182 232 282 348 417
#     4   9  21  44  70  96 138 182 226 292 340 400
#     4  11  25  44  72 102 134 186 232 286 346 416
#     4  12  25  43  69 105 141 187 235 284 350 413
#     4  12  26  42  70 101 136 181 231 291 352 416
#     4  11  25  45  68 103 139 178 237 291 348 419
#     4  11  24  43  68  99 140 185 227 286 349 410
#
# _framework density 21.804779
#
# number of rings (size 3 to 8) (size 9 to 14) (size 15 to 20)
#    0.000    1.000    1.667    4.000    9.333    0.000 
#    0.000    9.167    0.000    0.000    0.000    0.000 
#    0.000    0.000    0.000    0.000    0.000    0.000 
#
# Total GULP energy -133875.207083 kJ/mol
# GULP energy per Si atom -5578.133628 kJ/mol
# Density = 2.175515 g / cm^3
# Si number density = 21.804779 Si / 1000 Ang^3
#
#
#
# Elastic Constant Matrix: (Units=GPa)
#
#
# Indices 1 2 3 4 5 6 
#
# 1 76.5031 30.6916 50.0845 0.0000 -9.3566 0.0000
# 2 30.6916 149.6739 56.5463 0.0000 12.9453 0.0000
# 3 50.0845 56.5463 131.1732 0.0000 9.8775 0.0000
# 4 0.0000 0.0000 0.0000 32.0272 0.0000 -11.5783
# 5 -9.3566 12.9453 9.8775 0.0000 40.7432 0.0000
# 6 0.0000 0.0000 0.0000 -11.5783 0.0000 29.5513
#
#
#
# Elastic Compliance Matrix: (Units=1/GPa)
#
#
# Indices 1 2 3 4 5 6 
#
# 1 0.019263 -0.001866 -0.007057 0.000000 0.006727 0.000000
# 2 -0.001866 0.008284 -0.002677 0.000000 -0.002411 0.000000
# 3 -0.007057 -0.002677 0.011745 0.000000 -0.003617 0.000000
# 4 0.000000 0.000000 0.000000 0.036376 0.000000 0.014252
# 5 0.006727 -0.002411 -0.003617 0.000000 0.027732 0.000000
# 6 0.000000 0.000000 0.000000 0.014252 0.000000 0.039423
#
#
# Mechanical properties :
#
#
# Convention : Reuss Voigt Hill
#
# Bulk Modulus (GPa) = 62.14579 70.22168 66.18374
# Shear Modulus (GPa) = 29.17393 35.13285 32.15339
#
# Velocity S-wave (km/s) = 3.66178 4.01839 3.84422
# Velocity P-wave (km/s) = 6.81477 7.33516 7.07975
#
# Compressibility (1/GPa) = 0.01609119
#
# Stress axis : x y z
#
# Youngs Moduli (GPa) = 51.91358 120.71921 85.14601
#
# Poissons Ratio (x) = 0.22521 0.60090
# Poissons Ratio (y) = 0.09685 0.22794
# Poissons Ratio (z) = 0.36637 0.32317
#
# Static dielectric constant tensor:
#      x y z
#    x 1.866410 0.000000 0.000230 
#    y 0.000000 1.801240 0.000000 
#    z 0.000230 0.000000 1.852860 
# 
# From -- ./inp_files/203054.got.cif
#   From: 2010.05.17/outbox.cif.g08.bks.cpg/sg15_102_cif.got.tgz:203054.got - 2010.06.03 18:47:42.
