data_PCOD9296102
_publ_section_title
;
Structure prediction by ZEFSAII (Michael W. Deem and Ramdas Pophale) SiO2 
 PCOD9296102
Probable space group: C 2/C
;
_chemical_formula_sum "Si O2"
_cell_formula_units_Z 40
_cell_length_a 24.285954
_cell_length_b 8.449885
_cell_length_c 10.067730
_cell_angle_alpha 90.000000
_cell_angle_beta 80.305422
_cell_angle_gamma 90.000000
_cell_volume 2036.530105
_symmetry_space_group_name_H-M "C 2/C"
_symmetry_group_IT_number 15
_symmetry_cell_setting 'monoclinic'
loop_
_space_group_symop_operation_xyz
x,y,z
-x,y,1/2-z
-x,-y,-z
x,-y,1/2+z
1/2+x,1/2+y,z
1/2-x,1/2+y,1/2-z
1/2-x,1/2-y,-z
1/2+x,1/2-y,1/2+z
loop_
_atom_site_type_symbol
_atom_site_label
_atom_site_fract_x
_atom_site_fract_y
_atom_site_fract_z
Si Si1 0.400780 0.647493 0.961703
Si Si2 0.882560 0.147217 0.662048
Si Si3 0.009016 0.645870 0.399382
Si Si4 0.267295 0.815406 0.636376
Si Si5 0.707490 0.814727 0.405739
O O1 0.392016 0.500235 0.061815
O O2 0.354842 0.779160 0.019551
O O3 0.389644 0.600893 0.813377
O O4 0.462315 0.720877 0.946889
O O5 0.930005 0.277704 0.613198
O O6 0.822074 0.222081 0.662750
O O7 0.000000 0.595988 0.250000
O O8 0.000000 0.500000 0.500000
O O9 0.250000 0.750000 0.500000
O O10 0.220049 0.779226 0.764752
O O11 0.280666 0.000845 0.621886
O O12 0.750000 0.750000 0.500000
#
# Coordination Sequence:
#
# PCOD9296102 Si02
#       5
#     8   8   8   8   8
#     4  11  24  42  67  95 132 169 216 272 323 389
#     4  11  24  43  66  96 130 170 218 268 327 386
#     4  10  23  44  67  95 131 169 217 270 324 386
#     4  12  26  42  68  95 131 176 216 270 329 383
#     4  12  24  44  64  95 134 168 221 270 323 391
#
# _framework density 19.641251
#
# number of rings (size 3 to 8) (size 9 to 14) (size 15 to 20)
#    0.000    0.800    2.000    5.400    2.800    1.600 
#    0.000    0.000    0.000    0.000    0.000    0.000 
#    0.000    0.000    0.000    0.000    0.000    0.000 
#
# Total GULP energy -111960.532012 kJ/mol
# GULP energy per Si atom -5598.026601 kJ/mol
# Density = 1.959655 g / cm^3
# Si number density = 19.641251 Si / 1000 Ang^3
#
#
#
# Elastic Constant Matrix: (Units=GPa)
#
#
# Indices 1 2 3 4 5 6 
#
# 1 69.7147 -12.2043 14.6586 0.0000 -4.4623 0.0000
# 2 -12.2043 107.0497 59.2718 0.0000 7.2807 0.0000
# 3 14.6586 59.2718 126.5503 0.0000 -8.1698 0.0000
# 4 0.0000 0.0000 0.0000 43.4561 0.0000 -10.2746
# 5 -4.4623 7.2807 -8.1698 0.0000 29.2273 0.0000
# 6 0.0000 0.0000 0.0000 -10.2746 0.0000 15.6565
#
#
#
# Elastic Compliance Matrix: (Units=1/GPa)
#
#
# Indices 1 2 3 4 5 6 
#
# 1 0.015772 0.003725 -0.003540 0.000000 0.000491 0.000000
# 2 0.003725 0.014215 -0.007415 0.000000 -0.005045 0.000000
# 3 -0.003540 -0.007415 0.012087 0.000000 0.004685 0.000000
# 4 0.000000 0.000000 0.000000 0.027238 0.000000 0.017875
# 5 0.000491 -0.005045 0.004685 0.000000 0.036856 0.000000
# 6 0.000000 0.000000 0.000000 0.017875 0.000000 0.075602
#
#
# Mechanical properties :
#
#
# Convention : Reuss Voigt Hill
#
# Bulk Modulus (GPa) = 36.21336 47.41853 41.81595
# Shear Modulus (GPa) = 24.33873 33.77390 29.05632
#
# Velocity S-wave (km/s) = 3.52399 4.15123 3.85041
# Velocity P-wave (km/s) = 5.91908 6.86816 6.41121
#
# Compressibility (1/GPa) = 0.02761412
#
# Stress axis : x y z
#
# Youngs Moduli (GPa) = 63.40397 70.35004 82.73148
#
# Poissons Ratio (x) = -0.26202 0.29284
# Poissons Ratio (y) = -0.23615 0.61343
# Poissons Ratio (z) = 0.22443 0.52163
#
# Static dielectric constant tensor:
#      x y z
#    x 1.671040 0.000000 -0.011470 
#    y 0.000000 1.647430 0.000000 
#    z -0.011470 0.000000 1.672680 
# 
# From -- ./inp_files/59921.got.cif
#   From: 2010.05.17/outbox.cif.g08.bks.cpg/sg15_30_cif.got.tgz:59921.got - 2010.06.03 18:47:42.
