data_PCOD9296937
_publ_section_title
;
Structure prediction by ZEFSAII (Michael W. Deem and Ramdas Pophale) SiO2 
 PCOD9296937
Probable space group: C 2/C
;
_chemical_formula_sum "Si O2"
_cell_formula_units_Z 44
_cell_length_a 12.852823
_cell_length_b 6.898988
_cell_length_c 18.686907
_cell_angle_alpha 90.000000
_cell_angle_beta 74.850554
_cell_angle_gamma 90.000000
_cell_volume 1599.410736
_symmetry_space_group_name_H-M "C 2/C"
_symmetry_group_IT_number 15
_symmetry_cell_setting 'monoclinic'
loop_
_space_group_symop_operation_xyz
x,y,z
-x,y,1/2-z
-x,-y,-z
x,-y,1/2+z
1/2+x,1/2+y,z
1/2-x,1/2+y,1/2-z
1/2-x,1/2-y,-z
1/2+x,1/2-y,1/2+z
loop_
_atom_site_type_symbol
_atom_site_label
_atom_site_fract_x
_atom_site_fract_y
_atom_site_fract_z
Si Si1 0.500000 0.952908 0.250000
Si Si2 0.696239 0.323625 0.829624
Si Si3 0.952482 0.784270 0.024170
Si Si4 0.156004 0.264107 0.575284
Si Si5 0.659849 0.116973 0.330649
Si Si6 0.553836 0.353219 0.628521
O O1 0.442170 0.092708 0.203981
O O2 0.433568 0.797529 0.309533
O O3 0.787614 0.382486 0.870412
O O4 0.747870 0.329119 0.741936
O O5 0.575049 0.406513 0.847913
O O6 0.674336 0.101300 0.854684
O O7 0.857091 0.750007 0.097550
O O8 0.051746 0.678837 0.046056
O O9 0.118444 0.945089 0.115475
O O10 0.919594 0.738778 0.949443
O O11 0.250000 0.250000 0.500000
O O12 0.500000 0.500000 0.500000
#
# Coordination Sequence:
#
# PCOD9296937 Si02
#       6
#     4   8   8   8   8   8
#     4  10  24  46  70 108 150 198 254 322 386 468
#     4  11  26  44  74 107 150 200 263 319 395 468
#     4  10  23  46  73 105 151 197 251 324 386 468
#     4  11  23  42  74 108 142 202 257 313 392 474
#     4  11  26  45  71 110 146 200 258 315 391 470
#     4  10  24  45  72 107 154 195 253 327 395 455
#
# _framework density 27.51013
#
# number of rings (size 3 to 8) (size 9 to 14) (size 15 to 20)
#    0.000    1.455    1.818    1.091   10.182    2.909 
#    3.273    3.636    0.000    0.000    0.000    0.000 
#    0.000    0.000    0.000    0.000    0.000    0.000 
#
# Total GULP energy -123026.966849 kJ/mol
# GULP energy per Si atom -5592.134857 kJ/mol
# Density = 2.744752 g / cm^3
# Si number density = 27.510130 Si / 1000 Ang^3
#
#
#
# Elastic Constant Matrix: (Units=GPa)
#
#
# Indices 1 2 3 4 5 6 
#
# 1 148.3607 2.5573 34.9900 0.0000 3.4813 0.0000
# 2 2.5573 122.7412 25.5118 0.0000 -17.3149 0.0000
# 3 34.9900 25.5118 240.4232 0.0000 -13.7945 0.0000
# 4 0.0000 0.0000 0.0000 44.7072 0.0000 -13.0000
# 5 3.4813 -17.3149 -13.7945 0.0000 48.0874 0.0000
# 6 0.0000 0.0000 0.0000 -13.0000 0.0000 36.0569
#
#
#
# Elastic Compliance Matrix: (Units=1/GPa)
#
#
# Indices 1 2 3 4 5 6 
#
# 1 0.007011 -0.000042 -0.001063 0.000000 -0.000828 0.000000
# 2 -0.000042 0.008717 -0.000751 0.000000 0.002926 0.000000
# 3 -0.001063 -0.000751 0.004456 0.000000 0.001085 0.000000
# 4 0.000000 0.000000 0.000000 0.024987 0.000000 0.009009
# 5 -0.000828 0.002926 0.001085 0.000000 0.022220 0.000000
# 6 0.000000 0.000000 0.000000 0.009009 0.000000 0.030982
#
#
# Mechanical properties :
#
#
# Convention : Reuss Voigt Hill
#
# Bulk Modulus (GPa) = 60.70970 70.84926 65.77948
# Shear Modulus (GPa) = 46.47831 55.66803 51.07317
#
# Velocity S-wave (km/s) = 4.11481 4.50327 4.31341
# Velocity P-wave (km/s) = 6.68518 7.26973 6.98357
#
# Compressibility (1/GPa) = 0.01647183
#
# Stress axis : x y z
#
# Youngs Moduli (GPa) = 142.62731 114.71833 224.41478
#
# Poissons Ratio (x) = 0.00480 0.23865
# Poissons Ratio (y) = 0.00596 0.16853
# Poissons Ratio (z) = 0.15168 0.08615
#
# Static dielectric constant tensor:
#      x y z
#    x 2.256510 0.000000 0.026990 
#    y 0.000000 2.174740 0.000000 
#    z 0.026990 0.000000 2.161700 
# 
# From -- ./inp_files/202791.got.cif
#   From: 2010.05.17/outbox.cif.g08.bks.cpg/sg15_102_cif.got.tgz:202791.got - 2010.06.03 18:47:42.
