data_PCOD9296759
_publ_section_title
;
Structure prediction by ZEFSAII (Michael W. Deem and Ramdas Pophale) SiO2 
 PCOD9296759
Probable space group: C 2/C
;
_chemical_formula_sum "Si O2"
_cell_formula_units_Z 64
_cell_length_a 17.572366
_cell_length_b 6.524658
_cell_length_c 22.039599
_cell_angle_alpha 90.000000
_cell_angle_beta 109.570290
_cell_angle_gamma 90.000000
_cell_volume 2380.944074
_symmetry_space_group_name_H-M "C 2/C"
_symmetry_group_IT_number 15
_symmetry_cell_setting 'monoclinic'
loop_
_space_group_symop_operation_xyz
x,y,z
-x,y,1/2-z
-x,-y,-z
x,-y,1/2+z
1/2+x,1/2+y,z
1/2-x,1/2+y,1/2-z
1/2-x,1/2-y,-z
1/2+x,1/2-y,1/2+z
loop_
_atom_site_type_symbol
_atom_site_label
_atom_site_fract_x
_atom_site_fract_y
_atom_site_fract_z
Si Si1 0.165967 0.629724 0.723991
Si Si2 0.718171 0.550002 0.641708
Si Si3 0.166903 0.196438 0.400813
Si Si4 0.091814 0.665053 0.999277
Si Si5 0.154898 0.905709 0.251031
Si Si6 0.727426 0.832001 0.060446
Si Si7 0.964430 0.595388 0.394115
Si Si8 0.432949 0.078714 0.186899
O O1 0.140829 0.849927 0.743848
O O2 0.249929 0.624002 0.709636
O O3 0.100906 0.525465 0.664528
O O4 0.000000 0.515829 0.750000
O O5 0.748189 0.707874 0.599596
O O6 0.657817 0.632024 0.677925
O O7 0.701789 0.349213 0.598853
O O8 0.798474 0.518005 0.706536
O O9 0.139923 0.199208 0.463427
O O10 0.108096 0.372746 0.355484
O O11 0.013354 0.580864 0.943541
O O12 0.150391 0.474560 0.029405
O O13 0.064732 0.741382 0.058446
O O14 0.192673 0.959543 0.396012
O O15 0.098669 0.768490 0.278015
O O16 0.750000 0.750000 0.000000
O O17 0.026133 0.686139 0.361055
#
# Coordination Sequence:
#
# PCOD9296759 Si02
#       8
#     8   8   8   8   8   8   8   8
#     4  10  23  46  81 124 169 218 284 361 432 527
#     4  10  24  43  77 125 163 208 285 359 441 505
#     4  11  24  47  79 120 162 221 284 355 424 514
#     4  10  23  45  80 113 160 234 278 348 431 507
#     4  10  24  47  81 126 165 223 283 350 439 525
#     4  12  25  48  82 125 167 216 292 369 423 518
#     4  10  23  47  78 113 173 224 277 350 436 519
#     4  11  25  48  80 121 178 224 280 353 445 523
#
# _framework density 26.880094
#
# number of rings (size 3 to 8) (size 9 to 14) (size 15 to 20)
#    0.750    0.750    1.250    2.625    1.750    4.000 
#    0.000    8.125    2.750    3.750    0.000    0.000 
#    0.000    0.000    0.000    0.000    0.000    0.000 
#
# Total GULP energy -178251.428093 kJ/mol
# GULP energy per Si atom -5570.357128 kJ/mol
# Density = 2.681891 g / cm^3
# Si number density = 26.880094 Si / 1000 Ang^3
#
#
#
# Elastic Constant Matrix: (Units=GPa)
#
#
# Indices 1 2 3 4 5 6 
#
# 1 99.3158 59.8510 80.2330 0.0000 -23.3354 0.0000
# 2 59.8510 125.6673 54.0910 0.0000 1.2348 0.0000
# 3 80.2330 54.0910 177.3300 0.0000 -27.1299 0.0000
# 4 0.0000 0.0000 0.0000 59.5578 0.0000 -11.9187
# 5 -23.3354 1.2348 -27.1299 0.0000 79.2416 0.0000
# 6 0.0000 0.0000 0.0000 -11.9187 0.0000 21.9114
#
#
#
# Elastic Compliance Matrix: (Units=1/GPa)
#
#
# Indices 1 2 3 4 5 6 
#
# 1 0.020468 -0.006973 -0.006538 0.000000 0.003898 0.000000
# 2 -0.006973 0.011638 -0.000778 0.000000 -0.002501 0.000000
# 3 -0.006538 -0.000778 0.009014 0.000000 0.001173 0.000000
# 4 0.000000 0.000000 0.000000 0.018841 0.000000 0.010249
# 5 0.003898 -0.002501 0.001173 0.000000 0.014208 0.000000
# 6 0.000000 0.000000 0.000000 0.010249 0.000000 0.051213
#
#
# Mechanical properties :
#
#
# Convention : Reuss Voigt Hill
#
# Bulk Modulus (GPa) = 79.72074 87.85147 83.78610
# Shear Modulus (GPa) = 31.61775 46.01804 38.81790
#
# Velocity S-wave (km/s) = 3.43337 4.14209 3.80427
# Velocity P-wave (km/s) = 6.74090 7.45852 7.10877
#
# Compressibility (1/GPa) = 0.01254379
#
# Stress axis : x y z
#
# Youngs Moduli (GPa) = 48.85654 85.92809 110.94079
#
# Poissons Ratio (x) = 0.59914 0.72529
# Poissons Ratio (y) = 0.34066 0.08628
# Poissons Ratio (z) = 0.31940 0.06683
#
# Static dielectric constant tensor:
#      x y z
#    x 2.683830 0.000000 -0.119070 
#    y 0.000000 2.138850 0.000000 
#    z -0.119070 0.000000 2.196720 
# 
# From -- ./inp_files/214589.got.cif
#   From: 2010.05.17/outbox.cif.g08.bks.cpg/sg15_108_cif.got.tgz:214589.got - 2010.06.03 18:47:42.
