data_PCOD9296815
_publ_section_title
;
Structure prediction by ZEFSAII (Michael W. Deem and Ramdas Pophale) SiO2 
 PCOD9296815
Probable space group: C 2/C
;
_chemical_formula_sum "Si O2"
_cell_formula_units_Z 48
_cell_length_a 14.027337
_cell_length_b 5.464766
_cell_length_c 28.526468
_cell_angle_alpha 90.000000
_cell_angle_beta 79.356774
_cell_angle_gamma 90.000000
_cell_volume 2149.108354
_symmetry_space_group_name_H-M "C 2/C"
_symmetry_group_IT_number 15
_symmetry_cell_setting 'monoclinic'
loop_
_space_group_symop_operation_xyz
x,y,z
-x,y,1/2-z
-x,-y,-z
x,-y,1/2+z
1/2+x,1/2+y,z
1/2-x,1/2+y,1/2-z
1/2-x,1/2-y,-z
1/2+x,1/2-y,1/2+z
loop_
_atom_site_type_symbol
_atom_site_label
_atom_site_fract_x
_atom_site_fract_y
_atom_site_fract_z
Si Si1 0.950446 0.034168 0.298157
Si Si2 0.438197 0.831316 0.135824
Si Si3 0.292239 0.482259 0.122473
Si Si4 0.227398 0.286988 0.224275
Si Si5 0.489104 0.514834 0.556030
Si Si6 0.903790 0.307579 0.879935
O O1 0.884719 0.871277 0.337966
O O2 0.000000 0.899228 0.250000
O O3 0.883824 0.241995 0.280847
O O4 0.029049 0.148186 0.325982
O O5 0.329026 0.756002 0.134429
O O6 0.491312 0.745678 0.082641
O O7 0.491923 0.077433 0.143252
O O8 0.283583 0.326903 0.170386
O O9 0.380639 0.393240 0.081355
O O10 0.186418 0.508791 0.109554
O O11 0.239777 0.537517 0.252649
O O12 0.500000 0.500000 0.500000
O O13 0.572587 0.670374 0.573986
#
# Coordination Sequence:
#
# PCOD9296815 Si02
#       6
#     8   8   8   8   8   8
#     4  11  24  42  63 101 140 186 233 292 349 424
#     4   9  22  44  66  98 135 176 236 284 364 412
#     4  10  23  46  68 101 138 183 236 295 356 430
#     4  12  26  45  70 109 144 195 248 286 363 434
#     4   9  23  44  67 102 138 175 241 304 365 429
#     4  11  22  45  71  95 143 186 235 295 361 435
#
# _framework density 22.334844
#
# number of rings (size 3 to 8) (size 9 to 14) (size 15 to 20)
#    1.000    0.667    1.667    2.000    0.000    6.000 
#    3.000    0.833    0.000    0.000    0.000    0.000 
#    0.000    0.000    0.000    0.000    0.000    0.000 
#
# Total GULP energy -133781.947748 kJ/mol
# GULP energy per Si atom -5574.247823 kJ/mol
# Density = 2.228401 g / cm^3
# Si number density = 22.334844 Si / 1000 Ang^3
#
#
#
# Elastic Constant Matrix: (Units=GPa)
#
#
# Indices 1 2 3 4 5 6 
#
# 1 117.2654 16.8155 43.9604 -0.0001 7.9831 0.0000
# 2 16.8155 66.4668 32.1408 0.0001 9.4529 0.0001
# 3 43.9604 32.1408 188.9568 -0.0001 -4.0941 0.0000
# 4 -0.0001 0.0001 -0.0001 5.9425 0.0001 2.6926
# 5 7.9831 9.4529 -4.0941 0.0001 25.0893 0.0000
# 6 0.0000 0.0001 0.0000 2.6926 0.0000 36.7105
#
#
#
# Elastic Compliance Matrix: (Units=1/GPa)
#
#
# Indices 1 2 3 4 5 6 
#
# 1 0.009683 -0.000972 -0.002154 0.000000 -0.003066 0.000000
# 2 -0.000972 0.017679 -0.002929 0.000000 -0.006829 0.000000
# 3 -0.002154 -0.002929 0.006353 0.000000 0.002825 0.000000
# 4 0.000000 0.000000 0.000000 0.174063 -0.000001 -0.012767
# 5 -0.003066 -0.006829 0.002825 -0.000001 0.043867 0.000000
# 6 0.000000 0.000000 0.000000 -0.012767 0.000000 0.028177
#
#
# Mechanical properties :
#
#
# Convention : Reuss Voigt Hill
#
# Bulk Modulus (GPa) = 46.28601 62.05804 54.17202
# Shear Modulus (GPa) = 16.71498 32.19998 24.45748
#
# Velocity S-wave (km/s) = 2.73862 3.80108 3.31272
# Velocity P-wave (km/s) = 5.54696 6.86367 6.24014
#
# Compressibility (1/GPa) = 0.02160480
#
# Stress axis : x y z
#
# Youngs Moduli (GPa) = 103.27110 56.56556 157.41310
#
# Poissons Ratio (x) = 0.05499 0.33905
# Poissons Ratio (y) = 0.10040 0.46104
# Poissons Ratio (z) = 0.22243 0.16567
#
# Static dielectric constant tensor:
#      x y z
#    x 1.853790 0.000000 -0.003210 
#    y 0.000000 1.925840 0.000000 
#    z -0.003210 0.000000 1.805560 
# 
# From -- ./inp_files/294425.got.cif
#   From: 2010.05.17/outbox.cif.g08.bks.cpg/sg15_148_cif.got.tgz:294425.got - 2010.06.03 18:47:42.
