data_PCOD9296248
_publ_section_title
;
Structure prediction by ZEFSAII (Michael W. Deem and Ramdas Pophale) SiO2 
 PCOD9296248
Probable space group: C 2/C
;
_chemical_formula_sum "Si O2"
_cell_formula_units_Z 48
_cell_length_a 16.386220
_cell_length_b 11.687905
_cell_length_c 10.562726
_cell_angle_alpha 90.000000
_cell_angle_beta 85.379372
_cell_angle_gamma 90.000000
_cell_volume 2016.404634
_symmetry_space_group_name_H-M "C 2/C"
_symmetry_group_IT_number 15
_symmetry_cell_setting 'monoclinic'
loop_
_space_group_symop_operation_xyz
x,y,z
-x,y,1/2-z
-x,-y,-z
x,-y,1/2+z
1/2+x,1/2+y,z
1/2-x,1/2+y,1/2-z
1/2-x,1/2-y,-z
1/2+x,1/2-y,1/2+z
loop_
_atom_site_type_symbol
_atom_site_label
_atom_site_fract_x
_atom_site_fract_y
_atom_site_fract_z
Si Si1 0.903943 0.816895 0.866062
Si Si2 0.756210 0.094376 0.884308
Si Si3 0.500000 0.107234 0.750000
Si Si4 0.000000 0.987748 0.250000
Si Si5 0.354422 0.073444 0.216713
Si Si6 0.698415 0.339954 0.878957
Si Si7 0.133831 0.172985 0.853934
O O1 0.957080 0.699603 0.850913
O O2 0.853784 0.838887 0.742472
O O3 0.963254 0.925000 0.857275
O O4 0.850938 0.821665 0.998866
O O5 0.700942 0.206175 0.914680
O O6 0.792259 0.125643 0.741742
O O7 0.702966 0.981587 0.884221
O O8 0.823495 0.096390 0.987434
O O9 0.575136 0.020869 0.771269
O O10 0.061957 0.908646 0.317905
O O11 0.287073 0.104797 0.333314
O O12 0.388630 0.197213 0.179619
#
# Coordination Sequence:
#
# PCOD9296248 Si02
#       7
#     8   8   4   4   8   8   8
#     4  11  25  47  77 103 144 200 251 300 365 452
#     4  10  23  44  70 102 145 188 242 296 367 438
#     4  11  25  46  68 116 157 195 238 314 384 429
#     4  11  25  46  66 102 149 193 238 306 372 441
#     4  11  24  43  73 110 150 188 241 315 367 442
#     4  10  23  44  70 103 141 197 237 293 369 441
#     4  11  26  45  75 109 142 193 252 304 368 440
#
# _framework density 23.804746000000002
#
# number of rings (size 3 to 8) (size 9 to 14) (size 15 to 20)
#    0.000    1.333    1.667    2.000    2.333   11.333 
#    3.000    0.000    0.000    0.000    0.000    0.000 
#    0.000    0.000    0.000    0.000    0.000    0.000 
#
# Total GULP energy -133913.620692 kJ/mol
# GULP energy per Si atom -5579.734196 kJ/mol
# Density = 2.375057 g / cm^3
# Si number density = 23.804746 Si / 1000 Ang^3
#
#
#
# Elastic Constant Matrix: (Units=GPa)
#
#
# Indices 1 2 3 4 5 6 
#
# 1 55.5034 51.5068 6.4087 0.0000 0.9325 0.0000
# 2 51.5068 197.6691 20.8065 0.0000 10.2372 0.0000
# 3 6.4087 20.8065 97.6789 0.0000 -6.8318 0.0000
# 4 0.0000 0.0000 0.0000 18.8992 0.0000 0.2548
# 5 0.9325 10.2372 -6.8318 0.0000 19.8468 0.0000
# 6 0.0000 0.0000 0.0000 0.2548 0.0000 51.5700
#
#
#
# Elastic Compliance Matrix: (Units=1/GPa)
#
#
# Indices 1 2 3 4 5 6 
#
# 1 0.023852 -0.006317 -0.000072 0.000000 0.002113 0.000000
# 2 -0.006317 0.007044 -0.001352 0.000000 -0.003802 0.000000
# 3 -0.000072 -0.001352 0.010840 0.000000 0.004432 0.000000
# 4 0.000000 0.000000 0.000000 0.052916 0.000000 -0.000261
# 5 0.002113 -0.003802 0.004432 0.000000 0.053773 0.000000
# 6 0.000000 0.000000 0.000000 -0.000261 0.000000 0.019392
#
#
# Mechanical properties :
#
#
# Convention : Reuss Voigt Hill
#
# Bulk Modulus (GPa) = 38.08751 56.47726 47.28238
# Shear Modulus (GPa) = 26.03482 36.20517 31.11999
#
# Velocity S-wave (km/s) = 3.31067 3.90413 3.61959
# Velocity P-wave (km/s) = 5.53613 6.64076 6.11345
#
# Compressibility (1/GPa) = 0.02625533
#
# Stress axis : x y z
#
# Youngs Moduli (GPa) = 41.92553 141.96093 92.24849
#
# Poissons Ratio (x) = 0.89677 0.00660
# Poissons Ratio (y) = 0.26484 0.12471
# Poissons Ratio (z) = 0.00300 0.19192
#
# Static dielectric constant tensor:
#      x y z
#    x 1.862350 0.000000 0.081400 
#    y 0.000000 1.894960 0.000000 
#    z 0.081400 0.000000 1.965460 
# 
# From -- ./inp_files/103785.got.cif
#   From: 2010.05.17/outbox.cif.g08.bks.cpg/sg15_52_cif.got.tgz:103785.got - 2010.06.03 18:47:42.
