data_PCOD9296004
_publ_section_title
;
Structure prediction by ZEFSAII (Michael W. Deem and Ramdas Pophale) SiO2 
 PCOD9296004
Probable space group: C 2/C
;
_chemical_formula_sum "Si O2"
_cell_formula_units_Z 24
_cell_length_a 12.507494
_cell_length_b 7.043372
_cell_length_c 23.149403
_cell_angle_alpha 90.000000
_cell_angle_beta 30.606381
_cell_angle_gamma 90.000000
_cell_volume 1038.306606
_symmetry_space_group_name_H-M "C 2/C"
_symmetry_group_IT_number 15
_symmetry_cell_setting 'monoclinic'
loop_
_space_group_symop_operation_xyz
x,y,z
-x,y,1/2-z
-x,-y,-z
x,-y,1/2+z
1/2+x,1/2+y,z
1/2-x,1/2+y,1/2-z
1/2-x,1/2-y,-z
1/2+x,1/2-y,1/2+z
loop_
_atom_site_type_symbol
_atom_site_label
_atom_site_fract_x
_atom_site_fract_y
_atom_site_fract_z
Si Si1 0.040987 0.219724 0.663488
Si Si2 0.177665 0.993916 0.831016
Si Si3 0.008993 0.277813 0.506118
O O1 0.905175 0.407474 0.712624
O O2 0.000000 0.175661 0.750000
O O3 0.288551 0.254396 0.546699
O O4 0.945656 0.054991 0.668519
O O5 0.055728 0.834101 0.925100
O O6 0.180329 0.176129 0.872363
O O7 0.000000 0.500000 0.500000
#
# Coordination Sequence:
#
# PCOD9296004 Si02
#       3
#     8   8   8
#     4  10  23  44  65 100 137 170 226 271 325 401
#     4  10  23  44  66 100 136 170 223 277 331 391
#     4  10  23  46  69  98 133 180 225 269 332 400
#
# _framework density 23.114560999999998
#
# number of rings (size 3 to 8) (size 9 to 14) (size 15 to 20)
#    0.000    2.000    0.000    1.000    9.333    1.333 
#   24.000    0.000    0.000    0.000    0.000    0.000 
#    0.000    0.000    0.000    0.000    0.000    0.000 
#
# Total GULP energy -67103.885306 kJ/mol
# GULP energy per Si atom -5591.990442 kJ/mol
# Density = 2.306195 g / cm^3
# Si number density = 23.114561 Si / 1000 Ang^3
#
#
#
# Elastic Constant Matrix: (Units=GPa)
#
#
# Indices 1 2 3 4 5 6 
#
# 1 136.9436 52.9951 25.3017 0.0000 -4.8476 0.0002
# 2 52.9951 170.6367 38.3703 0.0000 -0.4147 0.0005
# 3 25.3017 38.3703 51.2720 0.0000 -23.0712 0.0000
# 4 0.0000 0.0000 0.0000 24.8476 -0.0001 3.5366
# 5 -4.8476 -0.4147 -23.0712 -0.0001 29.7359 0.0001
# 6 0.0002 0.0005 0.0000 3.5366 0.0001 59.0625
#
#
#
# Elastic Compliance Matrix: (Units=1/GPa)
#
#
# Indices 1 2 3 4 5 6 
#
# 1 0.008626 -0.001923 -0.003375 0.000000 -0.001239 0.000000
# 2 -0.001923 0.008287 -0.008207 0.000000 -0.006566 0.000000
# 3 -0.003375 -0.008207 0.041502 0.000000 0.031535 0.000000
# 4 0.000000 0.000000 0.000000 0.040591 0.000000 -0.002431
# 5 -0.001239 -0.006566 0.031535 0.000000 0.057803 0.000000
# 6 0.000000 0.000000 0.000000 -0.002431 0.000000 0.017077
#
#
# Mechanical properties :
#
#
# Convention : Reuss Voigt Hill
#
# Bulk Modulus (GPa) = 31.84353 65.79849 48.82101
# Shear Modulus (GPa) = 23.65567 38.87490 31.26528
#
# Velocity S-wave (km/s) = 3.20255 4.10547 3.68179
# Velocity P-wave (km/s) = 5.24227 7.14151 6.26429
#
# Compressibility (1/GPa) = 0.03140355
#
# Stress axis : x y z
#
# Youngs Moduli (GPa) = 115.92529 120.66728 24.09535
#
# Poissons Ratio (x) = 0.23205 0.08133
# Poissons Ratio (y) = 0.22293 0.19776
# Poissons Ratio (z) = 0.39130 0.99036
#
# Static dielectric constant tensor:
#      x y z
#    x 1.857290 0.000000 0.029390 
#    y 0.000000 1.855980 0.000000 
#    z 0.029390 0.000000 2.009100 
# 
# From -- ./inp_files/175234.got.cif
#   From: 2010.05.17/outbox.cif.g08.bks.cpg/sg15_88_cif.got.tgz:175234.got - 2010.06.03 18:47:42.
