data_PCOD9296047
_publ_section_title
;
Structure prediction by ZEFSAII (Michael W. Deem and Ramdas Pophale) SiO2 
 PCOD9296047
Probable space group: C 2/C
;
_chemical_formula_sum "Si O2"
_cell_formula_units_Z 48
_cell_length_a 7.966527
_cell_length_b 17.227038
_cell_length_c 17.995165
_cell_angle_alpha 90.000000
_cell_angle_beta 115.429303
_cell_angle_gamma 90.000000
_cell_volume 2230.380292
_symmetry_space_group_name_H-M "C 2/C"
_symmetry_group_IT_number 15
_symmetry_cell_setting 'monoclinic'
loop_
_space_group_symop_operation_xyz
x,y,z
-x,y,1/2-z
-x,-y,-z
x,-y,1/2+z
1/2+x,1/2+y,z
1/2-x,1/2+y,1/2-z
1/2-x,1/2-y,-z
1/2+x,1/2-y,1/2+z
loop_
_atom_site_type_symbol
_atom_site_label
_atom_site_fract_x
_atom_site_fract_y
_atom_site_fract_z
Si Si1 0.616676 0.599616 0.559760
Si Si2 0.480768 0.610011 0.372613
Si Si3 0.622100 0.454853 0.345028
Si Si4 0.986704 0.508986 0.586692
Si Si5 0.130730 0.631849 0.211502
Si Si6 0.648362 0.240663 0.837286
O O1 0.489999 0.599992 0.462203
O O2 0.484373 0.580514 0.604298
O O3 0.726830 0.679171 0.596404
O O4 0.788675 0.541628 0.575356
O O5 0.622224 0.547514 0.363895
O O6 0.294977 0.592399 0.291207
O O7 0.535670 0.698738 0.366959
O O8 0.500000 0.439160 0.250000
O O9 0.835106 0.434380 0.366879
O O10 0.025637 0.430934 0.640968
O O11 0.000000 0.500000 0.500000
O O12 0.216721 0.701168 0.181203
O O13 0.000000 0.665920 0.250000
O O14 0.500000 0.205917 0.750000
#
# Coordination Sequence:
#
# PCOD9296047 Si02
#       6
#     8   8   8   8   8   8
#     4  12  27  42  70 103 139 167 225 291 339 380
#     4  11  21  46  68  92 131 186 220 264 333 411
#     4  12  24  42  67  98 136 173 224 274 335 398
#     4  12  25  41  70 105 132 174 229 279 334 400
#     4  11  23  42  72  94 133 183 230 265 331 416
#     4  10  23  44  66  93 134 183 219 271 343 398
#
# _framework density 21.520994999999999
#
# number of rings (size 3 to 8) (size 9 to 14) (size 15 to 20)
#    0.000    0.667    5.000    2.500    4.667    0.667 
#    3.000    0.833    0.000    0.000    0.000    0.000 
#    0.000    0.000    0.000    0.000    0.000    0.000 
#
# Total GULP energy -134071.575147 kJ/mol
# GULP energy per Si atom -5586.315631 kJ/mol
# Density = 2.147201 g / cm^3
# Si number density = 21.520995 Si / 1000 Ang^3
#
#
#
# Elastic Constant Matrix: (Units=GPa)
#
#
# Indices 1 2 3 4 5 6 
#
# 1 63.0056 6.7931 20.1882 0.0000 -6.9916 0.0000
# 2 6.7931 55.0932 36.3625 0.0000 5.1747 0.0000
# 3 20.1882 36.3625 155.7880 0.0000 -8.8333 0.0000
# 4 0.0000 0.0000 0.0000 27.5386 0.0000 7.1760
# 5 -6.9916 5.1747 -8.8333 0.0000 36.6792 0.0000
# 6 0.0000 0.0000 0.0000 7.1760 0.0000 19.0616
#
#
#
# Elastic Compliance Matrix: (Units=1/GPa)
#
#
# Indices 1 2 3 4 5 6 
#
# 1 0.016889 -0.001216 -0.001736 0.000000 0.002973 0.000000
# 2 -0.001216 0.022232 -0.005295 0.000000 -0.004643 0.000000
# 3 -0.001736 -0.005295 0.008013 0.000000 0.002346 0.000000
# 4 0.000000 0.000000 0.000000 0.040262 0.000000 -0.015157
# 5 0.002973 -0.004643 0.002346 0.000000 0.029050 0.000000
# 6 0.000000 0.000000 0.000000 -0.015157 0.000000 0.058168
#
#
# Mechanical properties :
#
#
# Convention : Reuss Voigt Hill
#
# Bulk Modulus (GPa) = 32.63722 44.50827 38.57274
# Shear Modulus (GPa) = 24.83601 30.69207 27.76404
#
# Velocity S-wave (km/s) = 3.40080 3.78053 3.59568
# Velocity P-wave (km/s) = 5.53342 6.30736 5.93302
#
# Compressibility (1/GPa) = 0.03063987
#
# Stress axis : x y z
#
# Youngs Moduli (GPa) = 59.21056 44.98064 124.79933
#
# Poissons Ratio (x) = 0.05468 0.21669
# Poissons Ratio (y) = 0.07198 0.66080
# Poissons Ratio (z) = 0.10281 0.23817
#
# Static dielectric constant tensor:
#      x y z
#    x 1.885220 0.000000 0.025770 
#    y 0.000000 1.784150 0.000000 
#    z 0.025770 0.000000 1.794540 
# 
# From -- ./inp_files/190606.got.cif
#   From: 2010.05.17/outbox.cif.g08.bks.cpg/sg15_96_cif.got.tgz:190606.got - 2010.06.03 18:47:42.
