data_PCOD9296434
_publ_section_title
;
Structure prediction by ZEFSAII (Michael W. Deem and Ramdas Pophale) SiO2 
 PCOD9296434
Probable space group: C 2/C
;
_chemical_formula_sum "Si O2"
_cell_formula_units_Z 40
_cell_length_a 13.880439
_cell_length_b 11.667473
_cell_length_c 22.179149
_cell_angle_alpha 90.000000
_cell_angle_beta 154.012829
_cell_angle_gamma 90.000000
_cell_volume 1573.864769
_symmetry_space_group_name_H-M "C 2/C"
_symmetry_group_IT_number 15
_symmetry_cell_setting 'monoclinic'
loop_
_space_group_symop_operation_xyz
x,y,z
-x,y,1/2-z
-x,-y,-z
x,-y,1/2+z
1/2+x,1/2+y,z
1/2-x,1/2+y,1/2-z
1/2-x,1/2-y,-z
1/2+x,1/2-y,1/2+z
loop_
_atom_site_type_symbol
_atom_site_label
_atom_site_fract_x
_atom_site_fract_y
_atom_site_fract_z
Si Si1 0.192406 0.561470 0.035180
Si Si2 0.350182 0.326928 0.738761
Si Si3 0.000000 0.237602 0.750000
Si Si4 0.000000 0.384956 0.250000
Si Si5 0.779599 0.833391 0.242652
Si Si6 0.268552 0.424887 0.973106
O O1 0.228727 0.583233 0.126701
O O2 0.397676 0.630826 0.120145
O O3 0.212592 0.441167 0.012506
O O4 0.959858 0.613389 0.887641
O O5 0.356089 0.203527 0.708562
O O6 0.244975 0.294714 0.743070
O O7 0.470008 0.594107 0.882674
O O8 0.849955 0.171619 0.712852
O O9 0.836713 0.533818 0.620426
O O10 0.847370 0.682614 0.122419
#
# Coordination Sequence:
#
# PCOD9296434 Si02
#       6
#     8   8   4   4   8   8
#     4  10  23  45  72 110 134 182 239 292 340 420
#     4  10  23  44  75 104 142 178 235 288 355 411
#     4  11  28  48  65 100 150 190 235 276 368 417
#     4   9  20  42  69 108 138 172 229 296 342 417
#     4  12  24  46  73 100 141 196 226 290 353 419
#     4  11  24  44  69 105 143 174 238 290 347 415
#
# _framework density 25.415144000000002
#
# number of rings (size 3 to 8) (size 9 to 14) (size 15 to 20)
#    0.000    1.600    2.000    2.400    2.800    4.000 
#    0.000    8.000    0.000    0.000    0.000    0.000 
#    0.000    0.000    0.000    0.000    0.000    0.000 
#
# Total GULP energy -111987.846110 kJ/mol
# GULP energy per Si atom -5599.392305 kJ/mol
# Density = 2.535730 g / cm^3
# Si number density = 25.415144 Si / 1000 Ang^3
#
#
#
# Elastic Constant Matrix: (Units=GPa)
#
#
# Indices 1 2 3 4 5 6 
#
# 1 116.9030 33.0277 53.8623 -0.0003 -10.2026 0.0001
# 2 33.0277 116.4970 61.7433 0.0028 -7.1269 0.0001
# 3 53.8623 61.7433 213.4310 0.0113 8.3370 0.0005
# 4 -0.0003 0.0028 0.0113 38.7944 0.0006 -5.9084
# 5 -10.2026 -7.1269 8.3370 0.0006 33.5407 -0.0004
# 6 0.0001 0.0001 0.0005 -5.9084 -0.0004 48.8738
#
#
#
# Elastic Compliance Matrix: (Units=1/GPa)
#
#
# Indices 1 2 3 4 5 6 
#
# 1 0.010338 -0.001500 -0.002308 0.000001 0.003400 0.000000
# 2 -0.001500 0.010646 -0.002799 0.000000 0.002502 0.000000
# 3 -0.002308 -0.002799 0.006188 -0.000002 -0.002835 0.000000
# 4 0.000001 0.000000 -0.000002 0.026260 0.000000 0.003175
# 5 0.003400 0.002502 -0.002835 0.000000 0.032085 0.000000
# 6 0.000000 0.000000 0.000000 0.003175 0.000000 0.020845
#
#
# Mechanical properties :
#
#
# Convention : Reuss Voigt Hill
#
# Bulk Modulus (GPa) = 71.64002 82.67753 77.15877
# Shear Modulus (GPa) = 40.24885 44.12163 42.18524
#
# Velocity S-wave (km/s) = 3.98384 4.17110 4.07854
# Velocity P-wave (km/s) = 7.02925 7.46986 7.25290
#
# Compressibility (1/GPa) = 0.01395868
#
# Stress axis : x y z
#
# Youngs Moduli (GPa) = 96.73219 93.93614 161.59806
#
# Poissons Ratio (x) = 0.14088 0.37294
# Poissons Ratio (y) = 0.14507 0.45229
# Poissons Ratio (z) = 0.22324 0.26292
#
# Static dielectric constant tensor:
#      x y z
#    x 2.078820 0.000000 -0.058500 
#    y 0.000000 2.027160 0.000000 
#    z -0.058500 0.000000 1.974630 
# 
# From -- ./inp_files/273939.got.cif
#   From: 2010.05.17/outbox.cif.g08.bks.cpg/sg15_137_cif.got.tgz:273939.got - 2010.06.03 18:47:42.
