data_PCOD9296974
_publ_section_title
;
Structure prediction by ZEFSAII (Michael W. Deem and Ramdas Pophale) SiO2 
 PCOD9296974
Probable space group: C 2/C
;
_chemical_formula_sum "Si O2"
_cell_formula_units_Z 40
_cell_length_a 16.366366
_cell_length_b 8.234777
_cell_length_c 14.572323
_cell_angle_alpha 90.000000
_cell_angle_beta 55.836706
_cell_angle_gamma 90.000000
_cell_volume 1625.060985
_symmetry_space_group_name_H-M "C 2/C"
_symmetry_group_IT_number 15
_symmetry_cell_setting 'monoclinic'
loop_
_space_group_symop_operation_xyz
x,y,z
-x,y,1/2-z
-x,-y,-z
x,-y,1/2+z
1/2+x,1/2+y,z
1/2-x,1/2+y,1/2-z
1/2-x,1/2-y,-z
1/2+x,1/2-y,1/2+z
loop_
_atom_site_type_symbol
_atom_site_label
_atom_site_fract_x
_atom_site_fract_y
_atom_site_fract_z
Si Si1 0.871587 0.841670 0.730560
Si Si2 0.271229 0.434449 0.142597
Si Si3 0.396835 0.873006 0.962190
Si Si4 0.181974 0.083239 0.584425
Si Si5 0.950463 0.281870 0.474704
O O1 0.829637 0.659377 0.770470
O O2 0.983544 0.840878 0.625145
O O3 0.806104 0.938956 0.697251
O O4 0.862913 0.938953 0.829842
O O5 0.278590 0.519135 0.038690
O O6 0.353228 0.293232 0.080121
O O7 0.389409 0.736708 0.887735
O O8 0.422642 0.061617 0.931184
O O9 0.284102 0.868714 0.070359
O O10 0.475645 0.823299 0.988673
#
# Coordination Sequence:
#
# PCOD9296974 Si02
#       5
#     8   8   8   8   8
#     4  12  26  45  78 109 150 202 244 300 390 429
#     4  12  27  47  72 109 149 199 244 315 362 446
#     4  10  23  46  77 103 149 190 246 316 356 430
#     4  11  24  49  74 109 149 192 246 314 362 443
#     4  11  24  49  74 109 149 192 246 314 362 443
#
# _framework density 24.614460999999999
#
# number of rings (size 3 to 8) (size 9 to 14) (size 15 to 20)
#    0.000    0.800    4.000    2.400    5.600    0.800 
#    0.000    2.000    0.000    0.000    0.000    0.000 
#    0.000    0.000    0.000    0.000    0.000    0.000 
#
# Total GULP energy -111949.175989 kJ/mol
# GULP energy per Si atom -5597.458799 kJ/mol
# Density = 2.455844 g / cm^3
# Si number density = 24.614461 Si / 1000 Ang^3
#
#
#
# Elastic Constant Matrix: (Units=GPa)
#
#
# Indices 1 2 3 4 5 6 
#
# 1 97.6039 14.4628 -7.2145 0.0000 2.4081 0.0000
# 2 14.4628 93.7663 2.0858 0.0000 16.7107 0.0000
# 3 -7.2145 2.0858 63.5960 0.0000 6.9226 0.0000
# 4 0.0000 0.0000 0.0000 9.9559 0.0000 12.1848
# 5 2.4081 16.7107 6.9226 0.0000 24.7923 0.0000
# 6 0.0000 0.0000 0.0000 12.1848 0.0000 55.9271
#
#
#
# Elastic Compliance Matrix: (Units=1/GPa)
#
#
# Indices 1 2 3 4 5 6 
#
# 1 0.010586 -0.001607 0.001287 0.000000 -0.000304 0.000000
# 2 -0.001607 0.012381 0.000312 0.000000 -0.008276 0.000000
# 3 0.001287 0.000312 0.016395 0.000000 -0.004913 0.000000
# 4 0.000000 0.000000 0.000000 0.136964 0.000000 -0.029840
# 5 -0.000304 -0.008276 -0.004913 0.000000 0.047315 0.000000
# 6 0.000000 0.000000 0.000000 -0.029840 0.000000 0.024382
#
#
# Mechanical properties :
#
#
# Convention : Reuss Voigt Hill
#
# Bulk Modulus (GPa) = 25.41572 30.40383 27.90977
# Shear Modulus (GPa) = 19.14584 34.51052 26.82818
#
# Velocity S-wave (km/s) = 2.79198 3.74845 3.30500
# Velocity P-wave (km/s) = 4.55428 5.57793 5.09190
#
# Compressibility (1/GPa) = 0.03934573
#
# Stress axis : x y z
#
# Youngs Moduli (GPa) = 94.46189 80.77088 60.99489
#
# Poissons Ratio (x) = 0.12982 -0.07849
# Poissons Ratio (y) = 0.15183 -0.01906
# Poissons Ratio (z) = -0.12155 -0.02524
#
# Static dielectric constant tensor:
#      x y z
#    x 1.949860 0.000000 0.040830 
#    y 0.000000 2.003450 0.000000 
#    z 0.040830 0.000000 1.897080 
# 
# From -- ./inp_files/150582.got.cif
#   From: 2010.05.17/outbox.cif.g08.bks.cpg/sg15_76_cif.got.tgz:150582.got - 2010.06.03 18:47:42.
