data_PCOD9296178
_publ_section_title
;
Structure prediction by ZEFSAII (Michael W. Deem and Ramdas Pophale) SiO2 
 PCOD9296178
Probable space group: C 2/C
;
_chemical_formula_sum "Si O2"
_cell_formula_units_Z 40
_cell_length_a 9.186559
_cell_length_b 24.046098
_cell_length_c 17.399067
_cell_angle_alpha 90.000000
_cell_angle_beta 150.387673
_cell_angle_gamma 90.000000
_cell_volume 1899.169461
_symmetry_space_group_name_H-M "C 2/C"
_symmetry_group_IT_number 15
_symmetry_cell_setting 'monoclinic'
loop_
_space_group_symop_operation_xyz
x,y,z
-x,y,1/2-z
-x,-y,-z
x,-y,1/2+z
1/2+x,1/2+y,z
1/2-x,1/2+y,1/2-z
1/2-x,1/2-y,-z
1/2+x,1/2-y,1/2+z
loop_
_atom_site_type_symbol
_atom_site_label
_atom_site_fract_x
_atom_site_fract_y
_atom_site_fract_z
Si Si1 0.310948 0.539901 0.358209
Si Si2 0.811994 0.625563 0.595067
Si Si3 0.350150 0.145783 0.911424
Si Si4 0.207033 0.751129 0.071934
Si Si5 0.672531 0.044601 0.129137
O O1 0.500000 0.500000 0.500000
O O2 0.529447 0.590602 0.442364
O O3 0.215483 0.516915 0.231962
O O4 0.000000 0.558060 0.250000
O O5 0.693212 0.682891 0.579402
O O6 0.000000 0.597629 0.750000
O O7 0.008771 0.634240 0.608841
O O8 0.000000 0.139540 0.750000
O O9 0.447452 0.209184 0.974485
O O10 0.493043 0.102099 0.036989
O O11 0.500000 0.730673 0.250000
O O12 0.250000 0.750000 0.000000
O O13 0.000000 0.055240 0.250000
O O14 0.500000 0.000000 0.000000
#
# Coordination Sequence:
#
# PCOD9296178 Si02
#       5
#     8   8   8   8   8
#     4  12  27  44  69  95 133 177 222 277 340 401
#     4  10  23  44  68  99 138 177 219 275 335 399
#     4  11  24  42  70 102 136 177 227 279 331 398
#     4   9  20  41  68  96 134 175 217 270 330 392
#     4  12  25  44  68  97 132 174 226 280 332 398
#
# _framework density 21.061837000000001
#
# number of rings (size 3 to 8) (size 9 to 14) (size 15 to 20)
#    0.000    1.200    2.000    3.000    8.400    0.800 
#    0.000    9.000    0.000    0.000    0.000    0.000 
#    0.000    0.000    0.000    0.000    0.000    0.000 
#
# Total GULP energy -111660.760137 kJ/mol
# GULP energy per Si atom -5583.038007 kJ/mol
# Density = 2.101390 g / cm^3
# Si number density = 21.061837 Si / 1000 Ang^3
#
#
#
# Elastic Constant Matrix: (Units=GPa)
#
#
# Indices 1 2 3 4 5 6 
#
# 1 81.2764 18.1004 61.2241 -0.0140 3.3463 -0.0032
# 2 18.1004 81.3593 48.9691 0.0016 11.9361 0.0007
# 3 61.2241 48.9691 175.4034 0.0258 6.6252 -0.0033
# 4 -0.0140 0.0016 0.0258 12.4870 -0.0041 -9.0390
# 5 3.3463 11.9361 6.6252 -0.0041 59.7132 -0.0016
# 6 -0.0032 0.0007 -0.0033 -9.0390 -0.0016 20.6675
#
#
#
# Elastic Compliance Matrix: (Units=1/GPa)
#
#
# Indices 1 2 3 4 5 6 
#
# 1 0.016701 -0.000211 -0.005761 0.000047 -0.000255 0.000022
# 2 -0.000211 0.015159 -0.004062 0.000006 -0.002568 0.000001
# 3 -0.005761 -0.004062 0.008840 -0.000035 0.000154 -0.000015
# 4 0.000047 0.000006 -0.000035 0.117180 0.000009 0.051249
# 5 -0.000255 -0.002568 0.000154 0.000009 0.017257 0.000005
# 6 0.000022 0.000001 -0.000015 0.051249 0.000005 0.070799
#
#
# Mechanical properties :
#
#
# Convention : Reuss Voigt Hill
#
# Bulk Modulus (GPa) = 48.46454 66.06958 57.26706
# Shear Modulus (GPa) = 18.32300 32.55660 25.43980
#
# Velocity S-wave (km/s) = 2.95271 3.93588 3.47920
# Velocity P-wave (km/s) = 5.88942 7.21750 6.58702
#
# Compressibility (1/GPa) = 0.02063364
#
# Stress axis : x y z
#
# Youngs Moduli (GPa) = 59.87778 65.96560 113.12091
#
# Poissons Ratio (x) = 0.01390 0.65168
# Poissons Ratio (y) = 0.01262 0.45946
# Poissons Ratio (z) = 0.34495 0.26793
#
# Static dielectric constant tensor:
#      x y z
#    x 1.834170 -0.000240 -0.009530 
#    y -0.000240 2.072020 0.000430 
#    z -0.009530 0.000430 1.646070 
# 
# From -- ./inp_files/193429.got.cif
#   From: 2010.05.17/outbox.cif.g08.bks.cpg/sg15_97_cif.got.tgz:193429.got - 2010.06.03 18:47:42.
