data_PCOD9296606
_publ_section_title
;
Structure prediction by ZEFSAII (Michael W. Deem and Ramdas Pophale) SiO2 
 PCOD9296606
Probable space group: C 2/C
;
_chemical_formula_sum "Si O2"
_cell_formula_units_Z 48
_cell_length_a 19.142600
_cell_length_b 19.712696
_cell_length_c 9.142208
_cell_angle_alpha 90.000000
_cell_angle_beta 137.828169
_cell_angle_gamma 90.000000
_cell_volume 2316.066976
_symmetry_space_group_name_H-M "C 2/C"
_symmetry_group_IT_number 15
_symmetry_cell_setting 'monoclinic'
loop_
_space_group_symop_operation_xyz
x,y,z
-x,y,1/2-z
-x,-y,-z
x,-y,1/2+z
1/2+x,1/2+y,z
1/2-x,1/2+y,1/2-z
1/2-x,1/2-y,-z
1/2+x,1/2-y,1/2+z
loop_
_atom_site_type_symbol
_atom_site_label
_atom_site_fract_x
_atom_site_fract_y
_atom_site_fract_z
Si Si1 0.500000 0.871650 0.250000
Si Si2 0.889971 0.857547 0.509752
Si Si3 0.195265 0.426805 0.687887
Si Si4 0.000000 0.644239 0.250000
Si Si5 0.798372 0.815612 0.653007
Si Si6 0.216901 0.567806 0.567981
Si Si7 0.998870 0.736747 0.975435
O O1 0.574900 0.917610 0.460657
O O2 0.548555 0.819620 0.208184
O O3 0.817753 0.861220 0.540665
O O4 0.918910 0.782595 0.488456
O O5 0.820431 0.892379 0.278864
O O6 0.000000 0.882821 0.750000
O O7 0.244111 0.358381 0.694782
O O8 0.230158 0.493493 0.656902
O O9 0.212167 0.433698 0.885426
O O10 0.894649 0.600852 0.053859
O O11 0.966669 0.693405 0.332280
O O12 0.750000 0.750000 0.500000
O O13 0.909744 0.789118 0.882997
#
# Coordination Sequence:
#
# PCOD9296606 Si02
#       7
#     4   8   8   4   8   8   8
#     4  12  21  44  68  98 139 174 226 280 348 405
#     4  10  23  45  69  98 136 179 230 283 337 403
#     4  12  27  43  69  99 138 184 228 279 337 415
#     4  12  27  40  70 106 143 176 222 290 338 415
#     4  11  20  40  70  96 133 176 223 279 339 397
#     4  12  28  46  66 102 139 185 230 276 342 409
#     4  11  22  41  67 105 136 177 224 285 347 394
#
# _framework density 20.724789999999999
#
# number of rings (size 3 to 8) (size 9 to 14) (size 15 to 20)
#    0.000    0.667    5.833    2.500    4.667    2.000 
#    0.000    7.500    0.000    0.000    0.000    0.000 
#    0.000    0.000    0.000    0.000    0.000    0.000 
#
# Total GULP energy -133757.262053 kJ/mol
# GULP energy per Si atom -5573.219252 kJ/mol
# Density = 2.067762 g / cm^3
# Si number density = 20.724790 Si / 1000 Ang^3
#
#
#
# Elastic Constant Matrix: (Units=GPa)
#
#
# Indices 1 2 3 4 5 6 
#
# 1 63.9487 18.9661 34.5455 0.0000 -14.1238 0.0000
# 2 18.9661 81.7194 47.7495 0.0000 -4.4228 0.0000
# 3 34.5455 47.7495 142.5063 0.0000 -15.0889 0.0000
# 4 0.0000 0.0000 0.0000 4.6364 0.0000 -11.3887
# 5 -14.1238 -4.4228 -15.0889 0.0000 20.9213 0.0000
# 6 0.0000 0.0000 0.0000 -11.3887 0.0000 24.5880
#
#
#
# Elastic Compliance Matrix: (Units=1/GPa)
#
#
# Indices 1 2 3 4 5 6 
#
# 1 0.020410 -0.002403 -0.002964 0.000000 0.011133 0.000000
# 2 -0.002403 0.015504 -0.004804 0.000000 -0.001809 0.000000
# 3 -0.002964 -0.004804 0.009772 0.000000 0.004032 0.000000
# 4 0.000000 0.000000 0.000000 -1.565728 0.000000 -0.725218
# 5 0.011133 -0.001809 0.004032 0.000000 0.057839 0.000000
# 6 0.000000 0.000000 0.000000 -0.725218 0.000000 -0.295238
#
#
# Mechanical properties :
#
#
# Convention : Reuss Voigt Hill
#
# Bulk Modulus (GPa) = 39.45512 54.52184 46.98848
# Shear Modulus (GPa) = -2.89243 22.49003 9.79880
#
# Velocity S-wave (km/s) = -1.18265 3.29777 2.17677
# Velocity P-wave (km/s) = 4.14899 6.39258 5.38884
#
# Compressibility (1/GPa) = 0.02534526
#
# Stress axis : x y z
#
# Youngs Moduli (GPa) = 48.99543 64.50079 102.33073
#
# Poissons Ratio (x) = 0.15497 0.30329
# Poissons Ratio (y) = 0.11771 0.49159
# Poissons Ratio (z) = 0.14522 0.30986
#
# Static dielectric constant tensor:
#      x y z
#    x 1.805350 0.000000 0.042170 
#    y 0.000000 1.792120 0.000000 
#    z 0.042170 0.000000 1.757690 
# 
# From -- ./inp_files/58011.got.cif
#   From: 2010.05.17/outbox.cif.g08.bks.cpg/sg15_30_cif.got.tgz:58011.got - 2010.06.03 18:47:42.
