data_PCOD9296430
_publ_section_title
;
Structure prediction by ZEFSAII (Michael W. Deem and Ramdas Pophale) SiO2 
 PCOD9296430
Probable space group: C 2/C
;
_chemical_formula_sum "Si O2"
_cell_formula_units_Z 52
_cell_length_a 18.847300
_cell_length_b 6.586833
_cell_length_c 15.923993
_cell_angle_alpha 90.000000
_cell_angle_beta 75.180873
_cell_angle_gamma 90.000000
_cell_volume 1911.113986
_symmetry_space_group_name_H-M "C 2/C"
_symmetry_group_IT_number 15
_symmetry_cell_setting 'monoclinic'
loop_
_space_group_symop_operation_xyz
x,y,z
-x,y,1/2-z
-x,-y,-z
x,-y,1/2+z
1/2+x,1/2+y,z
1/2-x,1/2+y,1/2-z
1/2-x,1/2-y,-z
1/2+x,1/2-y,1/2+z
loop_
_atom_site_type_symbol
_atom_site_label
_atom_site_fract_x
_atom_site_fract_y
_atom_site_fract_z
Si Si1 0.349515 0.887060 0.526474
Si Si2 0.945232 0.982287 0.650917
Si Si3 0.435608 0.799503 0.908821
Si Si4 0.500000 0.888685 0.250000
Si Si5 0.183155 0.029215 0.087134
Si Si6 0.680459 0.257343 0.769323
Si Si7 0.847028 0.302194 0.723040
O O1 0.268958 0.985923 0.537960
O O2 0.352766 0.696130 0.463583
O O3 0.351749 0.808509 0.620323
O O4 0.412424 0.050497 0.490668
O O5 0.912274 0.151072 0.725213
O O6 0.005437 0.121549 0.586975
O O7 0.976943 0.786985 0.688198
O O8 0.866983 0.879902 0.647383
O O9 0.361777 0.677869 0.906076
O O10 0.462641 0.952423 0.827681
O O11 0.180485 0.131275 0.179908
O O12 0.764661 0.236696 0.771838
O O13 0.647412 0.038101 0.758424
#
# Coordination Sequence:
#
# PCOD9296430 Si02
#       7
#     8   8   8   4   8   8   8
#     4  10  24  46  70 109 142 188 242 295 359 429
#     4  12  25  42  70 103 139 189 232 299 357 419
#     4  12  24  45  72 105 143 189 242 302 353 424
#     4  12  26  44  70 108 144 182 248 294 360 420
#     4  10  23  44  75 103 142 190 244 297 351 420
#     4  11  22  44  69 104 138 188 243 292 353 428
#     4  11  25  45  71 102 148 186 235 298 362 426
#
# _framework density 27.209261999999999
#
# number of rings (size 3 to 8) (size 9 to 14) (size 15 to 20)
#    0.000    0.923    1.538    5.538    0.000    4.308 
#    2.769    3.846    0.000    0.000    0.000    0.000 
#    0.000    0.000    0.000    0.000    0.000    0.000 
#
# Total GULP energy -145330.886726 kJ/mol
# GULP energy per Si atom -5589.649489 kJ/mol
# Density = 2.714733 g / cm^3
# Si number density = 27.209262 Si / 1000 Ang^3
#
#
#
# Elastic Constant Matrix: (Units=GPa)
#
#
# Indices 1 2 3 4 5 6 
#
# 1 72.2374 61.5163 30.6274 0.0000 -25.3921 0.0000
# 2 61.5163 237.7031 67.4556 0.0000 -29.0441 0.0000
# 3 30.6274 67.4556 75.4069 0.0000 -17.4324 0.0000
# 4 0.0000 0.0000 0.0000 43.6328 0.0000 -20.7309
# 5 -25.3921 -29.0441 -17.4324 0.0000 39.9205 0.0000
# 6 0.0000 0.0000 0.0000 -20.7309 0.0000 68.0624
#
#
#
# Elastic Compliance Matrix: (Units=1/GPa)
#
#
# Indices 1 2 3 4 5 6 
#
# 1 0.021671 -0.003428 -0.003477 0.000000 0.009772 0.000000
# 2 -0.003428 0.006345 -0.004139 0.000000 0.000629 0.000000
# 3 -0.003477 -0.004139 0.019096 0.000000 0.003116 0.000000
# 4 0.000000 0.000000 0.000000 0.026796 0.000000 0.008162
# 5 0.009772 0.000629 0.003116 0.000000 0.033084 0.000000
# 6 0.000000 0.000000 0.000000 0.008162 0.000000 0.017178
#
#
# Mechanical properties :
#
#
# Convention : Reuss Voigt Hill
#
# Bulk Modulus (GPa) = 39.95701 78.28289 59.11995
# Shear Modulus (GPa) = 32.34149 45.37300 38.85725
#
# Velocity S-wave (km/s) = 3.45138 4.08800 3.78311
# Velocity P-wave (km/s) = 5.53169 7.14951 6.39199
#
# Compressibility (1/GPa) = 0.02502690
#
# Stress axis : x y z
#
# Youngs Moduli (GPa) = 46.14374 157.59603 52.36670
#
# Poissons Ratio (x) = 0.54021 0.18206
# Poissons Ratio (y) = 0.15817 0.21672
# Poissons Ratio (z) = 0.16042 0.65223
#
# Static dielectric constant tensor:
#      x y z
#    x 2.414530 0.000000 -0.014290 
#    y 0.000000 2.096250 0.000000 
#    z -0.014290 0.000000 2.124160 
# 
# From -- ./inp_files/254287.got.cif
#   From: 2010.05.17/outbox.cif.g08.bks.cpg/sg15_128_cif.got.tgz:254287.got - 2010.06.03 18:47:42.
