data_PCOD9296082
_publ_section_title
;
Structure prediction by ZEFSAII (Michael W. Deem and Ramdas Pophale) SiO2 
 PCOD9296082
Probable space group: C 2/C
;
_chemical_formula_sum "Si O2"
_cell_formula_units_Z 56
_cell_length_a 12.623816
_cell_length_b 7.823483
_cell_length_c 28.055209
_cell_angle_alpha 90.000000
_cell_angle_beta 64.625801
_cell_angle_gamma 90.000000
_cell_volume 2503.491345
_symmetry_space_group_name_H-M "C 2/C"
_symmetry_group_IT_number 15
_symmetry_cell_setting 'monoclinic'
loop_
_space_group_symop_operation_xyz
x,y,z
-x,y,1/2-z
-x,-y,-z
x,-y,1/2+z
1/2+x,1/2+y,z
1/2-x,1/2+y,1/2-z
1/2-x,1/2-y,-z
1/2+x,1/2-y,1/2+z
loop_
_atom_site_type_symbol
_atom_site_label
_atom_site_fract_x
_atom_site_fract_y
_atom_site_fract_z
Si Si1 0.529391 0.863322 0.610694
Si Si2 0.085133 0.496010 0.271896
Si Si3 0.763306 0.749748 0.696554
Si Si4 0.808000 0.888650 0.545651
Si Si5 0.165479 0.547437 0.910361
Si Si6 0.438341 0.486272 0.611567
Si Si7 0.176834 0.882914 0.545124
O O1 0.488253 0.944637 0.668286
O O2 0.667884 0.887712 0.578279
O O3 0.493200 0.664386 0.617078
O O4 0.451126 0.956429 0.585565
O O5 0.183234 0.366696 0.272251
O O6 0.144172 0.660701 0.235502
O O7 0.000000 0.410926 0.250000
O O8 0.767694 0.635001 0.647555
O O9 0.849871 0.905584 0.666378
O O10 0.855834 0.700266 0.548042
O O11 0.869382 0.002856 0.574697
O O12 0.835626 0.954832 0.487981
O O13 0.251239 0.420475 0.921305
O O14 0.542897 0.347893 0.584510
O O15 0.250000 0.750000 0.500000
#
# Coordination Sequence:
#
# PCOD9296082 Si02
#       7
#     8   8   8   8   8   8   8
#     4  11  24  44  73  99 138 180 221 292 348 406
#     4  11  23  44  71 100 131 175 223 279 356 413
#     4  10  24  46  67 101 136 171 227 285 342 418
#     4  11  24  44  68  99 138 182 229 281 333 408
#     4  10  23  44  67 100 136 177 226 281 341 406
#     4  11  24  46  65  99 142 176 231 284 336 407
#     4  12  26  42  69 101 139 192 237 276 345 407
#
# _framework density 22.368762
#
# number of rings (size 3 to 8) (size 9 to 14) (size 15 to 20)
#    0.000    1.143    1.429    4.286    6.000    0.571 
#    7.714    0.714    0.000    0.000    0.000    0.000 
#    0.000    0.000    0.000    0.000    0.000    0.000 
#
# Total GULP energy -156716.589430 kJ/mol
# GULP energy per Si atom -5597.021051 kJ/mol
# Density = 2.231785 g / cm^3
# Si number density = 22.368762 Si / 1000 Ang^3
#
#
#
# Elastic Constant Matrix: (Units=GPa)
#
#
# Indices 1 2 3 4 5 6 
#
# 1 114.7787 18.0382 32.5264 0.0000 19.4231 0.0000
# 2 18.0382 40.8311 16.6942 0.0000 7.4757 0.0000
# 3 32.5264 16.6942 65.4205 0.0000 1.6369 0.0000
# 4 0.0000 0.0000 0.0000 22.5819 0.0000 5.1046
# 5 19.4231 7.4757 1.6369 0.0000 42.1076 0.0000
# 6 0.0000 0.0000 0.0000 5.1046 0.0000 32.9085
#
#
#
# Elastic Compliance Matrix: (Units=1/GPa)
#
#
# Indices 1 2 3 4 5 6 
#
# 1 0.011219 -0.002097 -0.004927 0.000000 -0.004611 0.000000
# 2 -0.002097 0.028651 -0.006171 0.000000 -0.003879 0.000000
# 3 -0.004927 -0.006171 0.019245 0.000000 0.002620 0.000000
# 4 0.000000 0.000000 0.000000 0.045892 0.000000 -0.007119
# 5 -0.004611 -0.003879 0.002620 0.000000 0.026462 0.000000
# 6 0.000000 0.000000 0.000000 -0.007119 0.000000 0.031492
#
#
# Mechanical properties :
#
#
# Convention : Reuss Voigt Hill
#
# Bulk Modulus (GPa) = 30.55995 39.50534 35.03264
# Shear Modulus (GPa) = 24.96748 29.77103 27.36926
#
# Velocity S-wave (km/s) = 3.34455 3.65214 3.50172
# Velocity P-wave (km/s) = 5.34848 5.95679 5.66081
#
# Compressibility (1/GPa) = 0.03272257
#
# Stress axis : x y z
#
# Youngs Moduli (GPa) = 89.13773 34.90253 51.96220
#
# Poissons Ratio (x) = 0.07320 0.25603
# Poissons Ratio (y) = 0.18696 0.32068
# Poissons Ratio (z) = 0.43920 0.21540
#
# Static dielectric constant tensor:
#      x y z
#    x 1.811470 0.000000 0.004550 
#    y 0.000000 1.878830 0.000000 
#    z 0.004550 0.000000 1.799200 
# 
# From -- ./inp_files/291519.got.cif
#   From: 2010.05.17/outbox.cif.g08.bks.cpg/sg15_146_cif.got.tgz:291519.got - 2010.06.03 18:47:42.
