data_PCOD9296356
_publ_section_title
;
Structure prediction by ZEFSAII (Michael W. Deem and Ramdas Pophale) SiO2 
 PCOD9296356
Probable space group: C 2/C
;
_chemical_formula_sum "Si O2"
_cell_formula_units_Z 36
_cell_length_a 6.892503
_cell_length_b 26.731050
_cell_length_c 11.775559
_cell_angle_alpha 90.000000
_cell_angle_beta 132.183665
_cell_angle_gamma 90.000000
_cell_volume 1607.645990
_symmetry_space_group_name_H-M "C 2/C"
_symmetry_group_IT_number 15
_symmetry_cell_setting 'monoclinic'
loop_
_space_group_symop_operation_xyz
x,y,z
-x,y,1/2-z
-x,-y,-z
x,-y,1/2+z
1/2+x,1/2+y,z
1/2-x,1/2+y,1/2-z
1/2-x,1/2-y,-z
1/2+x,1/2-y,1/2+z
loop_
_atom_site_type_symbol
_atom_site_label
_atom_site_fract_x
_atom_site_fract_y
_atom_site_fract_z
Si Si1 0.731121 0.569174 0.433310
Si Si2 0.007120 0.133745 0.517984
Si Si3 0.540735 0.729836 0.134097
Si Si4 0.000000 0.193912 0.750000
Si Si5 0.800996 0.954491 0.064224
O O1 0.500000 0.579724 0.250000
O O2 0.744482 0.612623 0.533891
O O3 0.686552 0.512844 0.462375
O O4 0.013237 0.562695 0.487943
O O5 0.886663 0.177768 0.396278
O O6 0.024159 0.159269 0.648069
O O7 0.863561 0.081907 0.485096
O O8 0.500000 0.720503 0.250000
O O9 0.748470 0.769937 0.167574
O O10 0.250000 0.750000 0.000000
O O11 0.000000 0.948519 0.250000
#
# Coordination Sequence:
#
# PCOD9296356 Si02
#       5
#     8   8   8   4   8
#     4  10  24  45  69 108 144 181 230 289 353 419
#     4  12  25  44  75 101 143 183 239 281 360 414
#     4  12  28  48  71 100 140 184 238 301 351 415
#     4  12  28  48  70 106 138 190 238 296 352 430
#     4  10  23  44  72 105 141 184 233 284 350 424
#
# _framework density 22.392989
#
# number of rings (size 3 to 8) (size 9 to 14) (size 15 to 20)
#    0.000    0.889    3.333    2.000    3.111    5.333 
#    0.000    6.667    0.000    0.000    0.000    0.000 
#    0.000    0.000    0.000    0.000    0.000    0.000 
#
# Total GULP energy -100355.607597 kJ/mol
# GULP energy per Si atom -5575.311533 kJ/mol
# Density = 2.234202 g / cm^3
# Si number density = 22.392989 Si / 1000 Ang^3
#
#
#
# Elastic Constant Matrix: (Units=GPa)
#
#
# Indices 1 2 3 4 5 6 
#
# 1 128.4907 53.8677 44.0789 0.0000 1.9044 0.0000
# 2 53.8677 112.3900 23.9108 0.0000 -21.4336 0.0000
# 3 44.0789 23.9108 79.1543 0.0000 -17.4173 0.0000
# 4 0.0000 0.0000 0.0000 70.5602 0.0000 -7.9732
# 5 1.9044 -21.4336 -17.4173 0.0000 42.8795 0.0000
# 6 0.0000 0.0000 0.0000 -7.9732 0.0000 53.8686
#
#
#
# Elastic Compliance Matrix: (Units=1/GPa)
#
#
# Indices 1 2 3 4 5 6 
#
# 1 0.012562 -0.005787 -0.006596 0.000000 -0.006130 0.000000
# 2 -0.005787 0.012821 0.000896 0.000000 0.007030 0.000000
# 3 -0.006596 0.000896 0.017789 0.000000 0.007967 0.000000
# 4 0.000000 0.000000 0.000000 0.014413 0.000000 0.002133
# 5 -0.006130 0.007030 0.007967 0.000000 0.030343 0.000000
# 6 0.000000 0.000000 0.000000 0.002133 0.000000 0.018879
#
#
# Mechanical properties :
#
#
# Convention : Reuss Voigt Hill
#
# Bulk Modulus (GPa) = 49.50727 62.63888 56.07308
# Shear Modulus (GPa) = 36.62582 46.67350 41.64966
#
# Velocity S-wave (km/s) = 4.04863 4.57036 4.31738
# Velocity P-wave (km/s) = 6.63413 7.47557 7.06738
#
# Compressibility (1/GPa) = 0.02019905
#
# Stress axis : x y z
#
# Youngs Moduli (GPa) = 79.60229 77.99666 56.21371
#
# Poissons Ratio (x) = 0.45135 0.37081
# Poissons Ratio (y) = 0.46064 -0.05039
# Poissons Ratio (z) = 0.52510 -0.06991
#
# Static dielectric constant tensor:
#      x y z
#    x 1.819970 0.000000 -0.025270 
#    y 0.000000 1.825940 0.000000 
#    z -0.025270 0.000000 1.886090 
# 
# From -- ./inp_files/73427.got.cif
#   From: 2010.05.17/outbox.cif.g08.bks.cpg/sg15_37_cif.got.tgz:73427.got - 2010.06.03 18:47:42.
