data_PCOD9296672
_publ_section_title
;
Structure prediction by ZEFSAII (Michael W. Deem and Ramdas Pophale) SiO2 
 PCOD9296672
Probable space group: C 2/C
;
_chemical_formula_sum "Si O2"
_cell_formula_units_Z 28
_cell_length_a 12.904116
_cell_length_b 12.536271
_cell_length_c 7.968679
_cell_angle_alpha 90.000000
_cell_angle_beta 66.318777
_cell_angle_gamma 90.000000
_cell_volume 1180.540485
_symmetry_space_group_name_H-M "C 2/C"
_symmetry_group_IT_number 15
_symmetry_cell_setting 'monoclinic'
loop_
_space_group_symop_operation_xyz
x,y,z
-x,y,1/2-z
-x,-y,-z
x,-y,1/2+z
1/2+x,1/2+y,z
1/2-x,1/2+y,1/2-z
1/2-x,1/2-y,-z
1/2+x,1/2-y,1/2+z
loop_
_atom_site_type_symbol
_atom_site_label
_atom_site_fract_x
_atom_site_fract_y
_atom_site_fract_z
Si Si1 0.500000 0.212861 0.250000
Si Si2 0.205795 0.419910 0.716661
Si Si3 0.941413 0.195588 0.122250
Si Si4 0.682195 0.141976 0.595059
O O1 0.387548 0.139658 0.336807
O O2 0.513084 0.285835 0.407925
O O3 0.325843 0.360897 0.644334
O O4 0.235301 0.540937 0.652119
O O5 0.150301 0.408334 0.937103
O O6 0.906599 0.311206 0.216603
O O7 0.000000 0.143534 0.250000
O O8 0.750000 0.250000 0.500000
#
# Coordination Sequence:
#
# PCOD9296672 Si02
#       4
#     4   8   8   8
#     4  12  24  40  78 112 142 196 246 296 362 434
#     4  11  24  43  72 105 145 195 241 301 363 422
#     4  11  24  46  73 107 149 186 243 304 357 433
#     4  10  23  45  72 101 149 185 238 303 353 432
#
# _framework density 23.717950999999999
#
# number of rings (size 3 to 8) (size 9 to 14) (size 15 to 20)
#    0.000    1.143    2.857    2.571    2.000    4.571 
#    0.000    5.714   15.714    0.000    0.000    0.000 
#    0.000    0.000    0.000    0.000    0.000    0.000 
#
# Total GULP energy -78063.958389 kJ/mol
# GULP energy per Si atom -5575.997028 kJ/mol
# Density = 2.366397 g / cm^3
# Si number density = 23.717951 Si / 1000 Ang^3
#
#
#
# Elastic Constant Matrix: (Units=GPa)
#
#
# Indices 1 2 3 4 5 6 
#
# 1 138.0019 72.4372 15.4595 0.0000 -4.0617 0.0000
# 2 72.4372 117.9173 21.8877 0.0000 6.2861 0.0000
# 3 15.4595 21.8877 116.7229 0.0000 23.7153 0.0000
# 4 0.0000 0.0000 0.0000 31.7704 0.0000 15.3205
# 5 -4.0617 6.2861 23.7153 0.0000 32.3225 0.0000
# 6 0.0000 0.0000 0.0000 15.3205 0.0000 -13.5622
#
#
#
# Elastic Compliance Matrix: (Units=1/GPa)
#
#
# Indices 1 2 3 4 5 6 
#
# 1 0.010996 -0.006772 -0.000864 0.000000 0.003332 0.000000
# 2 -0.006772 0.012967 -0.000998 0.000000 -0.002640 0.000000
# 3 -0.000864 -0.000998 0.010402 0.000000 -0.007546 0.000000
# 4 0.000000 0.000000 0.000000 0.020376 0.000000 0.023018
# 5 0.003332 -0.002640 -0.007546 0.000000 0.037407 0.000000
# 6 0.000000 0.000000 0.000000 0.023018 0.000000 -0.047732
#
#
# Mechanical properties :
#
#
# Convention : Reuss Voigt Hill
#
# Bulk Modulus (GPa) = 58.48929 65.80123 62.14526
# Shear Modulus (GPa) = 74.20365 27.62998 50.91681
#
# Velocity S-wave (km/s) = 5.59944 3.41682 4.63834
# Velocity P-wave (km/s) = 8.15591 6.58557 7.41244
#
# Compressibility (1/GPa) = 0.01709715
#
# Stress axis : x y z
#
# Youngs Moduli (GPa) = 90.94397 77.12064 96.13457
#
# Poissons Ratio (x) = 0.52227 0.08301
# Poissons Ratio (y) = 0.61588 0.09595
# Poissons Ratio (z) = 0.07853 0.07697
#
# Static dielectric constant tensor:
#      x y z
#    x 2.021200 0.000000 0.013420 
#    y 0.000000 1.868000 0.000000 
#    z 0.013420 0.000000 1.978020 
# 
# From -- ./inp_files/36468.got.cif
#   From: 2010.05.17/outbox.cif.g08.bks.cpg/sg15_19_cif.got.tgz:36468.got - 2010.06.03 18:47:42.
