data_PCOD9296985
_publ_section_title
;
Structure prediction by ZEFSAII (Michael W. Deem and Ramdas Pophale) SiO2 
 PCOD9296985
Probable space group: C 2/C
;
_chemical_formula_sum "Si O2"
_cell_formula_units_Z 52
_cell_length_a 13.950922
_cell_length_b 13.256748
_cell_length_c 12.185172
_cell_angle_alpha 90.000000
_cell_angle_beta 122.985690
_cell_angle_gamma 90.000000
_cell_volume 1890.311594
_symmetry_space_group_name_H-M "C 2/C"
_symmetry_group_IT_number 15
_symmetry_cell_setting 'monoclinic'
loop_
_space_group_symop_operation_xyz
x,y,z
-x,y,1/2-z
-x,-y,-z
x,-y,1/2+z
1/2+x,1/2+y,z
1/2-x,1/2+y,1/2-z
1/2-x,1/2-y,-z
1/2+x,1/2-y,1/2+z
loop_
_atom_site_type_symbol
_atom_site_label
_atom_site_fract_x
_atom_site_fract_y
_atom_site_fract_z
Si Si1 0.518536 0.648189 0.946693
Si Si2 0.253277 0.956472 0.670519
Si Si3 0.728967 0.175544 0.772681
Si Si4 0.855934 0.272151 0.646060
Si Si5 0.500000 0.486360 0.750000
Si Si6 0.753275 0.113935 0.097156
Si Si7 0.477221 0.202796 0.608955
O O1 0.636778 0.603425 0.070359
O O2 0.543758 0.735352 0.872085
O O3 0.477545 0.555281 0.844333
O O4 0.460507 0.703123 0.014559
O O5 0.349711 0.890706 0.669866
O O6 0.277482 0.948772 0.813690
O O7 0.239691 0.074373 0.642979
O O8 0.815118 0.208573 0.728825
O O9 0.725074 0.271955 0.849038
O O10 0.600372 0.159983 0.647617
O O11 0.630331 0.127751 0.961775
O O12 0.750000 0.250000 0.500000
O O13 0.620803 0.431460 0.851355
O O14 0.500000 0.229115 0.750000
#
# Coordination Sequence:
#
# PCOD9296985 Si02
#       7
#     8   8   8   8   4   8   8
#     4  11  25  52  91 129 166 236 313 362 435 532
#     4  10  23  46  81 125 169 229 284 361 437 537
#     4  11  24  49  80 120 178 232 281 366 448 522
#     4   9  18  45  79 119 168 216 299 361 421 518
#     4  12  30  50  96 132 162 242 300 374 448 540
#     4  11  28  52  81 127 174 223 304 365 451 522
#     4  12  29  53  84 124 183 242 278 379 452 525
#
# _framework density 27.508693000000001
#
# number of rings (size 3 to 8) (size 9 to 14) (size 15 to 20)
#    0.000    1.231    4.615    0.923    9.692    3.077 
#    0.000    1.538    0.000    0.000    0.000    0.000 
#    0.000    0.000    0.000    0.000    0.000    0.000 
#
# Total GULP energy -145376.710675 kJ/mol
# GULP energy per Si atom -5591.411949 kJ/mol
# Density = 2.744608 g / cm^3
# Si number density = 27.508693 Si / 1000 Ang^3
#
#
#
# Elastic Constant Matrix: (Units=GPa)
#
#
# Indices 1 2 3 4 5 6 
#
# 1 210.4289 69.3375 70.9270 0.0000 2.1555 0.0000
# 2 69.3375 172.0792 43.5157 0.0000 -10.4940 0.0000
# 3 70.9270 43.5157 168.2073 0.0000 -9.8008 0.0000
# 4 0.0000 0.0000 0.0000 47.8768 0.0000 -2.9273
# 5 2.1555 -10.4940 -9.8008 0.0000 43.8760 0.0000
# 6 0.0000 0.0000 0.0000 -2.9273 0.0000 58.0858
#
#
#
# Elastic Compliance Matrix: (Units=1/GPa)
#
#
# Indices 1 2 3 4 5 6 
#
# 1 0.006152 -0.002013 -0.002147 0.000000 -0.001263 0.000000
# 2 -0.002013 0.006934 -0.000854 0.000000 0.001567 0.000000
# 3 -0.002147 -0.000854 0.007159 0.000000 0.001500 0.000000
# 4 0.000000 0.000000 0.000000 0.020951 0.000000 0.001056
# 5 -0.001263 0.001567 0.001500 0.000000 0.023563 0.000000
# 6 0.000000 0.000000 0.000000 0.001056 0.000000 0.017269
#
#
# Mechanical properties :
#
#
# Convention : Reuss Voigt Hill
#
# Bulk Modulus (GPa) = 97.87441 102.03064 99.95253
# Shear Modulus (GPa) = 52.37707 54.43007 53.40357
#
# Velocity S-wave (km/s) = 4.36824 4.45303 4.41084
# Velocity P-wave (km/s) = 7.81657 7.97560 7.89648
#
# Compressibility (1/GPa) = 0.01021718
#
# Stress axis : x y z
#
# Youngs Moduli (GPa) = 162.54625 144.22041 139.69190
#
# Poissons Ratio (x) = 0.29032 0.29991
# Poissons Ratio (y) = 0.32721 0.11925
# Poissons Ratio (z) = 0.34898 0.12312
#
# Static dielectric constant tensor:
#      x y z
#    x 2.312290 0.000000 0.054350 
#    y 0.000000 2.230470 0.000000 
#    z 0.054350 0.000000 2.287870 
# 
# From -- ./inp_files/97815.got.cif
#   From: 2010.05.17/outbox.cif.g08.bks.cpg/sg15_49_cif.got.tgz:97815.got - 2010.06.03 18:47:42.
