data_PCOD9296844
_publ_section_title
;
Structure prediction by ZEFSAII (Michael W. Deem and Ramdas Pophale) SiO2 
 PCOD9296844
Probable space group: C 2/C
;
_chemical_formula_sum "Si O2"
_cell_formula_units_Z 56
_cell_length_a 25.716895
_cell_length_b 12.338952
_cell_length_c 8.149031
_cell_angle_alpha 90.000000
_cell_angle_beta 76.985240
_cell_angle_gamma 90.000000
_cell_volume 2519.421695
_symmetry_space_group_name_H-M "C 2/C"
_symmetry_group_IT_number 15
_symmetry_cell_setting 'monoclinic'
loop_
_space_group_symop_operation_xyz
x,y,z
-x,y,1/2-z
-x,-y,-z
x,-y,1/2+z
1/2+x,1/2+y,z
1/2-x,1/2+y,1/2-z
1/2-x,1/2-y,-z
1/2+x,1/2-y,1/2+z
loop_
_atom_site_type_symbol
_atom_site_label
_atom_site_fract_x
_atom_site_fract_y
_atom_site_fract_z
Si Si1 0.464913 0.203489 0.468384
Si Si2 0.000000 0.509188 0.250000
Si Si3 0.000000 0.164652 0.250000
Si Si4 0.109475 0.591257 0.760946
Si Si5 0.320373 0.050113 0.072828
Si Si6 0.436854 0.476832 0.992112
Si Si7 0.705368 0.171624 0.105095
Si Si8 0.604163 0.666835 0.685662
O O1 0.492669 0.091422 0.406741
O O2 0.495195 0.268394 0.586651
O O3 0.407222 0.179388 0.595010
O O4 0.447566 0.259763 0.312482
O O5 0.946360 0.440629 0.280670
O O6 0.947904 0.091779 0.317815
O O7 0.153932 0.617249 0.594716
O O8 0.131509 0.487263 0.842097
O O9 0.283860 0.119590 0.221431
O O10 0.300598 0.935287 0.009128
O O11 0.406196 0.402637 0.143617
O O12 0.500000 0.500000 0.000000
O O13 0.402751 0.580665 0.959716
O O14 0.654022 0.251794 0.158072
O O15 0.750000 0.250000 0.000000
#
# Coordination Sequence:
#
# PCOD9296844 Si02
#       8
#     8   4   4   8   8   8   8   8
#     4  12  23  35  58  90 132 187 237 266 335 398
#     4  12  23  35  52  92 138 188 236 258 300 414
#     4  12  25  33  58  94 138 182 232 282 328 394
#     4  11  21  39  57  93 138 184 219 274 327 393
#     4  10  23  46  69  99 142 166 220 298 345 409
#     4  12  23  43  62  95 142 188 234 289 335 416
#     4  11  26  50  79 103 133 178 229 297 372 418
#     4  12  24  45  67  95 138 185 234 289 352 406
#
# _framework density 22.227322000000001
#
# number of rings (size 3 to 8) (size 9 to 14) (size 15 to 20)
#    0.000    0.571    5.714    2.571    4.000    1.143 
#    0.000    2.857    0.000    0.000    0.000    0.000 
#    0.000    0.000    0.000    0.000    0.000    0.000 
#
# Total GULP energy -156206.173775 kJ/mol
# GULP energy per Si atom -5578.791921 kJ/mol
# Density = 2.217673 g / cm^3
# Si number density = 22.227322 Si / 1000 Ang^3
#
#
#
# Elastic Constant Matrix: (Units=GPa)
#
#
# Indices 1 2 3 4 5 6 
#
# 1 35.4717 24.7358 26.5424 0.0000 -16.9005 0.0000
# 2 24.7358 119.7538 54.6572 0.0000 -11.7113 0.0000
# 3 26.5424 54.6572 117.4685 0.0000 -13.6828 0.0000
# 4 0.0000 0.0000 0.0000 56.1287 0.0000 -1.9780
# 5 -16.9005 -11.7113 -13.6828 0.0000 27.1670 0.0000
# 6 0.0000 0.0000 0.0000 -1.9780 0.0000 32.0332
#
#
#
# Elastic Compliance Matrix: (Units=1/GPa)
#
#
# Indices 1 2 3 4 5 6 
#
# 1 0.047507 -0.004842 -0.005611 0.000000 0.024640 0.000000
# 2 -0.004842 0.011223 -0.004159 0.000000 -0.000269 0.000000
# 3 -0.005611 -0.004159 0.011792 0.000000 0.000656 0.000000
# 4 0.000000 0.000000 0.000000 0.017855 0.000000 0.001103
# 5 0.024640 -0.000269 0.000656 0.000000 0.052352 0.000000
# 6 0.000000 0.000000 0.000000 0.001103 0.000000 0.031286
#
#
# Mechanical properties :
#
#
# Convention : Reuss Voigt Hill
#
# Bulk Modulus (GPa) = 24.21483 53.84054 39.02768
# Shear Modulus (GPa) = 23.25529 34.18302 28.71915
#
# Velocity S-wave (km/s) = 3.23808 3.92584 3.59843
# Velocity P-wave (km/s) = 4.98980 6.69514 5.90436
#
# Compressibility (1/GPa) = 0.04129700
#
# Stress axis : x y z
#
# Youngs Moduli (GPa) = 21.04966 89.10639 84.80086
#
# Poissons Ratio (x) = 0.43146 0.47584
# Poissons Ratio (y) = 0.10192 0.35269
# Poissons Ratio (z) = 0.11811 0.37060
#
# Static dielectric constant tensor:
#      x y z
#    x 1.814070 0.000000 0.019380 
#    y 0.000000 1.936360 0.000000 
#    z 0.019380 0.000000 1.946150 
# 
# From -- ./inp_files/69059.got.cif
#   From: 2010.05.17/outbox.cif.g08.bks.cpg/sg15_35_cif.got.tgz:69059.got - 2010.06.03 18:47:42.
