data_PCOD9296711
_publ_section_title
;
Structure prediction by ZEFSAII (Michael W. Deem and Ramdas Pophale) SiO2 
 PCOD9296711
Probable space group: C 2/C
;
_chemical_formula_sum "Si O2"
_cell_formula_units_Z 60
_cell_length_a 14.540090
_cell_length_b 19.134503
_cell_length_c 14.090632
_cell_angle_alpha 90.000000
_cell_angle_beta 38.438124
_cell_angle_gamma 90.000000
_cell_volume 2437.103862
_symmetry_space_group_name_H-M "C 2/C"
_symmetry_group_IT_number 15
_symmetry_cell_setting 'monoclinic'
loop_
_space_group_symop_operation_xyz
x,y,z
-x,y,1/2-z
-x,-y,-z
x,-y,1/2+z
1/2+x,1/2+y,z
1/2-x,1/2+y,1/2-z
1/2-x,1/2-y,-z
1/2+x,1/2-y,1/2+z
loop_
_atom_site_type_symbol
_atom_site_label
_atom_site_fract_x
_atom_site_fract_y
_atom_site_fract_z
Si Si1 0.557856 0.496009 0.345163
Si Si2 0.006277 0.312288 0.923779
Si Si3 0.782880 0.884091 0.423052
Si Si4 0.873982 0.445578 0.569244
Si Si5 0.263363 0.022106 0.952400
Si Si6 0.000000 0.768188 0.250000
Si Si7 0.711868 0.831989 0.098121
Si Si8 0.020167 0.747306 0.603933
O O1 0.500000 0.500000 0.500000
O O2 0.619173 0.428080 0.234856
O O3 0.708496 0.537721 0.234275
O O4 0.415069 0.524887 0.404385
O O5 0.065719 0.279896 0.779034
O O6 0.090365 0.372933 0.910914
O O7 0.850611 0.347529 0.023565
O O8 0.002820 0.252691 0.005948
O O9 0.877684 0.821131 0.389125
O O10 0.720627 0.937937 0.553702
O O11 0.852457 0.455347 0.474175
O O12 0.000000 0.500000 0.500000
O O13 0.308301 0.088142 0.850051
O O14 0.639915 0.775284 0.227368
O O15 0.623443 0.811423 0.073482
O O16 0.885448 0.815538 0.944868
#
# Coordination Sequence:
#
# PCOD9296711 Si02
#       8
#     8   8   8   8   8   4   8   8
#     4  11  25  43  75 113 149 198 251 322 389 462
#     4  12  26  45  77 106 149 200 253 318 380 458
#     4  11  24  52  73 103 151 194 262 326 372 448
#     4  11  22  47  75 107 147 194 256 325 381 444
#     4  11  22  45  80 104 149 201 249 321 387 455
#     4  12  28  50  72 106 152 212 260 312 398 470
#     4  10  23  45  73 111 151 201 241 301 401 460
#     4  10  24  45  70 113 158 193 244 313 377 477
#
# _framework density 24.619385999999999
#
# number of rings (size 3 to 8) (size 9 to 14) (size 15 to 20)
#    0.000    1.067    5.333    1.600    3.733    2.133 
#   14.400    1.333    0.000    0.000    0.000    0.000 
#    0.000    0.000    0.000    0.000    0.000    0.000 
#
# Total GULP energy -167061.168423 kJ/mol
# GULP energy per Si atom -5568.705614 kJ/mol
# Density = 2.456335 g / cm^3
# Si number density = 24.619386 Si / 1000 Ang^3
#
#
#
# Elastic Constant Matrix: (Units=GPa)
#
#
# Indices 1 2 3 4 5 6 
#
# 1 102.7585 19.6889 9.3877 -0.0016 -16.0842 0.0015
# 2 19.6889 93.9602 7.3935 -0.0019 -1.9976 0.0015
# 3 9.3877 7.3935 25.8063 -0.0013 -13.5744 0.0013
# 4 -0.0016 -0.0019 -0.0013 21.0750 0.0018 -0.5324
# 5 -16.0842 -1.9976 -13.5744 0.0018 45.2823 -0.0016
# 6 0.0015 0.0015 0.0013 -0.5324 -0.0016 27.6655
#
#
#
# Elastic Compliance Matrix: (Units=1/GPa)
#
#
# Indices 1 2 3 4 5 6 
#
# 1 0.010784 -0.002063 -0.001620 0.000000 0.003254 0.000000
# 2 -0.002063 0.011294 -0.003097 0.000001 -0.001163 0.000000
# 3 -0.001620 -0.003097 0.047313 0.000001 0.013471 -0.000001
# 4 0.000000 0.000001 0.000001 0.047473 -0.000001 0.000914
# 5 0.003254 -0.001163 0.013471 -0.000001 0.027226 0.000001
# 6 0.000000 0.000000 -0.000001 0.000914 0.000001 0.036164
#
#
# Mechanical properties :
#
#
# Convention : Reuss Voigt Hill
#
# Bulk Modulus (GPa) = 17.91147 32.82945 25.37046
# Shear Modulus (GPa) = 23.53773 31.20824 27.37299
#
# Velocity S-wave (km/s) = 3.09538 3.56424 3.33805
# Velocity P-wave (km/s) = 4.47955 5.50474 5.01839
#
# Compressibility (1/GPa) = 0.05583016
#
# Stress axis : x y z
#
# Youngs Moduli (GPa) = 92.72843 88.54193 21.13587
#
# Poissons Ratio (x) = 0.18267 0.03425
# Poissons Ratio (y) = 0.19131 0.06546
# Poissons Ratio (z) = 0.15026 0.27421
#
# Static dielectric constant tensor:
#      x y z
#    x 1.934400 0.000000 0.110610 
#    y 0.000000 2.060130 0.000000 
#    z 0.110610 0.000000 2.232320 
# 
# From -- ./inp_files/156348.got.cif
#   From: 2010.05.17/outbox.cif.g08.bks.cpg/sg15_79_cif.got.tgz:156348.got - 2010.06.03 18:47:42.
