data_PCOD9296975
_publ_section_title
;
Structure prediction by ZEFSAII (Michael W. Deem and Ramdas Pophale) SiO2 
 PCOD9296975
Probable space group: C 2/C
;
_chemical_formula_sum "Si O2"
_cell_formula_units_Z 56
_cell_length_a 22.838959
_cell_length_b 5.409146
_cell_length_c 19.565050
_cell_angle_alpha 90.000000
_cell_angle_beta 104.819454
_cell_angle_gamma 90.000000
_cell_volume 2336.652508
_symmetry_space_group_name_H-M "C 2/C"
_symmetry_group_IT_number 15
_symmetry_cell_setting 'monoclinic'
loop_
_space_group_symop_operation_xyz
x,y,z
-x,y,1/2-z
-x,-y,-z
x,-y,1/2+z
1/2+x,1/2+y,z
1/2-x,1/2+y,1/2-z
1/2-x,1/2-y,-z
1/2+x,1/2-y,1/2+z
loop_
_atom_site_type_symbol
_atom_site_label
_atom_site_fract_x
_atom_site_fract_y
_atom_site_fract_z
Si Si1 0.250821 0.278471 0.635710
Si Si2 0.815446 0.124071 0.754775
Si Si3 0.133503 0.497373 0.815585
Si Si4 0.945624 0.860221 0.777422
Si Si5 0.094830 0.755142 0.431280
Si Si6 0.632566 0.757772 0.520899
Si Si7 0.529992 0.423131 0.080525
O O1 0.216281 0.109661 0.681879
O O2 0.269507 0.522827 0.683467
O O3 0.315301 0.165424 0.633978
O O4 0.202395 0.297025 0.561483
O O5 0.835295 0.401691 0.743895
O O6 0.879144 0.983397 0.765467
O O7 0.071925 0.626495 0.774433
O O8 0.121502 0.277530 0.864152
O O9 0.000000 0.983923 0.750000
O O10 0.963974 0.856090 0.862750
O O11 0.110967 0.510152 0.479002
O O12 0.022194 0.754846 0.403433
O O13 0.119406 0.008894 0.472678
O O14 0.591954 0.709489 0.577330
O O15 0.500000 0.500000 0.000000
#
# Coordination Sequence:
#
# PCOD9296975 Si02
#       7
#     8   8   8   8   8   8   8
#     4  11  24  43  73 103 145 194 257 310 378 454
#     4  11  23  44  69 106 143 193 249 322 374 456
#     4  11  27  44  72 103 153 194 249 319 381 450
#     4  11  25  45  74 112 148 190 249 312 395 451
#     4  11  27  47  74 110 153 199 253 311 384 456
#     4  11  26  47  76 108 148 205 252 308 379 465
#     4  10  23  46  77 106 152 194 254 310 380 458
#
# _framework density 23.965907000000001
#
# number of rings (size 3 to 8) (size 9 to 14) (size 15 to 20)
#    0.000    1.143    2.857    1.286   10.000    5.143 
#    0.000    0.000    0.000    0.000    0.000    0.000 
#    0.000    0.000    0.000    0.000    0.000    0.000 
#
# Total GULP energy -156297.018095 kJ/mol
# GULP energy per Si atom -5582.036361 kJ/mol
# Density = 2.391136 g / cm^3
# Si number density = 23.965907 Si / 1000 Ang^3
#
#
#
# Elastic Constant Matrix: (Units=GPa)
#
#
# Indices 1 2 3 4 5 6 
#
# 1 115.1718 28.9284 49.8633 0.0000 8.1008 0.0000
# 2 28.9284 87.8852 30.6530 0.0000 14.7140 0.0000
# 3 49.8633 30.6530 103.1964 0.0000 15.4841 0.0000
# 4 0.0000 0.0000 0.0000 25.0542 0.0000 -7.2066
# 5 8.1008 14.7140 15.4841 0.0000 45.0778 0.0000
# 6 0.0000 0.0000 0.0000 -7.2066 0.0000 27.6936
#
#
#
# Elastic Compliance Matrix: (Units=1/GPa)
#
#
# Indices 1 2 3 4 5 6 
#
# 1 0.011298 -0.002066 -0.004894 0.000000 0.000325 0.000000
# 2 -0.002066 0.013469 -0.002529 0.000000 -0.003157 0.000000
# 3 -0.004894 -0.002529 0.013232 0.000000 -0.002840 0.000000
# 4 0.000000 0.000000 0.000000 0.043143 0.000000 0.011227
# 5 0.000325 -0.003157 -0.002840 0.000000 0.024131 0.000000
# 6 0.000000 0.000000 0.000000 0.011227 0.000000 0.039031
#
#
# Mechanical properties :
#
#
# Convention : Reuss Voigt Hill
#
# Bulk Modulus (GPa) = 52.57338 58.34920 55.46129
# Shear Modulus (GPa) = 29.47727 32.68571 31.08149
#
# Velocity S-wave (km/s) = 3.51089 3.69703 3.60516
# Velocity P-wave (km/s) = 6.19835 6.52868 6.36566
#
# Compressibility (1/GPa) = 0.01902103
#
# Stress axis : x y z
#
# Youngs Moduli (GPa) = 88.51434 74.24405 75.57291
#
# Poissons Ratio (x) = 0.15341 0.36985
# Poissons Ratio (y) = 0.18289 0.19111
# Poissons Ratio (z) = 0.43318 0.18775
#
# Static dielectric constant tensor:
#      x y z
#    x 1.941590 0.000000 -0.002840 
#    y 0.000000 1.995620 0.000000 
#    z -0.002840 0.000000 1.921950 
# 
# From -- ./inp_files/254373.got.cif
#   From: 2010.05.17/outbox.cif.g08.bks.cpg/sg15_128_cif.got.tgz:254373.got - 2010.06.03 18:47:42.
