data_PCOD9296455
_publ_section_title
;
Structure prediction by ZEFSAII (Michael W. Deem and Ramdas Pophale) SiO2 
 PCOD9296455
Probable space group: C 2/C
;
_chemical_formula_sum "Si O2"
_cell_formula_units_Z 40
_cell_length_a 7.650071
_cell_length_b 11.840526
_cell_length_c 26.578506
_cell_angle_alpha 90.000000
_cell_angle_beta 51.356764
_cell_angle_gamma 90.000000
_cell_volume 1880.379749
_symmetry_space_group_name_H-M "C 2/C"
_symmetry_group_IT_number 15
_symmetry_cell_setting 'monoclinic'
loop_
_space_group_symop_operation_xyz
x,y,z
-x,y,1/2-z
-x,-y,-z
x,-y,1/2+z
1/2+x,1/2+y,z
1/2-x,1/2+y,1/2-z
1/2-x,1/2-y,-z
1/2+x,1/2-y,1/2+z
loop_
_atom_site_type_symbol
_atom_site_label
_atom_site_fract_x
_atom_site_fract_y
_atom_site_fract_z
Si Si1 0.313076 0.975543 0.641866
Si Si2 0.596342 0.208067 0.904739
Si Si3 0.036727 0.632847 0.185256
Si Si4 0.006405 0.048559 0.106158
Si Si5 0.660803 0.128583 0.000108
O O1 0.326978 0.909748 0.691511
O O2 0.090795 0.971912 0.647853
O O3 0.496845 0.918246 0.571935
O O4 0.390332 0.104582 0.635824
O O5 0.847932 0.259559 0.861960
O O6 0.457077 0.318479 0.914395
O O7 0.541791 0.152332 0.967986
O O8 0.238948 0.540448 0.147584
O O9 0.000000 0.658828 0.250000
O O10 0.143672 0.962010 0.046791
O O11 0.750000 0.250000 0.000000
#
# Coordination Sequence:
#
# PCOD9296455 Si02
#       5
#     8   8   8   8   8
#     4  11  22  40  64  91 126 163 202 256 316 365
#     4   9  21  41  58  93 122 158 207 250 302 371
#     4  10  23  45  59  88 127 160 215 258 301 368
#     4   9  22  40  60  94 122 162 207 246 312 369
#     4  11  20  37  66  96 128 163 195 260 316 366
#
# _framework density 21.272300000000001
#
# number of rings (size 3 to 8) (size 9 to 14) (size 15 to 20)
#    1.200    0.800    2.000    2.400    0.000    8.800 
#    7.200    0.000    0.000    0.000    0.000    0.000 
#    0.000    0.000    0.000    0.000    0.000    0.000 
#
# Total GULP energy -111419.168070 kJ/mol
# GULP energy per Si atom -5570.958404 kJ/mol
# Density = 2.122388 g / cm^3
# Si number density = 21.272300 Si / 1000 Ang^3
#
#
#
# Elastic Constant Matrix: (Units=GPa)
#
#
# Indices 1 2 3 4 5 6 
#
# 1 41.0879 10.8499 -6.8566 0.0000 5.9461 0.0000
# 2 10.8499 126.3037 1.7798 0.0000 3.6983 0.0000
# 3 -6.8566 1.7798 46.4865 0.0000 12.4466 0.0000
# 4 0.0000 0.0000 0.0000 8.4893 0.0000 2.4858
# 5 5.9461 3.6983 12.4466 0.0000 25.1556 0.0000
# 6 0.0000 0.0000 0.0000 2.4858 0.0000 37.0229
#
#
#
# Elastic Compliance Matrix: (Units=1/GPa)
#
#
# Indices 1 2 3 4 5 6 
#
# 1 0.027388 -0.002170 0.006652 0.000000 -0.009446 0.000000
# 2 -0.002170 0.008124 -0.000517 0.000000 -0.000426 0.000000
# 3 0.006652 -0.000517 0.026412 0.000000 -0.014565 0.000000
# 4 0.000000 0.000000 0.000000 0.120158 0.000000 -0.008068
# 5 -0.009446 -0.000426 -0.014565 0.000000 0.049254 0.000000
# 6 0.000000 0.000000 0.000000 -0.008068 0.000000 0.027552
#
#
# Mechanical properties :
#
#
# Convention : Reuss Voigt Hill
#
# Bulk Modulus (GPa) = 14.31566 25.04716 19.68141
# Shear Modulus (GPa) = 18.23204 28.00724 23.11964
#
# Velocity S-wave (km/s) = 2.93077 3.63244 3.30031
# Velocity P-wave (km/s) = 4.26578 5.42153 4.87800
#
# Compressibility (1/GPa) = 0.06985357
#
# Stress axis : x y z
#
# Youngs Moduli (GPa) = 36.51221 123.09862 37.86126
#
# Poissons Ratio (x) = 0.26711 -0.25185
# Poissons Ratio (y) = 0.07923 0.01958
# Poissons Ratio (z) = -0.24287 0.06366
#
# Static dielectric constant tensor:
#      x y z
#    x 1.806100 0.000000 0.027490 
#    y 0.000000 1.779470 0.000000 
#    z 0.027490 0.000000 1.826500 
# 
# From -- ./inp_files/287308.got.cif
#   From: 2010.05.17/outbox.cif.g08.bks.cpg/sg15_144_cif.got.tgz:287308.got - 2010.06.03 18:47:42.
