data_PCOD9296414
_publ_section_title
;
Structure prediction by ZEFSAII (Michael W. Deem and Ramdas Pophale) SiO2 
 PCOD9296414
Probable space group: C 2/C
;
_chemical_formula_sum "Si O2"
_cell_formula_units_Z 32
_cell_length_a 13.072089
_cell_length_b 5.396228
_cell_length_c 17.912529
_cell_angle_alpha 90.000000
_cell_angle_beta 96.595220
_cell_angle_gamma 90.000000
_cell_volume 1255.187580
_symmetry_space_group_name_H-M "C 2/C"
_symmetry_group_IT_number 15
_symmetry_cell_setting 'monoclinic'
loop_
_space_group_symop_operation_xyz
x,y,z
-x,y,1/2-z
-x,-y,-z
x,-y,1/2+z
1/2+x,1/2+y,z
1/2-x,1/2+y,1/2-z
1/2-x,1/2-y,-z
1/2+x,1/2-y,1/2+z
loop_
_atom_site_type_symbol
_atom_site_label
_atom_site_fract_x
_atom_site_fract_y
_atom_site_fract_z
Si Si1 0.350878 0.407535 0.026045
Si Si2 0.985802 0.704008 0.561973
Si Si3 0.118528 0.324197 0.213286
Si Si4 0.851467 0.820154 0.191252
O O1 0.367890 0.698840 0.047355
O O2 0.391605 0.306592 0.109719
O O3 0.250000 0.250000 0.000000
O O4 0.424496 0.391381 0.960277
O O5 0.000000 0.500000 0.500000
O O6 0.025582 0.656348 0.647574
O O7 0.121412 0.574142 0.261620
O O8 0.226954 0.327433 0.177770
O O9 0.117402 0.069108 0.260964
#
# Coordination Sequence:
#
# PCOD9296414 Si02
#       4
#     8   8   8   8
#     4  11  25  47  72 104 147 199 252 312 391 457
#     4  11  27  45  71 108 146 193 255 322 376 472
#     4  10  23  45  71 105 146 189 252 306 382 461
#     4  10  23  44  74 102 143 199 241 311 382 461
#
# _framework density 25.494195000000001
#
# number of rings (size 3 to 8) (size 9 to 14) (size 15 to 20)
#    0.000    1.500    2.500    0.000   10.500    4.000 
#    0.000    0.000    0.000    0.000    0.000    0.000 
#    0.000    0.000    0.000    0.000    0.000    0.000 
#
# Total GULP energy -89318.720315 kJ/mol
# GULP energy per Si atom -5582.420020 kJ/mol
# Density = 2.543617 g / cm^3
# Si number density = 25.494195 Si / 1000 Ang^3
#
#
#
# Elastic Constant Matrix: (Units=GPa)
#
#
# Indices 1 2 3 4 5 6 
#
# 1 124.9845 30.1222 28.4309 0.0000 11.3185 0.0000
# 2 30.1222 168.0222 82.8548 0.0000 29.3637 0.0000
# 3 28.4309 82.8548 158.6725 0.0000 10.7599 0.0000
# 4 0.0000 0.0000 0.0000 17.4930 0.0000 -24.8987
# 5 11.3185 29.3637 10.7599 0.0000 53.8492 0.0000
# 6 0.0000 0.0000 0.0000 -24.8987 0.0000 35.1429
#
#
#
# Elastic Compliance Matrix: (Units=1/GPa)
#
#
# Indices 1 2 3 4 5 6 
#
# 1 0.008536 -0.000828 -0.001020 0.000000 -0.001139 0.000000
# 2 -0.000828 0.008841 -0.004210 0.000000 -0.003806 0.000000
# 3 -0.001020 -0.004210 0.008630 0.000000 0.000786 0.000000
# 4 0.000000 0.000000 0.000000 -6.768795 0.000000 -4.795689
# 5 -0.001139 -0.003806 0.000786 0.000000 0.020728 0.000000
# 6 0.000000 0.000000 0.000000 -4.795689 0.000000 -3.369288
#
#
# Mechanical properties :
#
#
# Convention : Reuss Voigt Hill
#
# Bulk Modulus (GPa) = 71.99086 81.61054 76.80070
# Shear Modulus (GPa) = -0.49630 41.98177 20.74274
#
# Velocity S-wave (km/s) = -0.44169 4.06238 2.85551
# Velocity P-wave (km/s) = 5.29522 7.35424 6.40797
#
# Compressibility (1/GPa) = 0.01389065
#
# Stress axis : x y z
#
# Youngs Moduli (GPa) = 117.15493 113.10503 115.87255
#
# Poissons Ratio (x) = 0.09370 0.11814
# Poissons Ratio (y) = 0.09706 0.48785
# Poissons Ratio (z) = 0.11945 0.47620
#
# Static dielectric constant tensor:
#      x y z
#    x 2.137130 0.000000 -0.007430 
#    y 0.000000 2.253200 0.000000 
#    z -0.007430 0.000000 1.988780 
# 
# From -- ./inp_files/201880.got.cif
#   From: 2010.05.17/outbox.cif.g08.bks.cpg/sg15_101_cif.got.tgz:201880.got - 2010.06.03 18:47:42.
