data_PCOD9296069
_publ_section_title
;
Structure prediction by ZEFSAII (Michael W. Deem and Ramdas Pophale) SiO2 
 PCOD9296069
Probable space group: C 2/C
;
_chemical_formula_sum "Si O2"
_cell_formula_units_Z 56
_cell_length_a 7.264078
_cell_length_b 12.351657
_cell_length_c 29.709920
_cell_angle_alpha 90.000000
_cell_angle_beta 112.637556
_cell_angle_gamma 90.000000
_cell_volume 2460.306423
_symmetry_space_group_name_H-M "C 2/C"
_symmetry_group_IT_number 15
_symmetry_cell_setting 'monoclinic'
loop_
_space_group_symop_operation_xyz
x,y,z
-x,y,1/2-z
-x,-y,-z
x,-y,1/2+z
1/2+x,1/2+y,z
1/2-x,1/2+y,1/2-z
1/2-x,1/2-y,-z
1/2+x,1/2-y,1/2+z
loop_
_atom_site_type_symbol
_atom_site_label
_atom_site_fract_x
_atom_site_fract_y
_atom_site_fract_z
Si Si1 0.828686 0.804901 0.792455
Si Si2 0.471496 0.818303 0.441186
Si Si3 0.504619 0.699731 0.597256
Si Si4 0.561332 0.848049 0.687211
Si Si5 0.407912 0.913164 0.339914
Si Si6 0.789423 0.349739 0.952821
Si Si7 0.069840 0.005751 0.363540
O O1 0.758835 0.835122 0.735957
O O2 0.625306 0.803260 0.802563
O O3 0.920373 0.685981 0.806672
O O4 0.958557 0.896074 0.829185
O O5 0.236631 0.803065 0.427246
O O6 0.504082 0.873608 0.395766
O O7 0.579826 0.701826 0.448747
O O8 0.581168 0.880579 0.491781
O O9 0.574187 0.780997 0.642878
O O10 0.593665 0.751552 0.560822
O O11 0.558175 0.578372 0.618727
O O12 0.521157 0.973586 0.673048
O O13 0.181064 0.938503 0.334996
O O14 0.736179 0.443177 0.912561
#
# Coordination Sequence:
#
# PCOD9296069 Si02
#       7
#     8   8   8   8   8   8   8
#     4  11  25  43  64  96 134 168 227 275 334 405
#     4  10  23  44  66  97 143 171 224 287 327 398
#     4  11  23  43  66  99 133 177 228 275 336 406
#     4  11  24  42  66  94 130 178 214 279 340 391
#     4  11  23  44  66  93 134 173 211 288 322 392
#     4  11  22  44  67  99 134 181 225 273 343 401
#     4  11  23  42  67  96 129 174 228 277 330 405
#
# _framework density 22.761391
#
# number of rings (size 3 to 8) (size 9 to 14) (size 15 to 20)
#    0.000    1.143    5.714    0.429    4.000    2.857 
#    2.571    1.429    0.000    0.000    0.000    0.000 
#    0.000    0.000    0.000    0.000    0.000    0.000 
#
# Total GULP energy -156630.978877 kJ/mol
# GULP energy per Si atom -5593.963531 kJ/mol
# Density = 2.270958 g / cm^3
# Si number density = 22.761391 Si / 1000 Ang^3
#
#
#
# Elastic Constant Matrix: (Units=GPa)
#
#
# Indices 1 2 3 4 5 6 
#
# 1 47.7643 12.2260 13.7029 0.0000 7.9633 0.0000
# 2 12.2260 147.1974 53.1252 0.0000 15.6592 0.0000
# 3 13.7029 53.1252 150.8478 0.0000 27.2225 0.0000
# 4 0.0000 0.0000 0.0000 11.5889 0.0000 -7.6931
# 5 7.9633 15.6592 27.2225 0.0000 27.3874 0.0000
# 6 0.0000 0.0000 0.0000 -7.6931 0.0000 32.3618
#
#
#
# Elastic Compliance Matrix: (Units=1/GPa)
#
#
# Indices 1 2 3 4 5 6 
#
# 1 0.022271 -0.001039 -0.000726 0.000000 -0.005160 0.000000
# 2 -0.001039 0.007932 -0.002358 0.000000 -0.001889 0.000000
# 3 -0.000726 -0.002358 0.008828 0.000000 -0.007215 0.000000
# 4 0.000000 0.000000 0.000000 0.102458 0.000000 0.024356
# 5 -0.005160 -0.001889 -0.007215 0.000000 0.046265 0.000000
# 6 0.000000 0.000000 0.000000 0.024356 0.000000 0.036691
#
#
# Mechanical properties :
#
#
# Convention : Reuss Voigt Hill
#
# Bulk Modulus (GPa) = 32.48411 55.99086 44.23748
# Shear Modulus (GPa) = 20.58018 32.05130 26.31574
#
# Velocity S-wave (km/s) = 3.01021 3.75659 3.40392
# Velocity P-wave (km/s) = 5.13657 6.59306 5.90986
#
# Compressibility (1/GPa) = 0.03078428
#
# Stress axis : x y z
#
# Youngs Moduli (GPa) = 44.90224 126.07249 113.27966
#
# Poissons Ratio (x) = 0.13097 0.08224
# Poissons Ratio (y) = 0.04665 0.26713
# Poissons Ratio (z) = 0.03260 0.29730
#
# Static dielectric constant tensor:
#      x y z
#    x 1.889290 0.000000 0.007180 
#    y 0.000000 1.837860 0.000000 
#    z 0.007180 0.000000 1.843480 
# 
# From -- ./inp_files/307570.got.cif
#   From: 2010.05.17/outbox.cif.g08.bks.cpg/sg15_154_cif.got.tgz:307570.got - 2010.06.03 18:47:42.
