data_PCOD9296425
_publ_section_title
;
Structure prediction by ZEFSAII (Michael W. Deem and Ramdas Pophale) SiO2 
 PCOD9296425
Probable space group: C 2/C
;
_chemical_formula_sum "Si O2"
_cell_formula_units_Z 36
_cell_length_a 12.026250
_cell_length_b 13.338458
_cell_length_c 11.739794
_cell_angle_alpha 90.000000
_cell_angle_beta 41.333901
_cell_angle_gamma 90.000000
_cell_volume 1243.751695
_symmetry_space_group_name_H-M "C 2/C"
_symmetry_group_IT_number 15
_symmetry_cell_setting 'monoclinic'
loop_
_space_group_symop_operation_xyz
x,y,z
-x,y,1/2-z
-x,-y,-z
x,-y,1/2+z
1/2+x,1/2+y,z
1/2-x,1/2+y,1/2-z
1/2-x,1/2-y,-z
1/2+x,1/2-y,1/2+z
loop_
_atom_site_type_symbol
_atom_site_label
_atom_site_fract_x
_atom_site_fract_y
_atom_site_fract_z
Si Si1 0.224866 0.433394 0.769153
Si Si2 0.775704 0.762982 0.345770
Si Si3 0.369070 0.414966 0.013219
Si Si4 0.532726 0.809052 0.089823
Si Si5 0.500000 0.570659 0.750000
O O1 0.155572 0.344757 0.743707
O O2 0.428335 0.422984 0.617801
O O3 0.223762 0.540128 0.707317
O O4 0.864967 0.598126 0.044894
O O5 0.750000 0.750000 0.500000
O O6 0.619231 0.784234 0.382735
O O7 0.906492 0.854624 0.235554
O O8 0.359261 0.296362 0.999312
O O9 0.369644 0.497976 0.911969
O O10 0.500000 0.822681 0.250000
#
# Coordination Sequence:
#
# PCOD9296425 Si02
#       5
#     8   8   8   8   4
#     4  10  23  44  74 120 167 215 281 335 423 506
#     4  11  23  41  76 118 167 218 278 349 414 491
#     4  10  23  45  79 121 155 231 278 337 418 513
#     4  11  25  49  82 125 174 220 276 356 430 499
#     4  12  22  46  76 120 160 220 290 334 414 514
#
# _framework density 28.944686000000001
#
# number of rings (size 3 to 8) (size 9 to 14) (size 15 to 20)
#    0.000    1.333    3.333    1.333    6.222    3.556 
#    0.000    1.111    0.000    0.000    8.667    3.111 
#    0.000    0.000    0.000    0.000    0.000    0.000 
#
# Total GULP energy -100649.067265 kJ/mol
# GULP energy per Si atom -5591.614848 kJ/mol
# Density = 2.887881 g / cm^3
# Si number density = 28.944686 Si / 1000 Ang^3
#
#
#
# Elastic Constant Matrix: (Units=GPa)
#
#
# Indices 1 2 3 4 5 6 
#
# 1 192.2533 103.1408 66.8375 0.0000 9.5339 0.0000
# 2 103.1408 144.8687 92.8626 0.0000 27.6407 0.0000
# 3 66.8375 92.8626 248.1659 0.0000 48.7760 0.0000
# 4 0.0000 0.0000 0.0000 72.0342 0.0000 19.4768
# 5 9.5339 27.6407 48.7760 0.0000 46.1816 0.0000
# 6 0.0000 0.0000 0.0000 19.4768 0.0000 51.9756
#
#
#
# Elastic Compliance Matrix: (Units=1/GPa)
#
#
# Indices 1 2 3 4 5 6 
#
# 1 0.008630 -0.006334 -0.000441 0.000000 0.002475 0.000000
# 2 -0.006334 0.013933 -0.002683 0.000000 -0.004198 0.000000
# 3 -0.000441 -0.002683 0.006081 0.000000 -0.004726 0.000000
# 4 0.000000 0.000000 0.000000 0.015447 0.000000 -0.005789
# 5 0.002475 -0.004198 -0.004726 0.000000 0.028647 0.000000
# 6 0.000000 0.000000 0.000000 -0.005789 0.000000 0.021409
#
#
# Mechanical properties :
#
#
# Convention : Reuss Voigt Hill
#
# Bulk Modulus (GPa) = 102.77886 123.44107 113.10996
# Shear Modulus (GPa) = 42.99055 55.53475 49.26265
#
# Velocity S-wave (km/s) = 3.85810 4.38499 4.12996
# Velocity P-wave (km/s) = 7.44529 8.26906 7.86796
#
# Compressibility (1/GPa) = 0.00972963
#
# Stress axis : x y z
#
# Youngs Moduli (GPa) = 115.87502 71.77226 164.44962
#
# Poissons Ratio (x) = 0.45461 0.07244
# Poissons Ratio (y) = 0.73395 0.44115
# Poissons Ratio (z) = 0.05104 0.19254
#
# Static dielectric constant tensor:
#      x y z
#    x 2.400920 0.000000 0.028040 
#    y 0.000000 2.273940 0.000000 
#    z 0.028040 0.000000 2.309690 
# 
# From -- ./inp_files/141610.got.cif
#   From: 2010.05.17/outbox.cif.g08.bks.cpg/sg15_71_cif.got.tgz:141610.got - 2010.06.03 18:47:42.
