data_PCOD9296412
_publ_section_title
;
Structure prediction by ZEFSAII (Michael W. Deem and Ramdas Pophale) SiO2 
 PCOD9296412
Probable space group: C 2/C
;
_chemical_formula_sum "Si O2"
_cell_formula_units_Z 36
_cell_length_a 7.677594
_cell_length_b 15.746862
_cell_length_c 18.081483
_cell_angle_alpha 90.000000
_cell_angle_beta 54.529232
_cell_angle_gamma 90.000000
_cell_volume 1780.316459
_symmetry_space_group_name_H-M "C 2/C"
_symmetry_group_IT_number 15
_symmetry_cell_setting 'monoclinic'
loop_
_space_group_symop_operation_xyz
x,y,z
-x,y,1/2-z
-x,-y,-z
x,-y,1/2+z
1/2+x,1/2+y,z
1/2-x,1/2+y,1/2-z
1/2-x,1/2-y,-z
1/2+x,1/2-y,1/2+z
loop_
_atom_site_type_symbol
_atom_site_label
_atom_site_fract_x
_atom_site_fract_y
_atom_site_fract_z
Si Si1 0.710278 0.587724 0.249193
Si Si2 0.270084 0.928545 0.342742
Si Si3 0.500000 0.230283 0.250000
Si Si4 0.388713 0.680293 0.923871
Si Si5 0.602448 0.029566 0.050215
O O1 0.500000 0.600187 0.250000
O O2 0.681101 0.507238 0.312994
O O3 0.807408 0.668663 0.269157
O O4 0.909735 0.567551 0.146284
O O5 0.500000 0.911756 0.250000
O O6 0.135230 0.842302 0.377653
O O7 0.294026 0.961517 0.420355
O O8 0.603953 0.290401 0.162529
O O9 0.250000 0.750000 0.000000
O O10 0.277686 0.595226 0.979419
O O11 0.500000 0.000000 0.000000
#
# Coordination Sequence:
#
# PCOD9296412 Si02
#       5
#     8   8   4   8   8
#     4  11  22  46  72  99 139 193 234 286 352 422
#     4  10  23  44  74 101 139 187 241 285 346 433
#     4  12  26  46  66 104 152 176 234 296 362 406
#     4  12  25  44  69 101 145 183 223 301 358 400
#     4  11  23  43  70 104 134 185 246 283 345 427
#
# _framework density 20.221122999999999
#
# number of rings (size 3 to 8) (size 9 to 14) (size 15 to 20)
#    0.000    0.889    5.556    2.000    7.778    2.667 
#    0.000    2.222    0.000    0.000    0.000    0.000 
#    0.000    0.000    0.000    0.000    0.000    0.000 
#
# Total GULP energy -100358.854496 kJ/mol
# GULP energy per Si atom -5575.491916 kJ/mol
# Density = 2.017510 g / cm^3
# Si number density = 20.221123 Si / 1000 Ang^3
#
#
#
# Elastic Constant Matrix: (Units=GPa)
#
#
# Indices 1 2 3 4 5 6 
#
# 1 117.8353 30.9934 26.2122 0.0000 9.2983 0.0000
# 2 30.9934 45.4365 45.4556 0.0000 0.4608 0.0000
# 3 26.2122 45.4556 137.5778 0.0000 22.1263 0.0000
# 4 0.0000 0.0000 0.0000 30.1814 0.0000 -0.5309
# 5 9.2983 0.4608 22.1263 0.0000 35.7588 0.0000
# 6 0.0000 0.0000 0.0000 -0.5309 0.0000 34.9330
#
#
#
# Elastic Compliance Matrix: (Units=1/GPa)
#
#
# Indices 1 2 3 4 5 6 
#
# 1 0.010740 -0.008683 0.001392 0.000000 -0.003542 0.000000
# 2 -0.008683 0.041549 -0.013715 0.000000 0.010209 0.000000
# 3 0.001392 -0.013715 0.012843 0.000000 -0.008132 0.000000
# 4 0.000000 0.000000 0.000000 0.033142 0.000000 0.000504
# 5 -0.003542 0.010209 -0.008132 0.000000 0.033786 0.000000
# 6 0.000000 0.000000 0.000000 0.000504 0.000000 0.028634
#
#
# Mechanical properties :
#
#
# Convention : Reuss Voigt Hill
#
# Bulk Modulus (GPa) = 43.25290 56.24135 49.74713
# Shear Modulus (GPa) = 23.76277 33.38721 28.57499
#
# Velocity S-wave (km/s) = 3.43176 4.06779 3.76323
# Velocity P-wave (km/s) = 6.09418 7.06655 6.59830
#
# Compressibility (1/GPa) = 0.02311984
#
# Stress axis : x y z
#
# Youngs Moduli (GPa) = 93.10922 24.06776 77.86500
#
# Poissons Ratio (x) = 0.20898 -0.10841
# Poissons Ratio (y) = 0.80847 1.06795
# Poissons Ratio (z) = -0.12964 0.33010
#
# Static dielectric constant tensor:
#      x y z
#    x 1.620290 0.000000 -0.001650 
#    y 0.000000 1.801910 0.000000 
#    z -0.001650 0.000000 1.691030 
# 
# From -- ./inp_files/132613.got.cif
#   From: 2010.05.17/outbox.cif.g08.bks.cpg/sg15_67_cif.got.tgz:132613.got - 2010.06.03 18:47:42.
