data_PCOD9296716
_publ_section_title
;
Structure prediction by ZEFSAII (Michael W. Deem and Ramdas Pophale) SiO2 
 PCOD9296716
Probable space group: C 2/C
;
_chemical_formula_sum "Si O2"
_cell_formula_units_Z 36
_cell_length_a 18.211255
_cell_length_b 7.606299
_cell_length_c 33.962754
_cell_angle_alpha 90.000000
_cell_angle_beta 160.195480
_cell_angle_gamma 90.000000
_cell_volume 1593.951625
_symmetry_space_group_name_H-M "C 2/C"
_symmetry_group_IT_number 15
_symmetry_cell_setting 'monoclinic'
loop_
_space_group_symop_operation_xyz
x,y,z
-x,y,1/2-z
-x,-y,-z
x,-y,1/2+z
1/2+x,1/2+y,z
1/2-x,1/2+y,1/2-z
1/2-x,1/2-y,-z
1/2+x,1/2-y,1/2+z
loop_
_atom_site_type_symbol
_atom_site_label
_atom_site_fract_x
_atom_site_fract_y
_atom_site_fract_z
Si Si1 0.500000 0.726211 0.750000
Si Si2 0.634656 0.005056 0.528070
Si Si3 0.167923 0.736301 0.178440
Si Si4 0.644250 0.779036 0.404601
Si Si5 0.343607 0.911886 0.743642
O O1 0.352942 0.609626 0.647516
O O2 0.343690 0.835061 0.700202
O O3 0.503447 0.108042 0.428073
O O4 0.500000 0.000000 0.500000
O O5 0.698588 0.809570 0.547222
O O6 0.410074 0.682177 0.286815
O O7 0.161861 0.721933 0.222646
O O8 0.162312 0.938862 0.161191
O O9 0.750000 0.750000 0.500000
O O10 0.570296 0.978807 0.360803
#
# Coordination Sequence:
#
# PCOD9296716 Si02
#       5
#     4   8   8   8   8
#     4  12  30  44  70 104 146 182 230 288 356 402
#     4  12  26  44  71 102 143 184 230 291 350 409
#     4  10  24  45  71 100 137 183 235 280 346 414
#     4  10  23  45  74 100 137 180 235 285 343 409
#     4  10  26  45  71 104 138 180 232 286 345 421
#
# _framework density 22.585379
#
# number of rings (size 3 to 8) (size 9 to 14) (size 15 to 20)
#    1.333    0.000    2.222    1.333   12.444    3.556 
#    0.000    0.000    0.000    0.000    0.000    0.000 
#    0.000    0.000    0.000    0.000    0.000    0.000 
#
# Total GULP energy -100555.347118 kJ/mol
# GULP energy per Si atom -5586.408173 kJ/mol
# Density = 2.253397 g / cm^3
# Si number density = 22.585379 Si / 1000 Ang^3
#
#
#
# Elastic Constant Matrix: (Units=GPa)
#
#
# Indices 1 2 3 4 5 6 
#
# 1 134.4867 28.5671 -21.7717 -0.0013 0.1145 0.0002
# 2 28.5671 57.5265 -10.5261 -0.0019 4.5845 -0.0005
# 3 -21.7717 -10.5261 71.3953 -0.0047 3.7376 0.0024
# 4 -0.0013 -0.0019 -0.0047 13.3739 0.0027 -3.5171
# 5 0.1145 4.5845 3.7376 0.0027 24.1248 -0.0019
# 6 0.0002 -0.0005 0.0024 -3.5171 -0.0019 51.0933
#
#
#
# Elastic Compliance Matrix: (Units=1/GPa)
#
#
# Indices 1 2 3 4 5 6 
#
# 1 0.008598 -0.003931 0.002022 0.000001 0.000393 0.000000
# 2 -0.003931 0.020021 0.001967 0.000004 -0.004091 0.000000
# 3 0.002022 0.001967 0.015055 0.000006 -0.002716 0.000000
# 4 0.000001 0.000004 0.000006 0.076151 -0.000010 0.005242
# 5 0.000393 -0.004091 -0.002716 -0.000010 0.042647 0.000001
# 6 0.000000 0.000000 0.000000 0.005242 0.000001 0.019933
#
#
# Mechanical properties :
#
#
# Convention : Reuss Voigt Hill
#
# Bulk Modulus (GPa) = 22.83610 28.43858 25.63734
# Shear Modulus (GPa) = 25.39542 35.52771 30.46156
#
# Velocity S-wave (km/s) = 3.35687 3.97046 3.67649
# Velocity P-wave (km/s) = 5.01575 5.79986 5.42200
#
# Compressibility (1/GPa) = 0.04379032
#
# Stress axis : x y z
#
# Youngs Moduli (GPa) = 116.31138 49.94678 66.42203
#
# Poissons Ratio (x) = 0.19634 -0.13428
# Poissons Ratio (y) = 0.45721 -0.13067
# Poissons Ratio (z) = -0.23514 -0.09826
#
# Static dielectric constant tensor:
#      x y z
#    x 1.801990 0.000000 0.046860 
#    y 0.000000 1.881250 0.000000 
#    z 0.046860 0.000000 1.866270 
# 
# From -- ./inp_files/295502.got.cif
#   From: 2010.05.17/outbox.cif.g08.bks.cpg/sg15_148_cif.got.tgz:295502.got - 2010.06.03 18:47:42.
