data_PCOD9296409
_publ_section_title
;
Structure prediction by ZEFSAII (Michael W. Deem and Ramdas Pophale) SiO2 
 PCOD9296409
Probable space group: C 2/C
;
_chemical_formula_sum "Si O2"
_cell_formula_units_Z 32
_cell_length_a 21.337277
_cell_length_b 7.097350
_cell_length_c 13.732407
_cell_angle_alpha 90.000000
_cell_angle_beta 140.977260
_cell_angle_gamma 90.000000
_cell_volume 1309.382272
_symmetry_space_group_name_H-M "C 2/C"
_symmetry_group_IT_number 15
_symmetry_cell_setting 'monoclinic'
loop_
_space_group_symop_operation_xyz
x,y,z
-x,y,1/2-z
-x,-y,-z
x,-y,1/2+z
1/2+x,1/2+y,z
1/2-x,1/2+y,1/2-z
1/2-x,1/2-y,-z
1/2+x,1/2-y,1/2+z
loop_
_atom_site_type_symbol
_atom_site_label
_atom_site_fract_x
_atom_site_fract_y
_atom_site_fract_z
Si Si1 0.885413 0.226144 0.389129
Si Si2 0.586241 0.649620 0.281757
Si Si3 0.253716 0.523853 0.389129
Si Si4 0.945517 0.399622 0.781759
O O1 0.913196 0.092732 0.330923
O O2 0.805123 0.374997 0.249999
O O3 0.981395 0.336230 0.544507
O O4 0.831906 0.124999 0.413812
O O5 0.500000 0.582025 0.250000
O O6 0.686888 0.586228 0.455491
O O7 0.567925 0.874999 0.249999
O O8 0.167726 0.657266 0.330921
O O9 0.000000 0.332026 0.750000
#
# Coordination Sequence:
#
# PCOD9296409 Si02
#       4
#     8   8   8   8
#     4  11  25  43  73 105 140 185 233 286 350 413
#     4  10  23  44  73  99 142 184 232 285 351 407
#     4  11  25  43  73 105 140 185 233 286 350 413
#     4  10  23  44  73  99 142 184 232 285 351 407
#
# _framework density 24.439004000000001
#
# number of rings (size 3 to 8) (size 9 to 14) (size 15 to 20)
#    0.000    1.500    0.000    6.000   14.000    3.000 
#    0.000    0.000    0.000    0.000    0.000    0.000 
#    0.000    0.000    0.000    0.000    0.000    0.000 
#
# Total GULP energy -89476.732365 kJ/mol
# GULP energy per Si atom -5592.295773 kJ/mol
# Density = 2.438338 g / cm^3
# Si number density = 24.439004 Si / 1000 Ang^3
#
#
#
# Elastic Constant Matrix: (Units=GPa)
#
#
# Indices 1 2 3 4 5 6 
#
# 1 243.1711 41.3579 89.4037 0.0000 6.3082 0.0000
# 2 41.3579 104.0502 70.2019 0.0000 -1.6660 0.0000
# 3 89.4037 70.2019 262.0130 0.0000 -7.4017 0.0000
# 4 0.0000 0.0000 0.0000 32.4898 0.0000 -0.8061
# 5 6.3082 -1.6660 -7.4017 0.0000 22.9716 0.0000
# 6 0.0000 0.0000 0.0000 -0.8061 0.0000 18.5067
#
#
#
# Elastic Compliance Matrix: (Units=1/GPa)
#
#
# Indices 1 2 3 4 5 6 
#
# 1 0.004861 -0.000985 -0.001447 0.000000 -0.001873 0.000000
# 2 -0.000985 0.011932 -0.002855 0.000000 0.000216 0.000000
# 3 -0.001447 -0.002855 0.005127 0.000000 0.001843 0.000000
# 4 0.000000 0.000000 0.000000 0.030812 0.000000 0.001342
# 5 -0.001873 0.000216 0.001843 0.000000 0.044656 0.000000
# 6 0.000000 0.000000 0.000000 0.001342 0.000000 0.054093
#
#
# Mechanical properties :
#
#
# Convention : Reuss Voigt Hill
#
# Bulk Modulus (GPa) = 88.14432 112.35127 100.24780
# Shear Modulus (GPa) = 30.15006 42.01168 36.08087
#
# Velocity S-wave (km/s) = 3.51620 4.15063 3.84652
# Velocity P-wave (km/s) = 7.25467 8.30917 7.79976
#
# Compressibility (1/GPa) = 0.01134503
#
# Stress axis : x y z
#
# Youngs Moduli (GPa) = 205.73326 83.80917 195.03150
#
# Poissons Ratio (x) = 0.08259 0.28229
# Poissons Ratio (y) = 0.20274 0.55673
# Poissons Ratio (z) = 0.29778 0.23924
#
# Static dielectric constant tensor:
#      x y z
#    x 2.012080 0.000000 0.007180 
#    y 0.000000 2.064930 0.000000 
#    z 0.007180 0.000000 1.887570 
# 
# From -- ./inp_files/137062.got.cif
#   From: 2010.05.17/outbox.cif.g08.bks.cpg/sg15_69_cif.got.tgz:137062.got - 2010.06.03 18:47:42.
