data_PCOD9296424
_publ_section_title
;
Structure prediction by ZEFSAII (Michael W. Deem and Ramdas Pophale) SiO2 
 PCOD9296424
Probable space group: C 2/C
;
_chemical_formula_sum "Si O2"
_cell_formula_units_Z 32
_cell_length_a 7.301143
_cell_length_b 21.249157
_cell_length_c 8.652407
_cell_angle_alpha 90.000000
_cell_angle_beta 114.765174
_cell_angle_gamma 90.000000
_cell_volume 1218.907588
_symmetry_space_group_name_H-M "C 2/C"
_symmetry_group_IT_number 15
_symmetry_cell_setting 'monoclinic'
loop_
_space_group_symop_operation_xyz
x,y,z
-x,y,1/2-z
-x,-y,-z
x,-y,1/2+z
1/2+x,1/2+y,z
1/2-x,1/2+y,1/2-z
1/2-x,1/2-y,-z
1/2+x,1/2-y,1/2+z
loop_
_atom_site_type_symbol
_atom_site_label
_atom_site_fract_x
_atom_site_fract_y
_atom_site_fract_z
Si Si1 0.697768 0.910639 0.035030
Si Si2 0.455483 0.693072 0.480464
Si Si3 0.839228 0.322964 0.917753
Si Si4 0.348570 0.479498 0.812391
O O1 0.758093 0.962476 0.184269
O O2 0.860411 0.853970 0.072527
O O3 0.476511 0.883976 0.985001
O O4 0.699962 0.940956 0.865524
O O5 0.300927 0.687085 0.281662
O O6 0.682632 0.676299 0.504828
O O7 0.496615 0.766148 0.532172
O O8 0.500000 0.442784 0.750000
O O9 0.500000 0.500000 0.000000
#
# Coordination Sequence:
#
# PCOD9296424 Si02
#       4
#     8   8   8   8
#     4  11  22  44  77 107 153 201 249 313 378 441
#     4  10  23  44  74 113 156 190 254 312 381 452
#     4  10  23  44  74 116 150 198 249 314 382 456
#     4   9  22  43  72 108 148 198 255 306 362 445
#
# _framework density 26.253017
#
# number of rings (size 3 to 8) (size 9 to 14) (size 15 to 20)
#    0.000    2.000    0.000    1.500    3.500    6.000 
#    0.000    7.500    0.000    3.000    0.000    0.000 
#    0.000    0.000    0.000    0.000    0.000    0.000 
#
# Total GULP energy -89531.179594 kJ/mol
# GULP energy per Si atom -5595.698725 kJ/mol
# Density = 2.619326 g / cm^3
# Si number density = 26.253017 Si / 1000 Ang^3
#
#
#
# Elastic Constant Matrix: (Units=GPa)
#
#
# Indices 1 2 3 4 5 6 
#
# 1 132.7651 61.4440 49.4439 0.0000 9.7371 0.0000
# 2 61.4440 133.8512 52.0513 0.0000 16.9778 0.0000
# 3 49.4439 52.0513 117.6643 0.0000 15.2275 0.0000
# 4 0.0000 0.0000 0.0000 32.6452 0.0000 7.2319
# 5 9.7371 16.9778 15.2275 0.0000 39.4469 0.0000
# 6 0.0000 0.0000 0.0000 7.2319 0.0000 61.0916
#
#
#
# Elastic Compliance Matrix: (Units=1/GPa)
#
#
# Indices 1 2 3 4 5 6 
#
# 1 0.010219 -0.003657 -0.002688 0.000000 0.000089 0.000000
# 2 -0.003657 0.010566 -0.002806 0.000000 -0.002562 0.000000
# 3 -0.002688 -0.002806 0.011186 0.000000 -0.002447 0.000000
# 4 0.000000 0.000000 0.000000 0.031457 0.000000 -0.003724
# 5 0.000089 -0.002562 -0.002447 0.000000 0.027376 0.000000
# 6 0.000000 0.000000 0.000000 -0.003724 0.000000 0.016810
#
#
# Mechanical properties :
#
#
# Convention : Reuss Voigt Hill
#
# Bulk Modulus (GPa) = 73.15559 78.90657 76.03108
# Shear Modulus (GPa) = 38.32252 41.39285 39.85768
#
# Velocity S-wave (km/s) = 3.82480 3.97506 3.90065
# Velocity P-wave (km/s) = 6.88705 7.15469 7.02215
#
# Compressibility (1/GPa) = 0.01366950
#
# Stress axis : x y z
#
# Youngs Moduli (GPa) = 97.85599 94.64543 89.39663
#
# Poissons Ratio (x) = 0.34613 0.24029
# Poissons Ratio (y) = 0.35787 0.25082
# Poissons Ratio (z) = 0.26303 0.26555
#
# Static dielectric constant tensor:
#      x y z
#    x 2.131340 0.000000 -0.008590 
#    y 0.000000 2.200500 0.000000 
#    z -0.008590 0.000000 2.024010 
# 
# From -- ./inp_files/23248.got.cif
#   From: 2010.05.17/outbox.cif.g08.bks.cpg/sg15_12_cif.got.tgz:23248.got - 2010.06.03 18:47:42.
