data_PCOD9296148
_publ_section_title
;
Structure prediction by ZEFSAII (Michael W. Deem and Ramdas Pophale) SiO2 
 PCOD9296148
Probable space group: C 2/C
;
_chemical_formula_sum "Si O2"
_cell_formula_units_Z 28
_cell_length_a 7.139586
_cell_length_b 17.252510
_cell_length_c 9.379507
_cell_angle_alpha 90.000000
_cell_angle_beta 111.094685
_cell_angle_gamma 90.000000
_cell_volume 1077.905994
_symmetry_space_group_name_H-M "C 2/C"
_symmetry_group_IT_number 15
_symmetry_cell_setting 'monoclinic'
loop_
_space_group_symop_operation_xyz
x,y,z
-x,y,1/2-z
-x,-y,-z
x,-y,1/2+z
1/2+x,1/2+y,z
1/2-x,1/2+y,1/2-z
1/2-x,1/2-y,-z
1/2+x,1/2-y,1/2+z
loop_
_atom_site_type_symbol
_atom_site_label
_atom_site_fract_x
_atom_site_fract_y
_atom_site_fract_z
Si Si1 0.908778 0.433203 0.568731
Si Si2 0.000000 0.812694 0.750000
Si Si3 0.027230 0.114055 0.546429
Si Si4 0.767490 0.680759 0.836907
O O1 0.663995 0.443558 0.509428
O O2 0.938101 0.355219 0.484363
O O3 0.000000 0.427670 0.750000
O O4 0.000000 0.500000 0.500000
O O5 0.078994 0.864293 0.901155
O O6 0.834237 0.755748 0.771448
O O7 0.912538 0.186259 0.597149
O O8 0.210062 0.111612 0.707129
#
# Coordination Sequence:
#
# PCOD9296148 Si02
#       4
#     8   4   8   8
#     4  10  23  44  68  91 133 184 238 278 331 398
#     4  12  20  38  76 104 144 174 218 280 354 408
#     4   9  22  43  64 103 140 177 224 280 338 410
#     4   9  22  42  65 101 140 176 225 275 342 407
#
# _framework density 25.976289999999999
#
# number of rings (size 3 to 8) (size 9 to 14) (size 15 to 20)
#    1.714    0.571    0.000    1.714    2.000    4.571 
#    0.000    5.714    0.000    0.000    0.000    0.000 
#    0.000    0.000    0.000    0.000    0.000    0.000 
#
# Total GULP energy -78105.510891 kJ/mol
# GULP energy per Si atom -5578.965064 kJ/mol
# Density = 2.591717 g / cm^3
# Si number density = 25.976290 Si / 1000 Ang^3
#
#
#
# Elastic Constant Matrix: (Units=GPa)
#
#
# Indices 1 2 3 4 5 6 
#
# 1 81.2394 14.4588 49.1288 0.0000 4.8279 0.0000
# 2 14.4588 51.3825 50.0023 0.0000 8.0400 0.0000
# 3 49.1288 50.0023 278.0309 0.0000 4.2928 0.0000
# 4 0.0000 0.0000 0.0000 37.8973 0.0000 -12.1792
# 5 4.8279 8.0400 4.2928 0.0000 41.0889 0.0000
# 6 0.0000 0.0000 0.0000 -12.1792 0.0000 36.8430
#
#
#
# Elastic Compliance Matrix: (Units=1/GPa)
#
#
# Indices 1 2 3 4 5 6 
#
# 1 0.013972 -0.001666 -0.002152 0.000000 -0.001091 0.000000
# 2 -0.001666 0.024528 -0.004052 0.000000 -0.004180 0.000000
# 3 -0.002152 -0.004052 0.004697 0.000000 0.000555 0.000000
# 4 0.000000 0.000000 0.000000 0.029524 0.000000 0.009760
# 5 -0.001091 -0.004180 0.000555 0.000000 0.025226 0.000000
# 6 0.000000 0.000000 0.000000 0.009760 0.000000 0.030368
#
#
# Mechanical properties :
#
#
# Convention : Reuss Voigt Hill
#
# Bulk Modulus (GPa) = 36.42236 70.87028 53.64632
# Shear Modulus (GPa) = 32.63499 42.97004 37.80251
#
# Velocity S-wave (km/s) = 3.54833 4.07160 3.81894
# Velocity P-wave (km/s) = 5.55332 7.03177 6.33582
#
# Compressibility (1/GPa) = 0.02745566
#
# Stress axis : x y z
#
# Youngs Moduli (GPa) = 71.56981 40.76917 212.88982
#
# Poissons Ratio (x) = 0.06794 0.45823
# Poissons Ratio (y) = 0.11927 0.86269
# Poissons Ratio (z) = 0.15405 0.16521
#
# Static dielectric constant tensor:
#      x y z
#    x 2.261200 0.000000 0.206550 
#    y 0.000000 2.153400 0.000000 
#    z 0.206550 0.000000 2.185690 
# 
# From -- ./inp_files/22705.got.cif
#   From: 2010.05.17/outbox.cif.g08.bks.cpg/sg15_12_cif.got.tgz:22705.got - 2010.06.03 18:47:42.
