data_PCOD9296892
_publ_section_title
;
Structure prediction by ZEFSAII (Michael W. Deem and Ramdas Pophale) SiO2 
 PCOD9296892
Probable space group: C 2/C
;
_chemical_formula_sum "Si O2"
_cell_formula_units_Z 56
_cell_length_a 10.290420
_cell_length_b 16.231726
_cell_length_c 16.247694
_cell_angle_alpha 90.000000
_cell_angle_beta 123.664437
_cell_angle_gamma 90.000000
_cell_volume 2258.752093
_symmetry_space_group_name_H-M "C 2/C"
_symmetry_group_IT_number 15
_symmetry_cell_setting 'monoclinic'
loop_
_space_group_symop_operation_xyz
x,y,z
-x,y,1/2-z
-x,-y,-z
x,-y,1/2+z
1/2+x,1/2+y,z
1/2-x,1/2+y,1/2-z
1/2-x,1/2-y,-z
1/2+x,1/2-y,1/2+z
loop_
_atom_site_type_symbol
_atom_site_label
_atom_site_fract_x
_atom_site_fract_y
_atom_site_fract_z
Si Si1 0.799491 0.459008 0.508598
Si Si2 0.816644 0.967777 0.364529
Si Si3 0.500000 0.104972 0.750000
Si Si4 0.926783 0.720696 0.571932
Si Si5 0.327324 0.363188 0.804616
Si Si6 0.500000 0.189025 0.250000
Si Si7 0.118516 0.601991 0.088056
Si Si8 0.034714 0.150862 0.855137
O O1 0.415757 0.387132 0.379242
O O2 0.710188 0.504635 0.551325
O O3 0.819078 0.524748 0.442298
O O4 0.974685 0.430677 0.592680
O O5 0.644612 0.948676 0.270347
O O6 0.890036 0.045629 0.343787
O O7 0.559320 0.161407 0.844719
O O8 0.750000 0.750000 0.500000
O O9 0.956322 0.665945 0.501942
O O10 0.050094 0.793885 0.628107
O O11 0.299260 0.618595 0.557172
O O12 0.738626 0.359512 0.811053
O O13 0.166945 0.354220 0.800938
O O14 0.486823 0.252350 0.167597
O O15 0.000000 0.117102 0.750000
#
# Coordination Sequence:
#
# PCOD9296892 Si02
#       8
#     8   8   4   8   8   4   8   8
#     4  11  23  44  72 111 142 191 256 308 369 455
#     4  12  25  43  77 107 145 202 251 320 368 453
#     4  12  25  50  73 102 150 198 254 304 381 450
#     4  12  28  48  73 107 155 203 249 314 393 456
#     4  12  26  46  75 111 154 188 260 316 380 458
#     4  10  23  46  71 106 146 204 232 310 397 440
#     4  11  25  45  75 107 151 195 248 308 381 443
#     4  10  24  42  72 101 146 192 249 301 379 440
#
# _framework density 24.792451
#
# number of rings (size 3 to 8) (size 9 to 14) (size 15 to 20)
#    0.429    0.286    1.429    6.000    6.000    2.286 
#    1.286    2.857    0.000    0.000    0.000    0.000 
#    0.000    0.000    0.000    0.000    0.000    0.000 
#
# Total GULP energy -156934.213634 kJ/mol
# GULP energy per Si atom -5604.793344 kJ/mol
# Density = 2.473602 g / cm^3
# Si number density = 24.792451 Si / 1000 Ang^3
#
#
#
# Elastic Constant Matrix: (Units=GPa)
#
#
# Indices 1 2 3 4 5 6 
#
# 1 75.7670 8.3808 29.6449 0.0000 -3.7784 0.0000
# 2 8.3808 86.5706 31.8626 0.0000 6.2426 0.0000
# 3 29.6449 31.8626 138.3766 0.0000 8.6746 0.0000
# 4 0.0000 0.0000 0.0000 37.4666 0.0000 3.6681
# 5 -3.7784 6.2426 8.6746 0.0000 41.5935 0.0000
# 6 0.0000 0.0000 0.0000 3.6681 0.0000 40.3237
#
#
#
# Elastic Compliance Matrix: (Units=1/GPa)
#
#
# Indices 1 2 3 4 5 6 
#
# 1 0.014581 -0.000396 -0.003161 0.000000 0.002043 0.000000
# 2 -0.000396 0.012702 -0.002754 0.000000 -0.001368 0.000000
# 3 -0.003161 -0.002754 0.008643 0.000000 -0.001676 0.000000
# 4 0.000000 0.000000 0.000000 0.026930 0.000000 -0.002450
# 5 0.002043 -0.001368 -0.001676 0.000000 0.024783 0.000000
# 6 0.000000 0.000000 0.000000 -0.002450 0.000000 0.025022
#
#
# Mechanical properties :
#
#
# Convention : Reuss Voigt Hill
#
# Bulk Modulus (GPa) = 42.90986 48.94342 45.92664
# Shear Modulus (GPa) = 37.57988 39.26516 38.42252
#
# Velocity S-wave (km/s) = 3.89752 3.98396 3.94098
# Velocity P-wave (km/s) = 6.13184 6.39896 6.26682
#
# Compressibility (1/GPa) = 0.02330467
#
# Stress axis : x y z
#
# Youngs Moduli (GPa) = 68.58403 78.72836 115.69981
#
# Poissons Ratio (x) = 0.03114 0.36569
# Poissons Ratio (y) = 0.02713 0.31867
# Poissons Ratio (z) = 0.21677 0.21684
#
# Static dielectric constant tensor:
#      x y z
#    x 1.991020 0.000000 -0.020540 
#    y 0.000000 1.934990 0.000000 
#    z -0.020540 0.000000 1.943930 
# 
# From -- ./inp_files/289472.got.cif
#   From: 2010.05.17/outbox.cif.g08.bks.cpg/sg15_145_cif.got.tgz:289472.got - 2010.06.03 18:47:42.
