data_PCOD9296255
_publ_section_title
;
Structure prediction by ZEFSAII (Michael W. Deem and Ramdas Pophale) SiO2 
 PCOD9296255
Probable space group: C 2/C
;
_chemical_formula_sum "Si O2"
_cell_formula_units_Z 52
_cell_length_a 26.912800
_cell_length_b 7.914705
_cell_length_c 11.250764
_cell_angle_alpha 90.000000
_cell_angle_beta 61.277595
_cell_angle_gamma 90.000000
_cell_volume 2101.621868
_symmetry_space_group_name_H-M "C 2/C"
_symmetry_group_IT_number 15
_symmetry_cell_setting 'monoclinic'
loop_
_space_group_symop_operation_xyz
x,y,z
-x,y,1/2-z
-x,-y,-z
x,-y,1/2+z
1/2+x,1/2+y,z
1/2-x,1/2+y,1/2-z
1/2-x,1/2-y,-z
1/2+x,1/2-y,1/2+z
loop_
_atom_site_type_symbol
_atom_site_label
_atom_site_fract_x
_atom_site_fract_y
_atom_site_fract_z
Si Si1 0.500000 0.694498 0.750000
Si Si2 0.677681 0.429668 0.354081
Si Si3 0.403123 0.938409 0.957110
Si Si4 0.730313 0.265919 0.656095
Si Si5 0.911336 0.966224 0.189236
Si Si6 0.388773 0.867143 0.230731
Si Si7 0.313510 0.698076 0.959628
O O1 0.453074 0.809616 0.866334
O O2 0.531013 0.588521 0.817052
O O3 0.704467 0.556202 0.225785
O O4 0.716196 0.266500 0.320129
O O5 0.609668 0.423790 0.419927
O O6 0.689441 0.528489 0.461411
O O7 0.403026 0.070430 0.847325
O O8 0.411195 0.971616 0.089481
O O9 0.343349 0.840782 0.006403
O O10 0.750000 0.250000 0.500000
O O11 0.678652 0.133600 0.715079
O O12 0.906323 0.169119 0.204569
O O13 0.862176 0.846620 0.307062
O O14 0.250000 0.750000 0.000000
#
# Coordination Sequence:
#
# PCOD9296255 Si02
#       7
#     4   8   8   8   8   8   8
#     4  10  26  50  74 104 132 188 250 308 372 420
#     4  11  21  39  64  99 139 184 232 286 348 430
#     4  11  25  48  72 107 144 190 241 298 369 432
#     4  11  24  39  65 104 145 191 230 280 358 432
#     4  10  23  44  70 104 137 187 242 305 354 434
#     4  11  25  46  72 110 147 186 244 297 368 439
#     4  11  21  42  67 101 146 188 234 289 354 427
#
# _framework density 24.742795000000001
#
# number of rings (size 3 to 8) (size 9 to 14) (size 15 to 20)
#    0.000    1.231    3.077    3.692    2.154    3.077 
#    5.538    0.000    0.000    0.000    0.000    0.000 
#    0.000    0.000    0.000    0.000    0.000    0.000 
#
# Total GULP energy -145126.374438 kJ/mol
# GULP energy per Si atom -5581.783632 kJ/mol
# Density = 2.468648 g / cm^3
# Si number density = 24.742795 Si / 1000 Ang^3
#
#
#
# Elastic Constant Matrix: (Units=GPa)
#
#
# Indices 1 2 3 4 5 6 
#
# 1 190.8207 47.1219 15.2672 0.0000 9.0015 0.0000
# 2 47.1219 53.7701 12.6020 0.0000 14.3103 0.0000
# 3 15.2672 12.6020 99.0603 0.0000 19.0324 0.0000
# 4 0.0000 0.0000 0.0000 23.4066 0.0000 14.6817
# 5 9.0015 14.3103 19.0324 0.0000 26.3727 0.0000
# 6 0.0000 0.0000 0.0000 14.6817 0.0000 47.2811
#
#
#
# Elastic Compliance Matrix: (Units=1/GPa)
#
#
# Indices 1 2 3 4 5 6 
#
# 1 0.006736 -0.006159 -0.000528 0.000000 0.001424 0.000000
# 2 -0.006159 0.027396 -0.000097 0.000000 -0.012693 0.000000
# 3 -0.000528 -0.000097 0.011777 0.000000 -0.008266 0.000000
# 4 0.000000 0.000000 0.000000 0.053057 0.000000 -0.016475
# 5 0.001424 -0.012693 -0.008266 0.000000 0.050285 0.000000
# 6 0.000000 0.000000 0.000000 -0.016475 0.000000 0.026266
#
#
# Mechanical properties :
#
#
# Convention : Reuss Voigt Hill
#
# Bulk Modulus (GPa) = 30.92092 54.84814 42.88453
# Shear Modulus (GPa) = 25.01686 37.32278 31.16982
#
# Velocity S-wave (km/s) = 3.18319 3.88806 3.55315
# Velocity P-wave (km/s) = 5.10239 6.50934 5.84833
#
# Compressibility (1/GPa) = 0.03234057
#
# Stress axis : x y z
#
# Youngs Moduli (GPa) = 148.44584 36.50197 84.91296
#
# Poissons Ratio (x) = 0.22480 0.04486
# Poissons Ratio (y) = 0.91423 0.00826
# Poissons Ratio (z) = 0.07842 0.00355
#
# Static dielectric constant tensor:
#      x y z
#    x 2.262580 0.000000 0.184260 
#    y 0.000000 1.991440 0.000000 
#    z 0.184260 0.000000 2.185140 
# 
# From -- ./inp_files/121422.got.cif
#   From: 2010.05.17/outbox.cif.g08.bks.cpg/sg15_61_cif.got.tgz:121422.got - 2010.06.03 18:47:42.
