data_PCOD9296912
_publ_section_title
;
Structure prediction by ZEFSAII (Michael W. Deem and Ramdas Pophale) SiO2 
 PCOD9296912
Probable space group: C 2/C
;
_chemical_formula_sum "Si O2"
_cell_formula_units_Z 32
_cell_length_a 14.106898
_cell_length_b 4.833373
_cell_length_c 22.322716
_cell_angle_alpha 90.000000
_cell_angle_beta 126.790882
_cell_angle_gamma 90.000000
_cell_volume 1218.898128
_symmetry_space_group_name_H-M "C 2/C"
_symmetry_group_IT_number 15
_symmetry_cell_setting 'monoclinic'
loop_
_space_group_symop_operation_xyz
x,y,z
-x,y,1/2-z
-x,-y,-z
x,-y,1/2+z
1/2+x,1/2+y,z
1/2-x,1/2+y,1/2-z
1/2-x,1/2-y,-z
1/2+x,1/2-y,1/2+z
loop_
_atom_site_type_symbol
_atom_site_label
_atom_site_fract_x
_atom_site_fract_y
_atom_site_fract_z
Si Si1 0.824787 0.351525 0.147600
Si Si2 0.670881 0.273523 0.720727
Si Si3 0.569182 0.115610 0.083063
Si Si4 0.861379 0.151479 0.581832
O O1 0.881523 0.287408 0.233768
O O2 0.685410 0.277172 0.103649
O O3 0.851116 0.661550 0.137625
O O4 0.861057 0.159123 0.105758
O O5 0.706730 0.592651 0.732304
O O6 0.607839 0.139522 0.640310
O O7 0.476979 0.291773 0.086898
O O8 0.500000 0.000000 0.000000
O O9 0.750000 0.250000 0.500000
#
# Coordination Sequence:
#
# PCOD9296912 Si02
#       4
#     8   8   8   8
#     4  11  25  48  70 101 149 179 240 297 347 429
#     4  10  23  46  72 103 141 191 236 292 360 420
#     4  11  25  46  76 105 143 191 236 293 362 419
#     4  12  26  44  74 108 138 187 238 293 356 421
#
# _framework density 26.253219999999999
#
# number of rings (size 3 to 8) (size 9 to 14) (size 15 to 20)
#    0.000    1.000    2.500    3.750    0.000    8.000 
#    0.000    7.500    0.000    0.000    0.000    0.000 
#    0.000    0.000    0.000    0.000    0.000    0.000 
#
# Total GULP energy -89790.587524 kJ/mol
# GULP energy per Si atom -5611.911720 kJ/mol
# Density = 2.619347 g / cm^3
# Si number density = 26.253220 Si / 1000 Ang^3
#
#
#
# Elastic Constant Matrix: (Units=GPa)
#
#
# Indices 1 2 3 4 5 6 
#
# 1 186.4489 13.4418 23.7390 0.0000 -2.5559 0.0000
# 2 13.4418 65.0771 -7.2350 0.0001 7.5348 0.0001
# 3 23.7390 -7.2350 150.7371 0.0000 -4.2879 0.0000
# 4 0.0000 0.0001 0.0000 37.5213 0.0000 -11.7674
# 5 -2.5559 7.5348 -4.2879 0.0000 36.9065 0.0000
# 6 0.0000 0.0001 0.0000 -11.7674 0.0000 51.0658
#
#
#
# Elastic Compliance Matrix: (Units=1/GPa)
#
#
# Indices 1 2 3 4 5 6 
#
# 1 0.005584 -0.001320 -0.000927 0.000000 0.000548 0.000000
# 2 -0.001320 0.016117 0.000888 0.000000 -0.003279 0.000000
# 3 -0.000927 0.000888 0.006838 0.000000 0.000549 0.000000
# 4 0.000000 0.000000 0.000000 0.028728 0.000000 0.006620
# 5 0.000548 -0.003279 0.000549 0.000000 0.027867 0.000000
# 6 0.000000 0.000000 0.000000 0.006620 0.000000 0.021108
#
#
# Mechanical properties :
#
#
# Convention : Reuss Voigt Hill
#
# Bulk Modulus (GPa) = 38.72673 51.35051 45.03862
# Shear Modulus (GPa) = 42.52879 49.91989 46.22434
#
# Velocity S-wave (km/s) = 4.02922 4.36532 4.20064
# Velocity P-wave (km/s) = 6.03568 6.70897 6.38121
#
# Compressibility (1/GPa) = 0.02582196
#
# Stress axis : x y z
#
# Youngs Moduli (GPa) = 179.07892 62.04469 146.23447
#
# Poissons Ratio (x) = 0.08190 0.13559
# Poissons Ratio (y) = 0.23638 -0.12989
# Poissons Ratio (z) = 0.16604 -0.05511
#
# Static dielectric constant tensor:
#      x y z
#    x 2.059410 0.000000 0.060630 
#    y 0.000000 1.998970 0.000000 
#    z 0.060630 0.000000 2.085290 
# 
# From -- ./inp_files/241246.got.cif
#   From: 2010.05.17/outbox.cif.g08.bks.cpg/sg15_121_cif.got.tgz:241246.got - 2010.06.03 18:47:42.
