data_PCOD9296086
_publ_section_title
;
Structure prediction by ZEFSAII (Michael W. Deem and Ramdas Pophale) SiO2 
 PCOD9296086
Probable space group: C 2/C
;
_chemical_formula_sum "Si O2"
_cell_formula_units_Z 60
_cell_length_a 21.479973
_cell_length_b 8.385125
_cell_length_c 16.474836
_cell_angle_alpha 90.000000
_cell_angle_beta 118.379676
_cell_angle_gamma 90.000000
_cell_volume 2610.699198
_symmetry_space_group_name_H-M "C 2/C"
_symmetry_group_IT_number 15
_symmetry_cell_setting 'monoclinic'
loop_
_space_group_symop_operation_xyz
x,y,z
-x,y,1/2-z
-x,-y,-z
x,-y,1/2+z
1/2+x,1/2+y,z
1/2-x,1/2+y,1/2-z
1/2-x,1/2-y,-z
1/2+x,1/2-y,1/2+z
loop_
_atom_site_type_symbol
_atom_site_label
_atom_site_fract_x
_atom_site_fract_y
_atom_site_fract_z
Si Si1 0.794781 0.698586 0.284953
Si Si2 0.878709 0.544850 0.739702
Si Si3 0.284801 0.476719 0.154923
Si Si4 0.592746 0.677886 0.522431
Si Si5 0.015044 0.122483 0.917423
Si Si6 0.570315 0.605338 0.239238
Si Si7 0.000000 0.319451 0.750000
Si Si8 0.687477 0.121256 0.969170
O O1 0.838275 0.541300 0.286854
O O2 0.728865 0.622677 0.290283
O O3 0.840789 0.801698 0.376361
O O4 0.782357 0.809688 0.200033
O O5 0.910107 0.717933 0.775579
O O6 0.829296 0.560123 0.630200
O O7 0.940286 0.426762 0.751828
O O8 0.363952 0.519623 0.175022
O O9 0.222622 0.492049 0.050721
O O10 0.521596 0.718165 0.530819
O O11 0.576714 0.498864 0.481773
O O12 0.617206 0.796043 0.464659
O O13 0.030126 0.221204 0.845486
O O14 0.951020 0.006188 0.848730
O O15 0.500000 0.614466 0.250000
O O16 0.750000 0.250000 0.000000
#
# Coordination Sequence:
#
# PCOD9296086 Si02
#       8
#     8   8   8   8   8   8   4   8
#     4  11  24  47  69  98 141 182 239 287 350 418
#     4  12  25  43  66 106 139 181 234 292 343 422
#     4  11  24  45  69  98 137 186 231 288 351 416
#     4  10  23  44  67 101 134 173 235 285 341 415
#     4  11  23  43  71  99 138 186 229 286 347 425
#     4  12  22  39  70 102 134 186 230 280 358 413
#     4  12  24  42  68 106 144 182 228 290 354 414
#     4  11  25  42  67  99 137 182 233 290 343 415
#
# _framework density 22.982348000000002
#
# number of rings (size 3 to 8) (size 9 to 14) (size 15 to 20)
#    0.000    0.800    5.333    1.600    1.867    0.533 
#    2.400    5.333    0.000    0.000    0.000    0.000 
#    0.000    0.000    0.000    0.000    0.000    0.000 
#
# Total GULP energy -167737.535513 kJ/mol
# GULP energy per Si atom -5591.251184 kJ/mol
# Density = 2.293004 g / cm^3
# Si number density = 22.982348 Si / 1000 Ang^3
#
#
#
# Elastic Constant Matrix: (Units=GPa)
#
#
# Indices 1 2 3 4 5 6 
#
# 1 121.0943 21.7155 1.3796 0.0000 -0.5794 0.0000
# 2 21.7155 61.2512 0.4719 0.0000 7.2576 0.0000
# 3 1.3796 0.4719 39.1461 0.0000 4.0140 0.0000
# 4 0.0000 0.0000 0.0000 -48.3451 0.0000 117.9659
# 5 -0.5794 7.2576 4.0140 0.0000 24.2020 0.0000
# 6 0.0000 0.0000 0.0000 117.9659 0.0000 -122.5267
#
#
#
# Elastic Compliance Matrix: (Units=1/GPa)
#
#
# Indices 1 2 3 4 5 6 
#
# 1 0.008858 -0.003287 -0.000402 0.000000 0.001265 0.000000
# 2 -0.003287 0.018152 0.000471 0.000000 -0.005600 0.000000
# 3 -0.000402 0.000471 0.026012 0.000000 -0.004465 0.000000
# 4 0.000000 0.000000 0.000000 0.015330 0.000000 0.014760
# 5 0.001265 -0.005600 -0.004465 0.000000 0.043769 0.000000
# 6 0.000000 0.000000 0.000000 0.014760 0.000000 0.006049
#
#
# Mechanical properties :
#
#
# Convention : Reuss Voigt Hill
#
# Bulk Modulus (GPa) = 21.46612 29.84728 25.65670
# Shear Modulus (GPa) = 35.68000 -16.13899 9.77050
#
# Velocity S-wave (km/s) = 3.94445 -2.65285 2.06411
# Velocity P-wave (km/s) = 5.48684 1.90573 4.10714
#
# Compressibility (1/GPa) = 0.04658503
#
# Stress axis : x y z
#
# Youngs Moduli (GPa) = 112.89039 55.09169 38.44425
#
# Poissons Ratio (x) = 0.18110 0.01546
# Poissons Ratio (y) = 0.37110 -0.01812
# Poissons Ratio (z) = 0.04541 -0.02596
#
# Static dielectric constant tensor:
#      x y z
#    x 2.103880 0.000000 -0.068600 
#    y 0.000000 1.859260 0.000000 
#    z -0.068600 0.000000 1.911200 
# 
# From -- ./inp_files/214307.got.cif
#   From: 2010.05.17/outbox.cif.g08.bks.cpg/sg15_108_cif.got.tgz:214307.got - 2010.06.03 18:47:42.
