data_PCOD9296159
_publ_section_title
;
Structure prediction by ZEFSAII (Michael W. Deem and Ramdas Pophale) SiO2 
 PCOD9296159
Probable space group: C 2/C
;
_chemical_formula_sum "Si O2"
_cell_formula_units_Z 36
_cell_length_a 4.963928
_cell_length_b 23.330028
_cell_length_c 14.029721
_cell_angle_alpha 90.000000
_cell_angle_beta 109.285145
_cell_angle_gamma 90.000000
_cell_volume 1533.591152
_symmetry_space_group_name_H-M "C 2/C"
_symmetry_group_IT_number 15
_symmetry_cell_setting 'monoclinic'
loop_
_space_group_symop_operation_xyz
x,y,z
-x,y,1/2-z
-x,-y,-z
x,-y,1/2+z
1/2+x,1/2+y,z
1/2-x,1/2+y,1/2-z
1/2-x,1/2-y,-z
1/2+x,1/2-y,1/2+z
loop_
_atom_site_type_symbol
_atom_site_label
_atom_site_fract_x
_atom_site_fract_y
_atom_site_fract_z
Si Si1 0.184779 0.726084 0.678181
Si Si2 0.500000 0.421687 0.750000
Si Si3 0.594579 0.875972 0.475131
Si Si4 0.213752 0.851498 0.600404
Si Si5 0.297739 0.967924 0.318157
O O1 0.500000 0.710513 0.750000
O O2 0.040201 0.675098 0.603227
O O3 0.000000 0.738812 0.750000
O O4 0.200224 0.783917 0.618343
O O5 0.676640 0.384263 0.696068
O O6 0.303685 0.467720 0.669680
O O7 0.934833 0.871466 0.508859
O O8 0.461344 0.934037 0.418420
O O9 0.490487 0.864816 0.570592
O O10 0.500000 0.970883 0.250000
O O11 0.000000 0.938534 0.250000
#
# Coordination Sequence:
#
# PCOD9296159 Si02
#       5
#     8   4   8   8   8
#     4  12  24  44  73  98 139 179 217 271 345 405
#     4  10  28  44  70  92 142 182 226 266 342 398
#     4  12  25  43  70 103 135 172 229 282 326 394
#     4  12  26  43  68 101 137 175 225 278 335 396
#     4  10  23  44  68  95 135 176 230 266 332 396
#
# _framework density 23.474315000000001
#
# number of rings (size 3 to 8) (size 9 to 14) (size 15 to 20)
#    0.667    0.000    1.111    6.667    3.111    1.778 
#    0.000    0.000    0.000    0.000    0.000    0.000 
#    0.000    0.000    0.000    0.000    0.000    0.000 
#
# Total GULP energy -100865.091577 kJ/mol
# GULP energy per Si atom -5603.616199 kJ/mol
# Density = 2.342089 g / cm^3
# Si number density = 23.474315 Si / 1000 Ang^3
#
#
#
# Elastic Constant Matrix: (Units=GPa)
#
#
# Indices 1 2 3 4 5 6 
#
# 1 75.7845 -11.6791 -4.6715 0.0000 -0.4434 0.0000
# 2 -11.6791 90.4534 -1.3601 0.0000 18.2998 0.0000
# 3 -4.6715 -1.3601 46.4201 0.0000 11.5994 0.0000
# 4 0.0000 0.0000 0.0000 25.6411 0.0000 28.4403
# 5 -0.4434 18.2998 11.5994 0.0000 52.6976 0.0000
# 6 0.0000 0.0000 0.0000 28.4403 0.0000 22.1019
#
#
#
# Elastic Compliance Matrix: (Units=1/GPa)
#
#
# Indices 1 2 3 4 5 6 
#
# 1 0.013596 0.001970 0.001660 0.000000 -0.000935 0.000000
# 2 0.001970 0.012270 0.001713 0.000000 -0.004621 0.000000
# 3 0.001660 0.001713 0.023180 0.000000 -0.005683 0.000000
# 4 0.000000 0.000000 0.000000 -0.091280 0.000000 0.117457
# 5 -0.000935 -0.004621 -0.005683 0.000000 0.021824 0.000000
# 6 0.000000 0.000000 0.000000 0.117457 0.000000 -0.105897
#
#
# Mechanical properties :
#
#
# Convention : Reuss Voigt Hill
#
# Bulk Modulus (GPa) = 16.74236 19.69295 18.21766
# Shear Modulus (GPa) = -42.70574 35.44603 -3.62985
#
# Velocity S-wave (km/s) = -4.26990 3.89008 -1.24486
# Velocity P-wave (km/s) = 4.14267 5.34643 2.38983
#
# Compressibility (1/GPa) = 0.05972874
#
# Stress axis : x y z
#
# Youngs Moduli (GPa) = 73.55286 81.49675 43.14140
#
# Poissons Ratio (x) = -0.16051 -0.07159
# Poissons Ratio (y) = -0.14486 -0.07388
# Poissons Ratio (z) = -0.12206 -0.13956
#
# Static dielectric constant tensor:
#      x y z
#    x 1.865560 0.000000 0.029280 
#    y 0.000000 1.845760 0.000000 
#    z 0.029280 0.000000 1.899300 
# 
# From -- ./inp_files/72681.got.cif
#   From: 2010.05.17/outbox.cif.g08.bks.cpg/sg15_37_cif.got.tgz:72681.got - 2010.06.03 18:47:42.
