data_PCOD9296360
_publ_section_title
;
Structure prediction by ZEFSAII (Michael W. Deem and Ramdas Pophale) SiO2 
 PCOD9296360
Probable space group: C 2/C
;
_chemical_formula_sum "Si O2"
_cell_formula_units_Z 40
_cell_length_a 11.368201
_cell_length_b 17.771012
_cell_length_c 9.001707
_cell_angle_alpha 90.000000
_cell_angle_beta 91.131199
_cell_angle_gamma 90.000000
_cell_volume 1818.210364
_symmetry_space_group_name_H-M "C 2/C"
_symmetry_group_IT_number 15
_symmetry_cell_setting 'monoclinic'
loop_
_space_group_symop_operation_xyz
x,y,z
-x,y,1/2-z
-x,-y,-z
x,-y,1/2+z
1/2+x,1/2+y,z
1/2-x,1/2+y,1/2-z
1/2-x,1/2-y,-z
1/2+x,1/2-y,1/2+z
loop_
_atom_site_type_symbol
_atom_site_label
_atom_site_fract_x
_atom_site_fract_y
_atom_site_fract_z
Si Si1 0.751973 0.415535 0.051139
Si Si2 0.281612 0.323321 0.905407
Si Si3 0.510644 0.347417 0.074721
Si Si4 0.107321 0.729611 0.852014
Si Si5 0.360777 0.948959 0.733744
O O1 0.611414 0.408544 0.046753
O O2 0.802082 0.334711 0.103794
O O3 0.799694 0.477963 0.164016
O O4 0.805358 0.433573 0.892632
O O5 0.332231 0.292658 0.750430
O O6 0.173726 0.378242 0.871256
O O7 0.250000 0.250000 0.000000
O O8 0.385671 0.365493 0.996416
O O9 0.500000 0.336287 0.250000
O O10 0.553507 0.271176 0.993441
O O11 0.000000 0.698060 0.750000
O O12 0.500000 0.958160 0.750000
#
# Coordination Sequence:
#
# PCOD9296360 Si02
#       5
#     8   8   8   8   8
#     4  12  27  48  72 106 151 193 248 295 373 439
#     4  11  26  45  75 109 146 187 249 301 369 434
#     4  11  25  45  77 108 145 192 242 303 368 427
#     4  10  23  44  72 106 144 185 241 304 355 439
#     4  12  30  48  73 106 148 198 244 305 369 439
#
# _framework density 21.999655000000001
#
# number of rings (size 3 to 8) (size 9 to 14) (size 15 to 20)
#    0.000    0.800    2.000    3.000   14.000    0.800 
#    0.000    0.000    0.000    0.000    0.000    0.000 
#    0.000    0.000    0.000    0.000    0.000    0.000 
#
# Total GULP energy -112062.673296 kJ/mol
# GULP energy per Si atom -5603.133665 kJ/mol
# Density = 2.194958 g / cm^3
# Si number density = 21.999655 Si / 1000 Ang^3
#
#
#
# Elastic Constant Matrix: (Units=GPa)
#
#
# Indices 1 2 3 4 5 6 
#
# 1 147.0297 37.0447 46.8209 0.0000 22.0370 0.0000
# 2 37.0447 46.8548 31.4156 0.0000 20.6739 0.0000
# 3 46.8209 31.4156 142.2623 0.0000 -5.2837 0.0000
# 4 0.0000 0.0000 0.0000 -15.6194 0.0000 34.4175
# 5 22.0370 20.6739 -5.2837 0.0000 39.5934 0.0000
# 6 0.0000 0.0000 0.0000 34.4175 0.0000 27.1078
#
#
#
# Elastic Compliance Matrix: (Units=1/GPa)
#
#
# Indices 1 2 3 4 5 6 
#
# 1 0.009034 -0.004393 -0.002115 0.000000 -0.003016 0.000000
# 2 -0.004393 0.038096 -0.007653 0.000000 -0.018468 0.000000
# 3 -0.002115 -0.007653 0.009655 0.000000 0.006461 0.000000
# 4 0.000000 0.000000 0.000000 -0.016858 0.000000 0.021404
# 5 -0.003016 -0.018468 0.006461 0.000000 0.037441 0.000000
# 6 0.000000 0.000000 0.000000 0.021404 0.000000 0.009714
#
#
# Mechanical properties :
#
#
# Convention : Reuss Voigt Hill
#
# Bulk Modulus (GPa) = 35.13372 62.96770 49.05071
# Shear Modulus (GPa) = 40.03504 24.94073 32.48789
#
# Velocity S-wave (km/s) = 4.27054 3.37068 3.84701
# Velocity P-wave (km/s) = 6.34992 6.62064 6.48669
#
# Compressibility (1/GPa) = 0.02846268
#
# Stress axis : x y z
#
# Youngs Moduli (GPa) = 110.69416 26.24973 103.57066
#
# Poissons Ratio (x) = 0.11533 0.21905
# Poissons Ratio (y) = 0.48633 0.79258
# Poissons Ratio (z) = 0.23412 0.20088
#
# Static dielectric constant tensor:
#      x y z
#    x 1.813990 0.000000 0.012340 
#    y 0.000000 1.776580 0.000000 
#    z 0.012340 0.000000 1.795650 
# 
# From -- ./inp_files/29250.got.cif
#   From: 2010.05.17/outbox.cif.g08.bks.cpg/sg15_15_cif.got.tgz:29250.got - 2010.06.03 18:47:42.
