data_PCOD9296040
_publ_section_title
;
Structure prediction by ZEFSAII (Michael W. Deem and Ramdas Pophale) SiO2 
 PCOD9296040
Probable space group: C 2/C
;
_chemical_formula_sum "Si O2"
_cell_formula_units_Z 36
_cell_length_a 7.770626
_cell_length_b 23.572893
_cell_length_c 10.532350
_cell_angle_alpha 90.000000
_cell_angle_beta 47.324309
_cell_angle_gamma 90.000000
_cell_volume 1418.407451
_symmetry_space_group_name_H-M "C 2/C"
_symmetry_group_IT_number 15
_symmetry_cell_setting 'monoclinic'
loop_
_space_group_symop_operation_xyz
x,y,z
-x,y,1/2-z
-x,-y,-z
x,-y,1/2+z
1/2+x,1/2+y,z
1/2-x,1/2+y,1/2-z
1/2-x,1/2-y,-z
1/2+x,1/2-y,1/2+z
loop_
_atom_site_type_symbol
_atom_site_label
_atom_site_fract_x
_atom_site_fract_y
_atom_site_fract_z
Si Si1 0.848112 0.055161 0.446921
Si Si2 0.265571 0.931897 0.937220
Si Si3 0.000000 0.859142 0.250000
Si Si4 0.139995 0.673873 0.496268
Si Si5 0.162392 0.219496 0.858056
O O1 0.692865 0.107870 0.477589
O O2 0.000000 0.037793 0.250000
O O3 0.030311 0.073313 0.467123
O O4 0.708623 0.999548 0.556628
O O5 0.500000 0.910666 0.750000
O O6 0.204471 0.902253 0.102097
O O7 0.967451 0.813491 0.380163
O O8 0.162232 0.712679 0.360491
O O9 0.329266 0.699119 0.501224
O O10 0.889864 0.691373 0.678745
#
# Coordination Sequence:
#
# PCOD9296040 Si02
#       5
#     8   8   4   8   8
#     4  11  25  45  74 104 147 190 250 299 361 449
#     4  11  27  47  72 111 149 193 240 303 377 428
#     4  12  24  50  68 114 152 192 238 314 360 448
#     4  10  23  44  66 105 136 196 242 302 349 449
#     4  10  24  42  72  97 148 186 246 294 374 420
#
# _framework density 25.380579000000001
#
# number of rings (size 3 to 8) (size 9 to 14) (size 15 to 20)
#    0.000    1.333    3.333    0.000   12.444    1.778 
#    0.000    0.000    0.000    0.000    0.000    0.000 
#    0.000    0.000    0.000    0.000    0.000    0.000 
#
# Total GULP energy -100459.222780 kJ/mol
# GULP energy per Si atom -5581.067932 kJ/mol
# Density = 2.532281 g / cm^3
# Si number density = 25.380579 Si / 1000 Ang^3
#
#
#
# Elastic Constant Matrix: (Units=GPa)
#
#
# Indices 1 2 3 4 5 6 
#
# 1 53.2961 47.1012 0.5447 0.0000 6.6409 0.0000
# 2 47.1012 197.4565 50.2746 0.0000 -5.9831 0.0000
# 3 0.5447 50.2746 128.2659 0.0000 -14.8558 0.0000
# 4 0.0000 0.0000 0.0000 25.5339 0.0000 33.0923
# 5 6.6409 -5.9831 -14.8558 0.0000 24.4921 0.0000
# 6 0.0000 0.0000 0.0000 33.0923 0.0000 11.9615
#
#
#
# Elastic Compliance Matrix: (Units=1/GPa)
#
#
# Indices 1 2 3 4 5 6 
#
# 1 0.025689 -0.006783 0.001668 0.000000 -0.007611 0.000000
# 2 -0.006783 0.007417 -0.002641 0.000000 0.002049 0.000000
# 3 0.001668 -0.002641 0.009354 0.000000 0.004576 0.000000
# 4 0.000000 0.000000 0.000000 -0.015147 0.000000 0.041906
# 5 -0.007611 0.002049 0.004576 0.000000 0.046170 0.000000
# 6 0.000000 0.000000 0.000000 0.041906 0.000000 -0.032335
#
#
# Mechanical properties :
#
#
# Convention : Reuss Voigt Hill
#
# Bulk Modulus (GPa) = 37.10784 63.87327 50.49055
# Shear Modulus (GPa) = 76.16941 31.13736 53.65338
#
# Velocity S-wave (km/s) = 5.48416 3.50640 4.60276
# Velocity P-wave (km/s) = 7.39957 6.45089 6.94146
#
# Compressibility (1/GPa) = 0.02694848
#
# Stress axis : x y z
#
# Youngs Moduli (GPa) = 38.92693 134.82548 106.90122
#
# Poissons Ratio (x) = 0.91455 -0.17833
# Poissons Ratio (y) = 0.26405 0.28233
# Poissons Ratio (z) = -0.06494 0.35607
#
# Static dielectric constant tensor:
#      x y z
#    x 2.845300 0.000000 -0.210910 
#    y 0.000000 2.045590 0.000000 
#    z -0.210910 0.000000 2.060070 
# 
# From -- ./inp_files/80424.got.cif
#   From: 2010.05.17/outbox.cif.g08.bks.cpg/sg15_41_cif.got.tgz:80424.got - 2010.06.03 18:47:42.
