data_PCOD9296330
_publ_section_title
;
Structure prediction by ZEFSAII (Michael W. Deem and Ramdas Pophale) SiO2 
 PCOD9296330
Probable space group: C 2/C
;
_chemical_formula_sum "Si O2"
_cell_formula_units_Z 48
_cell_length_a 8.479099
_cell_length_b 28.682231
_cell_length_c 15.110088
_cell_angle_alpha 90.000000
_cell_angle_beta 142.789671
_cell_angle_gamma 90.000000
_cell_volume 2222.287601
_symmetry_space_group_name_H-M "C 2/C"
_symmetry_group_IT_number 15
_symmetry_cell_setting 'monoclinic'
loop_
_space_group_symop_operation_xyz
x,y,z
-x,y,1/2-z
-x,-y,-z
x,-y,1/2+z
1/2+x,1/2+y,z
1/2-x,1/2+y,1/2-z
1/2-x,1/2-y,-z
1/2+x,1/2-y,1/2+z
loop_
_atom_site_type_symbol
_atom_site_label
_atom_site_fract_x
_atom_site_fract_y
_atom_site_fract_z
Si Si1 0.737191 0.119337 0.401220
Si Si2 0.649285 0.523809 0.147568
Si Si3 0.922306 0.468966 0.047369
Si Si4 0.707085 0.115788 0.596894
Si Si5 0.103317 0.797455 0.043838
Si Si6 0.118399 0.712497 0.653478
O O1 0.500000 0.146698 0.250000
O O2 0.765920 0.073422 0.353961
O O3 0.677877 0.110091 0.477993
O O4 0.990410 0.151003 0.504511
O O5 0.890973 0.493134 0.293424
O O6 0.500000 0.500000 0.000000
O O7 0.392596 0.530298 0.093129
O O8 0.017242 0.416805 0.069099
O O9 0.000000 0.500000 0.000000
O O10 0.675447 0.168826 0.615422
O O11 0.000000 0.100091 0.750000
O O12 0.176435 0.782130 0.175707
O O13 0.351364 0.797606 0.088937
O O14 0.913317 0.759446 0.916158
#
# Coordination Sequence:
#
# PCOD9296330 Si02
#       6
#     8   8   8   8   8   8
#     4  12  26  43  65 100 140 178 222 280 337 403
#     4  12  25  44  68  98 133 177 226 278 342 398
#     4  12  25  44  70  97 134 178 228 284 337 403
#     4  12  24  43  67  99 136 178 229 276 338 405
#     4  10  23  45  69  99 134 176 224 275 341 398
#     4  10  23  44  71  99 132 176 226 279 334 407
#
# _framework density 21.599364999999999
#
# number of rings (size 3 to 8) (size 9 to 14) (size 15 to 20)
#    0.000    0.667    1.667    7.000    2.333    1.333 
#    0.000    1.667    0.000    0.000    0.000    0.000 
#    0.000    0.000    0.000    0.000    0.000    0.000 
#
# Total GULP energy -134015.417059 kJ/mol
# GULP energy per Si atom -5583.975711 kJ/mol
# Density = 2.155020 g / cm^3
# Si number density = 21.599365 Si / 1000 Ang^3
#
#
#
# Elastic Constant Matrix: (Units=GPa)
#
#
# Indices 1 2 3 4 5 6 
#
# 1 95.9236 35.8844 35.3348 0.0000 -8.6923 0.0000
# 2 35.8844 91.3503 23.8841 0.0000 -9.3303 0.0000
# 3 35.3348 23.8841 131.7561 0.0000 -20.7987 0.0000
# 4 0.0000 0.0000 0.0000 32.1076 0.0000 -2.9506
# 5 -8.6923 -9.3303 -20.7987 0.0000 35.5283 0.0000
# 6 0.0000 0.0000 0.0000 -2.9506 0.0000 38.3790
#
#
#
# Elastic Compliance Matrix: (Units=1/GPa)
#
#
# Indices 1 2 3 4 5 6 
#
# 1 0.013087 -0.004401 -0.002632 0.000000 0.000505 0.000000
# 2 -0.004401 0.013100 -0.000905 0.000000 0.001834 0.000000
# 3 -0.002632 -0.000905 0.009168 0.000000 0.004485 0.000000
# 4 0.000000 0.000000 0.000000 0.031367 0.000000 0.002412
# 5 0.000505 0.001834 0.004485 0.000000 0.031378 0.000000
# 6 0.000000 0.000000 0.000000 0.002412 0.000000 0.026241
#
#
# Mechanical properties :
#
#
# Convention : Reuss Voigt Hill
#
# Bulk Modulus (GPa) = 51.33986 56.58185 53.96085
# Shear Modulus (GPa) = 34.08123 36.13141 35.10632
#
# Velocity S-wave (km/s) = 3.97656 4.09442 4.03592
# Velocity P-wave (km/s) = 6.70111 6.97175 6.83777
#
# Compressibility (1/GPa) = 0.01947804
#
# Stress axis : x y z
#
# Youngs Moduli (GPa) = 76.41353 76.33855 109.07812
#
# Poissons Ratio (x) = 0.33596 0.28711
# Poissons Ratio (y) = 0.33629 0.09870
# Poissons Ratio (z) = 0.20113 0.06908
#
# Static dielectric constant tensor:
#      x y z
#    x 6.761190 0.000000 1.550220 
#    y 0.000000 1.936230 0.000000 
#    z 1.550220 0.000000 2.313050 
# 
# From -- ./inp_files/139053.got.cif
#   From: 2010.05.17/outbox.cif.g08.bks.cpg/sg15_70_cif.got.tgz:139053.got - 2010.06.03 18:47:42.
