data_PCOD9296137
_publ_section_title
;
Structure prediction by ZEFSAII (Michael W. Deem and Ramdas Pophale) SiO2 
 PCOD9296137
Probable space group: C 2/C
;
_chemical_formula_sum "Si O2"
_cell_formula_units_Z 32
_cell_length_a 11.199048
_cell_length_b 7.079824
_cell_length_c 19.693131
_cell_angle_alpha 90.000000
_cell_angle_beta 53.522504
_cell_angle_gamma 90.000000
_cell_volume 1255.518825
_symmetry_space_group_name_H-M "C 2/C"
_symmetry_group_IT_number 15
_symmetry_cell_setting 'monoclinic'
loop_
_space_group_symop_operation_xyz
x,y,z
-x,y,1/2-z
-x,-y,-z
x,-y,1/2+z
1/2+x,1/2+y,z
1/2-x,1/2+y,1/2-z
1/2-x,1/2-y,-z
1/2+x,1/2-y,1/2+z
loop_
_atom_site_type_symbol
_atom_site_label
_atom_site_fract_x
_atom_site_fract_y
_atom_site_fract_z
Si Si1 0.826446 0.964622 0.642875
Si Si2 0.152707 0.429292 0.416591
Si Si3 0.774975 0.467030 0.469736
Si Si4 0.589120 0.844460 0.824203
O O1 0.823188 0.019410 0.564772
O O2 0.907471 0.120081 0.661902
O O3 0.886031 0.752890 0.614860
O O4 0.665150 0.918112 0.730110
O O5 0.253245 0.417343 0.449919
O O6 0.202017 0.584044 0.345794
O O7 0.000000 0.500000 0.500000
O O8 0.750000 0.250000 0.500000
O O9 0.933018 0.552004 0.389813
#
# Coordination Sequence:
#
# PCOD9296137 Si02
#       4
#     8   8   8   8
#     4  12  23  46  73 101 150 186 246 303 367 441
#     4  10  23  44  68 104 138 187 237 294 364 428
#     4  11  24  44  71 107 145 186 246 300 363 443
#     4  11  24  44  72 104 142 195 239 300 375 431
#
# _framework density 25.487470999999999
#
# number of rings (size 3 to 8) (size 9 to 14) (size 15 to 20)
#    0.000    1.000    5.000    1.500    0.000    4.000 
#    9.000    0.000    0.000    0.000    0.000    0.000 
#    0.000    0.000    0.000    0.000    0.000    0.000 
#
# Total GULP energy -89178.863921 kJ/mol
# GULP energy per Si atom -5573.678995 kJ/mol
# Density = 2.542946 g / cm^3
# Si number density = 25.487471 Si / 1000 Ang^3
#
#
#
# Elastic Constant Matrix: (Units=GPa)
#
#
# Indices 1 2 3 4 5 6 
#
# 1 67.5533 19.1108 45.0111 0.0000 -8.6599 0.0000
# 2 19.1108 150.4812 37.8106 0.0000 -26.8413 0.0000
# 3 45.0111 37.8106 111.7427 0.0000 -0.9169 0.0000
# 4 0.0000 0.0000 0.0000 50.1347 0.0000 3.9293
# 5 -8.6599 -26.8413 -0.9169 0.0000 49.6571 0.0000
# 6 0.0000 0.0000 0.0000 3.9293 0.0000 27.7551
#
#
#
# Elastic Compliance Matrix: (Units=1/GPa)
#
#
# Indices 1 2 3 4 5 6 
#
# 1 0.020818 0.000093 -0.008388 0.000000 0.003526 0.000000
# 2 0.000093 0.008097 -0.002741 0.000000 0.004342 0.000000
# 3 -0.008388 -0.002741 0.013233 0.000000 -0.002700 0.000000
# 4 0.000000 0.000000 0.000000 0.020170 0.000000 -0.002855
# 5 0.003526 0.004342 -0.002700 0.000000 0.023050 0.000000
# 6 0.000000 0.000000 0.000000 -0.002855 0.000000 0.036434
#
#
# Mechanical properties :
#
#
# Convention : Reuss Voigt Hill
#
# Bulk Modulus (GPa) = 49.81449 59.29358 54.55403
# Shear Modulus (GPa) = 33.20772 40.69904 36.95338
#
# Velocity S-wave (km/s) = 3.61349 4.00036 3.81184
# Velocity P-wave (km/s) = 6.08251 6.68218 6.38938
#
# Compressibility (1/GPa) = 0.02007448
#
# Stress axis : x y z
#
# Youngs Moduli (GPa) = 48.03559 123.50357 75.56632
#
# Poissons Ratio (x) = -0.01145 0.63386
# Poissons Ratio (y) = -0.00445 0.20716
# Poissons Ratio (z) = 0.40293 0.33858
#
# Static dielectric constant tensor:
#      x y z
#    x 2.207110 0.000000 0.052620 
#    y 0.000000 1.612830 0.000000 
#    z 0.052620 0.000000 2.018930 
# 
# From -- ./inp_files/271574.got.cif
#   From: 2010.05.17/outbox.cif.g08.bks.cpg/sg15_136_cif.got.tgz:271574.got - 2010.06.03 18:47:42.
