data_PCOD9296443
_publ_section_title
;
Structure prediction by ZEFSAII (Michael W. Deem and Ramdas Pophale) SiO2 
 PCOD9296443
Probable space group: C 2/C
;
_chemical_formula_sum "Si O2"
_cell_formula_units_Z 40
_cell_length_a 12.106182
_cell_length_b 14.793993
_cell_length_c 8.602116
_cell_angle_alpha 90.000000
_cell_angle_beta 91.218664
_cell_angle_gamma 90.000000
_cell_volume 1540.279933
_symmetry_space_group_name_H-M "C 2/C"
_symmetry_group_IT_number 15
_symmetry_cell_setting 'monoclinic'
loop_
_space_group_symop_operation_xyz
x,y,z
-x,y,1/2-z
-x,-y,-z
x,-y,1/2+z
1/2+x,1/2+y,z
1/2-x,1/2+y,1/2-z
1/2-x,1/2-y,-z
1/2+x,1/2-y,1/2+z
loop_
_atom_site_type_symbol
_atom_site_label
_atom_site_fract_x
_atom_site_fract_y
_atom_site_fract_z
Si Si1 0.129937 0.162176 0.757235
Si Si2 0.593105 0.276952 0.933254
Si Si3 0.743393 0.986649 0.743187
Si Si4 0.851213 0.822750 0.906123
Si Si5 0.092204 0.426002 0.467733
O O1 0.164210 0.191926 0.584245
O O2 0.000000 0.180416 0.750000
O O3 0.158025 0.056732 0.781446
O O4 0.173826 0.209448 0.916504
O O5 0.549994 0.175898 0.967139
O O6 0.484675 0.340803 0.923375
O O7 0.647117 0.274919 0.763829
O O8 0.780283 0.912214 0.869031
O O9 0.690892 0.936729 0.595223
O O10 0.645601 0.049044 0.805576
O O11 0.000000 0.500000 0.500000
#
# Coordination Sequence:
#
# PCOD9296443 Si02
#       5
#     8   8   8   8   8
#     4  10  23  44  77 114 156 188 252 324 386 449
#     4  10  25  48  74 108 154 201 246 318 386 453
#     4  12  25  46  76 114 145 204 257 311 384 466
#     4  10  23  44  76 113 144 192 255 314 380 448
#     4  12  29  51  72 106 158 206 257 316 384 459
#
# _framework density 25.969304000000001
#
# number of rings (size 3 to 8) (size 9 to 14) (size 15 to 20)
#    0.000    1.200    2.000    1.800    8.400    9.600 
#    0.000    3.000    0.000    0.000    0.000    0.000 
#    0.000    0.000    0.000    0.000    0.000    0.000 
#
# Total GULP energy -111807.694499 kJ/mol
# GULP energy per Si atom -5590.384725 kJ/mol
# Density = 2.591020 g / cm^3
# Si number density = 25.969304 Si / 1000 Ang^3
#
#
#
# Elastic Constant Matrix: (Units=GPa)
#
#
# Indices 1 2 3 4 5 6 
#
# 1 45.1373 8.5480 38.3776 0.0000 9.9834 0.0000
# 2 8.5480 79.3229 20.5558 0.0000 14.8312 0.0000
# 3 38.3776 20.5558 251.6424 0.0000 16.8597 0.0000
# 4 0.0000 0.0000 0.0000 39.9932 0.0000 5.6777
# 5 9.9834 14.8312 16.8597 0.0000 52.6505 0.0000
# 6 0.0000 0.0000 0.0000 5.6777 0.0000 30.9765
#
#
#
# Elastic Compliance Matrix: (Units=1/GPa)
#
#
# Indices 1 2 3 4 5 6 
#
# 1 0.026278 -0.001233 -0.003675 0.000000 -0.003459 0.000000
# 2 -0.001233 0.013548 -0.000694 0.000000 -0.003360 0.000000
# 3 -0.003675 -0.000694 0.004631 0.000000 -0.000591 0.000000
# 4 0.000000 0.000000 0.000000 0.025672 0.000000 -0.004705
# 5 -0.003459 -0.003360 -0.000591 0.000000 0.020785 0.000000
# 6 0.000000 0.000000 0.000000 -0.004705 0.000000 0.033145
#
#
# Mechanical properties :
#
#
# Convention : Reuss Voigt Hill
#
# Bulk Modulus (GPa) = 30.07229 56.78505 43.42867
# Shear Modulus (GPa) = 34.16579 45.29877 39.73228
#
# Velocity S-wave (km/s) = 3.63109 4.18104 3.91573
# Velocity P-wave (km/s) = 5.40229 6.72471 6.09945
#
# Compressibility (1/GPa) = 0.03325321
#
# Stress axis : x y z
#
# Youngs Moduli (GPa) = 38.05489 73.81400 215.95438
#
# Poissons Ratio (x) = 0.09099 0.79367
# Poissons Ratio (y) = 0.04691 0.14977
# Poissons Ratio (z) = 0.13986 0.05119
#
# Static dielectric constant tensor:
#      x y z
#    x 2.046000 0.000000 -0.030990 
#    y 0.000000 2.045780 0.000000 
#    z -0.030990 0.000000 2.089080 
# 
# From -- ./inp_files/29363.got.cif
#   From: 2010.05.17/outbox.cif.g08.bks.cpg/sg15_15_cif.got.tgz:29363.got - 2010.06.03 18:47:42.
