data_PCOD9296860
_publ_section_title
;
Structure prediction by ZEFSAII (Michael W. Deem and Ramdas Pophale) SiO2 
 PCOD9296860
Probable space group: C 2/C
;
_chemical_formula_sum "Si O2"
_cell_formula_units_Z 52
_cell_length_a 19.718363
_cell_length_b 12.299198
_cell_length_c 9.728705
_cell_angle_alpha 90.000000
_cell_angle_beta 83.010062
_cell_angle_gamma 90.000000
_cell_volume 2341.869836
_symmetry_space_group_name_H-M "C 2/C"
_symmetry_group_IT_number 15
_symmetry_cell_setting 'monoclinic'
loop_
_space_group_symop_operation_xyz
x,y,z
-x,y,1/2-z
-x,-y,-z
x,-y,1/2+z
1/2+x,1/2+y,z
1/2-x,1/2+y,1/2-z
1/2-x,1/2-y,-z
1/2+x,1/2-y,1/2+z
loop_
_atom_site_type_symbol
_atom_site_label
_atom_site_fract_x
_atom_site_fract_y
_atom_site_fract_z
Si Si1 0.000000 0.621888 0.750000
Si Si2 0.667856 0.440041 0.489266
Si Si3 0.885548 0.610345 0.582483
Si Si4 0.740979 0.982191 0.775398
Si Si5 0.442254 0.256600 0.016137
Si Si6 0.621761 0.165000 0.212759
Si Si7 0.091663 0.163861 0.516426
O O1 0.057418 0.565528 0.828987
O O2 0.040088 0.694534 0.628029
O O3 0.702807 0.445491 0.629396
O O4 0.725474 0.454048 0.359126
O O5 0.622592 0.333533 0.484743
O O6 0.619354 0.545478 0.483491
O O7 0.813635 0.558141 0.633324
O O8 0.903353 0.598598 0.416283
O O9 0.884563 0.742262 0.596677
O O10 0.695626 0.881601 0.731844
O O11 0.425058 0.173341 0.142531
O O12 0.509868 0.325218 0.039266
O O13 0.622044 0.287695 0.150952
#
# Coordination Sequence:
#
# PCOD9296860 Si02
#       7
#     4   8   8   8   8   8   8
#     4  10  24  44  72 100 138 178 234 290 346 388
#     4  12  26  42  72 102 144 178 230 285 346 422
#     4   9  23  47  66  99 137 182 229 281 338 412
#     4  12  26  45  65 107 135 188 231 274 351 409
#     4  11  24  44  69 106 132 180 235 289 345 404
#     4  10  23  46  70  93 144 183 226 280 338 421
#     4   9  22  47  70  96 135 185 225 281 347 400
#
# _framework density 22.20448
#
# number of rings (size 3 to 8) (size 9 to 14) (size 15 to 20)
#    0.923    0.615    1.538    1.846    6.462    4.308 
#    5.538    2.308    0.000    0.000    0.000    0.000 
#    0.000    0.000    0.000    0.000    0.000    0.000 
#
# Total GULP energy -145254.253319 kJ/mol
# GULP energy per Si atom -5586.702051 kJ/mol
# Density = 2.215394 g / cm^3
# Si number density = 22.204480 Si / 1000 Ang^3
#
#
#
# Elastic Constant Matrix: (Units=GPa)
#
#
# Indices 1 2 3 4 5 6 
#
# 1 100.4559 31.4217 28.2679 0.0000 4.3239 0.0000
# 2 31.4217 53.7007 41.6159 0.0000 -2.2329 0.0000
# 3 28.2679 41.6159 127.4639 0.0000 -10.2516 0.0000
# 4 0.0000 0.0000 0.0000 6.5350 0.0000 -29.2542
# 5 4.3239 -2.2329 -10.2516 0.0000 42.4714 0.0000
# 6 0.0000 0.0000 0.0000 -29.2542 0.0000 -51.3479
#
#
#
# Elastic Compliance Matrix: (Units=1/GPa)
#
#
# Indices 1 2 3 4 5 6 
#
# 1 0.012338 -0.006777 -0.000666 0.000000 -0.001773 0.000000
# 2 -0.006777 0.028670 -0.007833 0.000000 0.000307 0.000000
# 3 -0.000666 -0.007833 0.010731 0.000000 0.002246 0.000000
# 4 0.000000 0.000000 0.000000 0.043100 0.000000 -0.024555
# 5 -0.001773 0.000307 0.002246 0.000000 0.024284 0.000000
# 6 0.000000 0.000000 0.000000 -0.024555 0.000000 -0.005485
#
#
# Mechanical properties :
#
#
# Convention : Reuss Voigt Hill
#
# Bulk Modulus (GPa) = 47.19818 53.80350 50.50084
# Shear Modulus (GPa) = 33.05726 11.55268 22.30497
#
# Velocity S-wave (km/s) = 3.86264 2.28345 3.17286
# Velocity P-wave (km/s) = 6.41838 5.58889 6.01795
#
# Compressibility (1/GPa) = 0.02118726
#
# Stress axis : x y z
#
# Youngs Moduli (GPa) = 81.04941 34.87969 93.18636
#
# Poissons Ratio (x) = 0.23637 0.06209
# Poissons Ratio (y) = 0.54925 0.72992
# Poissons Ratio (z) = 0.05400 0.27321
#
# Static dielectric constant tensor:
#      x y z
#    x 1.789480 0.000000 0.013190 
#    y 0.000000 1.809510 0.000000 
#    z 0.013190 0.000000 1.816940 
# 
# From -- ./inp_files/55337.got.cif
#   From: 2010.05.17/outbox.cif.g08.bks.cpg/sg15_28_cif.got.tgz:55337.got - 2010.06.03 18:47:42.
