data_PCOD9296563
_publ_section_title
;
Structure prediction by ZEFSAII (Michael W. Deem and Ramdas Pophale) SiO2 
 PCOD9296563
Probable space group: C 2/C
;
_chemical_formula_sum "Si O2"
_cell_formula_units_Z 36
_cell_length_a 5.151835
_cell_length_b 12.845016
_cell_length_c 20.391461
_cell_angle_alpha 90.000000
_cell_angle_beta 84.894175
_cell_angle_gamma 90.000000
_cell_volume 1344.058709
_symmetry_space_group_name_H-M "C 2/C"
_symmetry_group_IT_number 15
_symmetry_cell_setting 'monoclinic'
loop_
_space_group_symop_operation_xyz
x,y,z
-x,y,1/2-z
-x,-y,-z
x,-y,1/2+z
1/2+x,1/2+y,z
1/2-x,1/2+y,1/2-z
1/2-x,1/2-y,-z
1/2+x,1/2-y,1/2+z
loop_
_atom_site_type_symbol
_atom_site_label
_atom_site_fract_x
_atom_site_fract_y
_atom_site_fract_z
Si Si1 0.809202 0.405771 0.978881
Si Si2 0.308152 0.685327 0.432701
Si Si3 0.704072 0.837674 0.375354
Si Si4 0.771594 0.482124 0.711817
Si Si5 0.500000 0.775008 0.750000
O O1 0.532135 0.402230 0.945643
O O2 0.016896 0.352907 0.924734
O O3 0.736175 0.345074 0.047964
O O4 0.000000 0.500000 0.000000
O O5 0.250000 0.750000 0.500000
O O6 0.441606 0.768831 0.382121
O O7 0.873223 0.789287 0.312323
O O8 0.693245 0.959011 0.356491
O O9 0.500000 0.506802 0.750000
O O10 0.000000 0.530709 0.750000
O O11 0.192939 0.358858 0.780501
#
# Coordination Sequence:
#
# PCOD9296563 Si02
#       5
#     8   8   8   8   4
#     4  11  25  44  73 108 140 188 247 296 368 436
#     4  10  23  45  68 105 136 187 234 296 366 422
#     4  11  23  47  74 100 151 184 238 305 358 434
#     4  10  25  46  66 104 139 190 246 283 361 434
#     4  10  26  48  70 106 144 194 242 292 372 432
#
# _framework density 26.784545000000001
#
# number of rings (size 3 to 8) (size 9 to 14) (size 15 to 20)
#    0.667    0.889    1.111    3.333    3.111    8.000 
#    8.000    0.000    0.000    0.000    0.000    0.000 
#    0.000    0.000    0.000    0.000    0.000    0.000 
#
# Total GULP energy -100335.705440 kJ/mol
# GULP energy per Si atom -5574.205858 kJ/mol
# Density = 2.672358 g / cm^3
# Si number density = 26.784545 Si / 1000 Ang^3
#
#
#
# Elastic Constant Matrix: (Units=GPa)
#
#
# Indices 1 2 3 4 5 6 
#
# 1 190.3675 46.6406 63.1278 0.0000 -20.9921 0.0000
# 2 46.6406 125.7498 74.3985 0.0000 -18.6040 0.0000
# 3 63.1278 74.3985 179.6575 0.0000 -39.0809 0.0000
# 4 0.0000 0.0000 0.0000 63.9994 0.0000 -18.2827
# 5 -20.9921 -18.6040 -39.0809 0.0000 43.3677 0.0000
# 6 0.0000 0.0000 0.0000 -18.2827 0.0000 33.5708
#
#
#
# Elastic Compliance Matrix: (Units=1/GPa)
#
#
# Indices 1 2 3 4 5 6 
#
# 1 0.006156 -0.001299 -0.001366 0.000000 0.001192 0.000000
# 2 -0.001299 0.010826 -0.003922 0.000000 0.000481 0.000000
# 3 -0.001366 -0.003922 0.008906 0.000000 0.005682 0.000000
# 4 0.000000 0.000000 0.000000 0.018504 0.000000 0.010077
# 5 0.001192 0.000481 0.005682 0.000000 0.028962 0.000000
# 6 0.000000 0.000000 0.000000 0.010077 0.000000 0.035276
#
#
# Mechanical properties :
#
#
# Convention : Reuss Voigt Hill
#
# Bulk Modulus (GPa) = 78.65246 96.01208 87.33227
# Shear Modulus (GPa) = 39.66964 48.96144 44.31554
#
# Velocity S-wave (km/s) = 3.85264 4.28012 4.07199
# Velocity P-wave (km/s) = 7.01563 7.76851 7.40165
#
# Compressibility (1/GPa) = 0.01271416
#
# Stress axis : x y z
#
# Youngs Moduli (GPa) = 162.45568 92.37388 112.27943
#
# Poissons Ratio (x) = 0.11996 0.15336
# Poissons Ratio (y) = 0.21098 0.44037
# Poissons Ratio (z) = 0.22190 0.36230
#
# Static dielectric constant tensor:
#      x y z
#    x 2.100050 0.000000 0.086120 
#    y 0.000000 2.273720 0.000000 
#    z 0.086120 0.000000 2.078010 
# 
# From -- ./inp_files/226433.got.cif
#   From: 2010.05.17/outbox.cif.g08.bks.cpg/sg15_114_cif.got.tgz:226433.got - 2010.06.03 18:47:42.
