data_PCOD9296127
_publ_section_title
;
Structure prediction by ZEFSAII (Michael W. Deem and Ramdas Pophale) SiO2 
 PCOD9296127
Probable space group: C 2/C
;
_chemical_formula_sum "Si O2"
_cell_formula_units_Z 24
_cell_length_a 7.323142
_cell_length_b 10.942972
_cell_length_c 12.683891
_cell_angle_alpha 90.000000
_cell_angle_beta 82.534613
_cell_angle_gamma 90.000000
_cell_volume 1007.832295
_symmetry_space_group_name_H-M "C 2/C"
_symmetry_group_IT_number 15
_symmetry_cell_setting 'monoclinic'
loop_
_space_group_symop_operation_xyz
x,y,z
-x,y,1/2-z
-x,-y,-z
x,-y,1/2+z
1/2+x,1/2+y,z
1/2-x,1/2+y,1/2-z
1/2-x,1/2-y,-z
1/2+x,1/2-y,1/2+z
loop_
_atom_site_type_symbol
_atom_site_label
_atom_site_fract_x
_atom_site_fract_y
_atom_site_fract_z
Si Si1 0.735903 0.276859 0.668922
Si Si2 0.938997 0.312136 0.020598
Si Si3 0.810474 0.533728 0.703598
O O1 0.562380 0.245414 0.606605
O O2 0.703328 0.407785 0.725118
O O3 0.768633 0.158771 0.740095
O O4 0.918763 0.300899 0.586099
O O5 0.862299 0.436941 0.078621
O O6 0.750000 0.250000 0.000000
O O7 0.000000 0.512977 0.750000
#
# Coordination Sequence:
#
# PCOD9296127 Si02
#       3
#     8   8   8
#     4  10  23  47  68  97 140 177 223 284 337 397
#     4  10  23  44  68 102 132 182 226 276 336 408
#     4  10  23  44  69 100 138 178 226 282 335 400
#
# _framework density 23.813485
#
# number of rings (size 3 to 8) (size 9 to 14) (size 15 to 20)
#    0.000    2.000    0.000    1.000    4.667    1.333 
#   18.000    0.000    0.000    0.000    0.000    0.000 
#    0.000    0.000    0.000    0.000    0.000    0.000 
#
# Total GULP energy -66996.806737 kJ/mol
# GULP energy per Si atom -5583.067228 kJ/mol
# Density = 2.375928 g / cm^3
# Si number density = 23.813485 Si / 1000 Ang^3
#
#
#
# Elastic Constant Matrix: (Units=GPa)
#
#
# Indices 1 2 3 4 5 6 
#
# 1 137.0778 38.7977 13.1112 0.0000 -8.3614 0.0000
# 2 38.7977 216.4099 50.9792 0.0000 -17.8085 0.0000
# 3 13.1112 50.9792 66.7843 0.0000 -20.3666 0.0000
# 4 0.0000 0.0000 0.0000 19.7236 0.0000 -10.9738
# 5 -8.3614 -17.8085 -20.3666 0.0000 32.2437 0.0000
# 6 0.0000 0.0000 0.0000 -10.9738 0.0000 29.1877
#
#
#
# Elastic Compliance Matrix: (Units=1/GPa)
#
#
# Indices 1 2 3 4 5 6 
#
# 1 0.007739 -0.001240 -0.000210 0.000000 0.001189 0.000000
# 2 -0.001240 0.005839 -0.004122 0.000000 0.000299 0.000000
# 3 -0.000210 -0.004122 0.021614 0.000000 0.011321 0.000000
# 4 0.000000 0.000000 0.000000 0.064112 0.000000 0.024104
# 5 0.001189 0.000299 0.011321 0.000000 0.038639 0.000000
# 6 0.000000 0.000000 0.000000 0.024104 0.000000 0.043323
#
#
# Mechanical properties :
#
#
# Convention : Reuss Voigt Hill
#
# Bulk Modulus (GPa) = 41.58532 69.56093 55.57313
# Shear Modulus (GPa) = 24.94689 37.38993 31.16841
#
# Velocity S-wave (km/s) = 3.24017 3.96677 3.62174
# Velocity P-wave (km/s) = 5.61241 7.08904 6.39350
#
# Compressibility (1/GPa) = 0.02404695
#
# Stress axis : x y z
#
# Youngs Moduli (GPa) = 129.22009 171.26518 46.26617
#
# Poissons Ratio (x) = 0.21238 0.00972
# Poissons Ratio (y) = 0.16024 0.19072
# Poissons Ratio (z) = 0.02714 0.70601
#
# Static dielectric constant tensor:
#      x y z
#    x 1.855370 0.000000 -0.057820 
#    y 0.000000 1.996720 0.000000 
#    z -0.057820 0.000000 1.992390 
# 
# From -- ./inp_files/131147.got.cif
#   From: 2010.05.17/outbox.cif.g08.bks.cpg/sg15_66_cif.got.tgz:131147.got - 2010.06.03 18:47:42.
