data_PCOD9296206
_publ_section_title
;
Structure prediction by ZEFSAII (Michael W. Deem and Ramdas Pophale) SiO2 
 PCOD9296206
Probable space group: C 2/C
;
_chemical_formula_sum "Si O2"
_cell_formula_units_Z 48
_cell_length_a 11.306617
_cell_length_b 10.610695
_cell_length_c 22.119716
_cell_angle_alpha 90.000000
_cell_angle_beta 136.146696
_cell_angle_gamma 90.000000
_cell_volume 1838.539366
_symmetry_space_group_name_H-M "C 2/C"
_symmetry_group_IT_number 15
_symmetry_cell_setting 'monoclinic'
loop_
_space_group_symop_operation_xyz
x,y,z
-x,y,1/2-z
-x,-y,-z
x,-y,1/2+z
1/2+x,1/2+y,z
1/2-x,1/2+y,1/2-z
1/2-x,1/2-y,-z
1/2+x,1/2-y,1/2+z
loop_
_atom_site_type_symbol
_atom_site_label
_atom_site_fract_x
_atom_site_fract_y
_atom_site_fract_z
Si Si1 0.334158 0.457714 0.147615
Si Si2 0.317991 0.780325 0.860420
Si Si3 0.346082 0.704668 0.444334
Si Si4 0.562680 0.596834 0.426894
Si Si5 0.011901 0.614854 0.182947
Si Si6 0.097866 0.347989 0.369105
O O1 0.500000 0.441873 0.250000
O O2 0.234036 0.584195 0.130185
O O3 0.210971 0.338155 0.104892
O O4 0.406701 0.481455 0.106671
O O5 0.349775 0.805018 0.801874
O O6 0.175663 0.684778 0.831996
O O7 0.493646 0.733604 0.954760
O O8 0.409698 0.602093 0.418450
O O9 0.174573 0.653320 0.410791
O O10 0.737053 0.619236 0.528260
O O11 0.531835 0.718417 0.372998
O O12 0.026130 0.466658 0.175401
O O13 0.000000 0.636558 0.250000
#
# Coordination Sequence:
#
# PCOD9296206 Si02
#       6
#     8   8   8   8   8   8
#     4  11  23  40  66  98 131 173 222 283 340 400
#     4  10  23  44  69  92 130 179 228 271 330 407
#     4  11  23  42  67  96 133 178 223 276 328 412
#     4   9  20  40  69  94 123 170 230 266 324 399
#     4  12  26  41  61 102 140 172 217 280 352 401
#     4   9  20  42  68  93 124 175 222 273 322 401
#
# _framework density 26.107682
#
# number of rings (size 3 to 8) (size 9 to 14) (size 15 to 20)
#    0.000    1.667    0.000    4.500    2.333    6.667 
#    3.000    0.000    0.000    0.000    0.000    0.000 
#    0.000    0.000    0.000    0.000    0.000    0.000 
#
# Total GULP energy -134580.043455 kJ/mol
# GULP energy per Si atom -5607.501811 kJ/mol
# Density = 2.604826 g / cm^3
# Si number density = 26.107682 Si / 1000 Ang^3
#
#
#
# Elastic Constant Matrix: (Units=GPa)
#
#
# Indices 1 2 3 4 5 6 
#
# 1 117.8982 15.5943 53.4935 0.0000 -22.1537 0.0000
# 2 15.5943 77.6475 36.7449 0.0000 -10.1196 0.0000
# 3 53.4935 36.7449 113.5206 0.0000 3.6227 0.0000
# 4 0.0000 0.0000 0.0000 29.4407 0.0000 -6.0113
# 5 -22.1537 -10.1196 3.6227 0.0000 43.5082 0.0000
# 6 0.0000 0.0000 0.0000 -6.0113 0.0000 30.2315
#
#
#
# Elastic Compliance Matrix: (Units=1/GPa)
#
#
# Indices 1 2 3 4 5 6 
#
# 1 0.012728 0.001607 -0.006754 0.000000 0.007417 0.000000
# 2 0.001607 0.016123 -0.006138 0.000000 0.005079 0.000000
# 3 -0.006754 -0.006138 0.014172 0.000000 -0.006047 0.000000
# 4 0.000000 0.000000 0.000000 0.035404 0.000000 0.007040
# 5 0.007417 0.005079 -0.006047 0.000000 0.028446 0.000000
# 6 0.000000 0.000000 0.000000 0.007040 0.000000 0.034478
#
#
# Mechanical properties :
#
#
# Convention : Reuss Voigt Hill
#
# Bulk Modulus (GPa) = 48.89766 57.85906 53.37836
# Shear Modulus (GPa) = 29.28478 34.18498 31.73488
#
# Velocity S-wave (km/s) = 3.35280 3.62247 3.49024
# Velocity P-wave (km/s) = 5.81018 6.30128 6.06071
#
# Compressibility (1/GPa) = 0.02045088
#
# Stress axis : x y z
#
# Youngs Moduli (GPa) = 78.56897 62.02477 70.56414
#
# Poissons Ratio (x) = -0.09966 0.47662
# Poissons Ratio (y) = -0.12625 0.43312
# Poissons Ratio (z) = 0.53068 0.38070
#
# Static dielectric constant tensor:
#      x y z
#    x 2.003300 0.000000 -0.045380 
#    y 0.000000 2.014750 0.000000 
#    z -0.045380 0.000000 2.052670 
# 
# From -- ./inp_files/237719.got.cif
#   From: 2010.05.17/outbox.cif.g08.bks.cpg/sg15_119_cif.got.tgz:237719.got - 2010.06.03 18:47:42.
