data_PCOD9296138
_publ_section_title
;
Structure prediction by ZEFSAII (Michael W. Deem and Ramdas Pophale) SiO2 
 PCOD9296138
Probable space group: C 2/C
;
_chemical_formula_sum "Si O2"
_cell_formula_units_Z 44
_cell_length_a 16.658682
_cell_length_b 14.297537
_cell_length_c 7.967034
_cell_angle_alpha 90.000000
_cell_angle_beta 63.212832
_cell_angle_gamma 90.000000
_cell_volume 1693.938498
_symmetry_space_group_name_H-M "C 2/C"
_symmetry_group_IT_number 15
_symmetry_cell_setting 'monoclinic'
loop_
_space_group_symop_operation_xyz
x,y,z
-x,y,1/2-z
-x,-y,-z
x,-y,1/2+z
1/2+x,1/2+y,z
1/2-x,1/2+y,1/2-z
1/2-x,1/2-y,-z
1/2+x,1/2-y,1/2+z
loop_
_atom_site_type_symbol
_atom_site_label
_atom_site_fract_x
_atom_site_fract_y
_atom_site_fract_z
Si Si1 0.193957 0.019101 0.019477
Si Si2 0.529927 0.897297 0.530885
Si Si3 0.500000 0.435535 0.250000
Si Si4 0.267026 0.690225 0.312871
Si Si5 0.020446 0.199319 0.421029
Si Si6 0.757569 0.634529 0.647818
O O1 0.245996 0.085165 0.105895
O O2 0.237431 0.916187 0.991261
O O3 0.205340 0.073362 0.836064
O O4 0.089558 0.997126 0.148689
O O5 0.500000 0.888105 0.750000
O O6 0.488871 0.806847 0.475995
O O7 0.637188 0.883071 0.416435
O O8 0.500000 0.000000 0.500000
O O9 0.512090 0.368656 0.400730
O O10 0.250000 0.750000 0.500000
O O11 0.372103 0.693010 0.169377
O O12 0.225776 0.759243 0.209977
O O13 0.000000 0.174759 0.250000
#
# Coordination Sequence:
#
# PCOD9296138 Si02
#       6
#     8   8   4   8   8   8
#     4  11  24  45  70 106 149 194 252 308 376 456
#     4  11  22  43  72 108 149 196 259 310 378 456
#     4  12  28  46  74 116 148 202 260 304 384 462
#     4   9  22  42  69  99 142 194 249 296 377 446
#     4  11  25  45  70 106 151 191 248 312 374 445
#     4  10  23  44  68 104 148 194 248 310 383 446
#
# _framework density 25.974968000000001
#
# number of rings (size 3 to 8) (size 9 to 14) (size 15 to 20)
#    0.000    1.455    0.909    2.727    6.364    4.364 
#    0.000    6.364    0.000    0.000    0.000    0.000 
#    0.000    0.000    0.000    0.000    0.000    0.000 
#
# Total GULP energy -123105.613795 kJ/mol
# GULP energy per Si atom -5595.709718 kJ/mol
# Density = 2.591585 g / cm^3
# Si number density = 25.974968 Si / 1000 Ang^3
#
#
#
# Elastic Constant Matrix: (Units=GPa)
#
#
# Indices 1 2 3 4 5 6 
#
# 1 72.3636 38.2018 24.5336 0.0000 0.2368 0.0000
# 2 38.2018 223.2851 59.9946 0.0000 11.9420 0.0000
# 3 24.5336 59.9946 148.3338 0.0000 5.8359 0.0000
# 4 0.0000 0.0000 0.0000 -26.0295 0.0000 -15.7568
# 5 0.2368 11.9420 5.8359 0.0000 52.4278 0.0000
# 6 0.0000 0.0000 0.0000 -15.7568 0.0000 35.5074
#
#
#
# Elastic Compliance Matrix: (Units=1/GPa)
#
#
# Indices 1 2 3 4 5 6 
#
# 1 0.015576 -0.002243 -0.001693 0.000000 0.000629 0.000000
# 2 -0.002243 0.005393 -0.001770 0.000000 -0.001021 0.000000
# 3 -0.001693 -0.001770 0.007755 0.000000 -0.000452 0.000000
# 4 0.000000 0.000000 0.000000 -0.030283 0.000000 -0.013438
# 5 0.000629 -0.001021 -0.000452 0.000000 0.019354 0.000000
# 6 0.000000 0.000000 0.000000 -0.013438 0.000000 0.022200
#
#
# Mechanical properties :
#
#
# Convention : Reuss Voigt Hill
#
# Bulk Modulus (GPa) = 57.77057 76.60472 67.18764
# Shear Modulus (GPa) = 87.44700 33.79795 60.62248
#
# Velocity S-wave (km/s) = 5.80852 3.61109 4.83627
# Velocity P-wave (km/s) = 8.20210 6.85145 7.55701
#
# Compressibility (1/GPa) = 0.01730985
#
# Stress axis : x y z
#
# Youngs Moduli (GPa) = 64.20324 185.44061 128.94463
#
# Poissons Ratio (x) = 0.41603 0.21837
# Poissons Ratio (y) = 0.14404 0.22821
# Poissons Ratio (z) = 0.10873 0.32820
#
# Static dielectric constant tensor:
#      x y z
#    x 1.778880 0.000000 -0.077680 
#    y 0.000000 2.130220 0.000000 
#    z -0.077680 0.000000 1.962570 
# 
# From -- ./inp_files/47421.got.cif
#   From: 2010.05.17/outbox.cif.g08.bks.cpg/sg15_24_cif.got.tgz:47421.got - 2010.06.03 18:47:42.
