data_PCOD9296109
_publ_section_title
;
Structure prediction by ZEFSAII (Michael W. Deem and Ramdas Pophale) SiO2 
 PCOD9296109
Probable space group: C 2/C
;
_chemical_formula_sum "Si O2"
_cell_formula_units_Z 40
_cell_length_a 19.916742
_cell_length_b 10.316860
_cell_length_c 10.990039
_cell_angle_alpha 90.000000
_cell_angle_beta 137.397797
_cell_angle_gamma 90.000000
_cell_volume 1528.594608
_symmetry_space_group_name_H-M "C 2/C"
_symmetry_group_IT_number 15
_symmetry_cell_setting 'monoclinic'
loop_
_space_group_symop_operation_xyz
x,y,z
-x,y,1/2-z
-x,-y,-z
x,-y,1/2+z
1/2+x,1/2+y,z
1/2-x,1/2+y,1/2-z
1/2-x,1/2-y,-z
1/2+x,1/2-y,1/2+z
loop_
_atom_site_type_symbol
_atom_site_label
_atom_site_fract_x
_atom_site_fract_y
_atom_site_fract_z
Si Si1 0.672876 0.507016 0.295290
Si Si2 0.607235 0.909057 0.348734
Si Si3 0.643817 0.746057 0.616558
Si Si4 0.566130 0.233211 0.562084
Si Si5 0.181608 0.822085 0.507136
O O1 0.788944 0.525339 0.481829
O O2 0.667113 0.401804 0.179055
O O3 0.606311 0.630610 0.172396
O O4 0.634411 0.438851 0.369002
O O5 0.500000 0.963238 0.250000
O O6 0.615748 0.776959 0.441166
O O7 0.607709 0.877330 0.206589
O O8 0.550586 0.778301 0.576818
O O9 0.735145 0.838198 0.776460
O O10 0.601946 0.236352 0.472082
O O11 0.250000 0.750000 0.500000
#
# Coordination Sequence:
#
# PCOD9296109 Si02
#       5
#     8   8   8   8   8
#     4  11  23  40  67  96 130 171 218 264 322 389
#     4  10  23  44  67  97 131 173 217 267 329 390
#     4  10  23  45  65  99 131 169 219 271 327 384
#     4  11  23  42  69  93 133 170 216 273 324 379
#     4  10  24  42  62  97 134 168 215 270 323 381
#
# _framework density 26.167826000000002
#
# number of rings (size 3 to 8) (size 9 to 14) (size 15 to 20)
#    0.000    1.600    2.000    1.200    2.800    4.800 
#   10.800    2.000    0.000    0.000    0.000    0.000 
#    0.000    0.000    0.000    0.000    0.000    0.000 
#
# Total GULP energy -111830.514011 kJ/mol
# GULP energy per Si atom -5591.525701 kJ/mol
# Density = 2.610827 g / cm^3
# Si number density = 26.167826 Si / 1000 Ang^3
#
#
#
# Elastic Constant Matrix: (Units=GPa)
#
#
# Indices 1 2 3 4 5 6 
#
# 1 129.7406 5.9095 2.0796 0.0000 -15.9365 0.0000
# 2 5.9095 59.4503 8.7196 0.0000 0.4498 0.0000
# 3 2.0796 8.7196 75.8280 0.0000 7.9754 0.0000
# 4 0.0000 0.0000 0.0000 45.2362 0.0000 -2.1872
# 5 -15.9365 0.4498 7.9754 0.0000 36.3266 0.0000
# 6 0.0000 0.0000 0.0000 -2.1872 0.0000 11.6996
#
#
#
# Elastic Compliance Matrix: (Units=1/GPa)
#
#
# Indices 1 2 3 4 5 6 
#
# 1 0.008209 -0.000767 -0.000529 0.000000 0.003727 0.000000
# 2 -0.000767 0.017183 -0.001942 0.000000 -0.000123 0.000000
# 3 -0.000529 -0.001942 0.013765 0.000000 -0.003230 0.000000
# 4 0.000000 0.000000 0.000000 0.022308 0.000000 0.004170
# 5 0.003727 -0.000123 -0.003230 0.000000 0.029874 0.000000
# 6 0.000000 0.000000 0.000000 0.004170 0.000000 0.086252
#
#
# Mechanical properties :
#
#
# Convention : Reuss Voigt Hill
#
# Bulk Modulus (GPa) = 30.59800 33.15960 31.87880
# Shear Modulus (GPa) = 25.64632 35.20649 30.42641
#
# Velocity S-wave (km/s) = 3.13400 3.67196 3.41360
# Velocity P-wave (km/s) = 4.98140 5.53870 5.26742
#
# Compressibility (1/GPa) = 0.03268188
#
# Stress axis : x y z
#
# Youngs Moduli (GPa) = 121.81951 58.19795 72.64650
#
# Poissons Ratio (x) = 0.04461 0.03843
# Poissons Ratio (y) = 0.09339 0.14108
# Poissons Ratio (z) = 0.06444 0.11302
#
# Static dielectric constant tensor:
#      x y z
#    x 2.083870 0.000000 -0.058800 
#    y 0.000000 2.116270 0.000000 
#    z -0.058800 0.000000 2.072300 
# 
# From -- ./inp_files/111883.got.cif
#   From: 2010.05.17/outbox.cif.g08.bks.cpg/sg15_56_cif.got.tgz:111883.got - 2010.06.03 18:47:42.
