data_PCOD9296033
_publ_section_title
;
Structure prediction by ZEFSAII (Michael W. Deem and Ramdas Pophale) SiO2 
 PCOD9296033
Probable space group: C 2/C
;
_chemical_formula_sum "Si O2"
_cell_formula_units_Z 24
_cell_length_a 21.917806
_cell_length_b 7.072758
_cell_length_c 12.311291
_cell_angle_alpha 90.000000
_cell_angle_beta 31.019302
_cell_angle_gamma 90.000000
_cell_volume 983.495127
_symmetry_space_group_name_H-M "C 2/C"
_symmetry_group_IT_number 15
_symmetry_cell_setting 'monoclinic'
loop_
_space_group_symop_operation_xyz
x,y,z
-x,y,1/2-z
-x,-y,-z
x,-y,1/2+z
1/2+x,1/2+y,z
1/2-x,1/2+y,1/2-z
1/2-x,1/2-y,-z
1/2+x,1/2-y,1/2+z
loop_
_atom_site_type_symbol
_atom_site_label
_atom_site_fract_x
_atom_site_fract_y
_atom_site_fract_z
Si Si1 0.346953 0.757987 0.947890
Si Si2 0.493645 0.721527 0.991736
Si Si3 0.318923 0.997580 0.691132
O O1 0.308906 0.575773 0.077020
O O2 0.322702 0.936893 0.061338
O O3 0.250000 0.750000 0.000000
O O4 0.465142 0.758350 0.696194
O O5 0.585350 0.832682 0.929656
O O6 0.500000 0.500000 0.000000
O O7 0.367659 0.827114 0.188982
#
# Coordination Sequence:
#
# PCOD9296033 Si02
#       3
#     8   8   8
#     4  10  23  44  66  99 138 174 233 280 342 417
#     4  10  23  46  69 100 135 183 235 286 343 412
#     4  10  23  44  66 100 139 176 231 283 348 408
#
# _framework density 24.402764999999999
#
# number of rings (size 3 to 8) (size 9 to 14) (size 15 to 20)
#    0.000    2.000    0.000    1.000    9.333    1.333 
#   18.000    0.000    0.000    0.000    0.000    0.000 
#    0.000    0.000    0.000    0.000    0.000    0.000 
#
# Total GULP energy -67073.839037 kJ/mol
# GULP energy per Si atom -5589.486586 kJ/mol
# Density = 2.434722 g / cm^3
# Si number density = 24.402765 Si / 1000 Ang^3
#
#
#
# Elastic Constant Matrix: (Units=GPa)
#
#
# Indices 1 2 3 4 5 6 
#
# 1 97.9329 52.2925 23.6721 0.0000 27.5491 0.0000
# 2 52.2925 178.2156 30.6641 -0.0001 11.7246 0.0000
# 3 23.6721 30.6641 106.7611 0.0000 11.9125 0.0000
# 4 0.0000 -0.0001 0.0000 46.9299 0.0000 12.4286
# 5 27.5491 11.7246 11.9125 0.0000 50.7269 0.0000
# 6 0.0000 0.0000 0.0000 12.4286 0.0000 59.2083
#
#
#
# Elastic Compliance Matrix: (Units=1/GPa)
#
#
# Indices 1 2 3 4 5 6 
#
# 1 0.014292 -0.003514 -0.001422 0.000000 -0.006616 0.000000
# 2 -0.003514 0.006816 -0.001248 0.000000 0.000626 0.000000
# 3 -0.001422 -0.001248 0.010189 0.000000 -0.001332 0.000000
# 4 0.000000 0.000000 0.000000 0.022563 0.000000 -0.004736
# 5 -0.006616 0.000626 -0.001332 0.000000 0.023475 0.000000
# 6 0.000000 0.000000 0.000000 -0.004736 0.000000 0.017884
#
#
# Mechanical properties :
#
#
# Convention : Reuss Voigt Hill
#
# Bulk Modulus (GPa) = 52.82755 66.24077 59.53416
# Shear Modulus (GPa) = 43.90007 49.79174 46.84590
#
# Velocity S-wave (km/s) = 4.24604 4.52199 4.38619
# Velocity P-wave (km/s) = 6.76267 7.38026 7.07820
#
# Compressibility (1/GPa) = 0.01892952
#
# Stress axis : x y z
#
# Youngs Moduli (GPa) = 69.96942 146.71778 98.14393
#
# Poissons Ratio (x) = 0.51553 0.13951
# Poissons Ratio (y) = 0.24585 0.12252
# Poissons Ratio (z) = 0.09946 0.18316
#
# Static dielectric constant tensor:
#      x y z
#    x 2.114250 0.000000 -0.092580 
#    y 0.000000 1.942060 0.000000 
#    z -0.092580 0.000000 2.031860 
# 
# From -- ./inp_files/36077.got.cif
#   From: 2010.05.17/outbox.cif.g08.bks.cpg/sg15_19_cif.got.tgz:36077.got - 2010.06.03 18:47:42.
