data_PCOD9296001
_publ_section_title
;
Structure prediction by ZEFSAII (Michael W. Deem and Ramdas Pophale) SiO2 
 PCOD9296001
Probable space group: C 2/C
;
_chemical_formula_sum "Si O2"
_cell_formula_units_Z 56
_cell_length_a 5.938610
_cell_length_b 17.030869
_cell_length_c 29.179953
_cell_angle_alpha 90.000000
_cell_angle_beta 118.171896
_cell_angle_gamma 90.000000
_cell_volume 2601.631777
_symmetry_space_group_name_H-M "C 2/C"
_symmetry_group_IT_number 15
_symmetry_cell_setting 'monoclinic'
loop_
_space_group_symop_operation_xyz
x,y,z
-x,y,1/2-z
-x,-y,-z
x,-y,1/2+z
1/2+x,1/2+y,z
1/2-x,1/2+y,1/2-z
1/2-x,1/2-y,-z
1/2+x,1/2-y,1/2+z
loop_
_atom_site_type_symbol
_atom_site_label
_atom_site_fract_x
_atom_site_fract_y
_atom_site_fract_z
Si Si1 0.574142 0.201884 0.877849
Si Si2 0.416191 0.048666 0.095913
Si Si3 0.556935 0.102216 0.550534
Si Si4 0.809767 0.192693 0.277213
Si Si5 0.473176 0.807021 0.539126
Si Si6 0.901778 0.941384 0.380257
Si Si7 0.039324 0.975767 0.805854
O O1 0.433908 0.167604 0.908861
O O2 0.412291 0.250888 0.826697
O O3 0.689554 0.124445 0.865183
O O4 0.804117 0.255515 0.917961
O O5 0.378638 0.130625 0.067518
O O6 0.674652 0.048302 0.151160
O O7 0.441087 0.977591 0.060830
O O8 0.191970 0.023029 0.107764
O O9 0.427740 0.140230 0.494029
O O10 0.849882 0.083497 0.567517
O O11 0.500000 0.202362 0.250000
O O12 0.000000 0.206146 0.250000
O O13 0.867288 0.101759 0.294293
O O14 0.250000 0.750000 0.500000
O O15 0.967961 0.956181 0.334188
O O16 0.000000 0.001849 0.750000
#
# Coordination Sequence:
#
# PCOD9296001 Si02
#       7
#     8   8   8   8   8   8   8
#     4  11  24  47  67 103 146 179 242 303 368 438
#     4  10  23  44  67  97 140 182 236 299 352 438
#     4  10  23  44  64  98 141 185 232 287 361 436
#     4  11  27  47  76 107 143 192 244 305 375 443
#     4  12  23  42  71 101 136 190 236 297 369 433
#     4  10  23  44  68  99 142 182 232 303 352 446
#     4  10  23  44  71 100 132 186 243 292 362 431
#
# _framework density 21.524954000000001
#
# number of rings (size 3 to 8) (size 9 to 14) (size 15 to 20)
#    0.000    1.429    2.857    0.857    6.000    1.714 
#   12.857    0.000    0.000    0.000    0.000    0.000 
#    0.000    0.000    0.000    0.000    0.000    0.000 
#
# Total GULP energy -156448.414595 kJ/mol
# GULP energy per Si atom -5587.443378 kJ/mol
# Density = 2.147596 g / cm^3
# Si number density = 21.524954 Si / 1000 Ang^3
#
#
#
# Elastic Constant Matrix: (Units=GPa)
#
#
# Indices 1 2 3 4 5 6 
#
# 1 41.1287 80.1343 -19.0013 0.0001 -2.8887 0.0000
# 2 80.1343 -3.6425 150.9836 0.0000 27.6499 0.0000
# 3 -19.0013 150.9836 4.6742 0.0000 -23.1945 0.0000
# 4 0.0001 0.0000 0.0000 18.4255 0.0000 -16.4014
# 5 -2.8887 27.6499 -23.1945 0.0000 17.5356 0.0000
# 6 0.0000 0.0000 0.0000 -16.4014 0.0000 -0.5569
#
#
#
# Elastic Compliance Matrix: (Units=1/GPa)
#
#
# Indices 1 2 3 4 5 6 
#
# 1 0.017924 0.001097 -0.007817 0.000000 -0.009117 0.000000
# 2 0.001097 0.000833 0.005046 0.000000 0.005542 0.000000
# 3 -0.007817 0.005046 0.004801 0.000000 -0.002894 0.000000
# 4 0.000000 0.000000 0.000000 0.001994 0.000000 -0.058731
# 5 -0.009117 0.005542 -0.002894 0.000000 0.042958 0.000000
# 6 0.000000 0.000000 0.000000 -0.058731 0.000000 -0.065979
#
#
# Mechanical properties :
#
#
# Convention : Reuss Voigt Hill
#
# Bulk Modulus (GPa) = 49.47906 51.82153 50.65029
# Shear Modulus (GPa) = 396.29868 -4.24957 196.02456
#
# Velocity S-wave (km/s) = 13.58348 -1.40660 9.55334
# Velocity P-wave (km/s) = 16.40279 4.63566 12.05281
#
# Compressibility (1/GPa) = 0.02021057
#
# Stress axis : x y z
#
# Youngs Moduli (GPa) = 55.79009 1200.22958 208.29976
#
# Poissons Ratio (x) = -1.31688 1.62832
# Poissons Ratio (y) = -0.06121 -1.05111
# Poissons Ratio (z) = 0.43612 -6.05655
#
# Static dielectric constant tensor:
#      x y z
#    x 1.832010 0.000000 -0.017850 
#    y 0.000000 1.765150 0.000000 
#    z -0.017850 0.000000 1.794040 
# 
# From -- ./inp_files/305840.got.cif
#   From: 2010.05.17/outbox.cif.g08.bks.cpg/sg15_153_cif.got.tgz:305840.got - 2010.06.03 18:47:42.
