data_PCOD9296671
_publ_section_title
;
Structure prediction by ZEFSAII (Michael W. Deem and Ramdas Pophale) SiO2 
 PCOD9296671
Probable space group: C 2/C
;
_chemical_formula_sum "Si O2"
_cell_formula_units_Z 44
_cell_length_a 22.924168
_cell_length_b 5.231818
_cell_length_c 15.183172
_cell_angle_alpha 90.000000
_cell_angle_beta 101.744953
_cell_angle_gamma 90.000000
_cell_volume 1782.869440
_symmetry_space_group_name_H-M "C 2/C"
_symmetry_group_IT_number 15
_symmetry_cell_setting 'monoclinic'
loop_
_space_group_symop_operation_xyz
x,y,z
-x,y,1/2-z
-x,-y,-z
x,-y,1/2+z
1/2+x,1/2+y,z
1/2-x,1/2+y,1/2-z
1/2-x,1/2-y,-z
1/2+x,1/2-y,1/2+z
loop_
_atom_site_type_symbol
_atom_site_label
_atom_site_fract_x
_atom_site_fract_y
_atom_site_fract_z
Si Si1 0.743727 0.103205 0.695615
Si Si2 0.946404 0.673342 0.563786
Si Si3 0.000000 0.615759 0.250000
Si Si4 0.127370 0.271695 0.052957
Si Si5 0.032318 0.919337 0.112847
Si Si6 0.712200 0.496800 0.965339
O O1 0.756644 0.390929 0.729222
O O2 0.679298 0.109788 0.629120
O O3 0.793345 0.009394 0.641009
O O4 0.971779 0.542024 0.661142
O O5 0.891688 0.485620 0.523475
O O6 0.966737 0.712429 0.465600
O O7 0.965760 0.964256 0.595717
O O8 0.046188 0.792940 0.210020
O O9 0.076207 0.149094 0.098615
O O10 0.154574 0.030684 0.007479
O O11 0.750000 0.750000 0.000000
O O12 0.750000 0.250000 0.000000
#
# Coordination Sequence:
#
# PCOD9296671 Si02
#       6
#     8   8   4   8   8   8
#     4  11  25  47  71 109 151 190 256 329 372 457
#     4  11  25  47  71 105 150 192 249 314 385 478
#     4  12  24  46  68 110 146 188 246 320 384 470
#     4  11  25  44  76 101 149 205 252 311 407 461
#     4  11  24  45  75 105 151 200 247 324 387 480
#     4  10  23  45  72 101 146 198 245 310 380 456
#
# _framework density 24.679316
#
# number of rings (size 3 to 8) (size 9 to 14) (size 15 to 20)
#    0.000    1.091    0.000    7.091    7.636    1.455 
#    6.545    0.000    0.000    0.000    0.000    0.000 
#    0.000    0.000    0.000    0.000    0.000    0.000 
#
# Total GULP energy -122640.367261 kJ/mol
# GULP energy per Si atom -5574.562148 kJ/mol
# Density = 2.462315 g / cm^3
# Si number density = 24.679316 Si / 1000 Ang^3
#
#
#
# Elastic Constant Matrix: (Units=GPa)
#
#
# Indices 1 2 3 4 5 6 
#
# 1 67.1606 26.1969 22.3707 0.0000 19.3288 0.0000
# 2 26.1969 121.8087 16.4424 0.0000 6.0568 0.0000
# 3 22.3707 16.4424 133.3008 0.0000 7.4080 0.0000
# 4 0.0000 0.0000 0.0000 55.2302 0.0000 -9.5715
# 5 19.3288 6.0568 7.4080 0.0000 38.1776 0.0000
# 6 0.0000 0.0000 0.0000 -9.5715 0.0000 32.6023
#
#
#
# Elastic Compliance Matrix: (Units=1/GPa)
#
#
# Indices 1 2 3 4 5 6 
#
# 1 0.019588 -0.003450 -0.002367 0.000000 -0.008911 0.000000
# 2 -0.003450 0.009005 -0.000555 0.000000 0.000426 0.000000
# 3 -0.002367 -0.000555 0.007982 0.000000 -0.000263 0.000000
# 4 0.000000 0.000000 0.000000 0.019077 0.000000 0.005601
# 5 -0.008911 0.000426 -0.000263 0.000000 0.030688 0.000000
# 6 0.000000 0.000000 0.000000 0.005601 0.000000 0.032317
#
#
# Mechanical properties :
#
#
# Convention : Reuss Voigt Hill
#
# Bulk Modulus (GPa) = 41.96163 50.25445 46.10804
# Shear Modulus (GPa) = 35.88198 42.35269 39.11734
#
# Velocity S-wave (km/s) = 3.81718 4.14710 3.98556
# Velocity P-wave (km/s) = 6.03883 6.58320 6.31688
#
# Compressibility (1/GPa) = 0.02383130
#
# Stress axis : x y z
#
# Youngs Moduli (GPa) = 51.05101 111.04422 125.28043
#
# Poissons Ratio (x) = 0.38313 0.29648
# Poissons Ratio (y) = 0.17614 0.06959
# Poissons Ratio (z) = 0.12081 0.06168
#
# Static dielectric constant tensor:
#      x y z
#    x 2.214220 0.000000 -0.000500 
#    y 0.000000 1.957240 0.000000 
#    z -0.000500 0.000000 1.989750 
# 
# From -- ./inp_files/175482.got.cif
#   From: 2010.05.17/outbox.cif.g08.bks.cpg/sg15_88_cif.got.tgz:175482.got - 2010.06.03 18:47:42.
