data_PCOD9296632
_publ_section_title
;
Structure prediction by ZEFSAII (Michael W. Deem and Ramdas Pophale) SiO2 
 PCOD9296632
Probable space group: C 2/C
;
_chemical_formula_sum "Si O2"
_cell_formula_units_Z 40
_cell_length_a 14.655309
_cell_length_b 11.394532
_cell_length_c 9.856747
_cell_angle_alpha 90.000000
_cell_angle_beta 119.296040
_cell_angle_gamma 90.000000
_cell_volume 1435.465995
_symmetry_space_group_name_H-M "C 2/C"
_symmetry_group_IT_number 15
_symmetry_cell_setting 'monoclinic'
loop_
_space_group_symop_operation_xyz
x,y,z
-x,y,1/2-z
-x,-y,-z
x,-y,1/2+z
1/2+x,1/2+y,z
1/2-x,1/2+y,1/2-z
1/2-x,1/2-y,-z
1/2+x,1/2-y,1/2+z
loop_
_atom_site_type_symbol
_atom_site_label
_atom_site_fract_x
_atom_site_fract_y
_atom_site_fract_z
Si Si1 0.541719 0.874441 0.423181
Si Si2 0.384940 0.468015 0.374559
Si Si3 0.852568 0.297580 0.439169
Si Si4 0.373952 0.209557 0.258360
Si Si5 0.753148 0.044264 0.046276
O O1 0.500000 0.931107 0.250000
O O2 0.438521 0.798756 0.384455
O O3 0.572599 0.893030 0.610815
O O4 0.664486 0.855557 0.475397
O O5 0.500000 0.500000 0.500000
O O6 0.393732 0.331510 0.346028
O O7 0.348213 0.544816 0.219985
O O8 0.301483 0.475167 0.434851
O O9 0.753837 0.214172 0.340281
O O10 0.901838 0.270763 0.621405
O O11 0.809771 0.429300 0.442034
#
# Coordination Sequence:
#
# PCOD9296632 Si02
#       5
#     8   8   8   8   8
#     4  12  25  40  67 102 139 175 218 282 346 406
#     4  11  25  44  69  98 134 178 224 281 339 398
#     4  10  23  45  70  94 131 179 227 278 335 403
#     4  10  24  43  65  96 132 179 232 275 332 410
#     4  11  24  44  68  98 133 174 228 278 335 408
#
# _framework density 27.865514000000001
#
# number of rings (size 3 to 8) (size 9 to 14) (size 15 to 20)
#    0.000    1.200    0.000    5.400    0.000   16.000 
#    0.000    0.000    0.000    0.000    0.000    0.000 
#    0.000    0.000    0.000    0.000    0.000    0.000 
#
# Total GULP energy -111444.794155 kJ/mol
# GULP energy per Si atom -5572.239708 kJ/mol
# Density = 2.780209 g / cm^3
# Si number density = 27.865514 Si / 1000 Ang^3
#
#
#
# Elastic Constant Matrix: (Units=GPa)
#
#
# Indices 1 2 3 4 5 6 
#
# 1 160.3005 27.7601 51.6209 0.0000 -4.4719 0.0000
# 2 27.7601 86.9920 38.3714 0.0000 -23.2661 0.0000
# 3 51.6209 38.3714 230.1070 0.0000 18.4388 0.0000
# 4 0.0000 0.0000 0.0000 19.7282 0.0000 -8.1220
# 5 -4.4719 -23.2661 18.4388 0.0000 57.5273 0.0000
# 6 0.0000 0.0000 0.0000 -8.1220 0.0000 25.2934
#
#
#
# Elastic Compliance Matrix: (Units=1/GPa)
#
#
# Indices 1 2 3 4 5 6 
#
# 1 0.006942 -0.001537 -0.001328 0.000000 0.000344 0.000000
# 2 -0.001537 0.015000 -0.002702 0.000000 0.006813 0.000000
# 3 -0.001328 -0.002702 0.005327 0.000000 -0.002904 0.000000
# 4 0.000000 0.000000 0.000000 0.058411 0.000000 0.018756
# 5 0.000344 0.006813 -0.002904 0.000000 0.021096 0.000000
# 6 0.000000 0.000000 0.000000 0.018756 0.000000 0.045559
#
#
# Mechanical properties :
#
#
# Convention : Reuss Voigt Hill
#
# Bulk Modulus (GPa) = 61.98594 79.21159 70.59876
# Shear Modulus (GPa) = 29.61230 44.48625 37.04927
#
# Velocity S-wave (km/s) = 3.26342 3.99991 3.65029
# Velocity P-wave (km/s) = 6.04093 7.05836 6.56937
#
# Compressibility (1/GPa) = 0.01613269
#
# Stress axis : x y z
#
# Youngs Moduli (GPa) = 144.05256 66.66615 187.71767
#
# Poissons Ratio (x) = 0.10249 0.24938
# Poissons Ratio (y) = 0.22146 0.50729
# Poissons Ratio (z) = 0.19137 0.18016
#
# Static dielectric constant tensor:
#      x y z
#    x 2.558170 0.000000 0.178420 
#    y 0.000000 2.374460 0.000000 
#    z 0.178420 0.000000 2.328730 
# 
# From -- ./inp_files/37785.got.cif
#   From: 2010.05.17/outbox.cif.g08.bks.cpg/sg15_19_cif.got.tgz:37785.got - 2010.06.03 18:47:42.
