data_PCOD9296578
_publ_section_title
;
Structure prediction by ZEFSAII (Michael W. Deem and Ramdas Pophale) SiO2 
 PCOD9296578
Probable space group: C 2/C
;
_chemical_formula_sum "Si O2"
_cell_formula_units_Z 60
_cell_length_a 10.828302
_cell_length_b 17.485549
_cell_length_c 12.610237
_cell_angle_alpha 90.000000
_cell_angle_beta 103.430772
_cell_angle_gamma 90.000000
_cell_volume 2322.309188
_symmetry_space_group_name_H-M "C 2/C"
_symmetry_group_IT_number 15
_symmetry_cell_setting 'monoclinic'
loop_
_space_group_symop_operation_xyz
x,y,z
-x,y,1/2-z
-x,-y,-z
x,-y,1/2+z
1/2+x,1/2+y,z
1/2-x,1/2+y,1/2-z
1/2-x,1/2-y,-z
1/2+x,1/2-y,1/2+z
loop_
_atom_site_type_symbol
_atom_site_label
_atom_site_fract_x
_atom_site_fract_y
_atom_site_fract_z
Si Si1 0.941218 0.766825 0.964116
Si Si2 0.184431 0.181868 0.842720
Si Si3 0.831374 0.472908 0.338831
Si Si4 0.477659 0.413115 0.865517
Si Si5 0.000000 0.295817 0.750000
Si Si6 0.945171 0.637514 0.620556
Si Si7 0.736681 0.550822 0.491766
Si Si8 0.318708 0.926598 0.640331
O O1 0.812650 0.727469 0.895548
O O2 0.003426 0.824613 0.893043
O O3 0.037007 0.696779 0.972685
O O4 0.900682 0.808846 0.065660
O O5 0.223873 0.095469 0.818673
O O6 0.109683 0.233686 0.741914
O O7 0.786501 0.553606 0.382274
O O8 0.857318 0.505993 0.226612
O O9 0.963827 0.432841 0.393020
O O10 0.500000 0.438184 0.750000
O O11 0.586094 0.452215 0.958858
O O12 0.329165 0.414075 0.861644
O O13 0.913602 0.355340 0.664194
O O14 0.798862 0.612254 0.580829
O O15 0.000000 0.660060 0.750000
O O16 0.800279 0.467280 0.524242
#
# Coordination Sequence:
#
# PCOD9296578 Si02
#       8
#     8   8   8   8   4   8   8   8
#     4  10  23  45  68  97 144 183 245 304 372 442
#     4  10  24  44  70 102 137 194 235 315 370 436
#     4  11  24  45  72 102 151 188 251 307 373 448
#     4  12  25  45  67 100 148 195 236 302 378 454
#     4  12  26  44  80 108 142 190 264 304 376 432
#     4  11  23  44  70 103 144 191 247 317 373 440
#     4  12  26  43  71 106 144 200 244 303 382 444
#     4  12  25  46  73 107 146 191 251 316 365 448
#
# _framework density 25.836352000000002
#
# number of rings (size 3 to 8) (size 9 to 14) (size 15 to 20)
#    0.000    0.800    4.000    2.800    5.600    2.667 
#    0.000    0.000    0.000    0.000    0.000    0.000 
#    0.000    0.000    0.000    0.000    0.000    0.000 
#
# Total GULP energy -167061.112170 kJ/mol
# GULP energy per Si atom -5568.703739 kJ/mol
# Density = 2.577755 g / cm^3
# Si number density = 25.836352 Si / 1000 Ang^3
#
#
#
# Elastic Constant Matrix: (Units=GPa)
#
#
# Indices 1 2 3 4 5 6 
#
# 1 104.8619 32.0764 46.8957 0.0000 14.9367 0.0000
# 2 32.0764 101.5099 29.3627 0.0000 18.6182 0.0000
# 3 46.8957 29.3627 57.5172 0.0000 21.5642 0.0000
# 4 0.0000 0.0000 0.0000 32.5143 0.0000 2.5186
# 5 14.9367 18.6182 21.5642 0.0000 38.4796 0.0000
# 6 0.0000 0.0000 0.0000 2.5186 0.0000 49.4084
#
#
#
# Elastic Compliance Matrix: (Units=1/GPa)
#
#
# Indices 1 2 3 4 5 6 
#
# 1 0.015272 -0.001588 -0.012288 0.000000 0.001727 0.000000
# 2 -0.001588 0.011983 -0.003646 0.000000 -0.003138 0.000000
# 3 -0.012288 -0.003646 0.033950 0.000000 -0.012492 0.000000
# 4 0.000000 0.000000 0.000000 0.030878 0.000000 -0.001574
# 5 0.001727 -0.003138 -0.012492 0.000000 0.033836 0.000000
# 6 0.000000 0.000000 0.000000 -0.001574 0.000000 0.020320
#
#
# Mechanical properties :
#
#
# Convention : Reuss Voigt Hill
#
# Bulk Modulus (GPa) = 38.22620 53.39541 45.81081
# Shear Modulus (GPa) = 26.31539 34.45073 30.38306
#
# Velocity S-wave (km/s) = 3.19492 3.65557 3.43298
# Velocity P-wave (km/s) = 5.33270 6.20719 5.78649
#
# Compressibility (1/GPa) = 0.02616007
#
# Stress axis : x y z
#
# Youngs Moduli (GPa) = 65.48125 83.44914 29.45536
#
# Poissons Ratio (x) = 0.13251 0.36195
# Poissons Ratio (y) = 0.10398 0.10740
# Poissons Ratio (z) = 0.80464 0.30427
#
# Static dielectric constant tensor:
#      x y z
#    x 2.100870 0.000000 0.056020 
#    y 0.000000 2.107740 0.000000 
#    z 0.056020 0.000000 2.248270 
# 
# From -- ./inp_files/146105.got.cif
#   From: 2010.05.17/outbox.cif.g08.bks.cpg/sg15_74_cif.got.tgz:146105.got - 2010.06.03 18:47:42.
