data_PCOD9296009
_publ_section_title
;
Structure prediction by ZEFSAII (Michael W. Deem and Ramdas Pophale) SiO2 
 PCOD9296009
Probable space group: C 2/C
;
_chemical_formula_sum "Si O2"
_cell_formula_units_Z 44
_cell_length_a 6.854669
_cell_length_b 26.273524
_cell_length_c 9.952886
_cell_angle_alpha 90.000000
_cell_angle_beta 86.011677
_cell_angle_gamma 90.000000
_cell_volume 1788.137106
_symmetry_space_group_name_H-M "C 2/C"
_symmetry_group_IT_number 15
_symmetry_cell_setting 'monoclinic'
loop_
_space_group_symop_operation_xyz
x,y,z
-x,y,1/2-z
-x,-y,-z
x,-y,1/2+z
1/2+x,1/2+y,z
1/2-x,1/2+y,1/2-z
1/2-x,1/2-y,-z
1/2+x,1/2-y,1/2+z
loop_
_atom_site_type_symbol
_atom_site_label
_atom_site_fract_x
_atom_site_fract_y
_atom_site_fract_z
Si Si1 0.600137 0.065809 0.614607
Si Si2 0.823341 0.192079 0.866857
Si Si3 0.002047 0.907222 0.090656
Si Si4 0.712632 0.047288 0.103512
Si Si5 0.500000 0.866692 0.750000
Si Si6 0.551860 0.215923 0.481383
O O1 0.500000 0.088376 0.750000
O O2 0.777773 0.101838 0.567417
O O3 0.452658 0.056607 0.502076
O O4 0.682378 0.010173 0.654988
O O5 0.000000 0.180637 0.750000
O O6 0.860560 0.140777 0.947946
O O7 0.910730 0.243901 0.916283
O O8 0.586552 0.198926 0.885142
O O9 0.000000 0.921343 0.250000
O O10 0.086371 0.948591 0.985867
O O11 0.674108 0.092763 0.209482
O O12 0.438056 0.829975 0.628260
O O13 0.750000 0.250000 0.500000
#
# Coordination Sequence:
#
# PCOD9296009 Si02
#       6
#     8   8   8   8   4   8
#     4  11  23  42  68 104 145 199 246 297 376 439
#     4  10  23  44  65 103 142 177 241 309 362 447
#     4  11  22  40  69  99 143 187 244 305 363 441
#     4  11  24  44  67 102 152 190 247 308 361 440
#     4  12  24  48  74 106 150 188 250 316 358 450
#     4  11  25  46  72 100 144 191 241 307 381 438
#
# _framework density 24.606611999999998
#
# number of rings (size 3 to 8) (size 9 to 14) (size 15 to 20)
#    0.000    1.091    5.455    0.545    2.545    0.727 
#    0.000    4.545    0.000    0.000    0.000    0.000 
#    0.000    0.000    0.000    0.000    0.000    0.000 
#
# Total GULP energy -122525.787656 kJ/mol
# GULP energy per Si atom -5569.353984 kJ/mol
# Density = 2.455061 g / cm^3
# Si number density = 24.606612 Si / 1000 Ang^3
#
#
#
# Elastic Constant Matrix: (Units=GPa)
#
#
# Indices 1 2 3 4 5 6 
#
# 1 116.9530 26.6519 42.8707 0.0000 -32.5573 0.0000
# 2 26.6519 140.0261 35.7903 0.0000 -9.2914 0.0000
# 3 42.8707 35.7903 87.4780 0.0000 -24.7515 0.0000
# 4 0.0000 0.0000 0.0000 31.6840 0.0000 -1.4379
# 5 -32.5573 -9.2914 -24.7515 0.0000 46.6357 0.0000
# 6 0.0000 0.0000 0.0000 -1.4379 0.0000 46.1531
#
#
#
# Elastic Compliance Matrix: (Units=1/GPa)
#
#
# Indices 1 2 3 4 5 6 
#
# 1 0.011808 -0.000899 -0.003692 0.000000 0.006105 0.000000
# 2 -0.000899 0.008045 -0.003030 0.000000 -0.000633 0.000000
# 3 -0.003692 -0.003030 0.015980 0.000000 0.005300 0.000000
# 4 0.000000 0.000000 0.000000 0.031606 0.000000 0.000985
# 5 0.006105 -0.000633 0.005300 0.000000 0.028392 0.000000
# 6 0.000000 0.000000 0.000000 0.000985 0.000000 0.021698
#
#
# Mechanical properties :
#
#
# Convention : Reuss Voigt Hill
#
# Bulk Modulus (GPa) = 48.56253 61.67588 55.11921
# Shear Modulus (GPa) = 35.80783 40.83751 38.32267
#
# Velocity S-wave (km/s) = 3.81886 4.07826 3.95069
# Velocity P-wave (km/s) = 6.26285 6.87717 6.57719
#
# Compressibility (1/GPa) = 0.02059201
#
# Stress axis : x y z
#
# Youngs Moduli (GPa) = 84.68824 124.29936 62.57790
#
# Poissons Ratio (x) = 0.11172 0.23102
# Poissons Ratio (y) = 0.07612 0.18962
# Poissons Ratio (z) = 0.31264 0.37664
#
# Static dielectric constant tensor:
#      x y z
#    x 1.772280 0.000000 0.136940 
#    y 0.000000 2.057660 0.000000 
#    z 0.136940 0.000000 1.871160 
# 
# From -- ./inp_files/73868.got.cif
#   From: 2010.05.17/outbox.cif.g08.bks.cpg/sg15_37_cif.got.tgz:73868.got - 2010.06.03 18:47:42.
