data_PCOD9296439
_publ_section_title
;
Structure prediction by ZEFSAII (Michael W. Deem and Ramdas Pophale) SiO2 
 PCOD9296439
Probable space group: C 2/C
;
_chemical_formula_sum "Si O2"
_cell_formula_units_Z 40
_cell_length_a 10.445010
_cell_length_b 10.800503
_cell_length_c 19.019150
_cell_angle_alpha 90.000000
_cell_angle_beta 53.919552
_cell_angle_gamma 90.000000
_cell_volume 1734.035166
_symmetry_space_group_name_H-M "C 2/C"
_symmetry_group_IT_number 15
_symmetry_cell_setting 'monoclinic'
loop_
_space_group_symop_operation_xyz
x,y,z
-x,y,1/2-z
-x,-y,-z
x,-y,1/2+z
1/2+x,1/2+y,z
1/2-x,1/2+y,1/2-z
1/2-x,1/2-y,-z
1/2+x,1/2-y,1/2+z
loop_
_atom_site_type_symbol
_atom_site_label
_atom_site_fract_x
_atom_site_fract_y
_atom_site_fract_z
Si Si1 0.811135 0.872028 0.801997
Si Si2 0.683005 0.145238 0.187057
Si Si3 0.598545 0.708998 0.965323
Si Si4 0.328474 0.886697 0.083165
Si Si5 0.675688 0.537395 0.493406
O O1 0.767383 0.853829 0.734786
O O2 0.740689 0.761339 0.872704
O O3 0.000000 0.886759 0.750000
O O4 0.714394 0.993439 0.858354
O O5 0.500000 0.114675 0.250000
O O6 0.706888 0.280281 0.145676
O O7 0.760784 0.053247 0.105970
O O8 0.639624 0.607883 0.011592
O O9 0.499479 0.821956 0.031307
O O10 0.474845 0.630107 0.956558
O O11 0.297514 0.918926 0.012056
#
# Coordination Sequence:
#
# PCOD9296439 Si02
#       5
#     8   8   8   8   8
#     4  12  28  43  70 112 151 185 235 317 377 430
#     4  11  24  46  73 102 145 192 246 301 371 436
#     4  10  23  45  71  99 144 186 250 293 365 433
#     4  11  24  46  73 101 143 197 249 294 369 447
#     4  10  23  44  76 101 136 199 254 296 356 451
#
# _framework density 23.067582999999999
#
# number of rings (size 3 to 8) (size 9 to 14) (size 15 to 20)
#    0.000    1.200    0.000    6.000   11.200    1.600 
#    3.600    0.000    0.000    0.000    0.000    0.000 
#    0.000    0.000    0.000    0.000    0.000    0.000 
#
# Total GULP energy -111952.484519 kJ/mol
# GULP energy per Si atom -5597.624226 kJ/mol
# Density = 2.301508 g / cm^3
# Si number density = 23.067583 Si / 1000 Ang^3
#
#
#
# Elastic Constant Matrix: (Units=GPa)
#
#
# Indices 1 2 3 4 5 6 
#
# 1 104.6174 39.5514 48.1750 0.0000 0.5662 0.0000
# 2 39.5514 130.6892 50.9747 0.0000 -11.0285 0.0000
# 3 48.1750 50.9747 114.5886 0.0000 -6.9820 0.0000
# 4 0.0000 0.0000 0.0000 9.8672 0.0000 11.1875
# 5 0.5662 -11.0285 -6.9820 0.0000 31.0182 0.0000
# 6 0.0000 0.0000 0.0000 11.1875 0.0000 18.4167
#
#
#
# Elastic Compliance Matrix: (Units=1/GPa)
#
#
# Indices 1 2 3 4 5 6 
#
# 1 0.012415 -0.002229 -0.004350 0.000000 -0.001998 0.000000
# 2 -0.002229 0.009838 -0.003268 0.000000 0.002803 0.000000
# 3 -0.004350 -0.003268 0.012110 0.000000 0.001643 0.000000
# 4 0.000000 0.000000 0.000000 0.325611 0.000000 -0.197798
# 5 -0.001998 0.002803 0.001643 0.000000 0.033642 0.000000
# 6 0.000000 0.000000 0.000000 -0.197798 0.000000 0.174454
#
#
# Mechanical properties :
#
#
# Convention : Reuss Voigt Hill
#
# Bulk Modulus (GPa) = 68.17572 69.69973 68.93773
# Shear Modulus (GPa) = 8.43664 25.94003 17.18834
#
# Velocity S-wave (km/s) = 1.91450 3.35703 2.73267
# Velocity P-wave (km/s) = 5.87418 6.73106 6.31717
#
# Compressibility (1/GPa) = 0.01466798
#
# Stress axis : x y z
#
# Youngs Moduli (GPa) = 80.54622 101.64943 82.57970
#
# Poissons Ratio (x) = 0.22662 0.35919
# Poissons Ratio (y) = 0.17957 0.26989
# Poissons Ratio (z) = 0.35034 0.33222
#
# Static dielectric constant tensor:
#      x y z
#    x 1.866030 0.000000 -0.044770 
#    y 0.000000 1.898980 0.000000 
#    z -0.044770 0.000000 1.855600 
# 
# From -- ./inp_files/236443.got.cif
#   From: 2010.05.17/outbox.cif.g08.bks.cpg/sg15_119_cif.got.tgz:236443.got - 2010.06.03 18:47:42.
