data_PCOD9296484
_publ_section_title
;
Structure prediction by ZEFSAII (Michael W. Deem and Ramdas Pophale) SiO2 
 PCOD9296484
Probable space group: C 2/C
;
_chemical_formula_sum "Si O2"
_cell_formula_units_Z 60
_cell_length_a 16.321380
_cell_length_b 13.269115
_cell_length_c 30.612464
_cell_angle_alpha 90.000000
_cell_angle_beta 27.890774
_cell_angle_gamma 90.000000
_cell_volume 3101.313966
_symmetry_space_group_name_H-M "C 2/C"
_symmetry_group_IT_number 15
_symmetry_cell_setting 'monoclinic'
loop_
_space_group_symop_operation_xyz
x,y,z
-x,y,1/2-z
-x,-y,-z
x,-y,1/2+z
1/2+x,1/2+y,z
1/2-x,1/2+y,1/2-z
1/2-x,1/2-y,-z
1/2+x,1/2-y,1/2+z
loop_
_atom_site_type_symbol
_atom_site_label
_atom_site_fract_x
_atom_site_fract_y
_atom_site_fract_z
Si Si1 0.053292 0.758200 0.074541
Si Si2 0.711003 0.879600 0.758972
Si Si3 0.687076 0.292595 0.917726
Si Si4 0.517558 0.546177 0.837093
Si Si5 0.000000 0.863102 0.250000
Si Si6 0.054076 0.527660 0.179191
Si Si7 0.791737 0.583415 0.977813
Si Si8 0.003933 0.242232 0.081328
O O1 0.942714 0.659347 0.137697
O O2 0.972902 0.853372 0.137998
O O3 0.250000 0.750000 0.000000
O O4 0.071707 0.771870 0.014663
O O5 0.613678 0.911245 0.760174
O O6 0.841334 0.786810 0.688770
O O7 0.828205 0.970031 0.721909
O O8 0.834941 0.208268 0.838916
O O9 0.793846 0.394113 0.878945
O O10 0.560834 0.288670 0.935859
O O11 0.529895 0.573760 0.780210
O O12 0.331036 0.494216 0.937708
O O13 0.117728 0.464972 0.107393
O O14 0.000000 0.473631 0.250000
O O15 0.930461 0.644113 0.942201
O O16 0.658885 0.667237 0.021843
#
# Coordination Sequence:
#
# PCOD9296484 Si02
#       8
#     8   8   8   8   4   8   8   8
#     4  12  22  42  64  96 133 175 221 281 336 400
#     4  11  24  40  65  98 130 176 221 277 344 400
#     4  12  22  39  68  93 131 170 229 272 333 398
#     4  11  24  42  67  95 137 176 226 276 345 406
#     4  12  24  40  64 102 130 174 222 286 324 406
#     4  12  22  39  66 100 131 168 233 286 318 401
#     4  10  24  44  66  93 137 179 218 278 345 406
#     4  10  23  45  65  93 135 178 215 276 349 402
#
# _framework density 19.346637999999999
#
# number of rings (size 3 to 8) (size 9 to 14) (size 15 to 20)
#    0.000    0.800    6.000    0.800    3.733    2.667 
#    0.000    1.333    2.933    0.000    0.000    0.000 
#    0.000    0.000    0.000    0.000    0.000    0.000 
#
# Total GULP energy -167562.253373 kJ/mol
# GULP energy per Si atom -5585.408446 kJ/mol
# Density = 1.930260 g / cm^3
# Si number density = 19.346638 Si / 1000 Ang^3
#
#
#
# Elastic Constant Matrix: (Units=GPa)
#
#
# Indices 1 2 3 4 5 6 
#
# 1 95.5748 20.8836 34.8850 0.0007 13.9558 0.0000
# 2 20.8836 69.6782 40.7728 0.0005 6.7062 0.0001
# 3 34.8850 40.7728 103.9843 0.0023 13.8656 0.0004
# 4 0.0007 0.0005 0.0023 12.6403 -0.0001 2.0528
# 5 13.9558 6.7062 13.8656 -0.0001 40.7773 -0.0001
# 6 0.0000 0.0001 0.0004 2.0528 -0.0001 29.5818
#
#
#
# Elastic Compliance Matrix: (Units=1/GPa)
#
#
# Indices 1 2 3 4 5 6 
#
# 1 0.012382 -0.001593 -0.003142 0.000000 -0.002908 0.000000
# 2 -0.001593 0.018844 -0.006823 0.000001 -0.000234 0.000000
# 3 -0.003142 -0.006823 0.013673 -0.000002 -0.002452 0.000000
# 4 0.000000 0.000001 -0.000002 0.080014 0.000001 -0.005553
# 5 -0.002908 -0.000234 -0.002452 0.000001 0.026391 0.000000
# 6 0.000000 0.000000 0.000000 -0.005553 0.000000 0.034190
#
#
# Mechanical properties :
#
#
# Convention : Reuss Voigt Hill
#
# Bulk Modulus (GPa) = 45.90562 51.36890 48.63726
# Shear Modulus (GPa) = 23.16185 28.11292 25.63739
#
# Velocity S-wave (km/s) = 3.46382 3.81611 3.64422
# Velocity P-wave (km/s) = 6.30689 6.78428 6.54993
#
# Compressibility (1/GPa) = 0.02178382
#
# Stress axis : x y z
#
# Youngs Moduli (GPa) = 80.75986 53.06615 73.13514
#
# Poissons Ratio (x) = 0.08453 0.22978
# Poissons Ratio (y) = 0.12864 0.49903
# Poissons Ratio (z) = 0.25373 0.36209
#
# Static dielectric constant tensor:
#      x y z
#    x 1.488410 0.000000 -0.146570 
#    y 0.000000 1.687500 0.000000 
#    z -0.146570 0.000000 1.587040 
# 
# From -- ./inp_files/296679.got.cif
#   From: 2010.05.17/outbox.cif.g08.bks.cpg/sg15_149_cif.got.tgz:296679.got - 2010.06.03 18:47:42.
