data_PCOD9296045
_publ_section_title
;
Structure prediction by ZEFSAII (Michael W. Deem and Ramdas Pophale) SiO2 
 PCOD9296045
Probable space group: C 2/C
;
_chemical_formula_sum "Si O2"
_cell_formula_units_Z 52
_cell_length_a 8.753490
_cell_length_b 12.052406
_cell_length_c 26.555409
_cell_angle_alpha 90.000000
_cell_angle_beta 116.154493
_cell_angle_gamma 90.000000
_cell_volume 2514.751441
_symmetry_space_group_name_H-M "C 2/C"
_symmetry_group_IT_number 15
_symmetry_cell_setting 'monoclinic'
loop_
_space_group_symop_operation_xyz
x,y,z
-x,y,1/2-z
-x,-y,-z
x,-y,1/2+z
1/2+x,1/2+y,z
1/2-x,1/2+y,1/2-z
1/2-x,1/2-y,-z
1/2+x,1/2-y,1/2+z
loop_
_atom_site_type_symbol
_atom_site_label
_atom_site_fract_x
_atom_site_fract_y
_atom_site_fract_z
Si Si1 0.500000 0.500000 0.500000
Si Si2 0.909942 0.001200 0.182476
Si Si3 0.115208 0.907202 0.621115
Si Si4 0.922800 0.751476 0.183651
Si Si5 0.377832 0.814711 0.880959
Si Si6 0.659746 0.216130 0.934294
Si Si7 0.616683 0.981694 0.967487
O O1 0.602715 0.470038 0.566497
O O2 0.680762 0.478496 0.493355
O O3 0.844029 0.874881 0.168861
O O4 0.000000 0.015769 0.250000
O O5 0.759877 0.089649 0.151585
O O6 0.048338 0.023130 0.158761
O O7 0.295555 0.850184 0.656661
O O8 0.987390 0.803236 0.596644
O O9 0.000000 0.741606 0.250000
O O10 0.066109 0.743823 0.161760
O O11 0.296724 0.731929 0.910068
O O12 0.540820 0.873297 0.930061
O O13 0.593009 0.092482 0.930791
O O14 0.750000 0.250000 0.000000
O O15 0.500000 0.000000 0.000000
#
# Coordination Sequence:
#
# PCOD9296045 Si02
#       7
#     4   8   8   8   8   8   8
#     4  12  24  38  66 100 136 176 220 272 340 416
#     4  10  23  44  66  93 129 173 228 285 339 397
#     4  11  23  42  63  94 134 170 220 282 335 405
#     4  11  24  42  67  96 124 172 232 278 343 411
#     4  11  23  41  65  92 132 176 216 284 339 395
#     4  11  22  40  61  91 130 175 218 264 329 411
#     4  12  23  43  62  94 139 179 222 271 336 404
#
# _framework density 20.677989
#
# number of rings (size 3 to 8) (size 9 to 14) (size 15 to 20)
#    0.000    0.923    4.615    2.769    2.154    0.000 
#    0.000    3.077    0.000    6.462    0.000    0.000 
#    0.000    0.000    0.000    0.000    0.000    0.000 
#
# Total GULP energy -144844.315128 kJ/mol
# GULP energy per Si atom -5570.935197 kJ/mol
# Density = 2.063093 g / cm^3
# Si number density = 20.677989 Si / 1000 Ang^3
#
#
#
# Elastic Constant Matrix: (Units=GPa)
#
#
# Indices 1 2 3 4 5 6 
#
# 1 121.2544 24.4404 51.0217 0.0000 -14.7250 0.0000
# 2 24.4404 80.2475 40.9820 0.0000 -4.7122 0.0000
# 3 51.0217 40.9820 100.0956 0.0000 -30.5347 0.0000
# 4 0.0000 0.0000 0.0000 18.2893 0.0000 -11.7854
# 5 -14.7250 -4.7122 -30.5347 0.0000 37.6787 0.0000
# 6 0.0000 0.0000 0.0000 -11.7854 0.0000 25.0797
#
#
#
# Elastic Compliance Matrix: (Units=1/GPa)
#
#
# Indices 1 2 3 4 5 6 
#
# 1 0.010522 -0.000570 -0.005177 0.000000 -0.000155 0.000000
# 2 -0.000570 0.016336 -0.007762 0.000000 -0.004470 0.000000
# 3 -0.005177 -0.007762 0.019785 0.000000 0.013040 0.000000
# 4 0.000000 0.000000 0.000000 0.078425 0.000000 0.036853
# 5 -0.000155 -0.004470 0.013040 0.000000 0.036488 0.000000
# 6 0.000000 0.000000 0.000000 0.036853 0.000000 0.057191
#
#
# Mechanical properties :
#
#
# Convention : Reuss Voigt Hill
#
# Bulk Modulus (GPa) = 50.95269 59.38732 55.17000
# Shear Modulus (GPa) = 19.81722 28.55308 24.18515
#
# Velocity S-wave (km/s) = 3.09912 3.72000 3.42366
# Velocity P-wave (km/s) = 6.12377 6.87267 6.50900
#
# Compressibility (1/GPa) = 0.01962605
#
# Stress axis : x y z
#
# Youngs Moduli (GPa) = 95.04253 61.21327 50.54289
#
# Poissons Ratio (x) = 0.03487 0.26167
# Poissons Ratio (y) = 0.05414 0.39230
# Poissons Ratio (z) = 0.49206 0.47512
#
# Static dielectric constant tensor:
#      x y z
#    x 1.775670 0.000000 -0.001310 
#    y 0.000000 1.771910 0.000000 
#    z -0.001310 0.000000 1.688320 
# 
# From -- ./inp_files/287747.got.cif
#   From: 2010.05.17/outbox.cif.g08.bks.cpg/sg15_144_cif.got.tgz:287747.got - 2010.06.03 18:47:42.
