data_PCOD9296369
_publ_section_title
;
Structure prediction by ZEFSAII (Michael W. Deem and Ramdas Pophale) SiO2 
 PCOD9296369
Probable space group: C 2/C
;
_chemical_formula_sum "Si O2"
_cell_formula_units_Z 44
_cell_length_a 10.017509
_cell_length_b 10.778960
_cell_length_c 18.632337
_cell_angle_alpha 90.000000
_cell_angle_beta 121.417232
_cell_angle_gamma 90.000000
_cell_volume 1716.933795
_symmetry_space_group_name_H-M "C 2/C"
_symmetry_group_IT_number 15
_symmetry_cell_setting 'monoclinic'
loop_
_space_group_symop_operation_xyz
x,y,z
-x,y,1/2-z
-x,-y,-z
x,-y,1/2+z
1/2+x,1/2+y,z
1/2-x,1/2+y,1/2-z
1/2-x,1/2-y,-z
1/2+x,1/2-y,1/2+z
loop_
_atom_site_type_symbol
_atom_site_label
_atom_site_fract_x
_atom_site_fract_y
_atom_site_fract_z
Si Si1 0.456808 0.257070 0.351005
Si Si2 0.264910 0.242093 0.590585
Si Si3 0.500000 0.395648 0.750000
Si Si4 0.602458 0.008109 0.373594
Si Si5 0.747539 0.623126 0.954452
Si Si6 0.271514 0.094032 0.800510
O O1 0.386212 0.210364 0.407066
O O2 0.566400 0.151918 0.345588
O O3 0.560362 0.381296 0.390565
O O4 0.310788 0.291517 0.261093
O O5 0.250000 0.250000 0.500000
O O6 0.417590 0.313468 0.664240
O O7 0.279604 0.097438 0.620273
O O8 0.644483 0.483253 0.766485
O O9 0.666565 0.022955 0.473374
O O10 0.432840 0.950506 0.313305
O O11 0.813902 0.627682 0.894045
O O12 0.750000 0.750000 0.000000
#
# Coordination Sequence:
#
# PCOD9296369 Si02
#       6
#     8   8   4   8   8   8
#     4  11  25  48  71 111 149 198 254 311 391 454
#     4  12  28  48  76 112 151 203 261 313 388 467
#     4  12  24  50  70 108 152 198 256 306 398 452
#     4  11  26  46  75 103 152 192 252 314 381 454
#     4  10  23  44  72 110 140 193 249 310 389 450
#     4  12  23  47  78  97 153 198 245 318 382 461
#
# _framework density 25.627078999999998
#
# number of rings (size 3 to 8) (size 9 to 14) (size 15 to 20)
#    0.000    0.727    3.636    2.727    5.091    0.727 
#   19.636    0.000    0.000    0.000    0.000    0.000 
#    0.000    0.000    0.000    0.000    0.000    0.000 
#
# Total GULP energy -122833.748311 kJ/mol
# GULP energy per Si atom -5583.352196 kJ/mol
# Density = 2.556875 g / cm^3
# Si number density = 25.627079 Si / 1000 Ang^3
#
#
#
# Elastic Constant Matrix: (Units=GPa)
#
#
# Indices 1 2 3 4 5 6 
#
# 1 59.6272 17.7145 1.1965 0.0000 3.1137 0.0000
# 2 17.7145 107.4814 36.8267 0.0000 -0.5164 0.0000
# 3 1.1965 36.8267 150.8354 0.0000 -12.0250 0.0000
# 4 0.0000 0.0000 0.0000 53.5818 0.0000 13.7177
# 5 3.1137 -0.5164 -12.0250 0.0000 43.1197 0.0000
# 6 0.0000 0.0000 0.0000 13.7177 0.0000 35.8027
#
#
#
# Elastic Compliance Matrix: (Units=1/GPa)
#
#
# Indices 1 2 3 4 5 6 
#
# 1 0.017746 -0.003110 0.000525 0.000000 -0.001172 0.000000
# 2 -0.003110 0.010713 -0.002621 0.000000 -0.000378 0.000000
# 3 0.000525 -0.002621 0.007425 0.000000 0.002001 0.000000
# 4 0.000000 0.000000 0.000000 0.020693 0.000000 -0.007928
# 5 -0.001172 -0.000378 0.002001 0.000000 0.023830 0.000000
# 6 0.000000 0.000000 0.000000 -0.007928 0.000000 0.030969
#
#
# Mechanical properties :
#
#
# Convention : Reuss Voigt Hill
#
# Bulk Modulus (GPa) = 39.26013 47.71326 43.48670
# Shear Modulus (GPa) = 38.37974 43.98125 41.18049
#
# Velocity S-wave (km/s) = 3.87411 4.14720 4.01298
# Velocity P-wave (km/s) = 5.94682 6.44912 6.20306
#
# Compressibility (1/GPa) = 0.02547113
#
# Stress axis : x y z
#
# Youngs Moduli (GPa) = 56.35205 93.34640 134.67917
#
# Poissons Ratio (x) = 0.29034 -0.07073
# Poissons Ratio (y) = 0.17527 0.35300
# Poissons Ratio (z) = -0.02959 0.24466
#
# Static dielectric constant tensor:
#      x y z
#    x 1.993800 0.000000 0.024670 
#    y 0.000000 2.128650 0.000000 
#    z 0.024670 0.000000 2.195610 
# 
# From -- ./inp_files/237310.got.cif
#   From: 2010.05.17/outbox.cif.g08.bks.cpg/sg15_119_cif.got.tgz:237310.got - 2010.06.03 18:47:42.
