data_PCOD9296334
_publ_section_title
;
Structure prediction by ZEFSAII (Michael W. Deem and Ramdas Pophale) SiO2 
 PCOD9296334
Probable space group: C 2/C
;
_chemical_formula_sum "Si O2"
_cell_formula_units_Z 52
_cell_length_a 12.280742
_cell_length_b 28.535769
_cell_length_c 8.967227
_cell_angle_alpha 90.000000
_cell_angle_beta 41.302925
_cell_angle_gamma 90.000000
_cell_volume 2074.161748
_symmetry_space_group_name_H-M "C 2/C"
_symmetry_group_IT_number 15
_symmetry_cell_setting 'monoclinic'
loop_
_space_group_symop_operation_xyz
x,y,z
-x,y,1/2-z
-x,-y,-z
x,-y,1/2+z
1/2+x,1/2+y,z
1/2-x,1/2+y,1/2-z
1/2-x,1/2-y,-z
1/2+x,1/2-y,1/2+z
loop_
_atom_site_type_symbol
_atom_site_label
_atom_site_fract_x
_atom_site_fract_y
_atom_site_fract_z
Si Si1 0.795664 0.843380 0.950459
Si Si2 0.349618 0.218581 0.679623
Si Si3 0.314361 0.014334 0.146464
Si Si4 0.767698 0.114783 0.158455
Si Si5 0.500000 0.834444 0.750000
Si Si6 0.997480 0.806920 0.419296
Si Si7 0.318950 0.556026 0.511545
O O1 0.729081 0.863248 0.861506
O O2 0.770750 0.889764 0.078872
O O3 0.000000 0.835035 0.750000
O O4 0.674543 0.802545 0.131691
O O5 0.468028 0.195360 0.433694
O O6 0.173106 0.203467 0.801127
O O7 0.375189 0.274082 0.640858
O O8 0.254089 0.059873 0.301074
O O9 0.293168 0.029461 0.996571
O O10 0.198645 0.971587 0.316861
O O11 0.500000 0.000000 0.000000
O O12 0.655348 0.134305 0.140733
O O13 0.945813 0.139140 0.962147
O O14 0.000000 0.788406 0.250000
O O15 0.500000 0.555762 0.250000
#
# Coordination Sequence:
#
# PCOD9296334 Si02
#       7
#     8   8   8   8   4   8   8
#     4  10  23  47  70 103 140 185 231 298 359 423
#     4  12  25  44  77  97 150 183 239 302 353 437
#     4  11  25  44  69 103 144 183 236 301 358 432
#     4  11  26  44  70 104 142 184 244 290 365 424
#     4  12  26  44  68 108 136 198 236 290 362 428
#     4  12  23  46  72 107 141 190 242 300 357 422
#     4  10  23  44  71  99 139 184 238 290 359 427
#
# _framework density 25.070367999999998
#
# number of rings (size 3 to 8) (size 9 to 14) (size 15 to 20)
#    0.000    0.923    3.846    2.308    4.308    1.846 
#    0.000    0.000    0.000    0.000    0.000    0.000 
#    0.000    0.000    0.000    0.000    0.000    0.000 
#
# Total GULP energy -145281.153182 kJ/mol
# GULP energy per Si atom -5587.736661 kJ/mol
# Density = 2.501331 g / cm^3
# Si number density = 25.070368 Si / 1000 Ang^3
#
#
#
# Elastic Constant Matrix: (Units=GPa)
#
#
# Indices 1 2 3 4 5 6 
#
# 1 97.0950 -4.0587 -18.5441 0.0000 -12.1191 0.0000
# 2 -4.0587 125.1239 31.4612 0.0000 -8.4964 0.0000
# 3 -18.5441 31.4612 78.9328 0.0000 3.9748 0.0000
# 4 0.0000 0.0000 0.0000 30.8355 0.0000 7.4259
# 5 -12.1191 -8.4964 3.9748 0.0000 40.2011 0.0000
# 6 0.0000 0.0000 0.0000 7.4259 0.0000 35.5862
#
#
#
# Elastic Compliance Matrix: (Units=1/GPa)
#
#
# Indices 1 2 3 4 5 6 
#
# 1 0.011160 -0.000052 0.002486 0.000000 0.003107 0.000000
# 2 -0.000052 0.009088 -0.003749 0.000000 0.002276 0.000000
# 3 0.002486 -0.003749 0.014823 0.000000 -0.001508 0.000000
# 4 0.000000 0.000000 0.000000 0.034146 0.000000 -0.007125
# 5 0.003107 0.002276 -0.001508 0.000000 0.026442 0.000000
# 6 0.000000 0.000000 0.000000 -0.007125 0.000000 0.029588
#
#
# Mechanical properties :
#
#
# Convention : Reuss Voigt Hill
#
# Bulk Modulus (GPa) = 30.82558 35.42983 33.12770
# Shear Modulus (GPa) = 36.05173 40.81077 38.43125
#
# Velocity S-wave (km/s) = 3.79624 4.03904 3.91952
# Velocity P-wave (km/s) = 5.61583 5.99288 5.80742
#
# Compressibility (1/GPa) = 0.03244059
#
# Stress axis : x y z
#
# Youngs Moduli (GPa) = 89.60822 110.04068 67.46130
#
# Poissons Ratio (x) = 0.00573 -0.16772
# Poissons Ratio (y) = 0.00467 0.25291
# Poissons Ratio (z) = -0.22277 0.41254
#
# Static dielectric constant tensor:
#      x y z
#    x 1.875250 0.000000 -0.046260 
#    y 0.000000 1.971220 0.000000 
#    z -0.046260 0.000000 2.053400 
# 
# From -- ./inp_files/44784.got.cif
#   From: 2010.05.17/outbox.cif.g08.bks.cpg/sg15_23_cif.got.tgz:44784.got - 2010.06.03 18:47:42.
