data_PCOD9296857
_publ_section_title
;
Structure prediction by ZEFSAII (Michael W. Deem and Ramdas Pophale) SiO2 
 PCOD9296857
Probable space group: C 2/C
;
_chemical_formula_sum "Si O2"
_cell_formula_units_Z 44
_cell_length_a 25.646822
_cell_length_b 7.993404
_cell_length_c 9.713361
_cell_angle_alpha 90.000000
_cell_angle_beta 110.836495
_cell_angle_gamma 90.000000
_cell_volume 1861.059686
_symmetry_space_group_name_H-M "C 2/C"
_symmetry_group_IT_number 15
_symmetry_cell_setting 'monoclinic'
loop_
_space_group_symop_operation_xyz
x,y,z
-x,y,1/2-z
-x,-y,-z
x,-y,1/2+z
1/2+x,1/2+y,z
1/2-x,1/2+y,1/2-z
1/2-x,1/2-y,-z
1/2+x,1/2-y,1/2+z
loop_
_atom_site_type_symbol
_atom_site_label
_atom_site_fract_x
_atom_site_fract_y
_atom_site_fract_z
Si Si1 0.500000 0.334138 0.750000
Si Si2 0.946418 0.386909 0.970772
Si Si3 0.738298 0.051610 0.479242
Si Si4 0.915021 0.902755 0.255209
Si Si5 0.155678 0.062924 0.081123
Si Si6 0.329134 0.055422 0.831315
O O1 0.459562 0.225215 0.616600
O O2 0.538594 0.452885 0.693266
O O3 0.940145 0.269648 0.831121
O O4 0.889358 0.488868 0.932103
O O5 0.000000 0.500000 0.000000
O O6 0.750000 0.250000 0.500000
O O7 0.793030 0.982325 0.455393
O O8 0.686377 0.013154 0.332204
O O9 0.719592 0.992469 0.611391
O O10 0.866457 0.946305 0.318518
O O11 0.891209 0.903310 0.078982
O O12 0.170720 0.243418 0.159319
#
# Coordination Sequence:
#
# PCOD9296857 Si02
#       6
#     4   8   8   8   8   8
#     4  12  28  46  72 110 144 200 240 302 372 432
#     4  12  28  45  75 106 148 193 250 305 362 434
#     4  10  23  46  70 106 145 185 240 301 366 429
#     4  12  26  50  71 108 147 191 245 298 375 439
#     4  11  25  47  75 104 147 193 237 305 368 440
#     4  11  25  45  74 108 142 191 248 298 363 436
#
# _framework density 23.642443
#
# number of rings (size 3 to 8) (size 9 to 14) (size 15 to 20)
#    0.000    0.727    1.818    4.909   10.182    1.455 
#    0.000    5.455    0.000    0.000    0.000    0.000 
#    0.000    0.000    0.000    0.000    0.000    0.000 
#
# Total GULP energy -123301.462727 kJ/mol
# GULP energy per Si atom -5604.611942 kJ/mol
# Density = 2.358863 g / cm^3
# Si number density = 23.642443 Si / 1000 Ang^3
#
#
#
# Elastic Constant Matrix: (Units=GPa)
#
#
# Indices 1 2 3 4 5 6 
#
# 1 75.2216 21.5072 -17.7391 0.0000 4.7155 0.0000
# 2 21.5072 74.6502 17.1044 0.0000 7.9983 0.0000
# 3 -17.7391 17.1044 98.2236 0.0000 2.0169 0.0000
# 4 0.0000 0.0000 0.0000 32.5592 0.0000 2.7826
# 5 4.7155 7.9983 2.0169 0.0000 40.0397 0.0000
# 6 0.0000 0.0000 0.0000 2.7826 0.0000 20.6131
#
#
#
# Elastic Compliance Matrix: (Units=1/GPa)
#
#
# Indices 1 2 3 4 5 6 
#
# 1 0.015767 -0.005306 0.003792 0.000000 -0.000988 0.000000
# 2 -0.005306 0.016028 -0.003700 0.000000 -0.002391 0.000000
# 3 0.003792 -0.003700 0.011516 0.000000 -0.000287 0.000000
# 4 0.000000 0.000000 0.000000 0.031072 0.000000 -0.004194
# 5 -0.000988 -0.002391 -0.000287 0.000000 0.025584 0.000000
# 6 0.000000 0.000000 0.000000 -0.004194 0.000000 0.049079
#
#
# Mechanical properties :
#
#
# Convention : Reuss Voigt Hill
#
# Bulk Modulus (GPa) = 30.41060 32.20447 31.30754
# Shear Modulus (GPa) = 29.33674 33.79062 31.56368
#
# Velocity S-wave (km/s) = 3.52639 3.78462 3.65779
# Velocity P-wave (km/s) = 5.42874 5.72266 5.57764
#
# Compressibility (1/GPa) = 0.03288327
#
# Stress axis : x y z
#
# Youngs Moduli (GPa) = 63.42310 62.38952 86.83664
#
# Poissons Ratio (x) = 0.33101 -0.32926
# Poissons Ratio (y) = 0.33649 0.32131
# Poissons Ratio (z) = -0.24048 0.23085
#
# Static dielectric constant tensor:
#      x y z
#    x 1.917350 0.000000 0.008170 
#    y 0.000000 1.871260 0.000000 
#    z 0.008170 0.000000 1.862420 
# 
# From -- ./inp_files/116869.got.cif
#   From: 2010.05.17/outbox.cif.g08.bks.cpg/sg15_59_cif.got.tgz:116869.got - 2010.06.03 18:47:42.
