data_PCOD9296899
_publ_section_title
;
Structure prediction by ZEFSAII (Michael W. Deem and Ramdas Pophale) SiO2 
 PCOD9296899
Probable space group: C 2/C
;
_chemical_formula_sum "Si O2"
_cell_formula_units_Z 56
_cell_length_a 12.356572
_cell_length_b 22.848598
_cell_length_c 9.498777
_cell_angle_alpha 90.000000
_cell_angle_beta 113.026035
_cell_angle_gamma 90.000000
_cell_volume 2468.127073
_symmetry_space_group_name_H-M "C 2/C"
_symmetry_group_IT_number 15
_symmetry_cell_setting 'monoclinic'
loop_
_space_group_symop_operation_xyz
x,y,z
-x,y,1/2-z
-x,-y,-z
x,-y,1/2+z
1/2+x,1/2+y,z
1/2-x,1/2+y,1/2-z
1/2-x,1/2-y,-z
1/2+x,1/2-y,1/2+z
loop_
_atom_site_type_symbol
_atom_site_label
_atom_site_fract_x
_atom_site_fract_y
_atom_site_fract_z
Si Si1 0.167665 0.826078 0.525796
Si Si2 0.060167 0.177079 0.425056
Si Si3 0.234073 0.498657 0.825241
Si Si4 0.788829 0.222672 0.751618
Si Si5 0.367583 0.447256 0.631678
Si Si6 0.106288 0.618355 0.698910
Si Si7 0.600432 0.099572 0.388833
O O1 0.146461 0.797109 0.361253
O O2 0.224939 0.781568 0.668549
O O3 0.270665 0.872172 0.551951
O O4 0.047181 0.847359 0.533464
O O5 0.130391 0.220355 0.566763
O O6 0.137814 0.121045 0.417579
O O7 0.000000 0.200982 0.250000
O O8 0.279236 0.463879 0.712450
O O9 0.190268 0.563676 0.771846
O O10 0.126859 0.464024 0.841146
O O11 0.337342 0.508961 0.989859
O O12 0.685867 0.175822 0.727680
O O13 0.500000 0.456274 0.750000
O O14 0.053976 0.602060 0.521401
O O15 0.000000 0.625600 0.750000
O O16 0.500000 0.131698 0.250000
#
# Coordination Sequence:
#
# PCOD9296899 Si02
#       7
#     8   8   8   8   8   8   8
#     4  10  24  45  71 100 132 180 235 280 349 408
#     4  11  23  42  69 104 138 177 222 290 345 407
#     4  12  23  44  65  99 136 183 230 278 345 409
#     4  10  23  46  71  98 133 180 233 286 340 416
#     4  11  24  41  67 100 140 181 229 282 340 408
#     4  11  25  42  66  99 133 178 229 278 343 406
#     4  11  25  42  67  98 137 180 226 286 339 409
#
# _framework density 22.68927
#
# number of rings (size 3 to 8) (size 9 to 14) (size 15 to 20)
#    0.000    1.143    2.857    3.000    2.000    6.857 
#    0.000    0.000    0.000    0.000    0.000    0.000 
#    0.000    0.000    0.000    0.000    0.000    0.000 
#
# Total GULP energy -156474.935746 kJ/mol
# GULP energy per Si atom -5588.390562 kJ/mol
# Density = 2.263763 g / cm^3
# Si number density = 22.689270 Si / 1000 Ang^3
#
#
#
# Elastic Constant Matrix: (Units=GPa)
#
#
# Indices 1 2 3 4 5 6 
#
# 1 67.9913 2.5524 41.6563 0.0000 -20.5304 0.0000
# 2 2.5524 60.3257 25.2728 0.0000 -6.6700 0.0000
# 3 41.6563 25.2728 143.7059 0.0000 -7.9450 0.0000
# 4 0.0000 0.0000 0.0000 31.9709 0.0000 -5.2314
# 5 -20.5304 -6.6700 -7.9450 0.0000 37.3775 0.0000
# 6 0.0000 0.0000 0.0000 -5.2314 0.0000 14.7899
#
#
#
# Elastic Compliance Matrix: (Units=1/GPa)
#
#
# Indices 1 2 3 4 5 6 
#
# 1 0.021770 0.002912 -0.006206 0.000000 0.011158 0.000000
# 2 0.002912 0.018529 -0.003877 0.000000 0.004082 0.000000
# 3 -0.006206 -0.003877 0.009322 0.000000 -0.002119 0.000000
# 4 0.000000 0.000000 0.000000 0.033200 0.000000 0.011743
# 5 0.011158 0.004082 -0.002119 0.000000 0.033161 0.000000
# 6 0.000000 0.000000 0.000000 0.011743 0.000000 0.071767
#
#
# Mechanical properties :
#
#
# Convention : Reuss Voigt Hill
#
# Bulk Modulus (GPa) = 28.34449 45.66509 37.00479
# Shear Modulus (GPa) = 23.38081 30.33041 26.85561
#
# Velocity S-wave (km/s) = 3.21359 3.66016 3.44412
# Velocity P-wave (km/s) = 5.12729 6.16704 5.67104
#
# Compressibility (1/GPa) = 0.03528023
#
# Stress axis : x y z
#
# Youngs Moduli (GPa) = 45.93525 53.96909 107.27040
#
# Poissons Ratio (x) = -0.15718 0.66569
# Poissons Ratio (y) = -0.13379 0.41591
# Poissons Ratio (z) = 0.28506 0.20925
#
# Static dielectric constant tensor:
#      x y z
#    x 1.833620 0.000000 0.048360 
#    y 0.000000 1.853980 0.000000 
#    z 0.048360 0.000000 1.957700 
# 
# From -- ./inp_files/34303.got.cif
#   From: 2010.05.17/outbox.cif.g08.bks.cpg/sg15_18_cif.got.tgz:34303.got - 2010.06.03 18:47:42.
