data_PCOD9296063
_publ_section_title
;
Structure prediction by ZEFSAII (Michael W. Deem and Ramdas Pophale) SiO2 
 PCOD9296063
Probable space group: C 2/C
;
_chemical_formula_sum "Si O2"
_cell_formula_units_Z 48
_cell_length_a 9.169019
_cell_length_b 9.294838
_cell_length_c 22.535373
_cell_angle_alpha 90.000000
_cell_angle_beta 78.687895
_cell_angle_gamma 90.000000
_cell_volume 1883.256542
_symmetry_space_group_name_H-M "C 2/C"
_symmetry_group_IT_number 15
_symmetry_cell_setting 'monoclinic'
loop_
_space_group_symop_operation_xyz
x,y,z
-x,y,1/2-z
-x,-y,-z
x,-y,1/2+z
1/2+x,1/2+y,z
1/2-x,1/2+y,1/2-z
1/2-x,1/2-y,-z
1/2+x,1/2-y,1/2+z
loop_
_atom_site_type_symbol
_atom_site_label
_atom_site_fract_x
_atom_site_fract_y
_atom_site_fract_z
Si Si1 0.762525 0.966382 0.611924
Si Si2 0.883695 0.821519 0.382636
Si Si3 0.241726 0.480541 0.298753
Si Si4 0.318724 0.001756 0.516739
Si Si5 0.191405 0.734384 0.393342
Si Si6 0.104389 0.168333 0.299658
O O1 0.645561 0.840943 0.634814
O O2 0.909308 0.897631 0.632511
O O3 0.756474 0.974659 0.540736
O O4 0.711081 0.128595 0.632333
O O5 0.032032 0.812667 0.409074
O O6 0.885874 0.919179 0.323561
O O7 0.747150 0.878328 0.433368
O O8 0.187234 0.612051 0.343821
O O9 0.147503 0.335262 0.302689
O O10 0.272019 0.554044 0.233902
O O11 0.272235 0.851234 0.550524
O O12 0.500000 0.000000 0.500000
O O13 0.000000 0.165394 0.250000
#
# Coordination Sequence:
#
# PCOD9296063 Si02
#       6
#     8   8   8   8   8   8
#     4  11  23  42  68  99 135 179 223 273 338 398
#     4  10  23  44  66  96 139 179 221 281 342 397
#     4  10  24  42  64  98 131 168 230 273 340 405
#     4  11  23  44  67  99 142 178 227 280 338 408
#     4  11  23  42  67  99 134 178 224 278 339 407
#     4  11  24  45  68  98 133 177 223 282 337 405
#
# _framework density 25.487766000000001
#
# number of rings (size 3 to 8) (size 9 to 14) (size 15 to 20)
#    0.000    1.333    1.667    3.000    0.000    4.667 
#   12.000    0.833    0.000    0.000    0.000    0.000 
#    0.000    0.000    0.000    0.000    0.000    0.000 
#
# Total GULP energy -133878.679197 kJ/mol
# GULP energy per Si atom -5578.278300 kJ/mol
# Density = 2.542975 g / cm^3
# Si number density = 25.487766 Si / 1000 Ang^3
#
#
#
# Elastic Constant Matrix: (Units=GPa)
#
#
# Indices 1 2 3 4 5 6 
#
# 1 58.9390 32.5880 37.0501 0.0000 14.1224 0.0000
# 2 32.5880 229.4466 68.4346 0.0000 8.0572 0.0000
# 3 37.0501 68.4346 136.6244 0.0000 32.1339 0.0000
# 4 0.0000 0.0000 0.0000 60.5766 0.0000 15.3623
# 5 14.1224 8.0572 32.1339 0.0000 42.5053 0.0000
# 6 0.0000 0.0000 0.0000 15.3623 0.0000 19.2410
#
#
#
# Elastic Compliance Matrix: (Units=1/GPa)
#
#
# Indices 1 2 3 4 5 6 
#
# 1 0.021346 -0.001686 -0.004076 0.000000 -0.003691 0.000000
# 2 -0.001686 0.005306 -0.002549 0.000000 0.001481 0.000000
# 3 -0.004076 -0.002549 0.011274 0.000000 -0.006686 0.000000
# 4 0.000000 0.000000 0.000000 0.020699 0.000000 -0.016526
# 5 -0.003691 0.001481 -0.006686 0.000000 0.029526 0.000000
# 6 0.000000 0.000000 0.000000 -0.016526 0.000000 0.065167
#
#
# Mechanical properties :
#
#
# Convention : Reuss Voigt Hill
#
# Bulk Modulus (GPa) = 46.94069 77.90618 62.42343
# Shear Modulus (GPa) = 28.24198 43.59372 35.91785
#
# Velocity S-wave (km/s) = 3.33237 4.14016 3.75803
# Velocity P-wave (km/s) = 5.76742 7.31348 6.58598
#
# Compressibility (1/GPa) = 0.02130348
#
# Stress axis : x y z
#
# Youngs Moduli (GPa) = 46.84793 188.46434 88.70154
#
# Poissons Ratio (x) = 0.31784 0.36152
# Poissons Ratio (y) = 0.07901 0.22609
# Poissons Ratio (z) = 0.19094 0.48037
#
# Static dielectric constant tensor:
#      x y z
#    x 2.181680 0.000000 0.051130 
#    y 0.000000 2.013810 0.000000 
#    z 0.051130 0.000000 2.030670 
# 
# From -- ./inp_files/267732.got.cif
#   From: 2010.05.17/outbox.cif.g08.bks.cpg/sg15_134_cif.got.tgz:267732.got - 2010.06.03 18:47:42.
