data_PCOD9296969
_publ_section_title
;
Structure prediction by ZEFSAII (Michael W. Deem and Ramdas Pophale) SiO2 
 PCOD9296969
Probable space group: C 2/C
;
_chemical_formula_sum "Si O2"
_cell_formula_units_Z 40
_cell_length_a 9.560715
_cell_length_b 15.316295
_cell_length_c 10.755906
_cell_angle_alpha 90.000000
_cell_angle_beta 93.956625
_cell_angle_gamma 90.000000
_cell_volume 1571.284216
_symmetry_space_group_name_H-M "C 2/C"
_symmetry_group_IT_number 15
_symmetry_cell_setting 'monoclinic'
loop_
_space_group_symop_operation_xyz
x,y,z
-x,y,1/2-z
-x,-y,-z
x,-y,1/2+z
1/2+x,1/2+y,z
1/2-x,1/2+y,1/2-z
1/2-x,1/2-y,-z
1/2+x,1/2-y,1/2+z
loop_
_atom_site_type_symbol
_atom_site_label
_atom_site_fract_x
_atom_site_fract_y
_atom_site_fract_z
Si Si1 0.318661 0.259670 0.363604
Si Si2 0.601512 0.702400 0.996427
Si Si3 0.734247 0.485178 0.494833
Si Si4 0.158164 0.573191 0.758653
Si Si5 0.397755 0.632510 0.156673
O O1 0.250000 0.250000 0.500000
O O2 0.485852 0.263074 0.391177
O O3 0.262158 0.345399 0.290230
O O4 0.243217 0.175569 0.298132
O O5 0.640499 0.600791 0.991592
O O6 0.750000 0.750000 0.000000
O O7 0.509080 0.705397 0.116807
O O8 0.814531 0.505043 0.627281
O O9 0.647761 0.572252 0.459684
O O10 0.822207 0.470434 0.374463
O O11 0.000000 0.605479 0.750000
O O12 0.500000 0.575588 0.250000
#
# Coordination Sequence:
#
# PCOD9296969 Si02
#       5
#     8   8   8   8   8
#     4  10  23  46  76 106 151 204 261 315 397 462
#     4  11  26  45  72 112 153 197 263 323 386 463
#     4  12  27  48  80 114 155 207 265 319 396 471
#     4  12  27  48  79 117 159 205 261 329 394 471
#     4  11  24  47  77 106 152 205 258 318 396 462
#
# _framework density 25.456885
#
# number of rings (size 3 to 8) (size 9 to 14) (size 15 to 20)
#    0.000    0.800    4.000    3.000   11.200    1.600 
#    0.000    0.000    0.000    0.000    0.000    0.000 
#    0.000    0.000    0.000    0.000    0.000    0.000 
#
# Total GULP energy -111763.207778 kJ/mol
# GULP energy per Si atom -5588.160389 kJ/mol
# Density = 2.539894 g / cm^3
# Si number density = 25.456885 Si / 1000 Ang^3
#
#
#
# Elastic Constant Matrix: (Units=GPa)
#
#
# Indices 1 2 3 4 5 6 
#
# 1 195.3928 68.4554 48.8564 0.0000 42.2676 0.0000
# 2 68.4554 126.9240 17.8809 0.0000 13.4154 0.0000
# 3 48.8564 17.8809 89.8363 0.0000 -8.6095 0.0000
# 4 0.0000 0.0000 0.0000 32.0240 0.0000 -9.7512
# 5 42.2676 13.4154 -8.6095 0.0000 52.6425 0.0000
# 6 0.0000 0.0000 0.0000 -9.7512 0.0000 23.8684
#
#
#
# Elastic Compliance Matrix: (Units=1/GPa)
#
#
# Indices 1 2 3 4 5 6 
#
# 1 0.009154 -0.003465 -0.004987 0.000000 -0.007282 0.000000
# 2 -0.003465 0.009719 -0.000021 0.000000 0.000302 0.000000
# 3 -0.004987 -0.000021 0.014458 0.000000 0.006374 0.000000
# 4 0.000000 0.000000 0.000000 0.035663 0.000000 0.014570
# 5 -0.007282 0.000302 0.006374 0.000000 0.025809 0.000000
# 6 0.000000 0.000000 0.000000 0.014570 0.000000 0.047849
#
#
# Mechanical properties :
#
#
# Convention : Reuss Voigt Hill
#
# Bulk Modulus (GPa) = 61.02876 75.83761 68.43319
# Shear Modulus (GPa) = 30.29233 40.17103 35.23168
#
# Velocity S-wave (km/s) = 3.45330 3.97672 3.72422
# Velocity P-wave (km/s) = 6.31869 7.13730 6.74043
#
# Compressibility (1/GPa) = 0.01638572
#
# Stress axis : x y z
#
# Youngs Moduli (GPa) = 109.24161 102.89590 69.16454
#
# Poissons Ratio (x) = 0.35652 0.34489
# Poissons Ratio (y) = 0.37851 0.00146
# Poissons Ratio (z) = 0.54474 0.00217
#
# Static dielectric constant tensor:
#      x y z
#    x 2.052980 0.000000 -0.048950 
#    y 0.000000 2.044700 0.000000 
#    z -0.048950 0.000000 2.331420 
# 
# From -- ./inp_files/133279.got.cif
#   From: 2010.05.17/outbox.cif.g08.bks.cpg/sg15_67_cif.got.tgz:133279.got - 2010.06.03 18:47:42.
