data_PCOD9296718
_publ_section_title
;
Structure prediction by ZEFSAII (Michael W. Deem and Ramdas Pophale) SiO2 
 PCOD9296718
Probable space group: C 2/C
;
_chemical_formula_sum "Si O2"
_cell_formula_units_Z 40
_cell_length_a 13.205171
_cell_length_b 8.467674
_cell_length_c 15.738441
_cell_angle_alpha 90.000000
_cell_angle_beta 62.443961
_cell_angle_gamma 90.000000
_cell_volume 1560.189709
_symmetry_space_group_name_H-M "C 2/C"
_symmetry_group_IT_number 15
_symmetry_cell_setting 'monoclinic'
loop_
_space_group_symop_operation_xyz
x,y,z
-x,y,1/2-z
-x,-y,-z
x,-y,1/2+z
1/2+x,1/2+y,z
1/2-x,1/2+y,1/2-z
1/2-x,1/2-y,-z
1/2+x,1/2-y,1/2+z
loop_
_atom_site_type_symbol
_atom_site_label
_atom_site_fract_x
_atom_site_fract_y
_atom_site_fract_z
Si Si1 0.963856 0.841409 0.062399
Si Si2 0.391985 0.651472 0.269532
Si Si3 0.603557 0.167809 0.144128
Si Si4 0.260370 0.359706 0.276761
Si Si5 0.629525 0.836176 0.054379
O O1 0.848959 0.864552 0.162676
O O2 0.059513 0.789950 0.091317
O O3 0.940907 0.705783 0.002017
O O4 0.000000 0.000000 0.000000
O O5 0.500000 0.532646 0.250000
O O6 0.281286 0.534947 0.306757
O O7 0.355663 0.786977 0.215414
O O8 0.418095 0.748071 0.344691
O O9 0.500000 0.128641 0.250000
O O10 0.700558 0.239454 0.165719
O O11 0.640371 0.015847 0.076704
O O12 0.750000 0.750000 0.000000
#
# Coordination Sequence:
#
# PCOD9296718 Si02
#       5
#     8   8   8   8   8
#     4  11  23  45  73 106 148 184 242 309 374 435
#     4  12  25  47  75 104 144 195 247 300 369 444
#     4  10  23  45  74 102 140 196 244 294 365 450
#     4  11  24  46  74 107 143 189 247 301 359 448
#     4  12  24  44  66 104 147 180 238 307 363 428
#
# _framework density 25.637909000000001
#
# number of rings (size 3 to 8) (size 9 to 14) (size 15 to 20)
#    0.000    0.800    2.000    6.600    0.000    1.600 
#    7.200    3.000    0.000    0.000    0.000    0.000 
#    0.000    0.000    0.000    0.000    0.000    0.000 
#
# Total GULP energy -111835.940405 kJ/mol
# GULP energy per Si atom -5591.797020 kJ/mol
# Density = 2.557956 g / cm^3
# Si number density = 25.637909 Si / 1000 Ang^3
#
#
#
# Elastic Constant Matrix: (Units=GPa)
#
#
# Indices 1 2 3 4 5 6 
#
# 1 179.4424 56.7637 57.3285 0.0000 51.4184 0.0000
# 2 56.7637 145.9270 42.1027 0.0000 13.8160 0.0000
# 3 57.3285 42.1027 119.4482 0.0000 30.8464 0.0000
# 4 0.0000 0.0000 0.0000 54.0889 0.0000 10.3155
# 5 51.4184 13.8160 30.8464 0.0000 37.2018 0.0000
# 6 0.0000 0.0000 0.0000 10.3155 0.0000 13.0529
#
#
#
# Elastic Compliance Matrix: (Units=1/GPa)
#
#
# Indices 1 2 3 4 5 6 
#
# 1 0.010224 -0.002569 -0.000761 0.000000 -0.012545 0.000000
# 2 -0.002569 0.008292 -0.002305 0.000000 0.002383 0.000000
# 3 -0.000761 -0.002305 0.011525 0.000000 -0.007647 0.000000
# 4 0.000000 0.000000 0.000000 0.021769 0.000000 -0.017204
# 5 -0.012545 0.002383 -0.007647 0.000000 0.049675 0.000000
# 6 0.000000 0.000000 0.000000 -0.017204 0.000000 0.090207
#
#
# Mechanical properties :
#
#
# Convention : Reuss Voigt Hill
#
# Bulk Modulus (GPa) = 53.28154 84.13416 68.70785
# Shear Modulus (GPa) = 23.89849 40.11024 32.00437
#
# Velocity S-wave (km/s) = 3.05643 3.95965 3.53699
# Velocity P-wave (km/s) = 5.76916 7.33435 6.59833
#
# Compressibility (1/GPa) = 0.01876823
#
# Stress axis : x y z
#
# Youngs Moduli (GPa) = 97.81339 120.60444 86.77132
#
# Poissons Ratio (x) = 0.30988 0.06608
# Poissons Ratio (y) = 0.25132 0.19999
# Poissons Ratio (z) = 0.07448 0.27797
#
# Static dielectric constant tensor:
#      x y z
#    x 1.747170 0.000000 0.133380 
#    y 0.000000 1.856580 0.000000 
#    z 0.133380 0.000000 1.849380 
# 
# From -- ./inp_files/150577.got.cif
#   From: 2010.05.17/outbox.cif.g08.bks.cpg/sg15_76_cif.got.tgz:150577.got - 2010.06.03 18:47:42.
