data_PCOD9296774
_publ_section_title
;
Structure prediction by ZEFSAII (Michael W. Deem and Ramdas Pophale) SiO2 
 PCOD9296774
Probable space group: C 2/C
;
_chemical_formula_sum "Si O2"
_cell_formula_units_Z 40
_cell_length_a 8.183545
_cell_length_b 16.548331
_cell_length_c 15.380877
_cell_angle_alpha 90.000000
_cell_angle_beta 68.516289
_cell_angle_gamma 90.000000
_cell_volume 1938.220981
_symmetry_space_group_name_H-M "C 2/C"
_symmetry_group_IT_number 15
_symmetry_cell_setting 'monoclinic'
loop_
_space_group_symop_operation_xyz
x,y,z
-x,y,1/2-z
-x,-y,-z
x,-y,1/2+z
1/2+x,1/2+y,z
1/2-x,1/2+y,1/2-z
1/2-x,1/2-y,-z
1/2+x,1/2-y,1/2+z
loop_
_atom_site_type_symbol
_atom_site_label
_atom_site_fract_x
_atom_site_fract_y
_atom_site_fract_z
Si Si1 0.000000 0.387637 0.250000
Si Si2 0.207342 0.122872 0.203365
Si Si3 0.860553 0.533290 0.599270
Si Si4 0.500000 0.810470 0.750000
Si Si5 0.855727 0.811908 0.421517
Si Si6 0.714655 0.281219 0.409922
O O1 0.933909 0.439481 0.179899
O O2 0.858037 0.330213 0.326227
O O3 0.334401 0.129269 0.262373
O O4 0.300867 0.195489 0.134308
O O5 0.000000 0.139706 0.250000
O O6 0.231809 0.040291 0.146979
O O7 0.757493 0.610571 0.581845
O O8 0.000000 0.500000 0.500000
O O9 0.589811 0.743927 0.669586
O O10 0.750000 0.750000 0.500000
O O11 0.035853 0.831758 0.436953
O O12 0.750000 0.250000 0.500000
#
# Coordination Sequence:
#
# PCOD9296774 Si02
#       6
#     4   8   8   4   8   8
#     4  12  25  46  73 100 148 194 242 304 365 444
#     4  11  24  41  69  98 140 178 230 301 362 428
#     4  12  26  46  67 107 146 189 243 307 375 441
#     4  10  23  46  65 100 132 188 236 282 365 438
#     4  11  24  42  73  96 139 183 236 295 359 439
#     4  11  24  45  71 105 133 189 248 297 362 452
#
# _framework density 20.637481999999999
#
# number of rings (size 3 to 8) (size 9 to 14) (size 15 to 20)
#    0.000    0.800    1.000    7.800    7.000    0.000 
#    0.000    2.000    0.000    0.000    0.000    0.000 
#    0.000    0.000    0.000    0.000    0.000    0.000 
#
# Total GULP energy -111372.919946 kJ/mol
# GULP energy per Si atom -5568.645997 kJ/mol
# Density = 2.059051 g / cm^3
# Si number density = 20.637482 Si / 1000 Ang^3
#
#
#
# Elastic Constant Matrix: (Units=GPa)
#
#
# Indices 1 2 3 4 5 6 
#
# 1 135.6589 52.0731 43.0593 0.0000 -10.7652 0.0000
# 2 52.0731 133.8202 42.6676 0.0000 -5.2752 0.0000
# 3 43.0593 42.6676 122.7077 0.0000 -18.3700 0.0000
# 4 0.0000 0.0000 0.0000 35.6148 0.0000 -7.6159
# 5 -10.7652 -5.2752 -18.3700 0.0000 22.3941 0.0000
# 6 0.0000 0.0000 0.0000 -7.6159 0.0000 31.1466
#
#
#
# Elastic Compliance Matrix: (Units=1/GPa)
#
#
# Indices 1 2 3 4 5 6 
#
# 1 0.009270 -0.002911 -0.001911 0.000000 0.002203 0.000000
# 2 -0.002911 0.009323 -0.002395 0.000000 -0.001168 0.000000
# 3 -0.001911 -0.002395 0.010751 0.000000 0.007336 0.000000
# 4 0.000000 0.000000 0.000000 0.029627 0.000000 0.007244
# 5 0.002203 -0.001168 0.007336 0.000000 0.051457 0.000000
# 6 0.000000 0.000000 0.000000 0.007244 0.000000 0.033878
#
#
# Mechanical properties :
#
#
# Convention : Reuss Voigt Hill
#
# Bulk Modulus (GPa) = 67.06879 74.19854 70.63367
# Shear Modulus (GPa) = 30.54168 34.79022 32.66595
#
# Velocity S-wave (km/s) = 3.85114 4.11028 3.98282
# Velocity P-wave (km/s) = 7.23492 7.65227 7.44652
#
# Compressibility (1/GPa) = 0.01491006
#
# Stress axis : x y z
#
# Youngs Moduli (GPa) = 107.87173 107.25985 93.01328
#
# Poissons Ratio (x) = 0.31225 0.17774
# Poissons Ratio (y) = 0.31403 0.22278
# Poissons Ratio (z) = 0.20614 0.25690
#
# Static dielectric constant tensor:
#      x y z
#    x 1.964300 0.000000 0.004880 
#    y 0.000000 1.718550 0.000000 
#    z 0.004880 0.000000 1.532730 
# 
# From -- ./inp_files/133140.got.cif
#   From: 2010.05.17/outbox.cif.g08.bks.cpg/sg15_67_cif.got.tgz:133140.got - 2010.06.03 18:47:42.
