data_PCOD9296406
_publ_section_title
;
Structure prediction by ZEFSAII (Michael W. Deem and Ramdas Pophale) SiO2 
 PCOD9296406
Probable space group: C 2/C
;
_chemical_formula_sum "Si O2"
_cell_formula_units_Z 56
_cell_length_a 27.888172
_cell_length_b 14.494403
_cell_length_c 10.725231
_cell_angle_alpha 90.000000
_cell_angle_beta 30.864403
_cell_angle_gamma 90.000000
_cell_volume 2224.084152
_symmetry_space_group_name_H-M "C 2/C"
_symmetry_group_IT_number 15
_symmetry_cell_setting 'monoclinic'
loop_
_space_group_symop_operation_xyz
x,y,z
-x,y,1/2-z
-x,-y,-z
x,-y,1/2+z
1/2+x,1/2+y,z
1/2-x,1/2+y,1/2-z
1/2-x,1/2-y,-z
1/2+x,1/2-y,1/2+z
loop_
_atom_site_type_symbol
_atom_site_label
_atom_site_fract_x
_atom_site_fract_y
_atom_site_fract_z
Si Si1 0.025554 0.688578 0.452429
Si Si2 0.257265 0.648410 0.540573
Si Si3 0.165981 0.383499 0.004442
Si Si4 0.182340 0.231953 0.766829
Si Si5 0.459559 0.623737 0.034465
Si Si6 0.082278 0.057568 0.975887
Si Si7 0.393517 0.924159 0.938906
O O1 0.081887 0.733153 0.440523
O O2 0.091916 0.618480 0.230725
O O3 0.933315 0.642885 0.713080
O O4 0.991944 0.772005 0.436414
O O5 0.250000 0.750000 0.500000
O O6 0.228669 0.588953 0.482934
O O7 0.178620 0.634804 0.819145
O O8 0.365676 0.630921 0.329113
O O9 0.147841 0.473343 0.963504
O O10 0.202913 0.297597 0.839061
O O11 0.250000 0.250000 0.500000
O O12 0.170379 0.121620 0.809789
O O13 0.424040 0.553610 0.007934
O O14 0.547568 0.581281 0.912604
O O15 0.000000 0.089708 0.250000
O O16 0.500000 0.925124 0.750000
#
# Coordination Sequence:
#
# PCOD9296406 Si02
#       7
#     8   8   8   8   8   8   8
#     4  11  23  46  73 100 146 189 235 299 367 433
#     4  12  27  46  69 104 148 188 238 300 367 435
#     4  12  26  46  72 101 147 195 233 303 366 429
#     4  11  26  43  72 105 140 188 247 294 365 430
#     4  10  23  45  69 101 137 182 237 290 365 420
#     4  10  23  44  73  97 137 182 236 301 353 428
#     4  12  26  44  74 105 143 188 247 294 366 442
#
# _framework density 25.178902000000001
#
# number of rings (size 3 to 8) (size 9 to 14) (size 15 to 20)
#    0.000    0.857    2.857    3.429    6.000    2.857 
#    2.571    0.000    0.000    0.000    0.000    0.000 
#    0.000    0.000    0.000    0.000    0.000    0.000 
#
# Total GULP energy -156571.251520 kJ/mol
# GULP energy per Si atom -5591.830411 kJ/mol
# Density = 2.512159 g / cm^3
# Si number density = 25.178902 Si / 1000 Ang^3
#
#
#
# Elastic Constant Matrix: (Units=GPa)
#
#
# Indices 1 2 3 4 5 6 
#
# 1 71.1961 1.1883 9.0413 0.0000 -5.8610 0.0000
# 2 1.1883 124.9079 25.0637 0.0000 13.2133 0.0000
# 3 9.0413 25.0637 119.5698 0.0000 12.8818 0.0000
# 4 0.0000 0.0000 0.0000 35.2922 0.0000 5.2839
# 5 -5.8610 13.2133 12.8818 0.0000 44.7216 0.0000
# 6 0.0000 0.0000 0.0000 5.2839 0.0000 25.9420
#
#
#
# Elastic Compliance Matrix: (Units=1/GPa)
#
#
# Indices 1 2 3 4 5 6 
#
# 1 0.014404 -0.000117 -0.001312 0.000000 0.002300 0.000000
# 2 -0.000117 0.008540 -0.001556 0.000000 -0.002090 0.000000
# 3 -0.001312 -0.001556 0.009038 0.000000 -0.002316 0.000000
# 4 0.000000 0.000000 0.000000 0.029226 0.000000 -0.005953
# 5 0.002300 -0.002090 -0.002316 0.000000 0.023947 0.000000
# 6 0.000000 0.000000 0.000000 -0.005953 0.000000 0.039760
#
#
# Mechanical properties :
#
#
# Convention : Reuss Voigt Hill
#
# Bulk Modulus (GPa) = 38.44505 42.91780 40.68143
# Shear Modulus (GPa) = 35.82776 39.88321 37.85549
#
# Velocity S-wave (km/s) = 3.77626 3.98426 3.88165
# Velocity P-wave (km/s) = 5.85794 6.18449 6.02343
#
# Compressibility (1/GPa) = 0.02601115
#
# Stress axis : x y z
#
# Youngs Moduli (GPa) = 69.42663 117.09060 110.64119
#
# Poissons Ratio (x) = 0.01370 0.14521
# Poissons Ratio (y) = 0.00812 0.17217
# Poissons Ratio (z) = 0.09112 0.18221
#
# Static dielectric constant tensor:
#      x y z
#    x 2.089300 0.000000 -0.011560 
#    y 0.000000 2.025960 0.000000 
#    z -0.011560 0.000000 1.917730 
# 
# From -- ./inp_files/126969.got.cif
#   From: 2010.05.17/outbox.cif.g08.bks.cpg/sg15_64_cif.got.tgz:126969.got - 2010.06.03 18:47:42.
