data_PCOD9296465
_publ_section_title
;
Structure prediction by ZEFSAII (Michael W. Deem and Ramdas Pophale) SiO2 
 PCOD9296465
Probable space group: C 2/C
;
_chemical_formula_sum "Si O2"
_cell_formula_units_Z 40
_cell_length_a 19.487587
_cell_length_b 5.184728
_cell_length_c 19.383717
_cell_angle_alpha 90.000000
_cell_angle_beta 131.764903
_cell_angle_gamma 90.000000
_cell_volume 1460.805796
_symmetry_space_group_name_H-M "C 2/C"
_symmetry_group_IT_number 15
_symmetry_cell_setting 'monoclinic'
loop_
_space_group_symop_operation_xyz
x,y,z
-x,y,1/2-z
-x,-y,-z
x,-y,1/2+z
1/2+x,1/2+y,z
1/2-x,1/2+y,1/2-z
1/2-x,1/2-y,-z
1/2+x,1/2-y,1/2+z
loop_
_atom_site_type_symbol
_atom_site_label
_atom_site_fract_x
_atom_site_fract_y
_atom_site_fract_z
Si Si1 0.967081 0.604495 0.663199
Si Si2 0.982159 0.680590 0.423050
Si Si3 0.342911 0.508578 0.010706
Si Si4 0.308708 0.525219 0.776822
Si Si5 0.174113 0.236528 0.858764
O O1 0.912678 0.391919 0.670920
O O2 0.000000 0.781924 0.750000
O O3 0.042034 0.494981 0.660285
O O4 0.894399 0.726829 0.561021
O O5 0.899652 0.883039 0.379138
O O6 0.000000 0.500000 0.500000
O O7 0.074019 0.827418 0.460136
O O8 0.304382 0.444957 0.061578
O O9 0.256406 0.445221 0.904951
O O10 0.269306 0.242835 0.763026
O O11 0.335353 0.564647 0.714670
#
# Coordination Sequence:
#
# PCOD9296465 Si02
#       5
#     8   8   8   8   8
#     4  11  23  40  71 101 135 181 233 300 350 426
#     4  11  26  45  67 102 139 187 241 290 360 423
#     4  10  24  41  73  93 138 181 236 295 355 420
#     4  12  29  46  72 102 147 190 236 295 359 425
#     4  10  23  45  64 103 134 182 237 289 354 424
#
# _framework density 27.382145000000001
#
# number of rings (size 3 to 8) (size 9 to 14) (size 15 to 20)
#    0.000    1.200    2.000    1.800   11.200    0.800 
#    0.000    0.000    0.000    0.000    0.000    0.000 
#    0.000    0.000    0.000    0.000    0.000    0.000 
#
# Total GULP energy -112013.906160 kJ/mol
# GULP energy per Si atom -5600.695308 kJ/mol
# Density = 2.731982 g / cm^3
# Si number density = 27.382145 Si / 1000 Ang^3
#
#
#
# Elastic Constant Matrix: (Units=GPa)
#
#
# Indices 1 2 3 4 5 6 
#
# 1 149.8718 43.1666 35.6129 0.0000 0.0979 -0.0001
# 2 43.1666 75.0718 1.3156 0.0003 -4.5366 -0.0009
# 3 35.6129 1.3156 83.5307 0.0000 -11.3814 0.0000
# 4 0.0000 0.0003 0.0000 27.7718 0.0000 0.5065
# 5 0.0979 -4.5366 -11.3814 0.0000 67.9807 0.0001
# 6 -0.0001 -0.0009 0.0000 0.5065 0.0001 59.0308
#
#
#
# Elastic Compliance Matrix: (Units=1/GPa)
#
#
# Indices 1 2 3 4 5 6 
#
# 1 0.009118 -0.005236 -0.003944 0.000000 -0.001023 0.000000
# 2 -0.005236 0.016382 0.002174 0.000000 0.001465 0.000000
# 3 -0.003944 0.002174 0.013958 0.000000 0.002488 0.000000
# 4 0.000000 0.000000 0.000000 0.036013 0.000000 -0.000309
# 5 -0.001023 0.001465 0.002488 0.000000 0.015226 0.000000
# 6 0.000000 0.000000 0.000000 -0.000309 0.000000 0.016943
#
#
# Mechanical properties :
#
#
# Convention : Reuss Voigt Hill
#
# Bulk Modulus (GPa) = 39.30029 52.07384 45.68707
# Shear Modulus (GPa) = 38.42169 46.18192 42.30180
#
# Velocity S-wave (km/s) = 3.74995 4.11124 3.93475
# Velocity P-wave (km/s) = 5.75614 6.44943 6.11262
#
# Compressibility (1/GPa) = 0.02544511
#
# Stress axis : x y z
#
# Youngs Moduli (GPa) = 109.66871 61.04408 71.64315
#
# Poissons Ratio (x) = 0.31961 0.28260
# Poissons Ratio (y) = 0.57420 -0.15574
# Poissons Ratio (z) = 0.43259 -0.13270
#
# Static dielectric constant tensor:
#      x y z
#    x 2.066360 0.000000 0.069440 
#    y 0.000000 2.250720 0.000000 
#    z 0.069440 0.000000 2.417920 
# 
# From -- ./inp_files/251148.got.cif
#   From: 2010.05.17/outbox.cif.g08.bks.cpg/sg15_126_cif.got.tgz:251148.got - 2010.06.03 18:47:42.
