data_PCOD9296896
_publ_section_title
;
Structure prediction by ZEFSAII (Michael W. Deem and Ramdas Pophale) SiO2 
 PCOD9296896
Probable space group: C 2/C
;
_chemical_formula_sum "Si O2"
_cell_formula_units_Z 40
_cell_length_a 14.293240
_cell_length_b 24.678776
_cell_length_c 4.970225
_cell_angle_alpha 90.000000
_cell_angle_beta 99.060792
_cell_angle_gamma 90.000000
_cell_volume 1731.318801
_symmetry_space_group_name_H-M "C 2/C"
_symmetry_group_IT_number 15
_symmetry_cell_setting 'monoclinic'
loop_
_space_group_symop_operation_xyz
x,y,z
-x,y,1/2-z
-x,-y,-z
x,-y,1/2+z
1/2+x,1/2+y,z
1/2-x,1/2+y,1/2-z
1/2-x,1/2-y,-z
1/2+x,1/2-y,1/2+z
loop_
_atom_site_type_symbol
_atom_site_label
_atom_site_fract_x
_atom_site_fract_y
_atom_site_fract_z
Si Si1 0.797349 0.359289 0.912016
Si Si2 0.166564 0.710166 0.565041
Si Si3 0.411712 0.628070 0.013477
Si Si4 0.000000 0.040114 0.750000
Si Si5 0.114113 0.467203 0.305157
Si Si6 0.500000 0.725712 0.750000
O O1 0.818614 0.309573 0.125372
O O2 0.685461 0.370088 0.872759
O O3 0.847660 0.411638 0.057735
O O4 0.829070 0.341693 0.631026
O O5 0.250000 0.750000 0.500000
O O6 0.066478 0.739013 0.471297
O O7 0.415253 0.582069 0.783834
O O8 0.432171 0.685686 0.886485
O O9 0.500000 0.616817 0.250000
O O10 0.000000 0.000000 0.500000
O O11 0.144338 0.515458 0.521254
O O12 0.000000 0.464203 0.250000
#
# Coordination Sequence:
#
# PCOD9296896 Si02
#       6
#     8   8   8   4   8   4
#     4  12  27  44  72 103 136 177 242 278 339 414
#     4  12  26  45  67 104 139 181 227 284 331 417
#     4  11  25  45  71  97 141 184 225 282 347 412
#     4  11  24  44  66 100 132 176 226 279 334 410
#     4  10  23  46  71  97 134 174 221 285 350 399
#     4  11  26  42  70  96 144 186 220 279 358 392
#
# _framework density 23.103773
#
# number of rings (size 3 to 8) (size 9 to 14) (size 15 to 20)
#    0.000    0.800    3.000    3.000    8.400    1.600 
#    0.000    0.000    0.000    0.000    0.000    0.000 
#    0.000    0.000    0.000    0.000    0.000    0.000 
#
# Total GULP energy -112008.852534 kJ/mol
# GULP energy per Si atom -5600.442627 kJ/mol
# Density = 2.305119 g / cm^3
# Si number density = 23.103773 Si / 1000 Ang^3
#
#
#
# Elastic Constant Matrix: (Units=GPa)
#
#
# Indices 1 2 3 4 5 6 
#
# 1 48.6198 28.2205 23.4296 0.0000 7.6710 0.0000
# 2 28.2205 102.5265 19.3008 0.0000 11.4601 0.0000
# 3 23.4296 19.3008 102.6171 0.0000 0.4862 0.0000
# 4 0.0000 0.0000 0.0000 32.9649 0.0000 -1.4175
# 5 7.6710 11.4601 0.4862 0.0000 34.1680 0.0000
# 6 0.0000 0.0000 0.0000 -1.4175 0.0000 17.1256
#
#
#
# Elastic Compliance Matrix: (Units=1/GPa)
#
#
# Indices 1 2 3 4 5 6 
#
# 1 0.027153 -0.006080 -0.005037 0.000000 -0.003985 0.000000
# 2 -0.006080 0.011875 -0.000833 0.000000 -0.002606 0.000000
# 3 -0.005037 -0.000833 0.011046 0.000000 0.001253 0.000000
# 4 0.000000 0.000000 0.000000 0.030444 0.000000 0.002520
# 5 -0.003985 -0.002606 0.001253 0.000000 0.031018 0.000000
# 6 0.000000 0.000000 0.000000 0.002520 0.000000 0.058601
#
#
# Mechanical properties :
#
#
# Convention : Reuss Voigt Hill
#
# Bulk Modulus (GPa) = 38.20665 43.96279 41.08472
# Shear Modulus (GPa) = 24.65951 29.03919 26.84935
#
# Velocity S-wave (km/s) = 3.27056 3.54913 3.41269
# Velocity P-wave (km/s) = 5.55292 5.98872 5.77493
#
# Compressibility (1/GPa) = 0.02617346
#
# Stress axis : x y z
#
# Youngs Moduli (GPa) = 36.82842 84.20863 90.53235
#
# Poissons Ratio (x) = 0.51200 0.45602
# Poissons Ratio (y) = 0.22392 0.07541
# Poissons Ratio (z) = 0.18551 0.07015
#
# Static dielectric constant tensor:
#      x y z
#    x 1.921430 0.000000 0.000770 
#    y 0.000000 1.875270 0.000000 
#    z 0.000770 0.000000 1.872090 
# 
# From -- ./inp_files/7675.got.cif
#   From: 2010.05.17/outbox.cif.g08.bks.cpg/sg15_4_cif.got.tgz:7675.got - 2010.06.03 18:47:42.
