data_PCOD9296761
_publ_section_title
;
Structure prediction by ZEFSAII (Michael W. Deem and Ramdas Pophale) SiO2 
 PCOD9296761
Probable space group: C 2/C
;
_chemical_formula_sum "Si O2"
_cell_formula_units_Z 56
_cell_length_a 26.206905
_cell_length_b 7.973227
_cell_length_c 17.130904
_cell_angle_alpha 90.000000
_cell_angle_beta 141.274735
_cell_angle_gamma 90.000000
_cell_volume 2239.327811
_symmetry_space_group_name_H-M "C 2/C"
_symmetry_group_IT_number 15
_symmetry_cell_setting 'monoclinic'
loop_
_space_group_symop_operation_xyz
x,y,z
-x,y,1/2-z
-x,-y,-z
x,-y,1/2+z
1/2+x,1/2+y,z
1/2-x,1/2+y,1/2-z
1/2-x,1/2-y,-z
1/2+x,1/2-y,1/2+z
loop_
_atom_site_type_symbol
_atom_site_label
_atom_site_fract_x
_atom_site_fract_y
_atom_site_fract_z
Si Si1 0.587624 0.698400 0.807634
Si Si2 0.567046 0.333801 0.735104
Si Si3 0.761792 0.122014 0.804675
Si Si4 0.658765 0.982023 0.313574
Si Si5 0.865408 0.304985 0.481513
Si Si6 0.562664 0.503116 0.005695
Si Si7 0.344823 0.855272 0.029784
O O1 0.500000 0.699969 0.750000
O O2 0.599248 0.525214 0.775513
O O3 0.611685 0.990187 0.961487
O O4 0.650970 0.709791 0.956017
O O5 0.606646 0.186660 0.730381
O O6 0.475533 0.368528 0.598997
O O7 0.591522 0.261260 0.848356
O O8 0.714115 0.992629 0.804280
O O9 0.705225 0.174021 0.665910
O O10 0.844905 0.047828 0.869588
O O11 0.788433 0.264338 0.899436
O O12 0.604374 0.140848 0.273422
O O13 0.701485 0.930462 0.447836
O O14 0.933306 0.191289 0.521863
O O15 0.500000 0.500000 0.000000
#
# Coordination Sequence:
#
# PCOD9296761 Si02
#       7
#     8   8   8   8   8   8   8
#     4  11  22  46  77 115 151 203 265 326 391 473
#     4  10  23  45  82 104 154 205 262 321 394 472
#     4  12  24  49  77 109 161 215 255 331 413 468
#     4   9  24  46  75 116 152 199 265 323 393 475
#     4  11  24  47  76 114 160 199 267 327 397 483
#     4  12  27  50  77 116 161 213 269 329 409 480
#     4   9  23  45  74 110 151 200 263 323 389 475
#
# _framework density 25.007501999999999
#
# number of rings (size 3 to 8) (size 9 to 14) (size 15 to 20)
#    0.857    0.571    1.429    3.000    0.000    2.857 
#   10.286    3.571    0.000    1.714    0.000    0.000 
#    0.000    0.000    0.000    0.000    0.000    0.000 
#
# Total GULP energy -156318.720137 kJ/mol
# GULP energy per Si atom -5582.811433 kJ/mol
# Density = 2.495058 g / cm^3
# Si number density = 25.007502 Si / 1000 Ang^3
#
#
#
# Elastic Constant Matrix: (Units=GPa)
#
#
# Indices 1 2 3 4 5 6 
#
# 1 151.8139 56.3958 44.0172 0.0000 1.3018 0.0000
# 2 56.3958 157.4873 39.0525 0.0000 11.7303 0.0000
# 3 44.0172 39.0525 139.9311 0.0000 1.2009 0.0000
# 4 0.0000 0.0000 0.0000 30.4141 0.0000 9.3959
# 5 1.3018 11.7303 1.2009 0.0000 25.5694 0.0000
# 6 0.0000 0.0000 0.0000 9.3959 0.0000 39.2702
#
#
#
# Elastic Compliance Matrix: (Units=1/GPa)
#
#
# Indices 1 2 3 4 5 6 
#
# 1 0.008036 -0.002482 -0.001842 0.000000 0.000816 0.000000
# 2 -0.002482 0.007833 -0.001376 0.000000 -0.003403 0.000000
# 3 -0.001842 -0.001376 0.008107 0.000000 0.000344 0.000000
# 4 0.000000 0.000000 0.000000 0.035504 0.000000 -0.008495
# 5 0.000816 -0.003403 0.000344 0.000000 0.040613 0.000000
# 6 0.000000 0.000000 0.000000 -0.008495 0.000000 0.027497
#
#
# Mechanical properties :
#
#
# Convention : Reuss Voigt Hill
#
# Bulk Modulus (GPa) = 79.51743 80.90701 80.21222
# Shear Modulus (GPa) = 34.92067 39.70187 37.31127
#
# Velocity S-wave (km/s) = 3.74091 3.98879 3.86684
# Velocity P-wave (km/s) = 7.10814 7.32375 7.21675
#
# Compressibility (1/GPa) = 0.01257586
#
# Stress axis : x y z
#
# Youngs Moduli (GPa) = 124.43943 127.66346 123.34992
#
# Poissons Ratio (x) = 0.31681 0.22724
# Poissons Ratio (y) = 0.30881 0.16976
# Poissons Ratio (z) = 0.22925 0.17570
#
# Static dielectric constant tensor:
#      x y z
#    x 2.043580 0.000000 0.011130 
#    y 0.000000 2.036790 0.000000 
#    z 0.011130 0.000000 2.030600 
# 
# From -- ./inp_files/224444.got.cif
#   From: 2010.05.17/outbox.cif.g08.bks.cpg/sg15_113_cif.got.tgz:224444.got - 2010.06.03 18:47:42.
