data_PCOD9296471
_publ_section_title
;
Structure prediction by ZEFSAII (Michael W. Deem and Ramdas Pophale) SiO2 
 PCOD9296471
Probable space group: C 2/C
;
_chemical_formula_sum "Si O2"
_cell_formula_units_Z 32
_cell_length_a 24.329270
_cell_length_b 10.356085
_cell_length_c 11.474650
_cell_angle_alpha 90.000000
_cell_angle_beta 27.675220
_cell_angle_gamma 90.000000
_cell_volume 1342.800783
_symmetry_space_group_name_H-M "C 2/C"
_symmetry_group_IT_number 15
_symmetry_cell_setting 'monoclinic'
loop_
_space_group_symop_operation_xyz
x,y,z
-x,y,1/2-z
-x,-y,-z
x,-y,1/2+z
1/2+x,1/2+y,z
1/2-x,1/2+y,1/2-z
1/2-x,1/2-y,-z
1/2+x,1/2-y,1/2+z
loop_
_atom_site_type_symbol
_atom_site_label
_atom_site_fract_x
_atom_site_fract_y
_atom_site_fract_z
Si Si1 0.327892 0.074126 0.657025
Si Si2 0.586615 0.365077 0.493116
Si Si3 0.000000 0.378159 0.250000
Si Si4 0.310428 0.617551 0.932151
Si Si5 0.500000 0.729182 0.750000
O O1 0.213046 0.141929 0.819104
O O2 0.431040 0.179491 0.473137
O O3 0.385885 0.969414 0.459057
O O4 0.282086 0.990209 0.851599
O O5 0.527615 0.222653 0.594131
O O6 0.612320 0.429379 0.322575
O O7 0.500000 0.428533 0.750000
O O8 0.396425 0.657021 0.875761
O O9 0.250000 0.750000 0.000000
#
# Coordination Sequence:
#
# PCOD9296471 Si02
#       5
#     8   8   4   8   4
#     4  11  22  41  69 101 134 181 228 266 352 411
#     4  10  23  45  64  97 139 177 224 288 333 397
#     4   9  20  39  64  94 140 167 224 281 320 408
#     4  12  23  46  71 100 146 177 228 295 333 410
#     4  11  26  43  72 108 132 185 232 273 358 412
#
# _framework density 23.830788999999999
#
# number of rings (size 3 to 8) (size 9 to 14) (size 15 to 20)
#    0.750    0.500    5.000    0.000    1.750    4.000 
#    0.000    1.250    0.000    0.000    0.000    0.000 
#    0.000    0.000    0.000    0.000    0.000    0.000 
#
# Total GULP energy -89223.453972 kJ/mol
# GULP energy per Si atom -5576.465873 kJ/mol
# Density = 2.377655 g / cm^3
# Si number density = 23.830789 Si / 1000 Ang^3
#
#
#
# Elastic Constant Matrix: (Units=GPa)
#
#
# Indices 1 2 3 4 5 6 
#
# 1 40.9973 -0.3943 18.5824 0.0000 9.8061 0.0000
# 2 -0.3943 40.3373 21.9090 0.0000 -4.6829 0.0000
# 3 18.5824 21.9090 164.9729 0.0000 20.6480 0.0000
# 4 0.0000 0.0000 0.0000 -573.6579 0.0000 -85.7988
# 5 9.8061 -4.6829 20.6480 0.0000 43.3342 0.0000
# 6 0.0000 0.0000 0.0000 -85.7988 0.0000 2.8239
#
#
#
# Elastic Compliance Matrix: (Units=1/GPa)
#
#
# Indices 1 2 3 4 5 6 
#
# 1 0.026689 0.001109 -0.002566 0.000000 -0.004697 0.000000
# 2 0.001109 0.027766 -0.004420 0.000000 0.004856 0.000000
# 3 -0.002566 -0.004420 0.007364 0.000000 -0.003406 0.000000
# 4 0.000000 0.000000 0.000000 -0.000314 0.000000 -0.009553
# 5 -0.004697 0.004856 -0.003406 0.000000 0.026287 0.000000
# 6 0.000000 0.000000 0.000000 -0.009553 0.000000 0.063872
#
#
# Mechanical properties :
#
#
# Convention : Reuss Voigt Hill
#
# Bulk Modulus (GPa) = 19.97374 36.27796 28.12585
# Shear Modulus (GPa) = 27.76150 -91.75260 -31.99555
#
# Velocity S-wave (km/s) = 3.41683 -6.21171 -3.66814
# Velocity P-wave (km/s) = 4.89551 6.01588 2.47234
#
# Compressibility (1/GPa) = 0.05006573
#
# Stress axis : x y z
#
# Youngs Moduli (GPa) = 37.46871 36.01492 135.79818
#
# Poissons Ratio (x) = -0.03994 0.34840
# Poissons Ratio (y) = -0.04155 0.60024
# Poissons Ratio (z) = 0.09613 0.15919
#
# Static dielectric constant tensor:
#      x y z
#    x 1.857870 0.000000 0.057950 
#    y 0.000000 2.024520 0.000000 
#    z 0.057950 0.000000 1.953140 
# 
# From -- ./inp_files/84088.got.cif
#   From: 2010.05.17/outbox.cif.g08.bks.cpg/sg15_43_cif.got.tgz:84088.got - 2010.06.03 18:47:42.
