data_PCOD9296654
_publ_section_title
;
Structure prediction by ZEFSAII (Michael W. Deem and Ramdas Pophale) SiO2 
 PCOD9296654
Probable space group: C 2/C
;
_chemical_formula_sum "Si O2"
_cell_formula_units_Z 56
_cell_length_a 15.699710
_cell_length_b 23.316638
_cell_length_c 18.353623
_cell_angle_alpha 90.000000
_cell_angle_beta 155.396566
_cell_angle_gamma 90.000000
_cell_volume 2797.194000
_symmetry_space_group_name_H-M "C 2/C"
_symmetry_group_IT_number 15
_symmetry_cell_setting 'monoclinic'
loop_
_space_group_symop_operation_xyz
x,y,z
-x,y,1/2-z
-x,-y,-z
x,-y,1/2+z
1/2+x,1/2+y,z
1/2-x,1/2+y,1/2-z
1/2-x,1/2-y,-z
1/2+x,1/2-y,1/2+z
loop_
_atom_site_type_symbol
_atom_site_label
_atom_site_fract_x
_atom_site_fract_y
_atom_site_fract_z
Si Si1 0.849404 0.170839 0.786766
Si Si2 0.880768 0.127031 0.277717
Si Si3 0.000000 0.124003 0.750000
Si Si4 0.266405 0.037895 0.044426
Si Si5 0.766298 0.698533 0.570182
Si Si6 0.000000 0.053820 0.250000
Si Si7 0.419930 0.232226 0.441071
Si Si8 0.536956 0.433672 0.510144
O O1 0.622798 0.196870 0.616741
O O2 0.975904 0.223780 0.919949
O O3 0.921829 0.157743 0.760777
O O4 0.868921 0.112486 0.850095
O O5 0.836228 0.088901 0.172145
O O6 0.749253 0.182615 0.195226
O O7 0.879140 0.091183 0.349774
O O8 0.107722 0.148396 0.432782
O O9 0.804687 0.085228 0.571477
O O10 0.500000 0.024507 0.250000
O O11 0.183420 0.064061 0.054942
O O12 0.132392 0.984247 0.910502
O O13 0.750000 0.750000 0.500000
O O14 0.683315 0.726344 0.579718
O O15 0.000000 0.679369 0.750000
O O16 0.500000 0.500000 0.500000
#
# Coordination Sequence:
#
# PCOD9296654 Si02
#       8
#     8   8   4   8   8   4   8   8
#     4  11  23  44  68  98 137 178 227 283 344 412
#     4  12  24  41  66 101 137 179 222 280 335 410
#     4   9  24  44  68 104 134 176 229 300 342 402
#     4  10  23  45  71  96 133 181 233 286 346 403
#     4  12  22  39  63  94 140 183 220 267 333 399
#     4  11  24  44  64  98 142 174 229 284 338 412
#     4  12  23  41  66  99 137 178 224 273 340 407
#     4  11  23  45  68  95 134 174 228 286 339 400
#
# _framework density 20.020063
#
# number of rings (size 3 to 8) (size 9 to 14) (size 15 to 20)
#    0.000    0.857    5.714    0.857    2.000    2.286 
#    0.000    1.429    0.000    0.000    0.000    0.000 
#    0.000    0.000    0.000    0.000    0.000    0.000 
#
# Total GULP energy -155893.890592 kJ/mol
# GULP energy per Si atom -5567.638950 kJ/mol
# Density = 1.997450 g / cm^3
# Si number density = 20.020063 Si / 1000 Ang^3
#
#
#
# Elastic Constant Matrix: (Units=GPa)
#
#
# Indices 1 2 3 4 5 6 
#
# 1 101.9530 40.4989 -4.9294 -0.0114 -32.9785 -0.0067
# 2 40.4989 99.0928 35.0339 -0.0281 -6.1494 -0.0162
# 3 -4.9294 35.0339 73.7329 0.0045 -0.1441 0.0073
# 4 -0.0114 -0.0281 0.0045 -11.2585 0.0068 -37.3237
# 5 -32.9785 -6.1494 -0.1441 0.0068 27.1801 0.0059
# 6 -0.0067 -0.0162 0.0073 -37.3237 0.0059 29.9790
#
#
#
# Elastic Compliance Matrix: (Units=1/GPa)
#
#
# Indices 1 2 3 4 5 6 
#
# 1 0.021702 -0.009491 0.006008 0.000008 0.024217 0.000003
# 2 -0.009491 0.016483 -0.008482 -0.000014 -0.007831 -0.000008
# 3 0.006008 -0.008482 0.018005 0.000011 0.005466 0.000004
# 4 0.000008 -0.000014 0.000011 -0.017323 0.000015 -0.021567
# 5 0.024217 -0.007831 0.005466 0.000015 0.064432 0.000006
# 6 0.000003 -0.000008 0.000004 -0.021567 0.000006 0.006506
#
#
# Mechanical properties :
#
#
# Convention : Reuss Voigt Hill
#
# Bulk Modulus (GPa) = 30.99748 46.22061 38.60905
# Shear Modulus (GPa) = 34.60502 22.79181 28.69841
#
# Velocity S-wave (km/s) = 4.16205 3.37775 3.79024
# Velocity P-wave (km/s) = 6.21400 6.19270 6.20336
#
# Compressibility (1/GPa) = 0.03226069
#
# Stress axis : x y z
#
# Youngs Moduli (GPa) = 46.07806 60.66813 55.54063
#
# Poissons Ratio (x) = 0.57579 -0.33368
# Poissons Ratio (y) = 0.43732 0.47108
# Poissons Ratio (z) = -0.27683 0.51457
#
# Static dielectric constant tensor:
#      x y z
#    x 1.715480 -0.000010 -0.056260 
#    y -0.000010 1.750520 0.000010 
#    z -0.056260 0.000010 1.839380 
# 
# From -- ./inp_files/250078.got.cif
#   From: 2010.05.17/outbox.cif.g08.bks.cpg/sg15_126_cif.got.tgz:250078.got - 2010.06.03 18:47:42.
