data_PCOD9296649
_publ_section_title
;
Structure prediction by ZEFSAII (Michael W. Deem and Ramdas Pophale) SiO2 
 PCOD9296649
Probable space group: C 2/C
;
_chemical_formula_sum "Si O2"
_cell_formula_units_Z 56
_cell_length_a 18.375661
_cell_length_b 13.914504
_cell_length_c 15.062943
_cell_angle_alpha 90.000000
_cell_angle_beta 140.329082
_cell_angle_gamma 90.000000
_cell_volume 2458.656766
_symmetry_space_group_name_H-M "C 2/C"
_symmetry_group_IT_number 15
_symmetry_cell_setting 'monoclinic'
loop_
_space_group_symop_operation_xyz
x,y,z
-x,y,1/2-z
-x,-y,-z
x,-y,1/2+z
1/2+x,1/2+y,z
1/2-x,1/2+y,1/2-z
1/2-x,1/2-y,-z
1/2+x,1/2-y,1/2+z
loop_
_atom_site_type_symbol
_atom_site_label
_atom_site_fract_x
_atom_site_fract_y
_atom_site_fract_z
Si Si1 0.556541 0.100236 0.031582
Si Si2 0.000000 0.435628 0.250000
Si Si3 0.779710 0.636934 0.462041
Si Si4 0.578590 0.425502 0.900301
Si Si5 0.635581 0.115729 0.296441
Si Si6 0.912901 0.227419 0.325365
Si Si7 0.395375 0.612068 0.492928
Si Si8 0.000000 0.774759 0.250000
O O1 0.669834 0.082708 0.078181
O O2 0.593411 0.145980 0.159119
O O3 0.462696 0.169182 0.898023
O O4 0.500000 0.000000 0.000000
O O5 0.928557 0.515200 0.240787
O O6 0.099060 0.363834 0.375060
O O7 0.694578 0.593562 0.455442
O O8 0.702258 0.719728 0.342796
O O9 0.500000 0.470834 0.750000
O O10 0.514190 0.329685 0.870553
O O11 0.579395 0.498204 0.983350
O O12 0.770102 0.109678 0.418400
O O13 0.602668 0.199250 0.333473
O O14 0.893088 0.167915 0.398036
O O15 0.477956 0.664458 0.640791
#
# Coordination Sequence:
#
# PCOD9296649 Si02
#       8
#     8   4   8   8   8   8   8   4
#     4  12  25  49  73 105 146 194 250 306 367 438
#     4  11  22  44  76 107 148 194 249 312 362 445
#     4  11  24  48  74 107 147 197 245 301 367 440
#     4  10  23  45  71 106 148 198 246 294 373 447
#     4  11  23  42  68 110 148 191 254 309 376 439
#     4  11  26  47  71 108 152 189 250 308 367 447
#     4  12  21  43  72 106 146 196 241 312 379 443
#     4  11  24  40  70 105 152 192 255 314 378 449
#
# _framework density 22.776664
#
# number of rings (size 3 to 8) (size 9 to 14) (size 15 to 20)
#    0.000    0.857    6.429    0.857    0.000    0.571 
#   11.571    0.000    0.000    0.000    0.000    0.000 
#    0.000    0.000    0.000    0.000    0.000    0.000 
#
# Total GULP energy -156064.196020 kJ/mol
# GULP energy per Si atom -5573.721286 kJ/mol
# Density = 2.272482 g / cm^3
# Si number density = 22.776664 Si / 1000 Ang^3
#
#
#
# Elastic Constant Matrix: (Units=GPa)
#
#
# Indices 1 2 3 4 5 6 
#
# 1 118.9582 43.8925 5.6607 0.0000 19.0769 0.0000
# 2 43.8925 134.9297 44.3078 0.0000 9.1593 0.0000
# 3 5.6607 44.3078 116.6282 0.0000 10.9385 0.0000
# 4 0.0000 0.0000 0.0000 20.4616 0.0000 -3.9910
# 5 19.0769 9.1593 10.9385 0.0000 42.3171 0.0000
# 6 0.0000 0.0000 0.0000 -3.9910 0.0000 37.0069
#
#
#
# Elastic Compliance Matrix: (Units=1/GPa)
#
#
# Indices 1 2 3 4 5 6 
#
# 1 0.010301 -0.003463 0.001210 0.000000 -0.004207 0.000000
# 2 -0.003463 0.009675 -0.003544 0.000000 0.000383 0.000000
# 3 0.001210 -0.003544 0.010085 0.000000 -0.002386 0.000000
# 4 0.000000 0.000000 0.000000 0.049922 0.000000 0.005384
# 5 -0.004207 0.000383 -0.002386 0.000000 0.026062 0.000000
# 6 0.000000 0.000000 0.000000 0.005384 0.000000 0.027603
#
#
# Mechanical properties :
#
#
# Convention : Reuss Voigt Hill
#
# Bulk Modulus (GPa) = 54.14313 62.02645 58.08479
# Shear Modulus (GPa) = 33.02575 38.40078 35.71326
#
# Velocity S-wave (km/s) = 3.81199 4.11051 3.96406
# Velocity P-wave (km/s) = 6.57252 7.05833 6.81975
#
# Compressibility (1/GPa) = 0.01846956
#
# Stress axis : x y z
#
# Youngs Moduli (GPa) = 97.07737 103.35578 99.15247
#
# Poissons Ratio (x) = 0.35789 -0.11999
# Poissons Ratio (y) = 0.33615 0.35135
# Poissons Ratio (z) = -0.11747 0.36625
#
# Static dielectric constant tensor:
#      x y z
#    x 1.897170 0.000000 -0.051580 
#    y 0.000000 1.864790 0.000000 
#    z -0.051580 0.000000 1.893490 
# 
# From -- ./inp_files/215793.got.cif
#   From: 2010.05.17/outbox.cif.g08.bks.cpg/sg15_108_cif.got.tgz:215793.got - 2010.06.03 18:47:42.
