data_PCOD9296078
_publ_section_title
;
Structure prediction by ZEFSAII (Michael W. Deem and Ramdas Pophale) SiO2 
 PCOD9296078
Probable space group: C 2/C
;
_chemical_formula_sum "Si O2"
_cell_formula_units_Z 52
_cell_length_a 18.613749
_cell_length_b 18.442137
_cell_length_c 14.779791
_cell_angle_alpha 90.000000
_cell_angle_beta 29.886450
_cell_angle_gamma 90.000000
_cell_volume 2528.070664
_symmetry_space_group_name_H-M "C 2/C"
_symmetry_group_IT_number 15
_symmetry_cell_setting 'monoclinic'
loop_
_space_group_symop_operation_xyz
x,y,z
-x,y,1/2-z
-x,-y,-z
x,-y,1/2+z
1/2+x,1/2+y,z
1/2-x,1/2+y,1/2-z
1/2-x,1/2-y,-z
1/2+x,1/2-y,1/2+z
loop_
_atom_site_type_symbol
_atom_site_label
_atom_site_fract_x
_atom_site_fract_y
_atom_site_fract_z
Si Si1 0.244089 0.911494 0.393343
Si Si2 0.875727 0.747190 0.740576
Si Si3 0.706341 0.912727 0.359769
Si Si4 0.000000 0.161441 0.250000
Si Si5 0.669292 0.252128 0.313152
Si Si6 0.170390 0.958357 0.092111
Si Si7 0.584161 0.854324 0.747290
O O1 0.337876 0.837797 0.295621
O O2 0.275108 0.944302 0.261032
O O3 0.079357 0.885218 0.587364
O O4 0.250303 0.970311 0.465479
O O5 0.776158 0.780804 0.771258
O O6 0.884417 0.789087 0.825248
O O7 0.028784 0.756383 0.527218
O O8 0.765205 0.829801 0.286660
O O9 0.801521 0.952504 0.331397
O O10 0.538874 0.906096 0.573083
O O11 0.629870 0.206121 0.268763
O O12 0.000000 0.955293 0.250000
O O13 0.269167 0.893945 0.943197
O O14 0.500000 0.825624 0.750000
#
# Coordination Sequence:
#
# PCOD9296078 Si02
#       7
#     8   8   8   4   8   8   8
#     4  11  23  45  67  94 142 172 223 284 329 404
#     4  11  23  41  69 100 133 172 218 278 343 400
#     4  10  23  45  67  94 140 174 223 286 334 397
#     4  12  22  44  66 104 134 168 224 282 342 400
#     4  11  21  42  69 102 133 174 220 283 347 384
#     4  11  26  43  64  98 133 184 231 268 335 407
#     4  10  23  44  66  99 138 174 227 280 335 405
#
# _framework density 20.569044999999999
#
# number of rings (size 3 to 8) (size 9 to 14) (size 15 to 20)
#    0.000    1.231    6.923    0.462    2.154    4.308 
#    6.923    0.000    0.000    0.000    0.000    0.000 
#    0.000    0.000    0.000    0.000    0.000    0.000 
#
# Total GULP energy -144908.559700 kJ/mol
# GULP energy per Si atom -5573.406142 kJ/mol
# Density = 2.052223 g / cm^3
# Si number density = 20.569045 Si / 1000 Ang^3
#
#
#
# Elastic Constant Matrix: (Units=GPa)
#
#
# Indices 1 2 3 4 5 6 
#
# 1 133.1932 29.0050 26.2815 0.0005 11.9474 -0.0017
# 2 29.0050 36.9630 -9.5522 0.0008 8.9949 -0.0024
# 3 26.2815 -9.5522 106.9027 -0.0004 -1.9989 -0.0006
# 4 0.0005 0.0008 -0.0004 18.7839 -0.0014 66.1564
# 5 11.9474 8.9949 -1.9989 -0.0014 38.1132 0.0035
# 6 -0.0017 -0.0024 -0.0006 66.1564 0.0035 -53.4104
#
#
#
# Elastic Compliance Matrix: (Units=1/GPa)
#
#
# Indices 1 2 3 4 5 6 
#
# 1 0.010114 -0.008453 -0.003267 0.000000 -0.001347 0.000000
# 2 -0.008453 0.036418 0.005226 0.000001 -0.005671 -0.000001
# 3 -0.003267 0.005226 0.010631 0.000000 0.000348 0.000000
# 4 0.000000 0.000001 0.000000 0.009928 -0.000001 0.012297
# 5 -0.001347 -0.005671 0.000348 -0.000001 0.028016 0.000001
# 6 0.000000 -0.000001 0.000000 0.012297 0.000001 -0.003491
#
#
# Mechanical properties :
#
#
# Convention : Reuss Voigt Hill
#
# Bulk Modulus (GPa) = 22.63714 40.94751 31.79233
# Shear Modulus (GPa) = 41.90103 16.11899 29.01001
#
# Velocity S-wave (km/s) = 4.51831 2.80242 3.75957
# Velocity P-wave (km/s) = 6.18462 5.51561 5.85967
#
# Compressibility (1/GPa) = 0.04417519
#
# Stress axis : x y z
#
# Youngs Moduli (GPa) = 98.87121 27.45898 94.06468
#
# Poissons Ratio (x) = 0.23212 0.30731
# Poissons Ratio (y) = 0.83578 -0.49160
# Poissons Ratio (z) = 0.32302 -0.14351
#
# Static dielectric constant tensor:
#      x y z
#    x 1.738030 0.000000 0.028490 
#    y 0.000000 1.780480 0.000000 
#    z 0.028490 0.000000 1.742970 
# 
# From -- ./inp_files/163617.got.cif
#   From: 2010.05.17/outbox.cif.g08.bks.cpg/sg15_82_cif.got.tgz:163617.got - 2010.06.03 18:47:42.
