data_PCOD9296437
_publ_section_title
;
Structure prediction by ZEFSAII (Michael W. Deem and Ramdas Pophale) SiO2 
 PCOD9296437
Probable space group: C 2/C
;
_chemical_formula_sum "Si O2"
_cell_formula_units_Z 40
_cell_length_a 14.402277
_cell_length_b 14.564709
_cell_length_c 19.440234
_cell_angle_alpha 90.000000
_cell_angle_beta 153.181558
_cell_angle_gamma 90.000000
_cell_volume 1839.796061
_symmetry_space_group_name_H-M "C 2/C"
_symmetry_group_IT_number 15
_symmetry_cell_setting 'monoclinic'
loop_
_space_group_symop_operation_xyz
x,y,z
-x,y,1/2-z
-x,-y,-z
x,-y,1/2+z
1/2+x,1/2+y,z
1/2-x,1/2+y,1/2-z
1/2-x,1/2-y,-z
1/2+x,1/2-y,1/2+z
loop_
_atom_site_type_symbol
_atom_site_label
_atom_site_fract_x
_atom_site_fract_y
_atom_site_fract_z
Si Si1 0.799300 0.563718 0.165596
Si Si2 0.262149 0.866131 0.114587
Si Si3 0.564551 0.701388 0.212204
Si Si4 0.063559 0.583119 0.089650
Si Si5 0.739912 0.261008 0.411703
O O1 0.678930 0.469360 0.069432
O O2 0.879555 0.553765 0.295722
O O3 0.703620 0.664656 0.089323
O O4 0.000000 0.570074 0.250000
O O5 0.500000 0.881984 0.250000
O O6 0.308377 0.797726 0.208796
O O7 0.123112 0.814591 0.965242
O O8 0.500000 0.693950 0.250000
O O9 0.731853 0.625653 0.306855
O O10 0.000000 0.500000 0.000000
O O11 0.886250 0.659791 0.979820
O O12 0.500000 0.285691 0.250000
O O13 0.750000 0.250000 0.500000
#
# Coordination Sequence:
#
# PCOD9296437 Si02
#       5
#     8   8   8   8   8
#     4  10  23  46  73 104 147 189 248 312 382 437
#     4  10  23  44  75  95 142 193 245 297 373 447
#     4  11  26  45  71 104 147 198 239 306 381 443
#     4  12  29  44  74 115 147 193 259 312 372 464
#     4  11  23  48  78 106 150 198 247 316 386 447
#
# _framework density 21.741539
#
# number of rings (size 3 to 8) (size 9 to 14) (size 15 to 20)
#    0.000    1.200    4.000    2.400   11.200    3.200 
#    0.000    0.000    0.000    0.000    0.000    0.000 
#    0.000    0.000    0.000    0.000    0.000    0.000 
#
# Total GULP energy -111572.393343 kJ/mol
# GULP energy per Si atom -5578.619667 kJ/mol
# Density = 2.169205 g / cm^3
# Si number density = 21.741539 Si / 1000 Ang^3
#
#
#
# Elastic Constant Matrix: (Units=GPa)
#
#
# Indices 1 2 3 4 5 6 
#
# 1 90.7645 44.7168 42.7912 0.0016 -9.0309 0.0072
# 2 44.7168 167.3671 74.4059 -0.0185 -16.5378 -0.0119
# 3 42.7912 74.4059 155.9066 -0.0319 -3.5301 -0.0263
# 4 0.0016 -0.0185 -0.0319 40.1337 -0.0005 -5.0429
# 5 -9.0309 -16.5378 -3.5301 -0.0005 38.8294 0.0053
# 6 0.0072 -0.0119 -0.0263 -5.0429 0.0053 27.8110
#
#
#
# Elastic Compliance Matrix: (Units=1/GPa)
#
#
# Indices 1 2 3 4 5 6 
#
# 1 0.013554 -0.002278 -0.002589 -0.000005 0.001947 -0.000008
# 2 -0.002278 0.008309 -0.003279 0.000001 0.002711 0.000001
# 3 -0.002589 -0.003279 0.008662 0.000007 -0.001211 0.000009
# 4 -0.000005 0.000001 0.000007 0.025498 0.000000 0.004623
# 5 0.001947 0.002711 -0.001211 0.000000 0.027251 -0.000006
# 6 -0.000008 0.000001 0.000009 0.004623 -0.000006 0.036795
#
#
# Mechanical properties :
#
#
# Convention : Reuss Voigt Hill
#
# Bulk Modulus (GPa) = 70.25599 81.98513 76.12056
# Shear Modulus (GPa) = 35.43449 38.16309 36.79879
#
# Velocity S-wave (km/s) = 4.04147 4.19418 4.11853
# Velocity P-wave (km/s) = 7.35950 7.82597 7.59631
#
# Compressibility (1/GPa) = 0.01423366
#
# Stress axis : x y z
#
# Youngs Moduli (GPa) = 73.77846 120.35026 115.44600
#
# Poissons Ratio (x) = 0.27417 0.29888
# Poissons Ratio (y) = 0.16807 0.37853
# Poissons Ratio (z) = 0.19100 0.39461
#
# Static dielectric constant tensor:
#      x y z
#    x 1.779970 -0.000020 0.044840 
#    y -0.000020 2.060200 0.000050 
#    z 0.044840 0.000050 1.704800 
# 
# From -- ./inp_files/205839.got.cif
#   From: 2010.05.17/outbox.cif.g08.bks.cpg/sg15_103_cif.got.tgz:205839.got - 2010.06.03 18:47:42.
