data_PCOD9296270
_publ_section_title
;
Structure prediction by ZEFSAII (Michael W. Deem and Ramdas Pophale) SiO2 
 PCOD9296270
Probable space group: C 2/C
;
_chemical_formula_sum "Si O2"
_cell_formula_units_Z 48
_cell_length_a 11.889524
_cell_length_b 14.240324
_cell_length_c 20.027787
_cell_angle_alpha 90.000000
_cell_angle_beta 135.393256
_cell_angle_gamma 90.000000
_cell_volume 2381.227680
_symmetry_space_group_name_H-M "C 2/C"
_symmetry_group_IT_number 15
_symmetry_cell_setting 'monoclinic'
loop_
_space_group_symop_operation_xyz
x,y,z
-x,y,1/2-z
-x,-y,-z
x,-y,1/2+z
1/2+x,1/2+y,z
1/2-x,1/2+y,1/2-z
1/2-x,1/2-y,-z
1/2+x,1/2-y,1/2+z
loop_
_atom_site_type_symbol
_atom_site_label
_atom_site_fract_x
_atom_site_fract_y
_atom_site_fract_z
Si Si1 0.426728 0.094088 0.872213
Si Si2 0.713928 0.342065 0.164043
Si Si3 0.328141 0.494834 0.142955
Si Si4 0.856927 0.515274 0.142743
Si Si5 0.663506 0.348835 0.472065
Si Si6 0.712800 0.808694 0.550988
O O1 0.319310 0.154911 0.775770
O O2 0.311947 0.021990 0.862245
O O3 0.555257 0.037946 0.881451
O O4 0.528138 0.158280 0.965632
O O5 0.761621 0.436904 0.144513
O O6 0.749193 0.255794 0.129893
O O7 0.526423 0.339471 0.099809
O O8 0.500000 0.487209 0.250000
O O9 0.311294 0.595458 0.100601
O O10 0.309087 0.413382 0.080876
O O11 0.741584 0.595101 0.066698
O O12 0.000000 0.552674 0.250000
O O13 0.750000 0.250000 0.500000
O O14 0.750000 0.750000 0.500000
#
# Coordination Sequence:
#
# PCOD9296270 Si02
#       6
#     8   8   8   8   8   8
#     4  11  23  45  69  94 142 173 227 275 339 405
#     4  11  24  45  70 101 136 174 228 280 335 414
#     4  12  26  45  69 101 138 180 225 284 346 407
#     4  10  23  44  70  95 132 179 223 277 336 400
#     4  12  25  45  67  98 137 176 226 280 343 412
#     4  12  25  43  73 106 135 176 230 284 342 405
#
# _framework density 20.15767
#
# number of rings (size 3 to 8) (size 9 to 14) (size 15 to 20)
#    0.000    0.667    5.000    2.000    4.667    0.667 
#    3.000    0.000    0.000    0.000    0.000    0.000 
#    0.000    0.000    0.000    0.000    0.000    0.000 
#
# Total GULP energy -134264.857971 kJ/mol
# GULP energy per Si atom -5594.369082 kJ/mol
# Density = 2.011179 g / cm^3
# Si number density = 20.157670 Si / 1000 Ang^3
#
#
#
# Elastic Constant Matrix: (Units=GPa)
#
#
# Indices 1 2 3 4 5 6 
#
# 1 53.3278 3.4420 -9.7610 0.0000 6.4809 0.0000
# 2 3.4420 111.0749 51.8063 0.0000 -6.6921 0.0000
# 3 -9.7610 51.8063 113.7957 0.0000 2.6736 0.0000
# 4 0.0000 0.0000 0.0000 17.2685 0.0000 -6.8656
# 5 6.4809 -6.6921 2.6736 0.0000 35.1556 0.0000
# 6 0.0000 0.0000 0.0000 -6.8656 0.0000 7.5693
#
#
#
# Elastic Compliance Matrix: (Units=1/GPa)
#
#
# Indices 1 2 3 4 5 6 
#
# 1 0.019929 -0.002185 0.002805 0.000000 -0.004303 0.000000
# 2 -0.002185 0.011907 -0.005681 0.000000 0.003102 0.000000
# 3 0.002805 -0.005681 0.011673 0.000000 -0.002486 0.000000
# 4 0.000000 0.000000 0.000000 0.090570 0.000000 0.082149
# 5 -0.004303 0.003102 -0.002486 0.000000 0.030018 0.000000
# 6 0.000000 0.000000 0.000000 0.082149 0.000000 0.206625
#
#
# Mechanical properties :
#
#
# Convention : Reuss Voigt Hill
#
# Bulk Modulus (GPa) = 29.95106 41.01920 35.48513
# Shear Modulus (GPa) = 12.75595 27.51275 20.13435
#
# Velocity S-wave (km/s) = 2.51830 3.69843 3.16388
# Velocity P-wave (km/s) = 4.83181 6.21540 5.56676
#
# Compressibility (1/GPa) = 0.03338780
#
# Stress axis : x y z
#
# Youngs Moduli (GPa) = 50.17691 83.98227 85.66678
#
# Poissons Ratio (x) = 0.18353 -0.24034
# Poissons Ratio (y) = 0.10965 0.48669
# Poissons Ratio (z) = -0.14077 0.47712
#
# Static dielectric constant tensor:
#      x y z
#    x 1.715700 0.000000 -0.012220 
#    y 0.000000 1.683720 0.000000 
#    z -0.012220 0.000000 1.709900 
# 
# From -- ./inp_files/239012.got.cif
#   From: 2010.05.17/outbox.cif.g08.bks.cpg/sg15_120_cif.got.tgz:239012.got - 2010.06.03 18:47:42.
