data_PCOD9296696
_publ_section_title
;
Structure prediction by ZEFSAII (Michael W. Deem and Ramdas Pophale) SiO2 
 PCOD9296696
Probable space group: C 2/C
;
_chemical_formula_sum "Si O2"
_cell_formula_units_Z 40
_cell_length_a 5.334895
_cell_length_b 18.566080
_cell_length_c 16.454902
_cell_angle_alpha 90.000000
_cell_angle_beta 97.201233
_cell_angle_gamma 90.000000
_cell_volume 1616.970505
_symmetry_space_group_name_H-M "C 2/C"
_symmetry_group_IT_number 15
_symmetry_cell_setting 'monoclinic'
loop_
_space_group_symop_operation_xyz
x,y,z
-x,y,1/2-z
-x,-y,-z
x,-y,1/2+z
1/2+x,1/2+y,z
1/2-x,1/2+y,1/2-z
1/2-x,1/2-y,-z
1/2+x,1/2-y,1/2+z
loop_
_atom_site_type_symbol
_atom_site_label
_atom_site_fract_x
_atom_site_fract_y
_atom_site_fract_z
Si Si1 0.084768 0.862967 0.161912
Si Si2 0.764377 0.413118 0.803341
Si Si3 0.114867 0.480771 0.402104
Si Si4 0.341550 0.781271 0.917304
Si Si5 0.202447 0.388079 0.998071
O O1 0.263402 0.931362 0.160222
O O2 0.194083 0.785138 0.144425
O O3 0.000000 0.860188 0.250000
O O4 0.882212 0.872637 0.080621
O O5 0.500000 0.427060 0.750000
O O6 0.719001 0.348761 0.865863
O O7 0.000000 0.395773 0.750000
O O8 0.866338 0.481876 0.856410
O O9 0.283645 0.547327 0.441421
O O10 0.045193 0.425123 0.470932
O O11 0.250000 0.750000 0.000000
O O12 0.618225 0.816555 0.947282
#
# Coordination Sequence:
#
# PCOD9296696 Si02
#       5
#     8   8   8   8   8
#     4  12  26  42  74 112 154 194 254 327 390 450
#     4  11  28  49  77 113 157 198 255 321 397 458
#     4  10  24  45  70 108 141 200 249 311 376 464
#     4  11  24  49  73 107 147 211 260 311 384 476
#     4  10  23  45  73 101 147 196 255 302 382 458
#
# _framework density 24.737617
#
# number of rings (size 3 to 8) (size 9 to 14) (size 15 to 20)
#    0.000    1.200    2.000    1.800    5.600    6.400 
#    0.000    0.000    0.000    0.000    0.000    0.000 
#    0.000    0.000    0.000    0.000    0.000    0.000 
#
# Total GULP energy -111892.357509 kJ/mol
# GULP energy per Si atom -5594.617875 kJ/mol
# Density = 2.468131 g / cm^3
# Si number density = 24.737617 Si / 1000 Ang^3
#
#
#
# Elastic Constant Matrix: (Units=GPa)
#
#
# Indices 1 2 3 4 5 6 
#
# 1 63.4700 25.6066 45.3213 0.0000 5.5374 0.0000
# 2 25.6066 126.9694 52.6137 0.0000 -19.4004 0.0000
# 3 45.3213 52.6137 139.5967 0.0000 1.5970 0.0000
# 4 0.0000 0.0000 0.0000 80.8634 0.0000 -11.4007
# 5 5.5374 -19.4004 1.5970 0.0000 58.3791 0.0000
# 6 0.0000 0.0000 0.0000 -11.4007 0.0000 31.0298
#
#
#
# Elastic Compliance Matrix: (Units=1/GPa)
#
#
# Indices 1 2 3 4 5 6 
#
# 1 0.021152 -0.002161 -0.006023 0.000000 -0.002560 0.000000
# 2 -0.002161 0.010192 -0.003182 0.000000 0.003679 0.000000
# 3 -0.006023 -0.003182 0.010327 0.000000 -0.000769 0.000000
# 4 0.000000 0.000000 0.000000 0.013042 0.000000 0.004792
# 5 -0.002560 0.003679 -0.000769 0.000000 0.018616 0.000000
# 6 0.000000 0.000000 0.000000 0.004792 0.000000 0.033988
#
#
# Mechanical properties :
#
#
# Convention : Reuss Voigt Hill
#
# Bulk Modulus (GPa) = 52.80217 64.12436 58.46326
# Shear Modulus (GPa) = 36.66704 47.82075 42.24390
#
# Velocity S-wave (km/s) = 3.85416 4.40149 4.13689
# Velocity P-wave (km/s) = 6.41851 7.19784 6.81932
#
# Compressibility (1/GPa) = 0.01893861
#
# Stress axis : x y z
#
# Youngs Moduli (GPa) = 47.27775 98.11173 96.83243
#
# Poissons Ratio (x) = 0.21201 0.58325
# Poissons Ratio (y) = 0.10216 0.30813
# Poissons Ratio (z) = 0.28477 0.31220
#
# Static dielectric constant tensor:
#      x y z
#    x 2.033050 0.000000 -0.027540 
#    y 0.000000 1.945010 0.000000 
#    z -0.027540 0.000000 1.961660 
# 
# From -- ./inp_files/184378.got.cif
#   From: 2010.05.17/outbox.cif.g08.bks.cpg/sg15_93_cif.got.tgz:184378.got - 2010.06.03 18:47:42.
