data_PCOD9296361
_publ_section_title
;
Structure prediction by ZEFSAII (Michael W. Deem and Ramdas Pophale) SiO2 
 PCOD9296361
Probable space group: C 2/C
;
_chemical_formula_sum "Si O2"
_cell_formula_units_Z 32
_cell_length_a 20.613132
_cell_length_b 5.312818
_cell_length_c 19.067765
_cell_angle_alpha 90.000000
_cell_angle_beta 145.945815
_cell_angle_gamma 90.000000
_cell_volume 1169.334208
_symmetry_space_group_name_H-M "C 2/C"
_symmetry_group_IT_number 15
_symmetry_cell_setting 'monoclinic'
loop_
_space_group_symop_operation_xyz
x,y,z
-x,y,1/2-z
-x,-y,-z
x,-y,1/2+z
1/2+x,1/2+y,z
1/2-x,1/2+y,1/2-z
1/2-x,1/2-y,-z
1/2+x,1/2-y,1/2+z
loop_
_atom_site_type_symbol
_atom_site_label
_atom_site_fract_x
_atom_site_fract_y
_atom_site_fract_z
Si Si1 0.644173 0.218179 0.301428
Si Si2 0.551845 0.248918 0.079654
Si Si3 0.281753 0.781456 0.882736
Si Si4 0.382147 0.857165 0.106873
O O1 0.540260 0.248103 0.152974
O O2 0.716347 0.466174 0.348599
O O3 0.707891 0.965624 0.332112
O O4 0.623711 0.139165 0.363970
O O5 0.682071 0.233280 0.165450
O O6 0.500000 0.500000 0.000000
O O7 0.500000 0.000000 0.000000
O O8 0.392396 0.794013 0.034103
O O9 0.500000 0.752651 0.250000
O O10 0.250000 0.750000 0.000000
#
# Coordination Sequence:
#
# PCOD9296361 Si02
#       4
#     8   8   8   8
#     4  11  23  43  67  98 139 190 244 304 373 449
#     4  12  24  40  66 102 141 190 243 309 379 454
#     4  11  23  43  66  98 138 190 242 304 372 448
#     4  10  23  44  72 106 147 196 253 315 378 449
#
# _framework density 27.366
#
# number of rings (size 3 to 8) (size 9 to 14) (size 15 to 20)
#    0.000    1.000    0.000    6.750    0.000    2.000 
#    0.000   15.000    0.000    0.000    0.000    0.000 
#    0.000    0.000    0.000    0.000    0.000    0.000 
#
# Total GULP energy -89324.513486 kJ/mol
# GULP energy per Si atom -5582.782093 kJ/mol
# Density = 2.730371 g / cm^3
# Si number density = 27.366000 Si / 1000 Ang^3
#
#
#
# Elastic Constant Matrix: (Units=GPa)
#
#
# Indices 1 2 3 4 5 6 
#
# 1 120.1365 34.6457 14.7102 0.0000 -14.1004 0.0004
# 2 34.6457 215.2793 51.5750 0.0009 -1.7926 0.0016
# 3 14.7102 51.5750 151.5299 0.0002 -24.6362 0.0004
# 4 0.0000 0.0009 0.0002 47.9672 -0.0001 18.6943
# 5 -14.1004 -1.7926 -24.6362 -0.0001 59.7387 0.0002
# 6 0.0004 0.0016 0.0004 18.6943 0.0002 36.1801
#
#
#
# Elastic Compliance Matrix: (Units=1/GPa)
#
#
# Indices 1 2 3 4 5 6 
#
# 1 0.008980 -0.001415 -0.000056 0.000000 0.002054 0.000000
# 2 -0.001415 0.005300 -0.001817 0.000000 -0.000924 0.000000
# 3 -0.000056 -0.001817 0.007731 0.000000 0.003120 0.000000
# 4 0.000000 0.000000 0.000000 0.026104 0.000000 -0.013488
# 5 0.002054 -0.000924 0.003120 0.000000 0.018483 0.000000
# 6 0.000000 0.000000 0.000000 -0.013488 0.000000 0.034609
#
#
# Mechanical properties :
#
#
# Convention : Reuss Voigt Hill
#
# Bulk Modulus (GPa) = 64.78806 76.53417 70.66112
# Shear Modulus (GPa) = 44.27595 54.51150 49.39373
#
# Velocity S-wave (km/s) = 4.02670 4.46796 4.25306
# Velocity P-wave (km/s) = 6.73388 7.39219 7.07070
#
# Compressibility (1/GPa) = 0.01543494
#
# Stress axis : x y z
#
# Youngs Moduli (GPa) = 111.36155 188.66575 129.35673
#
# Poissons Ratio (x) = 0.26688 0.00729
# Poissons Ratio (y) = 0.15753 0.23504
# Poissons Ratio (z) = 0.00628 0.34280
#
# Static dielectric constant tensor:
#      x y z
#    x 2.352670 0.000000 -0.087110 
#    y 0.000000 2.422960 0.000000 
#    z -0.087110 0.000000 2.328080 
# 
# From -- ./inp_files/124888.got.cif
#   From: 2010.05.17/outbox.cif.g08.bks.cpg/sg15_63_cif.got.tgz:124888.got - 2010.06.03 18:47:42.
