data_PCOD9296608
_publ_section_title
;
Structure prediction by ZEFSAII (Michael W. Deem and Ramdas Pophale) SiO2 
 PCOD9296608
Probable space group: C 2/C
;
_chemical_formula_sum "Si O2"
_cell_formula_units_Z 48
_cell_length_a 11.773873
_cell_length_b 8.390185
_cell_length_c 24.148566
_cell_angle_alpha 90.000000
_cell_angle_beta 122.326137
_cell_angle_gamma 90.000000
_cell_volume 2015.803446
_symmetry_space_group_name_H-M "C 2/C"
_symmetry_group_IT_number 15
_symmetry_cell_setting 'monoclinic'
loop_
_space_group_symop_operation_xyz
x,y,z
-x,y,1/2-z
-x,-y,-z
x,-y,1/2+z
1/2+x,1/2+y,z
1/2-x,1/2+y,1/2-z
1/2-x,1/2-y,-z
1/2+x,1/2-y,1/2+z
loop_
_atom_site_type_symbol
_atom_site_label
_atom_site_fract_x
_atom_site_fract_y
_atom_site_fract_z
Si Si1 0.379033 0.226325 0.303483
Si Si2 0.187789 0.924111 0.669520
Si Si3 0.368511 0.139100 0.007273
Si Si4 0.630922 0.059721 0.376484
Si Si5 0.956456 0.232949 0.176894
Si Si6 0.164921 0.395912 0.595237
O O1 0.310633 0.171318 0.229674
O O2 0.324194 0.395119 0.310848
O O3 0.540478 0.218616 0.346114
O O4 0.336924 0.095335 0.338796
O O5 0.224552 0.926736 0.614388
O O6 0.057190 0.835255 0.657745
O O7 0.370343 0.014228 0.059173
O O8 0.524223 0.196495 0.045413
O O9 0.250000 0.250000 0.000000
O O10 0.339600 0.055367 0.941884
O O11 0.549043 0.923234 0.323602
O O12 0.805909 0.186295 0.120670
O O13 0.000000 0.175850 0.250000
#
# Coordination Sequence:
#
# PCOD9296608 Si02
#       6
#     8   8   8   8   8   8
#     4  11  23  43  68  98 145 185 232 293 351 421
#     4  12  24  42  67 105 141 184 231 289 355 431
#     4  10  25  46  73 101 139 190 246 299 341 425
#     4  11  25  44  66 102 139 181 237 295 350 421
#     4  12  24  45  70 104 147 184 230 296 364 431
#     4  10  23  45  69  98 142 183 238 291 355 411
#
# _framework density 23.811848000000001
#
# number of rings (size 3 to 8) (size 9 to 14) (size 15 to 20)
#    0.000    1.000    3.333    2.500    4.667    7.333 
#    0.000    1.667    0.000    0.000    0.000    0.000 
#    0.000    0.000    0.000    0.000    0.000    0.000 
#
# Total GULP energy -134002.902136 kJ/mol
# GULP energy per Si atom -5583.454256 kJ/mol
# Density = 2.375765 g / cm^3
# Si number density = 23.811848 Si / 1000 Ang^3
#
#
#
# Elastic Constant Matrix: (Units=GPa)
#
#
# Indices 1 2 3 4 5 6 
#
# 1 172.8961 33.9024 21.8394 0.0000 6.0471 0.0000
# 2 33.9024 50.7944 9.4386 0.0000 9.7224 0.0000
# 3 21.8394 9.4386 43.8575 0.0000 6.6069 0.0000
# 4 0.0000 0.0000 0.0000 20.1675 0.0000 1.6939
# 5 6.0471 9.7224 6.6069 0.0000 42.9204 0.0000
# 6 0.0000 0.0000 0.0000 1.6939 0.0000 40.7576
#
#
#
# Elastic Compliance Matrix: (Units=1/GPa)
#
#
# Indices 1 2 3 4 5 6 
#
# 1 0.006925 -0.004211 -0.002599 0.000000 0.000378 0.000000
# 2 -0.004211 0.023784 -0.002354 0.000000 -0.004432 0.000000
# 3 -0.002599 -0.002354 0.025047 0.000000 -0.002956 0.000000
# 4 0.000000 0.000000 0.000000 0.049758 0.000000 -0.002068
# 5 0.000378 -0.004432 -0.002956 0.000000 0.024705 0.000000
# 6 0.000000 0.000000 0.000000 -0.002068 0.000000 0.024621
#
#
# Mechanical properties :
#
#
# Convention : Reuss Voigt Hill
#
# Bulk Modulus (GPa) = 26.71833 44.21207 35.46520
# Shear Modulus (GPa) = 26.93331 34.26027 30.59679
#
# Velocity S-wave (km/s) = 3.36681 3.79725 3.58849
# Velocity P-wave (km/s) = 5.13409 6.15086 5.66533
#
# Compressibility (1/GPa) = 0.03742749
#
# Stress axis : x y z
#
# Youngs Moduli (GPa) = 144.41182 42.04558 39.92467
#
# Poissons Ratio (x) = 0.17707 0.10376
# Poissons Ratio (y) = 0.60816 0.09398
# Poissons Ratio (z) = 0.37531 0.09897
#
# Static dielectric constant tensor:
#      x y z
#    x 1.942300 0.000000 0.024530 
#    y 0.000000 1.946750 0.000000 
#    z 0.024530 0.000000 1.940200 
# 
# From -- ./inp_files/291311.got.cif
#   From: 2010.05.17/outbox.cif.g08.bks.cpg/sg15_146_cif.got.tgz:291311.got - 2010.06.03 18:47:42.
