data_PCOD9296599
_publ_section_title
;
Structure prediction by ZEFSAII (Michael W. Deem and Ramdas Pophale) SiO2 
 PCOD9296599
Probable space group: C 2/C
;
_chemical_formula_sum "Si O2"
_cell_formula_units_Z 32
_cell_length_a 13.144095
_cell_length_b 11.946092
_cell_length_c 9.106710
_cell_angle_alpha 90.000000
_cell_angle_beta 99.502626
_cell_angle_gamma 90.000000
_cell_volume 1410.319182
_symmetry_space_group_name_H-M "C 2/C"
_symmetry_group_IT_number 15
_symmetry_cell_setting 'monoclinic'
loop_
_space_group_symop_operation_xyz
x,y,z
-x,y,1/2-z
-x,-y,-z
x,-y,1/2+z
1/2+x,1/2+y,z
1/2-x,1/2+y,1/2-z
1/2-x,1/2-y,-z
1/2+x,1/2-y,1/2+z
loop_
_atom_site_type_symbol
_atom_site_label
_atom_site_fract_x
_atom_site_fract_y
_atom_site_fract_z
Si Si1 0.590594 0.097980 0.154387
Si Si2 0.444814 0.149881 0.891159
Si Si3 0.314242 0.367213 0.831821
Si Si4 0.075883 0.029160 0.881957
O O1 0.500000 0.090684 0.250000
O O2 0.696543 0.132925 0.252744
O O3 0.600716 0.973327 0.087132
O O4 0.539331 0.178098 0.022122
O O5 0.500000 0.143359 0.750000
O O6 0.359750 0.244041 0.860816
O O7 0.377145 0.433678 0.716111
O O8 0.332118 0.419284 0.998727
O O9 0.000000 0.095459 0.750000
O O10 0.000000 0.000000 0.000000
#
# Coordination Sequence:
#
# PCOD9296599 Si02
#       4
#     8   8   8   8
#     4  10  25  46  65 101 139 174 232 279 327 414
#     4  10  23  45  69  95 138 179 223 279 336 408
#     4  11  23  43  72  98 132 188 220 275 349 390
#     4   9  20  40  64  99 137 162 222 281 325 397
#
# _framework density 22.689896999999998
#
# number of rings (size 3 to 8) (size 9 to 14) (size 15 to 20)
#    0.000    2.000    0.000    2.250   10.500    3.000 
#   13.500    0.000    0.000    0.000    0.000    0.000 
#    0.000    0.000    0.000    0.000    0.000    0.000 
#
# Total GULP energy -89210.573667 kJ/mol
# GULP energy per Si atom -5575.660854 kJ/mol
# Density = 2.263825 g / cm^3
# Si number density = 22.689897 Si / 1000 Ang^3
#
#
#
# Elastic Constant Matrix: (Units=GPa)
#
#
# Indices 1 2 3 4 5 6 
#
# 1 159.8943 48.0278 79.9516 0.0000 50.2892 0.0000
# 2 48.0278 72.7536 32.8195 0.0000 22.9105 0.0000
# 3 79.9516 32.8195 192.5155 0.0000 42.9959 0.0000
# 4 0.0000 0.0000 0.0000 -1.5028 0.0000 20.7602
# 5 50.2892 22.9105 42.9959 0.0000 67.4394 0.0000
# 6 0.0000 0.0000 0.0000 20.7602 0.0000 19.9985
#
#
#
# Elastic Compliance Matrix: (Units=1/GPa)
#
#
# Indices 1 2 3 4 5 6 
#
# 1 0.010199 -0.004157 -0.002500 0.000000 -0.004600 0.000000
# 2 -0.004157 0.017577 -0.000733 0.000000 -0.002404 0.000000
# 3 -0.002500 -0.000733 0.006863 0.000000 -0.002262 0.000000
# 4 0.000000 0.000000 0.000000 -0.043377 0.000000 0.045029
# 5 -0.004600 -0.002404 -0.002262 0.000000 0.020517 0.000000
# 6 0.000000 0.000000 0.000000 0.045029 0.000000 0.003260
#
#
# Mechanical properties :
#
#
# Convention : Reuss Voigt Hill
#
# Bulk Modulus (GPa) = 50.35448 82.97346 66.66397
# Shear Modulus (GPa) = 137.21735 34.81132 86.01434
#
# Velocity S-wave (km/s) = 7.78501 3.92116 6.16368
# Velocity P-wave (km/s) = 10.15131 7.55967 8.94980
#
# Compressibility (1/GPa) = 0.01985921
#
# Stress axis : x y z
#
# Youngs Moduli (GPa) = 98.04460 56.89263 145.71317
#
# Poissons Ratio (x) = 0.23650 0.36427
# Poissons Ratio (y) = 0.40756 0.10684
# Poissons Ratio (z) = 0.24510 0.04171
#
# Static dielectric constant tensor:
#      x y z
#    x 1.858630 0.000000 0.019690 
#    y 0.000000 1.926800 0.000000 
#    z 0.019690 0.000000 1.841420 
# 
# From -- ./inp_files/36861.got.cif
#   From: 2010.05.17/outbox.cif.g08.bks.cpg/sg15_19_cif.got.tgz:36861.got - 2010.06.03 18:47:42.
