data_PCOD9296544
_publ_section_title
;
Structure prediction by ZEFSAII (Michael W. Deem and Ramdas Pophale) SiO2 
 PCOD9296544
Probable space group: C 2/C
;
_chemical_formula_sum "Si O2"
_cell_formula_units_Z 40
_cell_length_a 7.792757
_cell_length_b 25.221422
_cell_length_c 12.828153
_cell_angle_alpha 90.000000
_cell_angle_beta 128.626767
_cell_angle_gamma 90.000000
_cell_volume 1969.713901
_symmetry_space_group_name_H-M "C 2/C"
_symmetry_group_IT_number 15
_symmetry_cell_setting 'monoclinic'
loop_
_space_group_symop_operation_xyz
x,y,z
-x,y,1/2-z
-x,-y,-z
x,-y,1/2+z
1/2+x,1/2+y,z
1/2-x,1/2+y,1/2-z
1/2-x,1/2-y,-z
1/2+x,1/2-y,1/2+z
loop_
_atom_site_type_symbol
_atom_site_label
_atom_site_fract_x
_atom_site_fract_y
_atom_site_fract_z
Si Si1 0.886488 0.741377 0.447510
Si Si2 0.105901 0.958244 0.898474
Si Si3 0.031514 0.373547 0.528639
Si Si4 0.762102 0.803771 0.202068
Si Si5 0.788317 0.556183 0.099755
O O1 0.750000 0.750000 0.500000
O O2 0.858149 0.681607 0.392717
O O3 0.799933 0.782559 0.331259
O O4 0.140587 0.740282 0.582506
O O5 0.000000 0.977734 0.750000
O O6 0.915876 0.933407 0.900083
O O7 0.288265 0.915810 0.935084
O O8 0.216298 0.006637 0.001707
O O9 0.894184 0.354030 0.375578
O O10 0.868233 0.396886 0.553768
O O11 0.000000 0.816423 0.250000
O O12 0.000000 0.542471 0.250000
#
# Coordination Sequence:
#
# PCOD9296544 Si02
#       5
#     8   8   8   8   8
#     4  10  23  45  68  98 139 181 229 291 343 411
#     4  11  24  46  75 103 141 187 231 298 360 428
#     4  10  25  43  71 101 144 182 240 283 356 426
#     4  10  23  45  67  98 135 184 226 291 339 415
#     4  11  24  47  71 106 142 184 234 297 362 423
#
# _framework density 20.307517000000001
#
# number of rings (size 3 to 8) (size 9 to 14) (size 15 to 20)
#    1.200    0.400    2.000    1.800    0.000    4.800 
#    7.200    0.000    0.000    0.000    0.000    0.000 
#    0.000    0.000    0.000    0.000    0.000    0.000 
#
# Total GULP energy -111531.445970 kJ/mol
# GULP energy per Si atom -5576.572299 kJ/mol
# Density = 2.026130 g / cm^3
# Si number density = 20.307517 Si / 1000 Ang^3
#
#
#
# Elastic Constant Matrix: (Units=GPa)
#
#
# Indices 1 2 3 4 5 6 
#
# 1 71.0574 30.9854 15.4804 0.0000 -10.9809 0.0000
# 2 30.9854 49.8777 28.6246 0.0000 -9.5656 0.0000
# 3 15.4804 28.6246 115.0060 0.0000 4.3208 0.0000
# 4 0.0000 0.0000 0.0000 31.1747 0.0000 6.0258
# 5 -10.9809 -9.5656 4.3208 0.0000 38.3293 0.0000
# 6 0.0000 0.0000 0.0000 6.0258 0.0000 10.2168
#
#
#
# Elastic Compliance Matrix: (Units=1/GPa)
#
#
# Indices 1 2 3 4 5 6 
#
# 1 0.019568 -0.011759 0.000193 0.000000 0.002650 0.000000
# 2 -0.011759 0.032200 -0.006635 0.000000 0.005415 0.000000
# 3 0.000193 -0.006635 0.010425 0.000000 -0.002776 0.000000
# 4 0.000000 0.000000 0.000000 0.036205 0.000000 -0.021353
# 5 0.002650 0.005415 -0.002776 0.000000 0.028513 0.000000
# 6 0.000000 0.000000 0.000000 -0.021353 0.000000 0.110472
#
#
# Mechanical properties :
#
#
# Convention : Reuss Voigt Hill
#
# Bulk Modulus (GPa) = 38.77225 42.90241 40.83733
# Shear Modulus (GPa) = 17.70646 26.66754 22.18700
#
# Velocity S-wave (km/s) = 2.95603 3.62772 3.30896
# Velocity P-wave (km/s) = 5.54840 6.22249 5.89509
#
# Compressibility (1/GPa) = 0.02579164
#
# Stress axis : x y z
#
# Youngs Moduli (GPa) = 51.10352 31.05542 95.92368
#
# Poissons Ratio (x) = 0.36518 -0.01854
# Poissons Ratio (y) = 0.60093 0.63647
# Poissons Ratio (z) = -0.00988 0.20606
#
# Static dielectric constant tensor:
#      x y z
#    x 1.730710 0.000000 0.013370 
#    y 0.000000 1.737710 0.000000 
#    z 0.013370 0.000000 1.721320 
# 
# From -- ./inp_files/79527.got.cif
#   From: 2010.05.17/outbox.cif.g08.bks.cpg/sg15_40_cif.got.tgz:79527.got - 2010.06.03 18:47:42.
