data_PCOD9296174
_publ_section_title
;
Structure prediction by ZEFSAII (Michael W. Deem and Ramdas Pophale) SiO2 
 PCOD9296174
Probable space group: C 2/C
;
_chemical_formula_sum "Si O2"
_cell_formula_units_Z 28
_cell_length_a 9.852725
_cell_length_b 11.215650
_cell_length_c 9.463707
_cell_angle_alpha 90.000000
_cell_angle_beta 80.034131
_cell_angle_gamma 90.000000
_cell_volume 1030.004429
_symmetry_space_group_name_H-M "C 2/C"
_symmetry_group_IT_number 15
_symmetry_cell_setting 'monoclinic'
loop_
_space_group_symop_operation_xyz
x,y,z
-x,y,1/2-z
-x,-y,-z
x,-y,1/2+z
1/2+x,1/2+y,z
1/2-x,1/2+y,1/2-z
1/2-x,1/2-y,-z
1/2+x,1/2-y,1/2+z
loop_
_atom_site_type_symbol
_atom_site_label
_atom_site_fract_x
_atom_site_fract_y
_atom_site_fract_z
Si Si1 0.171518 0.623166 0.493385
Si Si2 0.918906 0.743675 0.612742
Si Si3 0.219715 0.937983 0.246822
Si Si4 0.500000 0.500000 0.500000
O O1 0.250000 0.750000 0.500000
O O2 0.261078 0.544909 0.368077
O O3 0.175769 0.551274 0.639645
O O4 0.013825 0.658027 0.497809
O O5 0.772135 0.682778 0.663112
O O6 0.920456 0.877080 0.559729
O O7 0.000000 0.748137 0.750000
O O8 0.078242 0.931203 0.355534
#
# Coordination Sequence:
#
# PCOD9296174 Si02
#       4
#     8   8   8   4
#     4  11  22  47  71 101 141 183 234 297 353 417
#     4  10  23  44  68  98 138 184 231 293 351 416
#     4  11  24  41  74  99 137 182 236 281 360 414
#     4  12  24  38  70 100 138 186 232 286 352 420
#
# _framework density 27.184350999999999
#
# number of rings (size 3 to 8) (size 9 to 14) (size 15 to 20)
#    0.000    1.143    2.857    4.286    0.000    0.000 
#    0.000    8.571    0.000    0.000    0.000    0.000 
#    0.000    0.000    0.000    0.000    0.000    0.000 
#
# Total GULP energy -77934.318360 kJ/mol
# GULP energy per Si atom -5566.737026 kJ/mol
# Density = 2.712248 g / cm^3
# Si number density = 27.184351 Si / 1000 Ang^3
#
#
#
# Elastic Constant Matrix: (Units=GPa)
#
#
# Indices 1 2 3 4 5 6 
#
# 1 39.9191 25.8484 40.4571 0.0000 -12.2213 0.0000
# 2 25.8484 185.6195 104.9677 0.0000 -10.5561 0.0000
# 3 40.4571 104.9677 172.1804 0.0000 -49.9644 0.0000
# 4 0.0000 0.0000 0.0000 61.5044 0.0000 -18.0363
# 5 -12.2213 -10.5561 -49.9644 0.0000 58.0104 0.0000
# 6 0.0000 0.0000 0.0000 -18.0363 0.0000 39.9003
#
#
#
# Elastic Compliance Matrix: (Units=1/GPa)
#
#
# Indices 1 2 3 4 5 6 
#
# 1 0.032905 -0.000411 -0.007321 0.000000 0.000552 0.000000
# 2 -0.000411 0.008892 -0.006506 0.000000 -0.004072 0.000000
# 3 -0.007321 -0.006506 0.014270 0.000000 0.009565 0.000000
# 4 0.000000 0.000000 0.000000 0.018744 0.000000 0.008473
# 5 0.000552 -0.004072 0.009565 0.000000 0.024851 0.000000
# 6 0.000000 0.000000 0.000000 0.008473 0.000000 0.028892
#
#
# Mechanical properties :
#
#
# Convention : Reuss Voigt Hill
#
# Bulk Modulus (GPa) = 36.24326 82.25170 59.24748
# Shear Modulus (GPa) = 30.07899 46.97941 38.52920
#
# Velocity S-wave (km/s) = 3.32999 4.16165 3.76883
# Velocity P-wave (km/s) = 5.30532 7.30856 6.38598
#
# Compressibility (1/GPa) = 0.02759134
#
# Stress axis : x y z
#
# Youngs Moduli (GPa) = 30.39010 112.45726 70.07649
#
# Poissons Ratio (x) = 0.04618 0.51305
# Poissons Ratio (y) = 0.01248 0.45594
# Poissons Ratio (z) = 0.22249 0.73168
#
# Static dielectric constant tensor:
#      x y z
#    x -1.814170 0.000000 -0.722020 
#    y 0.000000 2.070710 0.000000 
#    z -0.722020 0.000000 1.971530 
# 
# From -- ./inp_files/93371.got.cif
#   From: 2010.05.17/outbox.cif.g08.bks.cpg/sg15_47_cif.got.tgz:93371.got - 2010.06.03 18:47:42.
