data_PCOD9296010
_publ_section_title
;
Structure prediction by ZEFSAII (Michael W. Deem and Ramdas Pophale) SiO2 
 PCOD9296010
Probable space group: C 2/C
;
_chemical_formula_sum "Si O2"
_cell_formula_units_Z 44
_cell_length_a 12.226921
_cell_length_b 20.549800
_cell_length_c 8.719124
_cell_angle_alpha 90.000000
_cell_angle_beta 118.270044
_cell_angle_gamma 90.000000
_cell_volume 1929.469571
_symmetry_space_group_name_H-M "C 2/C"
_symmetry_group_IT_number 15
_symmetry_cell_setting 'monoclinic'
loop_
_space_group_symop_operation_xyz
x,y,z
-x,y,1/2-z
-x,-y,-z
x,-y,1/2+z
1/2+x,1/2+y,z
1/2-x,1/2+y,1/2-z
1/2-x,1/2-y,-z
1/2+x,1/2-y,1/2+z
loop_
_atom_site_type_symbol
_atom_site_label
_atom_site_fract_x
_atom_site_fract_y
_atom_site_fract_z
Si Si1 0.310439 0.196269 0.431669
Si Si2 0.324046 0.487795 0.981670
Si Si3 0.647494 0.714358 0.815023
Si Si4 0.797089 0.581951 0.844209
Si Si5 0.102854 0.904048 0.723700
Si Si6 0.000000 0.386521 0.250000
O O1 0.250000 0.250000 0.500000
O O2 0.372516 0.234361 0.334646
O O3 0.218235 0.143820 0.295762
O O4 0.397329 0.156459 0.600988
O O5 0.277857 0.534927 0.818819
O O6 0.412707 0.435319 0.955225
O O7 0.213896 0.449192 0.994223
O O8 0.376617 0.536598 0.143357
O O9 0.500000 0.696487 0.750000
O O10 0.724582 0.650754 0.809272
O O11 0.750000 0.750000 0.000000
O O12 0.930124 0.581536 0.849004
O O13 0.000000 0.864266 0.750000
#
# Coordination Sequence:
#
# PCOD9296010 Si02
#       6
#     8   8   8   8   8   4
#     4  12  26  44  71 102 139 186 240 289 360 431
#     4  10  23  44  65 104 140 182 241 290 364 423
#     4  12  27  48  75 110 149 190 244 308 371 439
#     4  11  24  45  70 103 142 192 237 298 359 434
#     4  11  23  41  69 101 138 186 235 295 360 426
#     4  12  24  48  72 104 144 188 250 292 364 442
#
# _framework density 22.804196000000001
#
# number of rings (size 3 to 8) (size 9 to 14) (size 15 to 20)
#    0.000    0.727    3.636    2.727    1.273    8.000 
#    0.000    0.000    0.000    0.000    0.000    0.000 
#    0.000    0.000    0.000    0.000    0.000    0.000 
#
# Total GULP energy -122597.371285 kJ/mol
# GULP energy per Si atom -5572.607786 kJ/mol
# Density = 2.275229 g / cm^3
# Si number density = 22.804196 Si / 1000 Ang^3
#
#
#
# Elastic Constant Matrix: (Units=GPa)
#
#
# Indices 1 2 3 4 5 6 
#
# 1 126.4264 34.2948 9.1791 0.0000 -24.2740 0.0000
# 2 34.2948 79.7473 17.4829 0.0000 -11.9061 0.0000
# 3 9.1791 17.4829 42.1071 0.0000 -26.7275 0.0000
# 4 0.0000 0.0000 0.0000 55.5676 0.0000 -9.1481
# 5 -24.2740 -11.9061 -26.7275 0.0000 39.1914 0.0000
# 6 0.0000 0.0000 0.0000 -9.1481 0.0000 44.3621
#
#
#
# Elastic Compliance Matrix: (Units=1/GPa)
#
#
# Indices 1 2 3 4 5 6 
#
# 1 0.010325 -0.004248 0.004855 0.000000 0.008415 0.000000
# 2 -0.004248 0.015549 -0.007409 0.000000 -0.002960 0.000000
# 3 0.004855 -0.007409 0.046281 0.000000 0.032319 0.000000
# 4 0.000000 0.000000 0.000000 0.018629 0.000000 0.003841
# 5 0.008415 -0.002960 0.032319 0.000000 0.051869 0.000000
# 6 0.000000 0.000000 0.000000 0.003841 0.000000 0.023334
#
#
# Mechanical properties :
#
#
# Convention : Reuss Voigt Hill
#
# Bulk Modulus (GPa) = 17.07924 41.13270 29.10597
# Shear Modulus (GPa) = 25.11196 40.31249 32.71222
#
# Velocity S-wave (km/s) = 3.32203 4.20904 3.79157
# Velocity P-wave (km/s) = 4.71384 6.45739 5.65324
#
# Compressibility (1/GPa) = 0.05855061
#
# Stress axis : x y z
#
# Youngs Moduli (GPa) = 96.84808 64.31366 21.60714
#
# Poissons Ratio (x) = 0.27322 -0.10490
# Poissons Ratio (y) = 0.41144 0.16008
# Poissons Ratio (z) = -0.47017 0.47648
#
# Static dielectric constant tensor:
#      x y z
#    x 2.421250 0.000000 -0.032460 
#    y 0.000000 1.892780 0.000000 
#    z -0.032460 0.000000 1.833690 
# 
# From -- ./inp_files/31023.got.cif
#   From: 2010.05.17/outbox.cif.g08.bks.cpg/sg15_16_cif.got.tgz:31023.got - 2010.06.03 18:47:42.
