data_PCOD9296736
_publ_section_title
;
Structure prediction by ZEFSAII (Michael W. Deem and Ramdas Pophale) SiO2 
 PCOD9296736
Probable space group: C 2/C
;
_chemical_formula_sum "Si O2"
_cell_formula_units_Z 40
_cell_length_a 7.158670
_cell_length_b 16.414246
_cell_length_c 13.073040
_cell_angle_alpha 90.000000
_cell_angle_beta 86.122458
_cell_angle_gamma 90.000000
_cell_volume 1532.620291
_symmetry_space_group_name_H-M "C 2/C"
_symmetry_group_IT_number 15
_symmetry_cell_setting 'monoclinic'
loop_
_space_group_symop_operation_xyz
x,y,z
-x,y,1/2-z
-x,-y,-z
x,-y,1/2+z
1/2+x,1/2+y,z
1/2-x,1/2+y,1/2-z
1/2-x,1/2-y,-z
1/2+x,1/2-y,1/2+z
loop_
_atom_site_type_symbol
_atom_site_label
_atom_site_fract_x
_atom_site_fract_y
_atom_site_fract_z
Si Si1 0.725459 0.531774 0.749552
Si Si2 0.856352 0.193568 0.848043
Si Si3 0.353482 0.931189 0.472302
Si Si4 0.506305 0.749204 0.051692
Si Si5 0.669264 0.378764 0.664735
O O1 0.500000 0.526180 0.750000
O O2 0.752010 0.609538 0.675374
O O3 0.789779 0.554927 0.859432
O O4 0.803469 0.442309 0.718791
O O5 0.687370 0.255534 0.876957
O O6 0.000000 0.211574 0.750000
O O7 0.968953 0.197181 0.950449
O O8 0.449420 0.842167 0.477763
O O9 0.176593 0.929249 0.556903
O O10 0.500000 0.000000 0.500000
O O11 0.667709 0.712168 0.118156
O O12 0.500000 0.373351 0.750000
#
# Coordination Sequence:
#
# PCOD9296736 Si02
#       5
#     8   8   8   8   8
#     4  10  24  47  77 105 150 209 256 315 390 472
#     4  10  23  45  75 107 153 203 254 317 399 469
#     4  12  28  51  74 112 163 205 263 324 393 472
#     4  11  26  44  73 115 154 202 257 332 389 467
#     4  11  26  43  75 110 148 206 256 322 393 461
#
# _framework density 26.099091999999999
#
# number of rings (size 3 to 8) (size 9 to 14) (size 15 to 20)
#    0.000    1.200    0.000    4.200    5.600   16.000 
#    0.000    0.000    0.000    0.000    0.000    0.000 
#    0.000    0.000    0.000    0.000    0.000    0.000 
#
# Total GULP energy -111472.355244 kJ/mol
# GULP energy per Si atom -5573.617762 kJ/mol
# Density = 2.603969 g / cm^3
# Si number density = 26.099092 Si / 1000 Ang^3
#
#
#
# Elastic Constant Matrix: (Units=GPa)
#
#
# Indices 1 2 3 4 5 6 
#
# 1 116.0849 36.1567 75.2532 0.0000 -4.8596 0.0000
# 2 36.1567 127.9722 105.5411 0.0000 10.6713 0.0000
# 3 75.2532 105.5411 155.2499 0.0000 -3.0094 0.0000
# 4 0.0000 0.0000 0.0000 94.7017 0.0000 -35.8561
# 5 -4.8596 10.6713 -3.0094 0.0000 57.5700 0.0000
# 6 0.0000 0.0000 0.0000 -35.8561 0.0000 33.4450
#
#
#
# Elastic Compliance Matrix: (Units=1/GPa)
#
#
# Indices 1 2 3 4 5 6 
#
# 1 0.013227 0.003529 -0.008810 0.000000 0.000002 0.000000
# 2 0.003529 0.019664 -0.015158 0.000000 -0.004139 0.000000
# 3 -0.008810 -0.015158 0.021078 0.000000 0.003168 0.000000
# 4 0.000000 0.000000 0.000000 0.017774 0.000000 0.019056
# 5 0.000002 -0.004139 0.003168 0.000000 0.018303 0.000000
# 6 0.000000 0.000000 0.000000 0.019056 0.000000 0.050329
#
#
# Mechanical properties :
#
#
# Convention : Reuss Voigt Hill
#
# Bulk Modulus (GPa) = 76.40108 92.57876 84.48992
# Shear Modulus (GPa) = 26.93707 49.30041 38.11874
#
# Velocity S-wave (km/s) = 3.21613 4.35094 3.82585
# Velocity P-wave (km/s) = 6.56722 7.79679 7.20827
#
# Compressibility (1/GPa) = 0.01308882
#
# Stress axis : x y z
#
# Youngs Moduli (GPa) = 75.60533 50.85471 47.44288
#
# Poissons Ratio (x) = -0.17945 0.41797
# Poissons Ratio (y) = -0.26679 0.71916
# Poissons Ratio (z) = 0.66608 0.77088
#
# Static dielectric constant tensor:
#      x y z
#    x 2.060680 0.000000 -0.090780 
#    y 0.000000 2.154940 0.000000 
#    z -0.090780 0.000000 2.024550 
# 
# From -- ./inp_files/76825.got.cif
#   From: 2010.05.17/outbox.cif.g08.bks.cpg/sg15_39_cif.got.tgz:76825.got - 2010.06.03 18:47:42.
