data_PCOD9296749
_publ_section_title
;
Structure prediction by ZEFSAII (Michael W. Deem and Ramdas Pophale) SiO2 
 PCOD9296749
Probable space group: C 2/C
;
_chemical_formula_sum "Si O2"
_cell_formula_units_Z 36
_cell_length_a 26.302920
_cell_length_b 4.936402
_cell_length_c 10.239132
_cell_angle_alpha 90.000000
_cell_angle_beta 69.847948
_cell_angle_gamma 90.000000
_cell_volume 1248.079416
_symmetry_space_group_name_H-M "C 2/C"
_symmetry_group_IT_number 15
_symmetry_cell_setting 'monoclinic'
loop_
_space_group_symop_operation_xyz
x,y,z
-x,y,1/2-z
-x,-y,-z
x,-y,1/2+z
1/2+x,1/2+y,z
1/2-x,1/2+y,1/2-z
1/2-x,1/2-y,-z
1/2+x,1/2-y,1/2+z
loop_
_atom_site_type_symbol
_atom_site_label
_atom_site_fract_x
_atom_site_fract_y
_atom_site_fract_z
Si Si1 0.298319 0.285822 0.619073
Si Si2 0.089454 0.932215 0.018659
Si Si3 0.574036 0.073064 0.360899
Si Si4 0.813873 0.543756 0.866606
Si Si5 0.500000 0.271956 0.750000
O O1 0.346410 0.469977 0.514258
O O2 0.238102 0.383785 0.645729
O O3 0.304294 0.006846 0.529430
O O4 0.310791 0.287982 0.763121
O O5 0.069994 0.126584 0.918459
O O6 0.085318 0.625676 0.973445
O O7 0.049327 0.034137 0.164623
O O8 0.523633 0.932649 0.336623
O O9 0.626216 0.063176 0.220347
#
# Coordination Sequence:
#
# PCOD9296749 Si02
#       5
#     8   8   8   8   4
#     4  10  23  47  77 116 162 203 262 321 403 474
#     4  11  27  49  74 112 150 203 257 328 388 468
#     4  11  27  48  75 110 153 198 263 321 395 461
#     4  10  23  45  76 115 156 207 252 328 390 480
#     4  12  28  48  80 104 156 210 268 324 388 466
#
# _framework density 28.844315999999999
#
# number of rings (size 3 to 8) (size 9 to 14) (size 15 to 20)
#    0.000    1.333    0.000    2.667    9.333    2.667 
#    4.000    0.000    0.000    0.000    0.000    0.000 
#    0.000    0.000    0.000    0.000    0.000    0.000 
#
# Total GULP energy -100817.378962 kJ/mol
# GULP energy per Si atom -5600.965498 kJ/mol
# Density = 2.877867 g / cm^3
# Si number density = 28.844316 Si / 1000 Ang^3
#
#
#
# Elastic Constant Matrix: (Units=GPa)
#
#
# Indices 1 2 3 4 5 6 
#
# 1 157.9507 41.0328 54.7233 0.0000 -10.5010 0.0000
# 2 41.0328 84.7815 43.5226 0.0000 -15.8489 0.0000
# 3 54.7233 43.5226 141.3352 0.0000 -20.1001 0.0000
# 4 0.0000 0.0000 0.0000 36.5779 0.0000 -13.7671
# 5 -10.5010 -15.8489 -20.1001 0.0000 71.1379 0.0000
# 6 0.0000 0.0000 0.0000 -13.7671 0.0000 41.1343
#
#
#
# Elastic Compliance Matrix: (Units=1/GPa)
#
#
# Indices 1 2 3 4 5 6 
#
# 1 0.007778 -0.002644 -0.002207 0.000000 -0.000064 0.000000
# 2 -0.002644 0.015182 -0.003361 0.000000 0.002042 0.000000
# 3 -0.002207 -0.003361 0.009181 0.000000 0.001520 0.000000
# 4 0.000000 0.000000 0.000000 0.031279 0.000000 0.010469
# 5 -0.000064 0.002042 0.001520 0.000000 0.014932 0.000000
# 6 0.000000 0.000000 0.000000 0.010469 0.000000 0.027814
#
#
# Mechanical properties :
#
#
# Convention : Reuss Voigt Hill
#
# Bulk Modulus (GPa) = 63.62120 73.62497 68.62309
# Shear Modulus (GPa) = 39.11501 46.08924 42.60213
#
# Velocity S-wave (km/s) = 3.68649 4.00166 3.84730
# Velocity P-wave (km/s) = 6.34231 6.85065 6.60138
#
# Compressibility (1/GPa) = 0.01571803
#
# Stress axis : x y z
#
# Youngs Moduli (GPa) = 128.56592 65.86881 108.92259
#
# Poissons Ratio (x) = 0.17414 0.24035
# Poissons Ratio (y) = 0.33989 0.36608
# Poissons Ratio (z) = 0.28370 0.22138
#
# Static dielectric constant tensor:
#      x y z
#    x 2.185130 0.000000 0.022840 
#    y 0.000000 2.263390 0.000000 
#    z 0.022840 0.000000 2.339100 
# 
# From -- ./inp_files/120680.got.cif
#   From: 2010.05.17/outbox.cif.g08.bks.cpg/sg15_61_cif.got.tgz:120680.got - 2010.06.03 18:47:42.
