data_PCOD9296467
_publ_section_title
;
Structure prediction by ZEFSAII (Michael W. Deem and Ramdas Pophale) SiO2 
 PCOD9296467
Probable space group: C 2/C
;
_chemical_formula_sum "Si O2"
_cell_formula_units_Z 40
_cell_length_a 14.360440
_cell_length_b 14.364669
_cell_length_c 17.688204
_cell_angle_alpha 90.000000
_cell_angle_beta 32.738275
_cell_angle_gamma 90.000000
_cell_volume 1973.266206
_symmetry_space_group_name_H-M "C 2/C"
_symmetry_group_IT_number 15
_symmetry_cell_setting 'monoclinic'
loop_
_space_group_symop_operation_xyz
x,y,z
-x,y,1/2-z
-x,-y,-z
x,-y,1/2+z
1/2+x,1/2+y,z
1/2-x,1/2+y,1/2-z
1/2-x,1/2-y,-z
1/2+x,1/2-y,1/2+z
loop_
_atom_site_type_symbol
_atom_site_label
_atom_site_fract_x
_atom_site_fract_y
_atom_site_fract_z
Si Si1 0.590225 0.303874 0.009709
Si Si2 0.914775 0.318314 0.389526
Si Si3 0.676906 0.638005 0.603888
Si Si4 0.224708 0.788745 0.754357
Si Si5 0.194971 0.934678 0.642008
O O1 0.643828 0.378132 0.037372
O O2 0.388532 0.280436 0.139466
O O3 0.667519 0.206438 0.987605
O O4 0.681501 0.323475 0.867943
O O5 0.750000 0.250000 0.500000
O O6 0.835559 0.408361 0.483138
O O7 0.000000 0.333546 0.250000
O O8 0.059712 0.270554 0.341297
O O9 0.500000 0.687779 0.750000
O O10 0.692538 0.546167 0.644074
O O11 0.240499 0.875027 0.685171
O O12 0.000000 0.906590 0.750000
#
# Coordination Sequence:
#
# PCOD9296467 Si02
#       5
#     8   8   8   8   8
#     4  11  23  42  68  91 129 172 222 261 326 392
#     4  12  20  38  62  93 130 174 208 260 333 392
#     4  10  23  45  64  91 132 178 210 270 333 383
#     4  12  21  38  68  97 122 168 224 267 312 390
#     4  11  23  41  65  93 134 170 214 273 329 376
#
# _framework density 20.270959999999999
#
# number of rings (size 3 to 8) (size 9 to 14) (size 15 to 20)
#    0.000    0.800    8.000    0.000    0.000    0.800 
#    3.600    4.000    0.000    0.000    0.000    0.000 
#    0.000    0.000    0.000    0.000    0.000    0.000 
#
# Total GULP energy -111622.638356 kJ/mol
# GULP energy per Si atom -5581.131918 kJ/mol
# Density = 2.022482 g / cm^3
# Si number density = 20.270960 Si / 1000 Ang^3
#
#
#
# Elastic Constant Matrix: (Units=GPa)
#
#
# Indices 1 2 3 4 5 6 
#
# 1 79.9027 16.2984 31.7003 -0.0002 10.8903 0.0001
# 2 16.2984 51.4509 12.1815 -0.0001 -8.8389 0.0002
# 3 31.7003 12.1815 123.5063 -0.0002 12.9460 0.0003
# 4 -0.0002 -0.0001 -0.0002 24.8928 0.0002 0.0932
# 5 10.8903 -8.8389 12.9460 0.0002 55.8312 -0.0002
# 6 0.0001 0.0002 0.0003 0.0932 -0.0002 15.4025
#
#
#
# Elastic Compliance Matrix: (Units=1/GPa)
#
#
# Indices 1 2 3 4 5 6 
#
# 1 0.015078 -0.004544 -0.003114 0.000000 -0.002938 0.000000
# 2 -0.004544 0.022043 -0.001503 0.000000 0.004725 0.000000
# 3 -0.003114 -0.001503 0.009230 0.000000 -0.001771 0.000000
# 4 0.000000 0.000000 0.000000 0.040173 0.000000 -0.000243
# 5 -0.002938 0.004725 -0.001771 0.000000 0.019643 0.000000
# 6 0.000000 0.000000 0.000000 -0.000243 0.000000 0.064926
#
#
# Mechanical properties :
#
#
# Convention : Reuss Voigt Hill
#
# Bulk Modulus (GPa) = 35.67724 41.69114 38.68419
# Shear Modulus (GPa) = 25.15626 32.20392 28.68009
#
# Velocity S-wave (km/s) = 3.52660 3.99014 3.76551
# Velocity P-wave (km/s) = 5.84987 6.46837 6.16688
#
# Compressibility (1/GPa) = 0.02802908
#
# Stress axis : x y z
#
# Youngs Moduli (GPa) = 66.32196 45.36603 108.34404
#
# Poissons Ratio (x) = 0.20614 0.33737
# Poissons Ratio (y) = 0.30136 0.16285
# Poissons Ratio (z) = 0.20652 0.06819
#
# Static dielectric constant tensor:
#      x y z
#    x 1.765280 0.000000 0.041110 
#    y 0.000000 1.728290 0.000000 
#    z 0.041110 0.000000 1.752570 
# 
# From -- ./inp_files/37851.got.cif
#   From: 2010.05.17/outbox.cif.g08.bks.cpg/sg15_19_cif.got.tgz:37851.got - 2010.06.03 18:47:42.
