data_PCOD9296773
_publ_section_title
;
Structure prediction by ZEFSAII (Michael W. Deem and Ramdas Pophale) SiO2 
 PCOD9296773
Probable space group: C 2/C
;
_chemical_formula_sum "Si O2"
_cell_formula_units_Z 56
_cell_length_a 11.290764
_cell_length_b 20.513176
_cell_length_c 12.091736
_cell_angle_alpha 90.000000
_cell_angle_beta 74.679186
_cell_angle_gamma 90.000000
_cell_volume 2701.032359
_symmetry_space_group_name_H-M "C 2/C"
_symmetry_group_IT_number 15
_symmetry_cell_setting 'monoclinic'
loop_
_space_group_symop_operation_xyz
x,y,z
-x,y,1/2-z
-x,-y,-z
x,-y,1/2+z
1/2+x,1/2+y,z
1/2-x,1/2+y,1/2-z
1/2-x,1/2-y,-z
1/2+x,1/2-y,1/2+z
loop_
_atom_site_type_symbol
_atom_site_label
_atom_site_fract_x
_atom_site_fract_y
_atom_site_fract_z
Si Si1 0.240466 0.913153 0.553307
Si Si2 0.832284 0.185107 0.608963
Si Si3 0.383122 0.760240 0.208922
Si Si4 0.539458 0.183665 0.479252
Si Si5 0.614731 0.460875 0.023993
Si Si6 0.724834 0.378972 0.801749
Si Si7 0.000000 0.360157 0.750000
Si Si8 0.500000 0.619702 0.750000
O O1 0.165024 0.869519 0.485249
O O2 0.375878 0.879866 0.519947
O O3 0.187570 0.904889 0.689980
O O4 0.223155 0.987290 0.521013
O O5 0.696882 0.194817 0.691103
O O6 0.873640 0.253006 0.545433
O O7 0.916545 0.163722 0.690613
O O8 0.500000 0.735665 0.250000
O O9 0.300162 0.698696 0.194456
O O10 0.434541 0.801344 0.093437
O O11 0.490196 0.178973 0.366702
O O12 0.655540 0.409707 0.921364
O O13 0.500000 0.500000 0.000000
O O14 0.577123 0.425398 0.146752
O O15 0.869447 0.395742 0.774971
#
# Coordination Sequence:
#
# PCOD9296773 Si02
#       8
#     8   8   8   8   8   8   4   4
#     4  11  23  45  67  93 142 179 226 282 331 412
#     4  12  23  43  66 105 142 171 223 286 350 399
#     4  12  24  38  72 106 137 180 225 280 352 419
#     4  11  23  42  66 100 139 176 222 281 342 414
#     4  12  26  46  69 101 136 185 237 285 342 408
#     4  11  26  44  71 100 136 185 231 277 349 414
#     4  10  23  46  64  98 138 177 220 278 344 410
#     4  12  27  44  68 106 144 177 224 300 342 408
#
# _framework density 20.732814000000001
#
# number of rings (size 3 to 8) (size 9 to 14) (size 15 to 20)
#    0.000    0.571    5.714    3.429    4.000    0.571 
#    0.000    4.286    0.000    0.000    0.000    0.000 
#    0.000    0.000    0.000    0.000    0.000    0.000 
#
# Total GULP energy -156511.582274 kJ/mol
# GULP energy per Si atom -5589.699367 kJ/mol
# Density = 2.068563 g / cm^3
# Si number density = 20.732814 Si / 1000 Ang^3
#
#
#
# Elastic Constant Matrix: (Units=GPa)
#
#
# Indices 1 2 3 4 5 6 
#
# 1 80.4284 15.8005 25.2273 0.0000 10.4104 0.0000
# 2 15.8005 69.5643 36.0287 0.0000 -0.9821 0.0000
# 3 25.2273 36.0287 160.4673 0.0000 0.5709 0.0000
# 4 0.0000 0.0000 0.0000 20.0824 0.0000 0.8789
# 5 10.4104 -0.9821 0.5709 0.0000 36.7083 0.0000
# 6 0.0000 0.0000 0.0000 0.8789 0.0000 22.5723
#
#
#
# Elastic Compliance Matrix: (Units=1/GPa)
#
#
# Indices 1 2 3 4 5 6 
#
# 1 0.013931 -0.002369 -0.001644 0.000000 -0.003989 0.000000
# 2 -0.002369 0.016679 -0.003376 0.000000 0.001171 0.000000
# 3 -0.001644 -0.003376 0.007247 0.000000 0.000263 0.000000
# 4 0.000000 0.000000 0.000000 0.049880 0.000000 -0.001942
# 5 -0.003989 0.001171 0.000263 0.000000 0.028400 0.000000
# 6 0.000000 0.000000 0.000000 -0.001942 0.000000 0.044378
#
#
# Mechanical properties :
#
#
# Convention : Reuss Voigt Hill
#
# Bulk Modulus (GPa) = 43.33172 51.61921 47.47546
# Shear Modulus (GPa) = 27.32453 31.43285 29.37869
#
# Velocity S-wave (km/s) = 3.63428 3.89793 3.76841
# Velocity P-wave (km/s) = 6.20935 6.72383 6.47170
#
# Compressibility (1/GPa) = 0.02307778
#
# Stress axis : x y z
#
# Youngs Moduli (GPa) = 71.78373 59.95736 137.98041
#
# Poissons Ratio (x) = 0.14204 0.22684
# Poissons Ratio (y) = 0.17006 0.46588
# Poissons Ratio (z) = 0.11801 0.20244
#
# Static dielectric constant tensor:
#      x y z
#    x 1.792660 0.000000 0.011800 
#    y 0.000000 1.709000 0.000000 
#    z 0.011800 0.000000 1.719880 
# 
# From -- ./inp_files/89596.got.cif
#   From: 2010.05.17/outbox.cif.g08.bks.cpg/sg15_45_cif.got.tgz:89596.got - 2010.06.03 18:47:42.
