data_PCOD9296562
_publ_section_title
;
Structure prediction by ZEFSAII (Michael W. Deem and Ramdas Pophale) SiO2 
 PCOD9296562
Probable space group: C 2/C
;
_chemical_formula_sum "Si O2"
_cell_formula_units_Z 32
_cell_length_a 7.636942
_cell_length_b 12.346349
_cell_length_c 13.926044
_cell_angle_alpha 90.000000
_cell_angle_beta 84.240123
_cell_angle_gamma 90.000000
_cell_volume 1306.434374
_symmetry_space_group_name_H-M "C 2/C"
_symmetry_group_IT_number 15
_symmetry_cell_setting 'monoclinic'
loop_
_space_group_symop_operation_xyz
x,y,z
-x,y,1/2-z
-x,-y,-z
x,-y,1/2+z
1/2+x,1/2+y,z
1/2-x,1/2+y,1/2-z
1/2-x,1/2-y,-z
1/2+x,1/2-y,1/2+z
loop_
_atom_site_type_symbol
_atom_site_label
_atom_site_fract_x
_atom_site_fract_y
_atom_site_fract_z
Si Si1 0.025070 0.458569 0.633661
Si Si2 0.397739 0.610625 0.028288
Si Si3 0.050091 0.228285 0.858916
Si Si4 0.443543 0.808727 0.363483
O O1 0.220228 0.421560 0.592644
O O2 0.980723 0.578045 0.598563
O O3 0.000000 0.468586 0.750000
O O4 0.914378 0.352818 0.613057
O O5 0.501798 0.700250 0.085160
O O6 0.500000 0.500000 0.000000
O O7 0.392594 0.674056 0.926931
O O8 0.233858 0.171682 0.871531
O O9 0.000000 0.224810 0.750000
O O10 0.500000 0.794898 0.250000
#
# Coordination Sequence:
#
# PCOD9296562 Si02
#       4
#     8   8   8   8
#     4  10  23  45  68 103 136 179 232 276 348 408
#     4  12  25  46  71 104 140 184 231 280 348 410
#     4  11  24  46  69 102 141 183 231 286 342 404
#     4  11  24  46  71  99 143 181 228 286 342 409
#
# _framework density 24.494150000000001
#
# number of rings (size 3 to 8) (size 9 to 14) (size 15 to 20)
#    0.000    1.000    2.500    4.500    0.000    2.000 
#   18.000    0.000    0.000    0.000    0.000    0.000 
#    0.000    0.000    0.000    0.000    0.000    0.000 
#
# Total GULP energy -89527.828215 kJ/mol
# GULP energy per Si atom -5595.489263 kJ/mol
# Density = 2.443840 g / cm^3
# Si number density = 24.494150 Si / 1000 Ang^3
#
#
#
# Elastic Constant Matrix: (Units=GPa)
#
#
# Indices 1 2 3 4 5 6 
#
# 1 97.0005 32.8393 40.6644 0.0000 -22.7691 0.0000
# 2 32.8393 207.1662 61.4493 0.0000 7.5640 0.0000
# 3 40.6644 61.4493 169.1478 0.0000 -21.9110 0.0000
# 4 0.0000 0.0000 0.0000 33.4062 0.0000 -1.7883
# 5 -22.7691 7.5640 -21.9110 0.0000 34.4142 0.0000
# 6 0.0000 0.0000 0.0000 -1.7883 0.0000 36.9172
#
#
#
# Elastic Compliance Matrix: (Units=1/GPa)
#
#
# Indices 1 2 3 4 5 6 
#
# 1 0.013604 -0.002047 -0.001420 0.000000 0.008547 0.000000
# 2 -0.002047 0.005951 -0.002196 0.000000 -0.004061 0.000000
# 3 -0.001420 -0.002196 0.007620 0.000000 0.004395 0.000000
# 4 0.000000 0.000000 0.000000 0.030012 0.000000 0.001454
# 5 0.008547 -0.004061 0.004395 0.000000 0.038403 0.000000
# 6 0.000000 0.000000 0.000000 0.001454 0.000000 0.027158
#
#
# Mechanical properties :
#
#
# Convention : Reuss Voigt Hill
#
# Bulk Modulus (GPa) = 63.09266 82.58005 72.83635
# Shear Modulus (GPa) = 35.87895 43.50494 39.69194
#
# Velocity S-wave (km/s) = 3.83142 4.21899 4.02987
# Velocity P-wave (km/s) = 6.73700 7.58423 7.17314
#
# Compressibility (1/GPa) = 0.01584970
#
# Stress axis : x y z
#
# Youngs Moduli (GPa) = 73.50976 168.03442 131.22861
#
# Poissons Ratio (x) = 0.34403 0.18628
# Poissons Ratio (y) = 0.15050 0.28815
# Poissons Ratio (z) = 0.10435 0.36897
#
# Static dielectric constant tensor:
#      x y z
#    x 1.904110 0.000000 -0.013790 
#    y 0.000000 1.956200 0.000000 
#    z -0.013790 0.000000 1.982720 
# 
# From -- ./inp_files/131940.got.cif
#   From: 2010.05.17/outbox.cif.g08.bks.cpg/sg15_66_cif.got.tgz:131940.got - 2010.06.03 18:47:42.
