data_PCOD9296560
_publ_section_title
;
Structure prediction by ZEFSAII (Michael W. Deem and Ramdas Pophale) SiO2 
 PCOD9296560
Probable space group: C 2/C
;
_chemical_formula_sum "Si O2"
_cell_formula_units_Z 44
_cell_length_a 8.441803
_cell_length_b 26.631543
_cell_length_c 9.711414
_cell_angle_alpha 90.000000
_cell_angle_beta 116.767553
_cell_angle_gamma 90.000000
_cell_volume 1949.342456
_symmetry_space_group_name_H-M "C 2/C"
_symmetry_group_IT_number 15
_symmetry_cell_setting 'monoclinic'
loop_
_space_group_symop_operation_xyz
x,y,z
-x,y,1/2-z
-x,-y,-z
x,-y,1/2+z
1/2+x,1/2+y,z
1/2-x,1/2+y,1/2-z
1/2-x,1/2-y,-z
1/2+x,1/2-y,1/2+z
loop_
_atom_site_type_symbol
_atom_site_label
_atom_site_fract_x
_atom_site_fract_y
_atom_site_fract_z
Si Si1 0.290125 0.350848 0.794836
Si Si2 0.423422 0.163545 0.009263
Si Si3 0.733435 0.014085 0.939754
Si Si4 0.537055 0.745588 0.409198
Si Si5 0.865415 0.560779 0.882077
Si Si6 0.000000 0.059843 0.250000
O O1 0.188814 0.346904 0.898833
O O2 0.448348 0.309560 0.866344
O O3 0.369799 0.403739 0.783184
O O4 0.133480 0.342567 0.622412
O O5 0.421519 0.221736 0.968897
O O6 0.354298 0.121054 0.875892
O O7 0.569535 0.047115 0.933694
O O8 0.734972 0.029262 0.778654
O O9 0.904095 0.029422 0.092431
O O10 0.684186 0.959551 0.984374
O O11 0.500000 0.771859 0.250000
O O12 0.750000 0.750000 0.500000
#
# Coordination Sequence:
#
# PCOD9296560 Si02
#       6
#     8   8   8   8   8   4
#     4  11  24  43  69 105 140 190 231 292 365 422
#     4  11  24  43  72 101 145 183 243 291 355 428
#     4  10  24  41  71  97 144 177 246 283 359 417
#     4  12  24  44  71 103 141 182 236 287 356 432
#     4  10  23  45  68 103 131 195 232 295 350 423
#     4  12  22  44  70 104 142 190 232 302 356 436
#
# _framework density 22.571714
#
# number of rings (size 3 to 8) (size 9 to 14) (size 15 to 20)
#    0.000    1.091    4.545    0.545    5.091    2.182 
#    0.000    1.818    0.000    0.000    0.000    0.000 
#    0.000    0.000    0.000    0.000    0.000    0.000 
#
# Total GULP energy -122646.481545 kJ/mol
# GULP energy per Si atom -5574.840070 kJ/mol
# Density = 2.252034 g / cm^3
# Si number density = 22.571714 Si / 1000 Ang^3
#
#
#
# Elastic Constant Matrix: (Units=GPa)
#
#
# Indices 1 2 3 4 5 6 
#
# 1 84.8931 22.4555 32.5809 0.0000 5.8780 0.0000
# 2 22.4555 79.1934 20.9261 0.0000 0.4608 0.0000
# 3 32.5809 20.9261 110.4784 0.0000 8.2263 0.0000
# 4 0.0000 0.0000 0.0000 25.6798 0.0000 -1.9427
# 5 5.8780 0.4608 8.2263 0.0000 34.8505 0.0000
# 6 0.0000 0.0000 0.0000 -1.9427 0.0000 26.2079
#
#
#
# Elastic Compliance Matrix: (Units=1/GPa)
#
#
# Indices 1 2 3 4 5 6 
#
# 1 0.014013 -0.003055 -0.003441 0.000000 -0.001511 0.000000
# 2 -0.003055 0.013965 -0.001800 0.000000 0.000756 0.000000
# 3 -0.003441 -0.001800 0.010548 0.000000 -0.001886 0.000000
# 4 0.000000 0.000000 0.000000 0.039161 0.000000 0.002903
# 5 -0.001511 0.000756 -0.001886 0.000000 0.029384 0.000000
# 6 0.000000 0.000000 0.000000 0.002903 0.000000 0.038372
#
#
# Mechanical properties :
#
#
# Convention : Reuss Voigt Hill
#
# Bulk Modulus (GPa) = 45.59588 47.38776 46.49182
# Shear Modulus (GPa) = 29.52520 30.58779 30.05649
#
# Velocity S-wave (km/s) = 3.62064 3.68521 3.65307
# Velocity P-wave (km/s) = 6.14190 6.25681 6.19962
#
# Compressibility (1/GPa) = 0.02193181
#
# Stress axis : x y z
#
# Youngs Moduli (GPa) = 71.36202 71.60759 94.80620
#
# Poissons Ratio (x) = 0.21878 0.32626
# Poissons Ratio (y) = 0.21803 0.17069
# Poissons Ratio (z) = 0.24558 0.12892
#
# Static dielectric constant tensor:
#      x y z
#    x 1.836460 0.000000 -0.033190 
#    y 0.000000 1.880170 0.000000 
#    z -0.033190 0.000000 1.857070 
# 
# From -- ./inp_files/26229.got.cif
#   From: 2010.05.17/outbox.cif.g08.bks.cpg/sg15_14_cif.got.tgz:26229.got - 2010.06.03 18:47:42.
