data_PCOD9296292
_publ_section_title
;
Structure prediction by ZEFSAII (Michael W. Deem and Ramdas Pophale) SiO2 
 PCOD9296292
Probable space group: C 2/C
;
_chemical_formula_sum "Si O2"
_cell_formula_units_Z 48
_cell_length_a 12.351410
_cell_length_b 9.152480
_cell_length_c 18.632767
_cell_angle_alpha 90.000000
_cell_angle_beta 89.428679
_cell_angle_gamma 90.000000
_cell_volume 2106.255677
_symmetry_space_group_name_H-M "C 2/C"
_symmetry_group_IT_number 15
_symmetry_cell_setting 'monoclinic'
loop_
_space_group_symop_operation_xyz
x,y,z
-x,y,1/2-z
-x,-y,-z
x,-y,1/2+z
1/2+x,1/2+y,z
1/2-x,1/2+y,1/2-z
1/2-x,1/2-y,-z
1/2+x,1/2-y,1/2+z
loop_
_atom_site_type_symbol
_atom_site_label
_atom_site_fract_x
_atom_site_fract_y
_atom_site_fract_z
Si Si1 0.256823 0.461760 0.646176
Si Si2 0.385268 0.529403 0.289041
Si Si3 0.676986 0.327578 0.082951
Si Si4 0.009993 0.333489 0.478761
Si Si5 0.053518 0.345036 0.171867
Si Si6 0.121333 0.929963 0.487434
O O1 0.297007 0.473205 0.727253
O O2 0.252526 0.297536 0.615414
O O3 0.137381 0.530676 0.648019
O O4 0.337466 0.549741 0.593403
O O5 0.500000 0.516486 0.250000
O O6 0.375930 0.403244 0.347474
O O7 0.384693 0.690304 0.323529
O O8 0.600646 0.238190 0.028646
O O9 0.703260 0.472954 0.035557
O O10 0.029744 0.327975 0.393234
O O11 0.900834 0.237657 0.492490
O O12 0.000000 0.500000 0.500000
O O13 0.000000 0.372344 0.250000
O O14 0.000000 0.000000 0.500000
#
# Coordination Sequence:
#
# PCOD9296292 Si02
#       6
#     8   8   8   8   8   8
#     4  12  25  46  70 110 141 189 244 298 369 440
#     4  11  24  46  72  99 147 194 240 296 364 439
#     4  11  23  43  73 105 138 188 240 295 363 437
#     4  11  22  47  72 101 142 189 237 302 361 429
#     4  11  26  47  69 102 148 185 235 301 365 433
#     4  10  23  44  71 102 138 183 239 292 358 430
#
# _framework density 22.789255000000001
#
# number of rings (size 3 to 8) (size 9 to 14) (size 15 to 20)
#    0.000    1.000    3.333    3.500    7.000    1.333 
#    9.000    0.000    0.000    0.000    0.000    0.000 
#    0.000    0.000    0.000    0.000    0.000    0.000 
#
# Total GULP energy -134120.657526 kJ/mol
# GULP energy per Si atom -5588.360730 kJ/mol
# Density = 2.273739 g / cm^3
# Si number density = 22.789255 Si / 1000 Ang^3
#
#
#
# Elastic Constant Matrix: (Units=GPa)
#
#
# Indices 1 2 3 4 5 6 
#
# 1 67.1596 38.3290 32.7991 0.0000 3.8202 0.0000
# 2 38.3290 153.4674 53.0768 0.0000 -8.0732 0.0000
# 3 32.7991 53.0768 167.3323 0.0000 17.7684 0.0000
# 4 0.0000 0.0000 0.0000 30.6851 0.0000 8.0984
# 5 3.8202 -8.0732 17.7684 0.0000 37.1806 0.0000
# 6 0.0000 0.0000 0.0000 8.0984 0.0000 25.7056
#
#
#
# Elastic Compliance Matrix: (Units=1/GPa)
#
#
# Indices 1 2 3 4 5 6 
#
# 1 0.018271 -0.003904 -0.002163 0.000000 -0.001691 0.000000
# 2 -0.003904 0.008450 -0.002268 0.000000 0.003320 0.000000
# 3 -0.002163 -0.002268 0.007530 0.000000 -0.003869 0.000000
# 4 0.000000 0.000000 0.000000 0.035545 0.000000 -0.011198
# 5 -0.001691 0.003320 -0.003869 0.000000 0.029639 0.000000
# 6 0.000000 0.000000 0.000000 -0.011198 0.000000 0.042430
#
#
# Mechanical properties :
#
#
# Convention : Reuss Voigt Hill
#
# Bulk Modulus (GPa) = 56.87915 70.70767 63.79341
# Shear Modulus (GPa) = 30.41465 36.29789 33.35627
#
# Velocity S-wave (km/s) = 3.65719 3.99527 3.82996
# Velocity P-wave (km/s) = 6.54571 7.23720 6.90012
#
# Compressibility (1/GPa) = 0.01758113
#
# Stress axis : x y z
#
# Youngs Moduli (GPa) = 54.73255 118.34451 132.79794
#
# Poissons Ratio (x) = 0.46201 0.28729
# Poissons Ratio (y) = 0.21367 0.30112
# Poissons Ratio (z) = 0.11841 0.26835
#
# Static dielectric constant tensor:
#      x y z
#    x 2.007900 0.000000 0.117570 
#    y 0.000000 1.881930 0.000000 
#    z 0.117570 0.000000 1.912250 
# 
# From -- ./inp_files/202979.got.cif
#   From: 2010.05.17/outbox.cif.g08.bks.cpg/sg15_102_cif.got.tgz:202979.got - 2010.06.03 18:47:42.
