data_PCOD9296501
_publ_section_title
;
Structure prediction by ZEFSAII (Michael W. Deem and Ramdas Pophale) SiO2 
 PCOD9296501
Probable space group: C 2/C
;
_chemical_formula_sum "Si O2"
_cell_formula_units_Z 60
_cell_length_a 22.703250
_cell_length_b 21.949811
_cell_length_c 12.104610
_cell_angle_alpha 90.000000
_cell_angle_beta 151.419166
_cell_angle_gamma 90.000000
_cell_volume 2885.752615
_symmetry_space_group_name_H-M "C 2/C"
_symmetry_group_IT_number 15
_symmetry_cell_setting 'monoclinic'
loop_
_space_group_symop_operation_xyz
x,y,z
-x,y,1/2-z
-x,-y,-z
x,-y,1/2+z
1/2+x,1/2+y,z
1/2-x,1/2+y,1/2-z
1/2-x,1/2-y,-z
1/2+x,1/2-y,1/2+z
loop_
_atom_site_type_symbol
_atom_site_label
_atom_site_fract_x
_atom_site_fract_y
_atom_site_fract_z
Si Si1 0.061630 0.142857 0.091717
Si Si2 0.734619 0.800629 0.726510
Si Si3 0.192248 0.634911 0.381192
Si Si4 0.919338 0.048390 0.720920
Si Si5 0.542772 0.068748 0.586046
Si Si6 0.673928 0.585858 0.483757
Si Si7 0.500000 0.126150 0.750000
Si Si8 0.325052 0.329192 0.314334
O O1 0.143757 0.172593 0.131163
O O2 0.145709 0.130814 0.336199
O O3 0.998858 0.078534 0.950615
O O4 0.947174 0.183904 0.942911
O O5 0.727985 0.815833 0.846425
O O6 0.616969 0.833684 0.478230
O O7 0.719076 0.728573 0.689224
O O8 0.285964 0.579507 0.508796
O O9 0.222132 0.653817 0.554953
O O10 0.053805 0.612884 0.134052
O O11 0.000000 0.069127 0.750000
O O12 0.892790 0.977348 0.657469
O O13 0.680510 0.075400 0.770268
O O14 0.536769 0.085904 0.705326
O O15 0.500000 0.000000 0.500000
O O16 0.638780 0.616518 0.542290
#
# Coordination Sequence:
#
# PCOD9296501 Si02
#       8
#     8   8   8   8   8   8   4   8
#     4  11  24  44  69 100 137 178 233 281 355 405
#     4  11  23  45  73  94 136 186 238 281 342 414
#     4  10  23  45  66 104 134 180 233 273 352 407
#     4  11  21  41  70  98 137 176 228 286 345 412
#     4  11  23  44  68  99 138 178 225 284 345 417
#     4  12  25  43  66 105 138 182 224 288 353 400
#     4  10  24  42  68  98 132 182 240 278 338 424
#     4  11  27  43  69 105 140 179 229 294 339 415
#
# _framework density 20.791803000000002
#
# number of rings (size 3 to 8) (size 9 to 14) (size 15 to 20)
#    0.000    1.067    4.000    2.000    1.867    5.333 
#    0.000    2.667    0.000    0.000    0.000    0.000 
#    0.000    0.000    0.000    0.000    0.000    0.000 
#
# Total GULP energy -167599.091173 kJ/mol
# GULP energy per Si atom -5586.636372 kJ/mol
# Density = 2.074448 g / cm^3
# Si number density = 20.791803 Si / 1000 Ang^3
#
#
#
# Elastic Constant Matrix: (Units=GPa)
#
#
# Indices 1 2 3 4 5 6 
#
# 1 85.8827 34.1308 38.1040 0.0000 7.1514 0.0000
# 2 34.1308 89.3974 26.6241 0.0000 -3.3697 0.0000
# 3 38.1040 26.6241 92.7276 0.0000 -1.8162 0.0000
# 4 0.0000 0.0000 0.0000 -0.7493 0.0000 -0.0954
# 5 7.1514 -3.3697 -1.8162 0.0000 42.1995 0.0000
# 6 0.0000 0.0000 0.0000 -0.0954 0.0000 26.5066
#
#
#
# Elastic Compliance Matrix: (Units=1/GPa)
#
#
# Indices 1 2 3 4 5 6 
#
# 1 0.016169 -0.004703 -0.005360 0.000000 -0.003346 0.000000
# 2 -0.004703 0.013629 -0.001945 0.000000 0.001802 0.000000
# 3 -0.005360 -0.001945 0.013571 0.000000 0.001337 0.000000
# 4 0.000000 0.000000 0.000000 -1.334019 0.000000 -0.004801
# 5 -0.003346 0.001802 0.001337 0.000000 0.024465 0.000000
# 6 0.000000 0.000000 0.000000 -0.004801 0.000000 0.037709
#
#
# Mechanical properties :
#
#
# Convention : Reuss Voigt Hill
#
# Bulk Modulus (GPa) = 51.66974 51.74727 51.70850
# Shear Modulus (GPa) = -4.17360 24.86796 10.34718
#
# Velocity S-wave (km/s) = -1.41834 3.46214 2.23324
# Velocity P-wave (km/s) = 4.71410 6.39721 5.61903
#
# Compressibility (1/GPa) = 0.01935369
#
# Stress axis : x y z
#
# Youngs Moduli (GPa) = 61.84495 73.37363 73.68478
#
# Poissons Ratio (x) = 0.34510 0.39492
# Poissons Ratio (y) = 0.29087 0.14333
# Poissons Ratio (z) = 0.33146 0.14272
#
# Static dielectric constant tensor:
#      x y z
#    x 1.742300 0.000000 -0.001260 
#    y 0.000000 1.747020 0.000000 
#    z -0.001260 0.000000 1.735060 
# 
# From -- ./inp_files/119984.got.cif
#   From: 2010.05.17/outbox.cif.g08.bks.cpg/sg15_60_cif.got.tgz:119984.got - 2010.06.03 18:47:42.
