data_PCOD9296926
_publ_section_title
;
Structure prediction by ZEFSAII (Michael W. Deem and Ramdas Pophale) SiO2 
 PCOD9296926
Probable space group: C 2/C
;
_chemical_formula_sum "Si O2"
_cell_formula_units_Z 44
_cell_length_a 8.903300
_cell_length_b 27.459527
_cell_length_c 7.496462
_cell_angle_alpha 90.000000
_cell_angle_beta 72.639976
_cell_angle_gamma 90.000000
_cell_volume 1749.254552
_symmetry_space_group_name_H-M "C 2/C"
_symmetry_group_IT_number 15
_symmetry_cell_setting 'monoclinic'
loop_
_space_group_symop_operation_xyz
x,y,z
-x,y,1/2-z
-x,-y,-z
x,-y,1/2+z
1/2+x,1/2+y,z
1/2-x,1/2+y,1/2-z
1/2-x,1/2-y,-z
1/2+x,1/2-y,1/2+z
loop_
_atom_site_type_symbol
_atom_site_label
_atom_site_fract_x
_atom_site_fract_y
_atom_site_fract_z
Si Si1 0.500000 0.896004 0.250000
Si Si2 0.715950 0.452197 0.544557
Si Si3 0.753219 0.846850 0.376192
Si Si4 0.862413 0.806337 0.704985
Si Si5 0.098708 0.755904 0.384286
Si Si6 0.635252 0.560211 0.477405
O O1 0.363886 0.928341 0.391525
O O2 0.583704 0.861352 0.364423
O O3 0.706932 0.510945 0.537326
O O4 0.549281 0.440725 0.507769
O O5 0.714875 0.435178 0.752095
O O6 0.771133 0.825755 0.567767
O O7 0.834013 0.808219 0.212625
O O8 0.836140 0.898113 0.388648
O O9 0.732453 0.783432 0.877061
O O10 0.000000 0.838031 0.750000
O O11 0.970848 0.764352 0.580462
O O12 0.000000 0.737641 0.250000
#
# Coordination Sequence:
#
# PCOD9296926 Si02
#       6
#     4   8   8   8   8   8
#     4  12  28  44  70 102 152 184 240 290 352 408
#     4  10  24  45  71 103 140 193 229 296 347 421
#     4  11  26  43  69 104 142 184 233 294 341 426
#     4  11  25  47  75 104 137 185 232 296 356 424
#     4  10  23  47  70 100 142 183 230 289 358 421
#     4  10  23  46  72  99 140 188 244 277 355 419
#
# _framework density 25.153570999999999
#
# number of rings (size 3 to 8) (size 9 to 14) (size 15 to 20)
#    0.000    1.455    0.000    3.818   11.455    5.091 
#   13.091    0.000    0.000    0.000    0.000    0.000 
#    0.000    0.000    0.000    0.000    0.000    0.000 
#
# Total GULP energy -123025.789078 kJ/mol
# GULP energy per Si atom -5592.081322 kJ/mol
# Density = 2.509632 g / cm^3
# Si number density = 25.153571 Si / 1000 Ang^3
#
#
#
# Elastic Constant Matrix: (Units=GPa)
#
#
# Indices 1 2 3 4 5 6 
#
# 1 154.3627 67.0834 44.0700 0.0000 2.5133 0.0000
# 2 67.0834 97.2016 42.9489 0.0000 2.3476 0.0000
# 3 44.0700 42.9489 140.2442 0.0000 1.9305 0.0000
# 4 0.0000 0.0000 0.0000 17.7011 0.0000 10.0910
# 5 2.5133 2.3476 1.9305 0.0000 49.3651 0.0000
# 6 0.0000 0.0000 0.0000 10.0910 0.0000 35.5304
#
#
#
# Elastic Compliance Matrix: (Units=1/GPa)
#
#
# Indices 1 2 3 4 5 6 
#
# 1 0.009404 -0.005993 -0.001118 0.000000 -0.000150 0.000000
# 2 -0.005993 0.015725 -0.002928 0.000000 -0.000328 0.000000
# 3 -0.001118 -0.002928 0.008380 0.000000 -0.000132 0.000000
# 4 0.000000 0.000000 0.000000 0.067408 0.000000 -0.019144
# 5 -0.000150 -0.000328 -0.000132 0.000000 0.020286 0.000000
# 6 0.000000 0.000000 0.000000 -0.019144 0.000000 0.033582
#
#
# Mechanical properties :
#
#
# Convention : Reuss Voigt Hill
#
# Bulk Modulus (GPa) = 74.44670 77.77924 76.11297
# Shear Modulus (GPa) = 27.87998 36.36640 32.12319
#
# Velocity S-wave (km/s) = 3.33286 3.80646 3.57751
# Velocity P-wave (km/s) = 6.66871 7.09279 6.88402
#
# Compressibility (1/GPa) = 0.01343243
#
# Stress axis : x y z
#
# Youngs Moduli (GPa) = 106.33593 63.59099 119.32831
#
# Poissons Ratio (x) = 0.38108 0.13339
# Poissons Ratio (y) = 0.63724 0.34942
# Poissons Ratio (z) = 0.11887 0.18621
#
# Static dielectric constant tensor:
#      x y z
#    x 2.061150 0.000000 0.082290 
#    y 0.000000 2.077470 0.000000 
#    z 0.082290 0.000000 2.080900 
# 
# From -- ./inp_files/25447.got.cif
#   From: 2010.05.17/outbox.cif.g08.bks.cpg/sg15_13_cif.got.tgz:25447.got - 2010.06.03 18:47:42.
