data_PCOD9296398
_publ_section_title
;
Structure prediction by ZEFSAII (Michael W. Deem and Ramdas Pophale) SiO2 
 PCOD9296398
Probable space group: C 2/C
;
_chemical_formula_sum "Si O2"
_cell_formula_units_Z 48
_cell_length_a 11.056096
_cell_length_b 10.836152
_cell_length_c 23.774261
_cell_angle_alpha 90.000000
_cell_angle_beta 43.483836
_cell_angle_gamma 90.000000
_cell_volume 1960.049198
_symmetry_space_group_name_H-M "C 2/C"
_symmetry_group_IT_number 15
_symmetry_cell_setting 'monoclinic'
loop_
_space_group_symop_operation_xyz
x,y,z
-x,y,1/2-z
-x,-y,-z
x,-y,1/2+z
1/2+x,1/2+y,z
1/2-x,1/2+y,1/2-z
1/2-x,1/2-y,-z
1/2+x,1/2-y,1/2+z
loop_
_atom_site_type_symbol
_atom_site_label
_atom_site_fract_x
_atom_site_fract_y
_atom_site_fract_z
Si Si1 0.699723 0.362205 0.159932
Si Si2 0.603606 0.556673 0.046951
Si Si3 0.601156 0.695196 0.485139
Si Si4 0.949984 0.173272 0.205626
Si Si5 0.119011 0.610872 0.370626
Si Si6 0.464622 0.881772 0.387163
O O1 0.500000 0.359024 0.250000
O O2 0.733390 0.269496 0.096853
O O3 0.784626 0.501107 0.124741
O O4 0.853889 0.320678 0.151926
O O5 0.502260 0.627062 0.030829
O O6 0.498403 0.578765 0.139828
O O7 0.628043 0.415062 0.020585
O O8 0.797763 0.617197 0.984087
O O9 0.485720 0.800760 0.553358
O O10 0.744730 0.187163 0.287245
O O11 0.000000 0.125538 0.250000
O O12 0.063829 0.296899 0.156942
O O13 0.006627 0.524597 0.366294
#
# Coordination Sequence:
#
# PCOD9296398 Si02
#       6
#     8   8   8   8   8   8
#     4  10  23  44  73 108 148 192 247 308 367 443
#     4  11  25  47  72 115 144 194 247 307 378 440
#     4  11  24  47  81 104 155 189 243 316 376 442
#     4  12  25  43  74 103 149 199 250 303 359 457
#     4  10  25  42  73 107 142 195 237 304 367 441
#     4  10  25  46  70 106 145 190 255 298 363 447
#
# _framework density 24.489180000000001
#
# number of rings (size 3 to 8) (size 9 to 14) (size 15 to 20)
#    1.000    0.333    1.667    2.500    4.667    3.333 
#    0.000    0.000    0.000    1.000    0.000    0.000 
#    0.000    0.000    0.000    0.000    0.000    0.000 
#
# Total GULP energy -133743.870385 kJ/mol
# GULP energy per Si atom -5572.661266 kJ/mol
# Density = 2.443344 g / cm^3
# Si number density = 24.489180 Si / 1000 Ang^3
#
#
#
# Elastic Constant Matrix: (Units=GPa)
#
#
# Indices 1 2 3 4 5 6 
#
# 1 58.0652 20.5455 43.6414 0.0000 -2.8562 0.0000
# 2 20.5455 181.3359 93.4795 0.0000 4.2112 0.0000
# 3 43.6414 93.4795 207.8268 0.0000 -6.1884 0.0000
# 4 0.0000 0.0000 0.0000 34.1711 0.0000 -9.3598
# 5 -2.8562 4.2112 -6.1884 0.0000 39.9403 0.0000
# 6 0.0000 0.0000 0.0000 -9.3598 0.0000 10.5155
#
#
#
# Elastic Compliance Matrix: (Units=1/GPa)
#
#
# Indices 1 2 3 4 5 6 
#
# 1 0.020479 -0.000176 -0.004196 0.000000 0.000833 0.000000
# 2 -0.000176 0.007245 -0.003260 0.000000 -0.001282 0.000000
# 3 -0.004196 -0.003260 0.007194 0.000000 0.001158 0.000000
# 4 0.000000 0.000000 0.000000 0.038700 0.000000 0.034447
# 5 0.000833 -0.001282 0.001158 0.000000 0.025412 0.000000
# 6 0.000000 0.000000 0.000000 0.034447 0.000000 0.125759
#
#
# Mechanical properties :
#
#
# Convention : Reuss Voigt Hill
#
# Bulk Modulus (GPa) = 50.88362 84.72898 67.80630
# Shear Modulus (GPa) = 20.27545 36.22945 28.25245
#
# Velocity S-wave (km/s) = 2.88051 3.85048 3.40026
# Velocity P-wave (km/s) = 5.64679 7.37847 6.56994
#
# Compressibility (1/GPa) = 0.01965269
#
# Stress axis : x y z
#
# Youngs Moduli (GPa) = 48.82972 138.02959 139.01256
#
# Poissons Ratio (x) = 0.02436 0.58333
# Poissons Ratio (y) = 0.00862 0.45315
# Poissons Ratio (z) = 0.20490 0.44995
#
# Static dielectric constant tensor:
#      x y z
#    x 2.368420 0.000000 -0.060070 
#    y 0.000000 1.954690 0.000000 
#    z -0.060070 0.000000 2.025960 
# 
# From -- ./inp_files/268678.got.cif
#   From: 2010.05.17/outbox.cif.g08.bks.cpg/sg15_135_cif.got.tgz:268678.got - 2010.06.03 18:47:42.
