data_PCOD9296911
_publ_section_title
;
Structure prediction by ZEFSAII (Michael W. Deem and Ramdas Pophale) SiO2 
 PCOD9296911
Probable space group: C 2/C
;
_chemical_formula_sum "Si O2"
_cell_formula_units_Z 48
_cell_length_a 8.896687
_cell_length_b 14.405246
_cell_length_c 29.363432
_cell_angle_alpha 90.000000
_cell_angle_beta 143.991458
_cell_angle_gamma 90.000000
_cell_volume 2212.399714
_symmetry_space_group_name_H-M "C 2/C"
_symmetry_group_IT_number 15
_symmetry_cell_setting 'monoclinic'
loop_
_space_group_symop_operation_xyz
x,y,z
-x,y,1/2-z
-x,-y,-z
x,-y,1/2+z
1/2+x,1/2+y,z
1/2-x,1/2+y,1/2-z
1/2-x,1/2-y,-z
1/2+x,1/2-y,1/2+z
loop_
_atom_site_type_symbol
_atom_site_label
_atom_site_fract_x
_atom_site_fract_y
_atom_site_fract_z
Si Si1 0.974314 0.618494 0.295970
Si Si2 0.965656 0.268827 0.295276
Si Si3 0.805986 0.553248 0.817032
Si Si4 0.005721 0.252818 0.970693
Si Si5 0.458026 0.080081 0.524864
Si Si6 0.473216 0.671254 0.045999
O O1 0.739618 0.688416 0.245937
O O2 0.927907 0.535016 0.320394
O O3 0.000000 0.584548 0.250000
O O4 0.235204 0.677261 0.367875
O O5 0.874156 0.357046 0.302695
O O6 0.000000 0.289876 0.250000
O O7 0.240848 0.232372 0.380331
O O8 0.500000 0.542637 0.750000
O O9 0.919920 0.566975 0.895696
O O10 0.250000 0.250000 0.000000
O O11 0.058827 0.330010 0.022236
O O12 0.974485 0.159065 0.992213
O O13 0.154194 0.087975 0.458235
O O14 0.500000 0.000000 0.500000
O O15 0.250000 0.750000 0.000000
#
# Coordination Sequence:
#
# PCOD9296911 Si02
#       6
#     8   8   8   8   8   8
#     4  12  27  47  77 106 150 198 248 308 375 446
#     4  12  27  49  76 106 151 196 247 312 375 448
#     4  12  30  47  72 111 152 197 253 305 376 444
#     4  11  25  45  74 105 138 193 251 296 371 439
#     4  11  27  46  72 102 149 186 241 313 365 439
#     4  10  23  46  72 103 138 190 249 296 368 436
#
# _framework density 21.695899000000001
#
# number of rings (size 3 to 8) (size 9 to 14) (size 15 to 20)
#    0.000    0.667    1.667    4.500   18.667    2.000 
#    0.000    0.000    0.000    0.000    0.000    0.000 
#    0.000    0.000    0.000    0.000    0.000    0.000 
#
# Total GULP energy -133938.309587 kJ/mol
# GULP energy per Si atom -5580.762899 kJ/mol
# Density = 2.164652 g / cm^3
# Si number density = 21.695899 Si / 1000 Ang^3
#
#
#
# Elastic Constant Matrix: (Units=GPa)
#
#
# Indices 1 2 3 4 5 6 
#
# 1 227.7332 75.0815 89.1925 0.0000 -2.7961 0.0000
# 2 75.0815 104.0088 40.3750 0.0000 -4.8573 0.0000
# 3 89.1925 40.3750 160.8289 0.0001 10.4486 -0.0001
# 4 0.0000 0.0000 0.0001 19.9246 0.0000 -8.8126
# 5 -2.7961 -4.8573 10.4486 0.0000 58.1809 0.0000
# 6 0.0000 0.0000 -0.0001 -8.8126 0.0000 13.9234
#
#
#
# Elastic Compliance Matrix: (Units=1/GPa)
#
#
# Indices 1 2 3 4 5 6 
#
# 1 0.006741 -0.003742 -0.002833 0.000000 0.000520 0.000000
# 2 -0.003742 0.012842 -0.001221 0.000000 0.001111 0.000000
# 3 -0.002833 -0.001221 0.008206 0.000000 -0.001712 0.000000
# 4 0.000000 0.000000 0.000000 0.069702 0.000000 0.044117
# 5 0.000520 0.001111 -0.001712 0.000000 0.017613 0.000000
# 6 0.000000 0.000000 0.000000 0.044117 0.000000 0.099745
#
#
# Mechanical properties :
#
#
# Convention : Reuss Voigt Hill
#
# Bulk Modulus (GPa) = 81.98168 100.20769 91.09468
# Shear Modulus (GPa) = 21.32145 37.60056 29.46101
#
# Velocity S-wave (km/s) = 3.13827 4.16753 3.68898
# Velocity P-wave (km/s) = 7.14146 8.33339 7.76034
#
# Compressibility (1/GPa) = 0.01219785
#
# Stress axis : x y z
#
# Youngs Moduli (GPa) = 148.35505 77.87175 121.85660
#
# Poissons Ratio (x) = 0.29140 0.34517
# Poissons Ratio (y) = 0.55514 0.14876
# Poissons Ratio (z) = 0.42023 0.09506
#
# Static dielectric constant tensor:
#      x y z
#    x 1.885110 0.000000 -0.164390 
#    y 0.000000 2.636860 0.000000 
#    z -0.164390 0.000000 1.788160 
# 
# From -- ./inp_files/308846.got.cif
#   From: 2010.05.17/outbox.cif.g08.bks.cpg/sg15_155_cif.got.tgz:308846.got - 2010.06.03 18:47:42.
