data_PCOD9296384
_publ_section_title
;
Structure prediction by ZEFSAII (Michael W. Deem and Ramdas Pophale) SiO2 
 PCOD9296384
Probable space group: C 2/C
;
_chemical_formula_sum "Si O2"
_cell_formula_units_Z 52
_cell_length_a 8.712445
_cell_length_b 10.631183
_cell_length_c 29.403996
_cell_angle_alpha 90.000000
_cell_angle_beta 121.057472
_cell_angle_gamma 90.000000
_cell_volume 2333.090273
_symmetry_space_group_name_H-M "C 2/C"
_symmetry_group_IT_number 15
_symmetry_cell_setting 'monoclinic'
loop_
_space_group_symop_operation_xyz
x,y,z
-x,y,1/2-z
-x,-y,-z
x,-y,1/2+z
1/2+x,1/2+y,z
1/2-x,1/2+y,1/2-z
1/2-x,1/2-y,-z
1/2+x,1/2-y,1/2+z
loop_
_atom_site_type_symbol
_atom_site_label
_atom_site_fract_x
_atom_site_fract_y
_atom_site_fract_z
Si Si1 0.059698 0.172270 0.047947
Si Si2 0.851438 0.830982 0.757467
Si Si3 0.500000 0.942679 0.750000
Si Si4 0.553158 0.588109 0.369619
Si Si5 0.591743 0.054734 0.559636
Si Si6 0.743120 0.595256 0.564356
Si Si7 0.257159 0.379569 0.332434
O O1 0.986424 0.144033 0.087050
O O2 0.163474 0.304098 0.059977
O O3 0.889967 0.171967 0.988524
O O4 0.174932 0.049225 0.054362
O O5 0.664881 0.876118 0.750274
O O6 0.789767 0.722709 0.713123
O O7 0.000000 0.909227 0.750000
O O8 0.973966 0.813670 0.821008
O O9 0.408971 0.025023 0.696861
O O10 0.755956 0.539048 0.399078
O O11 0.430690 0.462288 0.345338
O O12 0.439299 0.083376 0.573358
O O13 0.500000 0.000000 0.500000
O O14 0.723586 0.652130 0.611714
#
# Coordination Sequence:
#
# PCOD9296384 Si02
#       7
#     8   8   4   8   8   8   8
#     4  10  23  47  67 102 148 189 235 301 355 441
#     4  11  25  46  74 101 140 192 246 302 363 435
#     4  10  24  48  64 100 144 178 246 304 360 436
#     4  10  25  47  68 106 143 186 247 295 371 441
#     4  12  25  42  71 110 145 190 243 293 366 448
#     4  10  23  44  73 100 147 193 233 302 371 424
#     4  10  23  47  69 100 141 186 242 301 363 437
#
# _framework density 22.288036999999999
#
# number of rings (size 3 to 8) (size 9 to 14) (size 15 to 20)
#    0.000    1.538    2.308    0.462    4.308    4.308 
#    8.308    0.000    0.000    0.000    0.000    0.000 
#    0.000    0.000    0.000    0.000    0.000    0.000 
#
# Total GULP energy -145053.770717 kJ/mol
# GULP energy per Si atom -5578.991181 kJ/mol
# Density = 2.223731 g / cm^3
# Si number density = 22.288037 Si / 1000 Ang^3
#
#
#
# Elastic Constant Matrix: (Units=GPa)
#
#
# Indices 1 2 3 4 5 6 
#
# 1 100.6128 31.0061 35.5787 0.0000 11.8354 0.0000
# 2 31.0061 101.1598 47.0290 0.0000 3.6525 0.0000
# 3 35.5787 47.0290 167.6755 0.0000 1.2814 0.0000
# 4 0.0000 0.0000 0.0000 39.0028 0.0000 4.2650
# 5 11.8354 3.6525 1.2814 0.0000 38.3882 0.0000
# 6 0.0000 0.0000 0.0000 4.2650 0.0000 16.9621
#
#
#
# Elastic Compliance Matrix: (Units=1/GPa)
#
#
# Indices 1 2 3 4 5 6 
#
# 1 0.011764 -0.002688 -0.001717 0.000000 -0.003314 0.000000
# 2 -0.002688 0.012018 -0.002799 0.000000 -0.000221 0.000000
# 3 -0.001717 -0.002799 0.007109 0.000000 0.000558 0.000000
# 4 0.000000 0.000000 0.000000 0.026364 0.000000 -0.006629
# 5 -0.003314 -0.000221 0.000558 0.000000 0.027074 0.000000
# 6 0.000000 0.000000 0.000000 -0.006629 0.000000 0.060622
#
#
# Mechanical properties :
#
#
# Convention : Reuss Voigt Hill
#
# Bulk Modulus (GPa) = 60.66432 66.29729 63.48080
# Shear Modulus (GPa) = 30.32989 35.92626 33.12808
#
# Velocity S-wave (km/s) = 3.69292 4.01921 3.85952
# Velocity P-wave (km/s) = 6.74248 7.16582 6.95737
#
# Compressibility (1/GPa) = 0.01648415
#
# Stress axis : x y z
#
# Youngs Moduli (GPa) = 85.00172 83.20578 140.66733
#
# Poissons Ratio (x) = 0.22366 0.24153
# Poissons Ratio (y) = 0.22848 0.39370
# Poissons Ratio (z) = 0.14595 0.23288
#
# Static dielectric constant tensor:
#      x y z
#    x 1.834180 0.000000 0.011810 
#    y 0.000000 1.907530 0.000000 
#    z 0.011810 0.000000 1.847770 
# 
# From -- ./inp_files/307289.got.cif
#   From: 2010.05.17/outbox.cif.g08.bks.cpg/sg15_154_cif.got.tgz:307289.got - 2010.06.03 18:47:42.
