data_PCOD9296663
_publ_section_title
;
Structure prediction by ZEFSAII (Michael W. Deem and Ramdas Pophale) SiO2 
 PCOD9296663
Probable space group: C 2/C
;
_chemical_formula_sum "Si O2"
_cell_formula_units_Z 36
_cell_length_a 9.550882
_cell_length_b 17.381874
_cell_length_c 8.704303
_cell_angle_alpha 90.000000
_cell_angle_beta 61.669192
_cell_angle_gamma 90.000000
_cell_volume 1271.939483
_symmetry_space_group_name_H-M "C 2/C"
_symmetry_group_IT_number 15
_symmetry_cell_setting 'monoclinic'
loop_
_space_group_symop_operation_xyz
x,y,z
-x,y,1/2-z
-x,-y,-z
x,-y,1/2+z
1/2+x,1/2+y,z
1/2-x,1/2+y,1/2-z
1/2-x,1/2-y,-z
1/2+x,1/2-y,1/2+z
loop_
_atom_site_type_symbol
_atom_site_label
_atom_site_fract_x
_atom_site_fract_y
_atom_site_fract_z
Si Si1 0.766159 0.651474 0.626918
Si Si2 0.692071 0.398656 0.750337
Si Si3 0.000000 0.661822 0.750000
Si Si4 0.101272 0.193958 0.011008
Si Si5 0.500000 0.149578 0.250000
Si Si6 0.500000 0.534374 0.750000
O O1 0.892945 0.616979 0.685040
O O2 0.618945 0.812848 0.562049
O O3 0.644532 0.589274 0.621948
O O4 0.660080 0.698915 0.805276
O O5 0.583449 0.332274 0.883310
O O6 0.677670 0.374101 0.577217
O O7 0.870155 0.397864 0.718783
O O8 0.597246 0.478243 0.812231
O O9 0.898512 0.724415 0.902425
#
# Coordination Sequence:
#
# PCOD9296663 Si02
#       6
#     8   8   4   8   4   4
#     4  12  24  42  68  99 137 177 227 276 338 401
#     4   9  22  45  71  98 135 175 231 280 339 406
#     4  10  23  45  72 100 129 177 234 282 330 404
#     4   9  21  47  72  92 131 188 223 269 347 415
#     4  12  26  39  61 108 143 173 224 284 330 398
#     4  10  25  46  71  98 136 188 224 278 346 400
#
# _framework density 28.303232000000001
#
# number of rings (size 3 to 8) (size 9 to 14) (size 15 to 20)
#    0.000    2.222    0.000    3.333    0.000   11.556 
#    0.000   21.111    0.000    0.000    0.000    0.000 
#    0.000    0.000    0.000    0.000    0.000    0.000 
#
# Total GULP energy -100536.560286 kJ/mol
# GULP energy per Si atom -5585.364460 kJ/mol
# Density = 2.823881 g / cm^3
# Si number density = 28.303232 Si / 1000 Ang^3
#
#
#
# Elastic Constant Matrix: (Units=GPa)
#
#
# Indices 1 2 3 4 5 6 
#
# 1 227.9160 46.8981 43.8679 0.0000 16.6461 0.0000
# 2 46.8981 79.6113 60.2242 0.0000 1.4344 0.0000
# 3 43.8679 60.2242 260.8015 0.0000 -39.9686 0.0000
# 4 0.0000 0.0000 0.0000 26.6349 0.0000 -3.8177
# 5 16.6461 1.4344 -39.9686 0.0000 57.0079 0.0000
# 6 0.0000 0.0000 0.0000 -3.8177 0.0000 55.5962
#
#
#
# Elastic Compliance Matrix: (Units=1/GPa)
#
#
# Indices 1 2 3 4 5 6 
#
# 1 0.005160 -0.002591 -0.000550 0.000000 -0.001827 0.000000
# 2 -0.002591 0.017057 -0.003868 0.000000 -0.002385 0.000000
# 3 -0.000550 -0.003868 0.005445 0.000000 0.004075 0.000000
# 4 0.000000 0.000000 0.000000 0.037918 0.000000 0.002604
# 5 -0.001827 -0.002385 0.004075 0.000000 0.020992 0.000000
# 6 0.000000 0.000000 0.000000 0.002604 0.000000 0.018166
#
#
# Mechanical properties :
#
#
# Convention : Reuss Voigt Hill
#
# Bulk Modulus (GPa) = 73.29616 96.70100 84.99858
# Shear Modulus (GPa) = 40.55075 55.67038 48.11056
#
# Velocity S-wave (km/s) = 3.78924 4.43982 4.12737
# Velocity P-wave (km/s) = 6.71546 7.77964 7.26706
#
# Compressibility (1/GPa) = 0.01364328
#
# Stress axis : x y z
#
# Youngs Moduli (GPa) = 193.80111 58.62807 183.66934
#
# Poissons Ratio (x) = 0.15191 0.10094
# Poissons Ratio (y) = 0.50214 0.71050
# Poissons Ratio (z) = 0.10651 0.22680
#
# Static dielectric constant tensor:
#      x y z
#    x 2.431410 0.000000 -0.026290 
#    y 0.000000 2.136120 0.000000 
#    z -0.026290 0.000000 2.318630 
# 
# From -- ./inp_files/76411.got.cif
#   From: 2010.05.17/outbox.cif.g08.bks.cpg/sg15_39_cif.got.tgz:76411.got - 2010.06.03 18:47:42.
