data_PCOD9296676
_publ_section_title
;
Structure prediction by ZEFSAII (Michael W. Deem and Ramdas Pophale) SiO2 
 PCOD9296676
Probable space group: C 2/C
;
_chemical_formula_sum "Si O2"
_cell_formula_units_Z 36
_cell_length_a 21.381813
_cell_length_b 7.904734
_cell_length_c 9.852778
_cell_angle_alpha 90.000000
_cell_angle_beta 63.202342
_cell_angle_gamma 90.000000
_cell_volume 1486.447017
_symmetry_space_group_name_H-M "C 2/C"
_symmetry_group_IT_number 15
_symmetry_cell_setting 'monoclinic'
loop_
_space_group_symop_operation_xyz
x,y,z
-x,y,1/2-z
-x,-y,-z
x,-y,1/2+z
1/2+x,1/2+y,z
1/2-x,1/2+y,1/2-z
1/2-x,1/2-y,-z
1/2+x,1/2-y,1/2+z
loop_
_atom_site_type_symbol
_atom_site_label
_atom_site_fract_x
_atom_site_fract_y
_atom_site_fract_z
Si Si1 0.371767 0.500409 0.231842
Si Si2 0.619534 0.814254 0.467619
Si Si3 0.264491 0.985577 0.972488
Si Si4 0.000000 0.869457 0.250000
Si Si5 0.166299 0.644847 0.361907
O O1 0.363896 0.675251 0.160797
O O2 0.316148 0.491353 0.408321
O O3 0.451266 0.483656 0.203193
O O4 0.355234 0.330334 0.161998
O O5 0.689297 0.844091 0.490896
O O6 0.555070 0.745768 0.616331
O O7 0.605033 0.003982 0.427170
O O8 0.299513 0.142260 0.022180
O O9 0.282617 0.947978 0.798767
#
# Coordination Sequence:
#
# PCOD9296676 Si02
#       5
#     8   8   8   4   8
#     4  12  23  44  69  97 139 176 223 278 335 401
#     4  10  26  44  67 104 131 178 231 271 337 404
#     4  10  23  45  73 101 133 171 231 284 331 386
#     4  12  26  44  66  98 148 176 218 280 338 402
#     4  10  23  45  72 103 129 179 221 290 332 382
#
# _framework density 24.218824999999999
#
# number of rings (size 3 to 8) (size 9 to 14) (size 15 to 20)
#    1.333    0.000    2.222    2.667    3.111    3.556 
#    0.000    2.222    0.000    0.000    0.000    0.000 
#    0.000    0.000    0.000    0.000    0.000    0.000 
#
# Total GULP energy -100605.998514 kJ/mol
# GULP energy per Si atom -5589.222140 kJ/mol
# Density = 2.416370 g / cm^3
# Si number density = 24.218825 Si / 1000 Ang^3
#
#
#
# Elastic Constant Matrix: (Units=GPa)
#
#
# Indices 1 2 3 4 5 6 
#
# 1 117.2573 44.8322 22.3727 0.0000 -18.1173 0.0000
# 2 44.8322 124.6924 11.6931 0.0000 19.8228 0.0000
# 3 22.3727 11.6931 83.2535 0.0000 -13.6731 0.0000
# 4 0.0000 0.0000 0.0000 38.2690 0.0000 12.1936
# 5 -18.1173 19.8228 -13.6731 0.0000 30.4990 0.0000
# 6 0.0000 0.0000 0.0000 12.1936 0.0000 36.0420
#
#
#
# Elastic Compliance Matrix: (Units=1/GPa)
#
#
# Indices 1 2 3 4 5 6 
#
# 1 0.012881 -0.006398 -0.000673 0.000000 0.011508 0.000000
# 2 -0.006398 0.012583 -0.002176 0.000000 -0.012954 0.000000
# 3 -0.000673 -0.002176 0.013671 0.000000 0.007143 0.000000
# 4 0.000000 0.000000 0.000000 0.029288 0.000000 -0.009909
# 5 0.011508 -0.012954 0.007143 0.000000 0.051246 0.000000
# 6 0.000000 0.000000 0.000000 -0.009909 0.000000 0.031098
#
#
# Mechanical properties :
#
#
# Convention : Reuss Voigt Hill
#
# Bulk Modulus (GPa) = 48.44271 53.66661 51.05466
# Shear Modulus (GPa) = 28.38652 37.38236 32.88444
#
# Velocity S-wave (km/s) = 3.42729 3.93303 3.68884
# Velocity P-wave (km/s) = 5.97555 6.54463 6.26655
#
# Compressibility (1/GPa) = 0.02064294
#
# Stress axis : x y z
#
# Youngs Moduli (GPa) = 77.63510 79.47020 73.14711
#
# Poissons Ratio (x) = 0.50841 0.04922
# Poissons Ratio (y) = 0.49667 0.15914
# Poissons Ratio (z) = 0.05224 0.17290
#
# Static dielectric constant tensor:
#      x y z
#    x 1.964160 0.000000 0.066110 
#    y 0.000000 2.042450 0.000000 
#    z 0.066110 0.000000 1.932710 
# 
# From -- ./inp_files/109377.got.cif
#   From: 2010.05.17/outbox.cif.g08.bks.cpg/sg15_55_cif.got.tgz:109377.got - 2010.06.03 18:47:42.
