data_PCOD9296166
_publ_section_title
;
Structure prediction by ZEFSAII (Michael W. Deem and Ramdas Pophale) SiO2 
 PCOD9296166
Probable space group: C 2/C
;
_chemical_formula_sum "Si O2"
_cell_formula_units_Z 36
_cell_length_a 12.471773
_cell_length_b 10.155837
_cell_length_c 13.775972
_cell_angle_alpha 90.000000
_cell_angle_beta 114.813977
_cell_angle_gamma 90.000000
_cell_volume 1583.786389
_symmetry_space_group_name_H-M "C 2/C"
_symmetry_group_IT_number 15
_symmetry_cell_setting 'monoclinic'
loop_
_space_group_symop_operation_xyz
x,y,z
-x,y,1/2-z
-x,-y,-z
x,-y,1/2+z
1/2+x,1/2+y,z
1/2-x,1/2+y,1/2-z
1/2-x,1/2-y,-z
1/2+x,1/2-y,1/2+z
loop_
_atom_site_type_symbol
_atom_site_label
_atom_site_fract_x
_atom_site_fract_y
_atom_site_fract_z
Si Si1 0.498505 0.801246 0.929085
Si Si2 0.140153 0.559107 0.659306
Si Si3 0.500000 0.782987 0.250000
Si Si4 0.860889 0.847565 0.526248
Si Si5 0.880461 0.097652 0.647764
O O1 0.589254 0.739747 0.886807
O O2 0.406006 0.909191 0.855092
O O3 0.568880 0.872003 0.043273
O O4 0.422644 0.683127 0.947899
O O5 0.102842 0.626731 0.745055
O O6 0.275034 0.582560 0.683977
O O7 0.549130 0.698708 0.356187
O O8 0.750000 0.750000 0.500000
O O9 0.842108 0.999448 0.545529
O O10 0.000000 0.061798 0.750000
#
# Coordination Sequence:
#
# PCOD9296166 Si02
#       5
#     8   8   4   8   8
#     4  10  23  44  68  97 130 185 229 285 349 411
#     4  10  23  45  67  97 140 174 234 283 347 419
#     4  10  24  44  66  92 132 188 216 282 360 406
#     4  11  22  44  67  91 139 180 223 282 353 411
#     4  12  25  41  68 106 137 174 236 288 342 424
#
# _framework density 22.730338
#
# number of rings (size 3 to 8) (size 9 to 14) (size 15 to 20)
#    0.000    1.333    3.333    1.333    4.667    0.000 
#    0.000    0.000    0.000    0.000    0.000    0.000 
#    0.000    0.000    0.000    0.000    0.000    0.000 
#
# Total GULP energy -100606.341462 kJ/mol
# GULP energy per Si atom -5589.241192 kJ/mol
# Density = 2.267860 g / cm^3
# Si number density = 22.730338 Si / 1000 Ang^3
#
#
#
# Elastic Constant Matrix: (Units=GPa)
#
#
# Indices 1 2 3 4 5 6 
#
# 1 148.4896 45.8087 -6.2893 0.0000 -6.1280 0.0000
# 2 45.8087 96.1583 19.9035 0.0000 -25.0379 0.0000
# 3 -6.2893 19.9035 29.1205 0.0000 0.5973 0.0000
# 4 0.0000 0.0000 0.0000 21.4899 0.0000 -2.6841
# 5 -6.1280 -25.0379 0.5973 0.0000 20.5585 0.0000
# 6 0.0000 0.0000 0.0000 -2.6841 0.0000 37.7366
#
#
#
# Elastic Compliance Matrix: (Units=1/GPa)
#
#
# Indices 1 2 3 4 5 6 
#
# 1 0.009116 -0.007623 0.007318 0.000000 -0.006779 0.000000
# 2 -0.007623 0.025966 -0.020008 0.000000 0.029933 0.000000
# 3 0.007318 -0.020008 0.050081 0.000000 -0.023641 0.000000
# 4 0.000000 0.000000 0.000000 0.046951 0.000000 0.003339
# 5 -0.006779 0.029933 -0.023641 0.000000 0.083763 0.000000
# 6 0.000000 0.000000 0.000000 0.003339 0.000000 0.026737
#
#
# Mechanical properties :
#
#
# Convention : Reuss Voigt Hill
#
# Bulk Modulus (GPa) = 22.45284 43.62380 33.03832
# Shear Modulus (GPa) = 16.77374 30.24670 23.51022
#
# Velocity S-wave (km/s) = 2.71946 3.65180 3.21956
# Velocity P-wave (km/s) = 4.44522 6.08395 5.32796
#
# Compressibility (1/GPa) = 0.04453780
#
# Stress axis : x y z
#
# Youngs Moduli (GPa) = 109.69422 38.51145 19.96784
#
# Poissons Ratio (x) = 0.29356 -0.14612
# Poissons Ratio (y) = 0.83616 0.39951
# Poissons Ratio (z) = -0.80273 0.77053
#
# Static dielectric constant tensor:
#      x y z
#    x 1.874600 0.000000 -0.007540 
#    y 0.000000 1.912720 0.000000 
#    z -0.007540 0.000000 1.821520 
# 
# From -- ./inp_files/141356.got.cif
#   From: 2010.05.17/outbox.cif.g08.bks.cpg/sg15_71_cif.got.tgz:141356.got - 2010.06.03 18:47:42.
