data_PCOD9296602
_publ_section_title
;
Structure prediction by ZEFSAII (Michael W. Deem and Ramdas Pophale) SiO2 
 PCOD9296602
Probable space group: C 2/C
;
_chemical_formula_sum "Si O2"
_cell_formula_units_Z 60
_cell_length_a 18.866973
_cell_length_b 6.894166
_cell_length_c 23.747188
_cell_angle_alpha 90.000000
_cell_angle_beta 91.674355
_cell_angle_gamma 90.000000
_cell_volume 3087.526459
_symmetry_space_group_name_H-M "C 2/C"
_symmetry_group_IT_number 15
_symmetry_cell_setting 'monoclinic'
loop_
_space_group_symop_operation_xyz
x,y,z
-x,y,1/2-z
-x,-y,-z
x,-y,1/2+z
1/2+x,1/2+y,z
1/2-x,1/2+y,1/2-z
1/2-x,1/2-y,-z
1/2+x,1/2-y,1/2+z
loop_
_atom_site_type_symbol
_atom_site_label
_atom_site_fract_x
_atom_site_fract_y
_atom_site_fract_z
Si Si1 0.803545 0.297282 0.871642
Si Si2 0.607945 0.593645 0.138496
Si Si3 0.451427 0.566448 0.656341
Si Si4 0.139151 0.431080 0.221509
Si Si5 0.597148 0.939512 0.054239
Si Si6 0.560438 0.089562 0.424097
Si Si7 0.000000 0.359663 0.750000
Si Si8 0.147466 0.300478 0.346161
O O1 0.815813 0.417057 0.813902
O O2 0.839801 0.426789 0.920863
O O3 0.721239 0.253160 0.876894
O O4 0.845685 0.096485 0.868875
O O5 0.528632 0.528221 0.151554
O O6 0.638842 0.727808 0.188805
O O7 0.605071 0.730513 0.083627
O O8 0.433951 0.695003 0.601162
O O9 0.457547 0.720928 0.706809
O O10 0.396076 0.396460 0.665643
O O11 0.057870 0.509285 0.219926
O O12 0.161399 0.402524 0.286383
O O13 0.522524 0.031303 0.073708
O O14 0.592366 0.925238 0.987187
O O15 0.600365 0.941253 0.383711
#
# Coordination Sequence:
#
# PCOD9296602 Si02
#       8
#     8   8   8   8   8   8   4   8
#     4  11  26  44  64  95 136 175 212 265 333 391
#     4  11  21  42  67  93 124 174 218 258 326 390
#     4  12  22  39  66  98 123 170 217 265 324 383
#     4  11  24  39  64  94 133 168 214 268 323 392
#     4  10  23  45  69  96 129 172 223 273 322 385
#     4  11  23  43  70  99 130 165 225 281 316 380
#     4  12  20  40  66  94 130 162 218 278 312 388
#     4  12  27  41  64 100 137 166 217 270 330 390
#
# _framework density 19.433032000000001
#
# number of rings (size 3 to 8) (size 9 to 14) (size 15 to 20)
#    0.000    0.800    5.333    2.400    1.867    4.267 
#    0.000    1.333    0.000    0.000    0.000    0.000 
#    0.000    0.000    0.000    0.000    0.000    0.000 
#
# Total GULP energy -167811.889265 kJ/mol
# GULP energy per Si atom -5593.729642 kJ/mol
# Density = 1.938880 g / cm^3
# Si number density = 19.433032 Si / 1000 Ang^3
#
#
#
# Elastic Constant Matrix: (Units=GPa)
#
#
# Indices 1 2 3 4 5 6 
#
# 1 57.9249 -3.0397 -12.6144 0.0000 14.2180 0.0000
# 2 -3.0397 77.5499 5.5149 0.0000 -0.0360 0.0000
# 3 -12.6144 5.5149 95.8726 0.0000 12.3017 0.0000
# 4 0.0000 0.0000 0.0000 8.8837 0.0000 0.5151
# 5 14.2180 -0.0360 12.3017 0.0000 13.5632 0.0000
# 6 0.0000 0.0000 0.0000 0.5151 0.0000 18.6414
#
#
#
# Elastic Compliance Matrix: (Units=1/GPa)
#
#
# Indices 1 2 3 4 5 6 
#
# 1 0.028316 0.000488 0.008495 0.000000 -0.037386 0.000000
# 2 0.000488 0.012964 -0.000702 0.000000 0.000159 0.000000
# 3 0.008495 -0.000702 0.014408 0.000000 -0.021975 0.000000
# 4 0.000000 0.000000 0.000000 0.112746 0.000000 -0.003116
# 5 -0.037386 0.000159 -0.021975 0.000000 0.132851 0.000000
# 6 0.000000 0.000000 0.000000 -0.003116 0.000000 0.053730
#
#
# Mechanical properties :
#
#
# Convention : Reuss Voigt Hill
#
# Bulk Modulus (GPa) = 13.84073 23.45213 18.64643
# Shear Modulus (GPa) = 13.79172 24.31676 19.05424
#
# Velocity S-wave (km/s) = 2.66692 3.54122 3.13470
# Velocity P-wave (km/s) = 4.07689 5.36794 4.76633
#
# Compressibility (1/GPa) = 0.07225054
#
# Stress axis : x y z
#
# Youngs Moduli (GPa) = 35.31594 77.13636 69.40502
#
# Poissons Ratio (x) = -0.03768 -0.58957
# Poissons Ratio (y) = -0.01725 0.04871
# Poissons Ratio (z) = -0.30000 0.05414
#
# Static dielectric constant tensor:
#      x y z
#    x 1.652000 0.000000 0.006050 
#    y 0.000000 1.660300 0.000000 
#    z 0.006050 0.000000 1.686090 
# 
# From -- ./inp_files/278955.got.cif
#   From: 2010.05.17/outbox.cif.g08.bks.cpg/sg15_140_cif.got.tgz:278955.got - 2010.06.03 18:47:42.
