data_PCOD9296536
_publ_section_title
;
Structure prediction by ZEFSAII (Michael W. Deem and Ramdas Pophale) SiO2 
 PCOD9296536
Probable space group: C 2/C
;
_chemical_formula_sum "Si O2"
_cell_formula_units_Z 48
_cell_length_a 9.493842
_cell_length_b 23.601561
_cell_length_c 9.070372
_cell_angle_alpha 90.000000
_cell_angle_beta 78.824081
_cell_angle_gamma 90.000000
_cell_volume 1993.852756
_symmetry_space_group_name_H-M "C 2/C"
_symmetry_group_IT_number 15
_symmetry_cell_setting 'monoclinic'
loop_
_space_group_symop_operation_xyz
x,y,z
-x,y,1/2-z
-x,-y,-z
x,-y,1/2+z
1/2+x,1/2+y,z
1/2-x,1/2+y,1/2-z
1/2-x,1/2-y,-z
1/2+x,1/2-y,1/2+z
loop_
_atom_site_type_symbol
_atom_site_label
_atom_site_fract_x
_atom_site_fract_y
_atom_site_fract_z
Si Si1 0.852136 0.668165 0.855470
Si Si2 0.237876 0.928737 0.504102
Si Si3 0.489528 0.214555 0.077044
Si Si4 0.672224 0.513118 0.737795
Si Si5 0.761283 0.631712 0.579498
Si Si6 0.988368 0.163572 0.077142
O O1 0.742117 0.667859 0.739110
O O2 0.000000 0.688657 0.750000
O O3 0.871436 0.602951 0.904615
O O4 0.843358 0.698601 0.016649
O O5 0.194605 0.979296 0.406018
O O6 0.118422 0.879557 0.516411
O O7 0.241068 0.955623 0.662792
O O8 0.500000 0.218814 0.250000
O O9 0.599673 0.163778 0.013619
O O10 0.519585 0.275769 0.001308
O O11 0.500000 0.512663 0.750000
O O12 0.745814 0.567711 0.644432
O O13 0.648600 0.634593 0.469961
O O14 0.000000 0.171263 0.250000
#
# Coordination Sequence:
#
# PCOD9296536 Si02
#       6
#     8   8   8   8   8   8
#     4   9  22  47  67  94 139 183 224 275 336 405
#     4  11  25  40  71  98 140 174 227 277 343 401
#     4  11  26  44  70  98 134 179 231 280 332 409
#     4  11  22  41  65 101 133 175 218 282 333 404
#     4  10  23  45  67  95 139 176 223 278 340 399
#     4  12  26  42  66 103 137 181 222 279 347 402
#
# _framework density 24.073995
#
# number of rings (size 3 to 8) (size 9 to 14) (size 15 to 20)
#    0.000    1.333    1.667    3.000    9.333    0.667 
#    0.000    8.333    0.000    0.000    0.000    0.000 
#    0.000    0.000    0.000    0.000    0.000    0.000 
#
# Total GULP energy -133669.014052 kJ/mol
# GULP energy per Si atom -5569.542252 kJ/mol
# Density = 2.401920 g / cm^3
# Si number density = 24.073995 Si / 1000 Ang^3
#
#
#
# Elastic Constant Matrix: (Units=GPa)
#
#
# Indices 1 2 3 4 5 6 
#
# 1 43.2508 28.9263 33.3271 0.0000 4.7055 0.0000
# 2 28.9263 69.3719 34.3840 0.0000 -0.8750 0.0000
# 3 33.3271 34.3840 196.9411 0.0000 24.8253 0.0000
# 4 0.0000 0.0000 0.0000 55.0262 0.0000 -4.1106
# 5 4.7055 -0.8750 24.8253 0.0000 29.4814 0.0000
# 6 0.0000 0.0000 0.0000 -4.1106 0.0000 31.8197
#
#
#
# Elastic Compliance Matrix: (Units=1/GPa)
#
#
# Indices 1 2 3 4 5 6 
#
# 1 0.034528 -0.012854 -0.003195 0.000000 -0.003202 0.000000
# 2 -0.012854 0.020827 -0.002011 0.000000 0.004363 0.000000
# 3 -0.003195 -0.002011 0.006615 0.000000 -0.005120 0.000000
# 4 0.000000 0.000000 0.000000 0.018350 0.000000 0.002371
# 5 -0.003202 0.004363 -0.005120 0.000000 0.038872 0.000000
# 6 0.000000 0.000000 0.000000 0.002371 0.000000 0.031733
#
#
# Mechanical properties :
#
#
# Convention : Reuss Voigt Hill
#
# Bulk Modulus (GPa) = 38.68568 55.87096 47.27832
# Shear Modulus (GPa) = 25.55434 37.46055 31.50744
#
# Velocity S-wave (km/s) = 3.26159 3.94897 3.62162
# Velocity P-wave (km/s) = 5.50348 6.63708 6.09669
#
# Compressibility (1/GPa) = 0.02584936
#
# Stress axis : x y z
#
# Youngs Moduli (GPa) = 28.96179 48.01552 151.17574
#
# Poissons Ratio (x) = 0.61720 0.48303
# Poissons Ratio (y) = 0.37228 0.30400
# Poissons Ratio (z) = 0.09254 0.09655
#
# Static dielectric constant tensor:
#      x y z
#    x 2.133850 0.000000 -0.089350 
#    y 0.000000 1.970670 0.000000 
#    z -0.089350 0.000000 1.979630 
# 
# From -- ./inp_files/32027.got.cif
#   From: 2010.05.17/outbox.cif.g08.bks.cpg/sg15_17_cif.got.tgz:32027.got - 2010.06.03 18:47:42.
