data_PCOD9296823
_publ_section_title
;
Structure prediction by ZEFSAII (Michael W. Deem and Ramdas Pophale) SiO2 
 PCOD9296823
Probable space group: C 2/C
;
_chemical_formula_sum "Si O2"
_cell_formula_units_Z 44
_cell_length_a 34.769766
_cell_length_b 7.251460
_cell_length_c 26.350001
_cell_angle_alpha 90.000000
_cell_angle_beta 163.227625
_cell_angle_gamma 90.000000
_cell_volume 1917.164293
_symmetry_space_group_name_H-M "C 2/C"
_symmetry_group_IT_number 15
_symmetry_cell_setting 'monoclinic'
loop_
_space_group_symop_operation_xyz
x,y,z
-x,y,1/2-z
-x,-y,-z
x,-y,1/2+z
1/2+x,1/2+y,z
1/2-x,1/2+y,1/2-z
1/2-x,1/2-y,-z
1/2+x,1/2-y,1/2+z
loop_
_atom_site_type_symbol
_atom_site_label
_atom_site_fract_x
_atom_site_fract_y
_atom_site_fract_z
Si Si1 0.396932 0.741343 0.709606
Si Si2 0.000000 0.521243 0.250000
Si Si3 0.226214 0.392321 0.589549
Si Si4 0.822670 0.309537 0.728174
Si Si5 0.092911 0.075929 0.474011
Si Si6 0.985137 0.828936 0.518724
O O1 0.250000 0.750000 0.500000
O O2 0.486186 0.852165 0.782253
O O3 0.391869 0.823871 0.760347
O O4 0.456087 0.534048 0.789809
O O5 0.138258 0.408827 0.427594
O O6 0.262948 0.600832 0.651657
O O7 0.368839 0.289317 0.773245
O O8 0.120444 0.281738 0.489959
O O9 0.703976 0.450707 0.587609
O O10 0.918559 0.320682 0.898267
O O11 0.105353 0.096623 0.550037
O O12 0.000000 0.000000 0.500000
#
# Coordination Sequence:
#
# PCOD9296823 Si02
#       6
#     8   4   8   8   8   8
#     4  12  22  46  72  99 144 190 239 290 366 416
#     4  12  24  46  78 100 144 190 242 302 354 426
#     4  11  25  45  68 107 140 181 243 297 349 432
#     4  11  25  46  70 103 148 190 233 305 350 429
#     4  12  25  44  76 104 140 198 236 288 377 420
#     4  10  23  46  68 105 149 180 241 299 352 432
#
# _framework density 22.950562000000001
#
# number of rings (size 3 to 8) (size 9 to 14) (size 15 to 20)
#    0.000    0.727    7.273    0.000    5.091    4.364 
#    0.000    2.727    0.000    0.000    0.000    0.000 
#    0.000    0.000    0.000    0.000    0.000    0.000 
#
# Total GULP energy -122694.897938 kJ/mol
# GULP energy per Si atom -5577.040815 kJ/mol
# Density = 2.289833 g / cm^3
# Si number density = 22.950562 Si / 1000 Ang^3
#
#
#
# Elastic Constant Matrix: (Units=GPa)
#
#
# Indices 1 2 3 4 5 6 
#
# 1 151.3398 38.6391 17.1145 0.0000 8.2970 0.0000
# 2 38.6391 55.8168 7.4915 0.0000 6.9084 0.0000
# 3 17.1145 7.4915 140.2537 -0.0001 -13.8970 0.0000
# 4 0.0000 0.0000 -0.0001 31.1536 0.0000 16.0388
# 5 8.2970 6.9084 -13.8970 0.0000 30.0494 0.0000
# 6 0.0000 0.0000 0.0000 16.0388 0.0000 30.0770
#
#
#
# Elastic Compliance Matrix: (Units=1/GPa)
#
#
# Indices 1 2 3 4 5 6 
#
# 1 0.008147 -0.005351 -0.000848 0.000000 -0.001412 0.000000
# 2 -0.005351 0.022250 -0.000939 0.000000 -0.004072 0.000000
# 3 -0.000848 -0.000939 0.007680 0.000000 0.004002 0.000000
# 4 0.000000 0.000000 0.000000 0.044246 0.000000 -0.023595
# 5 -0.001412 -0.004072 0.004002 0.000000 0.036455 0.000000
# 6 0.000000 0.000000 0.000000 -0.023595 0.000000 0.045830
#
#
# Mechanical properties :
#
#
# Convention : Reuss Voigt Hill
#
# Bulk Modulus (GPa) = 42.01576 52.65561 47.33569
# Shear Modulus (GPa) = 26.76375 37.20032 31.98203
#
# Velocity S-wave (km/s) = 3.41860 4.03039 3.73704
# Velocity P-wave (km/s) = 5.82488 6.68219 6.26821
#
# Compressibility (1/GPa) = 0.02380059
#
# Stress axis : x y z
#
# Youngs Moduli (GPa) = 122.74108 44.94330 130.20631
#
# Poissons Ratio (x) = 0.24051 0.11044
# Poissons Ratio (y) = 0.65683 0.12226
# Poissons Ratio (z) = 0.10411 0.04220
#
# Static dielectric constant tensor:
#      x y z
#    x 1.744710 0.000000 0.054950 
#    y 0.000000 1.812930 0.000000 
#    z 0.054950 0.000000 1.967360 
# 
# From -- ./inp_files/284499.got.cif
#   From: 2010.05.17/outbox.cif.g08.bks.cpg/sg15_143_cif.got.tgz:284499.got - 2010.06.03 18:47:42.
