data_PCOD9296228
_publ_section_title
;
Structure prediction by ZEFSAII (Michael W. Deem and Ramdas Pophale) SiO2 
 PCOD9296228
Probable space group: C 2/C
;
_chemical_formula_sum "Si O2"
_cell_formula_units_Z 40
_cell_length_a 15.764149
_cell_length_b 5.562925
_cell_length_c 21.638226
_cell_angle_alpha 90.000000
_cell_angle_beta 67.268779
_cell_angle_gamma 90.000000
_cell_volume 1750.171573
_symmetry_space_group_name_H-M "C 2/C"
_symmetry_group_IT_number 15
_symmetry_cell_setting 'monoclinic'
loop_
_space_group_symop_operation_xyz
x,y,z
-x,y,1/2-z
-x,-y,-z
x,-y,1/2+z
1/2+x,1/2+y,z
1/2-x,1/2+y,1/2-z
1/2-x,1/2-y,-z
1/2+x,1/2-y,1/2+z
loop_
_atom_site_type_symbol
_atom_site_label
_atom_site_fract_x
_atom_site_fract_y
_atom_site_fract_z
Si Si1 0.643893 0.353843 0.604491
Si Si2 0.313329 0.958145 0.011312
Si Si3 0.141843 0.261586 0.240748
Si Si4 0.982599 0.828226 0.448057
Si Si5 0.863548 0.758618 0.189223
O O1 0.746676 0.461919 0.585207
O O2 0.609361 0.255020 0.678950
O O3 0.575719 0.540075 0.590337
O O4 0.666293 0.153192 0.547188
O O5 0.413750 0.864695 0.996732
O O6 0.250000 0.750000 0.000000
O O7 0.113220 0.514386 0.279673
O O8 0.253721 0.265726 0.210263
O O9 0.114279 0.013104 0.282811
O O10 0.076527 0.749273 0.389839
O O11 0.000000 0.000000 0.500000
#
# Coordination Sequence:
#
# PCOD9296228 Si02
#       5
#     8   8   8   8   8
#     4  10  23  44  69  99 132 189 228 290 354 418
#     4   9  22  41  66 102 130 177 228 277 354 413
#     4  10  24  47  72  96 140 186 237 278 353 431
#     4  11  26  43  67 106 142 179 235 301 356 414
#     4  10  25  45  70 104 135 187 231 292 348 417
#
# _framework density 22.854903
#
# number of rings (size 3 to 8) (size 9 to 14) (size 15 to 20)
#    0.000    2.000    0.000    0.000   16.800    4.800 
#    0.000    0.000    0.000    0.000    0.000    0.000 
#    0.000    0.000    0.000    0.000    0.000    0.000 
#
# Total GULP energy -111687.547661 kJ/mol
# GULP energy per Si atom -5584.377383 kJ/mol
# Density = 2.280288 g / cm^3
# Si number density = 22.854903 Si / 1000 Ang^3
#
#
#
# Elastic Constant Matrix: (Units=GPa)
#
#
# Indices 1 2 3 4 5 6 
#
# 1 79.1599 22.9589 33.3766 0.0001 -18.1700 0.0005
# 2 22.9589 99.9679 36.0487 0.0005 -14.1817 0.0003
# 3 33.3766 36.0487 124.3710 -0.0001 -18.0126 -0.0001
# 4 0.0001 0.0005 -0.0001 37.0228 -0.0001 -1.6944
# 5 -18.1700 -14.1817 -18.0126 -0.0001 35.6818 0.0000
# 6 0.0005 0.0003 -0.0001 -1.6944 0.0000 32.4109
#
#
#
# Elastic Compliance Matrix: (Units=1/GPa)
#
#
# Indices 1 2 3 4 5 6 
#
# 1 0.015686 -0.001742 -0.002857 0.000000 0.005853 0.000000
# 2 -0.001742 0.011676 -0.002560 0.000000 0.002461 0.000000
# 3 -0.002857 -0.002560 0.009916 0.000000 0.002533 0.000000
# 4 0.000000 0.000000 0.000000 0.027075 0.000000 0.001415
# 5 0.005853 0.002461 0.002533 0.000000 0.033263 0.000000
# 6 0.000000 0.000000 0.000000 0.001415 0.000000 0.030928
#
#
# Mechanical properties :
#
#
# Convention : Reuss Voigt Hill
#
# Bulk Modulus (GPa) = 43.55501 54.25192 48.90347
# Shear Modulus (GPa) = 33.21925 35.09741 34.15833
#
# Velocity S-wave (km/s) = 3.81660 3.92300 3.87017
# Velocity P-wave (km/s) = 6.20648 6.65650 6.43543
#
# Compressibility (1/GPa) = 0.02295947
#
# Stress axis : x y z
#
# Youngs Moduli (GPa) = 63.75135 85.64848 100.84552
#
# Poissons Ratio (x) = 0.14919 0.28811
# Poissons Ratio (y) = 0.11105 0.25819
# Poissons Ratio (z) = 0.18213 0.21928
#
# Static dielectric constant tensor:
#      x y z
#    x 1.881150 -0.000020 -0.018090 
#    y -0.000020 1.491200 -0.000010 
#    z -0.018090 -0.000010 1.786370 
# 
# From -- ./inp_files/271824.got.cif
#   From: 2010.05.17/outbox.cif.g08.bks.cpg/sg15_136_cif.got.tgz:271824.got - 2010.06.03 18:47:42.
