data_PCOD9296698
_publ_section_title
;
Structure prediction by ZEFSAII (Michael W. Deem and Ramdas Pophale) SiO2 
 PCOD9296698
Probable space group: C 2/C
;
_chemical_formula_sum "Si O2"
_cell_formula_units_Z 56
_cell_length_a 27.411478
_cell_length_b 8.615579
_cell_length_c 18.815616
_cell_angle_alpha 90.000000
_cell_angle_beta 145.581655
_cell_angle_gamma 90.000000
_cell_volume 2511.663524
_symmetry_space_group_name_H-M "C 2/C"
_symmetry_group_IT_number 15
_symmetry_cell_setting 'monoclinic'
loop_
_space_group_symop_operation_xyz
x,y,z
-x,y,1/2-z
-x,-y,-z
x,-y,1/2+z
1/2+x,1/2+y,z
1/2-x,1/2+y,1/2-z
1/2-x,1/2-y,-z
1/2+x,1/2-y,1/2+z
loop_
_atom_site_type_symbol
_atom_site_label
_atom_site_fract_x
_atom_site_fract_y
_atom_site_fract_z
Si Si1 0.509604 0.297919 0.844544
Si Si2 0.658775 0.094657 0.692698
Si Si3 0.141576 0.959475 0.086693
Si Si4 0.136832 0.935593 0.733469
Si Si5 0.213164 0.395194 0.999467
Si Si6 0.578218 0.787798 0.955077
Si Si7 0.422025 0.023858 0.268641
O O1 0.500000 0.337961 0.750000
O O2 0.443708 0.400033 0.812551
O O3 0.482806 0.120215 0.823013
O O4 0.602673 0.323347 0.991874
O O5 0.663262 0.266761 0.733453
O O6 0.605046 0.112526 0.556353
O O7 0.609790 0.984738 0.688969
O O8 0.755144 0.037890 0.792937
O O9 0.116121 0.959741 0.139273
O O10 0.101572 0.113226 0.003553
O O11 0.212610 0.014804 0.869353
O O12 0.162440 0.496625 0.880871
O O13 0.250000 0.250000 0.000000
O O14 0.140390 0.338433 0.966593
O O15 0.477986 0.823117 0.820260
#
# Coordination Sequence:
#
# PCOD9296698 Si02
#       7
#     8   8   8   8   8   8   8
#     4  11  26  42  71 102 139 184 230 288 352 415
#     4  10  23  45  73 103 135 185 239 287 346 418
#     4  11  24  45  73 103 136 184 234 291 347 411
#     4  10  25  46  68 104 138 181 234 287 344 423
#     4  12  26  44  70 102 144 183 229 291 350 413
#     4  11  24  44  68 104 141 180 235 287 352 417
#     4  11  26  45  69 103 142 185 230 289 355 413
#
# _framework density 22.29598
#
# number of rings (size 3 to 8) (size 9 to 14) (size 15 to 20)
#    0.000    1.143    1.429    3.000   10.000    1.143 
#    2.571    0.000    0.000    0.000    0.000    0.000 
#    0.000    0.000    0.000    0.000    0.000    0.000 
#
# Total GULP energy -156754.505853 kJ/mol
# GULP energy per Si atom -5598.375209 kJ/mol
# Density = 2.224523 g / cm^3
# Si number density = 22.295980 Si / 1000 Ang^3
#
#
#
# Elastic Constant Matrix: (Units=GPa)
#
#
# Indices 1 2 3 4 5 6 
#
# 1 131.9914 1.6090 8.1838 0.0000 -11.5761 0.0000
# 2 1.6090 29.3667 7.2691 0.0000 -0.6345 0.0000
# 3 8.1838 7.2691 76.6041 0.0000 0.2700 0.0000
# 4 0.0000 0.0000 0.0000 40.5632 0.0000 1.0198
# 5 -11.5761 -0.6345 0.2700 0.0000 26.7674 0.0000
# 6 0.0000 0.0000 0.0000 1.0198 0.0000 16.6621
#
#
#
# Elastic Compliance Matrix: (Units=1/GPa)
#
#
# Indices 1 2 3 4 5 6 
#
# 1 0.007932 -0.000151 -0.000845 0.000000 0.003435 0.000000
# 2 -0.000151 0.034894 -0.003298 0.000000 0.000795 0.000000
# 3 -0.000845 -0.003298 0.013459 0.000000 -0.000579 0.000000
# 4 0.000000 0.000000 0.000000 0.024691 0.000000 -0.001511
# 5 0.003435 0.000795 -0.000579 0.000000 0.038869 0.000000
# 6 0.000000 0.000000 0.000000 -0.001511 0.000000 0.060109
#
#
# Mechanical properties :
#
#
# Convention : Reuss Voigt Hill
#
# Bulk Modulus (GPa) = 20.96573 30.23178 25.59875
# Shear Modulus (GPa) = 24.45690 31.52523 27.99107
#
# Velocity S-wave (km/s) = 3.31557 3.76432 3.54705
# Velocity P-wave (km/s) = 4.90725 5.69932 5.31805
#
# Compressibility (1/GPa) = 0.04769688
#
# Stress axis : x y z
#
# Youngs Moduli (GPa) = 126.07521 28.65833 74.29756
#
# Poissons Ratio (x) = 0.00433 0.06279
# Poissons Ratio (y) = 0.01906 0.24502
# Poissons Ratio (z) = 0.10655 0.09451
#
# Static dielectric constant tensor:
#      x y z
#    x 1.810900 0.000000 -0.000170 
#    y 0.000000 1.831670 0.000000 
#    z -0.000170 0.000000 1.790510 
# 
# From -- ./inp_files/259018.got.cif
#   From: 2010.05.17/outbox.cif.g08.bks.cpg/sg15_130_cif.got.tgz:259018.got - 2010.06.03 18:47:42.
