data_PCOD9296027
_publ_section_title
;
Structure prediction by ZEFSAII (Michael W. Deem and Ramdas Pophale) SiO2 
 PCOD9296027
Probable space group: C 2/C
;
_chemical_formula_sum "Si O2"
_cell_formula_units_Z 60
_cell_length_a 17.788973
_cell_length_b 13.024669
_cell_length_c 25.782081
_cell_angle_alpha 90.000000
_cell_angle_beta 149.729384
_cell_angle_gamma 90.000000
_cell_volume 3011.196615
_symmetry_space_group_name_H-M "C 2/C"
_symmetry_group_IT_number 15
_symmetry_cell_setting 'monoclinic'
loop_
_space_group_symop_operation_xyz
x,y,z
-x,y,1/2-z
-x,-y,-z
x,-y,1/2+z
1/2+x,1/2+y,z
1/2-x,1/2+y,1/2-z
1/2-x,1/2-y,-z
1/2+x,1/2-y,1/2+z
loop_
_atom_site_type_symbol
_atom_site_label
_atom_site_fract_x
_atom_site_fract_y
_atom_site_fract_z
Si Si1 0.977364 0.389928 0.509852
Si Si2 0.204886 0.744333 0.680883
Si Si3 0.000000 0.707138 0.750000
Si Si4 0.468580 0.400782 0.515443
Si Si5 0.249641 0.249013 0.323347
Si Si6 0.739117 0.132793 0.969803
Si Si7 0.788051 0.587856 0.000716
Si Si8 0.467437 0.251596 0.169639
O O1 0.890935 0.326925 0.414129
O O2 0.877968 0.389682 0.501829
O O3 0.000000 0.500000 0.500000
O O4 0.140486 0.345766 0.619627
O O5 0.186989 0.716883 0.730575
O O6 0.377141 0.743067 0.768237
O O7 0.128844 0.853446 0.624568
O O8 0.882588 0.770351 0.714616
O O9 0.903999 0.639661 0.653078
O O10 0.500000 0.500000 0.500000
O O11 0.360806 0.331657 0.415063
O O12 0.378462 0.398355 0.516074
O O13 0.722256 0.034868 0.997442
O O14 0.750000 0.250000 0.000000
O O15 0.876884 0.649454 0.098690
O O16 0.631498 0.648283 0.903071
O O17 0.500000 0.249872 0.250000
#
# Coordination Sequence:
#
# PCOD9296027 Si02
#       8
#     8   8   4   8   8   8   8   8
#     4  11  25  43  64 101 135 177 217 284 340 405
#     4  11  23  44  68  95 138 176 226 282 347 410
#     4  10  24  44  70  96 132 194 228 272 348 420
#     4  10  25  41  67 101 136 179 232 287 340 415
#     4  10  23  44  65  97 134 176 229 282 335 411
#     4  11  26  47  69 101 145 188 231 292 345 423
#     4  11  26  43  72 102 141 177 231 290 353 413
#     4  11  24  45  70 105 137 179 229 291 352 414
#
# _framework density 19.925633000000001
#
# number of rings (size 3 to 8) (size 9 to 14) (size 15 to 20)
#    0.000    1.333    2.667    0.800   12.133    2.133 
#    3.600    0.000    0.000    0.000    0.000    0.000 
#    0.000    0.000    0.000    0.000    0.000    0.000 
#
# Total GULP energy -167438.071976 kJ/mol
# GULP energy per Si atom -5581.269066 kJ/mol
# Density = 1.988028 g / cm^3
# Si number density = 19.925633 Si / 1000 Ang^3
#
#
#
# Elastic Constant Matrix: (Units=GPa)
#
#
# Indices 1 2 3 4 5 6 
#
# 1 136.0370 42.7004 57.3772 0.0001 9.5939 0.0000
# 2 42.7004 78.4217 31.2173 0.0004 7.3741 0.0000
# 3 57.3772 31.2173 113.3160 0.0012 4.9043 0.0001
# 4 0.0001 0.0004 0.0012 10.7258 0.0002 -5.8314
# 5 9.5939 7.3741 4.9043 0.0002 49.4852 0.0000
# 6 0.0000 0.0000 0.0001 -5.8314 0.0000 29.0840
#
#
#
# Elastic Compliance Matrix: (Units=1/GPa)
#
#
# Indices 1 2 3 4 5 6 
#
# 1 0.010400 -0.003918 -0.004142 0.000001 -0.001022 0.000000
# 2 -0.003918 0.015951 -0.002351 0.000000 -0.001384 0.000000
# 3 -0.004142 -0.002351 0.011570 -0.000001 0.000007 0.000000
# 4 0.000001 0.000000 -0.000001 0.104640 0.000000 0.020980
# 5 -0.001022 -0.001384 0.000007 0.000000 0.020612 0.000000
# 6 0.000000 0.000000 0.000000 0.020980 0.000000 0.038590
#
#
# Mechanical properties :
#
#
# Convention : Reuss Voigt Hill
#
# Bulk Modulus (GPa) = 58.48382 65.59606 62.03994
# Shear Modulus (GPa) = 21.90267 30.95766 26.43016
#
# Velocity S-wave (km/s) = 3.31905 3.94593 3.64598
# Velocity P-wave (km/s) = 6.64100 7.33160 6.99483
#
# Compressibility (1/GPa) = 0.01709875
#
# Stress axis : x y z
#
# Youngs Moduli (GPa) = 96.15466 62.69359 86.43278
#
# Poissons Ratio (x) = 0.24561 0.35805
# Poissons Ratio (y) = 0.37670 0.20317
# Poissons Ratio (z) = 0.39832 0.14737
#
# Static dielectric constant tensor:
#      x y z
#    x 1.953080 0.000000 0.125990 
#    y 0.000000 1.668870 0.000000 
#    z 0.125990 0.000000 1.758520 
# 
# From -- ./inp_files/298960.got.cif
#   From: 2010.05.17/outbox.cif.g08.bks.cpg/sg15_150_cif.got.tgz:298960.got - 2010.06.03 18:47:42.
