data_PCOD9296624
_publ_section_title
;
Structure prediction by ZEFSAII (Michael W. Deem and Ramdas Pophale) SiO2 
 PCOD9296624
Probable space group: C 2/C
;
_chemical_formula_sum "Si O2"
_cell_formula_units_Z 52
_cell_length_a 13.865049
_cell_length_b 9.361598
_cell_length_c 27.771913
_cell_angle_alpha 90.000000
_cell_angle_beta 141.541854
_cell_angle_gamma 90.000000
_cell_volume 2241.958790
_symmetry_space_group_name_H-M "C 2/C"
_symmetry_group_IT_number 15
_symmetry_cell_setting 'monoclinic'
loop_
_space_group_symop_operation_xyz
x,y,z
-x,y,1/2-z
-x,-y,-z
x,-y,1/2+z
1/2+x,1/2+y,z
1/2-x,1/2+y,1/2-z
1/2-x,1/2-y,-z
1/2+x,1/2-y,1/2+z
loop_
_atom_site_type_symbol
_atom_site_label
_atom_site_fract_x
_atom_site_fract_y
_atom_site_fract_z
Si Si1 0.093524 0.736966 0.227598
Si Si2 0.138037 0.153503 0.641939
Si Si3 0.634121 0.450974 0.991423
Si Si4 0.834141 0.573121 0.395505
Si Si5 0.301703 0.933880 0.647686
Si Si6 0.500000 0.503249 0.750000
Si Si7 0.585043 0.885060 0.467260
O O1 0.162950 0.766502 0.202475
O O2 0.209281 0.689734 0.315824
O O3 0.957320 0.616657 0.180061
O O4 0.015704 0.887019 0.211840
O O5 0.085453 0.278698 0.585741
O O6 0.285049 0.074053 0.675291
O O7 0.998254 0.039048 0.588186
O O8 0.673693 0.531203 0.057113
O O9 0.797842 0.435704 0.027876
O O10 0.584492 0.284869 0.974438
O O11 0.654668 0.586014 0.313492
O O12 0.851457 0.545250 0.458534
O O13 0.915715 0.452022 0.395914
#
# Coordination Sequence:
#
# PCOD9296624 Si02
#       7
#     8   8   8   8   8   4   8
#     4  10  26  45  67 101 145 201 243 304 386 455
#     4  12  25  43  73 108 137 201 245 304 381 451
#     4  11  23  45  72 107 148 189 251 312 372 448
#     4  11  24  42  69 104 144 192 249 304 380 450
#     4  10  23  45  70 103 146 191 242 314 371 449
#     4  10  24  44  64  96 144 186 244 310 362 446
#     4  10  24  43  70 107 147 191 242 313 376 453
#
# _framework density 23.194002999999999
#
# number of rings (size 3 to 8) (size 9 to 14) (size 15 to 20)
#    0.000    1.538    1.538    2.308    6.462    6.154 
#    0.000    0.000    0.000    0.000    0.000    0.000 
#    0.000    0.000    0.000    0.000    0.000    0.000 
#
# Total GULP energy -145013.862229 kJ/mol
# GULP energy per Si atom -5577.456240 kJ/mol
# Density = 2.314121 g / cm^3
# Si number density = 23.194003 Si / 1000 Ang^3
#
#
#
# Elastic Constant Matrix: (Units=GPa)
#
#
# Indices 1 2 3 4 5 6 
#
# 1 96.9867 45.6056 37.1275 0.0000 -11.6642 0.0000
# 2 45.6056 110.5760 32.2829 0.0000 10.9282 0.0000
# 3 37.1275 32.2829 66.6233 0.0000 13.7462 0.0000
# 4 0.0000 0.0000 0.0000 36.1726 0.0000 5.8953
# 5 -11.6642 10.9282 13.7462 0.0000 38.5780 0.0000
# 6 0.0000 0.0000 0.0000 5.8953 0.0000 46.9549
#
#
#
# Elastic Compliance Matrix: (Units=1/GPa)
#
#
# Indices 1 2 3 4 5 6 
#
# 1 0.017741 -0.005622 -0.009280 0.000000 0.010263 0.000000
# 2 -0.005622 0.012372 -0.001930 0.000000 -0.004517 0.000000
# 3 -0.009280 -0.001930 0.023295 0.000000 -0.010560 0.000000
# 4 0.000000 0.000000 0.000000 0.028223 0.000000 -0.003543
# 5 0.010263 -0.004517 -0.010560 0.000000 0.034067 0.000000
# 6 0.000000 0.000000 0.000000 -0.003543 0.000000 0.021742
#
#
# Mechanical properties :
#
#
# Convention : Reuss Voigt Hill
#
# Bulk Modulus (GPa) = 50.64779 56.02424 53.33602
# Shear Modulus (GPa) = 28.13951 34.95244 31.54597
#
# Velocity S-wave (km/s) = 3.48691 3.88617 3.69194
# Velocity P-wave (km/s) = 6.17215 6.65909 6.42024
#
# Compressibility (1/GPa) = 0.01974420
#
# Stress axis : x y z
#
# Youngs Moduli (GPa) = 56.36599 80.82640 42.92709
#
# Poissons Ratio (x) = 0.45441 0.39837
# Poissons Ratio (y) = 0.31690 0.08285
# Poissons Ratio (z) = 0.52308 0.15600
#
# Static dielectric constant tensor:
#      x y z
#    x 1.907120 0.000000 0.000140 
#    y 0.000000 1.866580 0.000000 
#    z 0.000140 0.000000 1.889130 
# 
# From -- ./inp_files/313212.got.cif
#   From: 2010.05.17/outbox.cif.g08.bks.cpg/sg15_157_cif.got.tgz:313212.got - 2010.06.03 18:47:42.
