data_PCOD9296007
_publ_section_title
;
Structure prediction by ZEFSAII (Michael W. Deem and Ramdas Pophale) SiO2 
 PCOD9296007
Probable space group: C 2/C
;
_chemical_formula_sum "Si O2"
_cell_formula_units_Z 32
_cell_length_a 14.918681
_cell_length_b 10.823341
_cell_length_c 16.624188
_cell_angle_alpha 90.000000
_cell_angle_beta 28.318133
_cell_angle_gamma 90.000000
_cell_volume 1273.346306
_symmetry_space_group_name_H-M "C 2/C"
_symmetry_group_IT_number 15
_symmetry_cell_setting 'monoclinic'
loop_
_space_group_symop_operation_xyz
x,y,z
-x,y,1/2-z
-x,-y,-z
x,-y,1/2+z
1/2+x,1/2+y,z
1/2-x,1/2+y,1/2-z
1/2-x,1/2-y,-z
1/2+x,1/2-y,1/2+z
loop_
_atom_site_type_symbol
_atom_site_label
_atom_site_fract_x
_atom_site_fract_y
_atom_site_fract_z
Si Si1 0.986565 0.866145 0.174159
Si Si2 0.277159 0.955291 0.828724
Si Si3 0.375800 0.962197 0.521187
Si Si4 0.941425 0.198974 0.535964
O O1 0.933073 0.781827 0.139947
O O2 0.000000 0.803482 0.250000
O O3 0.829175 0.974074 0.309672
O O4 0.183901 0.920043 0.987273
O O5 0.500078 0.971642 0.645530
O O6 0.207191 0.093359 0.864931
O O7 0.145337 0.871960 0.871115
O O8 0.394629 0.813817 0.515402
O O9 0.500000 0.000000 0.500000
#
# Coordination Sequence:
#
# PCOD9296007 Si02
#       4
#     8   8   8   8
#     4  10  23  44  65 102 144 163 219 296 337 387
#     4   9  21  40  64  93 133 175 231 267 316 418
#     4  12  22  37  74  93 125 192 222 263 337 403
#     4   9  21  41  63  99 132 165 237 270 315 413
#
# _framework density 25.130633
#
# number of rings (size 3 to 8) (size 9 to 14) (size 15 to 20)
#    1.500    0.500    2.500    0.000    7.000    1.000 
#    0.000    2.500    0.000    0.000    0.000    0.000 
#    0.000    0.000    0.000    0.000    0.000    0.000 
#
# Total GULP energy -89133.958235 kJ/mol
# GULP energy per Si atom -5570.872390 kJ/mol
# Density = 2.507343 g / cm^3
# Si number density = 25.130633 Si / 1000 Ang^3
#
#
#
# Elastic Constant Matrix: (Units=GPa)
#
#
# Indices 1 2 3 4 5 6 
#
# 1 68.0445 5.3953 46.6438 0.0001 10.3076 -0.0001
# 2 5.3953 143.0667 53.9118 0.0007 -20.7337 0.0001
# 3 46.6438 53.9118 187.2498 0.0010 6.8406 -0.0003
# 4 0.0001 0.0007 0.0010 31.3748 -0.0002 -2.8906
# 5 10.3076 -20.7337 6.8406 -0.0002 41.1744 0.0002
# 6 -0.0001 0.0001 -0.0003 -2.8906 0.0002 1.7472
#
#
#
# Elastic Compliance Matrix: (Units=1/GPa)
#
#
# Indices 1 2 3 4 5 6 
#
# 1 0.018340 0.000520 -0.004588 0.000000 -0.003567 0.000001
# 2 0.000520 0.008714 -0.002811 0.000000 0.004725 -0.000002
# 3 -0.004588 -0.002811 0.007347 0.000000 -0.001488 0.000001
# 4 0.000000 0.000000 0.000000 0.037605 0.000000 0.062214
# 5 -0.003567 0.004725 -0.001488 0.000000 0.027806 -0.000005
# 6 0.000001 -0.000002 0.000001 0.062214 -0.000005 0.675265
#
#
# Mechanical properties :
#
#
# Convention : Reuss Voigt Hill
#
# Bulk Modulus (GPa) = 48.44054 67.80698 58.12376
# Shear Modulus (GPa) = 6.28365 34.35330 20.31847
#
# Velocity S-wave (km/s) = 1.58298 3.70129 2.84652
# Velocity P-wave (km/s) = 4.76009 6.73101 5.82945
#
# Compressibility (1/GPa) = 0.02064387
#
# Stress axis : x y z
#
# Youngs Moduli (GPa) = 54.52427 114.75530 136.10871
#
# Poissons Ratio (x) = -0.05971 0.62448
# Poissons Ratio (y) = -0.02837 0.38262
# Poissons Ratio (z) = 0.25016 0.32260
#
# Static dielectric constant tensor:
#      x y z
#    x 2.058780 0.000000 0.153140 
#    y 0.000000 2.094280 0.000000 
#    z 0.153140 0.000000 2.223520 
# 
# From -- ./inp_files/204303.got.cif
#   From: 2010.05.17/outbox.cif.g08.bks.cpg/sg15_103_cif.got.tgz:204303.got - 2010.06.03 18:47:42.
