data_PCOD9296706
_publ_section_title
;
Structure prediction by ZEFSAII (Michael W. Deem and Ramdas Pophale) SiO2 
 PCOD9296706
Probable space group: C 2/C
;
_chemical_formula_sum "Si O2"
_cell_formula_units_Z 40
_cell_length_a 17.882721
_cell_length_b 10.026114
_cell_length_c 27.551228
_cell_angle_alpha 90.000000
_cell_angle_beta 159.447477
_cell_angle_gamma 90.000000
_cell_volume 1734.186589
_symmetry_space_group_name_H-M "C 2/C"
_symmetry_group_IT_number 15
_symmetry_cell_setting 'monoclinic'
loop_
_space_group_symop_operation_xyz
x,y,z
-x,y,1/2-z
-x,-y,-z
x,-y,1/2+z
1/2+x,1/2+y,z
1/2-x,1/2+y,1/2-z
1/2-x,1/2-y,-z
1/2+x,1/2-y,1/2+z
loop_
_atom_site_type_symbol
_atom_site_label
_atom_site_fract_x
_atom_site_fract_y
_atom_site_fract_z
Si Si1 0.888821 0.982700 0.565057
Si Si2 0.487486 0.980803 0.089772
Si Si3 0.851102 0.231672 0.791840
Si Si4 0.813689 0.860296 0.672983
Si Si5 0.007294 0.136351 0.476176
O O1 0.663904 0.966425 0.455189
O O2 0.915851 0.898767 0.532090
O O3 0.068857 0.933548 0.712206
O O4 0.944520 0.137720 0.590619
O O5 0.675263 0.871498 0.206389
O O6 0.576451 0.130012 0.140338
O O7 0.342876 0.951069 0.954740
O O8 0.720028 0.289574 0.665769
O O9 0.674234 0.734198 0.602168
O O10 0.000000 0.814516 0.750000
O O11 0.000000 0.000000 0.500000
#
# Coordination Sequence:
#
# PCOD9296706 Si02
#       5
#     8   8   8   8   8
#     4  11  24  45  71 101 142 189 233 288 353 415
#     4  10  23  45  73 106 142 186 230 291 353 416
#     4  11  23  44  70 106 141 182 232 295 341 418
#     4   9  23  44  70 102 136 183 236 285 349 418
#     4  11  26  41  69 104 141 188 233 295 343 418
#
# _framework density 23.065570000000001
#
# number of rings (size 3 to 8) (size 9 to 14) (size 15 to 20)
#    0.000    1.600    2.000    0.600    2.800   13.600 
#    0.000    2.000    0.000    0.000    0.000    0.000 
#    0.000    0.000    0.000    0.000    0.000    0.000 
#
# Total GULP energy -111927.246992 kJ/mol
# GULP energy per Si atom -5596.362350 kJ/mol
# Density = 2.301307 g / cm^3
# Si number density = 23.065570 Si / 1000 Ang^3
#
#
#
# Elastic Constant Matrix: (Units=GPa)
#
#
# Indices 1 2 3 4 5 6 
#
# 1 81.3284 9.2580 18.3295 -0.0046 -2.9634 -0.0019
# 2 9.2580 148.1865 44.5513 -0.0047 -0.3169 -0.0087
# 3 18.3295 44.5513 87.6995 -0.0031 0.0306 -0.0101
# 4 -0.0046 -0.0047 -0.0031 21.6226 -0.0003 -15.7714
# 5 -2.9634 -0.3169 0.0306 -0.0003 26.9607 0.0004
# 6 -0.0019 -0.0087 -0.0101 -15.7714 0.0004 25.1432
#
#
#
# Elastic Compliance Matrix: (Units=1/GPa)
#
#
# Indices 1 2 3 4 5 6 
#
# 1 0.012958 0.000009 -0.002714 0.000004 0.001428 0.000003
# 2 0.000009 0.007965 -0.004048 0.000004 0.000099 0.000003
# 3 -0.002714 -0.004048 0.014026 0.000006 -0.000362 0.000008
# 4 0.000004 0.000004 0.000006 0.085253 0.000000 0.053476
# 5 0.001428 0.000099 -0.000362 0.000000 0.037250 0.000000
# 6 0.000003 0.000003 0.000008 0.053476 0.000000 0.073315
#
#
# Mechanical properties :
#
#
# Convention : Reuss Voigt Hill
#
# Bulk Modulus (GPa) = 46.63146 51.27689 48.95417
# Shear Modulus (GPa) = 19.88702 31.08366 25.48534
#
# Velocity S-wave (km/s) = 2.93950 3.67498 3.32762
# Velocity P-wave (km/s) = 5.63753 6.34716 6.00284
#
# Compressibility (1/GPa) = 0.02144475
#
# Stress axis : x y z
#
# Youngs Moduli (GPa) = 77.17026 125.55029 71.29458
#
# Poissons Ratio (x) = -0.00117 0.19346
# Poissons Ratio (y) = -0.00072 0.28861
# Poissons Ratio (z) = 0.20941 0.50825
#
# Static dielectric constant tensor:
#      x y z
#    x 1.937280 0.000000 0.005240 
#    y 0.000000 1.828270 -0.000010 
#    z 0.005240 -0.000010 1.845950 
# 
# From -- ./inp_files/316021.got.cif
#   From: 2010.05.17/outbox.cif.g08.bks.cpg/sg15_159_cif.got.tgz:316021.got - 2010.06.03 18:47:42.
