data_PCOD9296616
_publ_section_title
;
Structure prediction by ZEFSAII (Michael W. Deem and Ramdas Pophale) SiO2 
 PCOD9296616
Probable space group: C 2/C
;
_chemical_formula_sum "Si O2"
_cell_formula_units_Z 36
_cell_length_a 14.958999
_cell_length_b 13.114044
_cell_length_c 11.646262
_cell_angle_alpha 90.000000
_cell_angle_beta 45.460944
_cell_angle_gamma 90.000000
_cell_volume 1628.458382
_symmetry_space_group_name_H-M "C 2/C"
_symmetry_group_IT_number 15
_symmetry_cell_setting 'monoclinic'
loop_
_space_group_symop_operation_xyz
x,y,z
-x,y,1/2-z
-x,-y,-z
x,-y,1/2+z
1/2+x,1/2+y,z
1/2-x,1/2+y,1/2-z
1/2-x,1/2-y,-z
1/2+x,1/2-y,1/2+z
loop_
_atom_site_type_symbol
_atom_site_label
_atom_site_fract_x
_atom_site_fract_y
_atom_site_fract_z
Si Si1 0.791719 0.205925 0.840039
Si Si2 0.285733 0.583328 0.507473
Si Si3 0.404858 0.915300 0.129136
Si Si4 0.857159 0.699671 0.052259
Si Si5 0.000000 0.928907 0.250000
O O1 0.685749 0.129976 0.886472
O O2 0.814482 0.290987 0.722522
O O3 0.921319 0.143838 0.736719
O O4 0.750000 0.250000 0.000000
O O5 0.178274 0.546184 0.690634
O O6 0.223405 0.615375 0.442969
O O7 0.332862 0.689992 0.518750
O O8 0.396002 0.502215 0.399136
O O9 0.496417 0.825508 0.089594
O O10 0.500000 0.000000 0.000000
#
# Coordination Sequence:
#
# PCOD9296616 Si02
#       5
#     8   8   8   8   4
#     4  11  26  46  69 101 139 192 225 289 364 418
#     4  10  25  43  74 104 136 185 236 292 358 412
#     4  11  24  44  73 101 137 184 237 291 345 422
#     4  10  23  45  70 101 142 184 235 290 352 419
#     4  12  26  46  70 104 144 180 240 298 344 442
#
# _framework density 22.106798000000001
#
# number of rings (size 3 to 8) (size 9 to 14) (size 15 to 20)
#    0.000    1.333    0.000    3.333   12.444    3.556 
#    0.000    0.000    0.000    0.000    0.000    0.000 
#    0.000    0.000    0.000    0.000    0.000    0.000 
#
# Total GULP energy -100772.215914 kJ/mol
# GULP energy per Si atom -5598.456440 kJ/mol
# Density = 2.205648 g / cm^3
# Si number density = 22.106798 Si / 1000 Ang^3
#
#
#
# Elastic Constant Matrix: (Units=GPa)
#
#
# Indices 1 2 3 4 5 6 
#
# 1 156.0324 50.4468 80.5311 0.0000 -6.8594 0.0000
# 2 50.4468 77.6591 63.3812 0.0000 -0.7217 0.0000
# 3 80.5311 63.3812 190.6198 0.0000 7.8923 0.0000
# 4 0.0000 0.0000 0.0000 42.0274 0.0000 -13.0995
# 5 -6.8594 -0.7217 7.8923 0.0000 44.2396 0.0000
# 6 0.0000 0.0000 0.0000 -13.0995 0.0000 16.8664
#
#
#
# Elastic Compliance Matrix: (Units=1/GPa)
#
#
# Indices 1 2 3 4 5 6 
#
# 1 0.009063 -0.003683 -0.002680 0.000000 0.001823 0.000000
# 2 -0.003683 0.019250 -0.004870 0.000000 0.000612 0.000000
# 3 -0.002680 -0.004870 0.008077 0.000000 -0.001936 0.000000
# 4 0.000000 0.000000 0.000000 0.031394 0.000000 0.024382
# 5 0.001823 0.000612 -0.001936 0.000000 0.023242 0.000000
# 6 0.000000 0.000000 0.000000 0.024382 0.000000 0.078226
#
#
# Mechanical properties :
#
#
# Convention : Reuss Voigt Hill
#
# Bulk Modulus (GPa) = 71.81524 90.33660 81.07592
# Shear Modulus (GPa) = 25.46362 35.95683 30.71023
#
# Velocity S-wave (km/s) = 3.39757 4.03737 3.73121
# Velocity P-wave (km/s) = 6.92441 7.91747 7.43753
#
# Compressibility (1/GPa) = 0.01392462
#
# Stress axis : x y z
#
# Youngs Moduli (GPa) = 110.33980 51.94933 123.80190
#
# Poissons Ratio (x) = 0.19135 0.33174
# Poissons Ratio (y) = 0.40642 0.60288
# Poissons Ratio (z) = 0.29566 0.25298
#
# Static dielectric constant tensor:
#      x y z
#    x 1.831030 0.000000 0.021690 
#    y 0.000000 1.841430 0.000000 
#    z 0.021690 0.000000 1.778670 
# 
# From -- ./inp_files/96777.got.cif
#   From: 2010.05.17/outbox.cif.g08.bks.cpg/sg15_49_cif.got.tgz:96777.got - 2010.06.03 18:47:42.
