data_PCOD9296062
_publ_section_title
;
Structure prediction by ZEFSAII (Michael W. Deem and Ramdas Pophale) SiO2 
 PCOD9296062
Probable space group: C 2/C
;
_chemical_formula_sum "Si O2"
_cell_formula_units_Z 44
_cell_length_a 11.954573
_cell_length_b 19.479763
_cell_length_c 8.768954
_cell_angle_alpha 90.000000
_cell_angle_beta 66.850053
_cell_angle_gamma 90.000000
_cell_volume 1877.618718
_symmetry_space_group_name_H-M "C 2/C"
_symmetry_group_IT_number 15
_symmetry_cell_setting 'monoclinic'
loop_
_space_group_symop_operation_xyz
x,y,z
-x,y,1/2-z
-x,-y,-z
x,-y,1/2+z
1/2+x,1/2+y,z
1/2-x,1/2+y,1/2-z
1/2-x,1/2-y,-z
1/2+x,1/2-y,1/2+z
loop_
_atom_site_type_symbol
_atom_site_label
_atom_site_fract_x
_atom_site_fract_y
_atom_site_fract_z
Si Si1 0.373663 0.811389 0.873962
Si Si2 0.000000 0.322215 0.250000
Si Si3 0.321756 0.394960 0.679404
Si Si4 0.984671 0.791929 0.013969
Si Si5 0.855528 0.014346 0.857666
Si Si6 0.758309 0.363965 0.249737
O O1 0.500000 0.844664 0.750000
O O2 0.278292 0.835311 0.795976
O O3 0.421500 0.736138 0.905333
O O4 0.312774 0.838381 0.059767
O O5 0.123217 0.364284 0.208211
O O6 0.976991 0.271455 0.403754
O O7 0.449552 0.355759 0.599928
O O8 0.308709 0.438201 0.841384
O O9 0.324916 0.448846 0.534672
O O10 0.851217 0.815006 0.137274
O O11 0.799133 0.063586 0.759215
O O12 0.000000 0.014000 0.750000
#
# Coordination Sequence:
#
# PCOD9296062 Si02
#       6
#     8   4   8   8   8   8
#     4  10  25  42  66 101 132 177 223 272 341 404
#     4  10  24  42  62 106 136 176 220 276 346 400
#     4  11  25  43  68 103 134 176 227 280 337 398
#     4  11  23  40  72  98 138 170 224 284 336 400
#     4  11  23  44  67  97 134 176 226 278 329 397
#     4  10  23  44  66  96 136 178 222 276 337 398
#
# _framework density 23.433935999999999
#
# number of rings (size 3 to 8) (size 9 to 14) (size 15 to 20)
#    0.000    1.455    1.818    1.636   11.455    0.000 
#    8.182    1.818    0.000    0.000    0.000    0.000 
#    0.000    0.000    0.000    0.000    0.000    0.000 
#
# Total GULP energy -122840.509843 kJ/mol
# GULP energy per Si atom -5583.659538 kJ/mol
# Density = 2.338060 g / cm^3
# Si number density = 23.433936 Si / 1000 Ang^3
#
#
#
# Elastic Constant Matrix: (Units=GPa)
#
#
# Indices 1 2 3 4 5 6 
#
# 1 175.7241 56.6524 42.1937 0.0000 -12.7040 0.0000
# 2 56.6524 87.4515 25.6466 0.0000 -0.0618 0.0000
# 3 42.1937 25.6466 57.4545 0.0000 -19.4404 0.0000
# 4 0.0000 0.0000 0.0000 104.8869 0.0000 -13.2964
# 5 -12.7040 -0.0618 -19.4404 0.0000 40.6843 0.0000
# 6 0.0000 0.0000 0.0000 -13.2964 0.0000 49.6411
#
#
#
# Elastic Compliance Matrix: (Units=1/GPa)
#
#
# Indices 1 2 3 4 5 6 
#
# 1 0.007956 -0.004032 -0.003822 0.000000 0.000652 0.000000
# 2 -0.004032 0.015589 -0.005267 0.000000 -0.003752 0.000000
# 3 -0.003822 -0.005267 0.026430 0.000000 0.011428 0.000000
# 4 0.000000 0.000000 0.000000 0.009869 0.000000 0.002643
# 5 0.000652 -0.003752 0.011428 0.000000 0.030238 0.000000
# 6 0.000000 0.000000 0.000000 0.002643 0.000000 0.020853
#
#
# Mechanical properties :
#
#
# Convention : Reuss Voigt Hill
#
# Bulk Modulus (GPa) = 42.13775 63.29062 52.71419
# Shear Modulus (GPa) = 34.46207 52.11829 43.29018
#
# Velocity S-wave (km/s) = 3.83901 4.72110 4.30272
# Velocity P-wave (km/s) = 6.13769 7.53559 6.87227
#
# Compressibility (1/GPa) = 0.02373169
#
# Stress axis : x y z
#
# Youngs Moduli (GPa) = 125.69779 64.14720 37.83649
#
# Poissons Ratio (x) = 0.25867 0.14461
# Poissons Ratio (y) = 0.50687 0.19928
# Poissons Ratio (z) = 0.48040 0.33786
#
# Static dielectric constant tensor:
#      x y z
#    x 1.920930 0.000000 0.058810 
#    y 0.000000 1.873700 0.000000 
#    z 0.058810 0.000000 1.939850 
# 
# From -- ./inp_files/30728.got.cif
#   From: 2010.05.17/outbox.cif.g08.bks.cpg/sg15_16_cif.got.tgz:30728.got - 2010.06.03 18:47:42.
