data_PCOD9296347
_publ_section_title
;
Structure prediction by ZEFSAII (Michael W. Deem and Ramdas Pophale) SiO2 
 PCOD9296347
Probable space group: C 2/C
;
_chemical_formula_sum "Si O2"
_cell_formula_units_Z 44
_cell_length_a 9.831498
_cell_length_b 20.305029
_cell_length_c 9.490833
_cell_angle_alpha 90.000000
_cell_angle_beta 106.268994
_cell_angle_gamma 90.000000
_cell_volume 1818.776931
_symmetry_space_group_name_H-M "C 2/C"
_symmetry_group_IT_number 15
_symmetry_cell_setting 'monoclinic'
loop_
_space_group_symop_operation_xyz
x,y,z
-x,y,1/2-z
-x,-y,-z
x,-y,1/2+z
1/2+x,1/2+y,z
1/2-x,1/2+y,1/2-z
1/2-x,1/2-y,-z
1/2+x,1/2-y,1/2+z
loop_
_atom_site_type_symbol
_atom_site_label
_atom_site_fract_x
_atom_site_fract_y
_atom_site_fract_z
Si Si1 0.822968 0.883967 0.458604
Si Si2 0.500000 0.038203 0.250000
Si Si3 0.000000 0.248866 0.750000
Si Si4 0.282094 0.646341 0.626069
Si Si5 0.459138 0.149217 0.468173
Si Si6 0.500000 0.605209 0.250000
Si Si7 0.692511 0.528802 0.093103
O O1 0.834719 0.870629 0.297991
O O2 0.666465 0.863421 0.460719
O O3 0.927794 0.852625 0.604512
O O4 0.868450 0.960970 0.483048
O O5 0.475351 0.083414 0.379056
O O6 0.351281 0.004001 0.180775
O O7 0.115525 0.207804 0.871866
O O8 0.077102 0.295160 0.658002
O O9 0.303308 0.585860 0.523868
O O10 0.114993 0.661757 0.576042
O O11 0.621590 0.561537 0.209191
#
# Coordination Sequence:
#
# PCOD9296347 Si02
#       7
#     8   4   4   8   8   4   8
#     4  12  25  43  70 109 147 187 243 295 370 439
#     4   9  20  40  68 103 137 194 229 288 366 425
#     4  11  24  49  72 100 146 197 251 300 362 417
#     4  11  25  44  74 112 141 190 244 304 363 427
#     4  10  23  44  72 103 142 188 247 300 355 427
#     4  12  24  43  64 103 153 195 228 284 362 448
#     4  11  24  42  73 106 153 190 234 296 368 444
#
# _framework density 24.192081999999999
#
# number of rings (size 3 to 8) (size 9 to 14) (size 15 to 20)
#    0.000    1.091    1.818    3.818    2.545    3.636 
#    3.273    0.000    0.000    0.000    0.000    0.000 
#    0.000    0.000    0.000    0.000    0.000    0.000 
#
# Total GULP energy -123031.995975 kJ/mol
# GULP energy per Si atom -5592.363453 kJ/mol
# Density = 2.413702 g / cm^3
# Si number density = 24.192082 Si / 1000 Ang^3
#
#
#
# Elastic Constant Matrix: (Units=GPa)
#
#
# Indices 1 2 3 4 5 6 
#
# 1 94.8090 9.5463 32.8701 0.0000 -8.4107 0.0000
# 2 9.5463 48.2729 9.5773 0.0000 -6.3684 0.0000
# 3 32.8701 9.5773 141.4181 0.0000 -5.5034 0.0000
# 4 0.0000 0.0000 0.0000 34.9454 0.0000 -13.4726
# 5 -8.4107 -6.3684 -5.5034 0.0000 55.4827 0.0000
# 6 0.0000 0.0000 0.0000 -13.4726 0.0000 72.5608
#
#
#
# Elastic Compliance Matrix: (Units=1/GPa)
#
#
# Indices 1 2 3 4 5 6 
#
# 1 0.011718 -0.001633 -0.002561 0.000000 0.001335 0.000000
# 2 -0.001633 0.021516 -0.000995 0.000000 0.002123 0.000000
# 3 -0.002561 -0.000995 0.007744 0.000000 0.000266 0.000000
# 4 0.000000 0.000000 0.000000 0.030822 0.000000 0.005723
# 5 0.001335 0.002123 0.000266 0.000000 0.018496 0.000000
# 6 0.000000 0.000000 0.000000 0.005723 0.000000 0.014844
#
#
# Mechanical properties :
#
#
# Convention : Reuss Voigt Hill
#
# Bulk Modulus (GPa) = 32.67956 43.16527 37.92242
# Shear Modulus (GPa) = 39.77100 48.09820 43.93460
#
# Velocity S-wave (km/s) = 4.05899 4.46374 4.26616
# Velocity P-wave (km/s) = 5.95859 6.66694 6.32269
#
# Compressibility (1/GPa) = 0.03060016
#
# Stress axis : x y z
#
# Youngs Moduli (GPa) = 85.33637 46.47700 129.12809
#
# Poissons Ratio (x) = 0.07590 0.33072
# Poissons Ratio (y) = 0.13937 0.12847
# Poissons Ratio (z) = 0.21856 0.04624
#
# Static dielectric constant tensor:
#      x y z
#    x 1.979060 0.000000 0.061440 
#    y 0.000000 1.928780 0.000000 
#    z 0.061440 0.000000 1.942560 
# 
# From -- ./inp_files/31075.got.cif
#   From: 2010.05.17/outbox.cif.g08.bks.cpg/sg15_16_cif.got.tgz:31075.got - 2010.06.03 18:47:42.
