data_PCOD9296717
_publ_section_title
;
Structure prediction by ZEFSAII (Michael W. Deem and Ramdas Pophale) SiO2 
 PCOD9296717
Probable space group: C 2/C
;
_chemical_formula_sum "Si O2"
_cell_formula_units_Z 36
_cell_length_a 10.096216
_cell_length_b 12.842083
_cell_length_c 15.528593
_cell_angle_alpha 90.000000
_cell_angle_beta 50.749780
_cell_angle_gamma 90.000000
_cell_volume 1559.143433
_symmetry_space_group_name_H-M "C 2/C"
_symmetry_group_IT_number 15
_symmetry_cell_setting 'monoclinic'
loop_
_space_group_symop_operation_xyz
x,y,z
-x,y,1/2-z
-x,-y,-z
x,-y,1/2+z
1/2+x,1/2+y,z
1/2-x,1/2+y,1/2-z
1/2-x,1/2-y,-z
1/2+x,1/2-y,1/2+z
loop_
_atom_site_type_symbol
_atom_site_label
_atom_site_fract_x
_atom_site_fract_y
_atom_site_fract_z
Si Si1 0.221054 0.916228 0.981489
Si Si2 0.850843 0.141116 0.677486
Si Si3 0.829166 0.652001 0.922148
Si Si4 0.500000 0.192521 0.250000
Si Si5 0.633170 0.081330 0.903346
O O1 0.353332 0.877020 0.855402
O O2 0.977507 0.109699 0.944207
O O3 0.244652 0.040330 0.979475
O O4 0.281306 0.867498 0.048447
O O5 0.709510 0.162802 0.662960
O O6 0.783802 0.053377 0.773568
O O7 0.907068 0.237024 0.715500
O O8 0.015070 0.648452 0.889571
O O9 0.750000 0.750000 0.000000
O O10 0.500000 0.000000 0.000000
#
# Coordination Sequence:
#
# PCOD9296717 Si02
#       5
#     8   8   8   4   8
#     4  11  25  48  74 103 141 193 247 291 365 434
#     4  12  24  47  72 108 142 187 250 294 363 434
#     4  11  26  46  70 104 148 184 237 303 368 428
#     4  12  26  42  80 100 146 190 244 306 350 442
#     4  10  23  45  74 101 146 183 235 298 366 422
#
# _framework density 23.089600999999998
#
# number of rings (size 3 to 8) (size 9 to 14) (size 15 to 20)
#    0.000    0.889    2.222    3.333    9.333    0.000 
#    0.000    4.444    0.000    0.000    0.000    0.000 
#    0.000    0.000    0.000    0.000    0.000    0.000 
#
# Total GULP energy -100429.776175 kJ/mol
# GULP energy per Si atom -5579.432010 kJ/mol
# Density = 2.303705 g / cm^3
# Si number density = 23.089601 Si / 1000 Ang^3
#
#
#
# Elastic Constant Matrix: (Units=GPa)
#
#
# Indices 1 2 3 4 5 6 
#
# 1 139.1098 16.4760 48.4344 0.0000 28.1880 0.0000
# 2 16.4760 92.8706 50.4787 0.0000 -3.2154 0.0000
# 3 48.4344 50.4787 181.0506 0.0000 -5.6149 0.0000
# 4 0.0000 0.0000 0.0000 18.7848 0.0000 -4.2955
# 5 28.1880 -3.2154 -5.6149 0.0000 50.4106 0.0000
# 6 0.0000 0.0000 0.0000 -4.2955 0.0000 18.5090
#
#
#
# Elastic Compliance Matrix: (Units=1/GPa)
#
#
# Indices 1 2 3 4 5 6 
#
# 1 0.009224 -0.000462 -0.002508 0.000000 -0.005467 0.000000
# 2 -0.000462 0.012723 -0.003402 0.000000 0.000691 0.000000
# 3 -0.002508 -0.003402 0.007205 0.000000 0.001988 0.000000
# 4 0.000000 0.000000 0.000000 0.056218 0.000000 0.013047
# 5 -0.005467 0.000691 0.001988 0.000000 0.023160 0.000000
# 6 0.000000 0.000000 0.000000 0.013047 0.000000 0.057056
#
#
# Mechanical properties :
#
#
# Convention : Reuss Voigt Hill
#
# Bulk Modulus (GPa) = 60.95290 71.53436 66.24363
# Shear Modulus (GPa) = 27.20356 37.38365 32.29361
#
# Velocity S-wave (km/s) = 3.43618 4.02813 3.74387
# Velocity P-wave (km/s) = 6.49606 7.25830 6.88773
#
# Compressibility (1/GPa) = 0.01640611
#
# Stress axis : x y z
#
# Youngs Moduli (GPa) = 108.40777 78.59896 138.80124
#
# Poissons Ratio (x) = 0.03634 0.34816
# Poissons Ratio (y) = 0.05013 0.47222
# Poissons Ratio (z) = 0.27192 0.26740
#
# Static dielectric constant tensor:
#      x y z
#    x 1.917160 0.000000 -0.052270 
#    y 0.000000 1.867760 0.000000 
#    z -0.052270 0.000000 1.974280 
# 
# From -- ./inp_files/141661.got.cif
#   From: 2010.05.17/outbox.cif.g08.bks.cpg/sg15_71_cif.got.tgz:141661.got - 2010.06.03 18:47:42.
