data_PCOD9296769
_publ_section_title
;
Structure prediction by ZEFSAII (Michael W. Deem and Ramdas Pophale) SiO2 
 PCOD9296769
Probable space group: C 2/C
;
_chemical_formula_sum "Si O2"
_cell_formula_units_Z 52
_cell_length_a 7.441476
_cell_length_b 11.298843
_cell_length_c 29.213401
_cell_angle_alpha 90.000000
_cell_angle_beta 118.750548
_cell_angle_gamma 90.000000
_cell_volume 2153.461745
_symmetry_space_group_name_H-M "C 2/C"
_symmetry_group_IT_number 15
_symmetry_cell_setting 'monoclinic'
loop_
_space_group_symop_operation_xyz
x,y,z
-x,y,1/2-z
-x,-y,-z
x,-y,1/2+z
1/2+x,1/2+y,z
1/2-x,1/2+y,1/2-z
1/2-x,1/2-y,-z
1/2+x,1/2-y,1/2+z
loop_
_atom_site_type_symbol
_atom_site_label
_atom_site_fract_x
_atom_site_fract_y
_atom_site_fract_z
Si Si1 0.292667 0.989575 0.707534
Si Si2 0.981208 0.296492 0.083853
Si Si3 0.000000 0.062264 0.250000
Si Si4 0.389357 0.289441 0.074127
Si Si5 0.482617 0.040213 0.050195
Si Si6 0.431505 0.548861 0.090519
Si Si7 0.165566 0.266604 0.332971
O O1 0.500000 0.920975 0.750000
O O2 0.151573 0.006962 0.735077
O O3 0.138019 0.946580 0.647245
O O4 0.372952 0.112273 0.697867
O O5 0.198419 0.296681 0.084941
O O6 0.886711 0.426424 0.063531
O O7 0.897056 0.168487 0.056968
O O8 0.962147 0.277628 0.135740
O O9 0.115183 0.152702 0.297486
O O10 0.382200 0.169913 0.042614
O O11 0.427961 0.425045 0.062311
O O12 0.594113 0.266265 0.127646
O O13 0.722105 0.047757 0.094947
O O14 0.500000 0.000000 0.000000
#
# Coordination Sequence:
#
# PCOD9296769 Si02
#       7
#     8   8   4   8   8   8   8
#     4  11  25  42  69  98 138 184 230 284 348 409
#     4  11  24  43  75  99 138 186 233 287 358 420
#     4  12  24  42  62 100 140 170 244 292 324 430
#     4  10  24  43  72  96 143 185 223 290 358 410
#     4  11  25  46  74 107 139 184 239 296 358 431
#     4  10  23  46  64 105 139 179 234 286 342 423
#     4  11  24  45  64 101 139 183 238 281 348 425
#
# _framework density 24.147165999999999
#
# number of rings (size 3 to 8) (size 9 to 14) (size 15 to 20)
#    0.000    1.231    3.846    0.000    6.462    6.769 
#    1.385    1.538    0.000    0.000    0.000    0.000 
#    0.000    0.000    0.000    0.000    0.000    0.000 
#
# Total GULP energy -144893.707232 kJ/mol
# GULP energy per Si atom -5572.834894 kJ/mol
# Density = 2.409221 g / cm^3
# Si number density = 24.147166 Si / 1000 Ang^3
#
#
#
# Elastic Constant Matrix: (Units=GPa)
#
#
# Indices 1 2 3 4 5 6 
#
# 1 85.7176 30.3487 2.9077 0.0000 -9.0983 0.0000
# 2 30.3487 204.4674 37.4956 0.0000 -7.6672 0.0000
# 3 2.9077 37.4956 63.4495 0.0000 9.5022 0.0000
# 4 0.0000 0.0000 0.0000 30.9973 0.0000 -4.4441
# 5 -9.0983 -7.6672 9.5022 0.0000 38.7503 0.0000
# 6 0.0000 0.0000 0.0000 -4.4441 0.0000 33.7305
#
#
#
# Elastic Compliance Matrix: (Units=1/GPa)
#
#
# Indices 1 2 3 4 5 6 
#
# 1 0.012569 -0.001786 0.000094 0.000000 0.002575 0.000000
# 2 -0.001786 0.005885 -0.003641 0.000000 0.001638 0.000000
# 3 0.000094 -0.003641 0.018699 0.000000 -0.005284 0.000000
# 4 0.000000 0.000000 0.000000 0.032882 0.000000 0.004332
# 5 0.002575 0.001638 -0.005284 0.000000 0.028030 0.000000
# 6 0.000000 0.000000 0.000000 0.004332 0.000000 0.030218
#
#
# Mechanical properties :
#
#
# Convention : Reuss Voigt Hill
#
# Bulk Modulus (GPa) = 37.75541 55.01538 46.38540
# Shear Modulus (GPa) = 33.83439 39.55447 36.69443
#
# Velocity S-wave (km/s) = 3.74729 4.05168 3.90245
# Velocity P-wave (km/s) = 5.86450 6.68738 6.28941
#
# Compressibility (1/GPa) = 0.02648627
#
# Stress axis : x y z
#
# Youngs Moduli (GPa) = 79.56250 169.92243 53.47782
#
# Poissons Ratio (x) = 0.30353 -0.00503
# Poissons Ratio (y) = 0.14212 0.19472
# Poissons Ratio (z) = -0.00748 0.61872
#
# Static dielectric constant tensor:
#      x y z
#    x 1.988160 0.000000 0.078000 
#    y 0.000000 2.074810 0.000000 
#    z 0.078000 0.000000 1.990820 
# 
# From -- ./inp_files/287738.got.cif
#   From: 2010.05.17/outbox.cif.g08.bks.cpg/sg15_144_cif.got.tgz:287738.got - 2010.06.03 18:47:42.
