data_PCOD9296525
_publ_section_title
;
Structure prediction by ZEFSAII (Michael W. Deem and Ramdas Pophale) SiO2 
 PCOD9296525
Probable space group: C 2/C
;
_chemical_formula_sum "Si O2"
_cell_formula_units_Z 36
_cell_length_a 15.315683
_cell_length_b 19.943087
_cell_length_c 13.385863
_cell_angle_alpha 90.000000
_cell_angle_beta 159.621259
_cell_angle_gamma 90.000000
_cell_volume 1423.751341
_symmetry_space_group_name_H-M "C 2/C"
_symmetry_group_IT_number 15
_symmetry_cell_setting 'monoclinic'
loop_
_space_group_symop_operation_xyz
x,y,z
-x,y,1/2-z
-x,-y,-z
x,-y,1/2+z
1/2+x,1/2+y,z
1/2-x,1/2+y,1/2-z
1/2-x,1/2-y,-z
1/2+x,1/2-y,1/2+z
loop_
_atom_site_type_symbol
_atom_site_label
_atom_site_fract_x
_atom_site_fract_y
_atom_site_fract_z
Si Si1 0.613264 0.446946 0.743358
Si Si2 0.734986 0.186193 0.056278
Si Si3 0.729658 0.935156 0.798943
Si Si4 0.803394 0.213722 0.360539
Si Si5 0.500000 0.033379 0.250000
O O1 0.550434 0.370618 0.703174
O O2 0.816507 0.436867 0.869999
O O3 0.388734 0.496327 0.475364
O O4 0.757562 0.487688 0.981500
O O5 0.719112 0.212790 0.152597
O O6 0.500000 0.149756 0.750000
O O7 0.750000 0.250000 0.000000
O O8 0.867469 0.863268 0.957781
O O9 0.528014 0.931324 0.672030
O O10 0.052270 0.257865 0.642904
#
# Coordination Sequence:
#
# PCOD9296525 Si02
#       5
#     8   8   8   8   4
#     4  10  23  45  67 102 144 195 241 305 377 444
#     4  11  21  40  68 108 149 190 236 303 384 466
#     4  10  25  45  70 101 143 195 248 309 366 448
#     4  11  25  46  72 104 147 197 246 308 378 443
#     4  12  22  42  70 100 134 186 256 302 362 432
#
# _framework density 25.285315000000001
#
# number of rings (size 3 to 8) (size 9 to 14) (size 15 to 20)
#    0.000    1.333    3.333    1.333    3.111    1.778 
#   16.000    1.111    0.000    0.000    0.000    0.000 
#    0.000    0.000    0.000    0.000    0.000    0.000 
#
# Total GULP energy -100226.432282 kJ/mol
# GULP energy per Si atom -5568.135127 kJ/mol
# Density = 2.522776 g / cm^3
# Si number density = 25.285315 Si / 1000 Ang^3
#
#
#
# Elastic Constant Matrix: (Units=GPa)
#
#
# Indices 1 2 3 4 5 6 
#
# 1 157.4082 23.1899 -3.1547 0.0014 5.3901 -0.0010
# 2 23.1899 171.7937 23.2285 0.0001 14.8455 0.0002
# 3 -3.1547 23.2285 49.6987 0.0029 26.6776 -0.0031
# 4 0.0014 0.0001 0.0029 18.0265 0.0019 9.2209
# 5 5.3901 14.8455 26.6776 0.0019 23.4760 -0.0019
# 6 -0.0010 0.0002 -0.0031 9.2209 -0.0019 10.9907
#
#
#
# Elastic Compliance Matrix: (Units=1/GPa)
#
#
# Indices 1 2 3 4 5 6 
#
# 1 0.006735 -0.000959 0.003539 -0.000002 -0.004962 0.000002
# 2 -0.000959 0.006374 -0.002550 0.000002 -0.000913 -0.000003
# 3 0.003539 -0.002550 0.054123 -0.000009 -0.060704 0.000013
# 4 -0.000002 0.000002 -0.000009 0.097178 -0.000004 -0.081530
# 5 -0.004962 -0.000913 -0.060704 -0.000004 0.113296 0.000006
# 6 0.000002 -0.000003 0.000013 -0.081530 0.000006 0.159388
#
#
# Mechanical properties :
#
#
# Convention : Reuss Voigt Hill
#
# Bulk Modulus (GPa) = 14.86056 51.71424 33.28740
# Shear Modulus (GPa) = 10.88224 32.87443 21.87833
#
# Velocity S-wave (km/s) = 2.07681 3.60966 2.94472
# Velocity P-wave (km/s) = 3.41185 6.15382 4.97545
#
# Compressibility (1/GPa) = 0.06729220
#
# Stress axis : x y z
#
# Youngs Moduli (GPa) = 148.47798 156.88614 18.47647
#
# Poissons Ratio (x) = 0.15044 -0.06539
# Poissons Ratio (y) = 0.14238 0.04712
# Poissons Ratio (z) = -0.52547 0.40006
#
# Static dielectric constant tensor:
#      x y z
#    x 2.190420 0.000000 0.089710 
#    y 0.000000 2.046950 0.000000 
#    z 0.089710 0.000000 2.105680 
# 
# From -- ./inp_files/163683.got.cif
#   From: 2010.05.17/outbox.cif.g08.bks.cpg/sg15_82_cif.got.tgz:163683.got - 2010.06.03 18:47:42.
