data_PCOD9296920
_publ_section_title
;
Structure prediction by ZEFSAII (Michael W. Deem and Ramdas Pophale) SiO2 
 PCOD9296920
Probable space group: C 2/C
;
_chemical_formula_sum "Si O2"
_cell_formula_units_Z 40
_cell_length_a 22.799517
_cell_length_b 10.958733
_cell_length_c 10.675378
_cell_angle_alpha 90.000000
_cell_angle_beta 138.242541
_cell_angle_gamma 90.000000
_cell_volume 1776.354535
_symmetry_space_group_name_H-M "C 2/C"
_symmetry_group_IT_number 15
_symmetry_cell_setting 'monoclinic'
loop_
_space_group_symop_operation_xyz
x,y,z
-x,y,1/2-z
-x,-y,-z
x,-y,1/2+z
1/2+x,1/2+y,z
1/2-x,1/2+y,1/2-z
1/2-x,1/2-y,-z
1/2+x,1/2-y,1/2+z
loop_
_atom_site_type_symbol
_atom_site_label
_atom_site_fract_x
_atom_site_fract_y
_atom_site_fract_z
Si Si1 0.484980 0.106515 0.581328
Si Si2 0.592329 0.384345 0.388369
Si Si3 0.657297 0.818090 0.822236
Si Si4 0.639200 0.257382 0.715816
Si Si5 0.249717 0.050637 0.548410
O O1 0.500000 0.067494 0.750000
O O2 0.388190 0.160575 0.387019
O O3 0.559700 0.209020 0.674932
O O4 0.500000 0.000000 0.500000
O O5 0.500000 0.453541 0.250000
O O6 0.591046 0.272041 0.287973
O O7 0.604811 0.319985 0.538922
O O8 0.673645 0.471810 0.490387
O O9 0.750000 0.750000 0.000000
O O10 0.681908 0.955318 0.904340
O O11 0.702046 0.356831 0.879680
O O12 0.695992 0.137497 0.773030
#
# Coordination Sequence:
#
# PCOD9296920 Si02
#       5
#     8   8   8   8   8
#     4  12  27  47  77 112 152 200 256 316 374 456
#     4  11  24  44  73 100 145 195 246 311 381 447
#     4  10  23  46  72 109 146 204 243 312 378 449
#     4  11  25  45  72 106 143 196 254 309 382 450
#     4  10  25  45  65 108 145 191 246 310 372 457
#
# _framework density 22.518028000000001
#
# number of rings (size 3 to 8) (size 9 to 14) (size 15 to 20)
#    0.000    1.200    4.000    0.000    5.600    8.000 
#    3.600    0.000    0.000    0.000    0.000    0.000 
#    0.000    0.000    0.000    0.000    0.000    0.000 
#
# Total GULP energy -111497.001547 kJ/mol
# GULP energy per Si atom -5574.850077 kJ/mol
# Density = 2.246678 g / cm^3
# Si number density = 22.518028 Si / 1000 Ang^3
#
#
#
# Elastic Constant Matrix: (Units=GPa)
#
#
# Indices 1 2 3 4 5 6 
#
# 1 74.1534 31.0465 42.0141 0.0000 2.2458 0.0000
# 2 31.0465 94.4336 35.6765 0.0000 16.3856 0.0000
# 3 42.0141 35.6765 145.8741 0.0000 4.3253 0.0000
# 4 0.0000 0.0000 0.0000 99.5536 0.0000 20.3414
# 5 2.2458 16.3856 4.3253 0.0000 41.9409 0.0000
# 6 0.0000 0.0000 0.0000 20.3414 0.0000 33.3475
#
#
#
# Elastic Compliance Matrix: (Units=1/GPa)
#
#
# Indices 1 2 3 4 5 6 
#
# 1 0.017596 -0.004483 -0.004008 0.000000 0.001223 0.000000
# 2 -0.004483 0.013628 -0.001897 0.000000 -0.004889 0.000000
# 3 -0.004008 -0.001897 0.008471 0.000000 0.000082 0.000000
# 4 0.000000 0.000000 0.000000 0.011475 0.000000 -0.007000
# 5 0.001223 -0.004889 0.000082 0.000000 0.025679 0.000000
# 6 0.000000 0.000000 0.000000 -0.007000 0.000000 0.034257
#
#
# Mechanical properties :
#
#
# Convention : Reuss Voigt Hill
#
# Bulk Modulus (GPa) = 52.85432 59.10393 55.97912
# Shear Modulus (GPa) = 36.18241 48.68334 42.43288
#
# Velocity S-wave (km/s) = 4.01286 4.65475 4.34567
# Velocity P-wave (km/s) = 6.70774 7.42921 7.07768
#
# Compressibility (1/GPa) = 0.01891993
#
# Stress axis : x y z
#
# Youngs Moduli (GPa) = 56.83026 73.37722 118.04922
#
# Poissons Ratio (x) = 0.32895 0.47312
# Poissons Ratio (y) = 0.25477 0.22393
# Poissons Ratio (z) = 0.22777 0.13919
#
# Static dielectric constant tensor:
#      x y z
#    x 1.846320 0.000000 0.055460 
#    y 0.000000 1.866210 0.000000 
#    z 0.055460 0.000000 1.872790 
# 
# From -- ./inp_files/122821.got.cif
#   From: 2010.05.17/outbox.cif.g08.bks.cpg/sg15_62_cif.got.tgz:122821.got - 2010.06.03 18:47:42.
