data_PCOD9296566
_publ_section_title
;
Structure prediction by ZEFSAII (Michael W. Deem and Ramdas Pophale) SiO2 
 PCOD9296566
Probable space group: C 2/C
;
_chemical_formula_sum "Si O2"
_cell_formula_units_Z 48
_cell_length_a 15.334849
_cell_length_b 16.218873
_cell_length_c 9.395628
_cell_angle_alpha 90.000000
_cell_angle_beta 94.576767
_cell_angle_gamma 90.000000
_cell_volume 2329.372534
_symmetry_space_group_name_H-M "C 2/C"
_symmetry_group_IT_number 15
_symmetry_cell_setting 'monoclinic'
loop_
_space_group_symop_operation_xyz
x,y,z
-x,y,1/2-z
-x,-y,-z
x,-y,1/2+z
1/2+x,1/2+y,z
1/2-x,1/2+y,1/2-z
1/2-x,1/2-y,-z
1/2+x,1/2-y,1/2+z
loop_
_atom_site_type_symbol
_atom_site_label
_atom_site_fract_x
_atom_site_fract_y
_atom_site_fract_z
Si Si1 0.172946 0.599152 0.192392
Si Si2 0.899589 0.473572 0.526213
Si Si3 0.066322 0.677398 0.644214
Si Si4 0.366628 0.349485 0.778266
Si Si5 0.482633 0.405212 0.525793
Si Si6 0.443708 0.750283 0.880919
O O1 0.160354 0.545297 0.047794
O O2 0.118779 0.553061 0.312801
O O3 0.271158 0.612890 0.258016
O O4 0.138444 0.690613 0.149686
O O5 0.880784 0.391573 0.431244
O O6 0.000000 0.500000 0.500000
O O7 0.123703 0.749862 0.722679
O O8 0.000000 0.638842 0.750000
O O9 0.999824 0.717653 0.521841
O O10 0.422162 0.387324 0.655113
O O11 0.419889 0.372684 0.926604
O O12 0.500000 0.500000 0.500000
O O13 0.436955 0.347955 0.401122
O O14 0.500000 0.766404 0.750000
#
# Coordination Sequence:
#
# PCOD9296566 Si02
#       6
#     8   8   8   8   8   8
#     4  12  26  42  65 105 135 167 231 279 328 396
#     4  12  24  43  70  96 137 176 218 275 337 403
#     4  11  20  44  69  90 131 183 215 259 341 403
#     4  10  24  44  63  97 132 171 226 275 328 395
#     4  10  23  45  68  89 133 184 222 264 336 397
#     4  11  21  42  67  96 130 173 223 266 332 406
#
# _framework density 20.606407999999998
#
# number of rings (size 3 to 8) (size 9 to 14) (size 15 to 20)
#    0.000    1.000    6.667    1.500    4.667    1.333 
#    3.000    0.000    0.000    0.000    0.000    0.000 
#    0.000    0.000    0.000    0.000    0.000    0.000 
#
# Total GULP energy -133832.517361 kJ/mol
# GULP energy per Si atom -5576.354890 kJ/mol
# Density = 2.055951 g / cm^3
# Si number density = 20.606408 Si / 1000 Ang^3
#
#
#
# Elastic Constant Matrix: (Units=GPa)
#
#
# Indices 1 2 3 4 5 6 
#
# 1 96.2742 31.7937 14.7824 0.0000 15.8684 0.0000
# 2 31.7937 132.9219 14.1276 0.0000 9.0493 0.0000
# 3 14.7824 14.1276 61.4260 0.0000 3.3760 0.0000
# 4 0.0000 0.0000 0.0000 20.8288 0.0000 -0.5001
# 5 15.8684 9.0493 3.3760 0.0000 16.4891 0.0000
# 6 0.0000 0.0000 0.0000 -0.5001 0.0000 20.3528
#
#
#
# Elastic Compliance Matrix: (Units=1/GPa)
#
#
# Indices 1 2 3 4 5 6 
#
# 1 0.013266 -0.002194 -0.002076 0.000000 -0.011138 0.000000
# 2 -0.002194 0.008333 -0.001267 0.000000 -0.002202 0.000000
# 3 -0.002076 -0.001267 0.017115 0.000000 -0.000811 0.000000
# 4 0.000000 0.000000 0.000000 0.048039 0.000000 0.001180
# 5 -0.011138 -0.002202 -0.000811 0.000000 0.072739 0.000000
# 6 0.000000 0.000000 0.000000 0.001180 0.000000 0.049162
#
#
# Mechanical properties :
#
#
# Convention : Reuss Voigt Hill
#
# Bulk Modulus (GPa) = 36.18037 45.78107 40.98072
# Shear Modulus (GPa) = 21.83963 26.86206 24.35084
#
# Velocity S-wave (km/s) = 3.25906 3.61443 3.44133
# Velocity P-wave (km/s) = 5.63542 6.29952 5.97670
#
# Compressibility (1/GPa) = 0.02763930
#
# Stress axis : x y z
#
# Youngs Moduli (GPa) = 75.38005 120.00961 58.42707
#
# Poissons Ratio (x) = 0.26333 0.12128
# Poissons Ratio (y) = 0.16540 0.07405
# Poissons Ratio (z) = 0.15647 0.15210
#
# Static dielectric constant tensor:
#      x y z
#    x 1.706640 0.000000 -0.006070 
#    y 0.000000 1.831360 0.000000 
#    z -0.006070 0.000000 1.802020 
# 
# From -- ./inp_files/39642.got.cif
#   From: 2010.05.17/outbox.cif.g08.bks.cpg/sg15_20_cif.got.tgz:39642.got - 2010.06.03 18:47:42.
