data_PCOD9296809
_publ_section_title
;
Structure prediction by ZEFSAII (Michael W. Deem and Ramdas Pophale) SiO2 
 PCOD9296809
Probable space group: C 2/C
;
_chemical_formula_sum "Si O2"
_cell_formula_units_Z 52
_cell_length_a 7.712510
_cell_length_b 13.283437
_cell_length_c 26.955220
_cell_angle_alpha 90.000000
_cell_angle_beta 113.500051
_cell_angle_gamma 90.000000
_cell_volume 2532.483937
_symmetry_space_group_name_H-M "C 2/C"
_symmetry_group_IT_number 15
_symmetry_cell_setting 'monoclinic'
loop_
_space_group_symop_operation_xyz
x,y,z
-x,y,1/2-z
-x,-y,-z
x,-y,1/2+z
1/2+x,1/2+y,z
1/2-x,1/2+y,1/2-z
1/2-x,1/2-y,-z
1/2+x,1/2-y,1/2+z
loop_
_atom_site_type_symbol
_atom_site_label
_atom_site_fract_x
_atom_site_fract_y
_atom_site_fract_z
Si Si1 0.775321 0.296811 0.057141
Si Si2 0.149043 0.148700 0.972769
Si Si3 0.622733 0.440008 0.713295
Si Si4 0.932397 0.509552 0.048886
Si Si5 0.000000 0.424837 0.250000
Si Si6 0.923910 0.720917 0.831091
Si Si7 0.284651 0.443899 0.127420
O O1 0.569502 0.324636 0.052533
O O2 0.879327 0.401147 0.061527
O O3 0.913671 0.242952 0.111523
O O4 0.750000 0.250000 0.000000
O O5 0.200673 0.108839 0.924459
O O6 0.250000 0.250000 0.000000
O O7 0.239714 0.072823 0.023736
O O8 0.500000 0.435790 0.750000
O O9 0.816686 0.504043 0.737570
O O10 0.658950 0.324823 0.700196
O O11 0.480382 0.501937 0.661600
O O12 0.118648 0.529908 0.103263
O O13 0.000000 0.500000 0.000000
O O14 0.984007 0.349760 0.200937
O O15 0.775137 0.645058 0.841181
#
# Coordination Sequence:
#
# PCOD9296809 Si02
#       7
#     8   8   8   8   4   8   8
#     4  11  23  41  64  97 138 178 227 282 342 422
#     4  11  22  39  63 101 136 184 222 274 345 414
#     4  12  26  47  77  99 139 186 231 302 361 411
#     4   9  20  38  62  91 131 171 216 269 330 403
#     4  12  26  50  70 108 134 180 248 286 362 428
#     4  11  25  47  72 104 141 184 236 294 357 422
#     4  10  23  46  67  99 138 177 229 293 343 422
#
# _framework density 20.533200000000001
#
# number of rings (size 3 to 8) (size 9 to 14) (size 15 to 20)
#    0.000    1.231    2.308    4.154    6.462    1.231 
#   16.615    0.000    0.000    0.000    0.000    0.000 
#    0.000    0.000    0.000    0.000    0.000    0.000 
#
# Total GULP energy -144915.863200 kJ/mol
# GULP energy per Si atom -5573.687046 kJ/mol
# Density = 2.048647 g / cm^3
# Si number density = 20.533200 Si / 1000 Ang^3
#
#
#
# Elastic Constant Matrix: (Units=GPa)
#
#
# Indices 1 2 3 4 5 6 
#
# 1 79.6973 13.6943 17.8013 0.0000 5.3096 0.0000
# 2 13.6943 84.3413 32.4093 0.0000 -0.5825 0.0000
# 3 17.8013 32.4093 78.0694 0.0000 1.4455 0.0000
# 4 0.0000 0.0000 0.0000 39.4315 0.0000 -1.2245
# 5 5.3096 -0.5825 1.4455 0.0000 35.6291 0.0000
# 6 0.0000 0.0000 0.0000 -1.2245 0.0000 30.5396
#
#
#
# Elastic Compliance Matrix: (Units=1/GPa)
#
#
# Indices 1 2 3 4 5 6 
#
# 1 0.013450 -0.001228 -0.002521 0.000000 -0.001922 0.000000
# 2 -0.001228 0.014227 -0.005638 0.000000 0.000644 0.000000
# 3 -0.002521 -0.005638 0.015731 0.000000 -0.000355 0.000000
# 4 0.000000 0.000000 0.000000 0.025392 0.000000 0.001018
# 5 -0.001922 0.000644 -0.000355 0.000000 0.028378 0.000000
# 6 0.000000 0.000000 0.000000 0.001018 0.000000 0.032785
#
#
# Mechanical properties :
#
#
# Convention : Reuss Voigt Hill
#
# Bulk Modulus (GPa) = 40.59637 41.10199 40.84918
# Shear Modulus (GPa) = 31.85741 33.00023 32.42882
#
# Velocity S-wave (km/s) = 3.94319 4.01329 3.97840
# Velocity P-wave (km/s) = 6.36755 6.44486 6.40632
#
# Compressibility (1/GPa) = 0.02463275
#
# Stress axis : x y z
#
# Youngs Moduli (GPa) = 74.35085 70.28929 63.56827
#
# Poissons Ratio (x) = 0.08633 0.16028
# Poissons Ratio (y) = 0.09132 0.35840
# Poissons Ratio (z) = 0.18746 0.39629
#
# Static dielectric constant tensor:
#      x y z
#    x 1.905750 0.000000 0.298130 
#    y 0.000000 1.760010 0.000000 
#    z 0.298130 0.000000 2.329340 
# 
# From -- ./inp_files/307283.got.cif
#   From: 2010.05.17/outbox.cif.g08.bks.cpg/sg15_154_cif.got.tgz:307283.got - 2010.06.03 18:47:42.
