data_PCOD9296684
_publ_section_title
;
Structure prediction by ZEFSAII (Michael W. Deem and Ramdas Pophale) SiO2 
 PCOD9296684
Probable space group: C 2/C
;
_chemical_formula_sum "Si O2"
_cell_formula_units_Z 44
_cell_length_a 21.739412
_cell_length_b 13.882703
_cell_length_c 8.417768
_cell_angle_alpha 90.000000
_cell_angle_beta 46.634088
_cell_angle_gamma 90.000000
_cell_volume 1846.899342
_symmetry_space_group_name_H-M "C 2/C"
_symmetry_group_IT_number 15
_symmetry_cell_setting 'monoclinic'
loop_
_space_group_symop_operation_xyz
x,y,z
-x,y,1/2-z
-x,-y,-z
x,-y,1/2+z
1/2+x,1/2+y,z
1/2-x,1/2+y,1/2-z
1/2-x,1/2-y,-z
1/2+x,1/2-y,1/2+z
loop_
_atom_site_type_symbol
_atom_site_label
_atom_site_fract_x
_atom_site_fract_y
_atom_site_fract_z
Si Si1 0.241331 0.099835 0.761482
Si Si2 0.895252 0.675807 0.304411
Si Si3 0.092864 0.110753 0.782815
Si Si4 0.750000 0.750000 0.000000
Si Si5 0.828668 0.401568 0.606152
Si Si6 0.500000 0.459728 0.750000
Si Si7 0.000000 0.519638 0.250000
O O1 0.331624 0.150964 0.560635
O O2 0.182772 0.103242 0.710169
O O3 0.205243 0.165107 0.965671
O O4 0.265226 0.989791 0.753386
O O5 0.920858 0.785630 0.269894
O O6 0.843231 0.661939 0.235638
O O7 0.971222 0.597968 0.167656
O O8 0.073262 0.029803 0.687285
O O9 0.029571 0.098442 0.044407
O O10 0.795346 0.664543 0.024686
O O11 0.918165 0.453246 0.412007
#
# Coordination Sequence:
#
# PCOD9296684 Si02
#       7
#     8   8   8   4   8   4   4
#     4  11  25  44  72 104 142 185 242 296 360 433
#     4  11  23  44  72 104 138 185 233 295 367 428
#     4  11  24  47  66 102 138 190 238 300 354 446
#     4  12  26  46  70 108 144 194 238 298 366 436
#     4  11  25  45  74 111 144 190 237 301 368 437
#     4  10  27  45  68  98 138 188 242 294 364 414
#     4  10  23  45  72 110 150 178 234 306 362 436
#
# _framework density 23.823715
#
# number of rings (size 3 to 8) (size 9 to 14) (size 15 to 20)
#    0.000    1.091    1.818    3.818    5.091    2.182 
#    9.818    0.000    0.000    0.000    0.000    0.000 
#    0.000    0.000    0.000    0.000    0.000    0.000 
#
# Total GULP energy -122594.376700 kJ/mol
# GULP energy per Si atom -5572.471668 kJ/mol
# Density = 2.376949 g / cm^3
# Si number density = 23.823715 Si / 1000 Ang^3
#
#
#
# Elastic Constant Matrix: (Units=GPa)
#
#
# Indices 1 2 3 4 5 6 
#
# 1 122.7742 16.6919 -3.5108 0.0000 3.6643 0.0000
# 2 16.6919 91.0497 -4.7355 0.0000 -23.9626 0.0000
# 3 -3.5108 -4.7355 24.6901 0.0000 -16.0145 0.0000
# 4 0.0000 0.0000 0.0000 15.1562 0.0000 19.9969
# 5 3.6643 -23.9626 -16.0145 0.0000 29.8149 0.0000
# 6 0.0000 0.0000 0.0000 19.9969 0.0000 46.1637
#
#
#
# Elastic Compliance Matrix: (Units=1/GPa)
#
#
# Indices 1 2 3 4 5 6 
#
# 1 0.008618 -0.002945 -0.002397 0.000000 -0.004713 0.000000
# 2 -0.002945 0.020046 0.021656 0.000000 0.028105 0.000000
# 3 -0.002397 0.021656 0.085627 0.000000 0.063692 0.000000
# 4 0.000000 0.000000 0.000000 0.153985 0.000000 -0.066702
# 5 -0.004713 0.028105 0.063692 0.000000 0.090919 0.000000
# 6 0.000000 0.000000 0.000000 -0.066702 0.000000 0.050556
#
#
# Mechanical properties :
#
#
# Convention : Reuss Voigt Hill
#
# Bulk Modulus (GPa) = 6.80649 28.37834 17.59242
# Shear Modulus (GPa) = 11.73447 33.56487 22.64967
#
# Velocity S-wave (km/s) = 2.22176 3.75758 3.08672
# Velocity P-wave (km/s) = 3.07325 5.54649 4.48377
#
# Compressibility (1/GPa) = 0.14691862
#
# Stress axis : x y z
#
# Youngs Moduli (GPa) = 116.04218 49.88545 11.67854
#
# Poissons Ratio (x) = 0.14691 0.02799
# Poissons Ratio (y) = 0.34174 -0.25291
# Poissons Ratio (z) = 0.27811 -1.08030
#
# Static dielectric constant tensor:
#      x y z
#    x 1.901180 0.000000 -0.005750 
#    y 0.000000 1.857390 0.000000 
#    z -0.005750 0.000000 2.009940 
# 
# From -- ./inp_files/54508.got.cif
#   From: 2010.05.17/outbox.cif.g08.bks.cpg/sg15_28_cif.got.tgz:54508.got - 2010.06.03 18:47:42.
