data_PCOD9296254
_publ_section_title
;
Structure prediction by ZEFSAII (Michael W. Deem and Ramdas Pophale) SiO2 
 PCOD9296254
Probable space group: C 2/C
;
_chemical_formula_sum "Si O2"
_cell_formula_units_Z 40
_cell_length_a 10.677589
_cell_length_b 11.240003
_cell_length_c 27.727706
_cell_angle_alpha 90.000000
_cell_angle_beta 147.618240
_cell_angle_gamma 90.000000
_cell_volume 1782.214861
_symmetry_space_group_name_H-M "C 2/C"
_symmetry_group_IT_number 15
_symmetry_cell_setting 'monoclinic'
loop_
_space_group_symop_operation_xyz
x,y,z
-x,y,1/2-z
-x,-y,-z
x,-y,1/2+z
1/2+x,1/2+y,z
1/2-x,1/2+y,1/2-z
1/2-x,1/2-y,-z
1/2+x,1/2-y,1/2+z
loop_
_atom_site_type_symbol
_atom_site_label
_atom_site_fract_x
_atom_site_fract_y
_atom_site_fract_z
Si Si1 0.303274 0.697663 0.146746
Si Si2 0.006673 0.237228 0.393863
Si Si3 0.409905 0.636055 0.539553
Si Si4 0.269161 0.977136 0.703206
Si Si5 0.949761 0.489811 0.868208
O O1 0.500000 0.727941 0.250000
O O2 0.427426 0.681471 0.136503
O O3 0.169148 0.585116 0.126989
O O4 0.118028 0.803789 0.077004
O O5 0.250000 0.250000 0.500000
O O6 0.823579 0.141544 0.353828
O O7 0.907376 0.369890 0.358886
O O8 0.250000 0.750000 0.500000
O O9 0.558322 0.572667 0.630240
O O10 0.226363 0.541658 0.458990
O O11 0.500000 0.017517 0.750000
O O12 0.347136 0.953624 0.783208
#
# Coordination Sequence:
#
# PCOD9296254 Si02
#       5
#     8   8   8   8   8
#     4  11  23  46  72 100 145 193 240 299 366 444
#     4  12  26  46  70 106 147 189 243 305 371 440
#     4  10  23  44  70 104 135 187 237 297 369 438
#     4  12  26  45  72 104 142 185 244 306 363 445
#     4  11  25  45  73 103 142 191 246 296 373 444
#
# _framework density 22.443982999999999
#
# number of rings (size 3 to 8) (size 9 to 14) (size 15 to 20)
#    0.000    0.800    4.000    3.000    5.600    3.200 
#    0.000    0.000    0.000    0.000    0.000    0.000 
#    0.000    0.000    0.000    0.000    0.000    0.000 
#
# Total GULP energy -111675.396873 kJ/mol
# GULP energy per Si atom -5583.769844 kJ/mol
# Density = 2.239290 g / cm^3
# Si number density = 22.443983 Si / 1000 Ang^3
#
#
#
# Elastic Constant Matrix: (Units=GPa)
#
#
# Indices 1 2 3 4 5 6 
#
# 1 57.6159 31.2342 28.7619 0.0000 -1.7645 0.0000
# 2 31.2342 101.3517 32.0694 -0.0001 15.7347 -0.0003
# 3 28.7619 32.0694 152.9303 -0.0002 9.5703 -0.0006
# 4 0.0000 -0.0001 -0.0002 -106.6213 0.0000 -499.2063
# 5 -1.7645 15.7347 9.5703 0.0000 36.3458 -0.0001
# 6 0.0000 -0.0003 -0.0006 -499.2063 -0.0001-1610.9760
#
#
#
# Elastic Compliance Matrix: (Units=1/GPa)
#
#
# Indices 1 2 3 4 5 6 
#
# 1 0.022753 -0.006766 -0.003165 0.000000 0.004867 0.000000
# 2 -0.006766 0.013203 -0.001137 0.000000 -0.005745 0.000000
# 3 -0.003165 -0.001137 0.007475 0.000000 -0.001630 0.000000
# 4 0.000000 0.000000 0.000000 0.020802 0.000000 -0.006446
# 5 0.004867 -0.005745 -0.001630 0.000000 0.030666 0.000000
# 6 0.000000 0.000000 0.000000 -0.006446 0.000000 0.001377
#
#
# Mechanical properties :
#
#
# Convention : Reuss Voigt Hill
#
# Bulk Modulus (GPa) = 46.95823 55.11432 51.03628
# Shear Modulus (GPa) = 39.83722 -321.59482 -140.87880
#
# Velocity S-wave (km/s) = 4.21760 -11.98327 -7.93129
# Velocity P-wave (km/s) = 6.68471 12.91725 7.81569
#
# Compressibility (1/GPa) = 0.02129552
#
# Stress axis : x y z
#
# Youngs Moduli (GPa) = 43.94949 75.73792 133.78783
#
# Poissons Ratio (x) = 0.51246 0.42344
# Poissons Ratio (y) = 0.29737 0.15207
# Poissons Ratio (z) = 0.13910 0.08609
#
# Static dielectric constant tensor:
#      x y z
#    x 1.810110 0.000000 0.024250 
#    y 0.000000 1.922560 0.000000 
#    z 0.024250 0.000000 1.816430 
# 
# From -- ./inp_files/141723.got.cif
#   From: 2010.05.17/outbox.cif.g08.bks.cpg/sg15_71_cif.got.tgz:141723.got - 2010.06.03 18:47:42.
