data_PCOD9296623
_publ_section_title
;
Structure prediction by ZEFSAII (Michael W. Deem and Ramdas Pophale) SiO2 
 PCOD9296623
Probable space group: C 2/C
;
_chemical_formula_sum "Si O2"
_cell_formula_units_Z 32
_cell_length_a 18.493569
_cell_length_b 4.750272
_cell_length_c 23.451041
_cell_angle_alpha 90.000000
_cell_angle_beta 36.858561
_cell_angle_gamma 90.000000
_cell_volume 1235.770971
_symmetry_space_group_name_H-M "C 2/C"
_symmetry_group_IT_number 15
_symmetry_cell_setting 'monoclinic'
loop_
_space_group_symop_operation_xyz
x,y,z
-x,y,1/2-z
-x,-y,-z
x,-y,1/2+z
1/2+x,1/2+y,z
1/2-x,1/2+y,1/2-z
1/2-x,1/2-y,-z
1/2+x,1/2-y,1/2+z
loop_
_atom_site_type_symbol
_atom_site_label
_atom_site_fract_x
_atom_site_fract_y
_atom_site_fract_z
Si Si1 0.708793 0.563685 0.971506
Si Si2 0.540169 0.033347 0.074191
Si Si3 0.595666 0.225407 0.731654
Si Si4 0.787962 0.326257 0.692460
O O1 0.633652 0.282290 0.029533
O O2 0.612780 0.772396 0.002651
O O3 0.750000 0.750000 0.000000
O O4 0.824330 0.522995 0.858866
O O5 0.429426 0.120696 0.104044
O O6 0.478951 0.924384 0.171364
O O7 0.500000 0.371845 0.750000
O O8 0.696902 0.409967 0.699486
O O9 0.734384 0.498768 0.780259
#
# Coordination Sequence:
#
# PCOD9296623 Si02
#       4
#     8   8   8   8
#     4  12  26  45  72 108 138 183 239 290 348 415
#     4  11  25  48  70 101 148 179 233 295 343 419
#     4  11  25  46  74 106 138 192 228 293 352 414
#     4  10  23  45  70 103 141 188 232 286 352 417
#
# _framework density 25.894767000000002
#
# number of rings (size 3 to 8) (size 9 to 14) (size 15 to 20)
#    0.000    1.000    2.500    3.750    0.000    8.000 
#    0.000    0.000    0.000    0.000    0.000    0.000 
#    0.000    0.000    0.000    0.000    0.000    0.000 
#
# Total GULP energy -89497.371477 kJ/mol
# GULP energy per Si atom -5593.585717 kJ/mol
# Density = 2.583583 g / cm^3
# Si number density = 25.894767 Si / 1000 Ang^3
#
#
#
# Elastic Constant Matrix: (Units=GPa)
#
#
# Indices 1 2 3 4 5 6 
#
# 1 181.4444 7.2028 17.4764 0.1269 -31.3952 0.1580
# 2 7.2028 88.7078 15.4274 0.0965 -9.3219 -0.0410
# 3 17.4764 15.4274 145.8977 0.0686 -5.7953 -0.0292
# 4 0.1269 0.0965 0.0686 27.0022 -0.0365 -18.6738
# 5 -31.3952 -9.3219 -5.7953 -0.0365 47.4304 0.1458
# 6 0.1580 -0.0410 -0.0292 -18.6738 0.1458 30.4355
#
#
#
# Elastic Compliance Matrix: (Units=1/GPa)
#
#
# Indices 1 2 3 4 5 6 
#
# 1 0.006275 0.000023 -0.000592 -0.000102 0.004086 -0.000116
# 2 0.000023 0.011700 -0.001154 -0.000058 0.002174 -0.000031
# 3 -0.000592 -0.001154 0.007057 -0.000010 0.000244 0.000001
# 4 -0.000102 -0.000058 -0.000010 0.064332 -0.000152 0.039473
# 5 0.004086 0.002174 0.000244 -0.000152 0.024246 -0.000228
# 6 -0.000116 -0.000031 0.000001 0.039473 -0.000228 0.057077
#
#
# Mechanical properties :
#
#
# Convention : Reuss Voigt Hill
#
# Bulk Modulus (GPa) = 46.32512 55.14035 50.73274
# Shear Modulus (GPa) = 27.57459 46.03649 36.80554
#
# Velocity S-wave (km/s) = 3.26678 4.22101 3.77417
# Velocity P-wave (km/s) = 5.67078 6.71536 6.21505
#
# Compressibility (1/GPa) = 0.02158656
#
# Stress axis : x y z
#
# Youngs Moduli (GPa) = 159.37435 85.46858 141.70998
#
# Poissons Ratio (x) = -0.00195 0.08385
# Poissons Ratio (y) = -0.00364 0.16347
# Poissons Ratio (z) = 0.09430 0.09859
#
# Static dielectric constant tensor:
#      x y z
#    x 2.204380 -0.000090 0.077820 
#    y -0.000090 1.975320 0.000010 
#    z 0.077820 0.000010 2.035870 
# 
# From -- ./inp_files/164732.got.cif
#   From: 2010.05.17/outbox.cif.g08.bks.cpg/sg15_83_cif.got.tgz:164732.got - 2010.06.03 18:47:42.
