data_PCOD9296689
_publ_section_title
;
Structure prediction by ZEFSAII (Michael W. Deem and Ramdas Pophale) SiO2 
 PCOD9296689
Probable space group: C 2/C
;
_chemical_formula_sum "Si O2"
_cell_formula_units_Z 32
_cell_length_a 8.556999
_cell_length_b 12.557037
_cell_length_c 11.458434
_cell_angle_alpha 90.000000
_cell_angle_beta 102.776961
_cell_angle_gamma 90.000000
_cell_volume 1200.728168
_symmetry_space_group_name_H-M "C 2/C"
_symmetry_group_IT_number 15
_symmetry_cell_setting 'monoclinic'
loop_
_space_group_symop_operation_xyz
x,y,z
-x,y,1/2-z
-x,-y,-z
x,-y,1/2+z
1/2+x,1/2+y,z
1/2-x,1/2+y,1/2-z
1/2-x,1/2-y,-z
1/2+x,1/2-y,1/2+z
loop_
_atom_site_type_symbol
_atom_site_label
_atom_site_fract_x
_atom_site_fract_y
_atom_site_fract_z
Si Si1 0.665799 0.352305 0.116490
Si Si2 0.646726 0.919896 0.997549
Si Si3 0.500000 0.183938 0.250000
Si Si4 0.992602 0.244250 0.116799
Si Si5 0.000000 0.000000 0.500000
O O1 0.611213 0.258997 0.189644
O O2 0.838331 0.323072 0.097431
O O3 0.544103 0.350833 0.980498
O O4 0.613723 0.468094 0.140338
O O5 0.605010 0.880094 0.860064
O O6 0.821567 0.967743 0.036817
O O7 0.627809 0.818634 0.082868
O O8 0.500000 0.000000 0.000000
O O9 0.000000 0.207717 0.250000
#
# Coordination Sequence:
#
# PCOD9296689 Si02
#       5
#     8   8   4   8   4
#     4  10  24  46  68 111 140 194 250 294 376 444
#     4  11  25  48  72 107 149 194 247 308 369 439
#     4  10  26  48  74 102 156 202 244 304 380 452
#     4  10  23  45  72  97 152 195 233 304 380 437
#     4  12  26  46  72 112 140 186 262 300 356 442
#
# _framework density 26.650493999999998
#
# number of rings (size 3 to 8) (size 9 to 14) (size 15 to 20)
#    0.000    1.500    2.500    0.000    8.750    2.000 
#    2.250    0.000    0.000    0.000    0.000    0.000 
#    0.000    0.000    0.000    0.000    0.000    0.000 
#
# Total GULP energy -89186.636126 kJ/mol
# GULP energy per Si atom -5574.164758 kJ/mol
# Density = 2.658984 g / cm^3
# Si number density = 26.650494 Si / 1000 Ang^3
#
#
#
# Elastic Constant Matrix: (Units=GPa)
#
#
# Indices 1 2 3 4 5 6 
#
# 1 200.7862 83.7604 26.6232 0.0000 -27.4233 0.0000
# 2 83.7604 129.5210 54.9740 0.0000 -16.0101 0.0000
# 3 26.6232 54.9740 155.8150 0.0000 -12.0315 0.0000
# 4 0.0000 0.0000 0.0000 32.5450 0.0000 -31.8384
# 5 -27.4233 -16.0101 -12.0315 0.0000 32.3307 0.0000
# 6 0.0000 0.0000 0.0000 -31.8384 0.0000 56.4979
#
#
#
# Elastic Compliance Matrix: (Units=1/GPa)
#
#
# Indices 1 2 3 4 5 6 
#
# 1 0.007356 -0.004513 0.000664 0.000000 0.004251 0.000000
# 2 -0.004513 0.012228 -0.003471 0.000000 0.000936 0.000000
# 3 0.000664 -0.003471 0.007660 0.000000 0.001695 0.000000
# 4 0.000000 0.000000 0.000000 0.068479 0.000000 0.038590
# 5 0.004251 0.000936 0.001695 0.000000 0.035630 0.000000
# 6 0.000000 0.000000 0.000000 0.038590 0.000000 0.039447
#
#
# Mechanical properties :
#
#
# Convention : Reuss Voigt Hill
#
# Bulk Modulus (GPa) = 79.34446 90.75970 85.05208
# Shear Modulus (GPa) = 26.36546 45.65902 36.01224
#
# Velocity S-wave (km/s) = 3.14873 4.14364 3.67996
# Velocity P-wave (km/s) = 6.56172 7.55132 7.07385
#
# Compressibility (1/GPa) = 0.01260327
#
# Stress axis : x y z
#
# Youngs Moduli (GPa) = 135.94770 81.77796 130.54963
#
# Poissons Ratio (x) = 0.36908 -0.08665
# Poissons Ratio (y) = 0.61355 0.45313
# Poissons Ratio (z) = -0.09023 0.28385
#
# Static dielectric constant tensor:
#      x y z
#    x 2.026140 0.000000 0.147940 
#    y 0.000000 2.466400 0.000000 
#    z 0.147940 0.000000 2.141810 
# 
# From -- ./inp_files/75651.got.cif
#   From: 2010.05.17/outbox.cif.g08.bks.cpg/sg15_38_cif.got.tgz:75651.got - 2010.06.03 18:47:42.
