data_PCOD9296846
_publ_section_title
;
Structure prediction by ZEFSAII (Michael W. Deem and Ramdas Pophale) SiO2 
 PCOD9296846
Probable space group: C 2/C
;
_chemical_formula_sum "Si O2"
_cell_formula_units_Z 36
_cell_length_a 15.051420
_cell_length_b 17.122951
_cell_length_c 6.992358
_cell_angle_alpha 90.000000
_cell_angle_beta 46.966469
_cell_angle_gamma 90.000000
_cell_volume 1317.255620
_symmetry_space_group_name_H-M "C 2/C"
_symmetry_group_IT_number 15
_symmetry_cell_setting 'monoclinic'
loop_
_space_group_symop_operation_xyz
x,y,z
-x,y,1/2-z
-x,-y,-z
x,-y,1/2+z
1/2+x,1/2+y,z
1/2-x,1/2+y,1/2-z
1/2-x,1/2-y,-z
1/2+x,1/2-y,1/2+z
loop_
_atom_site_type_symbol
_atom_site_label
_atom_site_fract_x
_atom_site_fract_y
_atom_site_fract_z
Si Si1 0.277628 0.223454 0.244056
Si Si2 0.327019 0.442484 0.206026
Si Si3 0.535385 0.804814 0.474651
Si Si4 0.810911 0.580103 0.949507
Si Si5 0.000000 0.066881 0.750000
O O1 0.250000 0.250000 0.500000
O O2 0.424141 0.235996 0.027115
O O3 0.163016 0.257521 0.292427
O O4 0.280227 0.132589 0.177345
O O5 0.213552 0.489319 0.466663
O O6 0.409210 0.394263 0.233139
O O7 0.285323 0.399835 0.078321
O O8 0.411613 0.511712 0.001996
O O9 0.500000 0.815599 0.750000
O O10 0.566950 0.888029 0.328915
#
# Coordination Sequence:
#
# PCOD9296846 Si02
#       5
#     8   8   8   8   4
#     4  10  23  46  70 102 138 186 244 308 364 433
#     4   9  20  38  61  97 145 189 239 292 366 430
#     4  10  23  46  70 100 141 183 245 307 364 432
#     4  11  22  41  68 100 145 186 240 302 366 433
#     4   8  16  38  56  88 146 186 238 292 330 430
#
# _framework density 27.329545
#
# number of rings (size 3 to 8) (size 9 to 14) (size 15 to 20)
#    0.000    2.222    0.000    1.333    0.000    7.111 
#   30.000    7.778    0.000    0.000    0.000    0.000 
#    0.000    0.000    0.000    0.000    0.000    0.000 
#
# Total GULP energy -100421.553582 kJ/mol
# GULP energy per Si atom -5578.975199 kJ/mol
# Density = 2.726734 g / cm^3
# Si number density = 27.329545 Si / 1000 Ang^3
#
#
#
# Elastic Constant Matrix: (Units=GPa)
#
#
# Indices 1 2 3 4 5 6 
#
# 1 214.5395 42.9334 38.8977 0.0000 -24.4892 0.0000
# 2 42.9334 94.3060 44.3283 0.0000 -11.1337 0.0000
# 3 38.8977 44.3283 173.4498 0.0000 -10.2972 0.0000
# 4 0.0000 0.0000 0.0000 -234.9613 0.0000 173.1870
# 5 -24.4892 -11.1337 -10.2972 0.0000 45.7284 0.0000
# 6 0.0000 0.0000 0.0000 173.1870 0.0000 -66.6498
#
#
#
# Elastic Compliance Matrix: (Units=1/GPa)
#
#
# Indices 1 2 3 4 5 6 
#
# 1 0.005414 -0.001917 -0.000588 0.000000 0.002300 0.000000
# 2 -0.001917 0.012968 -0.002795 0.000000 0.001501 0.000000
# 3 -0.000588 -0.002795 0.006641 0.000000 0.000500 0.000000
# 4 0.000000 0.000000 0.000000 0.004650 0.000000 0.012083
# 5 0.002300 0.001501 0.000500 0.000000 0.023578 0.000000
# 6 0.000000 0.000000 0.000000 0.012083 0.000000 0.016392
#
#
# Mechanical properties :
#
#
# Convention : Reuss Voigt Hill
#
# Bulk Modulus (GPa) = 69.33226 81.62378 75.47802
# Shear Modulus (GPa) = 58.78888 -27.43414 15.67737
#
# Velocity S-wave (km/s) = 4.64304 -3.17176 2.39768
# Velocity P-wave (km/s) = 7.35988 4.06422 5.94499
#
# Compressibility (1/GPa) = 0.01442330
#
# Stress axis : x y z
#
# Youngs Moduli (GPa) = 184.71066 77.11575 150.57579
#
# Poissons Ratio (x) = 0.14782 0.08849
# Poissons Ratio (y) = 0.35407 0.42087
# Poissons Ratio (z) = 0.10855 0.21554
#
# Static dielectric constant tensor:
#      x y z
#    x 2.195110 0.000000 -0.010480 
#    y 0.000000 2.135870 0.000000 
#    z -0.010480 0.000000 2.150610 
# 
# From -- ./inp_files/40522.got.cif
#   From: 2010.05.17/outbox.cif.g08.bks.cpg/sg15_21_cif.got.tgz:40522.got - 2010.06.03 18:47:42.
