data_PCOD9296997
_publ_section_title
;
Structure prediction by ZEFSAII (Michael W. Deem and Ramdas Pophale) SiO2 
 PCOD9296997
Probable space group: C 2/C
;
_chemical_formula_sum "Si O2"
_cell_formula_units_Z 52
_cell_length_a 17.901036
_cell_length_b 7.813949
_cell_length_c 26.604571
_cell_angle_alpha 90.000000
_cell_angle_beta 39.272588
_cell_angle_gamma 90.000000
_cell_volume 2355.678195
_symmetry_space_group_name_H-M "C 2/C"
_symmetry_group_IT_number 15
_symmetry_cell_setting 'monoclinic'
loop_
_space_group_symop_operation_xyz
x,y,z
-x,y,1/2-z
-x,-y,-z
x,-y,1/2+z
1/2+x,1/2+y,z
1/2-x,1/2+y,1/2-z
1/2-x,1/2-y,-z
1/2+x,1/2-y,1/2+z
loop_
_atom_site_type_symbol
_atom_site_label
_atom_site_fract_x
_atom_site_fract_y
_atom_site_fract_z
Si Si1 0.634146 0.381797 0.460693
Si Si2 0.610215 0.530277 0.365786
Si Si3 0.259101 0.914436 0.963542
Si Si4 0.152427 0.731674 0.260210
Si Si5 0.502045 0.948590 0.188489
Si Si6 0.500000 0.386155 0.250000
Si Si7 0.341284 0.643146 0.397272
O O1 0.626349 0.403420 0.405468
O O2 0.511153 0.371030 0.554813
O O3 0.679399 0.567136 0.456561
O O4 0.738780 0.248231 0.420664
O O5 0.709832 0.679011 0.309810
O O6 0.617128 0.390563 0.315933
O O7 0.390471 0.925286 0.876976
O O8 0.250000 0.750000 0.000000
O O9 0.219348 0.062398 0.022546
O O10 0.088211 0.784677 0.241343
O O11 0.100348 0.535672 0.290135
O O12 0.500000 0.925278 0.250000
O O13 0.552147 0.769244 0.142959
O O14 0.408212 0.501955 0.329529
#
# Coordination Sequence:
#
# PCOD9296997 Si02
#       7
#     8   8   8   8   8   4   8
#     4  10  23  47  67  98 144 199 231 300 368 448
#     4  11  27  46  69  99 155 188 240 293 384 441
#     4  11  23  40  71 105 139 180 244 304 356 425
#     4  12  27  45  72 108 143 194 239 306 363 440
#     4  11  21  42  69 104 136 184 236 307 357 414
#     4  12  26  44  74 114 138 182 262 306 354 442
#     4  11  24  41  76 104 140 182 251 308 361 427
#
# _framework density 22.074321000000001
#
# number of rings (size 3 to 8) (size 9 to 14) (size 15 to 20)
#    0.000    0.923    1.538    6.462    4.308    2.462 
#    0.000    0.769    0.000    0.000    0.000    0.000 
#    0.000    0.000    0.000    0.000    0.000    0.000 
#
# Total GULP energy -144804.936167 kJ/mol
# GULP energy per Si atom -5569.420622 kJ/mol
# Density = 2.202408 g / cm^3
# Si number density = 22.074321 Si / 1000 Ang^3
#
#
#
# Elastic Constant Matrix: (Units=GPa)
#
#
# Indices 1 2 3 4 5 6 
#
# 1 73.6813 18.7035 4.1302 0.0017 3.3323 -0.0056
# 2 18.7035 86.0025 11.5338 0.0036 0.7105 -0.0039
# 3 4.1302 11.5338 84.8684 0.0003 -11.1433 -0.0013
# 4 0.0017 0.0036 0.0003 39.8378 0.0001 11.5843
# 5 3.3323 0.7105 -11.1433 0.0001 36.7214 0.0002
# 6 -0.0056 -0.0039 -0.0013 11.5843 0.0002 18.9313
#
#
#
# Elastic Compliance Matrix: (Units=1/GPa)
#
#
# Indices 1 2 3 4 5 6 
#
# 1 0.014440 -0.003066 -0.000469 -0.000002 -0.001393 0.000005
# 2 -0.003066 0.012514 -0.001611 -0.000002 -0.000453 0.000003
# 3 -0.000469 -0.001611 0.012534 0.000000 0.003877 0.000000
# 4 -0.000002 -0.000002 0.000000 0.030535 0.000000 -0.018685
# 5 -0.001393 -0.000453 0.003877 0.000000 0.028544 -0.000001
# 6 0.000005 0.000003 0.000000 -0.018685 -0.000001 0.064256
#
#
# Mechanical properties :
#
#
# Convention : Reuss Voigt Hill
#
# Bulk Modulus (GPa) = 34.25146 34.80968 34.53057
# Shear Modulus (GPa) = 27.34545 33.11043 30.22794
#
# Velocity S-wave (km/s) = 3.52346 3.87712 3.70452
# Velocity P-wave (km/s) = 5.66597 5.98718 5.82879
#
# Compressibility (1/GPa) = 0.02919583
#
# Stress axis : x y z
#
# Youngs Moduli (GPa) = 69.25442 79.90992 79.78434
#
# Poissons Ratio (x) = 0.24499 0.03742
# Poissons Ratio (y) = 0.21232 0.12853
# Poissons Ratio (z) = 0.03248 0.12873
#
# Static dielectric constant tensor:
#      x y z
#    x 1.951150 0.000000 -0.034720 
#    y 0.000000 1.878140 0.000000 
#    z -0.034720 0.000000 1.855650 
# 
# From -- ./inp_files/298318.got.cif
#   From: 2010.05.17/outbox.cif.g08.bks.cpg/sg15_150_cif.got.tgz:298318.got - 2010.06.03 18:47:42.
