data_PCOD9296723
_publ_section_title
;
Structure prediction by ZEFSAII (Michael W. Deem and Ramdas Pophale) SiO2 
 PCOD9296723
Probable space group: C 2/C
;
_chemical_formula_sum "Si O2"
_cell_formula_units_Z 40
_cell_length_a 13.517769
_cell_length_b 9.116629
_cell_length_c 14.171852
_cell_angle_alpha 90.000000
_cell_angle_beta 87.826569
_cell_angle_gamma 90.000000
_cell_volume 1745.232818
_symmetry_space_group_name_H-M "C 2/C"
_symmetry_group_IT_number 15
_symmetry_cell_setting 'monoclinic'
loop_
_space_group_symop_operation_xyz
x,y,z
-x,y,1/2-z
-x,-y,-z
x,-y,1/2+z
1/2+x,1/2+y,z
1/2-x,1/2+y,1/2-z
1/2-x,1/2-y,-z
1/2+x,1/2-y,1/2+z
loop_
_atom_site_type_symbol
_atom_site_label
_atom_site_fract_x
_atom_site_fract_y
_atom_site_fract_z
Si Si1 0.496344 0.844433 0.050458
Si Si2 0.348991 0.233761 0.262636
Si Si3 0.833759 0.165247 0.551142
Si Si4 0.155850 0.140933 0.383931
Si Si5 0.000000 0.976569 0.250000
Si Si6 0.000000 0.527529 0.750000
O O1 0.387556 0.778420 0.059344
O O2 0.524232 0.876302 0.157941
O O3 0.564826 0.728072 0.994810
O O4 0.500000 0.000000 0.000000
O O5 0.322544 0.297421 0.161534
O O6 0.251954 0.192039 0.323843
O O7 0.422945 0.359951 0.301709
O O8 0.408815 0.083948 0.240787
O O9 0.750000 0.250000 0.500000
O O10 0.823245 0.991636 0.545928
O O11 0.068081 0.074878 0.317560
#
# Coordination Sequence:
#
# PCOD9296723 Si02
#       6
#     8   8   8   8   4   4
#     4  12  26  45  73 105 145 192 245 307 373 447
#     4  10  23  45  74 107 146 194 247 311 375 447
#     4  11  25  46  70 108 149 187 250 310 375 454
#     4  11  25  46  74 108 148 195 249 309 380 445
#     4   9  23  42  74 108 144 190 254 304 366 450
#     4  11  23  46  74 102 146 194 248 302 378 446
#
# _framework density 22.919578000000001
#
# number of rings (size 3 to 8) (size 9 to 14) (size 15 to 20)
#    0.000    1.200    2.000    2.400   11.200    0.000 
#    0.000    2.000    0.000    0.000    0.000    0.000 
#    0.000    0.000    0.000    0.000    0.000    0.000 
#
# Total GULP energy -111893.187134 kJ/mol
# GULP energy per Si atom -5594.659357 kJ/mol
# Density = 2.286741 g / cm^3
# Si number density = 22.919578 Si / 1000 Ang^3
#
#
#
# Elastic Constant Matrix: (Units=GPa)
#
#
# Indices 1 2 3 4 5 6 
#
# 1 107.8933 37.7250 32.3776 0.0000 -28.9714 0.0000
# 2 37.7250 137.4438 44.9787 0.0000 -20.1537 0.0000
# 3 32.3776 44.9787 87.1710 0.0000 -26.5037 0.0000
# 4 0.0000 0.0000 0.0000********** 0.0000-3153.6388
# 5 -28.9714 -20.1537 -26.5037 0.0000 45.5844 0.0000
# 6 0.0000 0.0000 0.0000-3153.6388 0.0000 -165.3785
#
#
#
# Elastic Compliance Matrix: (Units=1/GPa)
#
#
# Indices 1 2 3 4 5 6 
#
# 1 0.011999 -0.001879 -0.001726 0.000000 0.005791 0.000000
# 2 -0.001879 0.009135 -0.003827 0.000000 0.000619 0.000000
# 3 -0.001726 -0.003827 0.016083 0.000000 0.006562 0.000000
# 4 0.000000 0.000000 0.000000 0.000122 0.000000 -0.002326
# 5 0.005791 0.000619 0.006562 0.000000 0.029707 0.000000
# 6 0.000000 0.000000 0.000000 -0.002326 0.000000 0.038311
#
#
# Mechanical properties :
#
#
# Convention : Reuss Voigt Hill
#
# Bulk Modulus (GPa) = 44.74099 62.51899 53.62999
# Shear Modulus (GPa) = 39.16308 -10397.40600 -5179.12146
#
# Velocity S-wave (km/s) = 4.13815 -67.42642 -47.58780
# Velocity P-wave (km/s) = 6.51119 77.68157 54.73587
#
# Compressibility (1/GPa) = 0.02235087
#
# Stress axis : x y z
#
# Youngs Moduli (GPa) = 83.34327 109.47235 62.17910
#
# Poissons Ratio (x) = 0.20573 0.10733
# Poissons Ratio (y) = 0.15662 0.23797
# Poissons Ratio (z) = 0.14386 0.41896
#
# Static dielectric constant tensor:
#      x y z
#    x 1.685620 0.000000 0.073630 
#    y 0.000000 1.966400 0.000000 
#    z 0.073630 0.000000 1.857090 
# 
# From -- ./inp_files/150648.got.cif
#   From: 2010.05.17/outbox.cif.g08.bks.cpg/sg15_76_cif.got.tgz:150648.got - 2010.06.03 18:47:42.
