data_PCOD9296338
_publ_section_title
;
Structure prediction by ZEFSAII (Michael W. Deem and Ramdas Pophale) SiO2 
 PCOD9296338
Probable space group: C 2/C
;
_chemical_formula_sum "Si O2"
_cell_formula_units_Z 52
_cell_length_a 9.700725
_cell_length_b 8.925523
_cell_length_c 27.421447
_cell_angle_alpha 90.000000
_cell_angle_beta 102.190518
_cell_angle_gamma 90.000000
_cell_volume 2320.722245
_symmetry_space_group_name_H-M "C 2/C"
_symmetry_group_IT_number 15
_symmetry_cell_setting 'monoclinic'
loop_
_space_group_symop_operation_xyz
x,y,z
-x,y,1/2-z
-x,-y,-z
x,-y,1/2+z
1/2+x,1/2+y,z
1/2-x,1/2+y,1/2-z
1/2-x,1/2-y,-z
1/2+x,1/2-y,1/2+z
loop_
_atom_site_type_symbol
_atom_site_label
_atom_site_fract_x
_atom_site_fract_y
_atom_site_fract_z
Si Si1 0.759915 0.659053 0.285186
Si Si2 0.096603 0.959729 0.209713
Si Si3 0.944903 0.515383 0.852238
Si Si4 0.000000 0.616909 0.750000
Si Si5 0.176562 0.360568 0.934488
Si Si6 0.539137 0.646530 0.109929
Si Si7 0.133760 0.027050 0.974214
O O1 0.881241 0.783711 0.294499
O O2 0.735612 0.551981 0.236932
O O3 0.626052 0.768204 0.272527
O O4 0.788699 0.556214 0.334752
O O5 0.000000 0.977343 0.250000
O O6 0.048560 0.035302 0.156482
O O7 0.984386 0.522627 0.798116
O O8 0.047203 0.420228 0.893462
O O9 0.957680 0.684243 0.871279
O O10 0.317683 0.362833 0.911743
O O11 0.138060 0.194218 0.951046
O O12 0.222796 0.468661 0.983154
O O13 0.401041 0.597317 0.068998
O O14 0.000000 0.000000 0.000000
#
# Coordination Sequence:
#
# PCOD9296338 Si02
#       7
#     8   8   8   4   8   8   8
#     4  12  24  40  60  89 130 178 227 272 324 393
#     4  12  24  40  63  94 134 179 224 273 333 399
#     4  12  26  40  66 100 134 180 230 271 335 403
#     4  12  24  44  60  92 144 174 230 280 320 398
#     4  10  23  44  72 100 132 178 223 283 349 407
#     4  11  23  43  66 101 134 177 225 277 338 406
#     4   9  21  46  73  99 136 172 226 288 347 408
#
# _framework density 22.406817
#
# number of rings (size 3 to 8) (size 9 to 14) (size 15 to 20)
#    0.000    0.923    3.846    1.846    1.077    6.769 
#    0.000    6.923    0.000    0.000    0.000    0.000 
#    0.000    0.000    0.000    0.000    0.000    0.000 
#
# Total GULP energy -145052.657113 kJ/mol
# GULP energy per Si atom -5578.948351 kJ/mol
# Density = 2.235582 g / cm^3
# Si number density = 22.406817 Si / 1000 Ang^3
#
#
#
# Elastic Constant Matrix: (Units=GPa)
#
#
# Indices 1 2 3 4 5 6 
#
# 1 47.5754 28.9507 40.6787 0.0000 1.9371 0.0000
# 2 28.9507 132.0904 58.3210 0.0000 2.2081 0.0000
# 3 40.6787 58.3210 170.9258 0.0000 24.4001 0.0000
# 4 0.0000 0.0000 0.0000 48.1456 0.0000 10.8162
# 5 1.9371 2.2081 24.4001 0.0000 35.1410 0.0000
# 6 0.0000 0.0000 0.0000 10.8162 0.0000 18.9950
#
#
#
# Elastic Compliance Matrix: (Units=1/GPa)
#
#
# Indices 1 2 3 4 5 6 
#
# 1 0.028111 -0.003627 -0.005843 0.000000 0.002736 0.000000
# 2 -0.003627 0.009476 -0.002568 0.000000 0.001388 0.000000
# 3 -0.005843 -0.002568 0.008934 0.000000 -0.005720 0.000000
# 4 0.000000 0.000000 0.000000 0.023817 0.000000 -0.013562
# 5 0.002736 0.001388 -0.005720 0.000000 0.032190 0.000000
# 6 0.000000 0.000000 0.000000 -0.013562 0.000000 0.060368
#
#
# Mechanical properties :
#
#
# Convention : Reuss Voigt Hill
#
# Bulk Modulus (GPa) = 44.55444 67.38803 55.97123
# Shear Modulus (GPa) = 25.71286 35.29906 30.50596
#
# Velocity S-wave (km/s) = 3.39122 3.97340 3.69380
# Velocity P-wave (km/s) = 5.93812 7.15476 6.57465
#
# Compressibility (1/GPa) = 0.02244445
#
# Stress axis : x y z
#
# Youngs Moduli (GPa) = 35.57311 105.52657 111.93301
#
# Poissons Ratio (x) = 0.38275 0.65403
# Poissons Ratio (y) = 0.12903 0.28747
# Poissons Ratio (z) = 0.20786 0.27102
#
# Static dielectric constant tensor:
#      x y z
#    x 2.076400 0.000000 0.018320 
#    y 0.000000 1.846980 0.000000 
#    z 0.018320 0.000000 1.827630 
# 
# From -- ./inp_files/310092.got.cif
#   From: 2010.05.17/outbox.cif.g08.bks.cpg/sg15_156_cif.got.tgz:310092.got - 2010.06.03 18:47:42.
