data_PCOD9296803
_publ_section_title
;
Structure prediction by ZEFSAII (Michael W. Deem and Ramdas Pophale) SiO2 
 PCOD9296803
Probable space group: C 2/C
;
_chemical_formula_sum "Si O2"
_cell_formula_units_Z 44
_cell_length_a 11.550913
_cell_length_b 21.700669
_cell_length_c 8.574414
_cell_angle_alpha 90.000000
_cell_angle_beta 80.519477
_cell_angle_gamma 90.000000
_cell_volume 2119.928712
_symmetry_space_group_name_H-M "C 2/C"
_symmetry_group_IT_number 15
_symmetry_cell_setting 'monoclinic'
loop_
_space_group_symop_operation_xyz
x,y,z
-x,y,1/2-z
-x,-y,-z
x,-y,1/2+z
1/2+x,1/2+y,z
1/2-x,1/2+y,1/2-z
1/2-x,1/2-y,-z
1/2+x,1/2-y,1/2+z
loop_
_atom_site_type_symbol
_atom_site_label
_atom_site_fract_x
_atom_site_fract_y
_atom_site_fract_z
Si Si1 0.852344 0.319275 0.536686
Si Si2 0.033871 0.066041 0.423880
Si Si3 0.638403 0.923880 0.195125
Si Si4 0.500000 0.105221 0.250000
Si Si5 0.087430 0.813387 0.586705
Si Si6 0.289439 0.041554 0.477381
O O1 0.853421 0.354267 0.369392
O O2 0.894319 0.249083 0.513749
O O3 0.718227 0.325331 0.621683
O O4 0.937956 0.354615 0.632192
O O5 0.171740 0.069252 0.429525
O O6 0.000000 0.063415 0.250000
O O7 0.963564 0.127197 0.493933
O O8 0.000000 0.000000 0.500000
O O9 0.500000 0.937022 0.250000
O O10 0.700044 0.939271 0.344977
O O11 0.698542 0.967975 0.051900
O O12 0.401176 0.066135 0.358449
O O13 0.000000 0.802063 0.750000
#
# Coordination Sequence:
#
# PCOD9296803 Si02
#       6
#     8   8   8   4   8   8
#     4  11  24  43  68  94 135 179 222 281 330 405
#     4  11  23  44  66  95 132 170 218 273 329 397
#     4  12  22  42  64 103 140 173 225 277 336 398
#     4  12  22  40  60 102 132 172 224 272 344 384
#     4  10  23  46  67  93 131 180 223 270 338 396
#     4  12  24  38  68 102 136 178 223 279 336 399
#
# _framework density 20.755413999999998
#
# number of rings (size 3 to 8) (size 9 to 14) (size 15 to 20)
#    0.000    0.727    2.727    6.545    0.000    0.000 
#    8.182    1.818    0.000    0.000    0.000    0.000 
#    0.000    0.000    0.000    0.000    0.000    0.000 
#
# Total GULP energy -122981.860777 kJ/mol
# GULP energy per Si atom -5590.084581 kJ/mol
# Density = 2.070817 g / cm^3
# Si number density = 20.755414 Si / 1000 Ang^3
#
#
#
# Elastic Constant Matrix: (Units=GPa)
#
#
# Indices 1 2 3 4 5 6 
#
# 1 149.3189 50.2047 32.1568 0.0000 -5.8255 0.0000
# 2 50.2047 148.3253 25.3405 0.0000 -4.3578 0.0000
# 3 32.1568 25.3405 77.9627 0.0000 12.4387 0.0000
# 4 0.0000 0.0000 0.0000 21.7078 0.0000 -9.5670
# 5 -5.8255 -4.3578 12.4387 0.0000 34.7613 0.0000
# 6 0.0000 0.0000 0.0000 -9.5670 0.0000 26.4224
#
#
#
# Elastic Compliance Matrix: (Units=1/GPa)
#
#
# Indices 1 2 3 4 5 6 
#
# 1 0.008163 -0.002186 -0.003002 0.000000 0.002168 0.000000
# 2 -0.002186 0.007835 -0.001849 0.000000 0.001277 0.000000
# 3 -0.003002 -0.001849 0.015678 0.000000 -0.006345 0.000000
# 4 0.000000 0.000000 0.000000 0.054813 0.000000 0.019846
# 5 0.002168 0.001277 -0.006345 0.000000 0.031562 0.000000
# 6 0.000000 0.000000 0.000000 0.019846 0.000000 0.045033
#
#
# Mechanical properties :
#
#
# Convention : Reuss Voigt Hill
#
# Bulk Modulus (GPa) = 56.81210 65.66790 61.24000
# Shear Modulus (GPa) = 27.31843 34.43864 30.87854
#
# Velocity S-wave (km/s) = 3.63189 4.07782 3.86130
# Velocity P-wave (km/s) = 6.70963 7.34024 7.03201
#
# Compressibility (1/GPa) = 0.01760188
#
# Stress axis : x y z
#
# Youngs Moduli (GPa) = 122.49801 127.62617 63.78256
#
# Poissons Ratio (x) = 0.27905 0.19150
# Poissons Ratio (y) = 0.26784 0.11792
# Poissons Ratio (z) = 0.36779 0.23595
#
# Static dielectric constant tensor:
#      x y z
#    x 1.725810 0.000000 -0.043060 
#    y 0.000000 1.806180 0.000000 
#    z -0.043060 0.000000 1.697900 
# 
# From -- ./inp_files/30823.got.cif
#   From: 2010.05.17/outbox.cif.g08.bks.cpg/sg15_16_cif.got.tgz:30823.got - 2010.06.03 18:47:42.
