data_PCOD9296469
_publ_section_title
;
Structure prediction by ZEFSAII (Michael W. Deem and Ramdas Pophale) SiO2 
 PCOD9296469
Probable space group: C 2/C
;
_chemical_formula_sum "Si O2"
_cell_formula_units_Z 44
_cell_length_a 11.083211
_cell_length_b 8.932637
_cell_length_c 24.396954
_cell_angle_alpha 90.000000
_cell_angle_beta 129.008691
_cell_angle_gamma 90.000000
_cell_volume 1876.852463
_symmetry_space_group_name_H-M "C 2/C"
_symmetry_group_IT_number 15
_symmetry_cell_setting 'monoclinic'
loop_
_space_group_symop_operation_xyz
x,y,z
-x,y,1/2-z
-x,-y,-z
x,-y,1/2+z
1/2+x,1/2+y,z
1/2-x,1/2+y,1/2-z
1/2-x,1/2-y,-z
1/2+x,1/2-y,1/2+z
loop_
_atom_site_type_symbol
_atom_site_label
_atom_site_fract_x
_atom_site_fract_y
_atom_site_fract_z
Si Si1 0.902580 0.028338 0.027544
Si Si2 0.962153 0.108413 0.657178
Si Si3 0.335377 0.683043 0.174385
Si Si4 0.196594 0.507449 0.218991
Si Si5 0.000000 0.360382 0.750000
Si Si6 0.096889 0.346206 0.411767
O O1 0.927335 0.199057 0.057615
O O2 0.949889 0.912102 0.088742
O O3 0.714376 0.029715 0.968369
O O4 0.000000 0.000000 0.000000
O O5 0.365647 0.956312 0.738808
O O6 0.931906 0.261268 0.680773
O O7 0.850062 0.979891 0.649938
O O8 0.500000 0.716507 0.250000
O O9 0.213995 0.659329 0.188164
O O10 0.315320 0.794511 0.118852
O O11 0.366977 0.440972 0.273447
O O12 0.070374 0.405659 0.153405
#
# Coordination Sequence:
#
# PCOD9296469 Si02
#       6
#     8   8   8   8   4   8
#     4  10  24  44  70  93 135 184 213 267 339 394
#     4  10  23  45  64  96 137 169 219 278 330 385
#     4   9  20  40  67  94 131 174 211 283 332 371
#     4  11  25  39  69 100 126 171 224 274 325 390
#     4  12  26  38  66 104 128 168 230 272 336 386
#     4  10  24  44  65  98 131 171 228 262 325 405
#
# _framework density 23.443504000000001
#
# number of rings (size 3 to 8) (size 9 to 14) (size 15 to 20)
#    0.000    1.818    2.727    0.000   14.000    0.000 
#    0.000   10.909    0.000    0.000    0.000    0.000 
#    0.000    0.000    0.000    0.000    0.000    0.000 
#
# Total GULP energy -123016.858284 kJ/mol
# GULP energy per Si atom -5591.675377 kJ/mol
# Density = 2.339015 g / cm^3
# Si number density = 23.443504 Si / 1000 Ang^3
#
#
#
# Elastic Constant Matrix: (Units=GPa)
#
#
# Indices 1 2 3 4 5 6 
#
# 1 126.4757 23.3346 44.0475 0.0000 -23.0639 0.0000
# 2 23.3346 44.3023 21.8998 0.0000 -3.1673 0.0000
# 3 44.0475 21.8998 96.4004 0.0000 -19.0299 0.0000
# 4 0.0000 0.0000 0.0000 41.7880 0.0000 -16.0057
# 5 -23.0639 -3.1673 -19.0299 0.0000 43.6642 0.0000
# 6 0.0000 0.0000 0.0000 -16.0057 0.0000 28.6499
#
#
#
# Elastic Compliance Matrix: (Units=1/GPa)
#
#
# Indices 1 2 3 4 5 6 
#
# 1 0.010377 -0.003630 -0.003159 0.000000 0.003841 0.000000
# 2 -0.003630 0.026719 -0.004822 0.000000 -0.002081 0.000000
# 3 -0.003159 -0.004822 0.013692 0.000000 0.003949 0.000000
# 4 0.000000 0.000000 0.000000 0.030445 0.000000 0.017009
# 5 0.003841 -0.002081 0.003949 0.000000 0.026501 0.000000
# 6 0.000000 0.000000 0.000000 0.017009 0.000000 0.044406
#
#
# Mechanical properties :
#
#
# Convention : Reuss Voigt Hill
#
# Bulk Modulus (GPa) = 36.27561 49.52691 42.90126
# Shear Modulus (GPa) = 27.09298 34.68017 30.88658
#
# Velocity S-wave (km/s) = 3.40320 3.85035 3.63366
# Velocity P-wave (km/s) = 5.56324 6.39835 5.99535
#
# Compressibility (1/GPa) = 0.02756673
#
# Stress axis : x y z
#
# Youngs Moduli (GPa) = 96.36852 37.42661 73.03722
#
# Poissons Ratio (x) = 0.13584 0.23069
# Poissons Ratio (y) = 0.34978 0.35220
# Poissons Ratio (z) = 0.30439 0.18048
#
# Static dielectric constant tensor:
#      x y z
#    x 1.884340 0.000000 -0.039010 
#    y 0.000000 1.939450 0.000000 
#    z -0.039010 0.000000 1.902000 
# 
# From -- ./inp_files/291876.got.cif
#   From: 2010.05.17/outbox.cif.g08.bks.cpg/sg15_146_cif.got.tgz:291876.got - 2010.06.03 18:47:42.
