data_PCOD9296652
_publ_section_title
;
Structure prediction by ZEFSAII (Michael W. Deem and Ramdas Pophale) SiO2 
 PCOD9296652
Probable space group: C 2/C
;
_chemical_formula_sum "Si O2"
_cell_formula_units_Z 40
_cell_length_a 32.460622
_cell_length_b 8.307775
_cell_length_c 22.708974
_cell_angle_alpha 90.000000
_cell_angle_beta 163.742534
_cell_angle_gamma 90.000000
_cell_volume 1714.454357
_symmetry_space_group_name_H-M "C 2/C"
_symmetry_group_IT_number 15
_symmetry_cell_setting 'monoclinic'
loop_
_space_group_symop_operation_xyz
x,y,z
-x,y,1/2-z
-x,-y,-z
x,-y,1/2+z
1/2+x,1/2+y,z
1/2-x,1/2+y,1/2-z
1/2-x,1/2-y,-z
1/2+x,1/2-y,1/2+z
loop_
_atom_site_type_symbol
_atom_site_label
_atom_site_fract_x
_atom_site_fract_y
_atom_site_fract_z
Si Si1 0.755791 0.276298 0.293493
Si Si2 0.654101 0.222444 0.457432
Si Si3 0.421838 0.784885 0.298875
Si Si4 0.799465 0.005251 0.565339
Si Si5 0.360437 0.392366 0.829117
O O1 0.791201 0.207982 0.406129
O O2 0.750472 0.467036 0.301456
O O3 0.868840 0.221471 0.398179
O O4 0.593087 0.220034 0.050407
O O5 0.500000 0.130782 0.250000
O O6 0.625686 0.368502 0.374447
O O7 0.765234 0.101793 0.578175
O O8 0.395499 0.647920 0.213603
O O9 0.333984 0.723812 0.236900
O O10 0.348288 0.943334 0.170446
O O11 0.500000 0.500000 0.000000
#
# Coordination Sequence:
#
# PCOD9296652 Si02
#       5
#     8   8   8   8   8
#     4  11  25  43  71  97 134 184 232 280 346 412
#     4  11  26  41  66 100 138 177 223 281 348 410
#     4  10  23  45  71  95 133 178 233 284 342 411
#     4  10  24  45  66  99 137 176 222 292 343 405
#     4  10  24  44  68 102 135 176 233 287 332 412
#
# _framework density 23.331039000000001
#
# number of rings (size 3 to 8) (size 9 to 14) (size 15 to 20)
#    0.000    1.600    2.000    0.000   11.200    2.400 
#    0.000    4.000    0.000    0.000    0.000    0.000 
#    0.000    0.000    0.000    0.000    0.000    0.000 
#
# Total GULP energy -111678.712786 kJ/mol
# GULP energy per Si atom -5583.935639 kJ/mol
# Density = 2.327794 g / cm^3
# Si number density = 23.331039 Si / 1000 Ang^3
#
#
#
# Elastic Constant Matrix: (Units=GPa)
#
#
# Indices 1 2 3 4 5 6 
#
# 1 126.9481 40.8978 30.3145 0.0000 -13.6604 0.0000
# 2 40.8978 50.5058 1.1657 0.0000 9.5298 0.0000
# 3 30.3145 1.1657 113.3215 0.0000 -16.7764 0.0000
# 4 0.0000 0.0000 0.0000 13.4447 0.0000 2.4886
# 5 -13.6604 9.5298 -16.7764 0.0000 28.8740 0.0000
# 6 0.0000 0.0000 0.0000 2.4886 0.0000 34.0626
#
#
#
# Elastic Compliance Matrix: (Units=1/GPa)
#
#
# Indices 1 2 3 4 5 6 
#
# 1 0.013428 -0.012578 -0.002087 0.000000 0.009291 0.000000
# 2 -0.012578 0.033092 0.000576 0.000000 -0.016538 0.000000
# 3 -0.002087 0.000576 0.010069 0.000000 0.004673 0.000000
# 4 0.000000 0.000000 0.000000 0.075398 0.000000 -0.005508
# 5 0.009291 -0.016538 0.004673 0.000000 0.047202 0.000000
# 6 0.000000 0.000000 0.000000 -0.005508 0.000000 0.029760
#
#
# Mechanical properties :
#
#
# Convention : Reuss Voigt Hill
#
# Bulk Modulus (GPa) = 35.19893 48.39238 41.79565
# Shear Modulus (GPa) = 20.27592 29.83610 25.05601
#
# Velocity S-wave (km/s) = 2.95117 3.57993 3.28065
# Velocity P-wave (km/s) = 5.17030 6.15423 5.68360
#
# Compressibility (1/GPa) = 0.02840996
#
# Stress axis : x y z
#
# Youngs Moduli (GPa) = 74.47313 30.21848 99.31893
#
# Poissons Ratio (x) = 0.38010 0.20729
# Poissons Ratio (y) = 0.93674 -0.05721
# Poissons Ratio (z) = 0.15543 -0.01741
#
# Static dielectric constant tensor:
#      x y z
#    x 1.911710 0.000000 0.016240 
#    y 0.000000 1.873410 0.000000 
#    z 0.016240 0.000000 1.952030 
# 
# From -- ./inp_files/102787.got.cif
#   From: 2010.05.17/outbox.cif.g08.bks.cpg/sg15_52_cif.got.tgz:102787.got - 2010.06.03 18:47:42.
