data_PCOD9296526
_publ_section_title
;
Structure prediction by ZEFSAII (Michael W. Deem and Ramdas Pophale) SiO2 
 PCOD9296526
Probable space group: C 2/C
;
_chemical_formula_sum "Si O2"
_cell_formula_units_Z 36
_cell_length_a 12.768789
_cell_length_b 14.964305
_cell_length_c 8.043692
_cell_angle_alpha 90.000000
_cell_angle_beta 87.392696
_cell_angle_gamma 90.000000
_cell_volume 1535.365829
_symmetry_space_group_name_H-M "C 2/C"
_symmetry_group_IT_number 15
_symmetry_cell_setting 'monoclinic'
loop_
_space_group_symop_operation_xyz
x,y,z
-x,y,1/2-z
-x,-y,-z
x,-y,1/2+z
1/2+x,1/2+y,z
1/2-x,1/2+y,1/2-z
1/2-x,1/2-y,-z
1/2+x,1/2-y,1/2+z
loop_
_atom_site_type_symbol
_atom_site_label
_atom_site_fract_x
_atom_site_fract_y
_atom_site_fract_z
Si Si1 0.500000 0.916573 0.750000
Si Si2 0.798024 0.539662 0.095687
Si Si3 0.153484 0.052882 0.393907
Si Si4 0.441571 0.824147 0.430621
Si Si5 0.044185 0.139470 0.926994
O O1 0.600656 0.973859 0.794588
O O2 0.515017 0.859117 0.580359
O O3 0.706428 0.578744 0.218199
O O4 0.746943 0.452279 0.020591
O O5 0.842304 0.609748 0.958285
O O6 0.112027 0.950090 0.391847
O O7 0.055479 0.110518 0.454617
O O8 0.500000 0.825072 0.250000
O O9 0.407517 0.725200 0.488173
O O10 0.000000 0.165565 0.750000
#
# Coordination Sequence:
#
# PCOD9296526 Si02
#       5
#     4   8   8   8   8
#     4   8  22  46  66  98 138 180 232 290 348 410
#     4  10  23  45  67 106 135 188 239 288 354 427
#     4  11  24  40  70 104 137 190 238 291 355 423
#     4  10  23  46  72  99 145 191 228 292 354 418
#     4  11  22  44  68 100 149 183 233 302 354 412
#
# _framework density 23.447178999999998
#
# number of rings (size 3 to 8) (size 9 to 14) (size 15 to 20)
#    1.333    0.444    3.333    0.000    3.111    3.556 
#    2.000    2.222    0.000    0.000    0.000    0.000 
#    0.000    0.000    0.000    0.000    0.000    0.000 
#
# Total GULP energy -100470.644442 kJ/mol
# GULP energy per Si atom -5581.702469 kJ/mol
# Density = 2.339381 g / cm^3
# Si number density = 23.447179 Si / 1000 Ang^3
#
#
#
# Elastic Constant Matrix: (Units=GPa)
#
#
# Indices 1 2 3 4 5 6 
#
# 1 73.1114 22.4885 19.0532 0.0000 -4.5690 0.0000
# 2 22.4885 82.0503 32.7868 0.0000 -8.7851 0.0000
# 3 19.0532 32.7868 169.6414 0.0000 -21.7243 0.0000
# 4 0.0000 0.0000 0.0000 18.0939 0.0000 2.0661
# 5 -4.5690 -8.7851 -21.7243 0.0000 46.3143 0.0000
# 6 0.0000 0.0000 0.0000 2.0661 0.0000 22.9703
#
#
#
# Elastic Compliance Matrix: (Units=1/GPa)
#
#
# Indices 1 2 3 4 5 6 
#
# 1 0.015088 -0.003727 -0.000930 0.000000 0.000345 0.000000
# 2 -0.003727 0.014213 -0.002160 0.000000 0.001315 0.000000
# 3 -0.000930 -0.002160 0.006758 0.000000 0.002669 0.000000
# 4 0.000000 0.000000 0.000000 0.055841 0.000000 -0.005023
# 5 0.000345 0.001315 0.002669 0.000000 0.023127 0.000000
# 6 0.000000 0.000000 0.000000 -0.005023 0.000000 0.043986
#
#
# Mechanical properties :
#
#
# Convention : Reuss Voigt Hill
#
# Bulk Modulus (GPa) = 44.59137 52.60669 48.59903
# Shear Modulus (GPa) = 27.75891 34.17402 30.96646
#
# Velocity S-wave (km/s) = 3.44450 3.82185 3.63807
# Velocity P-wave (km/s) = 5.90581 6.47768 6.19834
#
# Compressibility (1/GPa) = 0.02242587
#
# Stress axis : x y z
#
# Youngs Moduli (GPa) = 66.27765 70.35810 147.96260
#
# Poissons Ratio (x) = 0.26221 0.13762
# Poissons Ratio (y) = 0.24700 0.31960
# Poissons Ratio (z) = 0.06165 0.15197
#
# Static dielectric constant tensor:
#      x y z
#    x 1.932320 0.000000 0.061940 
#    y 0.000000 1.875940 0.000000 
#    z 0.061940 0.000000 1.919810 
# 
# From -- ./inp_files/28694.got.cif
#   From: 2010.05.17/outbox.cif.g08.bks.cpg/sg15_15_cif.got.tgz:28694.got - 2010.06.03 18:47:42.
