data_PCOD9296935
_publ_section_title
;
Structure prediction by ZEFSAII (Michael W. Deem and Ramdas Pophale) SiO2 
 PCOD9296935
Probable space group: C 2/C
;
_chemical_formula_sum "Si O2"
_cell_formula_units_Z 56
_cell_length_a 11.604722
_cell_length_b 16.536723
_cell_length_c 14.934957
_cell_angle_alpha 90.000000
_cell_angle_beta 56.054001
_cell_angle_gamma 90.000000
_cell_volume 2377.596718
_symmetry_space_group_name_H-M "C 2/C"
_symmetry_group_IT_number 15
_symmetry_cell_setting 'monoclinic'
loop_
_space_group_symop_operation_xyz
x,y,z
-x,y,1/2-z
-x,-y,-z
x,-y,1/2+z
1/2+x,1/2+y,z
1/2-x,1/2+y,1/2-z
1/2-x,1/2-y,-z
1/2+x,1/2-y,1/2+z
loop_
_atom_site_type_symbol
_atom_site_label
_atom_site_fract_x
_atom_site_fract_y
_atom_site_fract_z
Si Si1 0.929291 0.906893 0.919575
Si Si2 0.907603 0.619465 0.215774
Si Si3 0.849653 0.406203 0.147669
Si Si4 0.415357 0.268918 0.424533
Si Si5 0.072962 0.928476 0.363271
Si Si6 0.631026 0.718672 0.359977
Si Si7 0.852738 0.551992 0.039627
O O1 0.021807 0.830965 0.849253
O O2 0.221849 0.903878 0.556006
O O3 0.001158 0.990201 0.861237
O O4 0.925757 0.917579 0.029541
O O5 0.761283 0.657210 0.312815
O O6 0.881378 0.579786 0.129962
O O7 0.000000 0.571687 0.250000
O O8 0.006033 0.695984 0.154443
O O9 0.732678 0.438504 0.264885
O O10 0.824526 0.310454 0.175351
O O11 0.822372 0.455133 0.065155
O O12 0.014221 0.425095 0.078965
O O13 0.250000 0.250000 0.500000
O O14 0.480749 0.353777 0.364579
O O15 0.452122 0.267864 0.512480
#
# Coordination Sequence:
#
# PCOD9296935 Si02
#       7
#     8   8   8   8   8   8   8
#     4  10  25  48  72 101 147 184 236 291 361 434
#     4  12  24  42  69  99 138 182 232 290 355 417
#     4  11  24  45  70 104 138 183 244 287 358 421
#     4  11  22  39  68 103 136 173 236 298 346 406
#     4  10  23  46  73 104 137 189 236 292 360 434
#     4  11  23  43  70 104 136 183 230 296 351 417
#     4  11  27  47  68 103 144 190 233 296 356 435
#
# _framework density 23.553196
#
# number of rings (size 3 to 8) (size 9 to 14) (size 15 to 20)
#    0.000    1.143    4.286    0.857    2.000    3.429 
#   10.286    1.429    0.000    0.000    0.000    0.000 
#    0.000    0.000    0.000    0.000    0.000    0.000 
#
# Total GULP energy -156043.045306 kJ/mol
# GULP energy per Si atom -5572.965904 kJ/mol
# Density = 2.349959 g / cm^3
# Si number density = 23.553196 Si / 1000 Ang^3
#
#
#
# Elastic Constant Matrix: (Units=GPa)
#
#
# Indices 1 2 3 4 5 6 
#
# 1 124.4958 27.8039 22.5435 0.0000 -21.5059 0.0000
# 2 27.8039 87.4787 14.2880 0.0000 -7.3411 0.0000
# 3 22.5435 14.2880 87.1453 0.0000 -11.3483 0.0000
# 4 0.0000 0.0000 0.0000 26.2098 0.0000 -12.2207
# 5 -21.5059 -7.3411 -11.3483 0.0000 31.0406 0.0000
# 6 0.0000 0.0000 0.0000 -12.2207 0.0000 20.7988
#
#
#
# Elastic Compliance Matrix: (Units=1/GPa)
#
#
# Indices 1 2 3 4 5 6 
#
# 1 0.009811 -0.002410 -0.001399 0.000000 0.005716 0.000000
# 2 -0.002410 0.012480 -0.001319 0.000000 0.000800 0.000000
# 3 -0.001399 -0.001319 0.012480 0.000000 0.003282 0.000000
# 4 0.000000 0.000000 0.000000 0.052551 0.000000 0.030877
# 5 0.005716 0.000800 0.003282 0.000000 0.037565 0.000000
# 6 0.000000 0.000000 0.000000 0.030877 0.000000 0.066222
#
#
# Mechanical properties :
#
#
# Convention : Reuss Voigt Hill
#
# Bulk Modulus (GPa) = 40.78793 47.59898 44.19345
# Shear Modulus (GPa) = 23.86216 31.24213 27.55214
#
# Velocity S-wave (km/s) = 3.18640 3.64600 3.42392
# Velocity P-wave (km/s) = 5.55810 6.16258 5.86813
#
# Compressibility (1/GPa) = 0.02451706
#
# Stress axis : x y z
#
# Youngs Moduli (GPa) = 101.92224 80.12897 80.12536
#
# Poissons Ratio (x) = 0.19313 0.11206
# Poissons Ratio (y) = 0.24566 0.10565
# Poissons Ratio (z) = 0.14254 0.10565
#
# Static dielectric constant tensor:
#      x y z
#    x 1.978050 0.000000 0.019500 
#    y 0.000000 2.079740 0.000000 
#    z 0.019500 0.000000 1.885690 
# 
# From -- ./inp_files/206253.got.cif
#   From: 2010.05.17/outbox.cif.g08.bks.cpg/sg15_104_cif.got.tgz:206253.got - 2010.06.03 18:47:42.
