data_PCOD9296149
_publ_section_title
;
Structure prediction by ZEFSAII (Michael W. Deem and Ramdas Pophale) SiO2 
 PCOD9296149
Probable space group: C 2/C
;
_chemical_formula_sum "Si O2"
_cell_formula_units_Z 64
_cell_length_a 12.749820
_cell_length_b 21.173772
_cell_length_c 14.549311
_cell_angle_alpha 90.000000
_cell_angle_beta 41.582304
_cell_angle_gamma 90.000000
_cell_volume 2606.834161
_symmetry_space_group_name_H-M "C 2/C"
_symmetry_group_IT_number 15
_symmetry_cell_setting 'monoclinic'
loop_
_space_group_symop_operation_xyz
x,y,z
-x,y,1/2-z
-x,-y,-z
x,-y,1/2+z
1/2+x,1/2+y,z
1/2-x,1/2+y,1/2-z
1/2-x,1/2-y,-z
1/2+x,1/2-y,1/2+z
loop_
_atom_site_type_symbol
_atom_site_label
_atom_site_fract_x
_atom_site_fract_y
_atom_site_fract_z
Si Si1 0.555357 0.108261 0.468050
Si Si2 0.374030 0.923896 0.898153
Si Si3 0.824124 0.281857 0.864343
Si Si4 0.020307 0.874004 0.533542
Si Si5 0.641250 0.859561 0.226033
Si Si6 0.975177 0.092982 0.865256
Si Si7 0.363410 0.532429 0.263693
Si Si8 0.297779 0.719797 0.257219
O O1 0.462949 0.090610 0.435182
O O2 0.426336 0.119312 0.631312
O O3 0.687427 0.054921 0.404843
O O4 0.662979 0.171773 0.382865
O O5 0.500000 0.959083 0.750000
O O6 0.337600 0.856905 0.871848
O O7 0.192469 0.945276 0.027366
O O8 0.746463 0.265884 0.819100
O O9 0.000000 0.258684 0.750000
O O10 0.750000 0.250000 0.000000
O O11 0.202534 0.891646 0.416856
O O12 0.990470 0.863411 0.444346
O O13 0.908217 0.929778 0.641604
O O14 0.964072 0.817220 0.636220
O O15 0.500000 0.869015 0.250000
O O16 0.686747 0.785191 0.200920
O O17 0.000000 0.124311 0.750000
O O18 0.111134 0.040146 0.778403
O O19 0.500000 0.548888 0.250000
#
# Coordination Sequence:
#
# PCOD9296149 Si02
#       8
#     8   8   8   8   8   8   8   8
#     4  11  22  43  66  92 133 172 218 273 327 391
#     4  11  20  40  64  96 130 169 210 265 335 387
#     4  11  22  36  59  93 132 168 211 255 324 393
#     4  11  23  43  66  92 129 167 219 273 324 389
#     4  12  27  42  62  94 130 173 226 277 320 373
#     4  11  23  42  68  99 129 168 217 271 338 398
#     4  10  23  44  68  92 125 174 224 267 334 395
#     4  11  23  40  63  92 126 175 215 257 323 398
#
# _framework density 24.550851999999999
#
# number of rings (size 3 to 8) (size 9 to 14) (size 15 to 20)
#    0.000    1.000    3.750    4.125    1.750    4.500 
#    0.000   10.000    0.000    0.000    0.000    0.000 
#    0.000    0.000    0.000    0.000    0.000    0.000 
#
# Total GULP energy -179033.308007 kJ/mol
# GULP energy per Si atom -5594.790875 kJ/mol
# Density = 2.449497 g / cm^3
# Si number density = 24.550852 Si / 1000 Ang^3
#
#
#
# Elastic Constant Matrix: (Units=GPa)
#
#
# Indices 1 2 3 4 5 6 
#
# 1 70.6639 -21.9054 -2.5234 -0.0001 -15.4595 0.0001
# 2 -21.9054 53.0916 12.5234 -0.0010 -4.1849 0.0002
# 3 -2.5234 12.5234 129.7279 -0.0037 -21.6973 0.0008
# 4 -0.0001 -0.0010 -0.0037 18.3218 0.0015 -15.9622
# 5 -15.4595 -4.1849 -21.6973 0.0015 50.2418 -0.0001
# 6 0.0001 0.0002 0.0008 -15.9622 -0.0001 31.7214
#
#
#
# Elastic Compliance Matrix: (Units=1/GPa)
#
#
# Indices 1 2 3 4 5 6 
#
# 1 0.018006 0.007779 0.000684 0.000000 0.006484 0.000000
# 2 0.007779 0.022670 -0.001424 0.000001 0.003667 0.000000
# 3 0.000684 -0.001424 0.008488 0.000002 0.003757 0.000001
# 4 0.000000 0.000001 0.000002 0.097185 -0.000002 0.048904
# 5 0.006484 0.003667 0.003757 -0.000002 0.023827 -0.000001
# 6 0.000000 0.000000 0.000001 0.048904 -0.000001 0.056133
#
#
# Mechanical properties :
#
#
# Convention : Reuss Voigt Hill
#
# Bulk Modulus (GPa) = 15.81260 25.51919 20.66589
# Shear Modulus (GPa) = 21.43065 37.74959 29.59012
#
# Velocity S-wave (km/s) = 2.95771 3.92549 3.47545
# Velocity P-wave (km/s) = 4.25662 5.56443 4.95387
#
# Compressibility (1/GPa) = 0.06324072
#
# Stress axis : x y z
#
# Youngs Moduli (GPa) = 55.53774 44.11149 117.81905
#
# Poissons Ratio (x) = -0.34314 -0.08055
# Poissons Ratio (y) = -0.43202 0.16775
# Poissons Ratio (z) = -0.03797 0.06281
#
# Static dielectric constant tensor:
#      x y z
#    x 1.958890 0.000000 -0.118880 
#    y 0.000000 1.971010 0.000000 
#    z -0.118880 0.000000 2.633050 
# 
# From -- ./inp_files/148769.got.cif
#   From: 2010.05.17/outbox.cif.g08.bks.cpg/sg15_75_cif.got.tgz:148769.got - 2010.06.03 18:47:42.
