data_PCOD9296199
_publ_section_title
;
Structure prediction by ZEFSAII (Michael W. Deem and Ramdas Pophale) SiO2 
 PCOD9296199
Probable space group: C 2/C
;
_chemical_formula_sum "Si O2"
_cell_formula_units_Z 60
_cell_length_a 30.249970
_cell_length_b 11.563369
_cell_length_c 19.629439
_cell_angle_alpha 90.000000
_cell_angle_beta 157.673217
_cell_angle_gamma 90.000000
_cell_volume 2608.395798
_symmetry_space_group_name_H-M "C 2/C"
_symmetry_group_IT_number 15
_symmetry_cell_setting 'monoclinic'
loop_
_space_group_symop_operation_xyz
x,y,z
-x,y,1/2-z
-x,-y,-z
x,-y,1/2+z
1/2+x,1/2+y,z
1/2-x,1/2+y,1/2-z
1/2-x,1/2-y,-z
1/2+x,1/2-y,1/2+z
loop_
_atom_site_type_symbol
_atom_site_label
_atom_site_fract_x
_atom_site_fract_y
_atom_site_fract_z
Si Si1 0.745060 0.648695 0.548888
Si Si2 0.352971 0.731885 0.701427
Si Si3 0.000000 0.947523 0.750000
Si Si4 0.721216 0.292811 0.781405
Si Si5 0.092689 0.543805 0.282987
Si Si6 0.160686 0.833480 0.166899
Si Si7 0.647718 0.992880 0.008709
Si Si8 0.033443 0.046820 0.940179
O O1 0.750000 0.750000 0.500000
O O2 0.610462 0.622208 0.377178
O O3 0.809929 0.693892 0.709657
O O4 0.811704 0.535362 0.616736
O O5 0.250000 0.750000 0.500000
O O6 0.433788 0.839905 0.795961
O O7 0.334584 0.735999 0.756071
O O8 0.408583 0.605784 0.769940
O O9 0.949436 0.022773 0.615370
O O10 0.817756 0.245993 0.866733
O O11 0.620655 0.358315 0.596473
O O12 0.783964 0.392665 0.913921
O O13 0.130158 0.575982 0.413622
O O14 0.972625 0.477991 0.126566
O O15 0.271697 0.918892 0.327165
O O16 0.053343 0.923085 0.005584
#
# Coordination Sequence:
#
# PCOD9296199 Si02
#       8
#     8   8   4   8   8   8   8   8
#     4  12  27  47  77 109 150 195 258 308 378 463
#     4  12  25  43  73 109 145 197 253 307 370 454
#     4  12  28  48  78 114 146 202 258 314 374 460
#     4  11  25  46  71 108 146 197 239 320 377 443
#     4  11  24  43  73 109 142 192 248 306 368 458
#     4  11  24  46  69 103 152 192 249 309 381 447
#     4  10  23  44  69 104 148 188 241 306 381 434
#     4  11  27  46  75 103 155 198 251 312 391 448
#
# _framework density 23.002642999999999
#
# number of rings (size 3 to 8) (size 9 to 14) (size 15 to 20)
#    0.000    0.800    4.000    2.000    5.600    3.200 
#    0.000    2.000    0.000    0.000    0.000    0.000 
#    0.000    0.000    0.000    0.000    0.000    0.000 
#
# Total GULP energy -167648.641156 kJ/mol
# GULP energy per Si atom -5588.288039 kJ/mol
# Density = 2.295029 g / cm^3
# Si number density = 23.002643 Si / 1000 Ang^3
#
#
#
# Elastic Constant Matrix: (Units=GPa)
#
#
# Indices 1 2 3 4 5 6 
#
# 1 126.2590 33.7801 35.3281 0.0000 -14.4890 0.0000
# 2 33.7801 56.1593 27.9690 0.0000 -12.1278 0.0000
# 3 35.3281 27.9690 88.1241 0.0000 -7.2400 0.0000
# 4 0.0000 0.0000 0.0000 37.0050 0.0000 -7.4695
# 5 -14.4890 -12.1278 -7.2400 0.0000 40.2382 0.0000
# 6 0.0000 0.0000 0.0000 -7.4695 0.0000 51.1463
#
#
#
# Elastic Compliance Matrix: (Units=1/GPa)
#
#
# Indices 1 2 3 4 5 6 
#
# 1 0.009994 -0.004389 -0.002463 0.000000 0.001833 0.000000
# 2 -0.004389 0.024227 -0.005541 0.000000 0.004724 0.000000
# 3 -0.002463 -0.005541 0.014092 0.000000 -0.000021 0.000000
# 4 0.000000 0.000000 0.000000 0.027844 0.000000 0.004066
# 5 0.001833 0.004724 -0.000021 0.000000 0.026932 0.000000
# 6 0.000000 0.000000 0.000000 0.004066 0.000000 0.020146
#
#
# Mechanical properties :
#
#
# Convention : Reuss Voigt Hill
#
# Bulk Modulus (GPa) = 42.50659 51.63298 47.06978
# Shear Modulus (GPa) = 32.07947 37.24225 34.66086
#
# Velocity S-wave (km/s) = 3.73848 4.02810 3.88599
# Velocity P-wave (km/s) = 6.09542 6.64299 6.37509
#
# Compressibility (1/GPa) = 0.02352576
#
# Stress axis : x y z
#
# Youngs Moduli (GPa) = 100.06062 41.27699 70.96236
#
# Poissons Ratio (x) = 0.18117 0.17477
# Poissons Ratio (y) = 0.43917 0.39323
# Poissons Ratio (z) = 0.24644 0.22873
#
# Static dielectric constant tensor:
#      x y z
#    x 1.839770 0.000000 0.035290 
#    y 0.000000 1.885680 0.000000 
#    z 0.035290 0.000000 1.944400 
# 
# From -- ./inp_files/222571.got.cif
#   From: 2010.05.17/outbox.cif.g08.bks.cpg/sg15_112_cif.got.tgz:222571.got - 2010.06.03 18:47:42.
