data_PCOD9296237
_publ_section_title
;
Structure prediction by ZEFSAII (Michael W. Deem and Ramdas Pophale) SiO2 
 PCOD9296237
Probable space group: C 2/C
;
_chemical_formula_sum "Si O2"
_cell_formula_units_Z 44
_cell_length_a 24.706013
_cell_length_b 13.601945
_cell_length_c 4.698384
_cell_angle_alpha 90.000000
_cell_angle_beta 79.996491
_cell_angle_gamma 90.000000
_cell_volume 1554.887446
_symmetry_space_group_name_H-M "C 2/C"
_symmetry_group_IT_number 15
_symmetry_cell_setting 'monoclinic'
loop_
_space_group_symop_operation_xyz
x,y,z
-x,y,1/2-z
-x,-y,-z
x,-y,1/2+z
1/2+x,1/2+y,z
1/2-x,1/2+y,1/2-z
1/2-x,1/2-y,-z
1/2+x,1/2-y,1/2+z
loop_
_atom_site_type_symbol
_atom_site_label
_atom_site_fract_x
_atom_site_fract_y
_atom_site_fract_z
Si Si1 0.627424 0.128704 0.215967
Si Si2 0.901376 0.069662 0.623352
Si Si3 0.445707 0.125887 0.686053
Si Si4 0.262465 0.061461 0.065315
Si Si5 0.192050 0.805598 0.989908
Si Si6 0.500000 0.294591 0.250000
O O1 0.586248 0.158331 0.502338
O O2 0.679952 0.095543 0.354464
O O3 0.593217 0.068960 0.006998
O O4 0.651349 0.214075 0.990513
O O5 0.954498 0.134855 0.648202
O O6 0.902442 0.032725 0.299630
O O7 0.846577 0.127515 0.772283
O O8 0.500000 0.071946 0.750000
O O9 0.468685 0.221161 0.495878
O O10 0.212822 0.128527 0.211079
O O11 0.258886 0.957220 0.235055
O O12 0.250000 0.750000 0.000000
#
# Coordination Sequence:
#
# PCOD9296237 Si02
#       6
#     8   8   8   8   8   4
#     4  11  24  41  70 100 134 176 229 288 336 409
#     4  12  27  43  65  99 146 184 224 278 342 410
#     4  12  22  41  69 100 130 172 235 282 332 394
#     4  11  24  45  68  98 137 179 222 282 359 417
#     4  10  23  44  70 100 135 182 236 282 336 408
#     4  12  26  42  70  98 142 188 230 276 346 412
#
# _framework density 28.297871000000001
#
# number of rings (size 3 to 8) (size 9 to 14) (size 15 to 20)
#    0.000    0.727    3.636    2.727    5.091    1.455 
#    0.000    8.182    0.000   10.909    0.000    0.000 
#    0.000    0.000    0.000    0.000    0.000    0.000 
#
# Total GULP energy -123255.461659 kJ/mol
# GULP energy per Si atom -5602.520985 kJ/mol
# Density = 2.823346 g / cm^3
# Si number density = 28.297871 Si / 1000 Ang^3
#
#
#
# Elastic Constant Matrix: (Units=GPa)
#
#
# Indices 1 2 3 4 5 6 
#
# 1 206.9096 37.1129 62.8744 0.0000 -14.6955 0.0000
# 2 37.1129 88.3941 26.5759 0.0000 -12.5346 0.0000
# 3 62.8744 26.5759 148.7346 0.0000 -8.3038 0.0000
# 4 0.0000 0.0000 0.0000 23.9952 0.0000 -30.1655
# 5 -14.6955 -12.5346 -8.3038 0.0000 62.7520 0.0000
# 6 0.0000 0.0000 0.0000 -30.1655 0.0000 41.1119
#
#
#
# Elastic Compliance Matrix: (Units=1/GPa)
#
#
# Indices 1 2 3 4 5 6 
#
# 1 0.005837 -0.001707 -0.002121 0.000000 0.000745 0.000000
# 2 -0.001707 0.012742 -0.001446 0.000000 0.001954 0.000000
# 3 -0.002121 -0.001446 0.007893 0.000000 0.000259 0.000000
# 4 0.000000 0.000000 0.000000 0.537178 0.000000 0.394149
# 5 0.000745 0.001954 0.000259 0.000000 0.016535 0.000000
# 6 0.000000 0.000000 0.000000 0.394149 0.000000 0.313527
#
#
# Mechanical properties :
#
#
# Convention : Reuss Voigt Hill
#
# Bulk Modulus (GPa) = 62.80125 77.46273 70.13199
# Shear Modulus (GPa) = 5.49713 46.73683 26.11698
#
# Velocity S-wave (km/s) = 1.39528 4.06840 3.04127
# Velocity P-wave (km/s) = 4.98366 7.03581 6.09670
#
# Compressibility (1/GPa) = 0.01592325
#
# Stress axis : x y z
#
# Youngs Moduli (GPa) = 171.33284 78.48324 126.70033
#
# Poissons Ratio (x) = 0.13399 0.26868
# Poissons Ratio (y) = 0.29251 0.18319
# Poissons Ratio (z) = 0.36333 0.11348
#
# Static dielectric constant tensor:
#      x y z
#    x 2.262800 0.000000 0.011180 
#    y 0.000000 2.306920 0.000000 
#    z 0.011180 0.000000 2.078180 
# 
# From -- ./inp_files/16911.got.cif
#   From: 2010.05.17/outbox.cif.g08.bks.cpg/sg15_9_cif.got.tgz:16911.got - 2010.06.03 18:47:42.
