data_PCOD9296097
_publ_section_title
;
Structure prediction by ZEFSAII (Michael W. Deem and Ramdas Pophale) SiO2 
 PCOD9296097
Probable space group: C 2/C
;
_chemical_formula_sum "Si O2"
_cell_formula_units_Z 48
_cell_length_a 11.038011
_cell_length_b 8.378132
_cell_length_c 21.982405
_cell_angle_alpha 90.000000
_cell_angle_beta 97.861333
_cell_angle_gamma 90.000000
_cell_volume 2013.781858
_symmetry_space_group_name_H-M "C 2/C"
_symmetry_group_IT_number 15
_symmetry_cell_setting 'monoclinic'
loop_
_space_group_symop_operation_xyz
x,y,z
-x,y,1/2-z
-x,-y,-z
x,-y,1/2+z
1/2+x,1/2+y,z
1/2-x,1/2+y,1/2-z
1/2-x,1/2-y,-z
1/2+x,1/2-y,1/2+z
loop_
_atom_site_type_symbol
_atom_site_label
_atom_site_fract_x
_atom_site_fract_y
_atom_site_fract_z
Si Si1 0.041199 0.568062 0.568147
Si Si2 0.120734 0.915180 0.533195
Si Si3 0.199939 0.011681 0.414662
Si Si4 0.124070 0.120160 0.787196
Si Si5 0.143960 0.760498 0.754071
Si Si6 0.304994 0.138764 0.611411
O O1 0.083426 0.750911 0.561743
O O2 0.161701 0.481493 0.599713
O O3 0.000000 0.500000 0.500000
O O4 0.930035 0.545869 0.606450
O O5 0.198435 0.909691 0.476048
O O6 0.193274 0.031985 0.582763
O O7 0.000000 0.000000 0.500000
O O8 0.175641 0.197766 0.425894
O O9 0.114706 0.932993 0.357521
O O10 0.254079 0.209750 0.788200
O O11 0.000000 0.195905 0.750000
O O12 0.138117 0.951451 0.753454
O O13 0.201741 0.697217 0.820624
O O14 0.000000 0.708447 0.750000
#
# Coordination Sequence:
#
# PCOD9296097 Si02
#       6
#     8   8   8   8   8   8
#     4  12  24  42  63  95 131 165 211 260 319 391
#     4  12  24  40  66  96 130 170 209 257 330 386
#     4  11  23  43  64  94 132 168 212 268 316 385
#     4  10  24  44  66  95 128 169 221 268 319 380
#     4  10  23  44  67  93 129 171 217 271 321 378
#     4  11  24  42  65  93 131 170 212 266 321 384
#
# _framework density 23.835750000000001
#
# number of rings (size 3 to 8) (size 9 to 14) (size 15 to 20)
#    0.000    1.000    3.333    3.000    2.333    3.333 
#    0.000    0.000    0.000    0.000    0.000    0.000 
#    0.000    0.000    0.000    0.000    0.000    0.000 
#
# Total GULP energy -134119.815201 kJ/mol
# GULP energy per Si atom -5588.325633 kJ/mol
# Density = 2.378150 g / cm^3
# Si number density = 23.835750 Si / 1000 Ang^3
#
#
#
# Elastic Constant Matrix: (Units=GPa)
#
#
# Indices 1 2 3 4 5 6 
#
# 1 106.6583 18.2389 -9.1135 0.0000 25.9657 0.0000
# 2 18.2389 53.3154 12.2842 0.0000 7.8354 0.0000
# 3 -9.1135 12.2842 52.3879 0.0000 21.5819 0.0000
# 4 0.0000 0.0000 0.0000 18.4731 0.0000 5.1304
# 5 25.9657 7.8354 21.5819 0.0000 36.4218 0.0000
# 6 0.0000 0.0000 0.0000 5.1304 0.0000 33.6112
#
#
#
# Elastic Compliance Matrix: (Units=1/GPa)
#
#
# Indices 1 2 3 4 5 6 
#
# 1 0.014933 -0.005175 0.010237 0.000000 -0.015599 0.000000
# 2 -0.005175 0.021731 -0.007395 0.000000 0.003396 0.000000
# 3 0.010237 -0.007395 0.033014 0.000000 -0.025270 0.000000
# 4 0.000000 0.000000 0.000000 0.056529 0.000000 -0.008629
# 5 -0.015599 0.003396 -0.025270 0.000000 0.052820 0.000000
# 6 0.000000 0.000000 0.000000 -0.008629 0.000000 0.031069
#
#
# Mechanical properties :
#
#
# Convention : Reuss Voigt Hill
#
# Bulk Modulus (GPa) = 15.38152 28.35341 21.86747
# Shear Modulus (GPa) = 21.14777 30.43136 25.78957
#
# Velocity S-wave (km/s) = 2.98187 3.57699 3.29290
# Velocity P-wave (km/s) = 4.28048 5.38339 4.86330
#
# Compressibility (1/GPa) = 0.06501308
#
# Stress axis : x y z
#
# Youngs Moduli (GPa) = 66.96637 46.01660 30.29059
#
# Poissons Ratio (x) = 0.23812 -0.31009
# Poissons Ratio (y) = 0.34653 0.22400
# Poissons Ratio (z) = -0.68556 0.34029
#
# Static dielectric constant tensor:
#      x y z
#    x 0.392890 0.000000 -0.115760 
#    y 0.000000 2.045820 0.000000 
#    z -0.115760 0.000000 1.938540 
# 
# From -- ./inp_files/267629.got.cif
#   From: 2010.05.17/outbox.cif.g08.bks.cpg/sg15_134_cif.got.tgz:267629.got - 2010.06.03 18:47:42.
