data_PCOD9296540
_publ_section_title
;
Structure prediction by ZEFSAII (Michael W. Deem and Ramdas Pophale) SiO2 
 PCOD9296540
Probable space group: C 2/C
;
_chemical_formula_sum "Si O2"
_cell_formula_units_Z 52
_cell_length_a 11.723849
_cell_length_b 7.545725
_cell_length_c 27.018288
_cell_angle_alpha 90.000000
_cell_angle_beta 119.172978
_cell_angle_gamma 90.000000
_cell_volume 2086.982956
_symmetry_space_group_name_H-M "C 2/C"
_symmetry_group_IT_number 15
_symmetry_cell_setting 'monoclinic'
loop_
_space_group_symop_operation_xyz
x,y,z
-x,y,1/2-z
-x,-y,-z
x,-y,1/2+z
1/2+x,1/2+y,z
1/2-x,1/2+y,1/2-z
1/2-x,1/2-y,-z
1/2+x,1/2-y,1/2+z
loop_
_atom_site_type_symbol
_atom_site_label
_atom_site_fract_x
_atom_site_fract_y
_atom_site_fract_z
Si Si1 0.270648 0.949961 0.386612
Si Si2 0.000000 0.000000 0.000000
Si Si3 0.621979 0.726945 0.939594
Si Si4 0.262178 0.728714 0.944610
Si Si5 0.872413 0.578864 0.250337
Si Si6 0.157273 0.794214 0.778865
Si Si7 0.996418 0.414395 0.375022
O O1 0.326582 0.094632 0.436839
O O2 0.217383 0.066578 0.330048
O O3 0.163892 0.844253 0.394550
O O4 0.387245 0.833962 0.388512
O O5 0.959421 0.911654 0.045558
O O6 0.151162 0.942803 0.043480
O O7 0.550843 0.912379 0.914712
O O8 0.750000 0.750000 0.000000
O O9 0.117559 0.713241 0.892511
O O10 0.250000 0.750000 0.000000
O O11 0.823237 0.415197 0.206165
O O12 0.745989 0.677121 0.247184
O O13 0.000000 0.667996 0.250000
O O14 0.937016 0.480242 0.311228
O O15 0.000000 0.822639 0.750000
#
# Coordination Sequence:
#
# PCOD9296540 Si02
#       7
#     8   4   8   8   8   8   8
#     4  11  25  42  66  94 129 172 216 265 326 387
#     4  12  24  40  62  94 130 172 216 268 312 374
#     4  12  25  43  63  96 132 171 217 263 316 382
#     4  12  23  39  63  93 130 175 213 263 321 378
#     4  10  23  45  68  97 131 169 215 274 332 390
#     4  10  23  45  67  96 129 167 215 273 329 392
#     4  11  25  42  66  95 130 170 216 265 322 387
#
# _framework density 24.916350999999999
#
# number of rings (size 3 to 8) (size 9 to 14) (size 15 to 20)
#    0.000    0.923    4.615    1.846    2.154    6.769 
#    2.769    0.000    0.000    0.000    0.000    0.000 
#    0.000    0.000    0.000    0.000    0.000    0.000 
#
# Total GULP energy -144769.434383 kJ/mol
# GULP energy per Si atom -5568.055169 kJ/mol
# Density = 2.485964 g / cm^3
# Si number density = 24.916351 Si / 1000 Ang^3
#
#
#
# Elastic Constant Matrix: (Units=GPa)
#
#
# Indices 1 2 3 4 5 6 
#
# 1 213.7883 31.9784 23.5259 0.0000 -39.5768 0.0000
# 2 31.9784 45.3706 -1.8137 0.0000 -7.5794 0.0000
# 3 23.5259 -1.8137 62.6346 0.0000 -11.9589 0.0000
# 4 0.0000 0.0000 0.0000 35.3715 0.0000 -8.3158
# 5 -39.5768 -7.5794 -11.9589 0.0000 40.0481 0.0000
# 6 0.0000 0.0000 0.0000 -8.3158 0.0000 23.6490
#
#
#
# Elastic Compliance Matrix: (Units=1/GPa)
#
#
# Indices 1 2 3 4 5 6 
#
# 1 0.006341 -0.003675 -0.001511 0.000000 0.005120 0.000000
# 2 -0.003675 0.025036 0.002457 0.000000 0.001841 0.000000
# 3 -0.001511 0.002457 0.017400 0.000000 0.004168 0.000000
# 4 0.000000 0.000000 0.000000 0.030819 0.000000 0.010837
# 5 0.005120 0.001841 0.004168 0.000000 0.031623 0.000000
# 6 0.000000 0.000000 0.000000 0.010837 0.000000 0.046096
#
#
# Mechanical properties :
#
#
# Convention : Reuss Voigt Hill
#
# Bulk Modulus (GPa) = 23.08384 47.68605 35.38495
# Shear Modulus (GPa) = 28.21473 37.68724 32.95098
#
# Velocity S-wave (km/s) = 3.36873 3.89337 3.64052
# Velocity P-wave (km/s) = 4.94123 6.27624 5.64832
#
# Compressibility (1/GPa) = 0.04332035
#
# Stress axis : x y z
#
# Youngs Moduli (GPa) = 157.69804 39.94199 57.47145
#
# Poissons Ratio (x) = 0.14677 0.08682
# Poissons Ratio (y) = 0.57947 -0.14118
# Poissons Ratio (z) = 0.23822 -0.09812
#
# Static dielectric constant tensor:
#      x y z
#    x 2.046970 0.000000 -0.030990 
#    y 0.000000 2.017460 0.000000 
#    z -0.030990 0.000000 1.994400 
# 
# From -- ./inp_files/291260.got.cif
#   From: 2010.05.17/outbox.cif.g08.bks.cpg/sg15_146_cif.got.tgz:291260.got - 2010.06.03 18:47:42.
