data_PCOD9296757
_publ_section_title
;
Structure prediction by ZEFSAII (Michael W. Deem and Ramdas Pophale) SiO2 
 PCOD9296757
Probable space group: C 2/C
;
_chemical_formula_sum "Si O2"
_cell_formula_units_Z 48
_cell_length_a 28.944258
_cell_length_b 8.998315
_cell_length_c 8.621272
_cell_angle_alpha 90.000000
_cell_angle_beta 128.456143
_cell_angle_gamma 90.000000
_cell_volume 1758.342809
_symmetry_space_group_name_H-M "C 2/C"
_symmetry_group_IT_number 15
_symmetry_cell_setting 'monoclinic'
loop_
_space_group_symop_operation_xyz
x,y,z
-x,y,1/2-z
-x,-y,-z
x,-y,1/2+z
1/2+x,1/2+y,z
1/2-x,1/2+y,1/2-z
1/2-x,1/2-y,-z
1/2+x,1/2-y,1/2+z
loop_
_atom_site_type_symbol
_atom_site_label
_atom_site_fract_x
_atom_site_fract_y
_atom_site_fract_z
Si Si1 0.000000 0.056555 0.250000
Si Si2 0.056636 0.305284 0.161648
Si Si3 0.890061 0.865191 0.085591
Si Si4 0.174668 0.838203 0.014021
Si Si5 0.656152 0.837868 0.779461
Si Si6 0.191859 0.367733 0.189872
Si Si7 0.000000 0.441659 0.750000
O O1 0.981620 0.166367 0.351727
O O2 0.944151 0.948617 0.118468
O O3 0.157147 0.509130 0.185493
O O4 0.154629 0.216694 0.122871
O O5 0.038807 0.345063 0.949215
O O6 0.898644 0.742053 0.241576
O O7 0.852402 0.000839 0.073639
O O8 0.175587 0.785688 0.196743
O O9 0.242704 0.849280 0.109745
O O10 0.124333 0.727451 0.845154
O O11 0.538692 0.051722 0.725796
O O12 0.696007 0.879496 0.010940
#
# Coordination Sequence:
#
# PCOD9296757 Si02
#       7
#     4   8   8   8   8   8   4
#     4   9  18  46  82 119 161 225 292 352 426 502
#     4   9  20  37  78 120 173 225 285 362 423 515
#     4   9  23  45  80 114 168 223 276 353 423 505
#     4  11  21  41  76 123 165 216 283 345 427 508
#     4  10  24  47  75 118 167 224 278 354 425 508
#     4  10  23  45  79 114 174 224 283 348 426 510
#     4   9  18  42  72 121 171 227 284 354 438 510
#
# _framework density 27.298432999999999
#
# number of rings (size 3 to 8) (size 9 to 14) (size 15 to 20)
#    1.000    1.333    0.000    1.500    2.333    1.333 
#    3.000    7.500    7.333   13.000    0.000    4.667 
#    0.000    0.000    0.000    0.500    0.000    0.000 
#
# Total GULP energy -134262.487270 kJ/mol
# GULP energy per Si atom -5594.270303 kJ/mol
# Density = 2.723630 g / cm^3
# Si number density = 27.298433 Si / 1000 Ang^3
#
#
#
# Elastic Constant Matrix: (Units=GPa)
#
#
# Indices 1 2 3 4 5 6 
#
# 1 96.4696 81.7520 80.6732 0.0000 8.9929 0.0000
# 2 81.7520 197.3697 81.3651 0.0000 15.2184 0.0000
# 3 80.6732 81.3651 167.7669 0.0000 14.2473 0.0000
# 4 0.0000 0.0000 0.0000 32.6881 0.0000 -14.5235
# 5 8.9929 15.2184 14.2473 0.0000 70.5572 0.0000
# 6 0.0000 0.0000 0.0000 -14.5235 0.0000 13.7218
#
#
#
# Elastic Compliance Matrix: (Units=1/GPa)
#
#
# Indices 1 2 3 4 5 6 
#
# 1 0.021659 -0.005848 -0.007581 0.000000 0.000032 0.000000
# 2 -0.005848 0.007952 -0.000979 0.000000 -0.000772 0.000000
# 3 -0.007581 -0.000979 0.010155 0.000000 -0.000873 0.000000
# 4 0.000000 0.000000 0.000000 0.057750 0.000000 0.061124
# 5 0.000032 -0.000772 -0.000873 0.000000 0.014512 0.000000
# 6 0.000000 0.000000 0.000000 0.061124 0.000000 0.137572
#
#
# Mechanical properties :
#
#
# Convention : Reuss Voigt Hill
#
# Bulk Modulus (GPa) = 91.33129 105.46520 98.39825
# Shear Modulus (GPa) = 17.72623 37.91449 27.82036
#
# Velocity S-wave (km/s) = 2.55100 3.73082 3.19583
# Velocity P-wave (km/s) = 6.49662 7.56814 7.05276
#
# Compressibility (1/GPa) = 0.01094915
#
# Stress axis : x y z
#
# Youngs Moduli (GPa) = 46.16985 125.75222 98.47212
#
# Poissons Ratio (x) = 0.73545 0.74656
# Poissons Ratio (y) = 0.27002 0.09639
# Poissons Ratio (z) = 0.35003 0.12309
#
# Static dielectric constant tensor:
#      x y z
#    x 2.183500 0.000000 -0.065230 
#    y 0.000000 2.064320 0.000000 
#    z -0.065230 0.000000 2.135170 
# 
# From -- ./inp_files/62302.got.cif
#   From: 2010.05.17/outbox.cif.g08.bks.cpg/sg15_32_cif.got.tgz:62302.got - 2010.06.03 18:47:42.
