data_PCOD9296909
_publ_section_title
;
Structure prediction by ZEFSAII (Michael W. Deem and Ramdas Pophale) SiO2 
 PCOD9296909
Probable space group: C 2/C
;
_chemical_formula_sum "Si O2"
_cell_formula_units_Z 52
_cell_length_a 10.524833
_cell_length_b 15.472928
_cell_length_c 20.641302
_cell_angle_alpha 90.000000
_cell_angle_beta 141.337927
_cell_angle_gamma 90.000000
_cell_volume 2099.975976
_symmetry_space_group_name_H-M "C 2/C"
_symmetry_group_IT_number 15
_symmetry_cell_setting 'monoclinic'
loop_
_space_group_symop_operation_xyz
x,y,z
-x,y,1/2-z
-x,-y,-z
x,-y,1/2+z
1/2+x,1/2+y,z
1/2-x,1/2+y,1/2-z
1/2-x,1/2-y,-z
1/2+x,1/2-y,1/2+z
loop_
_atom_site_type_symbol
_atom_site_label
_atom_site_fract_x
_atom_site_fract_y
_atom_site_fract_z
Si Si1 0.500000 0.281153 0.250000
Si Si2 0.251900 0.637759 0.283885
Si Si3 0.198434 0.872380 0.450100
Si Si4 0.653341 0.051076 0.014275
Si Si5 0.562870 0.027912 0.839812
Si Si6 0.842709 0.299625 0.892602
Si Si7 0.039224 0.115856 0.513058
O O1 0.674105 0.217553 0.295695
O O2 0.563327 0.332278 0.339495
O O3 0.447254 0.613731 0.404201
O O4 0.079159 0.559592 0.214869
O O5 0.271919 0.674937 0.219356
O O6 0.420572 0.827738 0.530719
O O7 0.125907 0.869509 0.495336
O O8 0.190409 0.974527 0.434608
O O9 0.724577 0.134828 0.078638
O O10 0.541553 0.069222 0.901812
O O11 0.500000 0.000000 0.000000
O O12 0.500000 0.076269 0.750000
O O13 0.805842 0.034389 0.923426
O O14 0.834993 0.204410 0.920027
#
# Coordination Sequence:
#
# PCOD9296909 Si02
#       7
#     4   8   8   8   8   8   8
#     4  12  22  40  74 108 150 188 254 308 358 444
#     4  12  23  45  75 109 147 197 249 311 368 443
#     4  11  22  43  72 114 143 193 253 310 373 448
#     4  10  23  46  72 101 148 200 238 307 375 449
#     4  12  27  47  72 110 154 196 250 315 384 441
#     4  11  23  48  75 105 153 195 250 306 379 444
#     4  12  27  45  79 113 149 198 256 309 377 452
#
# _framework density 24.762187999999998
#
# number of rings (size 3 to 8) (size 9 to 14) (size 15 to 20)
#    0.000    0.615    6.923    2.308    0.000    6.769 
#    2.769    0.000    0.000    0.000    0.000    0.000 
#    0.000    0.000    0.000    0.000    0.000    0.000 
#
# Total GULP energy -145048.064845 kJ/mol
# GULP energy per Si atom -5578.771725 kJ/mol
# Density = 2.470583 g / cm^3
# Si number density = 24.762188 Si / 1000 Ang^3
#
#
#
# Elastic Constant Matrix: (Units=GPa)
#
#
# Indices 1 2 3 4 5 6 
#
# 1 68.9456 20.0942 51.2336 0.0000 -21.7679 0.0000
# 2 20.0942 127.4284 39.8608 0.0000 -11.2043 0.0000
# 3 51.2336 39.8608 191.8085 0.0000 -19.2497 0.0000
# 4 0.0000 0.0000 0.0000 23.9985 0.0000 -15.1470
# 5 -21.7679 -11.2043 -19.2497 0.0000 52.2945 0.0000
# 6 0.0000 0.0000 0.0000 -15.1470 0.0000 16.4464
#
#
#
# Elastic Compliance Matrix: (Units=1/GPa)
#
#
# Indices 1 2 3 4 5 6 
#
# 1 0.020264 -0.001213 -0.004507 0.000000 0.006516 0.000000
# 2 -0.001213 0.008539 -0.001368 0.000000 0.000821 0.000000
# 3 -0.004507 -0.001368 0.006733 0.000000 0.000309 0.000000
# 4 0.000000 0.000000 0.000000 0.099519 0.000000 0.091656
# 5 0.006516 0.000821 0.000309 0.000000 0.022125 0.000000
# 6 0.000000 0.000000 0.000000 0.091656 0.000000 0.145218
#
#
# Mechanical properties :
#
#
# Convention : Reuss Voigt Hill
#
# Bulk Modulus (GPa) = 46.81580 67.83998 57.32789
# Shear Modulus (GPa) = 15.44675 37.01415 26.23045
#
# Velocity S-wave (km/s) = 2.50032 3.87044 3.25821
# Velocity P-wave (km/s) = 5.22328 6.88693 6.11197
#
# Compressibility (1/GPa) = 0.02136031
#
# Stress axis : x y z
#
# Youngs Moduli (GPa) = 49.34887 117.11030 148.52963
#
# Poissons Ratio (x) = 0.14203 0.66937
# Poissons Ratio (y) = 0.05985 0.20322
# Poissons Ratio (z) = 0.22240 0.16023
#
# Static dielectric constant tensor:
#      x y z
#    x 2.086400 0.000000 0.110260 
#    y 0.000000 2.093690 0.000000 
#    z 0.110260 0.000000 1.908530 
# 
# From -- ./inp_files/244239.got.cif
#   From: 2010.05.17/outbox.cif.g08.bks.cpg/sg15_123_cif.got.tgz:244239.got - 2010.06.03 18:47:42.
