data_PCOD9296826
_publ_section_title
;
Structure prediction by ZEFSAII (Michael W. Deem and Ramdas Pophale) SiO2 
 PCOD9296826
Probable space group: C 2/C
;
_chemical_formula_sum "Si O2"
_cell_formula_units_Z 56
_cell_length_a 12.199033
_cell_length_b 17.959618
_cell_length_c 11.979722
_cell_angle_alpha 90.000000
_cell_angle_beta 67.004739
_cell_angle_gamma 90.000000
_cell_volume 2416.075879
_symmetry_space_group_name_H-M "C 2/C"
_symmetry_group_IT_number 15
_symmetry_cell_setting 'monoclinic'
loop_
_space_group_symop_operation_xyz
x,y,z
-x,y,1/2-z
-x,-y,-z
x,-y,1/2+z
1/2+x,1/2+y,z
1/2-x,1/2+y,1/2-z
1/2-x,1/2-y,-z
1/2+x,1/2-y,1/2+z
loop_
_atom_site_type_symbol
_atom_site_label
_atom_site_fract_x
_atom_site_fract_y
_atom_site_fract_z
Si Si1 0.560613 0.929528 0.030115
Si Si2 0.113670 0.355630 0.774913
Si Si3 0.301488 0.911442 0.188181
Si Si4 0.176055 0.779582 0.366741
Si Si5 0.114570 0.993239 0.128612
Si Si6 0.742936 0.025030 0.111475
Si Si7 0.613728 0.671507 0.130568
O O1 0.607694 0.884329 0.905408
O O2 0.558528 0.109288 0.873659
O O3 0.500000 0.000000 0.000000
O O4 0.655578 0.967426 0.075520
O O5 0.111304 0.267770 0.796680
O O6 0.215972 0.389336 0.655003
O O7 0.000000 0.382781 0.750000
O O8 0.236278 0.849538 0.285144
O O9 0.223695 0.934052 0.110513
O O10 0.281698 0.988752 0.259380
O O11 0.279646 0.723793 0.368692
O O12 0.103219 0.807484 0.503680
O O13 0.133414 0.082370 0.138765
O O14 0.000000 0.973339 0.250000
O O15 0.125836 0.985365 0.990161
O O16 0.500000 0.690398 0.250000
#
# Coordination Sequence:
#
# PCOD9296826 Si02
#       7
#     8   8   8   8   8   8   8
#     4  12  22  39  72 102 128 167 226 284 335 389
#     4  12  24  43  67 100 140 175 215 277 339 400
#     4  12  24  40  65 104 131 170 225 276 337 390
#     4  11  26  42  65  99 138 175 215 272 343 407
#     4  11  24  45  68  93 133 178 229 272 320 395
#     4  12  21  42  70 102 128 169 226 284 330 385
#     4  10  23  46  68  95 129 176 225 274 326 395
#
# _framework density 23.178080000000001
#
# number of rings (size 3 to 8) (size 9 to 14) (size 15 to 20)
#    0.000    0.571    5.714    2.143    4.000    1.143 
#    2.571    2.857    0.000    0.000    0.000    0.000 
#    0.000    0.000    0.000    0.000    0.000    0.000 
#
# Total GULP energy -155889.024365 kJ/mol
# GULP energy per Si atom -5567.465156 kJ/mol
# Density = 2.312533 g / cm^3
# Si number density = 23.178080 Si / 1000 Ang^3
#
#
#
# Elastic Constant Matrix: (Units=GPa)
#
#
# Indices 1 2 3 4 5 6 
#
# 1 54.9890 15.0454 47.2914 0.0000 -11.3335 0.0000
# 2 15.0454 78.6912 43.5564 0.0000 -13.8970 0.0000
# 3 47.2914 43.5564 156.1847 0.0000 -45.0837 0.0000
# 4 0.0000 0.0000 0.0000 26.6910 0.0000 3.1085
# 5 -11.3335 -13.8970 -45.0837 0.0000 37.6652 0.0000
# 6 0.0000 0.0000 0.0000 3.1085 0.0000 11.5842
#
#
#
# Elastic Compliance Matrix: (Units=1/GPa)
#
#
# Indices 1 2 3 4 5 6 
#
# 1 0.024757 -0.000738 -0.007974 0.000000 -0.002367 0.000000
# 2 -0.000738 0.015066 -0.003724 0.000000 0.000879 0.000000
# 3 -0.007974 -0.003724 0.013394 0.000000 0.012259 0.000000
# 4 0.000000 0.000000 0.000000 0.038674 0.000000 -0.010378
# 5 -0.002367 0.000879 0.012259 0.000000 0.040835 0.000000
# 6 0.000000 0.000000 0.000000 -0.010378 0.000000 0.089110
#
#
# Mechanical properties :
#
#
# Convention : Reuss Voigt Hill
#
# Bulk Modulus (GPa) = 35.27965 55.73904 45.50934
# Shear Modulus (GPa) = 19.51932 27.45285 23.48608
#
# Velocity S-wave (km/s) = 2.90512 3.44529 3.18667
# Velocity P-wave (km/s) = 5.14851 6.31879 5.76343
#
# Compressibility (1/GPa) = 0.02834495
#
# Stress axis : x y z
#
# Youngs Moduli (GPa) = 40.39270 66.37609 74.65847
#
# Poissons Ratio (x) = 0.04898 0.59530
# Poissons Ratio (y) = 0.02981 0.27806
# Poissons Ratio (z) = 0.32208 0.24721
#
# Static dielectric constant tensor:
#      x y z
#    x 2.511810 0.000000 0.089240 
#    y 0.000000 2.271530 0.000000 
#    z 0.089240 0.000000 2.234790 
# 
# From -- ./inp_files/98685.got.cif
#   From: 2010.05.17/outbox.cif.g08.bks.cpg/sg15_50_cif.got.tgz:98685.got - 2010.06.03 18:47:42.
