data_PCOD9296014
_publ_section_title
;
Structure prediction by ZEFSAII (Michael W. Deem and Ramdas Pophale) SiO2 
 PCOD9296014
Probable space group: C 2/C
;
_chemical_formula_sum "Si O2"
_cell_formula_units_Z 60
_cell_length_a 20.917133
_cell_length_b 5.248939
_cell_length_c 23.914275
_cell_angle_alpha 90.000000
_cell_angle_beta 64.407641
_cell_angle_gamma 90.000000
_cell_volume 2368.015509
_symmetry_space_group_name_H-M "C 2/C"
_symmetry_group_IT_number 15
_symmetry_cell_setting 'monoclinic'
loop_
_space_group_symop_operation_xyz
x,y,z
-x,y,1/2-z
-x,-y,-z
x,-y,1/2+z
1/2+x,1/2+y,z
1/2-x,1/2+y,1/2-z
1/2-x,1/2-y,-z
1/2+x,1/2-y,1/2+z
loop_
_atom_site_type_symbol
_atom_site_label
_atom_site_fract_x
_atom_site_fract_y
_atom_site_fract_z
Si Si1 0.000000 0.523837 0.250000
Si Si2 0.828287 0.295678 0.021553
Si Si3 0.187095 0.264093 0.828090
Si Si4 0.242375 0.704144 0.589714
Si Si5 0.368978 0.430802 0.390685
Si Si6 0.896991 0.236541 0.103609
Si Si7 0.011200 0.160016 0.336110
Si Si8 0.368733 0.646068 0.764605
O O1 0.028422 0.351608 0.189490
O O2 0.934935 0.663668 0.245616
O O3 0.793377 0.568216 0.047556
O O4 0.895233 0.269650 0.037909
O O5 0.776031 0.064761 0.060347
O O6 0.845484 0.236186 0.951526
O O7 0.254399 0.223669 0.843218
O O8 0.154206 0.541259 0.852955
O O9 0.188566 0.220501 0.760760
O O10 0.133286 0.044303 0.870394
O O11 0.168165 0.790603 0.591160
O O12 0.454001 0.436157 0.359994
O O13 0.343844 0.357218 0.337839
O O14 0.969686 0.257355 0.109980
O O15 0.085865 0.093423 0.276991
#
# Coordination Sequence:
#
# PCOD9296014 Si02
#       8
#     4   8   8   8   8   8   8   8
#     4  12  18  36  62  84 130 158 200 252 320 380
#     4  10  23  44  65  91 126 169 215 263 307 366
#     4   9  19  39  64  83 121 166 203 252 311 365
#     4  10  23  45  64  91 126 170 215 261 308 365
#     4  12  23  39  64  95 129 164 211 261 316 376
#     4   9  19  38  64  85 121 166 203 252 312 364
#     4  11  22  38  57  93 125 161 205 257 320 381
#     4  11  22  39  57  94 126 161 203 258 319 381
#
# _framework density 25.337674
#
# number of rings (size 3 to 8) (size 9 to 14) (size 15 to 20)
#    0.000    1.600    4.000    0.800    0.000    2.667 
#    0.000    8.000    0.000    7.200    0.000    0.000 
#    0.000    0.000    0.000    0.000    0.000    0.000 
#
# Total GULP energy -167637.358679 kJ/mol
# GULP energy per Si atom -5587.911956 kJ/mol
# Density = 2.528000 g / cm^3
# Si number density = 25.337674 Si / 1000 Ang^3
#
#
#
# Elastic Constant Matrix: (Units=GPa)
#
#
# Indices 1 2 3 4 5 6 
#
# 1 91.0551 12.9084 52.6559 -0.0113 33.5645 0.0186
# 2 12.9084 94.0680 21.1177 -0.0016 -0.1685 0.0130
# 3 52.6559 21.1177 154.7186 -0.0391 40.9323 0.0374
# 4 -0.0113 -0.0016 -0.0391 21.2759 -0.0035 17.1287
# 5 33.5645 -0.1685 40.9323 -0.0035 44.6009 0.0178
# 6 0.0186 0.0130 0.0374 17.1287 0.0178 17.6689
#
#
#
# Elastic Compliance Matrix: (Units=1/GPa)
#
#
# Indices 1 2 3 4 5 6 
#
# 1 0.016445 -0.001653 -0.002767 0.000010 -0.009842 -0.000010
# 2 -0.001653 0.011252 -0.001735 0.000009 0.002879 -0.000014
# 3 -0.002767 -0.001735 0.009367 0.000099 -0.006521 -0.000105
# 4 0.000010 0.000009 0.000099 0.214091 0.000001 -0.207546
# 5 -0.009842 0.002879 -0.006521 0.000001 0.035823 -0.000015
# 6 -0.000010 -0.000014 -0.000105 -0.207546 -0.000015 0.257797
#
#
# Mechanical properties :
#
#
# Convention : Reuss Voigt Hill
#
# Bulk Modulus (GPa) = 40.39757 57.02283 48.71020
# Shear Modulus (GPa) = 8.84429 33.58646 21.21537
#
# Velocity S-wave (km/s) = 1.87033 3.64477 2.89676
# Velocity P-wave (km/s) = 4.54340 6.34558 5.51856
#
# Compressibility (1/GPa) = 0.02475397
#
# Stress axis : x y z
#
# Youngs Moduli (GPa) = 60.80857 88.87270 106.75717
#
# Poissons Ratio (x) = 0.14691 0.29543
# Poissons Ratio (y) = 0.10052 0.18520
# Poissons Ratio (z) = 0.16827 0.15417
#
# Static dielectric constant tensor:
#      x y z
#    x 2.083010 0.000050 -0.000120 
#    y 0.000050 2.081060 -0.000030 
#    z -0.000120 -0.000030 2.008760 
# 
# From -- ./inp_files/280962.got.cif
#   From: 2010.05.17/outbox.cif.g08.bks.cpg/sg15_141_cif.got.tgz:280962.got - 2010.06.03 18:47:42.
