data_PCOD9296930
_publ_section_title
;
Structure prediction by ZEFSAII (Michael W. Deem and Ramdas Pophale) SiO2 
 PCOD9296930
Probable space group: C 2/C
;
_chemical_formula_sum "Si O2"
_cell_formula_units_Z 32
_cell_length_a 10.240707
_cell_length_b 16.642751
_cell_length_c 8.737187
_cell_angle_alpha 90.000000
_cell_angle_beta 107.565057
_cell_angle_gamma 90.000000
_cell_volume 1419.679789
_symmetry_space_group_name_H-M "C 2/C"
_symmetry_group_IT_number 15
_symmetry_cell_setting 'monoclinic'
loop_
_space_group_symop_operation_xyz
x,y,z
-x,y,1/2-z
-x,-y,-z
x,-y,1/2+z
1/2+x,1/2+y,z
1/2-x,1/2+y,1/2-z
1/2-x,1/2-y,-z
1/2+x,1/2-y,1/2+z
loop_
_atom_site_type_symbol
_atom_site_label
_atom_site_fract_x
_atom_site_fract_y
_atom_site_fract_z
Si Si1 0.634107 0.054795 0.052196
Si Si2 0.095071 0.947746 0.427611
Si Si3 0.500000 0.832865 0.250000
Si Si4 0.500000 0.156367 0.250000
Si Si5 0.387879 0.729768 0.464769
O O1 0.616770 0.098114 0.214098
O O2 0.768915 0.998931 0.074162
O O3 0.598614 0.114364 0.896467
O O4 0.500000 0.000000 0.000000
O O5 0.108830 0.865115 0.525824
O O6 0.000000 0.926476 0.250000
O O7 0.000000 0.000000 0.500000
O O8 0.401725 0.772964 0.308522
O O9 0.510412 0.218987 0.393454
O O10 0.250000 0.750000 0.500000
#
# Coordination Sequence:
#
# PCOD9296930 Si02
#       5
#     8   8   4   4   8
#     4  11  25  45  79 105 143 191 251 296 358 441
#     4  12  30  47  71 112 154 188 237 311 376 419
#     4  10  25  46  77 108 136 196 256 290 349 446
#     4  10  23  46  73 102 134 194 246 292 345 446
#     4  11  25  46  73 101 146 190 242 294 363 435
#
# _framework density 22.540295
#
# number of rings (size 3 to 8) (size 9 to 14) (size 15 to 20)
#    0.000    1.000    1.250    3.750   15.750    0.000 
#    0.000    5.000    0.000    0.000    0.000    0.000 
#    0.000    0.000    0.000    0.000    0.000    0.000 
#
# Total GULP energy -89102.266041 kJ/mol
# GULP energy per Si atom -5568.891628 kJ/mol
# Density = 2.248899 g / cm^3
# Si number density = 22.540295 Si / 1000 Ang^3
#
#
#
# Elastic Constant Matrix: (Units=GPa)
#
#
# Indices 1 2 3 4 5 6 
#
# 1 133.4853 79.4684 25.4187 0.0000 -22.3525 0.0000
# 2 79.4684 203.2792 58.6369 0.0000 -22.3061 0.0000
# 3 25.4187 58.6369 96.6257 0.0000 -17.1837 0.0000
# 4 0.0000 0.0000 0.0000 45.4306 0.0000 -8.3972
# 5 -22.3525 -22.3061 -17.1837 0.0000 40.3238 0.0000
# 6 0.0000 0.0000 0.0000 -8.3972 0.0000 21.4624
#
#
#
# Elastic Compliance Matrix: (Units=1/GPa)
#
#
# Indices 1 2 3 4 5 6 
#
# 1 0.010258 -0.003652 0.000184 0.000000 0.003744 0.000000
# 2 -0.003652 0.007401 -0.003422 0.000000 0.000611 0.000000
# 3 0.000184 -0.003422 0.013048 0.000000 0.003769 0.000000
# 4 0.000000 0.000000 0.000000 0.023728 0.000000 0.009283
# 5 0.003744 0.000611 0.003769 0.000000 0.028819 0.000000
# 6 0.000000 0.000000 0.000000 0.009283 0.000000 0.050225
#
#
# Mechanical properties :
#
#
# Convention : Reuss Voigt Hill
#
# Bulk Modulus (GPa) = 59.08089 84.49311 71.78700
# Shear Modulus (GPa) = 32.70077 39.43443 36.06760
#
# Velocity S-wave (km/s) = 3.81303 4.18725 4.00451
# Velocity P-wave (km/s) = 6.75675 7.80667 7.30061
#
# Compressibility (1/GPa) = 0.01692595
#
# Stress axis : x y z
#
# Youngs Moduli (GPa) = 97.48742 135.11165 76.64156
#
# Poissons Ratio (x) = 0.49346 -0.01408
# Poissons Ratio (y) = 0.35605 0.26226
# Poissons Ratio (z) = -0.01791 0.46234
#
# Static dielectric constant tensor:
#      x y z
#    x 1.901430 0.000000 0.186790 
#    y 0.000000 2.769260 0.000000 
#    z 0.186790 0.000000 2.162580 
# 
# From -- ./inp_files/28003.got.cif
#   From: 2010.05.17/outbox.cif.g08.bks.cpg/sg15_15_cif.got.tgz:28003.got - 2010.06.03 18:47:42.
