data_PCOD9296767
_publ_section_title
;
Structure prediction by ZEFSAII (Michael W. Deem and Ramdas Pophale) SiO2 
 PCOD9296767
Probable space group: C 2/C
;
_chemical_formula_sum "Si O2"
_cell_formula_units_Z 60
_cell_length_a 15.503363
_cell_length_b 18.907417
_cell_length_c 15.649877
_cell_angle_alpha 90.000000
_cell_angle_beta 37.972693
_cell_angle_gamma 90.000000
_cell_volume 2822.578108
_symmetry_space_group_name_H-M "C 2/C"
_symmetry_group_IT_number 15
_symmetry_cell_setting 'monoclinic'
loop_
_space_group_symop_operation_xyz
x,y,z
-x,y,1/2-z
-x,-y,-z
x,-y,1/2+z
1/2+x,1/2+y,z
1/2-x,1/2+y,1/2-z
1/2-x,1/2-y,-z
1/2+x,1/2-y,1/2+z
loop_
_atom_site_type_symbol
_atom_site_label
_atom_site_fract_x
_atom_site_fract_y
_atom_site_fract_z
Si Si1 0.823033 0.059577 0.711266
Si Si2 0.864553 0.018617 0.003374
Si Si3 0.338758 0.015355 0.493925
Si Si4 0.232261 0.346234 0.684673
Si Si5 0.500000 0.873309 0.750000
Si Si6 0.173011 0.299198 0.308284
Si Si7 0.111894 0.618340 0.453778
Si Si8 0.839607 0.781048 0.853445
O O1 0.797919 0.144303 0.724594
O O2 0.967644 0.022761 0.629654
O O3 0.810924 0.030564 0.623454
O O4 0.716855 0.039712 0.870267
O O5 0.786755 0.999735 0.975777
O O6 0.827420 0.098959 0.059352
O O7 0.426699 0.074632 0.375722
O O8 0.425550 0.946460 0.454776
O O9 0.109507 0.326925 0.715531
O O10 0.301773 0.275063 0.664048
O O11 0.167383 0.391406 0.814122
O O12 0.160095 0.278463 0.219628
O O13 0.023624 0.332448 0.449179
O O14 0.247276 0.654434 0.391054
O O15 0.000000 0.799454 0.750000
O O16 0.750000 0.750000 0.000000
#
# Coordination Sequence:
#
# PCOD9296767 Si02
#       8
#     8   8   8   8   4   8   8   8
#     4  11  24  44  67 101 135 180 232 290 344 418
#     4  10  24  43  70  97 140 180 231 283 353 419
#     4  11  24  44  68 102 131 178 230 290 348 418
#     4  10  23  46  63 103 134 181 226 285 347 411
#     4  10  24  44  74  96 138 182 234 284 352 414
#     4  11  26  40  70  97 137 185 230 287 354 415
#     4  11  24  41  71  99 141 178 225 292 351 413
#     4  11  24  42  62  98 139 180 230 280 347 425
#
# _framework density 21.257161
#
# number of rings (size 3 to 8) (size 9 to 14) (size 15 to 20)
#    0.000    1.333    2.667    1.200    9.333    2.133 
#    2.400    2.000    0.000    0.000    0.000    0.000 
#    0.000    0.000    0.000    0.000    0.000    0.000 
#
# Total GULP energy -167404.278588 kJ/mol
# GULP energy per Si atom -5580.142620 kJ/mol
# Density = 2.120878 g / cm^3
# Si number density = 21.257161 Si / 1000 Ang^3
#
#
#
# Elastic Constant Matrix: (Units=GPa)
#
#
# Indices 1 2 3 4 5 6 
#
# 1 102.2439 25.6355 19.6771 -0.0005 -1.3424 0.0001
# 2 25.6355 66.2611 13.5069 -0.0005 3.4536 0.0000
# 3 19.6771 13.5069 86.0035 -0.0011 0.6024 0.0002
# 4 -0.0005 -0.0005 -0.0011 17.5549 0.0002 1.8832
# 5 -1.3424 3.4536 0.6024 0.0002 25.7542 0.0000
# 6 0.0001 0.0000 0.0002 1.8832 0.0000 24.0776
#
#
#
# Elastic Compliance Matrix: (Units=1/GPa)
#
#
# Indices 1 2 3 4 5 6 
#
# 1 0.011168 -0.003986 -0.001937 0.000000 0.001162 0.000000
# 2 -0.003986 0.017121 -0.001760 0.000000 -0.002463 0.000000
# 3 -0.001937 -0.001760 0.012348 0.000001 -0.000154 0.000000
# 4 0.000000 0.000000 0.000001 0.057446 -0.000001 -0.004493
# 5 0.001162 -0.002463 -0.000154 -0.000001 0.039223 0.000000
# 6 0.000000 0.000000 0.000000 -0.004493 0.000000 0.041884
#
#
# Mechanical properties :
#
#
# Convention : Reuss Voigt Hill
#
# Bulk Modulus (GPa) = 39.57137 41.34971 40.46054
# Shear Modulus (GPa) = 24.63291 26.52329 25.57810
#
# Velocity S-wave (km/s) = 3.40782 3.53616 3.47258
# Velocity P-wave (km/s) = 5.84297 6.01389 5.92905
#
# Compressibility (1/GPa) = 0.02527079
#
# Stress axis : x y z
#
# Youngs Moduli (GPa) = 89.54037 58.40737 80.98428
#
# Poissons Ratio (x) = 0.23284 0.15689
# Poissons Ratio (y) = 0.35695 0.14250
# Poissons Ratio (z) = 0.17346 0.10277
#
# Static dielectric constant tensor:
#      x y z
#    x 1.942960 0.000000 -0.259980 
#    y 0.000000 1.826650 0.000000 
#    z -0.259980 0.000000 1.992960 
# 
# From -- ./inp_files/156368.got.cif
#   From: 2010.05.17/outbox.cif.g08.bks.cpg/sg15_79_cif.got.tgz:156368.got - 2010.06.03 18:47:42.
