data_PCOD9296533
_publ_section_title
;
Structure prediction by ZEFSAII (Michael W. Deem and Ramdas Pophale) SiO2 
 PCOD9296533
Probable space group: C 2/C
;
_chemical_formula_sum "Si O2"
_cell_formula_units_Z 52
_cell_length_a 11.839224
_cell_length_b 28.490505
_cell_length_c 7.145062
_cell_angle_alpha 90.000000
_cell_angle_beta 110.860003
_cell_angle_gamma 90.000000
_cell_volume 2252.096410
_symmetry_space_group_name_H-M "C 2/C"
_symmetry_group_IT_number 15
_symmetry_cell_setting 'monoclinic'
loop_
_space_group_symop_operation_xyz
x,y,z
-x,y,1/2-z
-x,-y,-z
x,-y,1/2+z
1/2+x,1/2+y,z
1/2-x,1/2+y,1/2-z
1/2-x,1/2-y,-z
1/2+x,1/2-y,1/2+z
loop_
_atom_site_type_symbol
_atom_site_label
_atom_site_fract_x
_atom_site_fract_y
_atom_site_fract_z
Si Si1 0.094165 0.786093 0.471257
Si Si2 0.971134 0.111478 0.448641
Si Si3 0.778417 0.568052 0.251940
Si Si4 0.835106 0.690274 0.880030
Si Si5 0.098375 0.471616 0.174771
Si Si6 0.737002 0.601266 0.654850
Si Si7 0.500000 0.868206 0.750000
O O1 0.047037 0.833101 0.538504
O O2 0.117002 0.742908 0.625703
O O3 0.220320 0.800932 0.448403
O O4 0.000000 0.772599 0.250000
O O5 0.846250 0.085213 0.414348
O O6 0.000000 0.101389 0.250000
O O7 0.096281 0.099449 0.624816
O O8 0.812155 0.514453 0.219701
O O9 0.757865 0.576895 0.464357
O O10 0.893613 0.599708 0.269732
O O11 0.785965 0.654653 0.692769
O O12 0.939900 0.663779 0.055066
O O13 0.182564 0.429918 0.157660
O O14 0.000000 0.446846 0.250000
O O15 0.000000 0.500000 0.000000
#
# Coordination Sequence:
#
# PCOD9296533 Si02
#       7
#     8   8   8   8   8   8   4
#     4  11  21  44  65  95 131 172 218 270 323 397
#     4  10  23  45  67  94 133 173 217 273 331 389
#     4  11  24  43  68  94 134 173 221 273 328 390
#     4  11  24  38  66  96 128 171 219 266 330 389
#     4  12  24  42  66  97 134 174 221 271 328 388
#     4  11  25  44  65  97 134 174 216 274 332 390
#     4  12  22  38  64  96 126 172 220 268 324 384
#
# _framework density 23.089599
#
# number of rings (size 3 to 8) (size 9 to 14) (size 15 to 20)
#    0.000    0.923    6.154    0.923    0.000    0.615 
#    2.769    1.538    0.000    0.000    0.000    0.000 
#    0.000    0.000    0.000    0.000    0.000    0.000 
#
# Total GULP energy -145181.945429 kJ/mol
# GULP energy per Si atom -5583.920978 kJ/mol
# Density = 2.303705 g / cm^3
# Si number density = 23.089599 Si / 1000 Ang^3
#
#
#
# Elastic Constant Matrix: (Units=GPa)
#
#
# Indices 1 2 3 4 5 6 
#
# 1 154.7990 65.9765 38.7445 0.0000 39.8929 0.0000
# 2 65.9765 146.1414 28.3050 0.0000 28.4200 0.0000
# 3 38.7445 28.3050 76.0514 0.0000 29.8307 0.0000
# 4 0.0000 0.0000 0.0000 13.6761 0.0000 29.7619
# 5 39.8929 28.4200 29.8307 0.0000 43.8537 0.0000
# 6 0.0000 0.0000 0.0000 29.7619 0.0000 13.9900
#
#
#
# Elastic Compliance Matrix: (Units=1/GPa)
#
#
# Indices 1 2 3 4 5 6 
#
# 1 0.009569 -0.002899 -0.001526 0.000000 -0.005788 0.000000
# 2 -0.002899 0.008797 -0.000812 0.000000 -0.002512 0.000000
# 3 -0.001526 -0.000812 0.018382 0.000000 -0.010590 0.000000
# 4 0.000000 0.000000 0.000000 -0.020146 0.000000 0.042857
# 5 -0.005788 -0.002512 -0.010590 0.000000 0.036900 0.000000
# 6 0.000000 0.000000 0.000000 0.042857 0.000000 -0.019694
#
#
# Mechanical properties :
#
#
# Convention : Reuss Voigt Hill
#
# Bulk Modulus (GPa) = 38.05845 71.44930 54.75387
# Shear Modulus (GPa) = 94.26680 30.56835 62.41758
#
# Velocity S-wave (km/s) = 6.39650 3.64249 5.20495
# Velocity P-wave (km/s) = 8.43044 6.97867 7.73867
#
# Compressibility (1/GPa) = 0.02627537
#
# Stress axis : x y z
#
# Youngs Moduli (GPa) = 104.50347 113.67332 54.39980
#
# Poissons Ratio (x) = 0.32953 0.08299
# Poissons Ratio (y) = 0.30294 0.04418
# Poissons Ratio (z) = 0.15943 0.09232
#
# Static dielectric constant tensor:
#      x y z
#    x 1.883270 0.000000 -0.067900 
#    y 0.000000 1.855370 0.000000 
#    z -0.067900 0.000000 2.090680 
# 
# From -- ./inp_files/34451.got.cif
#   From: 2010.05.17/outbox.cif.g08.bks.cpg/sg15_18_cif.got.tgz:34451.got - 2010.06.03 18:47:42.
