data_PCOD9296804
_publ_section_title
;
Structure prediction by ZEFSAII (Michael W. Deem and Ramdas Pophale) SiO2 
 PCOD9296804
Probable space group: C 2/C
;
_chemical_formula_sum "Si O2"
_cell_formula_units_Z 52
_cell_length_a 15.941550
_cell_length_b 29.966837
_cell_length_c 9.847385
_cell_angle_alpha 90.000000
_cell_angle_beta 144.733833
_cell_angle_gamma 90.000000
_cell_volume 2716.131505
_symmetry_space_group_name_H-M "C 2/C"
_symmetry_group_IT_number 15
_symmetry_cell_setting 'monoclinic'
loop_
_space_group_symop_operation_xyz
x,y,z
-x,y,1/2-z
-x,-y,-z
x,-y,1/2+z
1/2+x,1/2+y,z
1/2-x,1/2+y,1/2-z
1/2-x,1/2-y,-z
1/2+x,1/2-y,1/2+z
loop_
_atom_site_type_symbol
_atom_site_label
_atom_site_fract_x
_atom_site_fract_y
_atom_site_fract_z
Si Si1 0.500000 0.648106 0.250000
Si Si2 0.527692 0.800427 0.522693
Si Si3 0.710724 0.270979 0.096961
Si Si4 0.752272 0.924696 0.471653
Si Si5 0.000000 0.373267 0.250000
Si Si6 0.900922 0.016956 0.745223
Si Si7 0.143758 0.574190 0.522289
Si Si8 0.500000 0.839785 0.750000
O O1 0.610198 0.684719 0.462835
O O2 0.618841 0.612220 0.353534
O O3 0.624642 0.765289 0.570272
O O4 0.370853 0.781739 0.358791
O O5 0.503271 0.841264 0.385818
O O6 0.586314 0.815105 0.745446
O O7 0.750000 0.250000 0.000000
O O8 0.637683 0.905265 0.426106
O O9 0.814651 0.972817 0.587358
O O10 0.670090 0.931064 0.218077
O O11 0.000000 0.031920 0.750000
O O12 0.786552 0.054159 0.641166
O O13 0.000000 0.000000 0.000000
O O14 0.000000 0.555588 0.250000
O O15 0.116977 0.626816 0.471375
#
# Coordination Sequence:
#
# PCOD9296804 Si02
#       8
#     4   8   8   8   4   8   8   4
#     4  12  19  38  64  94 133 171 218 278 340 389
#     4  12  23  41  64  96 133 171 222 279 338 398
#     4  12  21  37  65  98 126 172 224 280 329 399
#     4  12  24  41  67 101 129 178 225 280 334 406
#     4  12  21  37  68  96 122 164 230 268 323 395
#     4  12  25  44  69 101 138 173 221 281 342 401
#     4  10  23  46  67  93 136 180 224 279 340 400
#     4  10  24  45  66  92 139 175 226 278 337 406
#
# _framework density 19.144874999999999
#
# number of rings (size 3 to 8) (size 9 to 14) (size 15 to 20)
#    0.462    0.000    8.462    0.000    1.077    3.692 
#    0.000    1.538    0.000    0.000    0.000    0.000 
#    0.000    0.000    0.000    0.000    0.000    0.000 
#
# Total GULP energy -144760.135336 kJ/mol
# GULP energy per Si atom -5567.697513 kJ/mol
# Density = 1.910130 g / cm^3
# Si number density = 19.144875 Si / 1000 Ang^3
#
#
#
# Elastic Constant Matrix: (Units=GPa)
#
#
# Indices 1 2 3 4 5 6 
#
# 1 104.7954 36.3212 30.8569 0.0000 16.9653 0.0000
# 2 36.3212 72.5122 1.0399 0.0000 6.1929 0.0000
# 3 30.8569 1.0399 73.0024 0.0000 6.5502 0.0000
# 4 0.0000 0.0000 0.0000 28.2486 0.0000 1.2966
# 5 16.9653 6.1929 6.5502 0.0000 39.9438 0.0000
# 6 0.0000 0.0000 0.0000 1.2966 0.0000 12.5931
#
#
#
# Elastic Compliance Matrix: (Units=1/GPa)
#
#
# Indices 1 2 3 4 5 6 
#
# 1 0.014129 -0.006651 -0.005512 0.000000 -0.004066 0.000000
# 2 -0.006651 0.017107 0.002590 0.000000 -0.000252 0.000000
# 3 -0.005512 0.002590 0.016053 0.000000 -0.000693 0.000000
# 4 0.000000 0.000000 0.000000 0.035568 0.000000 -0.003662
# 5 -0.004066 -0.000252 -0.000693 0.000000 0.026915 0.000000
# 6 0.000000 0.000000 0.000000 -0.003662 0.000000 0.079786
#
#
# Mechanical properties :
#
#
# Convention : Reuss Voigt Hill
#
# Bulk Modulus (GPa) = 35.53336 42.97178 39.25257
# Shear Modulus (GPa) = 22.92688 28.29656 25.61172
#
# Velocity S-wave (km/s) = 3.46431 3.84868 3.66154
# Velocity P-wave (km/s) = 5.88239 6.49954 6.19865
#
# Compressibility (1/GPa) = 0.02814257
#
# Stress axis : x y z
#
# Youngs Moduli (GPa) = 70.77694 58.45705 62.29174
#
# Poissons Ratio (x) = 0.38879 0.34338
# Poissons Ratio (y) = 0.47073 -0.16134
# Poissons Ratio (z) = 0.39016 -0.15141
#
# Static dielectric constant tensor:
#      x y z
#    x 1.658530 0.000000 -0.043120 
#    y 0.000000 1.680380 0.000000 
#    z -0.043120 0.000000 1.957370 
# 
# From -- ./inp_files/44943.got.cif
#   From: 2010.05.17/outbox.cif.g08.bks.cpg/sg15_23_cif.got.tgz:44943.got - 2010.06.03 18:47:42.
