data_PCOD9296931
_publ_section_title
;
Structure prediction by ZEFSAII (Michael W. Deem and Ramdas Pophale) SiO2 
 PCOD9296931
Probable space group: C 2/C
;
_chemical_formula_sum "Si O2"
_cell_formula_units_Z 36
_cell_length_a 7.691166
_cell_length_b 18.689222
_cell_length_c 10.084079
_cell_angle_alpha 90.000000
_cell_angle_beta 97.419141
_cell_angle_gamma 90.000000
_cell_volume 1437.369626
_symmetry_space_group_name_H-M "C 2/C"
_symmetry_group_IT_number 15
_symmetry_cell_setting 'monoclinic'
loop_
_space_group_symop_operation_xyz
x,y,z
-x,y,1/2-z
-x,-y,-z
x,-y,1/2+z
1/2+x,1/2+y,z
1/2-x,1/2+y,1/2-z
1/2-x,1/2-y,-z
1/2+x,1/2-y,1/2+z
loop_
_atom_site_type_symbol
_atom_site_label
_atom_site_fract_x
_atom_site_fract_y
_atom_site_fract_z
Si Si1 0.585275 0.940237 0.111581
Si Si2 0.221854 0.337430 0.912532
Si Si3 0.500000 0.284514 0.250000
Si Si4 0.635124 0.678490 0.508940
Si Si5 0.198739 0.935710 0.810300
O O1 0.500000 0.930874 0.250000
O O2 0.763018 0.982812 0.159544
O O3 0.634973 0.868419 0.037265
O O4 0.500000 0.000000 0.000000
O O5 0.198378 0.400306 0.801410
O O6 0.121846 0.268649 0.847324
O O7 0.430902 0.320838 0.940713
O O8 0.382955 0.330543 0.336420
O O9 0.750000 0.750000 0.500000
O O10 0.726938 0.614192 0.441106
O O11 0.000000 0.929015 0.750000
#
# Coordination Sequence:
#
# PCOD9296931 Si02
#       5
#     8   8   4   8   8
#     4  12  25  46  76 112 151 198 248 313 383 457
#     4  11  24  47  73 106 148 197 251 316 377 451
#     4  12  24  48  70 104 152 192 256 316 368 448
#     4  11  25  44  75 100 142 201 251 309 382 442
#     4  10  23  46  73 102 147 194 247 313 379 447
#
# _framework density 25.045746999999999
#
# number of rings (size 3 to 8) (size 9 to 14) (size 15 to 20)
#    0.000    0.889    4.444    2.000    0.000    5.333 
#    2.000    0.000    0.000    0.000    0.000    0.000 
#    0.000    0.000    0.000    0.000    0.000    0.000 
#
# Total GULP energy -100695.555976 kJ/mol
# GULP energy per Si atom -5594.197554 kJ/mol
# Density = 2.498874 g / cm^3
# Si number density = 25.045747 Si / 1000 Ang^3
#
#
#
# Elastic Constant Matrix: (Units=GPa)
#
#
# Indices 1 2 3 4 5 6 
#
# 1 118.1377 45.6055 51.9220 0.0000 -2.9617 0.0000
# 2 45.6055 95.1176 57.9719 0.0000 3.4837 0.0000
# 3 51.9220 57.9719 170.0795 0.0000 -41.0878 0.0000
# 4 0.0000 0.0000 0.0000 49.8004 0.0000 -5.4644
# 5 -2.9617 3.4837 -41.0878 0.0000 38.2268 0.0000
# 6 0.0000 0.0000 0.0000 -5.4644 0.0000 39.4131
#
#
#
# Elastic Compliance Matrix: (Units=1/GPa)
#
#
# Indices 1 2 3 4 5 6 
#
# 1 0.010923 -0.003720 -0.002404 0.000000 -0.001399 0.000000
# 2 -0.003720 0.016759 -0.006774 0.000000 -0.009097 0.000000
# 3 -0.002404 -0.006774 0.012193 0.000000 0.013536 0.000000
# 4 0.000000 0.000000 0.000000 0.020390 0.000000 0.002827
# 5 -0.001399 -0.009097 0.013536 0.000000 0.041430 0.000000
# 6 0.000000 0.000000 0.000000 0.002827 0.000000 0.025764
#
#
# Mechanical properties :
#
#
# Convention : Reuss Voigt Hill
#
# Bulk Modulus (GPa) = 71.04029 77.14818 74.09423
# Shear Modulus (GPa) = 31.65597 40.67708 36.16653
#
# Velocity S-wave (km/s) = 3.55903 4.03440 3.80415
# Velocity P-wave (km/s) = 6.73162 7.25063 6.99594
#
# Compressibility (1/GPa) = 0.01407652
#
# Stress axis : x y z
#
# Youngs Moduli (GPa) = 91.55389 59.66971 82.01662
#
# Poissons Ratio (x) = 0.22199 0.19719
# Poissons Ratio (y) = 0.34061 0.55559
# Poissons Ratio (z) = 0.22012 0.40421
#
# Static dielectric constant tensor:
#      x y z
#    x 2.051140 0.000000 0.014460 
#    y 0.000000 1.923050 0.000000 
#    z 0.014460 0.000000 2.113630 
# 
# From -- ./inp_files/23188.got.cif
#   From: 2010.05.17/outbox.cif.g08.bks.cpg/sg15_12_cif.got.tgz:23188.got - 2010.06.03 18:47:42.
