data_PCOD9296575
_publ_section_title
;
Structure prediction by ZEFSAII (Michael W. Deem and Ramdas Pophale) SiO2 
 PCOD9296575
Probable space group: C 2/C
;
_chemical_formula_sum "Si O2"
_cell_formula_units_Z 48
_cell_length_a 13.576022
_cell_length_b 29.141603
_cell_length_c 8.767315
_cell_angle_alpha 90.000000
_cell_angle_beta 41.834316
_cell_angle_gamma 90.000000
_cell_volume 2313.474063
_symmetry_space_group_name_H-M "C 2/C"
_symmetry_group_IT_number 15
_symmetry_cell_setting 'monoclinic'
loop_
_space_group_symop_operation_xyz
x,y,z
-x,y,1/2-z
-x,-y,-z
x,-y,1/2+z
1/2+x,1/2+y,z
1/2-x,1/2+y,1/2-z
1/2-x,1/2-y,-z
1/2+x,1/2-y,1/2+z
loop_
_atom_site_type_symbol
_atom_site_label
_atom_site_fract_x
_atom_site_fract_y
_atom_site_fract_z
Si Si1 0.361579 0.382661 0.019622
Si Si2 0.094785 0.963985 0.295125
Si Si3 0.299247 0.300788 0.634780
Si Si4 0.345983 0.117039 0.006043
Si Si5 0.850038 0.203514 0.723102
Si Si6 0.612203 0.022149 0.487654
O O1 0.394408 0.417692 0.118124
O O2 0.305532 0.335606 0.156427
O O3 0.500000 0.373961 0.750000
O O4 0.244780 0.401523 0.034987
O O5 0.256564 0.988724 0.105603
O O6 0.000000 0.956810 0.250000
O O7 0.000000 0.000000 0.500000
O O8 0.227838 0.340551 0.819995
O O9 0.215380 0.252462 0.748342
O O10 0.471804 0.295376 0.477100
O O11 0.295515 0.309770 0.456345
O O12 0.338939 0.072641 0.125303
O O13 0.500000 0.131597 0.750000
O O14 0.500000 0.000000 0.500000
O O15 0.500000 0.034498 0.750000
#
# Coordination Sequence:
#
# PCOD9296575 Si02
#       6
#     8   8   8   8   8   8
#     4  12  25  43  65 101 136 174 227 283 340 407
#     4  12  25  41  70 101 135 179 228 284 347 409
#     4  10  23  45  68  97 137 173 225 276 341 408
#     4  11  24  43  68  97 137 178 223 281 336 406
#     4  10  24  43  69  98 132 178 221 280 336 411
#     4  11  24  45  66  95 135 177 225 274 333 403
#
# _framework density 20.748016
#
# number of rings (size 3 to 8) (size 9 to 14) (size 15 to 20)
#    0.000    1.000    1.667    5.500    4.667    2.667 
#    0.000    0.000    0.000    0.000    0.000    0.000 
#    0.000    0.000    0.000    0.000    0.000    0.000 
#
# Total GULP energy -133958.006526 kJ/mol
# GULP energy per Si atom -5581.583605 kJ/mol
# Density = 2.070079 g / cm^3
# Si number density = 20.748016 Si / 1000 Ang^3
#
#
#
# Elastic Constant Matrix: (Units=GPa)
#
#
# Indices 1 2 3 4 5 6 
#
# 1 109.7909 52.1909 26.0799 0.0000 6.6020 0.0000
# 2 52.1909 139.6591 55.8195 0.0000 21.3044 0.0000
# 3 26.0799 55.8195 78.6571 0.0000 1.5900 0.0000
# 4 0.0000 0.0000 0.0000 18.9778 0.0000 -3.2695
# 5 6.6020 21.3044 1.5900 0.0000 20.0051 0.0000
# 6 0.0000 0.0000 0.0000 -3.2695 0.0000 32.5208
#
#
#
# Elastic Compliance Matrix: (Units=1/GPa)
#
#
# Indices 1 2 3 4 5 6 
#
# 1 0.011139 -0.003852 -0.000970 0.000000 0.000503 0.000000
# 2 -0.003852 0.013884 -0.008316 0.000000 -0.012854 0.000000
# 3 -0.000970 -0.008316 0.018781 0.000000 0.007684 0.000000
# 4 0.000000 0.000000 0.000000 0.053622 0.000000 0.005391
# 5 0.000503 -0.012854 0.007684 0.000000 0.062900 0.000000
# 6 0.000000 0.000000 0.000000 0.005391 0.000000 0.031292
#
#
# Mechanical properties :
#
#
# Convention : Reuss Voigt Hill
#
# Bulk Modulus (GPa) = 57.04847 66.25420 61.65134
# Shear Modulus (GPa) = 22.34760 27.23519 24.79140
#
# Velocity S-wave (km/s) = 3.28547 3.62700 3.46045
# Velocity P-wave (km/s) = 6.47673 7.03863 6.76352
#
# Compressibility (1/GPa) = 0.01752895
#
# Stress axis : x y z
#
# Youngs Moduli (GPa) = 89.77104 72.02320 53.24411
#
# Poissons Ratio (x) = 0.27742 0.05166
# Poissons Ratio (y) = 0.34578 0.44279
# Poissons Ratio (z) = 0.08709 0.59896
#
# Static dielectric constant tensor:
#      x y z
#    x 1.804570 0.000000 -0.013000 
#    y 0.000000 1.838240 0.000000 
#    z -0.013000 0.000000 1.781940 
# 
# From -- ./inp_files/43838.got.cif
#   From: 2010.05.17/outbox.cif.g08.bks.cpg/sg15_22_cif.got.tgz:43838.got - 2010.06.03 18:47:42.
