data_PCOD9296379
_publ_section_title
;
Structure prediction by ZEFSAII (Michael W. Deem and Ramdas Pophale) SiO2 
 PCOD9296379
Probable space group: C 2/C
;
_chemical_formula_sum "Si O2"
_cell_formula_units_Z 40
_cell_length_a 6.006527
_cell_length_b 26.473166
_cell_length_c 11.559974
_cell_angle_alpha 90.000000
_cell_angle_beta 78.011849
_cell_angle_gamma 90.000000
_cell_volume 1798.082642
_symmetry_space_group_name_H-M "C 2/C"
_symmetry_group_IT_number 15
_symmetry_cell_setting 'monoclinic'
loop_
_space_group_symop_operation_xyz
x,y,z
-x,y,1/2-z
-x,-y,-z
x,-y,1/2+z
1/2+x,1/2+y,z
1/2-x,1/2+y,1/2-z
1/2-x,1/2-y,-z
1/2+x,1/2-y,1/2+z
loop_
_atom_site_type_symbol
_atom_site_label
_atom_site_fract_x
_atom_site_fract_y
_atom_site_fract_z
Si Si1 0.892714 0.606898 0.140107
Si Si2 0.227995 0.874761 0.089012
Si Si3 0.209050 0.241450 0.640313
Si Si4 0.000000 0.185600 0.250000
Si Si5 0.500000 0.061269 0.750000
Si Si6 0.353272 0.450933 0.032305
O O1 0.705556 0.649715 0.187452
O O2 0.000000 0.589605 0.250000
O O3 0.766230 0.565863 0.073803
O O4 0.097172 0.627473 0.037803
O O5 0.201732 0.819259 0.144084
O O6 0.346356 0.906406 0.178299
O O7 0.004096 0.904133 0.066348
O O8 0.250000 0.250000 0.500000
O O9 0.415138 0.275426 0.663750
O O10 0.000000 0.257104 0.750000
O O11 0.332141 0.033169 0.853069
O O12 0.500000 0.500000 0.000000
#
# Coordination Sequence:
#
# PCOD9296379 Si02
#       6
#     8   8   8   4   4   8
#     4  11  24  46  71 102 145 190 242 302 360 435
#     4  11  24  46  68 104 144 188 242 296 363 431
#     4  12  25  41  70 103 145 191 242 300 366 438
#     4  12  25  44  68 110 144 194 244 299 372 432
#     4  10  23  44  72  98 140 180 232 295 362 428
#     4  11  25  48  72 106 139 188 244 301 366 435
#
# _framework density 22.245918
#
# number of rings (size 3 to 8) (size 9 to 14) (size 15 to 20)
#    0.000    0.800    0.000    7.800    0.000    9.600 
#   18.000    0.000    0.000    0.000    0.000    0.000 
#    0.000    0.000    0.000    0.000    0.000    0.000 
#
# Total GULP energy -111719.923783 kJ/mol
# GULP energy per Si atom -5585.996189 kJ/mol
# Density = 2.219529 g / cm^3
# Si number density = 22.245918 Si / 1000 Ang^3
#
#
#
# Elastic Constant Matrix: (Units=GPa)
#
#
# Indices 1 2 3 4 5 6 
#
# 1 121.8049 52.5678 91.1338 0.0000 3.1331 0.0000
# 2 52.5678 101.7656 55.3061 0.0000 -15.3361 0.0000
# 3 91.1338 55.3061 205.5158 0.0000 8.9884 0.0000
# 4 0.0000 0.0000 0.0000 1.3101 0.0000 1.8919
# 5 3.1331 -15.3361 8.9884 0.0000 42.7111 0.0000
# 6 0.0000 0.0000 0.0000 1.8919 0.0000 25.0164
#
#
#
# Elastic Compliance Matrix: (Units=1/GPa)
#
#
# Indices 1 2 3 4 5 6 
#
# 1 0.013942 -0.004859 -0.004798 0.000000 -0.001758 0.000000
# 2 -0.004859 0.014283 -0.001947 0.000000 0.005895 0.000000
# 3 -0.004798 -0.001947 0.007602 0.000000 -0.001947 0.000000
# 4 0.000000 0.000000 0.000000 0.856870 0.000000 -0.064802
# 5 -0.001758 0.005895 -0.001947 0.000000 0.026068 0.000000
# 6 0.000000 0.000000 0.000000 -0.064802 0.000000 0.044875
#
#
# Mechanical properties :
#
#
# Convention : Reuss Voigt Hill
#
# Bulk Modulus (GPa) = 79.24167 91.90021 85.57094
# Shear Modulus (GPa) = 5.04513 29.14608 17.09561
#
# Velocity S-wave (km/s) = 1.50759 3.62356 2.77516
# Velocity P-wave (km/s) = 6.22322 7.67513 6.98699
#
# Compressibility (1/GPa) = 0.01261962
#
# Stress axis : x y z
#
# Youngs Moduli (GPa) = 71.72610 70.01400 131.53778
#
# Poissons Ratio (x) = 0.34022 0.63110
# Poissons Ratio (y) = 0.34854 0.25606
# Poissons Ratio (z) = 0.34413 0.13629
#
# Static dielectric constant tensor:
#      x y z
#    x 1.840700 0.000000 -0.028480 
#    y 0.000000 1.784040 0.000000 
#    z -0.028480 0.000000 1.740530 
# 
# From -- ./inp_files/73150.got.cif
#   From: 2010.05.17/outbox.cif.g08.bks.cpg/sg15_37_cif.got.tgz:73150.got - 2010.06.03 18:47:42.
