data_PCOD9296808
_publ_section_title
;
Structure prediction by ZEFSAII (Michael W. Deem and Ramdas Pophale) SiO2 
 PCOD9296808
Probable space group: C 2/C
;
_chemical_formula_sum "Si O2"
_cell_formula_units_Z 48
_cell_length_a 6.896026
_cell_length_b 12.083003
_cell_length_c 28.863668
_cell_angle_alpha 90.000000
_cell_angle_beta 120.790856
_cell_angle_gamma 90.000000
_cell_volume 2066.043645
_symmetry_space_group_name_H-M "C 2/C"
_symmetry_group_IT_number 15
_symmetry_cell_setting 'monoclinic'
loop_
_space_group_symop_operation_xyz
x,y,z
-x,y,1/2-z
-x,-y,-z
x,-y,1/2+z
1/2+x,1/2+y,z
1/2-x,1/2+y,1/2-z
1/2-x,1/2-y,-z
1/2+x,1/2-y,1/2+z
loop_
_atom_site_type_symbol
_atom_site_label
_atom_site_fract_x
_atom_site_fract_y
_atom_site_fract_z
Si Si1 0.000000 0.324596 0.250000
Si Si2 0.128882 0.752788 0.034180
Si Si3 0.433316 0.221592 0.344542
Si Si4 0.000000 0.699807 0.250000
Si Si5 0.344200 0.490434 0.774521
Si Si6 0.311123 0.626222 0.550106
Si Si7 0.227427 0.930497 0.887063
O O1 0.171125 0.260056 0.304589
O O2 0.172884 0.408611 0.246685
O O3 0.289004 0.689697 0.090406
O O4 0.023538 0.868705 0.039921
O O5 0.250000 0.750000 0.000000
O O6 0.906874 0.676375 0.001613
O O7 0.543212 0.245527 0.306958
O O8 0.588028 0.290266 0.398672
O O9 0.398204 0.100289 0.364943
O O10 0.794094 0.621262 0.237990
O O11 0.500000 0.488915 0.750000
O O12 0.503242 0.485766 0.838461
O O13 0.227754 0.516414 0.565959
#
# Coordination Sequence:
#
# PCOD9296808 Si02
#       7
#     4   8   8   4   8   8   8
#     4  11  24  42  63  98 142 182 229 280 340 413
#     4  10  24  45  71 100 131 170 226 291 351 411
#     4  11  23  42  67  97 140 182 228 286 347 415
#     4  11  24  40  65  94 138 184 225 282 336 421
#     4  11  23  44  65  98 138 180 233 281 342 416
#     4  10  23  46  67  99 132 175 225 283 353 414
#     4  11  22  45  68  95 136 176 227 282 338 425
#
# _framework density 23.232809
#
# number of rings (size 3 to 8) (size 9 to 14) (size 15 to 20)
#    0.000    1.333    3.333    1.500    3.500    0.667 
#    9.000    0.000    0.000    0.000    0.000    0.000 
#    0.000    0.000    0.000    0.000    0.000    0.000 
#
# Total GULP energy -133613.055929 kJ/mol
# GULP energy per Si atom -5567.210664 kJ/mol
# Density = 2.317993 g / cm^3
# Si number density = 23.232809 Si / 1000 Ang^3
#
#
#
# Elastic Constant Matrix: (Units=GPa)
#
#
# Indices 1 2 3 4 5 6 
#
# 1 121.6930 25.1193 30.1841 0.0000 -29.3484 0.0000
# 2 25.1193 63.2267 18.9046 0.0000 1.4936 0.0000
# 3 30.1841 18.9046 108.3379 0.0000 -15.0765 0.0000
# 4 0.0000 0.0000 0.0000 45.9399 0.0000 17.9359
# 5 -29.3484 1.4936 -15.0765 0.0000 43.8678 0.0000
# 6 0.0000 0.0000 0.0000 17.9359 0.0000 171.9443
#
#
#
# Elastic Compliance Matrix: (Units=1/GPa)
#
#
# Indices 1 2 3 4 5 6 
#
# 1 0.011141 -0.004181 -0.001384 0.000000 0.007120 0.000000
# 2 -0.004181 0.018370 -0.002643 0.000000 -0.004331 0.000000
# 3 -0.001384 -0.002643 0.010461 0.000000 0.002760 0.000000
# 4 0.000000 0.000000 0.000000 0.022692 0.000000 -0.002367
# 5 0.007120 -0.004331 0.002760 0.000000 0.028655 0.000000
# 6 0.000000 0.000000 0.000000 -0.002367 0.000000 0.006063
#
#
# Mechanical properties :
#
#
# Convention : Reuss Voigt Hill
#
# Bulk Modulus (GPa) = 42.45123 49.07485 45.76304
# Shear Modulus (GPa) = 41.10211 66.95371 54.02791
#
# Velocity S-wave (km/s) = 4.21068 5.37412 4.82758
# Velocity P-wave (km/s) = 6.47700 7.72510 7.12842
#
# Compressibility (1/GPa) = 0.02355644
#
# Stress axis : x y z
#
# Youngs Moduli (GPa) = 89.76137 54.43757 95.59179
#
# Poissons Ratio (x) = 0.22758 0.13226
# Poissons Ratio (y) = 0.37525 0.25269
# Poissons Ratio (z) = 0.12419 0.14390
#
# Static dielectric constant tensor:
#      x y z
#    x 1.895990 0.000000 -0.080720 
#    y 0.000000 2.008560 0.000000 
#    z -0.080720 0.000000 1.959240 
# 
# From -- ./inp_files/305248.got.cif
#   From: 2010.05.17/outbox.cif.g08.bks.cpg/sg15_153_cif.got.tgz:305248.got - 2010.06.03 18:47:42.
