data_PCOD9296079
_publ_section_title
;
Structure prediction by ZEFSAII (Michael W. Deem and Ramdas Pophale) SiO2 
 PCOD9296079
Probable space group: C 2/C
;
_chemical_formula_sum "Si O2"
_cell_formula_units_Z 44
_cell_length_a 27.624679
_cell_length_b 5.421607
_cell_length_c 13.883290
_cell_angle_alpha 90.000000
_cell_angle_beta 118.000213
_cell_angle_gamma 90.000000
_cell_volume 1835.911480
_symmetry_space_group_name_H-M "C 2/C"
_symmetry_group_IT_number 15
_symmetry_cell_setting 'monoclinic'
loop_
_space_group_symop_operation_xyz
x,y,z
-x,y,1/2-z
-x,-y,-z
x,-y,1/2+z
1/2+x,1/2+y,z
1/2-x,1/2+y,1/2-z
1/2-x,1/2-y,-z
1/2+x,1/2-y,1/2+z
loop_
_atom_site_type_symbol
_atom_site_label
_atom_site_fract_x
_atom_site_fract_y
_atom_site_fract_z
Si Si1 0.173784 0.432507 0.504327
Si Si2 0.630241 0.041402 0.656430
Si Si3 0.886971 0.789448 0.195427
Si Si4 0.473070 0.750686 0.514434
Si Si5 0.000000 0.129512 0.750000
Si Si6 0.701505 0.368660 0.842079
O O1 0.142034 0.375638 0.573245
O O2 0.143514 0.661967 0.423691
O O3 0.237216 0.466713 0.593673
O O4 0.180714 0.228312 0.427565
O O5 0.589938 0.248880 0.576587
O O6 0.686416 0.155684 0.752129
O O7 0.597468 0.928355 0.716311
O O8 0.939244 0.966721 0.224747
O O9 0.839953 0.912971 0.215062
O O10 0.500000 0.500000 0.500000
O O11 0.480091 0.766167 0.635783
O O12 0.500000 0.000000 0.500000
#
# Coordination Sequence:
#
# PCOD9296079 Si02
#       6
#     8   8   8   8   4   8
#     4  10  23  44  66  99 138 183 238 300 367 437
#     4  11  24  42  68 104 138 181 243 300 368 442
#     4  11  23  43  68  97 139 183 237 293 365 443
#     4  12  27  48  74 108 148 197 251 307 374 451
#     4  12  24  46  70 106 146 198 240 314 374 438
#     4  10  24  43  67 101 138 186 241 299 367 445
#
# _framework density 23.966298999999999
#
# number of rings (size 3 to 8) (size 9 to 14) (size 15 to 20)
#    0.000    1.091    3.636    1.636    2.545    3.636 
#    0.000    0.000    0.000    0.000    0.000    0.000 
#    0.000    0.000    0.000    0.000    0.000    0.000 
#
# Total GULP energy -122571.405152 kJ/mol
# GULP energy per Si atom -5571.427507 kJ/mol
# Density = 2.391175 g / cm^3
# Si number density = 23.966299 Si / 1000 Ang^3
#
#
#
# Elastic Constant Matrix: (Units=GPa)
#
#
# Indices 1 2 3 4 5 6 
#
# 1 82.4814 16.2603 32.2975 0.0000 10.5177 0.0000
# 2 16.2603 53.5112 14.3364 0.0000 -6.0321 0.0000
# 3 32.2975 14.3364 142.5226 0.0000 -8.5689 0.0000
# 4 0.0000 0.0000 0.0000 7.3379 0.0000 5.6288
# 5 10.5177 -6.0321 -8.5689 0.0000 59.3509 0.0000
# 6 0.0000 0.0000 0.0000 5.6288 0.0000 20.9006
#
#
#
# Elastic Compliance Matrix: (Units=1/GPa)
#
#
# Indices 1 2 3 4 5 6 
#
# 1 0.014563 -0.003980 -0.003106 0.000000 -0.003434 0.000000
# 2 -0.003980 0.020462 -0.000998 0.000000 0.002641 0.000000
# 3 -0.003106 -0.000998 0.007916 0.000000 0.001592 0.000000
# 4 0.000000 0.000000 0.000000 0.171763 0.000000 -0.046258
# 5 -0.003434 0.002641 0.001592 0.000000 0.017956 0.000000
# 6 0.000000 0.000000 0.000000 -0.046258 0.000000 0.060303
#
#
# Mechanical properties :
#
#
# Convention : Reuss Voigt Hill
#
# Bulk Modulus (GPa) = 37.35023 44.92261 41.13642
# Shear Modulus (GPa) = 15.72055 31.89260 23.80658
#
# Velocity S-wave (km/s) = 2.56392 3.65187 3.15514
# Velocity P-wave (km/s) = 4.93794 6.04701 5.52040
#
# Compressibility (1/GPa) = 0.02677360
#
# Stress axis : x y z
#
# Youngs Moduli (GPa) = 68.66859 48.87099 126.32008
#
# Poissons Ratio (x) = 0.19451 0.39237
# Poissons Ratio (y) = 0.27330 0.12601
# Poissons Ratio (z) = 0.21330 0.04875
#
# Static dielectric constant tensor:
#      x y z
#    x 1.928060 0.000000 0.039540 
#    y 0.000000 1.948640 0.000000 
#    z 0.039540 0.000000 1.918260 
# 
# From -- ./inp_files/175792.got.cif
#   From: 2010.05.17/outbox.cif.g08.bks.cpg/sg15_88_cif.got.tgz:175792.got - 2010.06.03 18:47:42.
