data_PCOD9296669
_publ_section_title
;
Structure prediction by ZEFSAII (Michael W. Deem and Ramdas Pophale) SiO2 
 PCOD9296669
Probable space group: C 2/C
;
_chemical_formula_sum "Si O2"
_cell_formula_units_Z 56
_cell_length_a 11.767725
_cell_length_b 28.191121
_cell_length_c 10.553359
_cell_angle_alpha 90.000000
_cell_angle_beta 126.729069
_cell_angle_gamma 90.000000
_cell_volume 2805.976989
_symmetry_space_group_name_H-M "C 2/C"
_symmetry_group_IT_number 15
_symmetry_cell_setting 'monoclinic'
loop_
_space_group_symop_operation_xyz
x,y,z
-x,y,1/2-z
-x,-y,-z
x,-y,1/2+z
1/2+x,1/2+y,z
1/2-x,1/2+y,1/2-z
1/2-x,1/2-y,-z
1/2+x,1/2-y,1/2+z
loop_
_atom_site_type_symbol
_atom_site_label
_atom_site_fract_x
_atom_site_fract_y
_atom_site_fract_z
Si Si1 0.228340 0.220170 0.614176
Si Si2 0.513231 0.164578 0.074468
Si Si3 0.388163 0.451045 0.559604
Si Si4 0.423352 0.557174 0.564947
Si Si5 0.264974 0.147994 0.055210
Si Si6 0.589935 0.267826 0.539096
Si Si7 0.857735 0.374011 0.097881
O O1 0.250000 0.250000 0.500000
O O2 0.303397 0.250386 0.777341
O O3 0.306074 0.169846 0.650411
O O4 0.059898 0.210378 0.514244
O O5 0.360441 0.140405 0.994124
O O6 0.623223 0.152949 0.257290
O O7 0.468002 0.219278 0.058487
O O8 0.592032 0.150685 0.998959
O O9 0.500000 0.446892 0.750000
O O10 0.344089 0.506441 0.521857
O O11 0.467639 0.443150 0.479280
O O12 0.264059 0.413075 0.496904
O O13 0.500000 0.563420 0.750000
O O14 0.325280 0.601947 0.480181
O O15 0.168575 0.195381 0.999046
O O16 0.000000 0.396240 0.250000
#
# Coordination Sequence:
#
# PCOD9296669 Si02
#       7
#     8   8   8   8   8   8   8
#     4  12  22  37  62  93 131 173 220 277 324 398
#     4  11  24  41  59  93 136 171 220 271 324 409
#     4  10  23  45  73 101 135 172 223 282 340 404
#     4  10  23  45  72 101 130 170 233 282 330 406
#     4  11  24  42  64  90 131 178 220 272 335 394
#     4  12  22  41  62  89 129 176 224 270 329 390
#     4  12  23  40  65  98 136 171 219 276 335 399
#
# _framework density 19.957397
#
# number of rings (size 3 to 8) (size 9 to 14) (size 15 to 20)
#    0.000    0.857    4.286    2.571    2.000    2.286 
#    5.143    0.714    0.000    0.000    0.000    0.000 
#    0.000    0.000    0.000    0.000    0.000    0.000 
#
# Total GULP energy -156347.175779 kJ/mol
# GULP energy per Si atom -5583.827706 kJ/mol
# Density = 1.991197 g / cm^3
# Si number density = 19.957397 Si / 1000 Ang^3
#
#
#
# Elastic Constant Matrix: (Units=GPa)
#
#
# Indices 1 2 3 4 5 6 
#
# 1 110.6145 51.6523 34.4891 0.0000 10.4176 0.0000
# 2 51.6523 142.6339 51.2377 0.0000 21.8291 0.0000
# 3 34.4891 51.2377 80.6323 0.0000 2.7706 0.0000
# 4 0.0000 0.0000 0.0000 15.0733 0.0000 -10.8309
# 5 10.4176 21.8291 2.7706 0.0000 30.5148 0.0000
# 6 0.0000 0.0000 0.0000 -10.8309 0.0000 12.7058
#
#
#
# Elastic Compliance Matrix: (Units=1/GPa)
#
#
# Indices 1 2 3 4 5 6 
#
# 1 0.011457 -0.002797 -0.003067 0.000000 -0.001632 0.000000
# 2 -0.002797 0.011010 -0.005579 0.000000 -0.006414 0.000000
# 3 -0.003067 -0.005579 0.017139 0.000000 0.003482 0.000000
# 4 0.000000 0.000000 0.000000 0.171215 0.000000 0.145950
# 5 -0.001632 -0.006414 0.003482 0.000000 0.037601 0.000000
# 6 0.000000 0.000000 0.000000 0.145950 0.000000 0.203117
#
#
# Mechanical properties :
#
#
# Convention : Reuss Voigt Hill
#
# Bulk Modulus (GPa) = 59.81186 67.62656 63.71921
# Shear Modulus (GPa) = 10.41671 24.75887 17.58779
#
# Velocity S-wave (km/s) = 2.28710 3.52602 2.97183
# Velocity P-wave (km/s) = 6.08352 7.10887 6.61609
#
# Compressibility (1/GPa) = 0.01671909
#
# Stress axis : x y z
#
# Youngs Moduli (GPa) = 87.28648 90.82733 58.34518
#
# Poissons Ratio (x) = 0.25409 0.17892
# Poissons Ratio (y) = 0.24418 0.32552
# Poissons Ratio (z) = 0.26768 0.50675
#
# Static dielectric constant tensor:
#      x y z
#    x 1.762990 0.000000 0.002370 
#    y 0.000000 1.714910 0.000000 
#    z 0.002370 0.000000 1.685040 
# 
# From -- ./inp_files/92105.got.cif
#   From: 2010.05.17/outbox.cif.g08.bks.cpg/sg15_47_cif.got.tgz:92105.got - 2010.06.03 18:47:42.
