data_PCOD9296786
_publ_section_title
;
Structure prediction by ZEFSAII (Michael W. Deem and Ramdas Pophale) SiO2 
 PCOD9296786
Probable space group: C 2/C
;
_chemical_formula_sum "Si O2"
_cell_formula_units_Z 40
_cell_length_a 22.899735
_cell_length_b 16.505959
_cell_length_c 16.272929
_cell_angle_alpha 90.000000
_cell_angle_beta 161.555781
_cell_angle_gamma 90.000000
_cell_volume 1946.021757
_symmetry_space_group_name_H-M "C 2/C"
_symmetry_group_IT_number 15
_symmetry_cell_setting 'monoclinic'
loop_
_space_group_symop_operation_xyz
x,y,z
-x,y,1/2-z
-x,-y,-z
x,-y,1/2+z
1/2+x,1/2+y,z
1/2-x,1/2+y,1/2-z
1/2-x,1/2-y,-z
1/2+x,1/2-y,1/2+z
loop_
_atom_site_type_symbol
_atom_site_label
_atom_site_fract_x
_atom_site_fract_y
_atom_site_fract_z
Si Si1 0.818260 0.899648 0.964031
Si Si2 0.037419 0.657993 0.963454
Si Si3 0.637276 0.683611 0.505881
Si Si4 0.109287 0.498852 0.318356
Si Si5 0.002199 0.036574 0.411905
O O1 0.703458 0.843775 0.749977
O O2 0.680024 0.935730 0.847614
O O3 0.000000 0.863604 0.250000
O O4 0.894072 0.974947 0.011103
O O5 0.844855 0.677733 0.751029
O O6 0.010950 0.569791 0.887268
O O7 0.081427 0.726077 0.955673
O O8 0.600764 0.622873 0.532914
O O9 0.500000 0.655648 0.250000
O O10 0.292900 0.457172 0.600298
O O11 0.000000 0.533864 0.250000
O O12 0.000000 0.000000 0.500000
#
# Coordination Sequence:
#
# PCOD9296786 Si02
#       5
#     8   8   8   8   8
#     4  10  23  46  66  93 129 172 223 276 315 389
#     4  12  25  41  68  93 138 171 215 268 336 384
#     4  12  25  43  63 102 134 171 213 272 324 396
#     4  11  22  38  67  98 127 170 216 269 326 383
#     4  11  23  40  66  96 134 168 220 266 323 387
#
# _framework density 20.554755
#
# number of rings (size 3 to 8) (size 9 to 14) (size 15 to 20)
#    0.000    0.800    4.000    3.600    8.400    0.000 
#    0.000    1.000    0.000    0.000    0.000    0.000 
#    0.000    0.000    0.000    0.000    0.000    0.000 
#
# Total GULP energy -111892.999856 kJ/mol
# GULP energy per Si atom -5594.649993 kJ/mol
# Density = 2.050797 g / cm^3
# Si number density = 20.554755 Si / 1000 Ang^3
#
#
#
# Elastic Constant Matrix: (Units=GPa)
#
#
# Indices 1 2 3 4 5 6 
#
# 1 128.4701 17.3158 27.5624 0.0000 5.8971 0.0000
# 2 17.3158 22.0997 15.9164 0.0000 -3.6943 0.0000
# 3 27.5624 15.9164 106.4545 0.0000 -9.8432 0.0000
# 4 0.0000 0.0000 0.0000 19.0356 0.0000 -6.5526
# 5 5.8971 -3.6943 -9.8432 0.0000 35.3521 0.0000
# 6 0.0000 0.0000 0.0000 -6.5526 0.0000 37.0112
#
#
#
# Elastic Compliance Matrix: (Units=1/GPa)
#
#
# Indices 1 2 3 4 5 6 
#
# 1 0.009122 -0.006403 -0.001650 0.000000 -0.002650 0.000000
# 2 -0.006403 0.055575 -0.006175 0.000000 0.005156 0.000000
# 3 -0.001650 -0.006175 0.010993 0.000000 0.002691 0.000000
# 4 0.000000 0.000000 0.000000 0.055943 0.000000 0.009904
# 5 -0.002650 0.005156 0.002691 0.000000 0.030017 0.000000
# 6 0.000000 0.000000 0.000000 0.009904 0.000000 0.028772
#
#
# Mechanical properties :
#
#
# Convention : Reuss Voigt Hill
#
# Bulk Modulus (GPa) = 21.17013 42.06817 31.61915
# Shear Modulus (GPa) = 21.31088 31.36175 26.33632
#
# Velocity S-wave (km/s) = 3.22341 3.91034 3.58338
# Velocity P-wave (km/s) = 4.91687 6.39520 5.70413
#
# Compressibility (1/GPa) = 0.04723636
#
# Stress axis : x y z
#
# Youngs Moduli (GPa) = 109.61942 17.99362 90.96858
#
# Poissons Ratio (x) = 0.11521 0.15007
# Poissons Ratio (y) = 0.70185 0.56171
# Poissons Ratio (z) = 0.18084 0.11111
#
# Static dielectric constant tensor:
#      x y z
#    x 1.733850 0.000000 -0.014160 
#    y 0.000000 1.684040 0.000000 
#    z -0.014160 0.000000 1.742290 
# 
# From -- ./inp_files/29072.got.cif
#   From: 2010.05.17/outbox.cif.g08.bks.cpg/sg15_15_cif.got.tgz:29072.got - 2010.06.03 18:47:42.
