data_PCOD9296833
_publ_section_title
;
Structure prediction by ZEFSAII (Michael W. Deem and Ramdas Pophale) SiO2 
 PCOD9296833
Probable space group: C 2/C
;
_chemical_formula_sum "Si O2"
_cell_formula_units_Z 40
_cell_length_a 27.095983
_cell_length_b 9.529060
_cell_length_c 9.821040
_cell_angle_alpha 90.000000
_cell_angle_beta 142.019372
_cell_angle_gamma 90.000000
_cell_volume 1560.509521
_symmetry_space_group_name_H-M "C 2/C"
_symmetry_group_IT_number 15
_symmetry_cell_setting 'monoclinic'
loop_
_space_group_symop_operation_xyz
x,y,z
-x,y,1/2-z
-x,-y,-z
x,-y,1/2+z
1/2+x,1/2+y,z
1/2-x,1/2+y,1/2-z
1/2-x,1/2-y,-z
1/2+x,1/2-y,1/2+z
loop_
_atom_site_type_symbol
_atom_site_label
_atom_site_fract_x
_atom_site_fract_y
_atom_site_fract_z
Si Si1 0.084683 0.533065 0.391029
Si Si2 0.176851 0.766490 0.733205
Si Si3 0.087530 0.916366 0.760116
Si Si4 0.187018 0.728042 0.155729
Si Si5 0.927556 0.223672 0.849939
O O1 0.124039 0.627558 0.596090
O O2 0.145705 0.407959 0.497920
O O3 0.065208 0.639700 0.227076
O O4 0.000000 0.470659 0.250000
O O5 0.120529 0.882702 0.679472
O O6 0.250000 0.750000 0.000000
O O7 0.220245 0.786792 0.681566
O O8 0.154746 0.864862 0.008977
O O9 0.008377 0.820647 0.607693
O O10 0.075850 0.081275 0.746381
O O11 0.149783 0.746510 0.223795
#
# Coordination Sequence:
#
# PCOD9296833 Si02
#       5
#     8   8   8   8   8
#     4  12  26  45  76 108 143 189 247 302 359 426
#     4  10  25  46  69  99 149 189 227 300 368 422
#     4  10  23  46  69 101 145 191 233 296 361 433
#     4  11  27  44  71 107 149 184 241 301 362 426
#     4  11  25  42  76 103 140 189 245 289 360 435
#
# _framework density 25.632655
#
# number of rings (size 3 to 8) (size 9 to 14) (size 15 to 20)
#    0.000    1.200    2.000    1.800   11.200    4.000 
#    0.000    0.000    0.000    0.000    0.000    0.000 
#    0.000    0.000    0.000    0.000    0.000    0.000 
#
# Total GULP energy -111904.539260 kJ/mol
# GULP energy per Si atom -5595.226963 kJ/mol
# Density = 2.557431 g / cm^3
# Si number density = 25.632655 Si / 1000 Ang^3
#
#
#
# Elastic Constant Matrix: (Units=GPa)
#
#
# Indices 1 2 3 4 5 6 
#
# 1 112.3141 21.7025 22.3108 0.0000 0.0082 0.0000
# 2 21.7025 118.0493 5.0599 0.0000 4.0301 0.0000
# 3 22.3108 5.0599 79.3759 0.0000 14.7118 0.0000
# 4 0.0000 0.0000 0.0000 35.1441 0.0000 -5.7647
# 5 0.0082 4.0301 14.7118 0.0000 39.0619 0.0000
# 6 0.0000 0.0000 0.0000 -5.7647 0.0000 32.2467
#
#
#
# Elastic Compliance Matrix: (Units=1/GPa)
#
#
# Indices 1 2 3 4 5 6 
#
# 1 0.009809 -0.001723 -0.002881 0.000000 0.001261 0.000000
# 2 -0.001723 0.008816 0.000098 0.000000 -0.000946 0.000000
# 3 -0.002881 0.000098 0.014409 0.000000 -0.005436 0.000000
# 4 0.000000 0.000000 0.000000 0.029314 0.000000 0.005240
# 5 0.001261 -0.000946 -0.005436 0.000000 0.027745 0.000000
# 6 0.000000 0.000000 0.000000 0.005240 0.000000 0.031948
#
#
# Mechanical properties :
#
#
# Convention : Reuss Voigt Hill
#
# Bulk Modulus (GPa) = 41.62875 45.32060 43.47467
# Shear Modulus (GPa) = 35.95563 38.66826 37.31195
#
# Velocity S-wave (km/s) = 3.74936 3.88823 3.81943
# Velocity P-wave (km/s) = 5.91772 6.15442 6.03723
#
# Compressibility (1/GPa) = 0.02402186
#
# Stress axis : x y z
#
# Youngs Moduli (GPa) = 101.95053 113.43172 69.39908
#
# Poissons Ratio (x) = 0.19542 0.19993
# Poissons Ratio (y) = 0.17564 -0.00677
# Poissons Ratio (z) = 0.29370 -0.01107
#
# Static dielectric constant tensor:
#      x y z
#    x 2.065490 0.000000 -0.058450 
#    y 0.000000 1.926450 0.000000 
#    z -0.058450 0.000000 2.079770 
# 
# From -- ./inp_files/125728.got.cif
#   From: 2010.05.17/outbox.cif.g08.bks.cpg/sg15_63_cif.got.tgz:125728.got - 2010.06.03 18:47:42.
