data_PCOD9296527
_publ_section_title
;
Structure prediction by ZEFSAII (Michael W. Deem and Ramdas Pophale) SiO2 
 PCOD9296527
Probable space group: C 2/C
;
_chemical_formula_sum "Si O2"
_cell_formula_units_Z 44
_cell_length_a 28.600104
_cell_length_b 5.470213
_cell_length_c 13.796086
_cell_angle_alpha 90.000000
_cell_angle_beta 123.129061
_cell_angle_gamma 90.000000
_cell_volume 1807.516556
_symmetry_space_group_name_H-M "C 2/C"
_symmetry_group_IT_number 15
_symmetry_cell_setting 'monoclinic'
loop_
_space_group_symop_operation_xyz
x,y,z
-x,y,1/2-z
-x,-y,-z
x,-y,1/2+z
1/2+x,1/2+y,z
1/2-x,1/2+y,1/2-z
1/2-x,1/2-y,-z
1/2+x,1/2-y,1/2+z
loop_
_atom_site_type_symbol
_atom_site_label
_atom_site_fract_x
_atom_site_fract_y
_atom_site_fract_z
Si Si1 0.102684 0.816350 0.866656
Si Si2 0.202640 0.457359 0.006060
Si Si3 0.178556 0.903603 0.313452
Si Si4 0.500000 0.956383 0.750000
Si Si5 0.974755 0.252403 0.515622
Si Si6 0.138422 0.103753 0.077472
O O1 0.157260 0.663902 0.956341
O O2 0.052455 0.634895 0.790673
O O3 0.123770 0.993635 0.805500
O O4 0.096158 0.966830 0.957312
O O5 0.195996 0.340971 0.890846
O O6 0.264172 0.551288 0.100897
O O7 0.182421 0.253354 0.061978
O O8 0.166654 0.924050 0.186659
O O9 0.490289 0.789753 0.645964
O O10 0.907514 0.272273 0.421857
O O11 0.000000 0.500000 0.500000
O O12 0.000000 0.000000 0.500000
#
# Coordination Sequence:
#
# PCOD9296527 Si02
#       6
#     8   8   8   4   8   8
#     4  11  24  46  71 103 144 196 242 310 383 451
#     4  10  23  45  67 106 136 190 248 296 391 441
#     4  10  24  43  72 101 144 187 243 316 371 458
#     4  12  26  50  76 106 158 194 246 322 376 450
#     4  12  28  47  75 112 150 203 258 304 383 455
#     4  11  25  43  70 108 144 186 255 307 376 451
#
# _framework density 24.342790000000001
#
# number of rings (size 3 to 8) (size 9 to 14) (size 15 to 20)
#    0.000    1.091    1.818    2.727    5.091    4.364 
#    0.000    0.000    0.000    0.000    0.000    0.000 
#    0.000    0.000    0.000    0.000    0.000    0.000 
#
# Total GULP energy -122990.054232 kJ/mol
# GULP energy per Si atom -5590.457011 kJ/mol
# Density = 2.428738 g / cm^3
# Si number density = 24.342790 Si / 1000 Ang^3
#
#
#
# Elastic Constant Matrix: (Units=GPa)
#
#
# Indices 1 2 3 4 5 6 
#
# 1 95.3365 19.4861 27.2271 0.0000 23.2931 0.0000
# 2 19.4861 71.1022 26.8565 0.0000 3.0159 0.0001
# 3 27.2271 26.8565 120.7680 0.0000 -11.0681 0.0000
# 4 0.0000 0.0000 0.0000 12.6509 0.0000 7.6409
# 5 23.2931 3.0159 -11.0681 0.0000 42.1711 0.0000
# 6 0.0000 0.0001 0.0000 7.6409 0.0000 44.9048
#
#
#
# Elastic Compliance Matrix: (Units=1/GPa)
#
#
# Indices 1 2 3 4 5 6 
#
# 1 0.013989 -0.002172 -0.003448 0.000000 -0.008476 0.000000
# 2 -0.002172 0.015865 -0.003107 0.000000 -0.000750 0.000000
# 3 -0.003448 -0.003107 0.010189 0.000000 0.004800 0.000000
# 4 0.000000 0.000000 0.000000 0.088100 0.000000 -0.014991
# 5 -0.008476 -0.000750 0.004800 0.000000 0.029708 0.000000
# 6 0.000000 0.000000 0.000000 -0.014991 0.000000 0.024820
#
#
# Mechanical properties :
#
#
# Convention : Reuss Voigt Hill
#
# Bulk Modulus (GPa) = 44.26986 48.26068 46.26527
# Shear Modulus (GPa) = 24.07860 34.18781 29.13321
#
# Velocity S-wave (km/s) = 3.14848 3.75164 3.46322
# Velocity P-wave (km/s) = 5.60738 6.21570 5.91936
#
# Compressibility (1/GPa) = 0.02258873
#
# Stress axis : x y z
#
# Youngs Moduli (GPa) = 71.48679 63.03194 98.14974
#
# Poissons Ratio (x) = 0.13690 0.33837
# Poissons Ratio (y) = 0.15527 0.30497
# Poissons Ratio (z) = 0.24645 0.19585
#
# Static dielectric constant tensor:
#      x y z
#    x 1.998010 0.000000 -0.206000 
#    y 0.000000 2.026600 0.000000 
#    z -0.206000 0.000000 1.823000 
# 
# From -- ./inp_files/175777.got.cif
#   From: 2010.05.17/outbox.cif.g08.bks.cpg/sg15_88_cif.got.tgz:175777.got - 2010.06.03 18:47:42.
