data_PCOD9296154
_publ_section_title
;
Structure prediction by ZEFSAII (Michael W. Deem and Ramdas Pophale) SiO2 
 PCOD9296154
Probable space group: C 2/C
;
_chemical_formula_sum "Si O2"
_cell_formula_units_Z 36
_cell_length_a 13.817393
_cell_length_b 8.578955
_cell_length_c 17.990403
_cell_angle_alpha 90.000000
_cell_angle_beta 136.540523
_cell_angle_gamma 90.000000
_cell_volume 1466.863453
_symmetry_space_group_name_H-M "C 2/C"
_symmetry_group_IT_number 15
_symmetry_cell_setting 'monoclinic'
loop_
_space_group_symop_operation_xyz
x,y,z
-x,y,1/2-z
-x,-y,-z
x,-y,1/2+z
1/2+x,1/2+y,z
1/2-x,1/2+y,1/2-z
1/2-x,1/2-y,-z
1/2+x,1/2-y,1/2+z
loop_
_atom_site_type_symbol
_atom_site_label
_atom_site_fract_x
_atom_site_fract_y
_atom_site_fract_z
Si Si1 0.908217 0.112415 0.562095
Si Si2 0.065020 0.421654 0.108186
Si Si3 0.000000 0.066698 0.250000
Si Si4 0.392964 0.944822 0.622881
Si Si5 0.159233 0.099327 0.195482
O O1 0.768955 0.052870 0.443712
O O2 0.906898 0.295525 0.575896
O O3 0.903233 0.040156 0.643073
O O4 0.052901 0.039765 0.613254
O O5 0.134708 0.253536 0.134022
O O6 0.186056 0.531896 0.210052
O O7 0.940478 0.410130 0.099440
O O8 0.000000 0.500000 0.000000
O O9 0.103595 0.145587 0.248206
O O10 0.500000 0.927276 0.750000
#
# Coordination Sequence:
#
# PCOD9296154 Si02
#       5
#     8   8   4   8   8
#     4   9  20  40  67  94 136 176 223 279 334 407
#     4  12  27  43  68 102 139 177 228 290 339 399
#     4   8  18  42  70  90 128 184 216 274 326 412
#     4  11  22  38  66 101 132 179 228 276 342 409
#     4  10  23  44  68  94 138 177 224 278 343 398
#
# _framework density 24.542162999999999
#
# number of rings (size 3 to 8) (size 9 to 14) (size 15 to 20)
#    1.333    0.444    1.111    2.667    1.556    6.222 
#    0.000    3.333    0.000    0.000    0.000    0.000 
#    0.000    0.000    0.000    0.000    0.000    0.000 
#
# Total GULP energy -100586.750024 kJ/mol
# GULP energy per Si atom -5588.152779 kJ/mol
# Density = 2.448630 g / cm^3
# Si number density = 24.542163 Si / 1000 Ang^3
#
#
#
# Elastic Constant Matrix: (Units=GPa)
#
#
# Indices 1 2 3 4 5 6 
#
# 1 77.2319 -2.4731 17.7443 0.0000 9.3817 0.0000
# 2 -2.4731 72.3408 9.8157 0.0000 8.6590 0.0000
# 3 17.7443 9.8157 149.2716 0.0000 28.0089 0.0000
# 4 0.0000 0.0000 0.0000 25.7761 0.0000 1.3832
# 5 9.3817 8.6590 28.0089 0.0000 38.4231 0.0000
# 6 0.0000 0.0000 0.0000 1.3832 0.0000 35.8593
#
#
#
# Elastic Compliance Matrix: (Units=1/GPa)
#
#
# Indices 1 2 3 4 5 6 
#
# 1 0.013572 0.000943 -0.001174 0.000000 -0.002670 0.000000
# 2 0.000943 0.014291 -0.000468 0.000000 -0.003110 0.000000
# 3 -0.001174 -0.000468 0.007873 0.000000 -0.005347 0.000000
# 4 0.000000 0.000000 0.000000 0.038876 0.000000 -0.001500
# 5 -0.002670 -0.003110 -0.005347 0.000000 0.031276 0.000000
# 6 0.000000 0.000000 0.000000 -0.001500 0.000000 0.027945
#
#
# Mechanical properties :
#
#
# Convention : Reuss Voigt Hill
#
# Bulk Modulus (GPa) = 29.12291 38.77977 33.95134
# Shear Modulus (GPa) = 34.08805 38.26219 36.17512
#
# Velocity S-wave (km/s) = 3.73092 3.95275 3.84343
# Velocity P-wave (km/s) = 5.51832 6.05540 5.79309
#
# Compressibility (1/GPa) = 0.03433723
#
# Stress axis : x y z
#
# Youngs Moduli (GPa) = 73.67885 69.97190 127.01909
#
# Poissons Ratio (x) = -0.06598 0.14916
# Poissons Ratio (y) = -0.06948 0.05950
# Poissons Ratio (z) = 0.08652 0.03278
#
# Static dielectric constant tensor:
#      x y z
#    x 2.017340 0.000000 -0.009320 
#    y 0.000000 1.917460 0.000000 
#    z -0.009320 0.000000 1.908380 
# 
# From -- ./inp_files/242890.got.cif
#   From: 2010.05.17/outbox.cif.g08.bks.cpg/sg15_122_cif.got.tgz:242890.got - 2010.06.03 18:47:42.
