data_PCOD9296838
_publ_section_title
;
Structure prediction by ZEFSAII (Michael W. Deem and Ramdas Pophale) SiO2 
 PCOD9296838
Probable space group: C 2/C
;
_chemical_formula_sum "Si O2"
_cell_formula_units_Z 40
_cell_length_a 17.505466
_cell_length_b 17.329021
_cell_length_c 5.228316
_cell_angle_alpha 90.000000
_cell_angle_beta 109.392398
_cell_angle_gamma 90.000000
_cell_volume 1496.042893
_symmetry_space_group_name_H-M "C 2/C"
_symmetry_group_IT_number 15
_symmetry_cell_setting 'monoclinic'
loop_
_space_group_symop_operation_xyz
x,y,z
-x,y,1/2-z
-x,-y,-z
x,-y,1/2+z
1/2+x,1/2+y,z
1/2-x,1/2+y,1/2-z
1/2-x,1/2-y,-z
1/2+x,1/2-y,1/2+z
loop_
_atom_site_type_symbol
_atom_site_label
_atom_site_fract_x
_atom_site_fract_y
_atom_site_fract_z
Si Si1 0.070998 0.861326 0.648997
Si Si2 0.794298 0.192695 0.818715
Si Si3 0.681345 0.449712 0.460807
Si Si4 0.909370 0.533404 0.946053
Si Si5 0.878480 0.709842 0.994946
O O1 0.092256 0.914719 0.431747
O O2 0.059030 0.773427 0.540935
O O3 0.000000 0.889135 0.750000
O O4 0.150708 0.853012 0.918926
O O5 0.775033 0.129830 0.567194
O O6 0.847292 0.257579 0.732496
O O7 0.701792 0.214858 0.777369
O O8 0.695761 0.497233 0.732896
O O9 0.869471 0.515205 0.629567
O O10 0.910179 0.623125 0.016574
O O11 0.000000 0.500000 0.000000
#
# Coordination Sequence:
#
# PCOD9296838 Si02
#       5
#     8   8   8   8   8
#     4  11  25  42  72 106 140 194 239 297 370 426
#     4  10  23  46  69 105 138 198 239 298 362 429
#     4  11  23  45  70 101 142 181 235 298 359 431
#     4  10  24  43  67 102 139 183 230 289 361 419
#     4  10  24  43  72 100 146 187 246 298 353 444
#
# _framework density 26.737203999999998
#
# number of rings (size 3 to 8) (size 9 to 14) (size 15 to 20)
#    0.000    1.600    2.000    0.600    5.600    7.200 
#    0.000    0.000    0.000    0.000    0.000    0.000 
#    0.000    0.000    0.000    0.000    0.000    0.000 
#
# Total GULP energy -111822.254681 kJ/mol
# GULP energy per Si atom -5591.112734 kJ/mol
# Density = 2.667635 g / cm^3
# Si number density = 26.737204 Si / 1000 Ang^3
#
#
#
# Elastic Constant Matrix: (Units=GPa)
#
#
# Indices 1 2 3 4 5 6 
#
# 1 79.9956 22.0079 16.3326 0.0000 2.1831 0.0000
# 2 22.0079 141.4434 32.8229 0.0000 -13.4086 0.0000
# 3 16.3326 32.8229 130.2102 0.0000 -20.5079 0.0000
# 4 0.0000 0.0000 0.0000 7.3640 0.0000 4.8531
# 5 2.1831 -13.4086 -20.5079 0.0000 47.6380 0.0000
# 6 0.0000 0.0000 0.0000 4.8531 0.0000 18.5007
#
#
#
# Elastic Compliance Matrix: (Units=1/GPa)
#
#
# Indices 1 2 3 4 5 6 
#
# 1 0.013376 -0.001908 -0.001478 0.000000 -0.001786 0.000000
# 2 -0.001908 0.007868 -0.001482 0.000000 0.001664 0.000000
# 3 -0.001478 -0.001482 0.008779 0.000000 0.003430 0.000000
# 4 0.000000 0.000000 0.000000 0.164178 0.000000 -0.043067
# 5 -0.001786 0.001664 0.003430 0.000000 0.023018 0.000000
# 6 0.000000 0.000000 0.000000 -0.043067 0.000000 0.065349
#
#
# Mechanical properties :
#
#
# Convention : Reuss Voigt Hill
#
# Bulk Modulus (GPa) = 49.29072 54.88624 52.08848
# Shear Modulus (GPa) = 16.71861 33.39959 25.05910
#
# Velocity S-wave (km/s) = 2.50330 3.53821 3.06475
# Velocity P-wave (km/s) = 5.17983 6.10447 5.66106
#
# Compressibility (1/GPa) = 0.02028779
#
# Stress axis : x y z
#
# Youngs Moduli (GPa) = 74.76052 127.08983 113.90660
#
# Poissons Ratio (x) = 0.24243 0.16839
# Poissons Ratio (y) = 0.14261 0.16882
# Poissons Ratio (z) = 0.11052 0.18836
#
# Static dielectric constant tensor:
#      x y z
#    x 2.390050 0.000000 0.366800 
#    y 0.000000 2.115660 0.000000 
#    z 0.366800 0.000000 2.867920 
# 
# From -- ./inp_files/9897.got.cif
#   From: 2010.05.17/outbox.cif.g08.bks.cpg/sg15_5_cif.got.tgz:9897.got - 2010.06.03 18:47:42.
