data_PCOD9296133
_publ_section_title
;
Structure prediction by ZEFSAII (Michael W. Deem and Ramdas Pophale) SiO2 
 PCOD9296133
Probable space group: C 2/C
;
_chemical_formula_sum "Si O2"
_cell_formula_units_Z 60
_cell_length_a 7.784978
_cell_length_b 22.013771
_cell_length_c 17.883212
_cell_angle_alpha 90.000000
_cell_angle_beta 56.867689
_cell_angle_gamma 90.000000
_cell_volume 2566.467816
_symmetry_space_group_name_H-M "C 2/C"
_symmetry_group_IT_number 15
_symmetry_cell_setting 'monoclinic'
loop_
_space_group_symop_operation_xyz
x,y,z
-x,y,1/2-z
-x,-y,-z
x,-y,1/2+z
1/2+x,1/2+y,z
1/2-x,1/2+y,1/2-z
1/2-x,1/2-y,-z
1/2+x,1/2-y,1/2+z
loop_
_atom_site_type_symbol
_atom_site_label
_atom_site_fract_x
_atom_site_fract_y
_atom_site_fract_z
Si Si1 0.000000 0.993508 0.250000
Si Si2 0.522092 0.398244 0.118216
Si Si3 0.067898 0.549837 0.319096
Si Si4 0.790474 0.960614 0.055873
Si Si5 0.797559 0.342203 0.504890
Si Si6 0.628428 0.844481 0.550573
Si Si7 0.461043 0.259231 0.344148
Si Si8 0.652015 0.751935 0.144716
O O1 0.924792 0.949347 0.334629
O O2 0.803919 0.031767 0.271785
O O3 0.315585 0.422181 0.127480
O O4 0.534501 0.332140 0.153624
O O5 0.677700 0.386730 0.013386
O O6 0.000000 0.550444 0.250000
O O7 0.913353 0.501330 0.394104
O O8 0.024380 0.615740 0.363336
O O9 0.767302 0.910722 0.996383
O O10 0.000000 0.000000 0.000000
O O11 0.632873 0.306973 0.596036
O O12 0.829053 0.306466 0.419265
O O13 0.012553 0.337586 0.498512
O O14 0.706301 0.785335 0.578287
O O15 0.500000 0.241197 0.250000
O O16 0.638456 0.243318 0.360378
O O17 0.500000 0.761583 0.250000
#
# Coordination Sequence:
#
# PCOD9296133 Si02
#       8
#     4   8   8   8   8   8   8   8
#     4  12  28  46  76 108 146 198 256 312 380 444
#     4  12  24  45  71 106 141 190 250 302 373 442
#     4  12  27  49  74 108 152 197 257 313 375 453
#     4  12  25  46  75 103 145 195 245 304 367 445
#     4  10  24  44  68 103 146 185 247 305 368 452
#     4  11  26  46  72 105 147 196 245 308 380 445
#     4  11  24  44  70 108 143 184 246 307 370 446
#     4  10  23  44  68 103 141 190 239 301 379 441
#
# _framework density 23.378433999999999
#
# number of rings (size 3 to 8) (size 9 to 14) (size 15 to 20)
#    0.000    0.800    4.667    1.600    3.733    3.733 
#    9.600    0.000    0.000    0.000    0.000    0.000 
#    0.000    0.000    0.000    0.000    0.000    0.000 
#
# Total GULP energy -167558.206395 kJ/mol
# GULP energy per Si atom -5585.273547 kJ/mol
# Density = 2.332522 g / cm^3
# Si number density = 23.378434 Si / 1000 Ang^3
#
#
#
# Elastic Constant Matrix: (Units=GPa)
#
#
# Indices 1 2 3 4 5 6 
#
# 1 96.4940 38.5362 24.3279 0.0000 8.2321 0.0000
# 2 38.5362 132.5372 57.4543 0.0000 8.5521 0.0000
# 3 24.3279 57.4543 114.3062 0.0000 8.5292 0.0000
# 4 0.0000 0.0000 0.0000 38.3960 0.0000 8.3821
# 5 8.2321 8.5521 8.5292 0.0000 30.7479 0.0000
# 6 0.0000 0.0000 0.0000 8.3821 0.0000 37.9971
#
#
#
# Elastic Compliance Matrix: (Units=1/GPa)
#
#
# Indices 1 2 3 4 5 6 
#
# 1 0.011949 -0.002945 -0.000904 0.000000 -0.002129 0.000000
# 2 -0.002945 0.010429 -0.004552 0.000000 -0.000850 0.000000
# 3 -0.000904 -0.004552 0.011351 0.000000 -0.001641 0.000000
# 4 0.000000 0.000000 0.000000 0.027362 0.000000 -0.006036
# 5 -0.002129 -0.000850 -0.001641 0.000000 0.033784 0.000000
# 6 0.000000 0.000000 0.000000 -0.006036 0.000000 0.027649
#
#
# Mechanical properties :
#
#
# Convention : Reuss Voigt Hill
#
# Bulk Modulus (GPa) = 59.07474 64.88603 61.98039
# Shear Modulus (GPa) = 34.48993 36.29612 35.39302
#
# Velocity S-wave (km/s) = 3.84512 3.94451 3.89513
# Velocity P-wave (km/s) = 6.71096 6.96853 6.84096
#
# Compressibility (1/GPa) = 0.01692771
#
# Stress axis : x y z
#
# Youngs Moduli (GPa) = 83.68877 95.88241 88.09598
#
# Poissons Ratio (x) = 0.28238 0.07964
# Poissons Ratio (y) = 0.24646 0.40101
# Poissons Ratio (z) = 0.07565 0.43646
#
# Static dielectric constant tensor:
#      x y z
#    x 1.931830 0.000000 -0.103630 
#    y 0.000000 1.992240 0.000000 
#    z -0.103630 0.000000 2.006430 
# 
# From -- ./inp_files/192510.got.cif
#   From: 2010.05.17/outbox.cif.g08.bks.cpg/sg15_97_cif.got.tgz:192510.got - 2010.06.03 18:47:42.
