data_PCOD9296205
_publ_section_title
;
Structure prediction by ZEFSAII (Michael W. Deem and Ramdas Pophale) SiO2 
 PCOD9296205
Probable space group: C 2/C
;
_chemical_formula_sum "Si O2"
_cell_formula_units_Z 48
_cell_length_a 15.411923
_cell_length_b 14.221492
_cell_length_c 11.535135
_cell_angle_alpha 90.000000
_cell_angle_beta 66.679845
_cell_angle_gamma 90.000000
_cell_volume 2321.735035
_symmetry_space_group_name_H-M "C 2/C"
_symmetry_group_IT_number 15
_symmetry_cell_setting 'monoclinic'
loop_
_space_group_symop_operation_xyz
x,y,z
-x,y,1/2-z
-x,-y,-z
x,-y,1/2+z
1/2+x,1/2+y,z
1/2-x,1/2+y,1/2-z
1/2-x,1/2-y,-z
1/2+x,1/2-y,1/2+z
loop_
_atom_site_type_symbol
_atom_site_label
_atom_site_fract_x
_atom_site_fract_y
_atom_site_fract_z
Si Si1 0.369909 0.936460 0.736050
Si Si2 0.500000 0.106267 0.750000
Si Si3 0.492076 0.805427 0.500714
Si Si4 0.440383 0.598925 0.520215
Si Si5 0.307947 0.469859 0.263241
Si Si6 0.000000 0.061062 0.250000
Si Si7 0.691541 0.159741 0.994007
O O1 0.436478 0.876748 0.615187
O O2 0.419558 0.035324 0.742568
O O3 0.268934 0.952060 0.727825
O O4 0.350697 0.885700 0.867584
O O5 0.531318 0.166355 0.620426
O O6 0.473287 0.698405 0.554295
O O7 0.603681 0.818234 0.458067
O O8 0.500000 0.500000 0.500000
O O9 0.337340 0.579605 0.626538
O O10 0.455107 0.619123 0.377442
O O11 0.410061 0.501304 0.255863
O O12 0.261021 0.407092 0.386052
O O13 0.750000 0.250000 0.000000
#
# Coordination Sequence:
#
# PCOD9296205 Si02
#       7
#     8   4   8   8   8   4   8
#     4  12  24  46  71 106 144 183 234 293 354 420
#     4  12  23  46  73 100 152 174 229 292 351 424
#     4  12  25  45  71 106 141 189 233 290 355 421
#     4  10  24  45  67  96 139 180 234 285 345 411
#     4  11  24  43  69 102 135 186 232 292 354 415
#     4  10  23  44  69  90 138 188 231 286 357 404
#     4  12  26  40  70 105 141 180 241 284 348 418
#
# _framework density 20.674194
#
# number of rings (size 3 to 8) (size 9 to 14) (size 15 to 20)
#    0.000    0.667    3.333    4.000    9.333    0.000 
#    0.000    1.667    0.000    0.000    0.000    0.000 
#    0.000    0.000    0.000    0.000    0.000    0.000 
#
# Total GULP energy -133831.441626 kJ/mol
# GULP energy per Si atom -5576.310068 kJ/mol
# Density = 2.062714 g / cm^3
# Si number density = 20.674194 Si / 1000 Ang^3
#
#
#
# Elastic Constant Matrix: (Units=GPa)
#
#
# Indices 1 2 3 4 5 6 
#
# 1 101.7212 28.2183 8.9115 0.0000 -18.1110 0.0000
# 2 28.2183 104.9643 28.7669 0.0000 -1.6481 0.0000
# 3 8.9115 28.7669 127.8650 0.0000 -7.5841 0.0000
# 4 0.0000 0.0000 0.0000 -80.6301 0.0000 38.0616
# 5 -18.1110 -1.6481 -7.5841 0.0000 27.4051 0.0000
# 6 0.0000 0.0000 0.0000 38.0616 0.0000 14.9340
#
#
#
# Elastic Compliance Matrix: (Units=1/GPa)
#
#
# Indices 1 2 3 4 5 6 
#
# 1 0.012101 -0.003225 0.000351 0.000000 0.007901 0.000000
# 2 -0.003225 0.011013 -0.002379 0.000000 -0.002128 0.000000
# 3 0.000351 -0.002379 0.008476 0.000000 0.002434 0.000000
# 4 0.000000 0.000000 0.000000 -0.005630 0.000000 0.014348
# 5 0.007901 -0.002128 0.002434 0.000000 0.042256 0.000000
# 6 0.000000 0.000000 0.000000 0.014348 0.000000 0.030394
#
#
# Mechanical properties :
#
#
# Convention : Reuss Voigt Hill
#
# Bulk Modulus (GPa) = 47.43177 51.81598 49.62387
# Shear Modulus (GPa) = 43.04919 10.25206 26.65062
#
# Velocity S-wave (km/s) = 4.56814 2.22927 3.59427
# Velocity P-wave (km/s) = 7.12854 5.63416 6.42495
#
# Compressibility (1/GPa) = 0.02108292
#
# Stress axis : x y z
#
# Youngs Moduli (GPa) = 82.63460 90.80372 117.98129
#
# Poissons Ratio (x) = 0.29288 -0.04139
# Poissons Ratio (y) = 0.26653 0.28068
# Poissons Ratio (z) = -0.02899 0.21603
#
# Static dielectric constant tensor:
#      x y z
#    x 1.651690 0.000000 0.091860 
#    y 0.000000 1.872190 0.000000 
#    z 0.091860 0.000000 1.781020 
# 
# From -- ./inp_files/96899.got.cif
#   From: 2010.05.17/outbox.cif.g08.bks.cpg/sg15_49_cif.got.tgz:96899.got - 2010.06.03 18:47:42.
