data_PCOD9296548
_publ_section_title
;
Structure prediction by ZEFSAII (Michael W. Deem and Ramdas Pophale) SiO2 
 PCOD9296548
Probable space group: C 2/C
;
_chemical_formula_sum "Si O2"
_cell_formula_units_Z 52
_cell_length_a 15.255259
_cell_length_b 13.446535
_cell_length_c 13.579821
_cell_angle_alpha 90.000000
_cell_angle_beta 63.870939
_cell_angle_gamma 90.000000
_cell_volume 2500.954021
_symmetry_space_group_name_H-M "C 2/C"
_symmetry_group_IT_number 15
_symmetry_cell_setting 'monoclinic'
loop_
_space_group_symop_operation_xyz
x,y,z
-x,y,1/2-z
-x,-y,-z
x,-y,1/2+z
1/2+x,1/2+y,z
1/2-x,1/2+y,1/2-z
1/2-x,1/2-y,-z
1/2+x,1/2-y,1/2+z
loop_
_atom_site_type_symbol
_atom_site_label
_atom_site_fract_x
_atom_site_fract_y
_atom_site_fract_z
Si Si1 0.421645 0.367674 0.530403
Si Si2 0.029097 0.488972 0.873420
Si Si3 0.282263 0.135938 0.272164
Si Si4 0.197350 0.796745 0.618653
Si Si5 0.419749 0.209014 0.364265
Si Si6 0.941247 0.945852 0.880012
Si Si7 0.500000 0.172682 0.750000
O O1 0.324258 0.396859 0.638697
O O2 0.411428 0.268417 0.470190
O O3 0.507361 0.368126 0.569481
O O4 0.439972 0.453017 0.441188
O O5 0.138192 0.448202 0.795463
O O6 0.012213 0.595778 0.833480
O O7 0.958153 0.402193 0.867769
O O8 0.000000 0.500000 0.000000
O O9 0.264070 0.198738 0.182188
O O10 0.325210 0.198127 0.342680
O O11 0.250000 0.750000 0.500000
O O12 0.164051 0.906443 0.600816
O O13 0.097038 0.738681 0.692321
O O14 0.500000 0.255746 0.250000
O O15 0.000000 0.955904 0.750000
#
# Coordination Sequence:
#
# PCOD9296548 Si02
#       7
#     8   8   8   8   8   8   4
#     4  11  24  42  73  93 137 178 222 294 347 405
#     4  11  25  43  72  96 139 184 229 281 351 416
#     4  11  23  46  64 108 133 171 241 283 332 429
#     4  12  27  43  73 100 142 183 236 286 348 419
#     4  10  23  45  67  99 136 176 229 281 354 412
#     4  11  24  47  64  99 134 179 227 280 350 416
#     4  12  24  50  68 102 144 184 224 292 350 404
#
# _framework density 20.792065000000001
#
# number of rings (size 3 to 8) (size 9 to 14) (size 15 to 20)
#    0.000    0.923    4.615    1.846   10.769    1.231 
#    2.769    0.000    0.000    0.000    0.000    0.000 
#    0.000    0.000    0.000    0.000    0.000    0.000 
#
# Total GULP energy -145226.744224 kJ/mol
# GULP energy per Si atom -5585.644009 kJ/mol
# Density = 2.074474 g / cm^3
# Si number density = 20.792065 Si / 1000 Ang^3
#
#
#
# Elastic Constant Matrix: (Units=GPa)
#
#
# Indices 1 2 3 4 5 6 
#
# 1 66.4537 10.3281 5.6372 0.0000 21.3507 0.0000
# 2 10.3281 55.9462 13.0147 0.0000 18.6576 0.0000
# 3 5.6372 13.0147 119.8435 0.0000 26.7639 0.0000
# 4 0.0000 0.0000 0.0000 32.9750 0.0000 9.2250
# 5 21.3507 18.6576 26.7639 0.0000 36.7874 0.0000
# 6 0.0000 0.0000 0.0000 9.2250 0.0000 18.2731
#
#
#
# Elastic Compliance Matrix: (Units=1/GPa)
#
#
# Indices 1 2 3 4 5 6 
#
# 1 0.018840 0.000225 0.001859 0.000000 -0.012401 0.000000
# 2 0.000225 0.021517 0.000142 0.000000 -0.011147 0.000000
# 3 0.001859 0.000142 0.010147 0.000000 -0.008533 0.000000
# 4 0.000000 0.000000 0.000000 0.035313 0.000000 -0.017827
# 5 -0.012401 -0.011147 -0.008533 0.000000 0.046242 0.000000
# 6 0.000000 0.000000 0.000000 -0.017827 0.000000 0.063725
#
#
# Mechanical properties :
#
#
# Convention : Reuss Voigt Hill
#
# Bulk Modulus (GPa) = 18.19650 33.35591 25.77620
# Shear Modulus (GPa) = 23.84922 31.82467 27.83694
#
# Velocity S-wave (km/s) = 3.39046 3.91655 3.66297
# Velocity P-wave (km/s) = 4.90894 6.04400 5.50580
#
# Compressibility (1/GPa) = 0.05495563
#
# Stress axis : x y z
#
# Youngs Moduli (GPa) = 53.07985 46.47462 98.55136
#
# Poissons Ratio (x) = -0.01046 -0.18318
# Poissons Ratio (y) = -0.01195 -0.01400
# Poissons Ratio (z) = -0.09866 -0.00660
#
# Static dielectric constant tensor:
#      x y z
#    x 1.794280 0.000000 0.016790 
#    y 0.000000 1.741820 0.000000 
#    z 0.016790 0.000000 1.748860 
# 
# From -- ./inp_files/96945.got.cif
#   From: 2010.05.17/outbox.cif.g08.bks.cpg/sg15_49_cif.got.tgz:96945.got - 2010.06.03 18:47:42.
