data_PCOD9296988
_publ_section_title
;
Structure prediction by ZEFSAII (Michael W. Deem and Ramdas Pophale) SiO2 
 PCOD9296988
Probable space group: C 2/C
;
_chemical_formula_sum "Si O2"
_cell_formula_units_Z 56
_cell_length_a 25.033459
_cell_length_b 12.141659
_cell_length_c 9.217417
_cell_angle_alpha 90.000000
_cell_angle_beta 76.244825
_cell_angle_gamma 90.000000
_cell_volume 2721.264324
_symmetry_space_group_name_H-M "C 2/C"
_symmetry_group_IT_number 15
_symmetry_cell_setting 'monoclinic'
loop_
_space_group_symop_operation_xyz
x,y,z
-x,y,1/2-z
-x,-y,-z
x,-y,1/2+z
1/2+x,1/2+y,z
1/2-x,1/2+y,1/2-z
1/2-x,1/2-y,-z
1/2+x,1/2-y,1/2+z
loop_
_atom_site_type_symbol
_atom_site_label
_atom_site_fract_x
_atom_site_fract_y
_atom_site_fract_z
Si Si1 0.445188 0.946106 0.469228
Si Si2 0.260206 0.872772 0.936486
Si Si3 0.054890 0.160810 0.626455
Si Si4 0.388941 0.119249 0.295133
Si Si5 0.378118 0.556776 0.499921
Si Si6 0.479977 0.294275 0.911044
Si Si7 0.697848 0.469177 0.703846
O O1 0.402522 0.916334 0.623467
O O2 0.460280 0.828750 0.392119
O O3 0.500000 0.000000 0.500000
O O4 0.420426 0.031819 0.374195
O O5 0.324955 0.885956 0.871870
O O6 0.230797 0.896475 0.800261
O O7 0.250000 0.750000 0.000000
O O8 0.235926 0.956656 0.073599
O O9 0.085773 0.260635 0.686461
O O10 0.000000 0.126127 0.750000
O O11 0.029254 0.206369 0.493286
O O12 0.095570 0.061009 0.562732
O O13 0.428436 0.636460 0.499951
O O14 0.340520 0.542656 0.665715
O O15 0.341791 0.593811 0.384667
O O16 0.500000 0.348710 0.750000
#
# Coordination Sequence:
#
# PCOD9296988 Si02
#       7
#     8   8   8   8   8   8   8
#     4  12  24  43  64  95 136 171 219 268 325 409
#     4  11  25  46  73  96 134 178 235 286 339 393
#     4  12  22  41  67  99 134 174 219 262 333 412
#     4  12  24  43  68  94 127 182 217 274 336 384
#     4  11  23  41  70  96 137 174 215 278 340 393
#     4  12  24  38  61 100 137 171 213 265 328 409
#     4  10  23  47  65 101 130 171 233 285 329 396
#
# _framework density 20.578669999999999
#
# number of rings (size 3 to 8) (size 9 to 14) (size 15 to 20)
#    0.000    0.571    2.857    6.429    2.000    0.000 
#    2.571    1.429    0.000    0.000    0.000    0.000 
#    0.000    0.000    0.000    0.000    0.000    0.000 
#
# Total GULP energy -156651.135796 kJ/mol
# GULP energy per Si atom -5594.683421 kJ/mol
# Density = 2.053183 g / cm^3
# Si number density = 20.578670 Si / 1000 Ang^3
#
#
#
# Elastic Constant Matrix: (Units=GPa)
#
#
# Indices 1 2 3 4 5 6 
#
# 1 86.3490 14.4332 28.9445 0.0000 1.4883 0.0000
# 2 14.4332 94.7418 7.6169 0.0000 4.4581 0.0000
# 3 28.9445 7.6169 123.4982 0.0000 -5.5695 0.0000
# 4 0.0000 0.0000 0.0000 19.7144 0.0000 -2.1974
# 5 1.4883 4.4581 -5.5695 0.0000 43.7638 0.0000
# 6 0.0000 0.0000 0.0000 -2.1974 0.0000 19.8765
#
#
#
# Elastic Compliance Matrix: (Units=1/GPa)
#
#
# Indices 1 2 3 4 5 6 
#
# 1 0.012860 -0.001693 -0.002938 0.000000 -0.000639 0.000000
# 2 -0.001693 0.010890 -0.000324 0.000000 -0.001093 0.000000
# 3 -0.002938 -0.000324 0.008863 0.000000 0.001261 0.000000
# 4 0.000000 0.000000 0.000000 0.051357 0.000000 0.005678
# 5 -0.000639 -0.001093 0.001261 0.000000 0.023143 0.000000
# 6 0.000000 0.000000 0.000000 0.005678 0.000000 0.050938
#
#
# Mechanical properties :
#
#
# Convention : Reuss Voigt Hill
#
# Bulk Modulus (GPa) = 44.04857 45.17535 44.61196
# Shear Modulus (GPa) = 28.48510 33.57722 31.03116
#
# Velocity S-wave (km/s) = 3.72453 4.04375 3.88742
# Velocity P-wave (km/s) = 6.32041 6.61836 6.47110
#
# Compressibility (1/GPa) = 0.02270221
#
# Stress axis : x y z
#
# Youngs Moduli (GPa) = 77.76149 91.82404 112.83093
#
# Poissons Ratio (x) = 0.15544 0.33154
# Poissons Ratio (y) = 0.13163 0.03658
# Poissons Ratio (z) = 0.22849 0.02977
#
# Static dielectric constant tensor:
#      x y z
#    x 1.729070 0.000000 -0.011410 
#    y 0.000000 1.704710 0.000000 
#    z -0.011410 0.000000 1.765680 
# 
# From -- ./inp_files/65432.got.cif
#   From: 2010.05.17/outbox.cif.g08.bks.cpg/sg15_33_cif.got.tgz:65432.got - 2010.06.03 18:47:42.
