data_PCOD9296444
_publ_section_title
;
Structure prediction by ZEFSAII (Michael W. Deem and Ramdas Pophale) SiO2 
 PCOD9296444
Probable space group: C 2/C
;
_chemical_formula_sum "Si O2"
_cell_formula_units_Z 32
_cell_length_a 23.464420
_cell_length_b 10.156848
_cell_length_c 17.995637
_cell_angle_alpha 90.000000
_cell_angle_beta 162.051307
_cell_angle_gamma 90.000000
_cell_volume 1321.659634
_symmetry_space_group_name_H-M "C 2/C"
_symmetry_group_IT_number 15
_symmetry_cell_setting 'monoclinic'
loop_
_space_group_symop_operation_xyz
x,y,z
-x,y,1/2-z
-x,-y,-z
x,-y,1/2+z
1/2+x,1/2+y,z
1/2-x,1/2+y,1/2-z
1/2-x,1/2-y,-z
1/2+x,1/2-y,1/2+z
loop_
_atom_site_type_symbol
_atom_site_label
_atom_site_fract_x
_atom_site_fract_y
_atom_site_fract_z
Si Si1 0.700553 0.427619 0.410575
Si Si2 0.800488 0.195293 0.438121
Si Si3 0.320450 0.814912 0.982545
Si Si4 0.484822 0.871307 0.031689
O O1 0.814227 0.335224 0.495721
O O2 0.763759 0.400161 0.573581
O O3 0.719865 0.576443 0.408828
O O4 0.491662 0.369707 0.148528
O O5 0.658261 0.213469 0.195187
O O6 0.500000 0.766123 0.250000
O O7 0.392859 0.885967 0.998003
O O8 0.321473 0.798022 0.216445
O O9 0.500000 0.000000 0.000000
#
# Coordination Sequence:
#
# PCOD9296444 Si02
#       4
#     8   8   8   8
#     4  10  24  45  79 113 159 202 254 310 387 458
#     4  10  23  44  76 115 155 203 254 312 379 449
#     4  12  29  51  79 110 156 207 256 312 389 456
#     4  12  29  49  77 112 154 196 265 320 382 455
#
# _framework density 24.211983
#
# number of rings (size 3 to 8) (size 9 to 14) (size 15 to 20)
#    0.000    1.000    0.000    3.750   17.500    2.000 
#    0.000    0.000    0.000    0.000    0.000    0.000 
#    0.000    0.000    0.000    0.000    0.000    0.000 
#
# Total GULP energy -89655.653202 kJ/mol
# GULP energy per Si atom -5603.478325 kJ/mol
# Density = 2.415688 g / cm^3
# Si number density = 24.211983 Si / 1000 Ang^3
#
#
#
# Elastic Constant Matrix: (Units=GPa)
#
#
# Indices 1 2 3 4 5 6 
#
# 1 125.7283 51.4299 63.3485 0.0003 -7.7266 0.0000
# 2 51.4299 131.9669 64.0989 0.0001 10.5354 0.0000
# 3 63.3485 64.0989 206.4549 0.0003 -11.7530 0.0002
# 4 0.0003 0.0001 0.0003 35.9200 0.0002 -1.0803
# 5 -7.7266 10.5354 -11.7530 0.0002 45.2751 0.0001
# 6 0.0000 0.0000 0.0002 -1.0803 0.0001 44.6592
#
#
#
# Elastic Compliance Matrix: (Units=1/GPa)
#
#
# Indices 1 2 3 4 5 6 
#
# 1 0.010445 -0.003212 -0.002095 0.000000 0.001986 0.000000
# 2 -0.003212 0.010285 -0.002411 0.000000 -0.003567 0.000000
# 3 -0.002095 -0.002411 0.006340 0.000000 0.001849 0.000000
# 4 0.000000 0.000000 0.000000 0.027860 0.000000 0.000674
# 5 0.001986 -0.003567 0.001849 0.000000 0.023736 0.000000
# 6 0.000000 0.000000 0.000000 0.000674 0.000000 0.022408
#
#
# Mechanical properties :
#
#
# Convention : Reuss Voigt Hill
#
# Bulk Modulus (GPa) = 85.94238 91.32276 88.63257
# Shear Modulus (GPa) = 41.53252 44.18904 42.86078
#
# Velocity S-wave (km/s) = 4.14620 4.27674 4.21197
# Velocity P-wave (km/s) = 7.64814 7.88589 7.76793
#
# Compressibility (1/GPa) = 0.01163570
#
# Stress axis : x y z
#
# Youngs Moduli (GPa) = 95.74060 97.22807 157.72376
#
# Poissons Ratio (x) = 0.31227 0.33038
# Poissons Ratio (y) = 0.30749 0.38025
# Poissons Ratio (z) = 0.20055 0.23440
#
# Static dielectric constant tensor:
#      x y z
#    x 1.920780 0.000000 0.022830 
#    y 0.000000 1.941840 0.000000 
#    z 0.022830 0.000000 1.969360 
# 
# From -- ./inp_files/168570.got.cif
#   From: 2010.05.17/outbox.cif.g08.bks.cpg/sg15_85_cif.got.tgz:168570.got - 2010.06.03 18:47:42.
