data_PCOD9296429
_publ_section_title
;
Structure prediction by ZEFSAII (Michael W. Deem and Ramdas Pophale) SiO2 
 PCOD9296429
Probable space group: C 2/C
;
_chemical_formula_sum "Si O2"
_cell_formula_units_Z 40
_cell_length_a 8.112361
_cell_length_b 14.589620
_cell_length_c 14.493244
_cell_angle_alpha 90.000000
_cell_angle_beta 92.148187
_cell_angle_gamma 90.000000
_cell_volume 1714.160696
_symmetry_space_group_name_H-M "C 2/C"
_symmetry_group_IT_number 15
_symmetry_cell_setting 'monoclinic'
loop_
_space_group_symop_operation_xyz
x,y,z
-x,y,1/2-z
-x,-y,-z
x,-y,1/2+z
1/2+x,1/2+y,z
1/2-x,1/2+y,1/2-z
1/2-x,1/2-y,-z
1/2+x,1/2-y,1/2+z
loop_
_atom_site_type_symbol
_atom_site_label
_atom_site_fract_x
_atom_site_fract_y
_atom_site_fract_z
Si Si1 0.252265 0.305348 0.733259
Si Si2 0.000000 0.963937 0.750000
Si Si3 0.942020 0.273049 0.594818
Si Si4 0.455987 0.908841 0.052971
Si Si5 0.500000 0.141928 0.750000
Si Si6 0.070897 0.925043 0.071697
O O1 0.359630 0.394054 0.712212
O O2 0.098840 0.299522 0.661869
O O3 0.352773 0.211612 0.723541
O O4 0.205003 0.304634 0.840974
O O5 0.928596 0.027097 0.828561
O O6 0.957914 0.325825 0.499372
O O7 0.956978 0.165012 0.576440
O O8 0.523134 0.915536 0.158418
O O9 0.257641 0.898041 0.049039
O O10 0.500000 0.000000 0.000000
O O11 0.000000 0.000000 0.000000
#
# Coordination Sequence:
#
# PCOD9296429 Si02
#       6
#     8   4   8   8   4   8
#     4  10  23  44  74  99 139 188 236 301 351 430
#     4  11  24  44  67 104 138 182 241 290 359 420
#     4  11  24  48  71 103 142 193 237 294 367 423
#     4  12  28  46  73 107 146 191 241 300 358 433
#     4  11  26  44  71 104 144 182 243 294 361 416
#     4  12  27  43  71 103 141 189 239 294 356 437
#
# _framework density 23.335035000000001
#
# number of rings (size 3 to 8) (size 9 to 14) (size 15 to 20)
#    0.000    0.800    2.000    4.200    8.400    4.000 
#    0.000    0.000    0.000    0.000    0.000    0.000 
#    0.000    0.000    0.000    0.000    0.000    0.000 
#
# Total GULP energy -112097.004679 kJ/mol
# GULP energy per Si atom -5604.850234 kJ/mol
# Density = 2.328192 g / cm^3
# Si number density = 23.335035 Si / 1000 Ang^3
#
#
#
# Elastic Constant Matrix: (Units=GPa)
#
#
# Indices 1 2 3 4 5 6 
#
# 1 33.7112 -5.0137 -12.5612 0.0000 -13.0313 0.0000
# 2 -5.0137 112.2153 33.0232 0.0000 -7.1486 0.0000
# 3 -12.5612 33.0232 128.7201 0.0000 -5.9351 0.0000
# 4 0.0000 0.0000 0.0000 -22.8601 0.0000 -83.3200
# 5 -13.0313 -7.1486 -5.9351 0.0000 34.0118 0.0000
# 6 0.0000 0.0000 0.0000 -83.3200 0.0000 -70.4034
#
#
#
# Elastic Compliance Matrix: (Units=1/GPa)
#
#
# Indices 1 2 3 4 5 6 
#
# 1 0.037266 0.001472 0.003963 0.000000 0.015279 0.000000
# 2 0.001472 0.009785 -0.002264 0.000000 0.002226 0.000000
# 3 0.003963 -0.002264 0.008856 0.000000 0.002588 0.000000
# 4 0.000000 0.000000 0.000000 0.013202 0.000000 -0.015624
# 5 0.015279 0.002226 0.002588 0.000000 0.036175 0.000000
# 6 0.000000 0.000000 0.000000 -0.015624 0.000000 0.004287
#
#
# Mechanical properties :
#
#
# Convention : Reuss Voigt Hill
#
# Bulk Modulus (GPa) = 16.06442 33.94924 25.00683
# Shear Modulus (GPa) = 40.32981 5.42954 22.87967
#
# Velocity S-wave (km/s) = 4.16179 1.52703 3.13467
# Velocity P-wave (km/s) = 5.47660 4.20586 4.88275
#
# Compressibility (1/GPa) = 0.06224935
#
# Stress axis : x y z
#
# Youngs Moduli (GPa) = 26.83430 102.19417 112.92068
#
# Poissons Ratio (x) = -0.15043 -0.44756
# Poissons Ratio (y) = -0.03950 0.25567
# Poissons Ratio (z) = -0.10636 0.23138
#
# Static dielectric constant tensor:
#      x y z
#    x 1.901890 0.000000 -0.009770 
#    y 0.000000 1.816490 0.000000 
#    z -0.009770 0.000000 1.852220 
# 
# From -- ./inp_files/133136.got.cif
#   From: 2010.05.17/outbox.cif.g08.bks.cpg/sg15_67_cif.got.tgz:133136.got - 2010.06.03 18:47:42.
