data_PCOD9296359
_publ_section_title
;
Structure prediction by ZEFSAII (Michael W. Deem and Ramdas Pophale) SiO2 
 PCOD9296359
Probable space group: C 2/C
;
_chemical_formula_sum "Si O2"
_cell_formula_units_Z 40
_cell_length_a 10.966852
_cell_length_b 18.394058
_cell_length_c 9.848775
_cell_angle_alpha 90.000000
_cell_angle_beta 135.726735
_cell_angle_gamma 90.000000
_cell_volume 1386.908238
_symmetry_space_group_name_H-M "C 2/C"
_symmetry_group_IT_number 15
_symmetry_cell_setting 'monoclinic'
loop_
_space_group_symop_operation_xyz
x,y,z
-x,y,1/2-z
-x,-y,-z
x,-y,1/2+z
1/2+x,1/2+y,z
1/2-x,1/2+y,1/2-z
1/2-x,1/2-y,-z
1/2+x,1/2-y,1/2+z
loop_
_atom_site_type_symbol
_atom_site_label
_atom_site_fract_x
_atom_site_fract_y
_atom_site_fract_z
Si Si1 0.994477 0.720330 0.037693
Si Si2 0.987348 0.106399 0.537997
Si Si3 0.000000 0.520597 0.750000
Si Si4 0.263113 0.623307 0.119704
Si Si5 0.500000 0.257064 0.750000
Si Si6 0.706383 0.908782 0.042168
O O1 0.004659 0.805523 0.075838
O O2 0.857968 0.674507 0.014815
O O3 0.945695 0.715227 0.839360
O O4 0.166606 0.670333 0.162474
O O5 0.916352 0.087210 0.331944
O O6 0.842479 0.077801 0.528988
O O7 0.179432 0.078332 0.731776
O O8 0.852962 0.574304 0.570358
O O9 0.964958 0.458748 0.604945
O O10 0.345517 0.686591 0.093470
#
# Coordination Sequence:
#
# PCOD9296359 Si02
#       6
#     8   8   4   8   4   8
#     4  11  22  44  75 108 139 174 228 294 358 409
#     4  10  23  44  73 108 137 177 230 292 353 406
#     4  12  29  48  66  98 143 192 240 276 340 420
#     4  11  25  44  71 101 142 186 230 287 342 415
#     4  10  23  44  72 106 135 176 234 298 352 400
#     4  11  25  44  70 104 146 184 224 282 348 424
#
# _framework density 28.841128999999999
#
# number of rings (size 3 to 8) (size 9 to 14) (size 15 to 20)
#    0.000    1.200    0.000    5.400    0.000   15.200 
#    0.000    0.000    0.000    0.000    0.000    0.000 
#    0.000    0.000    0.000    0.000    0.000    0.000 
#
# Total GULP energy -111731.037551 kJ/mol
# GULP energy per Si atom -5586.551878 kJ/mol
# Density = 2.877549 g / cm^3
# Si number density = 28.841129 Si / 1000 Ang^3
#
#
#
# Elastic Constant Matrix: (Units=GPa)
#
#
# Indices 1 2 3 4 5 6 
#
# 1 85.5886 8.0454 15.8614 0.0000 -12.1398 0.0000
# 2 8.0454 159.8389 51.9258 0.0000 9.3662 0.0000
# 3 15.8614 51.9258 262.2993 0.0000 4.2281 0.0000
# 4 0.0000 0.0000 0.0000 31.5642 0.0000 -15.3064
# 5 -12.1398 9.3662 4.2281 0.0000 36.2113 0.0000
# 6 0.0000 0.0000 0.0000 -15.3064 0.0000 4.9353
#
#
#
# Elastic Compliance Matrix: (Units=1/GPa)
#
#
# Indices 1 2 3 4 5 6 
#
# 1 0.012506 -0.000664 -0.000697 0.000000 0.004446 0.000000
# 2 -0.000664 0.006813 -0.001279 0.000000 -0.001835 0.000000
# 3 -0.000697 -0.001279 0.004114 0.000000 -0.000383 0.000000
# 4 0.000000 0.000000 0.000000 -0.062863 0.000000 -0.194965
# 5 0.004446 -0.001835 -0.000383 0.000000 0.029625 0.000000
# 6 0.000000 0.000000 0.000000 -0.194965 0.000000 -0.402047
#
#
# Mechanical properties :
#
#
# Convention : Reuss Voigt Hill
#
# Bulk Modulus (GPa) = 55.08385 73.26577 64.17481
# Shear Modulus (GPa) = -12.48371 43.33511 15.42570
#
# Velocity S-wave (km/s) = -2.08275 3.88047 2.31519
# Velocity P-wave (km/s) = 3.65469 6.74802 5.42644
#
# Compressibility (1/GPa) = 0.01815414
#
# Stress axis : x y z
#
# Youngs Moduli (GPa) = 79.96279 146.78389 243.07731
#
# Poissons Ratio (x) = 0.09742 0.16930
# Poissons Ratio (y) = 0.05307 0.31089
# Poissons Ratio (z) = 0.05569 0.18773
#
# Static dielectric constant tensor:
#      x y z
#    x 2.290340 0.000000 0.130060 
#    y 0.000000 2.305230 0.000000 
#    z 0.130060 0.000000 2.337220 
# 
# From -- ./inp_files/98538.got.cif
#   From: 2010.05.17/outbox.cif.g08.bks.cpg/sg15_50_cif.got.tgz:98538.got - 2010.06.03 18:47:42.
