data_PCOD9296358
_publ_section_title
;
Structure prediction by ZEFSAII (Michael W. Deem and Ramdas Pophale) SiO2 
 PCOD9296358
Probable space group: C 2/C
;
_chemical_formula_sum "Si O2"
_cell_formula_units_Z 32
_cell_length_a 5.880511
_cell_length_b 13.309961
_cell_length_c 20.302158
_cell_angle_alpha 90.000000
_cell_angle_beta 62.781998
_cell_angle_gamma 90.000000
_cell_volume 1413.087383
_symmetry_space_group_name_H-M "C 2/C"
_symmetry_group_IT_number 15
_symmetry_cell_setting 'monoclinic'
loop_
_space_group_symop_operation_xyz
x,y,z
-x,y,1/2-z
-x,-y,-z
x,-y,1/2+z
1/2+x,1/2+y,z
1/2-x,1/2+y,1/2-z
1/2-x,1/2-y,-z
1/2+x,1/2-y,1/2+z
loop_
_atom_site_type_symbol
_atom_site_label
_atom_site_fract_x
_atom_site_fract_y
_atom_site_fract_z
Si Si1 0.687219 0.886884 0.286881
Si Si2 0.009932 0.536047 0.422853
Si Si3 0.058223 0.167822 0.496089
Si Si4 0.352704 0.732110 0.382747
O O1 0.500000 0.921808 0.250000
O O2 0.589767 0.772008 0.309640
O O3 0.000000 0.890399 0.250000
O O4 0.691294 0.133420 0.385413
O O5 0.718426 0.571457 0.454424
O O6 0.104950 0.451372 0.361325
O O7 0.000000 0.500000 0.500000
O O8 0.250000 0.250000 0.500000
O O9 0.840128 0.173063 0.580699
O O10 0.953147 0.207899 0.441711
#
# Coordination Sequence:
#
# PCOD9296358 Si02
#       4
#     8   8   8   8
#     4  12  31  51  72 110 161 207 259 314 391 478
#     4  11  25  45  81 111 147 194 265 324 382 456
#     4   9  19  39  74 107 135 179 253 309 385 438
#     4  10  23  44  72 105 144 198 244 322 389 448
#
# _framework density 22.645448999999999
#
# number of rings (size 3 to 8) (size 9 to 14) (size 15 to 20)
#    0.000    1.500    0.000    4.500   14.000    3.000 
#    0.000    0.000    0.000    0.000    0.000    0.000 
#    0.000    0.000    0.000    0.000    0.000    0.000 
#
# Total GULP energy -89077.907532 kJ/mol
# GULP energy per Si atom -5567.369221 kJ/mol
# Density = 2.259391 g / cm^3
# Si number density = 22.645449 Si / 1000 Ang^3
#
#
#
# Elastic Constant Matrix: (Units=GPa)
#
#
# Indices 1 2 3 4 5 6 
#
# 1 125.6673 38.0385 56.0400 0.0000 -27.2377 0.0000
# 2 38.0385 96.1029 52.4505 0.0000 -25.6625 0.0000
# 3 56.0400 52.4505 96.0775 0.0000 -17.0272 0.0000
# 4 0.0000 0.0000 0.0000 40.7312 0.0000 -10.4822
# 5 -27.2377 -25.6625 -17.0272 0.0000 47.5862 0.0000
# 6 0.0000 0.0000 0.0000 -10.4822 0.0000 45.5680
#
#
#
# Elastic Compliance Matrix: (Units=1/GPa)
#
#
# Indices 1 2 3 4 5 6 
#
# 1 0.011595 -0.000206 -0.005867 0.000000 0.004427 0.000000
# 2 -0.000206 0.016275 -0.007720 0.000000 0.005897 0.000000
# 3 -0.005867 -0.007720 0.017843 0.000000 -0.001136 0.000000
# 4 0.000000 0.000000 0.000000 0.026096 0.000000 0.006003
# 5 0.004427 0.005897 -0.001136 0.000000 0.026322 0.000000
# 6 0.000000 0.000000 0.000000 0.006003 0.000000 0.023326
#
#
# Mechanical properties :
#
#
# Convention : Reuss Voigt Hill
#
# Bulk Modulus (GPa) = 55.15886 67.87839 61.51862
# Shear Modulus (GPa) = 32.24057 38.19832 35.21945
#
# Velocity S-wave (km/s) = 3.77730 4.11152 3.94795
# Velocity P-wave (km/s) = 6.59048 7.25113 6.92869
#
# Compressibility (1/GPa) = 0.01812945
#
# Stress axis : x y z
#
# Youngs Moduli (GPa) = 86.24096 61.44496 56.04437
#
# Poissons Ratio (x) = 0.01263 0.32879
# Poissons Ratio (y) = 0.01773 0.43265
# Poissons Ratio (z) = 0.50594 0.47434
#
# Static dielectric constant tensor:
#      x y z
#    x 1.948910 0.000000 -0.030110 
#    y 0.000000 2.034650 0.000000 
#    z -0.030110 0.000000 1.898520 
# 
# From -- ./inp_files/184054.got.cif
#   From: 2010.05.17/outbox.cif.g08.bks.cpg/sg15_93_cif.got.tgz:184054.got - 2010.06.03 18:47:42.
