data_PCOD9296354
_publ_section_title
;
Structure prediction by ZEFSAII (Michael W. Deem and Ramdas Pophale) SiO2 
 PCOD9296354
Probable space group: C 2/C
;
_chemical_formula_sum "Si O2"
_cell_formula_units_Z 48
_cell_length_a 13.917976
_cell_length_b 14.164802
_cell_length_c 10.743249
_cell_angle_alpha 90.000000
_cell_angle_beta 69.837682
_cell_angle_gamma 90.000000
_cell_volume 1988.191735
_symmetry_space_group_name_H-M "C 2/C"
_symmetry_group_IT_number 15
_symmetry_cell_setting 'monoclinic'
loop_
_space_group_symop_operation_xyz
x,y,z
-x,y,1/2-z
-x,-y,-z
x,-y,1/2+z
1/2+x,1/2+y,z
1/2-x,1/2+y,1/2-z
1/2-x,1/2-y,-z
1/2+x,1/2-y,1/2+z
loop_
_atom_site_type_symbol
_atom_site_label
_atom_site_fract_x
_atom_site_fract_y
_atom_site_fract_z
Si Si1 0.000000 0.903408 0.250000
Si Si2 0.714026 0.190141 0.396093
Si Si3 0.524860 0.711165 0.978610
Si Si4 0.658355 0.186736 0.851697
Si Si5 0.500000 0.067673 0.750000
Si Si6 0.100746 0.968881 0.532759
Si Si7 0.192838 0.489661 0.513714
O O1 0.040129 0.839528 0.341657
O O2 0.911917 0.971484 0.337393
O O3 0.750000 0.250000 0.500000
O O4 0.591331 0.196075 0.446220
O O5 0.760336 0.251774 0.262803
O O6 0.726968 0.078932 0.411421
O O7 0.408136 0.733590 0.049778
O O8 0.575063 0.641203 0.057471
O O9 0.577864 0.133607 0.795000
O O10 0.692310 0.107362 0.936043
O O11 0.581899 0.008286 0.628318
O O12 0.211573 0.998830 0.431153
O O13 0.000000 0.000000 0.500000
#
# Coordination Sequence:
#
# PCOD9296354 Si02
#       7
#     4   8   8   8   4   8   8
#     4  10  24  44  68 102 150 196 248 314 386 444
#     4  12  23  46  77 105 146 196 255 312 369 465
#     4  11  23  45  70 108 147 198 247 316 382 457
#     4  12  26  46  74 117 154 197 260 319 392 463
#     4  12  24  46  76 106 158 204 254 304 392 480
#     4  10  23  44  72 104 148 198 261 317 378 455
#     4  12  26  47  77 115 153 204 257 324 389 459
#
# _framework density 24.142541999999999
#
# number of rings (size 3 to 8) (size 9 to 14) (size 15 to 20)
#    0.000    0.667    5.000    1.500    2.333    2.000 
#    6.000    4.167    0.000    0.000    0.000    0.000 
#    0.000    0.000    0.000    0.000    0.000    0.000 
#
# Total GULP energy -133861.943930 kJ/mol
# GULP energy per Si atom -5577.580997 kJ/mol
# Density = 2.408759 g / cm^3
# Si number density = 24.142542 Si / 1000 Ang^3
#
#
#
# Elastic Constant Matrix: (Units=GPa)
#
#
# Indices 1 2 3 4 5 6 
#
# 1 83.6472 34.4506 29.3044 0.0000 -31.8026 0.0000
# 2 34.4506 98.6103 51.2114 0.0000 -10.0515 0.0000
# 3 29.3044 51.2114 109.3905 0.0000 -27.5265 0.0000
# 4 0.0000 0.0000 0.0000 2.2268 0.0000 7.6239
# 5 -31.8026 -10.0515 -27.5265 0.0000 37.4687 0.0000
# 6 0.0000 0.0000 0.0000 7.6239 0.0000 34.7572
#
#
#
# Elastic Compliance Matrix: (Units=1/GPa)
#
#
# Indices 1 2 3 4 5 6 
#
# 1 0.020348 -0.006292 0.001737 0.000000 0.016859 0.000000
# 2 -0.006292 0.015392 -0.007146 0.000000 -0.006462 0.000000
# 3 0.001737 -0.007146 0.014611 0.000000 0.010292 0.000000
# 4 0.000000 0.000000 0.000000 1.803215 0.000000 -0.395528
# 5 0.016859 -0.006462 0.010292 0.000000 0.046826 0.000000
# 6 0.000000 0.000000 0.000000 -0.395528 0.000000 0.115528
#
#
# Mechanical properties :
#
#
# Convention : Reuss Voigt Hill
#
# Bulk Modulus (GPa) = 37.10804 57.95342 47.53073
# Shear Modulus (GPa) = 2.44104 26.66932 14.55518
#
# Velocity S-wave (km/s) = 1.00662 3.32725 2.45804
# Velocity P-wave (km/s) = 4.09327 6.23038 5.27126
#
# Compressibility (1/GPa) = 0.02694834
#
# Stress axis : x y z
#
# Youngs Moduli (GPa) = 49.14572 64.96991 68.43989
#
# Poissons Ratio (x) = 0.40882 -0.11889
# Poissons Ratio (y) = 0.30924 0.48907
# Poissons Ratio (z) = -0.08537 0.46427
#
# Static dielectric constant tensor:
#      x y z
#    x 1.702150 0.000000 -0.200500 
#    y 0.000000 2.006610 0.000000 
#    z -0.200500 0.000000 1.863230 
# 
# From -- ./inp_files/96887.got.cif
#   From: 2010.05.17/outbox.cif.g08.bks.cpg/sg15_49_cif.got.tgz:96887.got - 2010.06.03 18:47:42.
