data_PCOD9296862
_publ_section_title
;
Structure prediction by ZEFSAII (Michael W. Deem and Ramdas Pophale) SiO2 
 PCOD9296862
Probable space group: C 2/C
;
_chemical_formula_sum "Si O2"
_cell_formula_units_Z 48
_cell_length_a 9.405792
_cell_length_b 16.797942
_cell_length_c 19.725235
_cell_angle_alpha 90.000000
_cell_angle_beta 131.547546
_cell_angle_gamma 90.000000
_cell_volume 2332.440970
_symmetry_space_group_name_H-M "C 2/C"
_symmetry_group_IT_number 15
_symmetry_cell_setting 'monoclinic'
loop_
_space_group_symop_operation_xyz
x,y,z
-x,y,1/2-z
-x,-y,-z
x,-y,1/2+z
1/2+x,1/2+y,z
1/2-x,1/2+y,1/2-z
1/2-x,1/2-y,-z
1/2+x,1/2-y,1/2+z
loop_
_atom_site_type_symbol
_atom_site_label
_atom_site_fract_x
_atom_site_fract_y
_atom_site_fract_z
Si Si1 0.112056 0.933795 0.641112
Si Si2 0.000000 0.661214 0.250000
Si Si3 0.500000 0.507352 0.250000
Si Si4 0.741563 0.661158 0.528428
Si Si5 0.184126 0.116213 0.657093
Si Si6 0.846773 0.781528 0.098441
Si Si7 0.350138 0.114419 0.855238
O O1 0.311580 0.889665 0.699393
O O2 0.952046 0.884341 0.551442
O O3 0.155276 0.023582 0.629926
O O4 0.039317 0.942891 0.695130
O O5 0.972924 0.715217 0.175022
O O6 0.307637 0.453990 0.179805
O O7 0.750000 0.750000 0.500000
O O8 0.745719 0.664984 0.611187
O O9 0.923906 0.608194 0.563086
O O10 0.318878 0.126885 0.764881
O O11 0.981768 0.147090 0.618801
O O12 0.710105 0.813153 0.114780
O O13 0.750000 0.750000 0.000000
#
# Coordination Sequence:
#
# PCOD9296862 Si02
#       7
#     8   4   4   8   8   8   8
#     4  11  26  46  68 105 138 184 240 289 349 423
#     4  12  25  46  72 103 146 180 240 290 351 426
#     4  10  23  46  70  95 134 194 230 290 353 412
#     4  12  27  42  68 110 142 175 238 296 353 415
#     4  11  23  47  71  96 141 188 232 287 350 424
#     4  12  23  44  76 103 136 191 234 284 354 423
#     4  11  21  45  71  95 138 187 229 278 358 413
#
# _framework density 20.5793
#
# number of rings (size 3 to 8) (size 9 to 14) (size 15 to 20)
#    0.000    0.667    5.000    4.000    4.667    3.333 
#    0.000    0.000    0.000    0.000    0.000    0.000 
#    0.000    0.000    0.000    0.000    0.000    0.000 
#
# Total GULP energy -134054.539391 kJ/mol
# GULP energy per Si atom -5585.605808 kJ/mol
# Density = 2.053246 g / cm^3
# Si number density = 20.579300 Si / 1000 Ang^3
#
#
#
# Elastic Constant Matrix: (Units=GPa)
#
#
# Indices 1 2 3 4 5 6 
#
# 1 103.2478 28.3140 45.3004 0.0000 14.9419 0.0000
# 2 28.3140 81.3489 59.3862 0.0000 -5.0204 0.0000
# 3 45.3004 59.3862 135.2206 0.0000 19.1860 0.0000
# 4 0.0000 0.0000 0.0000 1.8660 0.0000 -11.6071
# 5 14.9419 -5.0204 19.1860 0.0000 44.6634 0.0000
# 6 0.0000 0.0000 0.0000 -11.6071 0.0000 8.1104
#
#
#
# Elastic Compliance Matrix: (Units=1/GPa)
#
#
# Indices 1 2 3 4 5 6 
#
# 1 0.011918 -0.002608 -0.002386 0.000000 -0.003256 0.000000
# 2 -0.002608 0.020195 -0.008989 0.000000 0.007004 0.000000
# 3 -0.002386 -0.008989 0.012963 0.000000 -0.005781 0.000000
# 4 0.000000 0.000000 0.000000 -0.067818 0.000000 -0.097057
# 5 -0.003256 0.007004 -0.005781 0.000000 0.026749 0.000000
# 6 0.000000 0.000000 0.000000 -0.097057 0.000000 -0.015604
#
#
# Mechanical properties :
#
#
# Convention : Reuss Voigt Hill
#
# Bulk Modulus (GPa) = 58.44287 65.09095 61.76691
# Shear Modulus (GPa) = 226.51906 23.38241 124.95073
#
# Velocity S-wave (km/s) = 10.50287 3.37443 7.80055
# Velocity P-wave (km/s) = 13.24918 6.84692 10.54564
#
# Compressibility (1/GPa) = 0.01711073
#
# Stress axis : x y z
#
# Youngs Moduli (GPa) = 83.90403 49.51714 77.14415
#
# Poissons Ratio (x) = 0.12912 0.18404
# Poissons Ratio (y) = 0.21879 0.69348
# Poissons Ratio (z) = 0.20017 0.44513
#
# Static dielectric constant tensor:
#      x y z
#    x 1.733910 0.000000 -0.002780 
#    y 0.000000 1.748620 0.000000 
#    z -0.002780 0.000000 1.760870 
# 
# From -- ./inp_files/232900.got.cif
#   From: 2010.05.17/outbox.cif.g08.bks.cpg/sg15_117_cif.got.tgz:232900.got - 2010.06.03 18:47:42.
