data_PCOD9296917
_publ_section_title
;
Structure prediction by ZEFSAII (Michael W. Deem and Ramdas Pophale) SiO2 
 PCOD9296917
Probable space group: C 2/C
;
_chemical_formula_sum "Si O2"
_cell_formula_units_Z 48
_cell_length_a 15.905301
_cell_length_b 7.542984
_cell_length_c 17.342549
_cell_angle_alpha 90.000000
_cell_angle_beta 69.846096
_cell_angle_gamma 90.000000
_cell_volume 1953.248289
_symmetry_space_group_name_H-M "C 2/C"
_symmetry_group_IT_number 15
_symmetry_cell_setting 'monoclinic'
loop_
_space_group_symop_operation_xyz
x,y,z
-x,y,1/2-z
-x,-y,-z
x,-y,1/2+z
1/2+x,1/2+y,z
1/2-x,1/2+y,1/2-z
1/2-x,1/2-y,-z
1/2+x,1/2-y,1/2+z
loop_
_atom_site_type_symbol
_atom_site_label
_atom_site_fract_x
_atom_site_fract_y
_atom_site_fract_z
Si Si1 0.894767 0.236124 0.838386
Si Si2 0.750170 0.742175 0.817522
Si Si3 0.069350 0.834261 0.657168
Si Si4 0.987391 0.291239 0.024404
Si Si5 0.433646 0.205498 0.150223
Si Si6 0.202671 0.159981 0.367966
O O1 0.903911 0.216316 0.742452
O O2 0.793475 0.289752 0.884205
O O3 0.969684 0.368957 0.849542
O O4 0.921082 0.044098 0.859688
O O5 0.831251 0.775916 0.849659
O O6 0.663207 0.873179 0.845260
O O7 0.792433 0.755690 0.719241
O O8 0.709946 0.549479 0.848548
O O9 0.000000 0.803865 0.750000
O O10 0.032827 0.750144 0.590994
O O11 0.885481 0.227833 0.062393
O O12 0.000000 0.500000 0.000000
O O13 0.035959 0.197873 0.937219
#
# Coordination Sequence:
#
# PCOD9296917 Si02
#       6
#     8   8   8   8   8   8
#     4  10  23  46  79 100 141 202 247 286 366 450
#     4  11  24  44  77 104 142 203 245 299 356 450
#     4  12  24  48  75 108 144 195 248 294 365 442
#     4  12  30  47  72 114 155 185 244 318 365 424
#     4  10  23  46  72 104 146 188 242 297 369 422
#     4  11  25  45  74 108 148 191 252 295 368 437
#
# _framework density 24.574448
#
# number of rings (size 3 to 8) (size 9 to 14) (size 15 to 20)
#    0.000    1.000    3.333    3.000    9.333    4.000 
#    0.000    0.000    0.000    0.000    0.000    0.000 
#    0.000    0.000    0.000    0.000    0.000    0.000 
#
# Total GULP energy -133993.376690 kJ/mol
# GULP energy per Si atom -5583.057362 kJ/mol
# Density = 2.451852 g / cm^3
# Si number density = 24.574448 Si / 1000 Ang^3
#
#
#
# Elastic Constant Matrix: (Units=GPa)
#
#
# Indices 1 2 3 4 5 6 
#
# 1 249.8726 39.9716 74.0559 0.0000 -10.0454 0.0000
# 2 39.9716 105.1975 30.4751 0.0000 1.1448 0.0000
# 3 74.0559 30.4751 125.8289 0.0000 -8.3762 0.0000
# 4 0.0000 0.0000 0.0000 29.4724 0.0000 1.0063
# 5 -10.0454 1.1448 -8.3762 0.0000 53.0500 0.0000
# 6 0.0000 0.0000 0.0000 1.0063 0.0000 24.3484
#
#
#
# Elastic Compliance Matrix: (Units=1/GPa)
#
#
# Indices 1 2 3 4 5 6 
#
# 1 0.004983 -0.001141 -0.002620 0.000000 0.000555 0.000000
# 2 -0.001141 0.010504 -0.001922 0.000000 -0.000746 0.000000
# 3 -0.002620 -0.001922 0.010030 0.000000 0.001129 0.000000
# 4 0.000000 0.000000 0.000000 0.033978 0.000000 -0.001404
# 5 0.000555 -0.000746 0.001129 0.000000 0.019150 0.000000
# 6 0.000000 0.000000 0.000000 -0.001404 0.000000 0.041128
#
#
# Mechanical properties :
#
#
# Convention : Reuss Voigt Hill
#
# Bulk Modulus (GPa) = 70.66170 85.54493 78.10331
# Shear Modulus (GPa) = 36.80361 43.80059 40.30210
#
# Velocity S-wave (km/s) = 3.87413 4.22638 4.05408
# Velocity P-wave (km/s) = 6.98773 7.66176 7.33249
#
# Compressibility (1/GPa) = 0.01415194
#
# Stress axis : x y z
#
# Youngs Moduli (GPa) = 200.67443 95.19853 99.70219
#
# Poissons Ratio (x) = 0.10858 0.26119
# Poissons Ratio (y) = 0.22889 0.19168
# Poissons Ratio (z) = 0.52570 0.18302
#
# Static dielectric constant tensor:
#      x y z
#    x 2.009620 0.000000 -0.015620 
#    y 0.000000 2.065850 0.000000 
#    z -0.015620 0.000000 1.926720 
# 
# From -- ./inp_files/208924.got.cif
#   From: 2010.05.17/outbox.cif.g08.bks.cpg/sg15_105_cif.got.tgz:208924.got - 2010.06.03 18:47:42.
