data_PCOD9296031
_publ_section_title
;
Structure prediction by ZEFSAII (Michael W. Deem and Ramdas Pophale) SiO2 
 PCOD9296031
Probable space group: C 2/C
;
_chemical_formula_sum "Si O2"
_cell_formula_units_Z 52
_cell_length_a 15.015263
_cell_length_b 25.165777
_cell_length_c 12.691648
_cell_angle_alpha 90.000000
_cell_angle_beta 148.281434
_cell_angle_gamma 90.000000
_cell_volume 2521.380398
_symmetry_space_group_name_H-M "C 2/C"
_symmetry_group_IT_number 15
_symmetry_cell_setting 'monoclinic'
loop_
_space_group_symop_operation_xyz
x,y,z
-x,y,1/2-z
-x,-y,-z
x,-y,1/2+z
1/2+x,1/2+y,z
1/2-x,1/2+y,1/2-z
1/2-x,1/2-y,-z
1/2+x,1/2-y,1/2+z
loop_
_atom_site_type_symbol
_atom_site_label
_atom_site_fract_x
_atom_site_fract_y
_atom_site_fract_z
Si Si1 0.119935 0.067258 0.670473
Si Si2 0.616288 0.785165 0.589113
Si Si3 0.197479 0.357086 0.481892
Si Si4 0.386185 0.537096 0.239045
Si Si5 0.000000 0.882160 0.250000
Si Si6 0.689874 0.192609 0.399570
Si Si7 0.262546 0.328097 0.316856
O O1 0.994414 0.084842 0.637227
O O2 0.222773 0.118926 0.737513
O O3 0.016198 0.051384 0.462847
O O4 0.208233 0.015665 0.811768
O O5 0.710013 0.810893 0.582443
O O6 0.689151 0.806342 0.772215
O O7 0.619498 0.721276 0.595295
O O8 0.424611 0.804769 0.385547
O O9 0.267318 0.412551 0.596567
O O10 0.292312 0.342283 0.469220
O O11 0.000000 0.362535 0.250000
O O12 0.500000 0.526856 0.250000
O O13 0.169985 0.847724 0.417889
O O14 0.500000 0.182177 0.250000
O O15 0.750000 0.250000 0.500000
#
# Coordination Sequence:
#
# PCOD9296031 Si02
#       7
#     8   8   8   8   4   8   8
#     4  11  24  42  69  98 129 174 228 284 330 402
#     4  11  24  41  64  98 137 181 217 270 341 406
#     4  10  23  44  66 100 135 170 221 279 338 405
#     4  11  22  44  72  93 128 173 228 280 340 390
#     4  12  24  40  64  94 134 174 230 278 338 408
#     4  12  24  40  60  90 132 183 227 275 331 402
#     4  11  24  41  66  98 140 173 223 273 336 408
#
# _framework density 20.623622999999998
#
# number of rings (size 3 to 8) (size 9 to 14) (size 15 to 20)
#    0.000    0.923    3.077    4.154    4.308    0.000 
#    0.000    5.385    0.000    0.000    0.000    0.000 
#    0.000    0.000    0.000    0.000    0.000    0.000 
#
# Total GULP energy -145301.150872 kJ/mol
# GULP energy per Si atom -5588.505803 kJ/mol
# Density = 2.057668 g / cm^3
# Si number density = 20.623623 Si / 1000 Ang^3
#
#
#
# Elastic Constant Matrix: (Units=GPa)
#
#
# Indices 1 2 3 4 5 6 
#
# 1 80.2979 16.9475 33.2012 0.0000 -25.1735 0.0000
# 2 16.9475 112.3219 31.2929 0.0000 -4.3979 0.0000
# 3 33.2012 31.2929 86.1560 0.0000 -23.5771 0.0000
# 4 0.0000 0.0000 0.0000 34.6007 0.0000 -9.3832
# 5 -25.1735 -4.3979 -23.5771 0.0000 41.9328 0.0000
# 6 0.0000 0.0000 0.0000 -9.3832 0.0000 35.6978
#
#
#
# Elastic Compliance Matrix: (Units=1/GPa)
#
#
# Indices 1 2 3 4 5 6 
#
# 1 0.016736 -0.001129 -0.003926 0.000000 0.007721 0.000000
# 2 -0.001129 0.010030 -0.003670 0.000000 -0.001689 0.000000
# 3 -0.003926 -0.003670 0.016194 0.000000 0.006363 0.000000
# 4 0.000000 0.000000 0.000000 0.031119 0.000000 0.008180
# 5 0.007721 -0.001689 0.006363 0.000000 0.031884 0.000000
# 6 0.000000 0.000000 0.000000 0.008180 0.000000 0.030163
#
#
# Mechanical properties :
#
#
# Convention : Reuss Voigt Hill
#
# Bulk Modulus (GPa) = 39.20207 49.07324 44.13765
# Shear Modulus (GPa) = 30.84899 35.60187 33.22543
#
# Velocity S-wave (km/s) = 3.87176 4.15934 4.01813
# Velocity P-wave (km/s) = 6.24796 6.84932 6.55554
#
# Compressibility (1/GPa) = 0.02550886
#
# Stress axis : x y z
#
# Youngs Moduli (GPa) = 59.75174 99.70404 61.74982
#
# Poissons Ratio (x) = 0.11256 0.24246
# Poissons Ratio (y) = 0.06746 0.22663
# Poissons Ratio (z) = 0.23461 0.36593
#
# Static dielectric constant tensor:
#      x y z
#    x 1.761000 0.000000 -0.005370 
#    y 0.000000 1.772420 0.000000 
#    z -0.005370 0.000000 1.696600 
# 
# From -- ./inp_files/100723.got.cif
#   From: 2010.05.17/outbox.cif.g08.bks.cpg/sg15_51_cif.got.tgz:100723.got - 2010.06.03 18:47:42.
