data_PCOD9296571
_publ_section_title
;
Structure prediction by ZEFSAII (Michael W. Deem and Ramdas Pophale) SiO2 
 PCOD9296571
Probable space group: C 2/C
;
_chemical_formula_sum "Si O2"
_cell_formula_units_Z 64
_cell_length_a 12.957215
_cell_length_b 14.466069
_cell_length_c 18.709000
_cell_angle_alpha 90.000000
_cell_angle_beta 128.666290
_cell_angle_gamma 90.000000
_cell_volume 2738.114084
_symmetry_space_group_name_H-M "C 2/C"
_symmetry_group_IT_number 15
_symmetry_cell_setting 'monoclinic'
loop_
_space_group_symop_operation_xyz
x,y,z
-x,y,1/2-z
-x,-y,-z
x,-y,1/2+z
1/2+x,1/2+y,z
1/2-x,1/2+y,1/2-z
1/2-x,1/2-y,-z
1/2+x,1/2-y,1/2+z
loop_
_atom_site_type_symbol
_atom_site_label
_atom_site_fract_x
_atom_site_fract_y
_atom_site_fract_z
Si Si1 0.798896 0.852878 0.465030
Si Si2 0.582045 0.349796 0.356088
Si Si3 0.283131 0.961386 0.813798
Si Si4 0.975372 0.353879 0.654621
Si Si5 0.335033 0.164486 0.872846
Si Si6 0.863278 0.658295 0.470003
Si Si7 0.413526 0.646794 0.361838
Si Si8 0.312436 0.439190 0.963909
O O1 0.810948 0.759732 0.424013
O O2 0.673094 0.848683 0.462290
O O3 0.929345 0.847138 0.571853
O O4 0.803548 0.954650 0.434833
O O5 0.500000 0.378932 0.250000
O O6 0.523730 0.254959 0.363687
O O7 0.724312 0.321055 0.384942
O O8 0.602003 0.423520 0.427426
O O9 0.407431 0.910907 0.830510
O O10 0.293395 0.925238 0.899223
O O11 0.152039 0.923604 0.720616
O O12 0.298419 0.070442 0.817220
O O13 0.832948 0.400212 0.581281
O O14 0.000000 0.355764 0.750000
O O15 0.347778 0.252354 0.826879
O O16 0.479580 0.152903 0.970431
O O17 0.376094 0.616467 0.426281
#
# Coordination Sequence:
#
# PCOD9296571 Si02
#       8
#     8   8   8   8   8   8   8   8
#     4  10  24  43  65  92 133 181 229 272 345 398
#     4  11  24  40  68 100 136 171 224 283 347 403
#     4  12  24  41  72  97 134 178 229 274 341 413
#     4  11  22  42  64 100 138 171 225 280 340 409
#     4  11  23  45  67  98 134 175 223 281 340 402
#     4  10  23  45  68  94 131 178 232 283 326 411
#     4  11  25  42  62 101 137 173 222 283 335 409
#     4  12  22  41  67  96 136 179 216 282 346 409
#
# _framework density 23.373754000000002
#
# number of rings (size 3 to 8) (size 9 to 14) (size 15 to 20)
#    0.000    1.000    2.500    4.125    5.250    1.500 
#    0.000    0.000    0.000    0.000    0.000    0.000 
#    0.000    0.000    0.000    0.000    0.000    0.000 
#
# Total GULP energy -179147.076039 kJ/mol
# GULP energy per Si atom -5598.346126 kJ/mol
# Density = 2.332055 g / cm^3
# Si number density = 23.373754 Si / 1000 Ang^3
#
#
#
# Elastic Constant Matrix: (Units=GPa)
#
#
# Indices 1 2 3 4 5 6 
#
# 1 63.8082 -8.1682 -7.3471 0.0000 14.3554 0.0000
# 2 -8.1682 122.1936 7.8019 0.0000 -4.8227 0.0000
# 3 -7.3471 7.8019 66.8509 0.0000 12.7368 0.0000
# 4 0.0000 0.0000 0.0000 19.8296 0.0000 5.0384
# 5 14.3554 -4.8227 12.7368 0.0000 16.3960 0.0000
# 6 0.0000 0.0000 0.0000 5.0384 0.0000 25.8964
#
#
#
# Elastic Compliance Matrix: (Units=1/GPa)
#
#
# Indices 1 2 3 4 5 6 
#
# 1 0.022109 0.000036 0.007173 0.000000 -0.024919 0.000000
# 2 0.000036 0.008444 -0.001700 0.000000 0.003772 0.000000
# 3 0.007173 -0.001700 0.020232 0.000000 -0.022497 0.000000
# 4 0.000000 0.000000 0.000000 0.053052 0.000000 -0.010322
# 5 -0.024919 0.003772 -0.022497 0.000000 0.101394 0.000000
# 6 0.000000 0.000000 0.000000 -0.010322 0.000000 0.040624
#
#
# Mechanical properties :
#
#
# Convention : Reuss Voigt Hill
#
# Bulk Modulus (GPa) = 16.18050 26.38068 21.28059
# Shear Modulus (GPa) = 19.57441 29.79547 24.68494
#
# Velocity S-wave (km/s) = 2.89702 3.57422 3.25329
# Velocity P-wave (km/s) = 4.25768 5.32395 4.82038
#
# Compressibility (1/GPa) = 0.06180278
#
# Stress axis : x y z
#
# Youngs Moduli (GPa) = 45.23111 118.43273 49.42741
#
# Poissons Ratio (x) = -0.00431 -0.35455
# Poissons Ratio (y) = -0.00165 0.08404
# Poissons Ratio (z) = -0.32445 0.20136
#
# Static dielectric constant tensor:
#      x y z
#    x 1.860270 0.000000 0.000540 
#    y 0.000000 1.902090 0.000000 
#    z 0.000540 0.000000 1.867490 
# 
# From -- ./inp_files/205745.got.cif
#   From: 2010.05.17/outbox.cif.g08.bks.cpg/sg15_103_cif.got.tgz:205745.got - 2010.06.03 18:47:42.
