data_PCOD9296095
_publ_section_title
;
Structure prediction by ZEFSAII (Michael W. Deem and Ramdas Pophale) SiO2 
 PCOD9296095
Probable space group: C 2/C
;
_chemical_formula_sum "Si O2"
_cell_formula_units_Z 56
_cell_length_a 26.862023
_cell_length_b 13.824670
_cell_length_c 14.129535
_cell_angle_alpha 90.000000
_cell_angle_beta 26.201906
_cell_angle_gamma 90.000000
_cell_volume 2316.792742
_symmetry_space_group_name_H-M "C 2/C"
_symmetry_group_IT_number 15
_symmetry_cell_setting 'monoclinic'
loop_
_space_group_symop_operation_xyz
x,y,z
-x,y,1/2-z
-x,-y,-z
x,-y,1/2+z
1/2+x,1/2+y,z
1/2-x,1/2+y,1/2-z
1/2-x,1/2-y,-z
1/2+x,1/2-y,1/2+z
loop_
_atom_site_type_symbol
_atom_site_label
_atom_site_fract_x
_atom_site_fract_y
_atom_site_fract_z
Si Si1 0.032452 0.750435 0.788156
Si Si2 0.190847 0.875262 0.064949
Si Si3 0.334676 0.062140 0.010957
Si Si4 0.816644 0.598610 0.692721
Si Si5 0.332671 0.581264 0.367014
Si Si6 0.200796 0.237548 0.739242
Si Si7 0.948431 0.569698 0.167804
O O1 0.000000 0.811687 0.750000
O O2 0.109936 0.665477 0.613194
O O3 0.091363 0.824253 0.757915
O O4 0.915644 0.712407 0.030177
O O5 0.194563 0.805715 0.968504
O O6 0.326658 0.893943 0.843264
O O7 0.123699 0.975283 0.176295
O O8 0.166120 0.821000 0.204506
O O9 0.218990 0.065361 0.148601
O O10 0.415975 0.989476 0.816225
O O11 0.318078 0.008840 0.140420
O O12 0.762196 0.599323 0.889912
O O13 0.745093 0.665948 0.744769
O O14 0.945255 0.635154 0.485881
O O15 0.000000 0.500000 0.000000
#
# Coordination Sequence:
#
# PCOD9296095 Si02
#       7
#     8   8   8   8   8   8   8
#     4  12  25  41  66  99 135 177 220 268 327 402
#     4  10  23  44  67  92 131 178 218 272 330 388
#     4  11  24  42  66 101 127 171 222 279 328 381
#     4  12  22  40  68 101 133 168 217 282 329 386
#     4  11  24  43  67  97 135 171 223 273 325 392
#     4  11  24  43  67  95 133 175 220 265 334 393
#     4  11  19  37  69  95 128 162 218 278 329 371
#
# _framework density 24.171344999999999
#
# number of rings (size 3 to 8) (size 9 to 14) (size 15 to 20)
#    0.000    0.857    7.143    2.571    2.000    0.571 
#    0.000    0.000    6.286    0.000    0.000    0.000 
#    0.000    0.000    0.000    0.000    0.000    0.000 
#
# Total GULP energy -156270.340044 kJ/mol
# GULP energy per Si atom -5581.083573 kJ/mol
# Density = 2.411633 g / cm^3
# Si number density = 24.171345 Si / 1000 Ang^3
#
#
#
# Elastic Constant Matrix: (Units=GPa)
#
#
# Indices 1 2 3 4 5 6 
#
# 1 64.5370 -1.8371 8.1732 0.0000 3.1221 0.0000
# 2 -1.8371 70.2221 3.3165 0.0000 -4.4056 0.0000
# 3 8.1732 3.3165 50.0882 0.0000 11.9028 0.0000
# 4 0.0000 0.0000 0.0000 27.1835 0.0000 7.4473
# 5 3.1221 -4.4056 11.9028 0.0000 24.1435 0.0000
# 6 0.0000 0.0000 0.0000 7.4473 0.0000 30.7963
#
#
#
# Elastic Compliance Matrix: (Units=1/GPa)
#
#
# Indices 1 2 3 4 5 6 
#
# 1 0.015854 0.000482 -0.002438 0.000000 -0.000760 0.000000
# 2 0.000482 0.014563 -0.001880 0.000000 0.003522 0.000000
# 3 -0.002438 -0.001880 0.023213 0.000000 -0.011472 0.000000
# 4 0.000000 0.000000 0.000000 0.039397 0.000000 -0.009527
# 5 -0.000760 0.003522 -0.011472 0.000000 0.047816 0.000000
# 6 0.000000 0.000000 0.000000 -0.009527 0.000000 0.034775
#
#
# Mechanical properties :
#
#
# Convention : Reuss Voigt Hill
#
# Bulk Modulus (GPa) = 21.75873 22.68360 22.22116
# Shear Modulus (GPa) = 25.17497 28.10432 26.63965
#
# Velocity S-wave (km/s) = 3.23076 3.41356 3.32342
# Velocity P-wave (km/s) = 4.78942 4.99413 4.89285
#
# Compressibility (1/GPa) = 0.04595857
#
# Stress axis : x y z
#
# Youngs Moduli (GPa) = 63.07444 68.66774 43.07875
#
# Poissons Ratio (x) = -0.03311 0.10504
# Poissons Ratio (y) = -0.03042 0.08098
# Poissons Ratio (z) = 0.15380 0.12908
#
# Static dielectric constant tensor:
#      x y z
#    x 2.045300 0.000000 -0.029010 
#    y 0.000000 2.032200 0.000000 
#    z -0.029010 0.000000 1.934200 
# 
# From -- ./inp_files/178332.got.cif
#   From: 2010.05.17/outbox.cif.g08.bks.cpg/sg15_90_cif.got.tgz:178332.got - 2010.06.03 18:47:42.
