data_PCOD9296310
_publ_section_title
;
Structure prediction by ZEFSAII (Michael W. Deem and Ramdas Pophale) SiO2 
 PCOD9296310
Probable space group: C 2/C
;
_chemical_formula_sum "Si O2"
_cell_formula_units_Z 48
_cell_length_a 8.466081
_cell_length_b 16.536420
_cell_length_c 16.314669
_cell_angle_alpha 90.000000
_cell_angle_beta 119.694614
_cell_angle_gamma 90.000000
_cell_volume 1984.088528
_symmetry_space_group_name_H-M "C 2/C"
_symmetry_group_IT_number 15
_symmetry_cell_setting 'monoclinic'
loop_
_space_group_symop_operation_xyz
x,y,z
-x,y,1/2-z
-x,-y,-z
x,-y,1/2+z
1/2+x,1/2+y,z
1/2-x,1/2+y,1/2-z
1/2-x,1/2-y,-z
1/2+x,1/2-y,1/2+z
loop_
_atom_site_type_symbol
_atom_site_label
_atom_site_fract_x
_atom_site_fract_y
_atom_site_fract_z
Si Si1 0.433842 0.197915 0.050630
Si Si2 0.253396 0.060462 0.094707
Si Si3 0.888846 0.666644 0.851075
Si Si4 0.891895 0.040816 0.085665
Si Si5 0.000000 0.908838 0.250000
Si Si6 0.500000 0.958818 0.250000
Si Si7 0.190964 0.216374 0.395443
O O1 0.387707 0.132415 0.107235
O O2 0.630553 0.240010 0.112348
O O3 0.250000 0.250000 0.000000
O O4 0.434216 0.161451 0.958789
O O5 0.047437 0.079920 0.066484
O O6 0.327423 0.013995 0.192171
O O7 0.241685 0.003542 0.011917
O O8 0.675666 0.648749 0.785762
O O9 0.982691 0.595640 0.824691
O O10 0.987997 0.745808 0.838043
O O11 0.817279 0.119271 0.112885
O O12 0.959041 0.969934 0.163668
O O13 0.250000 0.250000 0.500000
#
# Coordination Sequence:
#
# PCOD9296310 Si02
#       7
#     8   8   8   8   4   4   8
#     4  11  24  45  78 109 144 199 258 318 389 466
#     4  11  23  42  73 105 148 191 246 314 376 461
#     4  11  25  46  69 108 152 198 250 315 386 460
#     4  11  24  44  73 105 148 197 252 316 375 467
#     4  12  24  47  75 112 150 210 260 314 394 464
#     4  12  26  43  69 108 150 196 250 308 392 454
#     4  10  23  44  71 105 146 191 251 311 384 446
#
# _framework density 24.19247
#
# number of rings (size 3 to 8) (size 9 to 14) (size 15 to 20)
#    0.000    1.000    3.333    4.000    2.333    4.667 
#    0.000    5.000    0.000    0.000    0.000    0.000 
#    0.000    0.000    0.000    0.000    0.000    0.000 
#
# Total GULP energy -133998.269824 kJ/mol
# GULP energy per Si atom -5583.261243 kJ/mol
# Density = 2.413741 g / cm^3
# Si number density = 24.192470 Si / 1000 Ang^3
#
#
#
# Elastic Constant Matrix: (Units=GPa)
#
#
# Indices 1 2 3 4 5 6 
#
# 1 150.0870 50.8542 6.7283 0.0000 25.5096 0.0000
# 2 50.8542 79.6988 26.0516 0.0000 14.0968 0.0000
# 3 6.7283 26.0516 70.5484 0.0000 0.5445 0.0000
# 4 0.0000 0.0000 0.0000 25.0626 0.0000 3.2818
# 5 25.5096 14.0968 0.5445 0.0000 44.8894 0.0000
# 6 0.0000 0.0000 0.0000 3.2818 0.0000 18.9772
#
#
#
# Elastic Compliance Matrix: (Units=1/GPa)
#
#
# Indices 1 2 3 4 5 6 
#
# 1 0.009084 -0.005592 0.001225 0.000000 -0.003421 0.000000
# 2 -0.005592 0.018645 -0.006332 0.000000 -0.002601 0.000000
# 3 0.001225 -0.006332 0.016388 0.000000 0.001093 0.000000
# 4 0.000000 0.000000 0.000000 0.040825 0.000000 -0.007060
# 5 -0.003421 -0.002601 0.001093 0.000000 0.025025 0.000000
# 6 0.000000 0.000000 0.000000 -0.007060 0.000000 0.053916
#
#
# Mechanical properties :
#
#
# Convention : Reuss Voigt Hill
#
# Bulk Modulus (GPa) = 44.01494 51.95580 47.98537
# Shear Modulus (GPa) = 25.92676 32.23252 29.07964
#
# Velocity S-wave (km/s) = 3.27721 3.65408 3.47077
# Velocity P-wave (km/s) = 5.70555 6.27102 5.99496
#
# Compressibility (1/GPa) = 0.02271956
#
# Stress axis : x y z
#
# Youngs Moduli (GPa) = 110.08408 53.63440 61.02209
#
# Poissons Ratio (x) = 0.29990 -0.07474
# Poissons Ratio (y) = 0.61554 0.38637
# Poissons Ratio (z) = -0.13484 0.33959
#
# Static dielectric constant tensor:
#      x y z
#    x 1.767050 0.000000 -0.037810 
#    y 0.000000 1.946650 0.000000 
#    z -0.037810 0.000000 1.903500 
# 
# From -- ./inp_files/190679.got.cif
#   From: 2010.05.17/outbox.cif.g08.bks.cpg/sg15_96_cif.got.tgz:190679.got - 2010.06.03 18:47:42.
