data_PCOD9296745
_publ_section_title
;
Structure prediction by ZEFSAII (Michael W. Deem and Ramdas Pophale) SiO2 
 PCOD9296745
Probable space group: C 2/C
;
_chemical_formula_sum "Si O2"
_cell_formula_units_Z 52
_cell_length_a 13.641783
_cell_length_b 10.986630
_cell_length_c 13.882952
_cell_angle_alpha 90.000000
_cell_angle_beta 75.908086
_cell_angle_gamma 90.000000
_cell_volume 2018.121350
_symmetry_space_group_name_H-M "C 2/C"
_symmetry_group_IT_number 15
_symmetry_cell_setting 'monoclinic'
loop_
_space_group_symop_operation_xyz
x,y,z
-x,y,1/2-z
-x,-y,-z
x,-y,1/2+z
1/2+x,1/2+y,z
1/2-x,1/2+y,1/2-z
1/2-x,1/2-y,-z
1/2+x,1/2-y,1/2+z
loop_
_atom_site_type_symbol
_atom_site_label
_atom_site_fract_x
_atom_site_fract_y
_atom_site_fract_z
Si Si1 0.604870 0.950397 0.180829
Si Si2 0.500000 0.500000 0.000000
Si Si3 0.453757 0.762580 0.468155
Si Si4 0.793386 0.643896 0.126624
Si Si5 0.737658 0.321654 0.209036
Si Si6 0.590476 0.489055 0.666566
Si Si7 0.642598 0.902538 0.489630
O O1 0.500000 0.002195 0.250000
O O2 0.566301 0.840521 0.121775
O O3 0.681020 0.888674 0.239360
O O4 0.658349 0.043451 0.092601
O O5 0.504452 0.628758 0.057028
O O6 0.558734 0.440305 0.078088
O O7 0.349456 0.751595 0.553235
O O8 0.535556 0.837800 0.509532
O O9 0.789109 0.693389 0.235764
O O10 0.680512 0.606102 0.126075
O O11 0.853902 0.523806 0.079450
O O12 0.641943 0.410203 0.225024
O O13 0.781507 0.317679 0.090109
O O14 0.500000 0.436353 0.750000
#
# Coordination Sequence:
#
# PCOD9296745 Si02
#       7
#     8   4   8   8   8   8   8
#     4  11  22  42  84 119 157 211 269 337 405 484
#     4  12  28  48  74 104 160 206 252 332 398 478
#     4  11  24  47  78 112 150 206 265 327 408 484
#     4  10  23  45  76 108 153 201 259 331 394 478
#     4  11  24  44  75 119 155 211 264 328 406 483
#     4  11  27  47  73 108 155 208 263 316 397 478
#     4  10  24  45  76 120 154 198 274 329 398 484
#
# _framework density 25.766539999999999
#
# number of rings (size 3 to 8) (size 9 to 14) (size 15 to 20)
#    0.000    1.231    1.538    3.692    4.308   11.692 
#    5.538    3.846    0.000    0.000    0.000    0.000 
#    0.000    0.000    0.000    0.000    0.000    0.000 
#
# Total GULP energy -144933.540376 kJ/mol
# GULP energy per Si atom -5574.366938 kJ/mol
# Density = 2.570789 g / cm^3
# Si number density = 25.766540 Si / 1000 Ang^3
#
#
#
# Elastic Constant Matrix: (Units=GPa)
#
#
# Indices 1 2 3 4 5 6 
#
# 1 72.5815 25.3768 43.2478 0.0000 -0.3425 0.0000
# 2 25.3768 66.1143 58.8684 0.0000 5.9010 0.0000
# 3 43.2478 58.8684 167.7503 0.0000 0.9177 0.0000
# 4 0.0000 0.0000 0.0000 48.1788 0.0000 12.3528
# 5 -0.3425 5.9010 0.9177 0.0000 58.7869 0.0000
# 6 0.0000 0.0000 0.0000 12.3528 0.0000 8.5645
#
#
#
# Elastic Compliance Matrix: (Units=1/GPa)
#
#
# Indices 1 2 3 4 5 6 
#
# 1 0.016925 -0.003863 -0.003011 0.000000 0.000533 0.000000
# 2 -0.003863 0.023141 -0.007112 0.000000 -0.002234 0.000000
# 3 -0.003011 -0.007112 0.009230 0.000000 0.000552 0.000000
# 4 0.000000 0.000000 0.000000 0.032936 0.000000 -0.047504
# 5 0.000533 -0.002234 0.000552 0.000000 0.017229 0.000000
# 6 0.000000 0.000000 0.000000 -0.047504 0.000000 0.185276
#
#
# Mechanical properties :
#
#
# Convention : Reuss Voigt Hill
#
# Bulk Modulus (GPa) = 46.89764 62.38136 54.63950
# Shear Modulus (GPa) = 15.63393 35.03624 25.33508
#
# Velocity S-wave (km/s) = 2.46591 3.69149 3.13909
# Velocity P-wave (km/s) = 5.13304 6.51400 5.86431
#
# Compressibility (1/GPa) = 0.02132304
#
# Stress axis : x y z
#
# Youngs Moduli (GPa) = 59.08525 43.21409 108.33821
#
# Poissons Ratio (x) = 0.16695 0.32616
# Poissons Ratio (y) = 0.22826 0.77055
# Poissons Ratio (z) = 0.17788 0.30736
#
# Static dielectric constant tensor:
#      x y z
#    x 2.048070 0.000000 -0.025500 
#    y 0.000000 1.971560 0.000000 
#    z -0.025500 0.000000 2.009090 
# 
# From -- ./inp_files/152542.got.cif
#   From: 2010.05.17/outbox.cif.g08.bks.cpg/sg15_77_cif.got.tgz:152542.got - 2010.06.03 18:47:42.
