data_PCOD9296933
_publ_section_title
;
Structure prediction by ZEFSAII (Michael W. Deem and Ramdas Pophale) SiO2 
 PCOD9296933
Probable space group: C 2/C
;
_chemical_formula_sum "Si O2"
_cell_formula_units_Z 60
_cell_length_a 19.691815
_cell_length_b 11.253145
_cell_length_c 23.248647
_cell_angle_alpha 90.000000
_cell_angle_beta 147.356810
_cell_angle_gamma 90.000000
_cell_volume 2778.899623
_symmetry_space_group_name_H-M "C 2/C"
_symmetry_group_IT_number 15
_symmetry_cell_setting 'monoclinic'
loop_
_space_group_symop_operation_xyz
x,y,z
-x,y,1/2-z
-x,-y,-z
x,-y,1/2+z
1/2+x,1/2+y,z
1/2-x,1/2+y,1/2-z
1/2-x,1/2-y,-z
1/2+x,1/2-y,1/2+z
loop_
_atom_site_type_symbol
_atom_site_label
_atom_site_fract_x
_atom_site_fract_y
_atom_site_fract_z
Si Si1 0.101430 0.429987 0.918469
Si Si2 0.761471 0.301642 0.382014
Si Si3 0.459965 0.633932 0.491440
Si Si4 0.000000 0.254749 0.750000
Si Si5 0.962435 0.840123 0.868114
Si Si6 0.237896 0.123884 0.524699
Si Si7 0.683751 0.575576 0.714531
Si Si8 0.868136 0.606807 0.741483
O O1 0.071651 0.333571 0.848570
O O2 0.213710 0.517823 0.980347
O O3 0.977587 0.511700 0.830225
O O4 0.144370 0.366489 0.007168
O O5 0.821171 0.169664 0.414282
O O6 0.618316 0.308101 0.303242
O O7 0.760765 0.366099 0.320367
O O8 0.500000 0.500000 0.500000
O O9 0.482675 0.704194 0.448241
O O10 0.559252 0.654343 0.612947
O O11 0.920281 0.734843 0.797302
O O12 0.093572 0.892146 0.939707
O O13 0.858971 0.943645 0.798340
O O14 0.250000 0.250000 0.500000
O O15 0.320270 0.115792 0.641948
O O16 0.758576 0.576247 0.708279
#
# Coordination Sequence:
#
# PCOD9296933 Si02
#       8
#     8   8   8   4   8   8   8   8
#     4  12  28  46  74 104 150 195 244 306 369 449
#     4  12  28  48  71 111 144 190 249 310 372 441
#     4  10  23  46  73 103 140 188 240 300 367 442
#     4  12  28  48  74 100 144 198 242 294 374 454
#     4  11  25  42  74 104 143 189 246 299 366 444
#     4  12  26  47  75 105 148 194 249 301 371 449
#     4  11  26  43  76 106 142 188 242 305 372 441
#     4  12  25  49  73 110 143 198 244 308 376 436
#
# _framework density 21.591280000000001
#
# number of rings (size 3 to 8) (size 9 to 14) (size 15 to 20)
#    0.000    0.533    5.333    1.200   11.200    1.600 
#    0.000    0.000    0.000    0.000    0.000    0.000 
#    0.000    0.000    0.000    0.000    0.000    0.000 
#
# Total GULP energy -167672.705949 kJ/mol
# GULP energy per Si atom -5589.090198 kJ/mol
# Density = 2.154214 g / cm^3
# Si number density = 21.591280 Si / 1000 Ang^3
#
#
#
# Elastic Constant Matrix: (Units=GPa)
#
#
# Indices 1 2 3 4 5 6 
#
# 1 86.1563 24.6837 37.2859 0.0000 2.6506 0.0000
# 2 24.6837 67.8281 42.1024 0.0000 -15.1083 0.0000
# 3 37.2859 42.1024 94.2727 0.0001 -17.4627 0.0000
# 4 0.0000 0.0000 0.0001 39.4927 0.0000 5.8234
# 5 2.6506 -15.1083 -17.4627 0.0000 49.7184 0.0000
# 6 0.0000 0.0000 0.0000 5.8234 0.0000 35.0874
#
#
#
# Elastic Compliance Matrix: (Units=1/GPa)
#
#
# Indices 1 2 3 4 5 6 
#
# 1 0.014805 -0.002948 -0.005188 0.000000 -0.003508 0.000000
# 2 -0.002948 0.021475 -0.007687 0.000000 0.003983 0.000000
# 3 -0.005188 -0.007687 0.016804 0.000000 0.003843 0.000000
# 4 0.000000 0.000000 0.000000 0.025956 0.000000 -0.004308
# 5 -0.003508 0.003983 0.003843 0.000000 0.022860 0.000000
# 6 0.000000 0.000000 0.000000 -0.004308 0.000000 0.029215
#
#
# Mechanical properties :
#
#
# Convention : Reuss Voigt Hill
#
# Bulk Modulus (GPa) = 46.64887 50.71122 48.68005
# Shear Modulus (GPa) = 29.42761 34.47205 31.94983
#
# Velocity S-wave (km/s) = 3.69581 4.00005 3.85093
# Velocity P-wave (km/s) = 6.31382 6.69864 6.50907
#
# Compressibility (1/GPa) = 0.02143675
#
# Stress axis : x y z
#
# Youngs Moduli (GPa) = 67.54551 46.56664 59.50841
#
# Poissons Ratio (x) = 0.13730 0.30875
# Poissons Ratio (y) = 0.19915 0.45742
# Poissons Ratio (z) = 0.35045 0.35794
#
# Static dielectric constant tensor:
#      x y z
#    x 1.816310 0.000000 0.024220 
#    y 0.000000 1.785550 0.000000 
#    z 0.024220 0.000000 1.831730 
# 
# From -- ./inp_files/280109.got.cif
#   From: 2010.05.17/outbox.cif.g08.bks.cpg/sg15_141_cif.got.tgz:280109.got - 2010.06.03 18:47:42.
