data_PCOD9296660
_publ_section_title
;
Structure prediction by ZEFSAII (Michael W. Deem and Ramdas Pophale) SiO2 
 PCOD9296660
Probable space group: C 2/C
;
_chemical_formula_sum "Si O2"
_cell_formula_units_Z 48
_cell_length_a 17.149889
_cell_length_b 9.714048
_cell_length_c 21.283721
_cell_angle_alpha 90.000000
_cell_angle_beta 145.026902
_cell_angle_gamma 90.000000
_cell_volume 2032.399376
_symmetry_space_group_name_H-M "C 2/C"
_symmetry_group_IT_number 15
_symmetry_cell_setting 'monoclinic'
loop_
_space_group_symop_operation_xyz
x,y,z
-x,y,1/2-z
-x,-y,-z
x,-y,1/2+z
1/2+x,1/2+y,z
1/2-x,1/2+y,1/2-z
1/2-x,1/2-y,-z
1/2+x,1/2-y,1/2+z
loop_
_atom_site_type_symbol
_atom_site_label
_atom_site_fract_x
_atom_site_fract_y
_atom_site_fract_z
Si Si1 0.649195 0.505832 0.923933
Si Si2 0.238572 0.331285 0.323593
Si Si3 0.000000 0.244556 0.750000
Si Si4 0.357757 0.924678 0.966003
Si Si5 0.845031 0.639772 0.863937
Si Si6 0.000000 0.233351 0.250000
Si Si7 0.276986 0.611140 0.392617
O O1 0.575307 0.640598 0.847596
O O2 0.796695 0.476979 0.990607
O O3 0.570916 0.370561 0.846942
O O4 0.831640 0.962552 0.991050
O O5 0.330221 0.230235 0.425606
O O6 0.224237 0.289584 0.241514
O O7 0.100587 0.322313 0.273742
O O8 0.282065 0.488610 0.346542
O O9 0.123261 0.332833 0.801859
O O10 0.279129 0.018453 0.862045
O O11 0.519158 0.933702 0.071564
O O12 0.865446 0.759872 0.928434
#
# Coordination Sequence:
#
# PCOD9296660 Si02
#       7
#     8   8   4   8   8   4   8
#     4  10  23  45  71  98 135 178 237 277 352 404
#     4  11  25  43  66 101 134 180 230 281 352 407
#     4  11  23  42  70 102 136 172 226 296 338 398
#     4  10  24  46  66  94 137 185 217 290 352 409
#     4  11  25  44  67  97 141 179 226 287 349 408
#     4   9  23  44  70  98 138 182 216 304 336 412
#     4  12  26  41  73 106 129 184 236 287 333 423
#
# _framework density 23.617405999999999
#
# number of rings (size 3 to 8) (size 9 to 14) (size 15 to 20)
#    0.000    1.333    1.667    2.000    7.000    4.667 
#    0.000    0.000    0.000    0.000    0.000    0.000 
#    0.000    0.000    0.000    0.000    0.000    0.000 
#
# Total GULP energy -134025.219040 kJ/mol
# GULP energy per Si atom -5584.384127 kJ/mol
# Density = 2.356365 g / cm^3
# Si number density = 23.617406 Si / 1000 Ang^3
#
#
#
# Elastic Constant Matrix: (Units=GPa)
#
#
# Indices 1 2 3 4 5 6 
#
# 1 56.4908 0.7588 11.0122 0.0000 -9.4291 0.0000
# 2 0.7588 103.2195 -3.0074 0.0000 -8.6271 0.0000
# 3 11.0122 -3.0074 27.5872 0.0000 -7.2882 0.0000
# 4 0.0000 0.0000 0.0000 -6.5550 0.0000 -2.8553
# 5 -9.4291 -8.6271 -7.2882 0.0000 19.3808 0.0000
# 6 0.0000 0.0000 0.0000 -2.8553 0.0000 34.6578
#
#
#
# Elastic Compliance Matrix: (Units=1/GPa)
#
#
# Indices 1 2 3 4 5 6 
#
# 1 0.020147 0.000321 -0.005973 0.000000 0.007699 0.000000
# 2 0.000321 0.010229 0.002477 0.000000 0.005641 0.000000
# 3 -0.005973 0.002477 0.042666 0.000000 0.014241 0.000000
# 4 0.000000 0.000000 0.000000 -0.147270 0.000000 -0.012133
# 5 0.007699 0.005641 0.014241 0.000000 0.063210 0.000000
# 6 0.000000 0.000000 0.000000 -0.012133 0.000000 0.027854
#
#
# Mechanical properties :
#
#
# Convention : Reuss Voigt Hill
#
# Bulk Modulus (GPa) = 14.99419 22.75830 18.87625
# Shear Modulus (GPa) = 110.09422 21.39899 65.74660
#
# Velocity S-wave (km/s) = 6.83498 3.01336 5.28192
# Velocity P-wave (km/s) = 8.28564 4.66522 6.72369
#
# Compressibility (1/GPa) = 0.06669252
#
# Stress axis : x y z
#
# Youngs Moduli (GPa) = 49.63486 97.75722 23.43812
#
# Poissons Ratio (x) = -0.03141 0.14001
# Poissons Ratio (y) = -0.01595 -0.05806
# Poissons Ratio (z) = 0.29649 -0.24217
#
# Static dielectric constant tensor:
#      x y z
#    x 1.902560 0.000000 0.010370 
#    y 0.000000 1.863780 0.000000 
#    z 0.010370 0.000000 1.993510 
# 
# From -- ./inp_files/159764.got.cif
#   From: 2010.05.17/outbox.cif.g08.bks.cpg/sg15_80_cif.got.tgz:159764.got - 2010.06.03 18:47:42.
