data_PCOD9296289
_publ_section_title
;
Structure prediction by ZEFSAII (Michael W. Deem and Ramdas Pophale) SiO2 
 PCOD9296289
Probable space group: C 2/C
;
_chemical_formula_sum "Si O2"
_cell_formula_units_Z 48
_cell_length_a 12.714438
_cell_length_b 12.032283
_cell_length_c 15.355111
_cell_angle_alpha 90.000000
_cell_angle_beta 57.490278
_cell_angle_gamma 90.000000
_cell_volume 1980.981424
_symmetry_space_group_name_H-M "C 2/C"
_symmetry_group_IT_number 15
_symmetry_cell_setting 'monoclinic'
loop_
_space_group_symop_operation_xyz
x,y,z
-x,y,1/2-z
-x,-y,-z
x,-y,1/2+z
1/2+x,1/2+y,z
1/2-x,1/2+y,1/2-z
1/2-x,1/2-y,-z
1/2+x,1/2-y,1/2+z
loop_
_atom_site_type_symbol
_atom_site_label
_atom_site_fract_x
_atom_site_fract_y
_atom_site_fract_z
Si Si1 0.779947 0.536707 0.976978
Si Si2 0.542941 0.004246 0.330118
Si Si3 0.630130 0.679488 0.528253
Si Si4 0.250000 0.750000 0.500000
Si Si5 0.454507 0.749761 0.123205
Si Si6 0.500000 0.606030 0.750000
Si Si7 0.207069 0.081726 0.194758
O O1 0.784328 0.640697 0.912275
O O2 0.910220 0.475387 0.937879
O O3 0.676339 0.448474 0.000601
O O4 0.753198 0.613662 0.076026
O O5 0.500000 0.023750 0.250000
O O6 0.569393 0.876288 0.340114
O O7 0.666888 0.066600 0.305746
O O8 0.750000 0.750000 0.500000
O O9 0.587419 0.723744 0.455627
O O10 0.532544 0.678578 0.650972
O O11 0.400108 0.726875 0.442464
O O12 0.381734 0.669193 0.220721
O O13 0.379049 0.528029 0.782744
#
# Coordination Sequence:
#
# PCOD9296289 Si02
#       7
#     8   8   8   4   8   4   8
#     4  10  23  44  71 100 146 183 236 296 350 427
#     4  11  25  44  68 105 145 186 240 293 352 422
#     4  11  24  48  67 102 140 186 237 285 360 424
#     4  10  24  42  68 106 134 184 230 300 346 420
#     4  11  24  42  72 102 139 185 235 293 358 421
#     4  10  24  42  72  92 140 182 234 294 340 424
#     4  11  23  44  70 104 137 187 234 290 357 421
#
# _framework density 24.230415000000001
#
# number of rings (size 3 to 8) (size 9 to 14) (size 15 to 20)
#    0.000    1.333    0.000    5.500    5.833    6.667 
#   16.500    0.000    0.000    0.000    0.000    0.000 
#    0.000    0.000    0.000    0.000    0.000    0.000 
#
# Total GULP energy -133977.656638 kJ/mol
# GULP energy per Si atom -5582.402360 kJ/mol
# Density = 2.417527 g / cm^3
# Si number density = 24.230415 Si / 1000 Ang^3
#
#
#
# Elastic Constant Matrix: (Units=GPa)
#
#
# Indices 1 2 3 4 5 6 
#
# 1 180.3460 31.0830 62.3459 0.0000 -4.1694 0.0000
# 2 31.0830 60.6860 15.9891 0.0000 5.1523 0.0000
# 3 62.3459 15.9891 141.4222 0.0000 1.2866 0.0000
# 4 0.0000 0.0000 0.0000 34.5180 0.0000 -13.9478
# 5 -4.1694 5.1523 1.2866 0.0000 47.0085 0.0000
# 6 0.0000 0.0000 0.0000 -13.9478 0.0000 43.3793
#
#
#
# Elastic Compliance Matrix: (Units=1/GPa)
#
#
# Indices 1 2 3 4 5 6 
#
# 1 0.007039 -0.002961 -0.002778 0.000000 0.001025 0.000000
# 2 -0.002961 0.018385 -0.000753 0.000000 -0.002257 0.000000
# 3 -0.002778 -0.000753 0.008384 0.000000 -0.000393 0.000000
# 4 0.000000 0.000000 0.000000 0.033296 0.000000 0.010706
# 5 0.001025 -0.002257 -0.000393 0.000000 0.021622 0.000000
# 6 0.000000 0.000000 0.000000 0.010706 0.000000 0.026495
#
#
# Mechanical properties :
#
#
# Convention : Reuss Voigt Hill
#
# Bulk Modulus (GPa) = 48.01774 66.81003 57.41389
# Shear Modulus (GPa) = 36.99726 43.18359 40.09042
#
# Velocity S-wave (km/s) = 3.91179 4.22620 4.07203
# Velocity P-wave (km/s) = 6.34531 7.17266 6.77163
#
# Compressibility (1/GPa) = 0.02082564
#
# Stress axis : x y z
#
# Youngs Moduli (GPa) = 142.06290 54.39329 119.27032
#
# Poissons Ratio (x) = 0.16103 0.33131
# Poissons Ratio (y) = 0.42058 0.08980
# Poissons Ratio (z) = 0.39462 0.04095
#
# Static dielectric constant tensor:
#      x y z
#    x 1.077330 0.000000 -0.638970 
#    y 0.000000 3.525730 0.000000 
#    z -0.638970 0.000000 1.656770 
# 
# From -- ./inp_files/144116.got.cif
#   From: 2010.05.17/outbox.cif.g08.bks.cpg/sg15_73_cif.got.tgz:144116.got - 2010.06.03 18:47:42.
