data_PCOD9296941
_publ_section_title
;
Structure prediction by ZEFSAII (Michael W. Deem and Ramdas Pophale) SiO2 
 PCOD9296941
Probable space group: C 2/C
;
_chemical_formula_sum "Si O2"
_cell_formula_units_Z 40
_cell_length_a 18.590563
_cell_length_b 16.432737
_cell_length_c 10.561577
_cell_angle_alpha 90.000000
_cell_angle_beta 28.371875
_cell_angle_gamma 90.000000
_cell_volume 1533.206535
_symmetry_space_group_name_H-M "C 2/C"
_symmetry_group_IT_number 15
_symmetry_cell_setting 'monoclinic'
loop_
_space_group_symop_operation_xyz
x,y,z
-x,y,1/2-z
-x,-y,-z
x,-y,1/2+z
1/2+x,1/2+y,z
1/2-x,1/2+y,1/2-z
1/2-x,1/2-y,-z
1/2+x,1/2-y,1/2+z
loop_
_atom_site_type_symbol
_atom_site_label
_atom_site_fract_x
_atom_site_fract_y
_atom_site_fract_z
Si Si1 0.356673 0.819478 0.392321
Si Si2 0.721099 0.913511 0.430856
Si Si3 0.000000 0.024272 0.250000
Si Si4 0.182038 0.544378 0.712513
Si Si5 0.558996 0.621255 0.470737
Si Si6 0.000000 0.266852 0.750000
O O1 0.250000 0.750000 0.500000
O O2 0.416200 0.883498 0.195132
O O3 0.233795 0.870878 0.661150
O O4 0.500000 0.789544 0.250000
O O5 0.657391 0.957270 0.401719
O O6 0.638603 0.826890 0.563311
O O7 0.687497 0.965986 0.610874
O O8 0.901374 0.894127 0.138704
O O9 0.943377 0.959204 0.440184
O O10 0.856534 0.074611 0.430554
O O11 0.529917 0.705520 0.588775
#
# Coordination Sequence:
#
# PCOD9296941 Si02
#       6
#     8   8   4   8   8   4
#     4  12  29  47  72 108 150 207 255 328 385 464
#     4  11  25  46  77 115 151 209 251 327 379 468
#     4   9  20  44  78 105 140 200 244 319 370 464
#     4  11  24  47  74 109 153 194 262 310 396 456
#     4  10  23  46  73 108 150 196 266 302 391 453
#     4  11  24  44  74 113 152 206 252 329 378 462
#
# _framework density 26.089113000000001
#
# number of rings (size 3 to 8) (size 9 to 14) (size 15 to 20)
#    0.000    1.200    0.000    4.200    8.400    4.000 
#   14.400    0.000    0.000    0.000    0.000    0.000 
#    0.000    0.000    0.000    0.000    0.000    0.000 
#
# Total GULP energy -111763.989091 kJ/mol
# GULP energy per Si atom -5588.199455 kJ/mol
# Density = 2.602973 g / cm^3
# Si number density = 26.089113 Si / 1000 Ang^3
#
#
#
# Elastic Constant Matrix: (Units=GPa)
#
#
# Indices 1 2 3 4 5 6 
#
# 1 157.8447 74.9326 55.8340 -0.0002 -14.6636 0.0000
# 2 74.9326 137.8710 10.9941 -0.0005 0.2993 0.0002
# 3 55.8340 10.9941 93.3666 -0.0008 -22.1145 0.0003
# 4 -0.0002 -0.0005 -0.0008 50.5700 0.0005 -6.6277
# 5 -14.6636 0.2993 -22.1145 0.0005 48.4143 -0.0002
# 6 0.0000 0.0002 0.0003 -6.6277 -0.0002 66.5216
#
#
#
# Elastic Compliance Matrix: (Units=1/GPa)
#
#
# Indices 1 2 3 4 5 6 
#
# 1 0.011105 -0.005574 -0.005808 0.000000 0.000745 0.000000
# 2 -0.005574 0.010130 0.001935 0.000000 -0.000867 0.000000
# 3 -0.005808 0.001935 0.015179 0.000000 0.005162 0.000000
# 4 0.000000 0.000000 0.000000 0.020036 0.000000 0.001996
# 5 0.000745 -0.000867 0.005162 0.000000 0.023244 0.000000
# 6 0.000000 0.000000 0.000000 0.001996 0.000000 0.015232
#
#
# Mechanical properties :
#
#
# Convention : Reuss Voigt Hill
#
# Bulk Modulus (GPa) = 57.07832 74.73374 65.90603
# Shear Modulus (GPa) = 41.78499 49.58929 45.68714
#
# Velocity S-wave (km/s) = 4.00637 4.36451 4.18927
# Velocity P-wave (km/s) = 6.58233 7.35570 6.97973
#
# Compressibility (1/GPa) = 0.01751979
#
# Stress axis : x y z
#
# Youngs Moduli (GPa) = 90.04753 98.71420 65.88198
#
# Poissons Ratio (x) = 0.55025 0.38266
# Poissons Ratio (y) = 0.50194 -0.12749
# Poissons Ratio (z) = 0.52302 -0.19103
#
# Static dielectric constant tensor:
#      x y z
#    x 2.240910 0.000000 0.086880 
#    y 0.000000 1.949530 0.000000 
#    z 0.086880 0.000000 2.165930 
# 
# From -- ./inp_files/106846.got.cif
#   From: 2010.05.17/outbox.cif.g08.bks.cpg/sg15_54_cif.got.tgz:106846.got - 2010.06.03 18:47:42.
