data_PCOD9296123
_publ_section_title
;
Structure prediction by ZEFSAII (Michael W. Deem and Ramdas Pophale) SiO2 
 PCOD9296123
Probable space group: C 2/C
;
_chemical_formula_sum "Si O2"
_cell_formula_units_Z 32
_cell_length_a 8.534633
_cell_length_b 12.615852
_cell_length_c 13.346390
_cell_angle_alpha 90.000000
_cell_angle_beta 94.657328
_cell_angle_gamma 90.000000
_cell_volume 1432.283185
_symmetry_space_group_name_H-M "C 2/C"
_symmetry_group_IT_number 15
_symmetry_cell_setting 'monoclinic'
loop_
_space_group_symop_operation_xyz
x,y,z
-x,y,1/2-z
-x,-y,-z
x,-y,1/2+z
1/2+x,1/2+y,z
1/2-x,1/2+y,1/2-z
1/2-x,1/2-y,-z
1/2+x,1/2-y,1/2+z
loop_
_atom_site_type_symbol
_atom_site_label
_atom_site_fract_x
_atom_site_fract_y
_atom_site_fract_z
Si Si1 0.118319 0.738862 0.407017
Si Si2 0.333407 0.361945 0.752385
Si Si3 0.405712 0.551197 0.903259
Si Si4 0.820469 0.362123 0.967266
O O1 0.250000 0.750000 0.500000
O O2 0.206427 0.702747 0.310690
O O3 0.007835 0.843087 0.384185
O O4 0.999400 0.651997 0.446235
O O5 0.500000 0.300832 0.750000
O O6 0.378610 0.467645 0.814891
O O7 0.268256 0.389803 0.640081
O O8 0.500000 0.500000 0.000000
O O9 0.232792 0.568884 0.941968
O O10 0.750000 0.250000 0.000000
#
# Coordination Sequence:
#
# PCOD9296123 Si02
#       4
#     8   8   8   8
#     4  11  23  44  71 101 141 192 239 301 372 437
#     4  12  23  42  71 101 142 187 242 294 368 442
#     4  11  22  44  71 101 141 185 238 306 361 436
#     4  10  23  44  68 101 139 187 238 297 373 441
#
# _framework density 22.341950000000001
#
# number of rings (size 3 to 8) (size 9 to 14) (size 15 to 20)
#    0.000    1.000    5.000    2.250    0.000    5.000 
#    0.000    0.000    0.000    0.000    0.000    0.000 
#    0.000    0.000    0.000    0.000    0.000    0.000 
#
# Total GULP energy -89379.973583 kJ/mol
# GULP energy per Si atom -5586.248349 kJ/mol
# Density = 2.229110 g / cm^3
# Si number density = 22.341950 Si / 1000 Ang^3
#
#
#
# Elastic Constant Matrix: (Units=GPa)
#
#
# Indices 1 2 3 4 5 6 
#
# 1 170.6823 41.5372 52.9876 0.0000 -34.0464 0.0000
# 2 41.5372 83.8969 51.0976 0.0000 -16.2432 0.0000
# 3 52.9876 51.0976 145.3791 0.0000 -15.8307 0.0000
# 4 0.0000 0.0000 0.0000 40.8758 0.0000 0.6252
# 5 -34.0464 -16.2432 -15.8307 0.0000 61.6569 0.0000
# 6 0.0000 0.0000 0.0000 0.6252 0.0000 38.7862
#
#
#
# Elastic Compliance Matrix: (Units=1/GPa)
#
#
# Indices 1 2 3 4 5 6 
#
# 1 0.007517 -0.002098 -0.001657 0.000000 0.003172 0.000000
# 2 -0.002098 0.016202 -0.004723 0.000000 0.001897 0.000000
# 3 -0.001657 -0.004723 0.009164 0.000000 0.000194 0.000000
# 4 0.000000 0.000000 0.000000 0.024470 0.000000 -0.000394
# 5 0.003172 0.001897 0.000194 0.000000 0.018520 0.000000
# 6 0.000000 0.000000 0.000000 -0.000394 0.000000 0.025789
#
#
# Mechanical properties :
#
#
# Convention : Reuss Voigt Hill
#
# Bulk Modulus (GPa) = 62.79085 76.80034 69.79559
# Shear Modulus (GPa) = 40.34628 45.21949 42.78289
#
# Velocity S-wave (km/s) = 4.25414 4.50374 4.38072
# Velocity P-wave (km/s) = 7.23158 7.84184 7.54289
#
# Compressibility (1/GPa) = 0.01592589
#
# Stress axis : x y z
#
# Youngs Moduli (GPa) = 133.03899 61.71955 109.12652
#
# Poissons Ratio (x) = 0.12950 0.18079
# Poissons Ratio (y) = 0.27914 0.51545
# Poissons Ratio (z) = 0.22041 0.29153
#
# Static dielectric constant tensor:
#      x y z
#    x 1.912820 0.000000 -0.063810 
#    y 0.000000 1.886240 0.000000 
#    z -0.063810 0.000000 1.809150 
# 
# From -- ./inp_files/75315.got.cif
#   From: 2010.05.17/outbox.cif.g08.bks.cpg/sg15_38_cif.got.tgz:75315.got - 2010.06.03 18:47:42.
