data_PCOD9296304
_publ_section_title
;
Structure prediction by ZEFSAII (Michael W. Deem and Ramdas Pophale) SiO2 
 PCOD9296304
Probable space group: C 2/C
;
_chemical_formula_sum "Si O2"
_cell_formula_units_Z 48
_cell_length_a 20.328403
_cell_length_b 13.433746
_cell_length_c 11.123140
_cell_angle_alpha 90.000000
_cell_angle_beta 144.929847
_cell_angle_gamma 90.000000
_cell_volume 1745.329902
_symmetry_space_group_name_H-M "C 2/C"
_symmetry_group_IT_number 15
_symmetry_cell_setting 'monoclinic'
loop_
_space_group_symop_operation_xyz
x,y,z
-x,y,1/2-z
-x,-y,-z
x,-y,1/2+z
1/2+x,1/2+y,z
1/2-x,1/2+y,1/2-z
1/2-x,1/2-y,-z
1/2+x,1/2-y,1/2+z
loop_
_atom_site_type_symbol
_atom_site_label
_atom_site_fract_x
_atom_site_fract_y
_atom_site_fract_z
Si Si1 0.626643 0.613908 0.456570
Si Si2 0.250549 0.090858 0.099637
Si Si3 0.915268 0.710494 0.737812
Si Si4 0.327908 0.044246 0.447806
Si Si5 0.003772 0.366415 0.886642
Si Si6 0.105971 0.076631 0.680323
O O1 0.500000 0.567521 0.250000
O O2 0.658905 0.690952 0.400133
O O3 0.717375 0.491048 0.333396
O O4 0.618992 0.647897 0.584544
O O5 0.282202 0.125438 0.282263
O O6 0.372343 0.105903 0.218024
O O7 0.212648 0.978052 0.075560
O O8 0.141702 0.129442 0.858929
O O9 0.881173 0.603730 0.637429
O O10 0.000000 0.737710 0.750000
O O11 0.949739 0.695028 0.928214
O O12 0.416291 0.965013 0.518729
O O13 0.000000 0.315612 0.750000
O O14 0.000000 0.000000 0.500000
#
# Coordination Sequence:
#
# PCOD9296304 Si02
#       6
#     8   8   8   8   8   8
#     4  10  23  44  71 103 150 205 244 310 377 458
#     4  11  22  40  70 106 142 196 259 303 369 453
#     4  11  24  45  72 114 155 196 249 316 399 448
#     4  11  23  39  71 105 143 196 254 315 367 469
#     4  12  24  40  75 114 150 191 260 320 376 457
#     4  11  22  41  69 101 144 201 260 303 365 460
#
# _framework density 27.501964000000001
#
# number of rings (size 3 to 8) (size 9 to 14) (size 15 to 20)
#    0.000    1.000    5.000    2.000    0.000    0.000 
#    0.000   10.000    0.000    5.000    0.000    2.333 
#    0.000    0.000    0.000    0.000    0.000    0.000 
#
# Total GULP energy -133839.311576 kJ/mol
# GULP energy per Si atom -5576.637982 kJ/mol
# Density = 2.743937 g / cm^3
# Si number density = 27.501964 Si / 1000 Ang^3
#
#
#
# Elastic Constant Matrix: (Units=GPa)
#
#
# Indices 1 2 3 4 5 6 
#
# 1 90.4626 32.5578 38.3991 0.0000 -12.2912 0.0000
# 2 32.5578 90.1925 42.0383 0.0000 -11.0513 0.0000
# 3 38.3991 42.0383 194.6371 0.0000 -57.2902 0.0000
# 4 0.0000 0.0000 0.0000 29.4518 0.0000 -15.7142
# 5 -12.2912 -11.0513 -57.2902 0.0000 78.4833 0.0000
# 6 0.0000 0.0000 0.0000 -15.7142 0.0000 43.5083
#
#
#
# Elastic Compliance Matrix: (Units=1/GPa)
#
#
# Indices 1 2 3 4 5 6 
#
# 1 0.013228 -0.003962 -0.001666 0.000000 0.000297 0.000000
# 2 -0.003962 0.013519 -0.002242 0.000000 -0.000354 0.000000
# 3 -0.001666 -0.002242 0.007363 0.000000 0.004798 0.000000
# 4 0.000000 0.000000 0.000000 0.042059 0.000000 0.015191
# 5 0.000297 -0.000354 0.004798 0.000000 0.016241 0.000000
# 6 0.000000 0.000000 0.000000 0.015191 0.000000 0.028471
#
#
# Mechanical properties :
#
#
# Convention : Reuss Voigt Hill
#
# Bulk Modulus (GPa) = 54.43982 66.80917 60.62450
# Shear Modulus (GPa) = 35.02739 47.77517 41.40128
#
# Velocity S-wave (km/s) = 3.57267 4.17244 3.88415
# Velocity P-wave (km/s) = 6.07095 6.89620 6.49669
#
# Compressibility (1/GPa) = 0.01836891
#
# Stress axis : x y z
#
# Youngs Moduli (GPa) = 75.59748 73.96771 135.81106
#
# Poissons Ratio (x) = 0.29305 0.22633
# Poissons Ratio (y) = 0.29951 0.30455
# Poissons Ratio (z) = 0.12598 0.16587
#
# Static dielectric constant tensor:
#      x y z
#    x 2.301630 0.000000 -0.068010 
#    y 0.000000 2.311440 0.000000 
#    z -0.068010 0.000000 2.593200 
# 
# From -- ./inp_files/50398.got.cif
#   From: 2010.05.17/outbox.cif.g08.bks.cpg/sg15_26_cif.got.tgz:50398.got - 2010.06.03 18:47:42.
