data_PCOD9296387
_publ_section_title
;
Structure prediction by ZEFSAII (Michael W. Deem and Ramdas Pophale) SiO2 
 PCOD9296387
Probable space group: C 2/C
;
_chemical_formula_sum "Si O2"
_cell_formula_units_Z 40
_cell_length_a 15.671575
_cell_length_b 13.750726
_cell_length_c 10.999730
_cell_angle_alpha 90.000000
_cell_angle_beta 40.500136
_cell_angle_gamma 90.000000
_cell_volume 1539.451184
_symmetry_space_group_name_H-M "C 2/C"
_symmetry_group_IT_number 15
_symmetry_cell_setting 'monoclinic'
loop_
_space_group_symop_operation_xyz
x,y,z
-x,y,1/2-z
-x,-y,-z
x,-y,1/2+z
1/2+x,1/2+y,z
1/2-x,1/2+y,1/2-z
1/2-x,1/2-y,-z
1/2+x,1/2-y,1/2+z
loop_
_atom_site_type_symbol
_atom_site_label
_atom_site_fract_x
_atom_site_fract_y
_atom_site_fract_z
Si Si1 0.500000 0.405928 0.750000
Si Si2 0.988125 0.642652 0.954304
Si Si3 0.436724 0.364845 0.066413
Si Si4 0.000000 0.206416 0.750000
Si Si5 0.793180 0.583310 0.977130
Si Si6 0.662321 0.122802 0.982989
O O1 0.518800 0.437847 0.587313
O O2 0.652115 0.370830 0.601707
O O3 0.099313 0.615997 0.736344
O O4 0.035142 0.602745 0.034324
O O5 0.849397 0.608346 0.050140
O O6 0.978697 0.758715 0.971524
O O7 0.494820 0.360277 0.138382
O O8 0.281684 0.364079 0.260460
O O9 0.120899 0.280963 0.600666
O O10 0.793579 0.465782 0.979595
#
# Coordination Sequence:
#
# PCOD9296387 Si02
#       6
#     4   8   8   4   8   8
#     4  12  26  45  73 108 152 190 244 302 376 437
#     4  10  23  44  73 102 142 197 247 302 355 444
#     4  11  25  45  72 107 148 188 255 294 374 428
#     4  10  24  45  73 104 146 196 244 306 362 445
#     4  11  24  43  71 105 150 191 243 301 371 436
#     4  11  23  46  71 107 146 195 251 300 372 439
#
# _framework density 25.983286
#
# number of rings (size 3 to 8) (size 9 to 14) (size 15 to 20)
#    0.000    1.200    2.000    3.600    5.600    4.800 
#    3.600    0.000    0.000    0.000    0.000    0.000 
#    0.000    0.000    0.000    0.000    0.000    0.000 
#
# Total GULP energy -111660.278340 kJ/mol
# GULP energy per Si atom -5583.013917 kJ/mol
# Density = 2.592415 g / cm^3
# Si number density = 25.983286 Si / 1000 Ang^3
#
#
#
# Elastic Constant Matrix: (Units=GPa)
#
#
# Indices 1 2 3 4 5 6 
#
# 1 125.2735 17.0158 34.8321 0.0000 6.4455 0.0000
# 2 17.0158 121.8648 38.4992 0.0000 16.9670 0.0000
# 3 34.8321 38.4992 170.1275 0.0000 17.8751 0.0000
# 4 0.0000 0.0000 0.0000 -3.5777 0.0000 15.7545
# 5 6.4455 16.9670 17.8751 0.0000 55.0803 0.0000
# 6 0.0000 0.0000 0.0000 15.7545 0.0000 -20.2222
#
#
#
# Elastic Compliance Matrix: (Units=1/GPa)
#
#
# Indices 1 2 3 4 5 6 
#
# 1 0.008522 -0.000655 -0.001566 0.000000 -0.000287 0.000000
# 2 -0.000655 0.009140 -0.001705 0.000000 -0.002186 0.000000
# 3 -0.001566 -0.001705 0.006740 0.000000 -0.001479 0.000000
# 4 0.000000 0.000000 0.000000 0.114993 0.000000 0.089587
# 5 -0.000287 -0.002186 -0.001479 0.000000 0.019342 0.000000
# 6 0.000000 0.000000 0.000000 0.089587 0.000000 0.020344
#
#
# Mechanical properties :
#
#
# Convention : Reuss Voigt Hill
#
# Bulk Modulus (GPa) = 60.42439 66.44000 63.43220
# Shear Modulus (GPa) = 25.98087 28.05068 27.01577
#
# Velocity S-wave (km/s) = 3.16556 3.28924 3.22799
# Velocity P-wave (km/s) = 6.05530 6.32861 6.19346
#
# Compressibility (1/GPa) = 0.01654961
#
# Stress axis : x y z
#
# Youngs Moduli (GPa) = 117.34601 109.40798 148.37303
#
# Poissons Ratio (x) = 0.07167 0.23241
# Poissons Ratio (y) = 0.07687 0.25292
# Poissons Ratio (z) = 0.18381 0.18650
#
# Static dielectric constant tensor:
#      x y z
#    x 2.113610 0.000000 0.008920 
#    y 0.000000 2.092470 0.000000 
#    z 0.008920 0.000000 1.986870 
# 
# From -- ./inp_files/98109.got.cif
#   From: 2010.05.17/outbox.cif.g08.bks.cpg/sg15_50_cif.got.tgz:98109.got - 2010.06.03 18:47:42.
