data_PCOD9296505
_publ_section_title
;
Structure prediction by ZEFSAII (Michael W. Deem and Ramdas Pophale) SiO2 
 PCOD9296505
Probable space group: C 2/C
;
_chemical_formula_sum "Si O2"
_cell_formula_units_Z 64
_cell_length_a 17.116045
_cell_length_b 9.839156
_cell_length_c 28.571113
_cell_angle_alpha 90.000000
_cell_angle_beta 140.203668
_cell_angle_gamma 90.000000
_cell_volume 3079.707428
_symmetry_space_group_name_H-M "C 2/C"
_symmetry_group_IT_number 15
_symmetry_cell_setting 'monoclinic'
loop_
_space_group_symop_operation_xyz
x,y,z
-x,y,1/2-z
-x,-y,-z
x,-y,1/2+z
1/2+x,1/2+y,z
1/2-x,1/2+y,1/2-z
1/2-x,1/2-y,-z
1/2+x,1/2-y,1/2+z
loop_
_atom_site_type_symbol
_atom_site_label
_atom_site_fract_x
_atom_site_fract_y
_atom_site_fract_z
Si Si1 0.731555 0.139759 0.197949
Si Si2 0.958803 0.653111 0.475484
Si Si3 0.147176 0.152073 0.739027
Si Si4 0.822643 0.809167 0.969128
Si Si5 0.632385 0.579531 0.911455
Si Si6 0.854534 0.372207 0.689311
Si Si7 0.249988 0.793735 0.946030
Si Si8 0.360079 0.839949 0.195933
O O1 0.631850 0.147624 0.110711
O O2 0.680620 0.233101 0.216163
O O3 0.841973 0.221551 0.224896
O O4 0.776805 0.987781 0.230308
O O5 0.887069 0.686717 0.490000
O O6 0.000000 0.500000 0.500000
O O7 0.066841 0.756231 0.512113
O O8 0.179379 0.230936 0.801773
O O9 0.001341 0.121809 0.669142
O O10 0.746151 0.677853 0.951188
O O11 0.719029 0.885229 0.892400
O O12 0.872559 0.900625 0.034540
O O13 0.671908 0.433090 0.910551
O O14 0.818947 0.514087 0.697836
O O15 0.000000 0.365980 0.750000
O O16 0.197905 0.697534 0.880999
O O17 0.250000 0.750000 0.000000
O O18 0.500000 0.855225 0.250000
#
# Coordination Sequence:
#
# PCOD9296505 Si02
#       8
#     8   8   8   8   8   8   8   8
#     4  11  25  44  67  98 138 180 236 286 348 419
#     4  11  22  44  68  98 139 180 228 289 353 407
#     4  12  24  44  68 102 138 182 238 289 347 417
#     4  11  22  43  66 103 135 181 228 291 341 419
#     4  11  23  41  72  98 140 181 238 283 347 421
#     4  11  23  41  69  98 134 178 229 282 345 414
#     4  11  24  44  67 104 135 181 234 283 351 419
#     4  10  23  45  66  93 138 177 224 287 349 411
#
# _framework density 20.781196000000001
#
# number of rings (size 3 to 8) (size 9 to 14) (size 15 to 20)
#    0.000    1.000    3.750    3.000    1.750    0.500 
#   15.750    1.875    0.000    0.000    0.000    0.000 
#    0.000    0.000    0.000    0.000    0.000    0.000 
#
# Total GULP energy -178476.639619 kJ/mol
# GULP energy per Si atom -5577.394988 kJ/mol
# Density = 2.073390 g / cm^3
# Si number density = 20.781196 Si / 1000 Ang^3
#
#
#
# Elastic Constant Matrix: (Units=GPa)
#
#
# Indices 1 2 3 4 5 6 
#
# 1 108.1790 38.1837 14.9361 0.0000 2.0475 0.0000
# 2 38.1837 131.1749 13.5459 0.0000 1.6760 0.0000
# 3 14.9361 13.5459 53.8032 0.0000 2.8223 0.0000
# 4 0.0000 0.0000 0.0000 -67.8007 0.0000 -62.0106
# 5 2.0475 1.6760 2.8223 0.0000 25.7619 0.0000
# 6 0.0000 0.0000 0.0000 -62.0106 0.0000 -10.1079
#
#
#
# Elastic Compliance Matrix: (Units=1/GPa)
#
#
# Indices 1 2 3 4 5 6 
#
# 1 0.010558 -0.002841 -0.002194 0.000000 -0.000414 0.000000
# 2 -0.002841 0.008594 -0.001365 0.000000 -0.000184 0.000000
# 3 -0.002194 -0.001365 0.019638 0.000000 -0.001888 0.000000
# 4 0.000000 0.000000 0.000000 0.003199 0.000000 -0.019624
# 5 -0.000414 -0.000184 -0.001888 0.000000 0.039069 0.000000
# 6 0.000000 0.000000 0.000000 -0.019624 0.000000 0.021456
#
#
# Mechanical properties :
#
#
# Convention : Reuss Voigt Hill
#
# Bulk Modulus (GPa) = 38.47825 47.38760 42.93292
# Shear Modulus (GPa) = 40.33020 4.67009 22.50014
#
# Velocity S-wave (km/s) = 4.41012 1.50071 3.29404
# Velocity P-wave (km/s) = 6.66996 5.08483 5.93059
#
# Compressibility (1/GPa) = 0.02598871
#
# Stress axis : x y z
#
# Youngs Moduli (GPa) = 94.71868 116.36242 50.92156
#
# Poissons Ratio (x) = 0.33063 0.11171
# Poissons Ratio (y) = 0.26913 0.06952
# Poissons Ratio (z) = 0.20779 0.15886
#
# Static dielectric constant tensor:
#      x y z
#    x 1.790580 0.000000 0.097000 
#    y 0.000000 1.691510 0.000000 
#    z 0.097000 0.000000 2.413240 
# 
# From -- ./inp_files/315731.got.cif
#   From: 2010.05.17/outbox.cif.g08.bks.cpg/sg15_158_cif.got.tgz:315731.got - 2010.06.03 18:47:42.
