data_PCOD9296055
_publ_section_title
;
Structure prediction by ZEFSAII (Michael W. Deem and Ramdas Pophale) SiO2 
 PCOD9296055
Probable space group: C 2/C
;
_chemical_formula_sum "Si O2"
_cell_formula_units_Z 52
_cell_length_a 6.376584
_cell_length_b 21.389901
_cell_length_c 24.860331
_cell_angle_alpha 90.000000
_cell_angle_beta 47.366683
_cell_angle_gamma 90.000000
_cell_volume 2494.632114
_symmetry_space_group_name_H-M "C 2/C"
_symmetry_group_IT_number 15
_symmetry_cell_setting 'monoclinic'
loop_
_space_group_symop_operation_xyz
x,y,z
-x,y,1/2-z
-x,-y,-z
x,-y,1/2+z
1/2+x,1/2+y,z
1/2-x,1/2+y,1/2-z
1/2-x,1/2-y,-z
1/2+x,1/2-y,1/2+z
loop_
_atom_site_type_symbol
_atom_site_label
_atom_site_fract_x
_atom_site_fract_y
_atom_site_fract_z
Si Si1 0.225427 0.157009 0.470385
Si Si2 0.000000 0.317801 0.250000
Si Si3 0.441943 0.576197 0.699056
Si Si4 0.031922 0.860282 0.587591
Si Si5 0.081144 0.430145 0.470596
Si Si6 0.684713 0.431943 0.775827
Si Si7 0.760238 0.246033 0.600430
O O1 0.261045 0.102099 0.506845
O O2 0.488043 0.205352 0.427315
O O3 0.218317 0.130842 0.411376
O O4 0.936161 0.193156 0.537935
O O5 0.260894 0.366050 0.209124
O O6 0.079974 0.277510 0.183123
O O7 0.500000 0.591887 0.750000
O O8 0.724653 0.570443 0.615128
O O9 0.305113 0.507094 0.722595
O O10 0.307287 0.887111 0.509833
O O11 0.060404 0.787344 0.596583
O O12 0.013577 0.899221 0.645383
O O13 0.000000 0.500000 0.500000
O O14 0.500000 0.419711 0.750000
O O15 0.000000 0.412718 0.750000
#
# Coordination Sequence:
#
# PCOD9296055 Si02
#       7
#     8   4   8   8   8   8   8
#     4  10  23  44  66  95 139 180 234 302 365 440
#     4  12  24  44  68  98 134 188 238 300 368 446
#     4  11  25  43  67 101 143 188 236 299 370 440
#     4  11  25  41  73  99 135 190 239 301 368 444
#     4  11  23  43  67 105 137 180 240 296 368 445
#     4  11  26  46  72 104 151 190 243 307 375 442
#     4  10  24  42  65  96 139 176 243 297 367 437
#
# _framework density 20.844757000000001
#
# number of rings (size 3 to 8) (size 9 to 14) (size 15 to 20)
#    0.000    1.231    3.846    0.462    7.538    1.846 
#    0.000    0.000    0.000    0.000    0.000    0.000 
#    0.000    0.000    0.000    0.000    0.000    0.000 
#
# Total GULP energy -144818.495612 kJ/mol
# GULP energy per Si atom -5569.942139 kJ/mol
# Density = 2.079731 g / cm^3
# Si number density = 20.844757 Si / 1000 Ang^3
#
#
#
# Elastic Constant Matrix: (Units=GPa)
#
#
# Indices 1 2 3 4 5 6 
#
# 1 87.5800 16.1308 30.0853 0.0000 24.0297 0.0000
# 2 16.1308 57.4662 9.8969 0.0000 22.9375 0.0000
# 3 30.0853 9.8969 109.0291 0.0000 14.7914 0.0000
# 4 0.0000 0.0000 0.0000 28.5944 0.0000 9.2204
# 5 24.0297 22.9375 14.7914 0.0000 29.9946 0.0000
# 6 0.0000 0.0000 0.0000 9.2204 0.0000 13.0400
#
#
#
# Elastic Compliance Matrix: (Units=1/GPa)
#
#
# Indices 1 2 3 4 5 6 
#
# 1 0.015394 0.000768 -0.002749 0.000000 -0.011565 0.000000
# 2 0.000768 0.025097 0.000211 0.000000 -0.019912 0.000000
# 3 -0.002749 0.000211 0.010325 0.000000 -0.003051 0.000000
# 4 0.000000 0.000000 0.000000 0.045301 0.000000 -0.032031
# 5 -0.011565 -0.019912 -0.003051 0.000000 0.059336 0.000000
# 6 0.000000 0.000000 0.000000 -0.032031 0.000000 0.099336
#
#
# Mechanical properties :
#
#
# Convention : Reuss Voigt Hill
#
# Bulk Modulus (GPa) = 21.15135 40.70013 30.92574
# Shear Modulus (GPa) = 18.24243 27.52329 22.88286
#
# Velocity S-wave (km/s) = 2.96151 3.63766 3.31686
# Velocity P-wave (km/s) = 4.67581 6.10010 5.43481
#
# Compressibility (1/GPa) = 0.04727831
#
# Stress axis : x y z
#
# Youngs Moduli (GPa) = 64.96100 39.84473 96.85165
#
# Poissons Ratio (x) = -0.03061 0.26620
# Poissons Ratio (y) = -0.04991 -0.02046
# Poissons Ratio (z) = 0.17855 -0.00842
#
# Static dielectric constant tensor:
#      x y z
#    x 1.847820 0.000000 -0.043960 
#    y 0.000000 1.729640 0.000000 
#    z -0.043960 0.000000 1.747140 
# 
# From -- ./inp_files/228203.got.cif
#   From: 2010.05.17/outbox.cif.g08.bks.cpg/sg15_115_cif.got.tgz:228203.got - 2010.06.03 18:47:42.
