data_PCOD9296093
_publ_section_title
;
Structure prediction by ZEFSAII (Michael W. Deem and Ramdas Pophale) SiO2 
 PCOD9296093
Probable space group: C 2/C
;
_chemical_formula_sum "Si O2"
_cell_formula_units_Z 60
_cell_length_a 25.580342
_cell_length_b 14.502625
_cell_length_c 8.534347
_cell_angle_alpha 90.000000
_cell_angle_beta 113.890389
_cell_angle_gamma 90.000000
_cell_volume 2894.825464
_symmetry_space_group_name_H-M "C 2/C"
_symmetry_group_IT_number 15
_symmetry_cell_setting 'monoclinic'
loop_
_space_group_symop_operation_xyz
x,y,z
-x,y,1/2-z
-x,-y,-z
x,-y,1/2+z
1/2+x,1/2+y,z
1/2-x,1/2+y,1/2-z
1/2-x,1/2-y,-z
1/2+x,1/2-y,1/2+z
loop_
_atom_site_type_symbol
_atom_site_label
_atom_site_fract_x
_atom_site_fract_y
_atom_site_fract_z
Si Si1 0.547194 0.075365 0.007758
Si Si2 0.859313 0.289915 0.346848
Si Si3 0.304225 0.495229 0.230155
Si Si4 0.871220 0.104306 0.548528
Si Si5 0.000000 0.138186 0.750000
Si Si6 0.981693 0.763967 0.890146
Si Si7 0.376521 0.043979 0.111668
Si Si8 0.273479 0.085585 0.592389
O O1 0.591157 0.089013 0.203528
O O2 0.517128 0.169990 0.934380
O O3 0.500000 0.000000 0.000000
O O4 0.582239 0.034793 0.905998
O O5 0.855401 0.205698 0.464540
O O6 0.914785 0.262254 0.313142
O O7 0.869258 0.381743 0.464578
O O8 0.806938 0.320546 0.172482
O O9 0.357164 0.535286 0.390243
O O10 0.327970 0.424153 0.132571
O O11 0.260471 0.446947 0.295084
O O12 0.272064 0.579373 0.103365
O O13 0.937069 0.092999 0.679039
O O14 0.995083 0.190885 0.575978
O O15 0.000000 0.814041 0.750000
O O16 0.319598 0.993404 0.101503
#
# Coordination Sequence:
#
# PCOD9296093 Si02
#       8
#     8   8   8   8   4   8   8   8
#     4  12  20  29  51  85 128 186 225 255 311 386
#     4  11  22  39  65  95 135 176 230 265 332 404
#     4  10  23  44  67  92 128 166 224 281 345 388
#     4  10  24  46  71  98 126 167 216 286 348 415
#     4  10  24  48  70 100 132 162 222 300 340 406
#     4  11  22  39  59  96 143 180 223 274 324 399
#     4  12  21  34  56  90 132 184 222 263 322 392
#     4  11  20  40  62  93 135 173 215 275 315 398
#
# _framework density 20.726638999999999
#
# number of rings (size 3 to 8) (size 9 to 14) (size 15 to 20)
#    0.000    1.067    4.000    3.600    0.000    1.600 
#    9.600    0.000    0.000    0.000    0.000    0.000 
#    0.000    0.000    0.000    0.000    0.000    0.000 
#
# Total GULP energy -167515.567116 kJ/mol
# GULP energy per Si atom -5583.852237 kJ/mol
# Density = 2.067946 g / cm^3
# Si number density = 20.726639 Si / 1000 Ang^3
#
#
#
# Elastic Constant Matrix: (Units=GPa)
#
#
# Indices 1 2 3 4 5 6 
#
# 1 120.2929 33.1922 51.6866 0.0000 1.0863 0.0000
# 2 33.1922 31.8105 3.2354 0.0000 -2.2549 0.0000
# 3 51.6866 3.2354 102.9284 0.0000 -0.8817 0.0000
# 4 0.0000 0.0000 0.0000 9.3715 0.0000 7.4855
# 5 1.0863 -2.2549 -0.8817 0.0000 39.3921 0.0000
# 6 0.0000 0.0000 0.0000 7.4855 0.0000 25.6652
#
#
#
# Elastic Compliance Matrix: (Units=1/GPa)
#
#
# Indices 1 2 3 4 5 6 
#
# 1 0.015986 -0.016022 -0.007537 0.000000 -0.001527 0.000000
# 2 -0.016022 0.047721 0.006574 0.000000 0.003321 0.000000
# 3 -0.007537 0.006574 0.013301 0.000000 0.000882 0.000000
# 4 0.000000 0.000000 0.000000 0.139116 0.000000 -0.040574
# 5 -0.001527 0.003321 0.000882 0.000000 0.025638 0.000000
# 6 0.000000 0.000000 0.000000 -0.040574 0.000000 0.050797
#
#
# Mechanical properties :
#
#
# Convention : Reuss Voigt Hill
#
# Bulk Modulus (GPa) = 23.23523 47.91780 35.57651
# Shear Modulus (GPa) = 14.66811 26.01361 20.34086
#
# Velocity S-wave (km/s) = 2.66314 3.54656 3.13611
# Velocity P-wave (km/s) = 4.54874 6.31980 5.50595
#
# Compressibility (1/GPa) = 0.04303809
#
# Stress axis : x y z
#
# Youngs Moduli (GPa) = 62.55350 20.95511 75.18094
#
# Poissons Ratio (x) = 0.33575 0.56665
# Poissons Ratio (y) = 1.00225 -0.49425
# Poissons Ratio (z) = 0.47147 -0.13776
#
# Static dielectric constant tensor:
#      x y z
#    x 1.736480 0.000000 -0.001860 
#    y 0.000000 1.728670 0.000000 
#    z -0.001860 0.000000 1.810860 
# 
# From -- ./inp_files/61966.got.cif
#   From: 2010.05.17/outbox.cif.g08.bks.cpg/sg15_31_cif.got.tgz:61966.got - 2010.06.03 18:47:42.
