data_PCOD9296105
_publ_section_title
;
Structure prediction by ZEFSAII (Michael W. Deem and Ramdas Pophale) SiO2 
 PCOD9296105
Probable space group: C 2/C
;
_chemical_formula_sum "Si O2"
_cell_formula_units_Z 60
_cell_length_a 19.271170
_cell_length_b 22.063210
_cell_length_c 12.537214
_cell_angle_alpha 90.000000
_cell_angle_beta 148.677522
_cell_angle_gamma 90.000000
_cell_volume 2771.146281
_symmetry_space_group_name_H-M "C 2/C"
_symmetry_group_IT_number 15
_symmetry_cell_setting 'monoclinic'
loop_
_space_group_symop_operation_xyz
x,y,z
-x,y,1/2-z
-x,-y,-z
x,-y,1/2+z
1/2+x,1/2+y,z
1/2-x,1/2+y,1/2-z
1/2-x,1/2-y,-z
1/2+x,1/2-y,1/2+z
loop_
_atom_site_type_symbol
_atom_site_label
_atom_site_fract_x
_atom_site_fract_y
_atom_site_fract_z
Si Si1 0.211781 0.047849 0.693062
Si Si2 0.598410 0.771327 0.277398
Si Si3 0.500000 0.488235 0.750000
Si Si4 0.340911 0.712929 0.537952
Si Si5 0.914139 0.587149 0.790026
Si Si6 0.879908 0.820258 0.870092
Si Si7 0.117438 0.099600 0.778737
Si Si8 0.796347 0.430013 0.912090
O O1 0.345884 0.061676 0.805365
O O2 0.199571 0.090923 0.778827
O O3 0.091521 0.051032 0.449493
O O4 0.208880 0.980810 0.740001
O O5 0.500000 0.767951 0.250000
O O6 0.750000 0.750000 0.500000
O O7 0.602221 0.840464 0.242241
O O8 0.553495 0.725397 0.125191
O O9 0.584311 0.535075 0.787844
O O10 0.500000 0.729380 0.750000
O O11 0.250000 0.750000 0.500000
O O12 0.305918 0.716243 0.367429
O O13 0.322726 0.643536 0.553434
O O14 0.841990 0.556734 0.592569
O O15 0.069936 0.574959 0.981688
O O16 0.777814 0.866066 0.681475
O O17 0.986806 0.863719 0.068189
#
# Coordination Sequence:
#
# PCOD9296105 Si02
#       8
#     8   8   4   8   8   8   8   8
#     4  12  26  38  72  99 132 176 234 277 343 413
#     4  12  25  43  67 101 139 179 230 285 345 417
#     4  12  22  44  66  96 132 176 224 282 342 404
#     4  10  23  44  67  96 133 173 225 278 332 410
#     4  11  25  44  64  98 140 174 229 276 342 419
#     4  11  23  40  72  92 135 180 216 281 349 388
#     4  11  23  43  64 100 132 169 225 280 339 403
#     4  11  22  46  65  92 137 183 212 284 346 401
#
# _framework density 21.651691
#
# number of rings (size 3 to 8) (size 9 to 14) (size 15 to 20)
#    0.000    0.800    6.000    1.600    5.600    3.200 
#    0.000    0.000    0.000    0.000    0.000    0.000 
#    0.000    0.000    0.000    0.000    0.000    0.000 
#
# Total GULP energy -167682.687419 kJ/mol
# GULP energy per Si atom -5589.422914 kJ/mol
# Density = 2.160241 g / cm^3
# Si number density = 21.651691 Si / 1000 Ang^3
#
#
#
# Elastic Constant Matrix: (Units=GPa)
#
#
# Indices 1 2 3 4 5 6 
#
# 1 146.8506 43.7330 -11.5024 0.0000 -8.3562 0.0000
# 2 43.7330 61.9097 4.4204 0.0000 -3.9690 0.0000
# 3 -11.5024 4.4204 26.0930 0.0000 -4.9533 0.0000
# 4 0.0000 0.0000 0.0000 15.6866 0.0000 -0.7028
# 5 -8.3562 -3.9690 -4.9533 0.0000 23.9510 0.0000
# 6 0.0000 0.0000 0.0000 -0.7028 0.0000 41.0324
#
#
#
# Elastic Compliance Matrix: (Units=1/GPa)
#
#
# Indices 1 2 3 4 5 6 
#
# 1 0.009550 -0.006957 0.006039 0.000000 0.003428 0.000000
# 2 -0.006957 0.021534 -0.006764 0.000000 -0.000258 0.000000
# 3 0.006039 -0.006764 0.044049 0.000000 0.010096 0.000000
# 4 0.000000 0.000000 0.000000 0.063798 0.000000 0.001093
# 5 0.003428 -0.000258 0.010096 0.000000 0.044993 0.000000
# 6 0.000000 0.000000 0.000000 0.001093 0.000000 0.024390
#
#
# Mechanical properties :
#
#
# Convention : Reuss Voigt Hill
#
# Bulk Modulus (GPa) = 16.73139 34.23948 25.48543
# Shear Modulus (GPa) = 20.52549 29.34748 24.93648
#
# Velocity S-wave (km/s) = 3.08228 3.68562 3.39737
# Velocity P-wave (km/s) = 4.51791 5.82750 5.21399
#
# Compressibility (1/GPa) = 0.05976789
#
# Stress axis : x y z
#
# Youngs Moduli (GPa) = 104.71597 46.43900 22.70205
#
# Poissons Ratio (x) = 0.32309 -0.13710
# Poissons Ratio (y) = 0.72854 0.15355
# Poissons Ratio (z) = -0.63238 0.31411
#
# Static dielectric constant tensor:
#      x y z
#    x 1.792650 0.000000 -0.022070 
#    y 0.000000 1.781890 0.000000 
#    z -0.022070 0.000000 1.857800 
# 
# From -- ./inp_files/108123.got.cif
#   From: 2010.05.17/outbox.cif.g08.bks.cpg/sg15_55_cif.got.tgz:108123.got - 2010.06.03 18:47:42.
