data_PCOD9296515
_publ_section_title
;
Structure prediction by ZEFSAII (Michael W. Deem and Ramdas Pophale) SiO2 
 PCOD9296515
Probable space group: C 2/C
;
_chemical_formula_sum "Si O2"
_cell_formula_units_Z 44
_cell_length_a 16.698190
_cell_length_b 24.273810
_cell_length_c 4.965002
_cell_angle_alpha 90.000000
_cell_angle_beta 99.562021
_cell_angle_gamma 90.000000
_cell_volume 1984.497409
_symmetry_space_group_name_H-M "C 2/C"
_symmetry_group_IT_number 15
_symmetry_cell_setting 'monoclinic'
loop_
_space_group_symop_operation_xyz
x,y,z
-x,y,1/2-z
-x,-y,-z
x,-y,1/2+z
1/2+x,1/2+y,z
1/2-x,1/2+y,1/2-z
1/2-x,1/2-y,-z
1/2+x,1/2-y,1/2+z
loop_
_atom_site_type_symbol
_atom_site_label
_atom_site_fract_x
_atom_site_fract_y
_atom_site_fract_z
Si Si1 0.649058 0.036832 0.393146
Si Si2 0.925523 0.707545 0.543516
Si Si3 0.000000 0.611562 0.250000
Si Si4 0.558301 0.359486 0.528044
Si Si5 0.842536 0.752508 0.966081
Si Si6 0.168228 0.961578 0.421916
O O1 0.573212 0.075588 0.407699
O O2 0.739209 0.060327 0.492341
O O3 0.643648 0.983859 0.583936
O O4 0.959754 0.650178 0.453705
O O5 0.894833 0.736957 0.258326
O O6 0.000000 0.735026 0.750000
O O7 0.856925 0.709079 0.732409
O O8 0.500000 0.368633 0.750000
O O9 0.625720 0.312062 0.613717
O O10 0.604825 0.414821 0.464295
O O11 0.500000 0.342588 0.250000
O O12 0.750000 0.750000 0.000000
O O13 0.159326 0.986546 0.119540
#
# Coordination Sequence:
#
# PCOD9296515 Si02
#       6
#     8   8   4   8   8   8
#     4  10  24  43  67  99 142 179 227 282 338 419
#     4  12  25  44  68 100 139 182 225 287 331 420
#     4  12  26  40  76 102 142 186 230 276 354 420
#     4  12  26  43  71 100 132 178 228 288 344 410
#     4  12  27  48  69 100 141 186 233 287 351 415
#     4  10  23  45  66  98 134 173 223 286 347 410
#
# _framework density 22.171859999999999
#
# number of rings (size 3 to 8) (size 9 to 14) (size 15 to 20)
#    0.000    0.727    1.818    4.909    5.091    2.182 
#    6.545    0.000    0.000    0.000    0.000    0.000 
#    0.000    0.000    0.000    0.000    0.000    0.000 
#
# Total GULP energy -123086.972486 kJ/mol
# GULP energy per Si atom -5594.862386 kJ/mol
# Density = 2.212140 g / cm^3
# Si number density = 22.171860 Si / 1000 Ang^3
#
#
#
# Elastic Constant Matrix: (Units=GPa)
#
#
# Indices 1 2 3 4 5 6 
#
# 1 139.7311 57.7549 -0.4251 0.0000 -22.7597 0.0000
# 2 57.7549 50.2254 -3.3207 0.0000 6.7853 0.0000
# 3 -0.4251 -3.3207 79.4193 0.0000 -15.9291 0.0000
# 4 0.0000 0.0000 0.0000 13.1128 0.0000 -0.6949
# 5 -22.7597 6.7853 -15.9291 0.0000 34.3168 0.0000
# 6 0.0000 0.0000 0.0000 -0.6949 0.0000 11.2741
#
#
#
# Elastic Compliance Matrix: (Units=1/GPa)
#
#
# Indices 1 2 3 4 5 6 
#
# 1 0.022862 -0.029103 0.003419 0.000000 0.022504 0.000000
# 2 -0.029103 0.057505 -0.004304 0.000000 -0.032670 0.000000
# 3 0.003419 -0.004304 0.014395 0.000000 0.009801 0.000000
# 4 0.000000 0.000000 0.000000 0.076511 0.000000 0.004716
# 5 0.022504 -0.032670 0.009801 0.000000 0.055074 0.000000
# 6 0.000000 0.000000 0.000000 0.004716 0.000000 0.088989
#
#
# Mechanical properties :
#
#
# Convention : Reuss Voigt Hill
#
# Bulk Modulus (GPa) = 28.74669 41.93266 35.33967
# Shear Modulus (GPa) = 12.92298 26.09853 19.51075
#
# Velocity S-wave (km/s) = 2.41686 3.43461 2.96966
# Velocity P-wave (km/s) = 4.55871 5.88917 5.26613
#
# Compressibility (1/GPa) = 0.03478661
#
# Stress axis : x y z
#
# Youngs Moduli (GPa) = 43.74161 17.38978 69.46639
#
# Poissons Ratio (x) = 0.50609 -0.23751
# Poissons Ratio (y) = 1.27301 0.29897
# Poissons Ratio (z) = -0.14955 0.07484
#
# Static dielectric constant tensor:
#      x y z
#    x 1.839520 0.000000 -0.016250 
#    y 0.000000 1.815730 0.000000 
#    z -0.016250 0.000000 1.820440 
# 
# From -- ./inp_files/7631.got.cif
#   From: 2010.05.17/outbox.cif.g08.bks.cpg/sg15_4_cif.got.tgz:7631.got - 2010.06.03 18:47:42.
