data_PCOD9296183
_publ_section_title
;
Structure prediction by ZEFSAII (Michael W. Deem and Ramdas Pophale) SiO2 
 PCOD9296183
Probable space group: C 2/C
;
_chemical_formula_sum "Si O2"
_cell_formula_units_Z 56
_cell_length_a 16.691288
_cell_length_b 29.482342
_cell_length_c 4.849453
_cell_angle_alpha 90.000000
_cell_angle_beta 72.124157
_cell_angle_gamma 90.000000
_cell_volume 2271.200964
_symmetry_space_group_name_H-M "C 2/C"
_symmetry_group_IT_number 15
_symmetry_cell_setting 'monoclinic'
loop_
_space_group_symop_operation_xyz
x,y,z
-x,y,1/2-z
-x,-y,-z
x,-y,1/2+z
1/2+x,1/2+y,z
1/2-x,1/2+y,1/2-z
1/2-x,1/2-y,-z
1/2+x,1/2-y,1/2+z
loop_
_atom_site_type_symbol
_atom_site_label
_atom_site_fract_x
_atom_site_fract_y
_atom_site_fract_z
Si Si1 0.864428 0.179749 0.769847
Si Si2 0.416526 0.828402 0.163247
Si Si3 0.500000 0.250639 0.250000
Si Si4 0.944438 0.901716 0.540582
Si Si5 0.108178 0.467786 0.988679
Si Si6 0.296972 0.531115 0.213404
Si Si7 0.500000 0.901558 0.750000
Si Si8 0.245192 0.802313 0.602346
O O1 0.907287 0.139268 0.894581
O O2 0.788556 0.195809 0.051340
O O3 0.822040 0.171712 0.520966
O O4 0.937148 0.217187 0.647930
O O5 0.500000 0.835311 0.250000
O O6 0.335321 0.823899 0.438176
O O7 0.436639 0.781502 0.984556
O O8 0.424230 0.869954 0.944544
O O9 0.868180 0.933398 0.711586
O O10 0.000000 0.888842 0.750000
O O11 0.000000 0.927607 0.250000
O O12 0.100015 0.512346 0.802449
O O13 0.203219 0.449943 0.856892
O O14 0.043543 0.431818 0.937857
O O15 0.303926 0.486326 0.394295
O O16 0.250000 0.750000 0.500000
#
# Coordination Sequence:
#
# PCOD9296183 Si02
#       8
#     8   8   4   8   8   8   4   8
#     4  12  27  45  74 100 140 186 238 296 345 426
#     4  11  27  43  69 104 142 188 234 296 360 414
#     4  11  24  46  72  94 146 180 238 288 352 419
#     4  12  26  44  69 106 139 179 238 286 359 419
#     4  10  23  44  72 100 137 185 232 282 352 431
#     4  10  23  44  69 100 138 180 225 284 355 425
#     4  11  26  42  68 104 142 180 238 294 354 413
#     4  12  26  46  71 101 138 190 241 288 359 426
#
# _framework density 24.656556999999999
#
# number of rings (size 3 to 8) (size 9 to 14) (size 15 to 20)
#    0.000    0.857    2.143    3.429    8.000    1.714 
#    2.571    0.000    0.000    0.000    0.000    0.000 
#    0.000    0.000    0.000    0.000    0.000    0.000 
#
# Total GULP energy -156884.946184 kJ/mol
# GULP energy per Si atom -5603.033792 kJ/mol
# Density = 2.460044 g / cm^3
# Si number density = 24.656557 Si / 1000 Ang^3
#
#
#
# Elastic Constant Matrix: (Units=GPa)
#
#
# Indices 1 2 3 4 5 6 
#
# 1 143.2661 45.3147 26.8235 0.0000 -7.1360 0.0000
# 2 45.3147 61.5869 3.0262 0.0000 -17.0441 0.0000
# 3 26.8235 3.0262 82.3436 0.0000 -2.9104 0.0000
# 4 0.0000 0.0000 0.0000 9.3590 0.0000 -1.7213
# 5 -7.1360 -17.0441 -2.9104 0.0000 47.8740 0.0000
# 6 0.0000 0.0000 0.0000 -1.7213 0.0000 21.4234
#
#
#
# Elastic Compliance Matrix: (Units=1/GPa)
#
#
# Indices 1 2 3 4 5 6 
#
# 1 0.009831 -0.007467 -0.002977 0.000000 -0.001374 0.000000
# 2 -0.007467 0.023700 0.001824 0.000000 0.007435 0.000000
# 3 -0.002977 0.001824 0.013082 0.000000 0.001001 0.000000
# 4 0.000000 0.000000 0.000000 0.108452 0.000000 0.008714
# 5 -0.001374 0.007435 0.001001 0.000000 0.023391 0.000000
# 6 0.000000 0.000000 0.000000 0.008714 0.000000 0.047378
#
#
# Mechanical properties :
#
#
# Convention : Reuss Voigt Hill
#
# Bulk Modulus (GPa) = 34.04427 48.61392 41.32909
# Shear Modulus (GPa) = 19.77348 29.86678 24.82013
#
# Velocity S-wave (km/s) = 2.83496 3.48417 3.17619
# Velocity P-wave (km/s) = 4.95513 5.99542 5.49993
#
# Compressibility (1/GPa) = 0.02937352
#
# Stress axis : x y z
#
# Youngs Moduli (GPa) = 101.72147 42.19467 76.43984
#
# Poissons Ratio (x) = 0.31508 0.22752
# Poissons Ratio (y) = 0.75959 -0.13945
# Poissons Ratio (z) = 0.30278 -0.07698
#
# Static dielectric constant tensor:
#      x y z
#    x 1.952890 0.000000 -0.028030 
#    y 0.000000 1.964950 0.000000 
#    z -0.028030 0.000000 2.020630 
# 
# From -- ./inp_files/11518.got.cif
#   From: 2010.05.17/outbox.cif.g08.bks.cpg/sg15_6_cif.got.tgz:11518.got - 2010.06.03 18:47:42.
