data_PCOD9296529
_publ_section_title
;
Structure prediction by ZEFSAII (Michael W. Deem and Ramdas Pophale) SiO2 
 PCOD9296529
Probable space group: C 2/C
;
_chemical_formula_sum "Si O2"
_cell_formula_units_Z 48
_cell_length_a 18.544270
_cell_length_b 9.926665
_cell_length_c 14.863332
_cell_angle_alpha 90.000000
_cell_angle_beta 133.084557
_cell_angle_gamma 90.000000
_cell_volume 1998.288492
_symmetry_space_group_name_H-M "C 2/C"
_symmetry_group_IT_number 15
_symmetry_cell_setting 'monoclinic'
loop_
_space_group_symop_operation_xyz
x,y,z
-x,y,1/2-z
-x,-y,-z
x,-y,1/2+z
1/2+x,1/2+y,z
1/2-x,1/2+y,1/2-z
1/2-x,1/2-y,-z
1/2+x,1/2-y,1/2+z
loop_
_atom_site_type_symbol
_atom_site_label
_atom_site_fract_x
_atom_site_fract_y
_atom_site_fract_z
Si Si1 0.131804 0.941632 0.274468
Si Si2 0.883318 0.495325 0.898058
Si Si3 0.206795 0.988157 0.639644
Si Si4 0.500000 0.232667 0.250000
Si Si5 0.000000 0.833133 0.750000
Si Si6 0.165932 0.735970 0.004602
Si Si7 0.170251 0.291132 0.023673
O O1 0.047927 0.827420 0.213211
O O2 0.224252 0.864495 0.400600
O O3 0.157585 0.994171 0.196712
O O4 0.085418 0.069287 0.285096
O O5 0.823645 0.463231 0.756928
O O6 0.837427 0.393682 0.933571
O O7 0.856015 0.646354 0.902104
O O8 0.000000 0.500000 0.000000
O O9 0.171895 0.867208 0.546321
O O10 0.184072 0.130595 0.577179
O O11 0.589863 0.164266 0.380733
O O12 0.943502 0.743619 0.630035
O O13 0.250000 0.750000 0.000000
#
# Coordination Sequence:
#
# PCOD9296529 Si02
#       7
#     8   8   8   4   4   8   8
#     4  10  23  45  67 107 144 189 246 295 361 444
#     4  11  27  46  71 110 147 188 245 305 373 434
#     4  11  25  47  78 100 146 194 246 305 362 441
#     4  11  24  39  70 106 144 186 232 302 370 432
#     4  11  26  45  78 104 150 200 246 290 376 460
#     4  12  28  49  77 110 150 198 246 311 372 446
#     4  11  25  44  72 105 147 183 241 303 364 437
#
# _framework density 24.020555999999999
#
# number of rings (size 3 to 8) (size 9 to 14) (size 15 to 20)
#    0.000    1.000    0.000    6.500    9.333    3.333 
#    0.000    0.000    0.000    0.000    0.000    0.000 
#    0.000    0.000    0.000    0.000    0.000    0.000 
#
# Total GULP energy -134077.776014 kJ/mol
# GULP energy per Si atom -5586.574001 kJ/mol
# Density = 2.396588 g / cm^3
# Si number density = 24.020556 Si / 1000 Ang^3
#
#
#
# Elastic Constant Matrix: (Units=GPa)
#
#
# Indices 1 2 3 4 5 6 
#
# 1 98.3275 27.6963 36.0014 0.0000 5.2123 0.0000
# 2 27.6963 93.9478 24.0278 0.0000 -9.3691 0.0000
# 3 36.0014 24.0278 158.1254 0.0000 16.7417 0.0000
# 4 0.0000 0.0000 0.0000 30.5432 0.0000 10.2936
# 5 5.2123 -9.3691 16.7417 0.0000 41.7713 0.0000
# 6 0.0000 0.0000 0.0000 10.2936 0.0000 9.8690
#
#
#
# Elastic Compliance Matrix: (Units=1/GPa)
#
#
# Indices 1 2 3 4 5 6 
#
# 1 0.011880 -0.003101 -0.002092 0.000000 -0.001340 0.000000
# 2 -0.003101 0.012337 -0.001569 0.000000 0.003783 0.000000
# 3 -0.002092 -0.001569 0.007361 0.000000 -0.003041 0.000000
# 4 0.000000 0.000000 0.000000 0.050488 0.000000 -0.052660
# 5 -0.001340 0.003783 -0.003041 0.000000 0.026174 0.000000
# 6 0.000000 0.000000 0.000000 -0.052660 0.000000 0.156253
#
#
# Mechanical properties :
#
#
# Convention : Reuss Voigt Hill
#
# Bulk Modulus (GPa) = 55.38878 58.42796 56.90837
# Shear Modulus (GPa) = 17.60344 33.94837 25.77590
#
# Velocity S-wave (km/s) = 2.71005 3.76347 3.27934
# Velocity P-wave (km/s) = 5.73598 6.57738 6.17104
#
# Compressibility (1/GPa) = 0.01805420
#
# Stress axis : x y z
#
# Youngs Moduli (GPa) = 84.17159 81.05703 135.85513
#
# Poissons Ratio (x) = 0.25136 0.28419
# Poissons Ratio (y) = 0.26102 0.21318
# Poissons Ratio (z) = 0.17608 0.12719
#
# Static dielectric constant tensor:
#      x y z
#    x 2.065990 0.000000 0.057170 
#    y 0.000000 1.863690 0.000000 
#    z 0.057170 0.000000 1.948400 
# 
# From -- ./inp_files/167960.got.cif
#   From: 2010.05.17/outbox.cif.g08.bks.cpg/sg15_84_cif.got.tgz:167960.got - 2010.06.03 18:47:42.
