data_PCOD9296276
_publ_section_title
;
Structure prediction by ZEFSAII (Michael W. Deem and Ramdas Pophale) SiO2 
 PCOD9296276
Probable space group: C 2/C
;
_chemical_formula_sum "Si O2"
_cell_formula_units_Z 48
_cell_length_a 12.219408
_cell_length_b 18.942881
_cell_length_c 14.265972
_cell_angle_alpha 90.000000
_cell_angle_beta 39.784818
_cell_angle_gamma 90.000000
_cell_volume 2113.069662
_symmetry_space_group_name_H-M "C 2/C"
_symmetry_group_IT_number 15
_symmetry_cell_setting 'monoclinic'
loop_
_space_group_symop_operation_xyz
x,y,z
-x,y,1/2-z
-x,-y,-z
x,-y,1/2+z
1/2+x,1/2+y,z
1/2-x,1/2+y,1/2-z
1/2-x,1/2-y,-z
1/2+x,1/2-y,1/2+z
loop_
_atom_site_type_symbol
_atom_site_label
_atom_site_fract_x
_atom_site_fract_y
_atom_site_fract_z
Si Si1 0.182827 0.744941 0.148743
Si Si2 0.928698 0.592338 0.899379
Si Si3 0.317944 0.527306 0.320554
Si Si4 0.294487 0.381137 0.235922
Si Si5 0.218078 0.179488 0.153913
Si Si6 0.985511 0.197716 0.462733
O O1 0.158485 0.819707 0.220291
O O2 0.000000 0.709803 0.250000
O O3 0.250000 0.750000 0.000000
O O4 0.330252 0.706460 0.109546
O O5 0.000000 0.583062 0.750000
O O6 0.090807 0.619057 0.852060
O O7 0.836722 0.523170 0.002218
O O8 0.778723 0.650984 0.010837
O O9 0.500000 0.540418 0.250000
O O10 0.333575 0.458244 0.249582
O O11 0.268421 0.601862 0.304671
O O12 0.393563 0.368310 0.072842
O O13 0.357270 0.239694 0.078171
O O14 0.040068 0.204339 0.317406
#
# Coordination Sequence:
#
# PCOD9296276 Si02
#       6
#     8   8   8   8   8   8
#     4  12  22  38  66 104 144 183 233 285 349 426
#     4  10  24  46  71  97 140 182 239 290 346 426
#     4  10  25  47  67 103 143 181 235 287 358 420
#     4  12  24  45  73 100 147 186 234 296 355 421
#     4  10  23  44  70  97 145 182 235 290 347 422
#     4  12  22  43  70 103 141 190 233 288 357 410
#
# _framework density 22.715768000000001
#
# number of rings (size 3 to 8) (size 9 to 14) (size 15 to 20)
#    1.000    0.000    5.000    1.000    2.333    0.667 
#    0.000    8.333    0.000    0.000    0.000    0.000 
#    0.000    0.000    0.000    0.000    0.000    0.000 
#
# Total GULP energy -133638.805386 kJ/mol
# GULP energy per Si atom -5568.283558 kJ/mol
# Density = 2.266407 g / cm^3
# Si number density = 22.715768 Si / 1000 Ang^3
#
#
#
# Elastic Constant Matrix: (Units=GPa)
#
#
# Indices 1 2 3 4 5 6 
#
# 1 60.6728 27.3162 51.5267 0.0002 14.5333 -0.0008
# 2 27.3162 109.4854 51.5970 -0.0013 5.0046 -0.0005
# 3 51.5267 51.5970 206.5703 -0.0029 5.4335 -0.0017
# 4 0.0002 -0.0013 -0.0029 30.8053 0.0006 8.7032
# 5 14.5333 5.0046 5.4335 0.0006 49.5593 0.0008
# 6 -0.0008 -0.0005 -0.0017 8.7032 0.0008 -4.9244
#
#
#
# Elastic Compliance Matrix: (Units=1/GPa)
#
#
# Indices 1 2 3 4 5 6 
#
# 1 0.023573 -0.003297 -0.004898 0.000000 -0.006043 -0.000003
# 2 -0.003297 0.010842 -0.001888 0.000000 0.000079 0.000000
# 3 -0.004898 -0.001888 0.006510 0.000001 0.000913 0.000000
# 4 0.000000 0.000000 0.000001 0.021651 -0.000001 0.038266
# 5 -0.006043 0.000079 0.000913 -0.000001 0.021842 0.000002
# 6 -0.000003 0.000000 0.000000 0.038266 0.000002 -0.135442
#
#
# Mechanical properties :
#
#
# Convention : Reuss Voigt Hill
#
# Bulk Modulus (GPa) = 48.16838 70.84538 59.50688
# Shear Modulus (GPa) = -208.86667 31.50729 -88.67969
#
# Velocity S-wave (km/s) = -9.59935 3.72832 -6.25488
# Velocity P-wave (km/s) = 10.08030 7.05615 5.09034
#
# Compressibility (1/GPa) = 0.02076051
#
# Stress axis : x y z
#
# Youngs Moduli (GPa) = 42.42137 92.23115 153.60681
#
# Poissons Ratio (x) = 0.30410 0.75230
# Poissons Ratio (y) = 0.13987 0.28998
# Poissons Ratio (z) = 0.20776 0.17412
#
# Static dielectric constant tensor:
#      x y z
#    x 2.029780 0.000000 0.090560 
#    y 0.000000 1.863340 0.000000 
#    z 0.090560 0.000000 1.861400 
# 
# From -- ./inp_files/206397.got.cif
#   From: 2010.05.17/outbox.cif.g08.bks.cpg/sg15_104_cif.got.tgz:206397.got - 2010.06.03 18:47:42.
