data_PCOD9296730
_publ_section_title
;
Structure prediction by ZEFSAII (Michael W. Deem and Ramdas Pophale) SiO2 
 PCOD9296730
Probable space group: C 2/C
;
_chemical_formula_sum "Si O2"
_cell_formula_units_Z 56
_cell_length_a 27.907224
_cell_length_b 12.032717
_cell_length_c 8.782363
_cell_angle_alpha 90.000000
_cell_angle_beta 111.529402
_cell_angle_gamma 90.000000
_cell_volume 2743.353496
_symmetry_space_group_name_H-M "C 2/C"
_symmetry_group_IT_number 15
_symmetry_cell_setting 'monoclinic'
loop_
_space_group_symop_operation_xyz
x,y,z
-x,y,1/2-z
-x,-y,-z
x,-y,1/2+z
1/2+x,1/2+y,z
1/2-x,1/2+y,1/2-z
1/2-x,1/2-y,-z
1/2+x,1/2-y,1/2+z
loop_
_atom_site_type_symbol
_atom_site_label
_atom_site_fract_x
_atom_site_fract_y
_atom_site_fract_z
Si Si1 0.793469 0.838867 0.520530
Si Si2 0.119202 0.888702 0.394775
Si Si3 0.526245 0.380398 0.055506
Si Si4 0.819260 0.020070 0.795900
Si Si5 0.431452 0.787057 0.481416
Si Si6 0.593870 0.238991 0.904656
Si Si7 0.541031 0.972390 0.419907
O O1 0.750000 0.750000 0.500000
O O2 0.801622 0.912919 0.680965
O O3 0.847600 0.782214 0.533399
O O4 0.780179 0.921730 0.365374
O O5 0.066553 0.900793 0.239134
O O6 0.134188 0.980506 0.538181
O O7 0.113229 0.778052 0.483462
O O8 0.161586 0.896362 0.312391
O O9 0.500000 0.500000 0.000000
O O10 0.483744 0.286956 0.049795
O O11 0.556578 0.328962 0.944243
O O12 0.419278 0.787805 0.287150
O O13 0.435270 0.905510 0.569894
O O14 0.582761 0.124529 0.983907
O O15 0.500000 0.929969 0.250000
O O16 0.500000 0.000000 0.500000
#
# Coordination Sequence:
#
# PCOD9296730 Si02
#       7
#     8   8   8   8   8   8   8
#     4  11  25  51  76 101 136 175 236 297 368 420
#     4  11  22  39  64 100 138 182 223 271 340 410
#     4  12  25  36  63 106 142 186 232 270 336 420
#     4  10  23  45  74  97 141 177 213 300 365 400
#     4  12  25  39  63  96 140 189 233 277 334 412
#     4  12  25  45  67  95 142 185 228 295 344 406
#     4  12  23  43  61  90 138 191 232 273 334 410
#
# _framework density 20.412973999999998
#
# number of rings (size 3 to 8) (size 9 to 14) (size 15 to 20)
#    0.000    0.571    5.714    2.571    4.000    2.286 
#    2.571    2.857    0.000    0.000    0.000    0.000 
#    0.000    0.000    0.000    0.000    0.000    0.000 
#
# Total GULP energy -156175.465265 kJ/mol
# GULP energy per Si atom -5577.695188 kJ/mol
# Density = 2.036651 g / cm^3
# Si number density = 20.412974 Si / 1000 Ang^3
#
#
#
# Elastic Constant Matrix: (Units=GPa)
#
#
# Indices 1 2 3 4 5 6 
#
# 1 80.5564 64.6901 29.3899 0.0000 -4.9709 0.0000
# 2 64.6901 154.8176 21.8369 0.0000 -6.6313 0.0000
# 3 29.3899 21.8369 80.7101 0.0000 -18.4894 0.0000
# 4 0.0000 0.0000 0.0000 19.5446 0.0000 -5.0332
# 5 -4.9709 -6.6313 -18.4894 0.0000 14.8877 0.0000
# 6 0.0000 0.0000 0.0000 -5.0332 0.0000 52.4025
#
#
#
# Elastic Compliance Matrix: (Units=1/GPa)
#
#
# Indices 1 2 3 4 5 6 
#
# 1 0.020964 -0.008039 -0.006535 0.000000 -0.004697 0.000000
# 2 -0.008039 0.009810 0.000922 0.000000 0.002830 0.000000
# 3 -0.006535 0.000922 0.019727 0.000000 0.022728 0.000000
# 4 0.000000 0.000000 0.000000 0.052463 0.000000 0.005039
# 5 -0.004697 0.002830 0.022728 0.000000 0.095088 0.000000
# 6 0.000000 0.000000 0.000000 0.005039 0.000000 0.019567
#
#
# Mechanical properties :
#
#
# Convention : Reuss Voigt Hill
#
# Bulk Modulus (GPa) = 43.11157 60.87977 51.99567
# Shear Modulus (GPa) = 19.78991 30.71143 25.25067
#
# Velocity S-wave (km/s) = 3.11702 3.88300 3.52090
# Velocity P-wave (km/s) = 5.84123 7.07053 6.48507
#
# Compressibility (1/GPa) = 0.02319563
#
# Stress axis : x y z
#
# Youngs Moduli (GPa) = 47.70173 101.94165 50.69252
#
# Poissons Ratio (x) = 0.81951 0.33126
# Poissons Ratio (y) = 0.38348 -0.04671
# Poissons Ratio (z) = 0.31171 -0.09394
#
# Static dielectric constant tensor:
#      x y z
#    x 1.942270 0.000000 -0.033140 
#    y 0.000000 1.827320 0.000000 
#    z -0.033140 0.000000 1.768960 
# 
# From -- ./inp_files/69160.got.cif
#   From: 2010.05.17/outbox.cif.g08.bks.cpg/sg15_35_cif.got.tgz:69160.got - 2010.06.03 18:47:42.
