data_PCOD9296096
_publ_section_title
;
Structure prediction by ZEFSAII (Michael W. Deem and Ramdas Pophale) SiO2 
 PCOD9296096
Probable space group: C 2/C
;
_chemical_formula_sum "Si O2"
_cell_formula_units_Z 40
_cell_length_a 7.784178
_cell_length_b 16.585986
_cell_length_c 14.899629
_cell_angle_alpha 90.000000
_cell_angle_beta 66.377579
_cell_angle_gamma 90.000000
_cell_volume 1762.473665
_symmetry_space_group_name_H-M "C 2/C"
_symmetry_group_IT_number 15
_symmetry_cell_setting 'monoclinic'
loop_
_space_group_symop_operation_xyz
x,y,z
-x,y,1/2-z
-x,-y,-z
x,-y,1/2+z
1/2+x,1/2+y,z
1/2-x,1/2+y,1/2-z
1/2-x,1/2-y,-z
1/2+x,1/2-y,1/2+z
loop_
_atom_site_type_symbol
_atom_site_label
_atom_site_fract_x
_atom_site_fract_y
_atom_site_fract_z
Si Si1 0.500000 0.041928 0.250000
Si Si2 0.000000 0.806311 0.250000
Si Si3 0.123661 0.099579 0.385594
Si Si4 0.424927 0.428712 0.401333
Si Si5 0.461195 0.061139 0.589443
Si Si6 0.066217 0.732060 0.839362
O O1 0.312096 0.094030 0.286652
O O2 0.461770 0.983524 0.340742
O O3 0.042217 0.858134 0.331566
O O4 0.794643 0.766287 0.306741
O O5 0.156749 0.101024 0.486276
O O6 0.007388 0.178604 0.383013
O O7 0.018845 0.014992 0.392745
O O8 0.262690 0.439467 0.362194
O O9 0.509865 0.155945 0.585921
O O10 0.500000 0.000000 0.500000
O O11 0.000000 0.720235 0.750000
#
# Coordination Sequence:
#
# PCOD9296096 Si02
#       6
#     4   4   8   8   8   8
#     4  12  23  42  71 100 136 184 234 271 348 421
#     4  10  23  44  67  92 138 184 220 281 350 409
#     4  11  24  42  68 100 135 176 231 284 344 409
#     4  10  23  44  69  95 136 183 226 278 351 412
#     4  11  23  44  69  98 136 184 227 281 339 413
#     4  11  25  43  67 103 139 174 231 291 341 402
#
# _framework density 22.695374999999999
#
# number of rings (size 3 to 8) (size 9 to 14) (size 15 to 20)
#    0.000    1.200    3.000    3.000    4.200    3.200 
#    3.600    2.000    0.000    0.000    0.000    0.000 
#    0.000    0.000    0.000    0.000    0.000    0.000 
#
# Total GULP energy -111454.730800 kJ/mol
# GULP energy per Si atom -5572.736540 kJ/mol
# Density = 2.264372 g / cm^3
# Si number density = 22.695375 Si / 1000 Ang^3
#
#
#
# Elastic Constant Matrix: (Units=GPa)
#
#
# Indices 1 2 3 4 5 6 
#
# 1 37.7827 9.1343 -7.2093 0.0000 12.2520 0.0000
# 2 9.1343 135.5310 23.2407 0.0000 5.7217 0.0000
# 3 -7.2093 23.2407 41.3784 0.0000 -0.3470 0.0000
# 4 0.0000 0.0000 0.0000 20.1267 0.0000 0.9258
# 5 12.2520 5.7217 -0.3470 0.0000 29.5121 0.0000
# 6 0.0000 0.0000 0.0000 0.9258 0.0000 17.9876
#
#
#
# Elastic Compliance Matrix: (Units=1/GPa)
#
#
# Indices 1 2 3 4 5 6 
#
# 1 0.032745 -0.002899 0.007225 0.000000 -0.012947 0.000000
# 2 -0.002899 0.008501 -0.005284 0.000000 -0.000507 0.000000
# 3 0.007225 -0.005284 0.028380 0.000000 -0.001641 0.000000
# 4 0.000000 0.000000 0.000000 0.049803 0.000000 -0.002563
# 5 -0.012947 -0.000507 -0.001641 0.000000 0.039338 0.000000
# 6 0.000000 0.000000 0.000000 -0.002563 0.000000 0.055726
#
#
# Mechanical properties :
#
#
# Convention : Reuss Voigt Hill
#
# Bulk Modulus (GPa) = 14.76899 29.44707 22.10803
# Shear Modulus (GPa) = 20.92220 26.16038 23.54129
#
# Velocity S-wave (km/s) = 3.03953 3.39879 3.22417
# Velocity P-wave (km/s) = 4.34050 5.32968 4.86032
#
# Compressibility (1/GPa) = 0.06770942
#
# Stress axis : x y z
#
# Youngs Moduli (GPa) = 30.53899 117.62888 35.23582
#
# Poissons Ratio (x) = 0.34103 -0.25458
# Poissons Ratio (y) = 0.08854 0.18620
# Poissons Ratio (z) = -0.22064 0.62158
#
# Static dielectric constant tensor:
#      x y z
#    x 1.899530 0.000000 -0.071190 
#    y 0.000000 1.983680 0.000000 
#    z -0.071190 0.000000 1.914240 
# 
# From -- ./inp_files/133113.got.cif
#   From: 2010.05.17/outbox.cif.g08.bks.cpg/sg15_67_cif.got.tgz:133113.got - 2010.06.03 18:47:42.
