data_PCOD9296157
_publ_section_title
;
Structure prediction by ZEFSAII (Michael W. Deem and Ramdas Pophale) SiO2 
 PCOD9296157
Probable space group: C 2/C
;
_chemical_formula_sum "Si O2"
_cell_formula_units_Z 52
_cell_length_a 27.798636
_cell_length_b 9.157895
_cell_length_c 13.447119
_cell_angle_alpha 90.000000
_cell_angle_beta 42.566316
_cell_angle_gamma 90.000000
_cell_volume 2315.685991
_symmetry_space_group_name_H-M "C 2/C"
_symmetry_group_IT_number 15
_symmetry_cell_setting 'monoclinic'
loop_
_space_group_symop_operation_xyz
x,y,z
-x,y,1/2-z
-x,-y,-z
x,-y,1/2+z
1/2+x,1/2+y,z
1/2-x,1/2+y,1/2-z
1/2-x,1/2-y,-z
1/2+x,1/2-y,1/2+z
loop_
_atom_site_type_symbol
_atom_site_label
_atom_site_fract_x
_atom_site_fract_y
_atom_site_fract_z
Si Si1 0.346210 0.305964 0.696258
Si Si2 0.396691 0.922995 0.261500
Si Si3 0.500000 0.253813 0.750000
Si Si4 0.785268 0.767559 0.592570
Si Si5 0.263021 0.490424 0.460883
Si Si6 0.439305 0.205574 0.270658
Si Si7 0.974385 0.981235 0.427819
O O1 0.390742 0.169422 0.669621
O O2 0.283438 0.268874 0.714456
O O3 0.318508 0.393108 0.834660
O O4 0.398378 0.405426 0.551952
O O5 0.443090 0.840368 0.274350
O O6 0.315192 0.940176 0.421410
O O7 0.427217 0.087040 0.202675
O O8 0.531326 0.368195 0.621954
O O9 0.734295 0.648190 0.618585
O O10 0.773530 0.921079 0.554069
O O11 0.864218 0.716758 0.440019
O O12 0.500000 0.144040 0.250000
O O13 0.467507 0.366404 0.202369
O O14 0.000000 0.000000 0.500000
#
# Coordination Sequence:
#
# PCOD9296157 Si02
#       7
#     8   8   4   8   8   8   8
#     4  12  24  40  69 100 132 180 232 273 346 411
#     4  11  26  44  69 100 141 175 228 288 345 403
#     4  12  24  44  68 104 140 174 226 286 344 400
#     4  10  23  44  68  95 133 185 230 274 341 412
#     4  10  25  46  67  95 138 180 225 285 341 401
#     4  11  21  45  68  96 139 180 220 286 347 400
#     4  12  24  41  67 100 134 179 226 277 336 414
#
# _framework density 22.455549999999999
#
# number of rings (size 3 to 8) (size 9 to 14) (size 15 to 20)
#    0.000    0.923    4.615    1.385    4.308    1.846 
#    5.538    0.000    0.000    0.000    0.000    0.000 
#    0.000    0.000    0.000    0.000    0.000    0.000 
#
# Total GULP energy -145248.029875 kJ/mol
# GULP energy per Si atom -5586.462687 kJ/mol
# Density = 2.240444 g / cm^3
# Si number density = 22.455550 Si / 1000 Ang^3
#
#
#
# Elastic Constant Matrix: (Units=GPa)
#
#
# Indices 1 2 3 4 5 6 
#
# 1 118.2648 37.0661 -8.0567 0.0000 22.0058 0.0000
# 2 37.0661 90.3031 6.7939 0.0000 4.4113 0.0000
# 3 -8.0567 6.7939 22.3723 0.0000 -8.0372 0.0000
# 4 0.0000 0.0000 0.0000 22.7812 0.0000 -1.1727
# 5 22.0058 4.4113 -8.0372 0.0000 33.9105 0.0000
# 6 0.0000 0.0000 0.0000 -1.1727 0.0000 25.0720
#
#
#
# Elastic Compliance Matrix: (Units=1/GPa)
#
#
# Indices 1 2 3 4 5 6 
#
# 1 0.011207 -0.004561 0.003302 0.000000 -0.005897 0.000000
# 2 -0.004561 0.013386 -0.005760 0.000000 -0.000147 0.000000
# 3 0.003302 -0.005760 0.051523 0.000000 0.010818 0.000000
# 4 0.000000 0.000000 0.000000 0.044002 0.000000 0.002058
# 5 -0.005897 -0.000147 0.010818 0.000000 0.035899 0.000000
# 6 0.000000 0.000000 0.000000 0.002058 0.000000 0.039981
#
#
# Mechanical properties :
#
#
# Convention : Reuss Voigt Hill
#
# Bulk Modulus (GPa) = 16.10831 33.61630 24.86230
# Shear Modulus (GPa) = 21.67047 29.36186 25.51617
#
# Velocity S-wave (km/s) = 3.10988 3.61994 3.37456
# Velocity P-wave (km/s) = 4.48153 5.69865 5.12634
#
# Compressibility (1/GPa) = 0.06207976
#
# Stress axis : x y z
#
# Youngs Moduli (GPa) = 89.22878 74.70322 19.40880
#
# Poissons Ratio (x) = 0.34069 -0.06410
# Poissons Ratio (y) = 0.40693 0.11180
# Poissons Ratio (z) = -0.29467 0.43031
#
# Static dielectric constant tensor:
#      x y z
#    x 1.745450 0.000000 0.031250 
#    y 0.000000 1.878230 0.000000 
#    z 0.031250 0.000000 1.822930 
# 
# From -- ./inp_files/181056.got.cif
#   From: 2010.05.17/outbox.cif.g08.bks.cpg/sg15_91_cif.got.tgz:181056.got - 2010.06.03 18:47:42.
