data_PCOD9296463
_publ_section_title
;
Structure prediction by ZEFSAII (Michael W. Deem and Ramdas Pophale) SiO2 
 PCOD9296463
Probable space group: C 2/C
;
_chemical_formula_sum "Si O2"
_cell_formula_units_Z 36
_cell_length_a 9.127373
_cell_length_b 11.320232
_cell_length_c 15.644658
_cell_angle_alpha 90.000000
_cell_angle_beta 84.060878
_cell_angle_gamma 90.000000
_cell_volume 1607.791770
_symmetry_space_group_name_H-M "C 2/C"
_symmetry_group_IT_number 15
_symmetry_cell_setting 'monoclinic'
loop_
_space_group_symop_operation_xyz
x,y,z
-x,y,1/2-z
-x,-y,-z
x,-y,1/2+z
1/2+x,1/2+y,z
1/2-x,1/2+y,1/2-z
1/2-x,1/2-y,-z
1/2+x,1/2-y,1/2+z
loop_
_atom_site_type_symbol
_atom_site_label
_atom_site_fract_x
_atom_site_fract_y
_atom_site_fract_z
Si Si1 0.573751 0.172833 0.016427
Si Si2 0.126795 0.070658 0.542441
Si Si3 0.946192 0.308759 0.344628
Si Si4 0.290593 0.879122 0.628121
Si Si5 0.500000 0.038978 0.250000
O O1 0.573666 0.297205 0.067013
O O2 0.558526 0.202160 0.916351
O O3 0.724479 0.102057 0.019935
O O4 0.423423 0.111056 0.052602
O O5 0.181166 0.987853 0.616301
O O6 0.000000 0.000000 0.500000
O O7 0.798893 0.240909 0.378363
O O8 0.933235 0.447004 0.323079
O O9 0.000000 0.256418 0.250000
O O10 0.371174 0.888461 0.713836
#
# Coordination Sequence:
#
# PCOD9296463 Si02
#       5
#     8   8   8   8   4
#     4  11  24  43  71 101 136 171 240 279 327 428
#     4  11  23  38  69 105 127 170 224 282 342 391
#     4  10  23  45  63  98 143 172 229 287 337 411
#     4  12  24  45  70  99 130 193 222 280 352 398
#     4  10  26  42  62  96 142 176 226 282 346 398
#
# _framework density 22.390958999999999
#
# number of rings (size 3 to 8) (size 9 to 14) (size 15 to 20)
#    0.667    0.444    4.444    1.333    0.000    5.333 
#    4.000    0.000    0.000    0.000    0.000    0.000 
#    0.000    0.000    0.000    0.000    0.000    0.000 
#
# Total GULP energy -100451.697309 kJ/mol
# GULP energy per Si atom -5580.649851 kJ/mol
# Density = 2.234000 g / cm^3
# Si number density = 22.390959 Si / 1000 Ang^3
#
#
#
# Elastic Constant Matrix: (Units=GPa)
#
#
# Indices 1 2 3 4 5 6 
#
# 1 127.8136 42.1163 39.4963 0.0000 29.4994 0.0000
# 2 42.1163 70.7018 8.6540 0.0000 19.2772 0.0000
# 3 39.4963 8.6540 78.9101 0.0000 22.3326 0.0000
# 4 0.0000 0.0000 0.0000 26.4398 0.0000 11.5584
# 5 29.4994 19.2772 22.3326 0.0000 41.7223 0.0000
# 6 0.0000 0.0000 0.0000 11.5584 0.0000 52.7055
#
#
#
# Elastic Compliance Matrix: (Units=1/GPa)
#
#
# Indices 1 2 3 4 5 6 
#
# 1 0.011782 -0.005548 -0.004310 0.000000 -0.003461 0.000000
# 2 -0.005548 0.018805 0.002432 0.000000 -0.006068 0.000000
# 3 -0.004310 0.002432 0.016521 0.000000 -0.006920 0.000000
# 4 0.000000 0.000000 0.000000 0.041832 0.000000 -0.009174
# 5 -0.003461 -0.006068 -0.006920 0.000000 0.032922 0.000000
# 6 0.000000 0.000000 0.000000 -0.009174 0.000000 0.020985
#
#
# Mechanical properties :
#
#
# Convention : Reuss Voigt Hill
#
# Bulk Modulus (GPa) = 30.99984 50.88430 40.94207
# Shear Modulus (GPa) = 29.68195 36.65078 33.16637
#
# Velocity S-wave (km/s) = 3.64486 4.05020 3.85286
# Velocity P-wave (km/s) = 5.62034 6.68183 6.17394
#
# Compressibility (1/GPa) = 0.03225823
#
# Stress axis : x y z
#
# Youngs Moduli (GPa) = 84.87302 53.17635 60.52757
#
# Poissons Ratio (x) = 0.29500 0.26084
# Poissons Ratio (y) = 0.47084 -0.14718
# Poissons Ratio (z) = 0.36576 -0.12930
#
# Static dielectric constant tensor:
#      x y z
#    x 1.803350 0.000000 -0.018430 
#    y 0.000000 1.868960 0.000000 
#    z -0.018430 0.000000 1.870270 
# 
# From -- ./inp_files/187677.got.cif
#   From: 2010.05.17/outbox.cif.g08.bks.cpg/sg15_94_cif.got.tgz:187677.got - 2010.06.03 18:47:42.
