data_PCOD9296530
_publ_section_title
;
Structure prediction by ZEFSAII (Michael W. Deem and Ramdas Pophale) SiO2 
 PCOD9296530
Probable space group: C 2/C
;
_chemical_formula_sum "Si O2"
_cell_formula_units_Z 56
_cell_length_a 23.245255
_cell_length_b 9.134116
_cell_length_c 14.109609
_cell_angle_alpha 90.000000
_cell_angle_beta 113.418308
_cell_angle_gamma 90.000000
_cell_volume 2749.047982
_symmetry_space_group_name_H-M "C 2/C"
_symmetry_group_IT_number 15
_symmetry_cell_setting 'monoclinic'
loop_
_space_group_symop_operation_xyz
x,y,z
-x,y,1/2-z
-x,-y,-z
x,-y,1/2+z
1/2+x,1/2+y,z
1/2-x,1/2+y,1/2-z
1/2-x,1/2-y,-z
1/2+x,1/2-y,1/2+z
loop_
_atom_site_type_symbol
_atom_site_label
_atom_site_fract_x
_atom_site_fract_y
_atom_site_fract_z
Si Si1 0.037089 0.814844 0.368008
Si Si2 0.344472 0.834297 0.995380
Si Si3 0.114973 0.555108 0.321766
Si Si4 0.152467 0.001469 0.952479
Si Si5 0.270575 0.499121 0.170023
Si Si6 0.548447 0.896431 0.585859
Si Si7 0.247031 0.838569 0.646871
O O1 0.080242 0.676230 0.363820
O O2 0.083919 0.939745 0.431895
O O3 0.000000 0.862497 0.250000
O O4 0.987767 0.752238 0.410424
O O5 0.337121 0.662053 0.004606
O O6 0.371669 0.912114 0.107067
O O7 0.278850 0.908748 0.924817
O O8 0.392207 0.866234 0.941231
O O9 0.072250 0.534763 0.200757
O O10 0.181848 0.616720 0.331005
O O11 0.165608 0.005798 0.848492
O O12 0.202688 0.110767 0.032493
O O13 0.245299 0.334388 0.163312
O O14 0.274995 0.575499 0.274108
O O15 0.500000 0.000000 0.500000
#
# Coordination Sequence:
#
# PCOD9296530 Si02
#       7
#     8   8   8   8   8   8   8
#     4  10  23  45  67  92 133 187 222 272 339 405
#     4  12  25  42  68 103 134 174 226 285 332 406
#     4  11  22  43  69  95 134 180 222 271 345 399
#     4  12  26  44  68 100 140 177 225 282 341 400
#     4  12  25  43  68 104 138 174 224 274 344 407
#     4  11  24  43  70  97 132 176 232 278 331 408
#     4  12  25  40  72 100 136 182 217 280 344 407
#
# _framework density 20.370688999999999
#
# number of rings (size 3 to 8) (size 9 to 14) (size 15 to 20)
#    0.000    0.571    5.714    2.571    2.000    0.571 
#    2.571    0.000    0.000    0.000    0.000    0.000 
#    0.000    0.000    0.000    0.000    0.000    0.000 
#
# Total GULP energy -156708.096556 kJ/mol
# GULP energy per Si atom -5596.717734 kJ/mol
# Density = 2.032432 g / cm^3
# Si number density = 20.370689 Si / 1000 Ang^3
#
#
#
# Elastic Constant Matrix: (Units=GPa)
#
#
# Indices 1 2 3 4 5 6 
#
# 1 48.0546 -15.8131 14.5400 0.0000 1.7628 0.0000
# 2 -15.8131 81.6752 18.3689 0.0000 2.1860 0.0000
# 3 14.5400 18.3689 59.4136 0.0000 0.2258 0.0000
# 4 0.0000 0.0000 0.0000 27.3932 0.0000 5.2749
# 5 1.7628 2.1860 0.2258 0.0000 35.7239 0.0000
# 6 0.0000 0.0000 0.0000 5.2749 0.0000 28.0226
#
#
#
# Elastic Compliance Matrix: (Units=1/GPa)
#
#
# Indices 1 2 3 4 5 6 
#
# 1 0.025691 0.006911 -0.008418 0.000000 -0.001637 0.000000
# 2 0.006911 0.015039 -0.006336 0.000000 -0.001221 0.000000
# 3 -0.008418 -0.006336 0.020848 0.000000 0.000671 0.000000
# 4 0.000000 0.000000 0.000000 0.037878 0.000000 -0.007130
# 5 -0.001637 -0.001221 0.000671 0.000000 0.028144 0.000000
# 6 0.000000 0.000000 0.000000 -0.007130 0.000000 0.037028
#
#
# Mechanical properties :
#
#
# Convention : Reuss Voigt Hill
#
# Bulk Modulus (GPa) = 21.79039 24.81498 23.30268
# Shear Modulus (GPa) = 25.56095 29.69778 27.62936
#
# Velocity S-wave (km/s) = 3.54615 3.82235 3.68683
# Velocity P-wave (km/s) = 5.24281 5.62926 5.43947
#
# Compressibility (1/GPa) = 0.04589180
#
# Stress axis : x y z
#
# Youngs Moduli (GPa) = 38.92444 66.49203 47.96716
#
# Poissons Ratio (x) = -0.45952 0.40377
# Poissons Ratio (y) = -0.26901 0.30394
# Poissons Ratio (z) = 0.32765 0.42132
#
# Static dielectric constant tensor:
#      x y z
#    x 1.717680 0.000000 -0.008790 
#    y 0.000000 1.695900 0.000000 
#    z -0.008790 0.000000 1.711430 
# 
# From -- ./inp_files/172473.got.cif
#   From: 2010.05.17/outbox.cif.g08.bks.cpg/sg15_87_cif.got.tgz:172473.got - 2010.06.03 18:47:42.
