data_PCOD9296405
_publ_section_title
;
Structure prediction by ZEFSAII (Michael W. Deem and Ramdas Pophale) SiO2 
 PCOD9296405
Probable space group: C 2/C
;
_chemical_formula_sum "Si O2"
_cell_formula_units_Z 44
_cell_length_a 17.861078
_cell_length_b 8.559644
_cell_length_c 26.718872
_cell_angle_alpha 90.000000
_cell_angle_beta 150.860284
_cell_angle_gamma 90.000000
_cell_volume 1989.105322
_symmetry_space_group_name_H-M "C 2/C"
_symmetry_group_IT_number 15
_symmetry_cell_setting 'monoclinic'
loop_
_space_group_symop_operation_xyz
x,y,z
-x,y,1/2-z
-x,-y,-z
x,-y,1/2+z
1/2+x,1/2+y,z
1/2-x,1/2+y,1/2-z
1/2-x,1/2-y,-z
1/2+x,1/2-y,1/2+z
loop_
_atom_site_type_symbol
_atom_site_label
_atom_site_fract_x
_atom_site_fract_y
_atom_site_fract_z
Si Si1 0.795858 0.516943 0.400905
Si Si2 0.929045 0.308030 0.402254
Si Si3 0.101739 0.708170 0.446794
Si Si4 0.595247 0.458004 0.105426
Si Si5 0.500000 0.278782 0.750000
Si Si6 0.550995 0.933574 0.192031
O O1 0.799897 0.418240 0.351698
O O2 0.836641 0.396447 0.469960
O O3 0.639852 0.607733 0.318735
O O4 0.929511 0.650377 0.477865
O O5 0.989992 0.363240 0.385087
O O6 0.878357 0.134545 0.360705
O O7 0.250000 0.750000 0.500000
O O8 0.003778 0.848149 0.415515
O O9 0.994556 0.612436 0.344923
O O10 0.767721 0.402372 0.194752
O O11 0.500000 0.500000 0.000000
O O12 0.537412 0.159708 0.816913
#
# Coordination Sequence:
#
# PCOD9296405 Si02
#       6
#     8   8   8   8   4   8
#     4  10  24  45  68 103 138 188 239 303 360 437
#     4  10  23  44  73  95 138 185 245 287 363 438
#     4  11  27  47  71 110 147 186 248 314 373 438
#     4  12  24  45  75 102 143 194 237 306 372 447
#     4  12  28  42  74 104 152 192 248 308 370 422
#     4  11  28  44  71 105 141 195 247 298 374 446
#
# _framework density 22.120498999999999
#
# number of rings (size 3 to 8) (size 9 to 14) (size 15 to 20)
#    0.000    1.091    1.818    2.182   15.273    2.909 
#    0.000    0.000    0.000    0.000    0.000    0.000 
#    0.000    0.000    0.000    0.000    0.000    0.000 
#
# Total GULP energy -122711.231469 kJ/mol
# GULP energy per Si atom -5577.783249 kJ/mol
# Density = 2.207015 g / cm^3
# Si number density = 22.120499 Si / 1000 Ang^3
#
#
#
# Elastic Constant Matrix: (Units=GPa)
#
#
# Indices 1 2 3 4 5 6 
#
# 1 129.7796 58.1637 7.8919 0.0000 4.8332 0.0000
# 2 58.1637 130.0487 22.1072 0.0001 12.4503 0.0001
# 3 7.8919 22.1072 36.1871 0.0004 15.4329 0.0002
# 4 0.0000 0.0001 0.0004 35.9886 0.0000 2.4476
# 5 4.8332 12.4503 15.4329 0.0000 38.3851 0.0000
# 6 0.0000 0.0001 0.0002 2.4476 0.0000 35.5013
#
#
#
# Elastic Compliance Matrix: (Units=1/GPa)
#
#
# Indices 1 2 3 4 5 6 
#
# 1 0.009648 -0.004416 0.000604 0.000000 -0.000026 0.000000
# 2 -0.004416 0.010622 -0.005183 0.000000 -0.000806 0.000000
# 3 0.000604 -0.005183 0.036189 0.000000 -0.012945 0.000000
# 4 0.000000 0.000000 0.000000 0.027918 0.000000 -0.001925
# 5 -0.000026 -0.000806 -0.012945 0.000000 0.031521 0.000000
# 6 0.000000 0.000000 0.000000 -0.001925 0.000000 0.028301
#
#
# Mechanical properties :
#
#
# Convention : Reuss Voigt Hill
#
# Bulk Modulus (GPa) = 25.99285 52.48233 39.23759
# Shear Modulus (GPa) = 28.56950 35.83182 32.20066
#
# Velocity S-wave (km/s) = 3.59770 4.02910 3.81949
# Velocity P-wave (km/s) = 5.38832 6.73959 6.10148
#
# Compressibility (1/GPa) = 0.03847212
#
# Stress axis : x y z
#
# Youngs Moduli (GPa) = 103.64308 94.14057 27.63237
#
# Poissons Ratio (x) = 0.41568 -0.01670
# Poissons Ratio (y) = 0.45764 0.14321
# Poissons Ratio (z) = -0.06262 0.48791
#
# Static dielectric constant tensor:
#      x y z
#    x 1.789860 0.000000 -0.015780 
#    y 0.000000 2.183270 0.000000 
#    z -0.015780 0.000000 1.856090 
# 
# From -- ./inp_files/315570.got.cif
#   From: 2010.05.17/outbox.cif.g08.bks.cpg/sg15_158_cif.got.tgz:315570.got - 2010.06.03 18:47:42.
