data_PCOD9296742
_publ_section_title
;
Structure prediction by ZEFSAII (Michael W. Deem and Ramdas Pophale) SiO2 
 PCOD9296742
Probable space group: C 2/C
;
_chemical_formula_sum "Si O2"
_cell_formula_units_Z 32
_cell_length_a 6.921733
_cell_length_b 17.660244
_cell_length_c 10.743962
_cell_angle_alpha 90.000000
_cell_angle_beta 67.289276
_cell_angle_gamma 90.000000
_cell_volume 1211.508039
_symmetry_space_group_name_H-M "C 2/C"
_symmetry_group_IT_number 15
_symmetry_cell_setting 'monoclinic'
loop_
_space_group_symop_operation_xyz
x,y,z
-x,y,1/2-z
-x,-y,-z
x,-y,1/2+z
1/2+x,1/2+y,z
1/2-x,1/2+y,1/2-z
1/2-x,1/2-y,-z
1/2+x,1/2-y,1/2+z
loop_
_atom_site_type_symbol
_atom_site_label
_atom_site_fract_x
_atom_site_fract_y
_atom_site_fract_z
Si Si1 0.715048 0.594299 0.355845
Si Si2 0.278744 0.574212 0.582716
Si Si3 0.557471 0.839956 0.940325
Si Si4 0.500000 0.339186 0.250000
Si Si5 0.250000 0.750000 0.000000
O O1 0.470014 0.581524 0.435268
O O2 0.795696 0.511214 0.372844
O O3 0.818294 0.650455 0.435260
O O4 0.798430 0.626839 0.205224
O O5 0.094132 0.616829 0.557770
O O6 0.386423 0.605591 0.679342
O O7 0.518948 0.752173 0.970495
O O8 0.682524 0.285210 0.154750
#
# Coordination Sequence:
#
# PCOD9296742 Si02
#       5
#     8   8   8   4   4
#     4  10  23  45  75 118 149 188 257 312 387 466
#     4  11  25  44  78 111 154 192 248 321 392 444
#     4  11  24  47  74 106 153 204 247 313 377 445
#     4  12  28  50  72 112 148 198 256 310 362 466
#     4  12  28  50  70 102 152 200 264 292 360 466
#
# _framework density 26.413360000000001
#
# number of rings (size 3 to 8) (size 9 to 14) (size 15 to 20)
#    0.000    1.000    2.500    3.000    7.000    6.000 
#    0.000    2.500    0.000    0.000    0.000    0.000 
#    0.000    0.000    0.000    0.000    0.000    0.000 
#
# Total GULP energy -89144.384478 kJ/mol
# GULP energy per Si atom -5571.524030 kJ/mol
# Density = 2.635324 g / cm^3
# Si number density = 26.413360 Si / 1000 Ang^3
#
#
#
# Elastic Constant Matrix: (Units=GPa)
#
#
# Indices 1 2 3 4 5 6 
#
# 1 131.5750 61.8043 37.0833 0.0000 27.0563 0.0000
# 2 61.8043 177.7959 47.3141 0.0000 15.4525 0.0000
# 3 37.0833 47.3141 175.6650 0.0000 -15.5874 0.0000
# 4 0.0000 0.0000 0.0000 18.4053 0.0000 -36.1096
# 5 27.0563 15.4525 -15.5874 0.0000 52.4513 0.0000
# 6 0.0000 0.0000 0.0000 -36.1096 0.0000 16.1417
#
#
#
# Elastic Compliance Matrix: (Units=1/GPa)
#
#
# Indices 1 2 3 4 5 6 
#
# 1 0.010473 -0.002669 -0.001953 0.000000 -0.005196 0.000000
# 2 -0.002669 0.007030 -0.001429 0.000000 -0.001119 0.000000
# 3 -0.001953 -0.001429 0.006796 0.000000 0.003448 0.000000
# 4 0.000000 0.000000 0.000000 -0.016032 0.000000 -0.035865
# 5 -0.005196 -0.001119 0.003448 0.000000 0.023100 0.000000
# 6 0.000000 0.000000 0.000000 -0.035865 0.000000 -0.018281
#
#
# Mechanical properties :
#
#
# Convention : Reuss Voigt Hill
#
# Bulk Modulus (GPa) = 81.99575 86.38215 84.18895
# Shear Modulus (GPa) = 170.91747 39.98862 105.45305
#
# Velocity S-wave (km/s) = 8.05290 3.89518 6.32541
# Velocity P-wave (km/s) = 10.84326 7.28044 9.23529
#
# Compressibility (1/GPa) = 0.01219575
#
# Stress axis : x y z
#
# Youngs Moduli (GPa) = 95.48327 142.25011 147.14823
#
# Poissons Ratio (x) = 0.37970 0.28739
# Poissons Ratio (y) = 0.25486 0.21031
# Poissons Ratio (z) = 0.18648 0.20331
#
# Static dielectric constant tensor:
#      x y z
#    x 2.135940 0.000000 -0.083540 
#    y 0.000000 2.173210 0.000000 
#    z -0.083540 0.000000 2.250810 
# 
# From -- ./inp_files/122877.got.cif
#   From: 2010.05.17/outbox.cif.g08.bks.cpg/sg15_62_cif.got.tgz:122877.got - 2010.06.03 18:47:42.
