data_PCOD9296902
_publ_section_title
;
Structure prediction by ZEFSAII (Michael W. Deem and Ramdas Pophale) SiO2 
 PCOD9296902
Probable space group: C 2/C
;
_chemical_formula_sum "Si O2"
_cell_formula_units_Z 40
_cell_length_a 9.336081
_cell_length_b 21.213445
_cell_length_c 8.812965
_cell_angle_alpha 90.000000
_cell_angle_beta 88.060562
_cell_angle_gamma 90.000000
_cell_volume 1744.411758
_symmetry_space_group_name_H-M "C 2/C"
_symmetry_group_IT_number 15
_symmetry_cell_setting 'monoclinic'
loop_
_space_group_symop_operation_xyz
x,y,z
-x,y,1/2-z
-x,-y,-z
x,-y,1/2+z
1/2+x,1/2+y,z
1/2-x,1/2+y,1/2-z
1/2-x,1/2-y,-z
1/2+x,1/2-y,1/2+z
loop_
_atom_site_type_symbol
_atom_site_label
_atom_site_fract_x
_atom_site_fract_y
_atom_site_fract_z
Si Si1 0.972272 0.152731 0.081245
Si Si2 0.608158 0.546095 0.909317
Si Si3 0.000000 0.726900 0.750000
Si Si4 0.500000 0.897664 0.750000
Si Si5 0.207517 0.498526 0.352703
Si Si6 0.849947 0.637312 0.538688
O O1 0.000000 0.121943 0.250000
O O2 0.029663 0.222899 0.113370
O O3 0.057782 0.115837 0.949461
O O4 0.806251 0.148718 0.033793
O O5 0.652138 0.527125 0.740322
O O6 0.500000 0.500000 0.000000
O O7 0.754870 0.533546 0.993870
O O8 0.120749 0.683187 0.820728
O O9 0.534066 0.856777 0.600541
O O10 0.369499 0.946965 0.737997
O O11 0.130402 0.433804 0.399245
#
# Coordination Sequence:
#
# PCOD9296902 Si02
#       6
#     8   8   4   4   8   8
#     4  10  23  46  71  98 140 179 236 292 340 403
#     4  12  22  41  69 103 134 178 222 291 355 412
#     4  10  27  46  74 100 137 192 246 278 342 410
#     4  12  25  44  66 102 147 186 226 288 360 414
#     4  12  25  40  69 105 144 175 230 285 364 417
#     4  12  24  47  70 100 145 187 233 290 341 424
#
# _framework density 22.930367
#
# number of rings (size 3 to 8) (size 9 to 14) (size 15 to 20)
#    0.600    0.000    4.000    4.800    2.800    0.000 
#    0.000    6.000    0.000    0.000    0.000    0.000 
#    0.000    0.000    0.000    0.000    0.000    0.000 
#
# Total GULP energy -111517.650188 kJ/mol
# GULP energy per Si atom -5575.882509 kJ/mol
# Density = 2.287818 g / cm^3
# Si number density = 22.930367 Si / 1000 Ang^3
#
#
#
# Elastic Constant Matrix: (Units=GPa)
#
#
# Indices 1 2 3 4 5 6 
#
# 1 58.5389 30.0580 41.7176 0.0000 7.3607 0.0000
# 2 30.0580 104.9114 29.1513 0.0000 18.1988 0.0000
# 3 41.7176 29.1513 108.8199 0.0000 15.4785 0.0000
# 4 0.0000 0.0000 0.0000 38.1155 0.0000 6.0613
# 5 7.3607 18.1988 15.4785 0.0000 41.8963 0.0000
# 6 0.0000 0.0000 0.0000 6.0613 0.0000 17.7386
#
#
#
# Elastic Compliance Matrix: (Units=1/GPa)
#
#
# Indices 1 2 3 4 5 6 
#
# 1 0.025754 -0.005137 -0.008624 0.000000 0.000893 0.000000
# 2 -0.005137 0.011879 -0.000641 0.000000 -0.004021 0.000000
# 3 -0.008624 -0.000641 0.013101 0.000000 -0.003046 0.000000
# 4 0.000000 0.000000 0.000000 0.027744 0.000000 -0.009480
# 5 0.000893 -0.004021 -0.003046 0.000000 0.026584 0.000000
# 6 0.000000 0.000000 0.000000 -0.009480 0.000000 0.059614
#
#
# Mechanical properties :
#
#
# Convention : Reuss Voigt Hill
#
# Bulk Modulus (GPa) = 45.60057 52.68046 49.14052
# Shear Modulus (GPa) = 24.90174 30.97297 27.93735
#
# Velocity S-wave (km/s) = 3.29898 3.67923 3.49428
# Velocity P-wave (km/s) = 5.86863 6.40882 6.14466
#
# Compressibility (1/GPa) = 0.02192955
#
# Stress axis : x y z
#
# Youngs Moduli (GPa) = 38.82874 84.18003 76.33217
#
# Poissons Ratio (x) = 0.43246 0.65829
# Poissons Ratio (y) = 0.19948 0.04892
# Poissons Ratio (z) = 0.33486 0.05395
#
# Static dielectric constant tensor:
#      x y z
#    x 1.787360 0.000000 -0.154810 
#    y 0.000000 1.848810 0.000000 
#    z -0.154810 0.000000 1.568360 
# 
# From -- ./inp_files/23685.got.cif
#   From: 2010.05.17/outbox.cif.g08.bks.cpg/sg15_12_cif.got.tgz:23685.got - 2010.06.03 18:47:42.
