data_PCOD9296965
_publ_section_title
;
Structure prediction by ZEFSAII (Michael W. Deem and Ramdas Pophale) SiO2 
 PCOD9296965
Probable space group: C 2/C
;
_chemical_formula_sum "Si O2"
_cell_formula_units_Z 24
_cell_length_a 10.157531
_cell_length_b 11.841040
_cell_length_c 9.280869
_cell_angle_alpha 90.000000
_cell_angle_beta 121.468381
_cell_angle_gamma 90.000000
_cell_volume 952.092648
_symmetry_space_group_name_H-M "C 2/C"
_symmetry_group_IT_number 15
_symmetry_cell_setting 'monoclinic'
loop_
_space_group_symop_operation_xyz
x,y,z
-x,y,1/2-z
-x,-y,-z
x,-y,1/2+z
1/2+x,1/2+y,z
1/2-x,1/2+y,1/2-z
1/2-x,1/2-y,-z
1/2+x,1/2-y,1/2+z
loop_
_atom_site_type_symbol
_atom_site_label
_atom_site_fract_x
_atom_site_fract_y
_atom_site_fract_z
Si Si1 0.644923 0.942785 0.941337
Si Si2 0.454325 0.824165 0.064554
Si Si3 0.469331 0.384403 0.063411
O O1 0.500000 0.938124 0.750000
O O2 0.672172 0.076215 0.989246
O O3 0.594497 0.888948 0.063824
O O4 0.783661 0.874666 0.949666
O O5 0.500000 0.786330 0.250000
O O6 0.433879 0.716356 0.952279
O O7 0.500000 0.392502 0.250000
O O8 0.500000 0.500000 0.000000
#
# Coordination Sequence:
#
# PCOD9296965 Si02
#       3
#     8   8   8
#     4  10  24  49  75 102 145 192 243 293 361 433
#     4  10  23  46  76 102 143 193 240 291 364 428
#     4  12  28  47  71 109 149 185 241 304 361 430
#
# _framework density 25.207633000000001
#
# number of rings (size 3 to 8) (size 9 to 14) (size 15 to 20)
#    0.000    1.333    0.000    3.000   14.000    2.667 
#    0.000    0.000    0.000    0.000    0.000    0.000 
#    0.000    0.000    0.000    0.000    0.000    0.000 
#
# Total GULP energy -67172.494652 kJ/mol
# GULP energy per Si atom -5597.707888 kJ/mol
# Density = 2.515026 g / cm^3
# Si number density = 25.207633 Si / 1000 Ang^3
#
#
#
# Elastic Constant Matrix: (Units=GPa)
#
#
# Indices 1 2 3 4 5 6 
#
# 1 81.4067 10.0056 24.6514 0.0000 -4.8035 0.0000
# 2 10.0056 162.6986 60.9653 0.0000 -19.8721 0.0000
# 3 24.6514 60.9653 166.0271 0.0000 -38.9148 0.0000
# 4 0.0000 0.0000 0.0000 31.9876 0.0000 -21.9508
# 5 -4.8035 -19.8721 -38.9148 0.0000 44.9699 0.0000
# 6 0.0000 0.0000 0.0000 -21.9508 0.0000 24.2043
#
#
#
# Elastic Compliance Matrix: (Units=1/GPa)
#
#
# Indices 1 2 3 4 5 6 
#
# 1 0.012868 -0.000102 -0.001959 0.000000 -0.000366 0.000000
# 2 -0.000102 0.007172 -0.002356 0.000000 0.001120 0.000000
# 3 -0.001959 -0.002356 0.008638 0.000000 0.006225 0.000000
# 4 0.000000 0.000000 0.000000 0.082778 0.000000 0.075071
# 5 -0.000366 0.001120 0.006225 0.000000 0.028079 0.000000
# 6 0.000000 0.000000 0.000000 0.075071 0.000000 0.109397
#
#
# Mechanical properties :
#
#
# Convention : Reuss Voigt Hill
#
# Bulk Modulus (GPa) = 50.39171 66.81967 58.60569
# Shear Modulus (GPa) = 18.91210 41.19970 30.05590
#
# Velocity S-wave (km/s) = 2.74205 4.04717 3.45676
# Velocity P-wave (km/s) = 5.48262 6.95735 6.26354
#
# Compressibility (1/GPa) = 0.01984453
#
# Stress axis : x y z
#
# Youngs Moduli (GPa) = 77.71121 139.42705 115.76628
#
# Poissons Ratio (x) = 0.01422 0.22677
# Poissons Ratio (y) = 0.00793 0.27275
# Poissons Ratio (z) = 0.15223 0.32850
#
# Static dielectric constant tensor:
#      x y z
#    x 2.024990 0.000000 0.043010 
#    y 0.000000 2.075930 0.000000 
#    z 0.043010 0.000000 1.992620 
# 
# From -- ./inp_files/27055.got.cif
#   From: 2010.05.17/outbox.cif.g08.bks.cpg/sg15_14_cif.got.tgz:27055.got - 2010.06.03 18:47:42.
