data_PCOD9296646
_publ_section_title
;
Structure prediction by ZEFSAII (Michael W. Deem and Ramdas Pophale) SiO2 
 PCOD9296646
Probable space group: C 2/C
;
_chemical_formula_sum "Si O2"
_cell_formula_units_Z 24
_cell_length_a 9.024057
_cell_length_b 9.937283
_cell_length_c 9.721942
_cell_angle_alpha 90.000000
_cell_angle_beta 93.568946
_cell_angle_gamma 90.000000
_cell_volume 870.120561
_symmetry_space_group_name_H-M "C 2/C"
_symmetry_group_IT_number 15
_symmetry_cell_setting 'monoclinic'
loop_
_space_group_symop_operation_xyz
x,y,z
-x,y,1/2-z
-x,-y,-z
x,-y,1/2+z
1/2+x,1/2+y,z
1/2-x,1/2+y,1/2-z
1/2-x,1/2-y,-z
1/2+x,1/2-y,1/2+z
loop_
_atom_site_type_symbol
_atom_site_label
_atom_site_fract_x
_atom_site_fract_y
_atom_site_fract_z
Si Si1 0.629468 0.013898 0.840866
Si Si2 0.075592 0.220098 0.470029
Si Si3 0.838464 0.065125 0.603899
O O1 0.500000 0.935852 0.750000
O O2 0.536892 0.138057 0.900658
O O3 0.746414 0.073649 0.737889
O O4 0.729235 0.943548 0.963768
O O5 0.250000 0.250000 0.500000
O O6 0.960581 0.178251 0.581457
O O7 0.081481 0.080701 0.386706
#
# Coordination Sequence:
#
# PCOD9296646 Si02
#       3
#     8   8   8
#     4  11  24  43  71 108 144 196 244 293 370 434
#     4   9  22  43  70 104 139 195 244 290 372 427
#     4  10  23  45  71 103 150 185 242 313 351 434
#
# _framework density 27.582384000000001
#
# number of rings (size 3 to 8) (size 9 to 14) (size 15 to 20)
#    0.000    2.000    0.000    1.000    4.667   12.000 
#   12.000    0.000    0.000    0.000    0.000    0.000 
#    0.000    0.000    0.000    0.000    0.000    0.000 
#
# Total GULP energy -67113.878655 kJ/mol
# GULP energy per Si atom -5592.823221 kJ/mol
# Density = 2.751961 g / cm^3
# Si number density = 27.582384 Si / 1000 Ang^3
#
#
#
# Elastic Constant Matrix: (Units=GPa)
#
#
# Indices 1 2 3 4 5 6 
#
# 1 203.8998 60.1006 124.8698 0.0000 -22.9836 0.0000
# 2 60.1006 137.1978 32.1761 0.0000 -4.3488 0.0000
# 3 124.8698 32.1761 175.5444 0.0000 -6.8410 0.0000
# 4 0.0000 0.0000 0.0000 23.5300 0.0000 -16.6542
# 5 -22.9836 -4.3488 -6.8410 0.0000 81.4162 0.0000
# 6 0.0000 0.0000 0.0000 -16.6542 0.0000 48.9298
#
#
#
# Elastic Compliance Matrix: (Units=1/GPa)
#
#
# Indices 1 2 3 4 5 6 
#
# 1 0.009914 -0.002760 -0.006464 0.000000 0.002108 0.000000
# 2 -0.002760 0.008391 0.000414 0.000000 -0.000296 0.000000
# 3 -0.006464 0.000414 0.010182 0.000000 -0.000947 0.000000
# 4 0.000000 0.000000 0.000000 0.055987 0.000000 0.019056
# 5 0.002108 -0.000296 -0.000947 0.000000 0.012782 0.000000
# 6 0.000000 0.000000 0.000000 0.019056 0.000000 0.026924
#
#
# Mechanical properties :
#
#
# Convention : Reuss Voigt Hill
#
# Bulk Modulus (GPa) = 92.02670 105.65947 98.84308
# Shear Modulus (GPa) = 34.38220 50.74155 42.56187
#
# Velocity S-wave (km/s) = 3.53445 4.29375 3.93247
# Velocity P-wave (km/s) = 7.07765 7.93547 7.51881
#
# Compressibility (1/GPa) = 0.01086641
#
# Stress axis : x y z
#
# Youngs Moduli (GPa) = 100.86351 119.16887 98.21201
#
# Poissons Ratio (x) = 0.32893 0.63487
# Poissons Ratio (y) = 0.27841 -0.04064
# Poissons Ratio (z) = 0.65201 -0.04931
#
# Static dielectric constant tensor:
#      x y z
#    x 2.171830 0.000000 0.088790 
#    y 0.000000 2.226580 0.000000 
#    z 0.088790 0.000000 2.298670 
# 
# From -- ./inp_files/74782.got.cif
#   From: 2010.05.17/outbox.cif.g08.bks.cpg/sg15_38_cif.got.tgz:74782.got - 2010.06.03 18:47:42.
