data_PCOD9296963
_publ_section_title
;
Structure prediction by ZEFSAII (Michael W. Deem and Ramdas Pophale) SiO2 
 PCOD9296963
Probable space group: C 2/C
;
_chemical_formula_sum "Si O2"
_cell_formula_units_Z 32
_cell_length_a 9.271081
_cell_length_b 11.419675
_cell_length_c 10.926101
_cell_angle_alpha 90.000000
_cell_angle_beta 80.606112
_cell_angle_gamma 90.000000
_cell_volume 1141.263306
_symmetry_space_group_name_H-M "C 2/C"
_symmetry_group_IT_number 15
_symmetry_cell_setting 'monoclinic'
loop_
_space_group_symop_operation_xyz
x,y,z
-x,y,1/2-z
-x,-y,-z
x,-y,1/2+z
1/2+x,1/2+y,z
1/2-x,1/2+y,1/2-z
1/2-x,1/2-y,-z
1/2+x,1/2-y,1/2+z
loop_
_atom_site_type_symbol
_atom_site_label
_atom_site_fract_x
_atom_site_fract_y
_atom_site_fract_z
Si Si1 0.107871 0.102901 0.829908
Si Si2 0.122299 0.527131 0.831454
Si Si3 0.918128 0.264973 0.010119
Si Si4 0.162706 0.860260 0.571296
O O1 0.263354 0.120144 0.745881
O O2 0.990372 0.214164 0.617029
O O3 0.146228 0.049359 0.957814
O O4 0.000000 0.038478 0.750000
O O5 0.000000 0.497297 0.750000
O O6 0.061432 0.601340 0.953843
O O7 0.231218 0.421283 0.848155
O O8 0.998673 0.190672 0.107137
O O9 0.750000 0.250000 0.000000
O O10 0.250000 0.750000 0.500000
#
# Coordination Sequence:
#
# PCOD9296963 Si02
#       4
#     8   8   8   8
#     4  10  23  46  75 118 162 207 281 343 430 500
#     4  12  25  47  84 117 173 238 272 345 446 491
#     4  10  23  47  80 113 169 204 288 355 416 511
#     4  10  25  48  70 118 166 209 291 347 397 534
#
# _framework density 28.039102
#
# number of rings (size 3 to 8) (size 9 to 14) (size 15 to 20)
#    1.500    0.000    2.500    1.500    0.000    9.000 
#    4.500    3.750    0.000    0.000    0.000    0.000 
#    0.000    0.000    0.000    0.000    0.000    0.000 
#
# Total GULP energy -89348.000654 kJ/mol
# GULP energy per Si atom -5584.250041 kJ/mol
# Density = 2.797528 g / cm^3
# Si number density = 28.039102 Si / 1000 Ang^3
#
#
#
# Elastic Constant Matrix: (Units=GPa)
#
#
# Indices 1 2 3 4 5 6 
#
# 1 279.6551 107.5578 75.4371 0.0000 58.7661 0.0000
# 2 107.5578 154.7165 51.2367 0.0000 13.1625 0.0000
# 3 75.4371 51.2367 80.2900 0.0000 42.7690 0.0000
# 4 0.0000 0.0000 0.0000 19.7937 0.0000 12.3416
# 5 58.7661 13.1625 42.7690 0.0000 69.3460 0.0000
# 6 0.0000 0.0000 0.0000 12.3416 0.0000 58.2808
#
#
#
# Elastic Compliance Matrix: (Units=1/GPa)
#
#
# Indices 1 2 3 4 5 6 
#
# 1 0.006045 -0.003341 -0.001723 0.000000 -0.003426 0.000000
# 2 -0.003341 0.010340 -0.005841 0.000000 0.004471 0.000000
# 3 -0.001723 -0.005841 0.024473 0.000000 -0.012525 0.000000
# 4 0.000000 0.000000 0.000000 0.058206 0.000000 -0.012326
# 5 -0.003426 0.004471 -0.012525 0.000000 0.024200 0.000000
# 6 0.000000 0.000000 0.000000 -0.012326 0.000000 0.019768
#
#
# Mechanical properties :
#
#
# Convention : Reuss Voigt Hill
#
# Bulk Modulus (GPa) = 52.49754 109.23611 80.86682
# Shear Modulus (GPa) = 29.20687 48.17943 38.69315
#
# Velocity S-wave (km/s) = 3.23096 4.14973 3.71883
# Velocity P-wave (km/s) = 5.71685 7.87422 6.88062
#
# Compressibility (1/GPa) = 0.01904851
#
# Stress axis : x y z
#
# Youngs Moduli (GPa) = 165.41247 96.71311 40.86125
#
# Poissons Ratio (x) = 0.32308 0.07041
# Poissons Ratio (y) = 0.55258 0.23868
# Poissons Ratio (z) = 0.28503 0.56492
#
# Static dielectric constant tensor:
#      x y z
#    x 2.170690 0.000000 -0.014910 
#    y 0.000000 2.269030 0.000000 
#    z -0.014910 0.000000 2.361690 
# 
# From -- ./inp_files/132011.got.cif
#   From: 2010.05.17/outbox.cif.g08.bks.cpg/sg15_67_cif.got.tgz:132011.got - 2010.06.03 18:47:42.
