data_PCOD9296520
_publ_section_title
;
Structure prediction by ZEFSAII (Michael W. Deem and Ramdas Pophale) SiO2 
 PCOD9296520
Probable space group: C 2/C
;
_chemical_formula_sum "Si O2"
_cell_formula_units_Z 44
_cell_length_a 7.037538
_cell_length_b 14.432919
_cell_length_c 19.052854
_cell_angle_alpha 90.000000
_cell_angle_beta 78.257263
_cell_angle_gamma 90.000000
_cell_volume 1894.738489
_symmetry_space_group_name_H-M "C 2/C"
_symmetry_group_IT_number 15
_symmetry_cell_setting 'monoclinic'
loop_
_space_group_symop_operation_xyz
x,y,z
-x,y,1/2-z
-x,-y,-z
x,-y,1/2+z
1/2+x,1/2+y,z
1/2-x,1/2+y,1/2-z
1/2-x,1/2-y,-z
1/2+x,1/2-y,1/2+z
loop_
_atom_site_type_symbol
_atom_site_label
_atom_site_fract_x
_atom_site_fract_y
_atom_site_fract_z
Si Si1 0.876482 0.104795 0.580257
Si Si2 0.226945 0.703334 0.728763
Si Si3 0.500000 0.140494 0.250000
Si Si4 0.281393 0.106495 0.625613
Si Si5 0.079821 0.551439 0.106197
Si Si6 0.031498 0.282653 0.501958
O O1 0.770367 0.140896 0.658432
O O2 0.758563 0.013157 0.565832
O O3 0.096753 0.088363 0.590054
O O4 0.897078 0.192705 0.525561
O O5 0.354263 0.795333 0.717007
O O6 0.282510 0.652312 0.797071
O O7 0.000000 0.723614 0.750000
O O8 0.622706 0.087602 0.181464
O O9 0.393734 0.012741 0.630187
O O10 0.441279 0.173728 0.576824
O O11 0.015613 0.632340 0.057812
O O12 0.250000 0.250000 0.500000
#
# Coordination Sequence:
#
# PCOD9296520 Si02
#       6
#     8   8   4   8   8   8
#     4  11  23  45  70  95 139 177 225 283 344 405
#     4  12  22  43  69  99 131 181 223 280 348 402
#     4  12  24  42  68  96 142 172 228 288 334 412
#     4  11  23  41  70  98 135 175 226 281 341 409
#     4  12  24  42  68 103 134 180 230 278 339 421
#     4  10  23  45  66  99 138 179 222 284 345 403
#
# _framework density 23.222200999999998
#
# number of rings (size 3 to 8) (size 9 to 14) (size 15 to 20)
#    0.000    0.727    5.455    2.727    0.000    5.091 
#    0.000    0.000    0.000    0.000    0.000    0.000 
#    0.000    0.000    0.000    0.000    0.000    0.000 
#
# Total GULP energy -123021.044437 kJ/mol
# GULP energy per Si atom -5591.865656 kJ/mol
# Density = 2.316935 g / cm^3
# Si number density = 23.222201 Si / 1000 Ang^3
#
#
#
# Elastic Constant Matrix: (Units=GPa)
#
#
# Indices 1 2 3 4 5 6 
#
# 1 85.5169 18.8269 -8.1053 0.0000 -6.4150 0.0000
# 2 18.8269 101.3321 29.8812 0.0000 -7.9285 0.0000
# 3 -8.1053 29.8812 113.6395 0.0000 -9.8344 0.0000
# 4 0.0000 0.0000 0.0000 34.5641 0.0000 -6.2074
# 5 -6.4150 -7.9285 -9.8344 0.0000 34.8334 0.0000
# 6 0.0000 0.0000 0.0000 -6.2074 0.0000 35.7143
#
#
#
# Elastic Compliance Matrix: (Units=1/GPa)
#
#
# Indices 1 2 3 4 5 6 
#
# 1 0.012626 -0.002704 0.001804 0.000000 0.002219 0.000000
# 2 -0.002704 0.011374 -0.003078 0.000000 0.001222 0.000000
# 3 0.001804 -0.003078 0.009949 0.000000 0.002440 0.000000
# 4 0.000000 0.000000 0.000000 0.029864 0.000000 0.005191
# 5 0.002219 0.001222 0.002440 0.000000 0.030084 0.000000
# 6 0.000000 0.000000 0.000000 0.005191 0.000000 0.028902
#
#
# Mechanical properties :
#
#
# Convention : Reuss Voigt Hill
#
# Bulk Modulus (GPa) = 38.47251 42.41045 40.44148
# Shear Modulus (GPa) = 35.86276 38.34808 37.10542
#
# Velocity S-wave (km/s) = 3.93406 4.06809 4.00164
# Velocity P-wave (km/s) = 6.10237 6.35361 6.22926
#
# Compressibility (1/GPa) = 0.02599259
#
# Stress axis : x y z
#
# Youngs Moduli (GPa) = 79.19954 87.91827 100.51335
#
# Poissons Ratio (x) = 0.23774 -0.18129
# Poissons Ratio (y) = 0.21417 0.30937
# Poissons Ratio (z) = -0.14285 0.27061
#
# Static dielectric constant tensor:
#      x y z
#    x 1.867140 0.000000 -0.045320 
#    y 0.000000 1.916400 0.000000 
#    z -0.045320 0.000000 1.748750 
# 
# From -- ./inp_files/230120.got.cif
#   From: 2010.05.17/outbox.cif.g08.bks.cpg/sg15_116_cif.got.tgz:230120.got - 2010.06.03 18:47:42.
