data_PCOD9296298
_publ_section_title
;
Structure prediction by ZEFSAII (Michael W. Deem and Ramdas Pophale) SiO2 
 PCOD9296298
Probable space group: C 2/C
;
_chemical_formula_sum "Si O2"
_cell_formula_units_Z 56
_cell_length_a 8.564466
_cell_length_b 19.514773
_cell_length_c 15.286033
_cell_angle_alpha 90.000000
_cell_angle_beta 75.089424
_cell_angle_gamma 90.000000
_cell_volume 2468.785850
_symmetry_space_group_name_H-M "C 2/C"
_symmetry_group_IT_number 15
_symmetry_cell_setting 'monoclinic'
loop_
_space_group_symop_operation_xyz
x,y,z
-x,y,1/2-z
-x,-y,-z
x,-y,1/2+z
1/2+x,1/2+y,z
1/2-x,1/2+y,1/2-z
1/2-x,1/2-y,-z
1/2+x,1/2-y,1/2+z
loop_
_atom_site_type_symbol
_atom_site_label
_atom_site_fract_x
_atom_site_fract_y
_atom_site_fract_z
Si Si1 0.860334 0.714047 0.703721
Si Si2 0.210554 0.675829 0.352166
Si Si3 0.529092 0.603887 0.061487
Si Si4 0.186539 0.924115 0.237980
Si Si5 0.562201 0.030320 0.339876
Si Si6 0.774307 0.006023 0.587071
Si Si7 0.062218 0.758788 0.999583
O O1 0.775602 0.778885 0.762319
O O2 0.733746 0.653183 0.709680
O O3 0.939210 0.731859 0.599906
O O4 0.000000 0.690107 0.750000
O O5 0.364963 0.646130 0.383822
O O6 0.119446 0.607397 0.337985
O O7 0.079157 0.720405 0.426058
O O8 0.368609 0.561272 0.110011
O O9 0.477682 0.660551 0.997790
O O10 0.638022 0.544614 0.003985
O O11 0.225874 0.940073 0.333436
O O12 0.000000 0.937725 0.250000
O O13 0.295137 0.976474 0.166700
O O14 0.500000 0.019787 0.250000
O O15 0.403054 0.014921 0.417743
O O16 0.250000 0.750000 0.000000
#
# Coordination Sequence:
#
# PCOD9296298 Si02
#       7
#     8   8   8   8   8   8   8
#     4  12  28  47  74 105 147 196 240 307 372 446
#     4  12  27  46  75 103 149 191 250 304 380 442
#     4  11  24  45  71 102 144 191 235 310 363 446
#     4  11  25  43  70 101 142 189 243 295 371 437
#     4  10  24  44  73 101 142 189 239 303 368 451
#     4  10  23  44  71 102 144 184 246 296 370 437
#     4  12  29  46  72 108 146 189 252 307 375 444
#
# _framework density 22.683216000000002
#
# number of rings (size 3 to 8) (size 9 to 14) (size 15 to 20)
#    0.000    0.857    1.429    4.286   14.000    1.143 
#    0.000    0.000    0.000    0.000    0.000    0.000 
#    0.000    0.000    0.000    0.000    0.000    0.000 
#
# Total GULP energy -156648.709974 kJ/mol
# GULP energy per Si atom -5594.596785 kJ/mol
# Density = 2.263159 g / cm^3
# Si number density = 22.683216 Si / 1000 Ang^3
#
#
#
# Elastic Constant Matrix: (Units=GPa)
#
#
# Indices 1 2 3 4 5 6 
#
# 1 102.3254 34.0050 4.0336 0.0000 -24.0034 0.0000
# 2 34.0050 125.9156 1.6990 0.0000 -19.6148 0.0000
# 3 4.0336 1.6990 46.3659 0.0000 -11.3955 0.0000
# 4 0.0000 0.0000 0.0000 27.9118 0.0000 -1.8041
# 5 -24.0034 -19.6148 -11.3955 0.0000 34.3427 0.0000
# 6 0.0000 0.0000 0.0000 -1.8041 0.0000 43.6320
#
#
#
# Elastic Compliance Matrix: (Units=1/GPa)
#
#
# Indices 1 2 3 4 5 6 
#
# 1 0.012235 -0.002127 0.000889 0.000000 0.007631 0.000000
# 2 -0.002127 0.009129 0.000835 0.000000 0.004004 0.000000
# 3 0.000889 0.000835 0.023659 0.000000 0.008949 0.000000
# 4 0.000000 0.000000 0.000000 0.035923 0.000000 0.001485
# 5 0.007631 0.004004 0.008949 0.000000 0.039708 0.000000
# 6 0.000000 0.000000 0.000000 0.001485 0.000000 0.022980
#
#
# Mechanical properties :
#
#
# Convention : Reuss Voigt Hill
#
# Bulk Modulus (GPa) = 22.61653 39.34247 30.97950
# Shear Modulus (GPa) = 31.41098 36.83525 34.12311
#
# Velocity S-wave (km/s) = 3.72528 4.03413 3.88278
# Velocity P-wave (km/s) = 5.33815 6.25148 5.81278
#
# Compressibility (1/GPa) = 0.04421546
#
# Stress axis : x y z
#
# Youngs Moduli (GPa) = 81.73391 109.54325 42.26728
#
# Poissons Ratio (x) = 0.23304 -0.03758
# Poissons Ratio (y) = 0.17388 -0.03528
# Poissons Ratio (z) = -0.07268 -0.09143
#
# Static dielectric constant tensor:
#      x y z
#    x 1.939170 0.000000 -0.043240 
#    y 0.000000 1.797050 0.000000 
#    z -0.043240 0.000000 1.898570 
# 
# From -- ./inp_files/190890.got.cif
#   From: 2010.05.17/outbox.cif.g08.bks.cpg/sg15_96_cif.got.tgz:190890.got - 2010.06.03 18:47:42.
