data_PCOD9296538
_publ_section_title
;
Structure prediction by ZEFSAII (Michael W. Deem and Ramdas Pophale) SiO2 
 PCOD9296538
Probable space group: C 2/C
;
_chemical_formula_sum "Si O2"
_cell_formula_units_Z 48
_cell_length_a 9.385495
_cell_length_b 17.653278
_cell_length_c 21.249846
_cell_angle_alpha 90.000000
_cell_angle_beta 40.896902
_cell_angle_gamma 90.000000
_cell_volume 2305.051503
_symmetry_space_group_name_H-M "C 2/C"
_symmetry_group_IT_number 15
_symmetry_cell_setting 'monoclinic'
loop_
_space_group_symop_operation_xyz
x,y,z
-x,y,1/2-z
-x,-y,-z
x,-y,1/2+z
1/2+x,1/2+y,z
1/2-x,1/2+y,1/2-z
1/2-x,1/2-y,-z
1/2+x,1/2-y,1/2+z
loop_
_atom_site_type_symbol
_atom_site_label
_atom_site_fract_x
_atom_site_fract_y
_atom_site_fract_z
Si Si1 0.629082 0.818893 0.572719
Si Si2 0.991653 0.013763 0.427818
Si Si3 0.163893 0.258993 0.254355
Si Si4 0.343283 0.417908 0.242260
Si Si5 0.969030 0.491149 0.936524
Si Si6 0.238167 0.839978 0.839198
O O1 0.750000 0.750000 0.500000
O O2 0.386232 0.785609 0.663338
O O3 0.589093 0.903680 0.559954
O O4 0.792133 0.829166 0.577219
O O5 0.171740 0.074654 0.348204
O O6 0.744628 0.041388 0.504351
O O7 0.000000 0.000000 0.500000
O O8 0.029187 0.949466 0.361820
O O9 0.221833 0.343326 0.257669
O O10 0.101941 0.213561 0.338731
O O11 0.000000 0.257203 0.250000
O O12 0.500000 0.399684 0.250000
O O13 0.170230 0.478148 0.328409
O O14 0.000000 0.500000 0.000000
O O15 0.500000 0.828066 0.750000
#
# Coordination Sequence:
#
# PCOD9296538 Si02
#       6
#     8   8   8   8   8   8
#     4  11  24  45  70  98 145 186 234 285 364 437
#     4  12  26  44  73 105 139 183 239 293 364 423
#     4  11  27  43  70 101 136 188 238 297 364 423
#     4  12  26  48  71 101 148 189 238 302 362 435
#     4  12  27  44  74 112 140 189 244 300 362 436
#     4  10  23  45  67  95 139 188 227 288 362 429
#
# _framework density 20.823830999999998
#
# number of rings (size 3 to 8) (size 9 to 14) (size 15 to 20)
#    0.000    0.667    3.333    4.500    7.000    1.333 
#    0.000    1.667    0.000    0.000    0.000    0.000 
#    0.000    0.000    0.000    0.000    0.000    0.000 
#
# Total GULP energy -133658.903027 kJ/mol
# GULP energy per Si atom -5569.120959 kJ/mol
# Density = 2.077643 g / cm^3
# Si number density = 20.823831 Si / 1000 Ang^3
#
#
#
# Elastic Constant Matrix: (Units=GPa)
#
#
# Indices 1 2 3 4 5 6 
#
# 1 200.9417 55.5464 40.1038 -0.0009 29.7319 -0.0023
# 2 55.5464 116.8246 32.6101 -0.0047 23.8948 0.0001
# 3 40.1038 32.6101 74.8119 -0.0075 18.4668 -0.0017
# 4 -0.0009 -0.0047 -0.0075 32.7667 0.0009 -0.0350
# 5 29.7319 23.8948 18.4668 0.0009 32.6589 0.0014
# 6 -0.0023 0.0001 -0.0017 -0.0350 0.0014 33.4723
#
#
#
# Elastic Compliance Matrix: (Units=1/GPa)
#
#
# Indices 1 2 3 4 5 6 
#
# 1 0.006340 -0.001819 -0.001754 0.000000 -0.003449 0.000000
# 2 -0.001819 0.011197 -0.002664 0.000001 -0.005030 0.000000
# 3 -0.001754 -0.002664 0.016960 0.000004 -0.006044 0.000001
# 4 0.000000 0.000001 0.000004 0.030519 -0.000003 0.000032
# 5 -0.003449 -0.005030 -0.006044 -0.000003 0.040857 -0.000002
# 6 0.000000 0.000000 0.000001 0.000032 -0.000002 0.029875
#
#
# Mechanical properties :
#
#
# Convention : Reuss Voigt Hill
#
# Bulk Modulus (GPa) = 45.40838 72.12211 58.76524
# Shear Modulus (GPa) = 32.14102 37.40078 34.77090
#
# Velocity S-wave (km/s) = 3.93297 4.24259 4.09071
# Velocity P-wave (km/s) = 6.51749 7.66218 7.11290
#
# Compressibility (1/GPa) = 0.02202237
#
# Stress axis : x y z
#
# Youngs Moduli (GPa) = 157.73185 89.30733 58.96099
#
# Poissons Ratio (x) = 0.16248 0.10343
# Poissons Ratio (y) = 0.28697 0.15707
# Poissons Ratio (z) = 0.27670 0.23791
#
# Static dielectric constant tensor:
#      x y z
#    x 1.631000 0.000010 -0.014790 
#    y 0.000010 1.635750 0.000010 
#    z -0.014790 0.000010 1.816510 
# 
# From -- ./inp_files/232477.got.cif
#   From: 2010.05.17/outbox.cif.g08.bks.cpg/sg15_117_cif.got.tgz:232477.got - 2010.06.03 18:47:42.
