data_PCOD9296131
_publ_section_title
;
Structure prediction by ZEFSAII (Michael W. Deem and Ramdas Pophale) SiO2 
 PCOD9296131
Probable space group: C 2/C
;
_chemical_formula_sum "Si O2"
_cell_formula_units_Z 36
_cell_length_a 17.467993
_cell_length_b 17.147932
_cell_length_c 7.677741
_cell_angle_alpha 90.000000
_cell_angle_beta 136.272747
_cell_angle_gamma 90.000000
_cell_volume 1589.675278
_symmetry_space_group_name_H-M "C 2/C"
_symmetry_group_IT_number 15
_symmetry_cell_setting 'monoclinic'
loop_
_space_group_symop_operation_xyz
x,y,z
-x,y,1/2-z
-x,-y,-z
x,-y,1/2+z
1/2+x,1/2+y,z
1/2-x,1/2+y,1/2-z
1/2-x,1/2-y,-z
1/2+x,1/2-y,1/2+z
loop_
_atom_site_type_symbol
_atom_site_label
_atom_site_fract_x
_atom_site_fract_y
_atom_site_fract_z
Si Si1 0.132577 0.888949 0.505296
Si Si2 0.427659 0.069603 0.963963
Si Si3 0.428110 0.243114 0.953787
Si Si4 0.000000 0.151843 0.250000
Si Si5 0.189242 0.047781 0.728217
O O1 0.166532 0.803767 0.633493
O O2 0.191533 0.912408 0.421866
O O3 0.000000 0.890912 0.250000
O O4 0.151109 0.958154 0.672731
O O5 0.500000 0.086486 0.250000
O O6 0.409331 0.155796 0.851889
O O7 0.307441 0.044281 0.830127
O O8 0.500000 0.000000 0.000000
O O9 0.480615 0.293238 0.884856
O O10 0.500000 0.237463 0.250000
O O11 0.102476 0.096990 0.471653
#
# Coordination Sequence:
#
# PCOD9296131 Si02
#       5
#     8   8   8   4   8
#     4  11  20  40  65 110 141 169 236 299 361 415
#     4  11  27  50  66  98 145 199 243 279 354 435
#     4  10  23  44  68 102 146 181 239 295 348 431
#     4  12  22  42  74 110 140 178 240 306 370 404
#     4  12  23  40  74 104 143 191 228 300 363 420
#
# _framework density 22.646135999999998
#
# number of rings (size 3 to 8) (size 9 to 14) (size 15 to 20)
#    0.000    0.889    5.556    3.333    1.556    1.778 
#    4.000    0.000    0.000    0.000    0.000    0.000 
#    0.000    0.000    0.000    0.000    0.000    0.000 
#
# Total GULP energy -100360.694738 kJ/mol
# GULP energy per Si atom -5575.594152 kJ/mol
# Density = 2.259459 g / cm^3
# Si number density = 22.646136 Si / 1000 Ang^3
#
#
#
# Elastic Constant Matrix: (Units=GPa)
#
#
# Indices 1 2 3 4 5 6 
#
# 1 140.0084 72.3633 32.9704 0.0000 -4.9110 0.0000
# 2 72.3633 223.0597 20.8728 0.0000 0.6760 0.0000
# 3 32.9704 20.8728 52.3638 0.0000 2.5690 0.0000
# 4 0.0000 0.0000 0.0000 9.8472 0.0000 -10.6690
# 5 -4.9110 0.6760 2.5690 0.0000 42.3583 0.0000
# 6 0.0000 0.0000 0.0000 -10.6690 0.0000 67.0409
#
#
#
# Elastic Compliance Matrix: (Units=1/GPa)
#
#
# Indices 1 2 3 4 5 6 
#
# 1 0.009810 -0.002703 -0.005173 0.000000 0.001494 0.000000
# 2 -0.002703 0.005402 -0.000433 0.000000 -0.000373 0.000000
# 3 -0.005173 -0.000433 0.022623 0.000000 -0.001965 0.000000
# 4 0.000000 0.000000 0.000000 0.122710 0.000000 0.019528
# 5 0.001494 -0.000373 -0.001965 0.000000 0.023906 0.000000
# 6 0.000000 0.000000 0.000000 0.019528 0.000000 0.018024
#
#
# Mechanical properties :
#
#
# Convention : Reuss Voigt Hill
#
# Bulk Modulus (GPa) = 47.13074 74.20498 60.66786
# Shear Modulus (GPa) = 22.10779 43.13097 32.61938
#
# Velocity S-wave (km/s) = 3.12785 4.36886 3.79937
# Velocity P-wave (km/s) = 5.82251 7.63463 6.78930
#
# Compressibility (1/GPa) = 0.02121757
#
# Stress axis : x y z
#
# Youngs Moduli (GPa) = 101.93714 185.12948 44.20272
#
# Poissons Ratio (x) = 0.50040 0.22864
# Poissons Ratio (y) = 0.27553 0.01914
# Poissons Ratio (z) = 0.52728 0.08015
#
# Static dielectric constant tensor:
#      x y z
#    x 1.876990 0.000000 -0.044830 
#    y 0.000000 2.057160 0.000000 
#    z -0.044830 0.000000 1.870880 
# 
# From -- ./inp_files/48838.got.cif
#   From: 2010.05.17/outbox.cif.g08.bks.cpg/sg15_25_cif.got.tgz:48838.got - 2010.06.03 18:47:42.
