data_PCOD9296493
_publ_section_title
;
Structure prediction by ZEFSAII (Michael W. Deem and Ramdas Pophale) SiO2 
 PCOD9296493
Probable space group: C 2/C
;
_chemical_formula_sum "Si O2"
_cell_formula_units_Z 56
_cell_length_a 11.454607
_cell_length_b 9.073786
_cell_length_c 26.152983
_cell_angle_alpha 90.000000
_cell_angle_beta 110.501123
_cell_angle_gamma 90.000000
_cell_volume 2546.093807
_symmetry_space_group_name_H-M "C 2/C"
_symmetry_group_IT_number 15
_symmetry_cell_setting 'monoclinic'
loop_
_space_group_symop_operation_xyz
x,y,z
-x,y,1/2-z
-x,-y,-z
x,-y,1/2+z
1/2+x,1/2+y,z
1/2-x,1/2+y,1/2-z
1/2-x,1/2-y,-z
1/2+x,1/2-y,1/2+z
loop_
_atom_site_type_symbol
_atom_site_label
_atom_site_fract_x
_atom_site_fract_y
_atom_site_fract_z
Si Si1 0.425463 0.256771 0.625948
Si Si2 0.031183 0.341007 0.481969
Si Si3 0.774952 0.812880 0.928622
Si Si4 0.952374 0.100512 0.607308
Si Si5 0.313679 0.632048 0.927759
Si Si6 0.395389 0.403685 0.273724
Si Si7 0.805457 0.802633 0.809868
O O1 0.442326 0.175233 0.574122
O O2 0.413278 0.432889 0.614879
O O3 0.295363 0.192469 0.626001
O O4 0.555240 0.234125 0.675076
O O5 0.144924 0.262233 0.528370
O O6 0.000000 0.500000 0.500000
O O7 0.903896 0.249902 0.468917
O O8 0.661708 0.704988 0.924189
O O9 0.783133 0.816327 0.867497
O O10 0.766010 0.980863 0.945592
O O11 0.058961 0.090499 0.581273
O O12 0.023724 0.165022 0.667830
O O13 0.500000 0.459779 0.250000
O O14 0.302378 0.292743 0.231824
O O15 0.318186 0.538040 0.286003
#
# Coordination Sequence:
#
# PCOD9296493 Si02
#       7
#     8   8   8   8   8   8   8
#     4  10  24  46  64  96 139 169 222 277 321 400
#     4  11  24  44  67  98 134 178 221 270 334 392
#     4  11  23  44  67  96 134 167 222 276 322 387
#     4  11  24  44  68  96 133 174 218 276 333 388
#     4  12  24  43  70  95 133 175 222 267 331 393
#     4  11  22  43  68  94 133 173 212 270 332 390
#     4  10  23  45  65  98 132 167 218 271 322 394
#
# _framework density 21.994477
#
# number of rings (size 3 to 8) (size 9 to 14) (size 15 to 20)
#    0.000    1.143    5.714    1.714    2.000    4.000 
#    2.571    0.000    0.000    0.000    0.000    0.000 
#    0.000    0.000    0.000    0.000    0.000    0.000 
#
# Total GULP energy -156515.072945 kJ/mol
# GULP energy per Si atom -5589.824034 kJ/mol
# Density = 2.194442 g / cm^3
# Si number density = 21.994477 Si / 1000 Ang^3
#
#
#
# Elastic Constant Matrix: (Units=GPa)
#
#
# Indices 1 2 3 4 5 6 
#
# 1 96.2389 48.0861 9.1429 0.0000 27.8590 0.0000
# 2 48.0861 103.9923 20.4295 0.0000 22.4705 0.0000
# 3 9.1429 20.4295 67.3853 0.0000 14.9827 0.0000
# 4 0.0000 0.0000 0.0000 33.1800 0.0000 12.4274
# 5 27.8590 22.4705 14.9827 0.0000 33.9855 0.0000
# 6 0.0000 0.0000 0.0000 12.4274 0.0000 34.8551
#
#
#
# Elastic Compliance Matrix: (Units=1/GPa)
#
#
# Indices 1 2 3 4 5 6 
#
# 1 0.015927 -0.005511 0.001777 0.000000 -0.010195 0.000000
# 2 -0.005511 0.013360 -0.002598 0.000000 -0.003171 0.000000
# 3 0.001777 -0.002598 0.016994 0.000000 -0.007231 0.000000
# 4 0.000000 0.000000 0.000000 0.034784 0.000000 -0.012402
# 5 -0.010195 -0.003171 -0.007231 0.000000 0.043066 0.000000
# 6 0.000000 0.000000 0.000000 -0.012402 0.000000 0.033112
#
#
# Mechanical properties :
#
#
# Convention : Reuss Voigt Hill
#
# Bulk Modulus (GPa) = 29.74645 46.99262 38.36954
# Shear Modulus (GPa) = 27.60733 33.06799 30.33766
#
# Velocity S-wave (km/s) = 3.54671 3.88166 3.71796
# Velocity P-wave (km/s) = 5.50692 6.44219 5.99282
#
# Compressibility (1/GPa) = 0.03361745
#
# Stress axis : x y z
#
# Youngs Moduli (GPa) = 62.78750 74.85244 58.84346
#
# Poissons Ratio (x) = 0.41248 -0.10454
# Poissons Ratio (y) = 0.34599 0.15285
# Poissons Ratio (z) = -0.11155 0.19444
#
# Static dielectric constant tensor:
#      x y z
#    x 1.866480 0.000000 -0.039220 
#    y 0.000000 1.789520 0.000000 
#    z -0.039220 0.000000 1.817770 
# 
# From -- ./inp_files/291633.got.cif
#   From: 2010.05.17/outbox.cif.g08.bks.cpg/sg15_146_cif.got.tgz:291633.got - 2010.06.03 18:47:42.
