data_PCOD9296553
_publ_section_title
;
Structure prediction by ZEFSAII (Michael W. Deem and Ramdas Pophale) SiO2 
 PCOD9296553
Probable space group: C 2/C
;
_chemical_formula_sum "Si O2"
_cell_formula_units_Z 60
_cell_length_a 9.015744
_cell_length_b 16.539596
_cell_length_c 22.410072
_cell_angle_alpha 90.000000
_cell_angle_beta 59.014666
_cell_angle_gamma 90.000000
_cell_volume 2864.851346
_symmetry_space_group_name_H-M "C 2/C"
_symmetry_group_IT_number 15
_symmetry_cell_setting 'monoclinic'
loop_
_space_group_symop_operation_xyz
x,y,z
-x,y,1/2-z
-x,-y,-z
x,-y,1/2+z
1/2+x,1/2+y,z
1/2-x,1/2+y,1/2-z
1/2-x,1/2-y,-z
1/2+x,1/2-y,1/2+z
loop_
_atom_site_type_symbol
_atom_site_label
_atom_site_fract_x
_atom_site_fract_y
_atom_site_fract_z
Si Si1 0.000000 0.473537 0.250000
Si Si2 0.701757 0.666512 0.394399
Si Si3 0.866975 0.433285 0.549307
Si Si4 0.507294 0.488346 0.569925
Si Si5 0.408599 0.103048 0.172944
Si Si6 0.200841 0.864416 0.346869
Si Si7 0.191600 0.753118 0.238351
Si Si8 0.608511 0.252077 0.476016
O O1 0.910814 0.533931 0.222078
O O2 0.127043 0.417988 0.184712
O O3 0.630092 0.581111 0.386059
O O4 0.898120 0.644261 0.373497
O O5 0.695894 0.733419 0.343056
O O6 0.565453 0.699021 0.470961
O O7 0.690146 0.453117 0.552024
O O8 0.931134 0.342071 0.525117
O O9 0.000000 0.500000 0.500000
O O10 0.846236 0.434865 0.624611
O O11 0.500000 0.500000 0.500000
O O12 0.456280 0.572685 0.611091
O O13 0.293069 0.175462 0.221917
O O14 0.210806 0.827811 0.278405
O O15 0.184465 0.795771 0.401106
O O16 0.000000 0.754799 0.250000
O O17 0.750000 0.250000 0.500000
#
# Coordination Sequence:
#
# PCOD9296553 Si02
#       8
#     4   8   8   8   8   8   8   8
#     4  12  26  42  74  98 138 196 230 286 356 430
#     4  11  22  43  79  95 147 189 228 290 363 415
#     4  12  28  42  71 109 141 177 238 295 345 426
#     4  12  23  46  71 104 144 187 229 294 361 418
#     4  11  22  47  69 102 138 188 235 284 357 421
#     4  12  26  43  72 103 139 186 240 289 356 424
#     4  10  23  45  68 100 139 182 232 289 354 417
#     4  12  26  45  69 106 139 184 239 289 346 426
#
# _framework density 20.943494999999999
#
# number of rings (size 3 to 8) (size 9 to 14) (size 15 to 20)
#    0.000    0.533    7.333    0.800    3.733    3.733 
#    0.000    1.333    0.000    0.000    0.000    0.000 
#    0.000    0.000    0.000    0.000    0.000    0.000 
#
# Total GULP energy -167567.780056 kJ/mol
# GULP energy per Si atom -5585.592669 kJ/mol
# Density = 2.089583 g / cm^3
# Si number density = 20.943495 Si / 1000 Ang^3
#
#
#
# Elastic Constant Matrix: (Units=GPa)
#
#
# Indices 1 2 3 4 5 6 
#
# 1 51.1330 5.3944 23.3809 0.0000 13.5082 0.0000
# 2 5.3944 122.0134 23.9820 0.0000 4.6578 0.0000
# 3 23.3809 23.9820 84.6996 0.0001 7.0224 0.0000
# 4 0.0000 0.0000 0.0001 40.0115 -0.0001 -8.4637
# 5 13.5082 4.6578 7.0224 -0.0001 34.8334 0.0000
# 6 0.0000 0.0000 0.0000 -8.4637 0.0000 14.9559
#
#
#
# Elastic Compliance Matrix: (Units=1/GPa)
#
#
# Indices 1 2 3 4 5 6 
#
# 1 0.024551 0.000454 -0.006215 0.000000 -0.008328 0.000000
# 2 0.000454 0.008703 -0.002521 0.000000 -0.000832 0.000000
# 3 -0.006215 -0.002521 0.014246 0.000000 -0.000125 0.000000
# 4 0.000000 0.000000 0.000000 0.028392 0.000000 0.016067
# 5 -0.008328 -0.000832 -0.000125 0.000000 0.032074 0.000000
# 6 0.000000 0.000000 0.000000 0.016067 0.000000 0.075956
#
#
# Mechanical properties :
#
#
# Convention : Reuss Voigt Hill
#
# Bulk Modulus (GPa) = 32.32402 40.37339 36.34870
# Shear Modulus (GPa) = 23.71945 31.63274 27.67609
#
# Velocity S-wave (km/s) = 3.36898 3.89058 3.63914
# Velocity P-wave (km/s) = 5.53180 6.28501 5.92039
#
# Compressibility (1/GPa) = 0.03093675
#
# Stress axis : x y z
#
# Youngs Moduli (GPa) = 40.73138 114.90407 70.19447
#
# Poissons Ratio (x) = -0.05218 0.43628
# Poissons Ratio (y) = -0.01850 0.17693
# Poissons Ratio (z) = 0.25316 0.28962
#
# Static dielectric constant tensor:
#      x y z
#    x 1.801400 0.000000 -0.047790 
#    y 0.000000 1.780530 0.000000 
#    z -0.047790 0.000000 1.803810 
# 
# From -- ./inp_files/233043.got.cif
#   From: 2010.05.17/outbox.cif.g08.bks.cpg/sg15_117_cif.got.tgz:233043.got - 2010.06.03 18:47:42.
