data_PCOD9296145
_publ_section_title
;
Structure prediction by ZEFSAII (Michael W. Deem and Ramdas Pophale) SiO2 
 PCOD9296145
Probable space group: C 2/C
;
_chemical_formula_sum "Si O2"
_cell_formula_units_Z 48
_cell_length_a 15.617570
_cell_length_b 14.047583
_cell_length_c 12.174647
_cell_angle_alpha 90.000000
_cell_angle_beta 129.577553
_cell_angle_gamma 90.000000
_cell_volume 2058.696155
_symmetry_space_group_name_H-M "C 2/C"
_symmetry_group_IT_number 15
_symmetry_cell_setting 'monoclinic'
loop_
_space_group_symop_operation_xyz
x,y,z
-x,y,1/2-z
-x,-y,-z
x,-y,1/2+z
1/2+x,1/2+y,z
1/2-x,1/2+y,1/2-z
1/2-x,1/2-y,-z
1/2+x,1/2-y,1/2+z
loop_
_atom_site_type_symbol
_atom_site_label
_atom_site_fract_x
_atom_site_fract_y
_atom_site_fract_z
Si Si1 0.495083 0.393627 0.902151
Si Si2 0.483318 0.095146 0.416379
Si Si3 0.181955 0.559140 0.418716
Si Si4 0.061158 0.098491 0.897112
Si Si5 0.451093 0.801843 0.325415
Si Si6 0.251899 0.351192 0.437374
O O1 0.487490 0.499487 0.849029
O O2 0.435772 0.309952 0.789738
O O3 0.448235 0.375200 0.984304
O O4 0.625686 0.374208 0.002623
O O5 0.595248 0.102999 0.434566
O O6 0.379423 0.080177 0.248727
O O7 0.478691 0.174761 0.508854
O O8 0.500000 0.000000 0.500000
O O9 0.308500 0.595259 0.522916
O O10 0.203161 0.445529 0.457477
O O11 0.000000 0.154772 0.750000
O O12 0.500000 0.840833 0.250000
O O13 0.328534 0.843084 0.233669
O O14 0.250000 0.250000 0.500000
#
# Coordination Sequence:
#
# PCOD9296145 Si02
#       6
#     8   8   8   8   8   8
#     4  10  24  41  62  98 128 171 221 280 346 394
#     4  11  23  40  68  93 143 173 223 278 334 413
#     4  10  24  43  63 103 127 185 222 268 348 402
#     4  10  23  44  68  89 133 176 226 276 337 419
#     4  12  23  41  65  99 130 172 226 284 339 395
#     4  11  22  38  66  97 132 164 222 284 330 392
#
# _framework density 23.315728
#
# number of rings (size 3 to 8) (size 9 to 14) (size 15 to 20)
#    0.000    1.333    3.333    1.500    4.667    2.667 
#    3.000    0.833    0.000    0.000    0.000    0.000 
#    0.000    0.000    0.000    0.000    0.000    0.000 
#
# Total GULP energy -133738.532481 kJ/mol
# GULP energy per Si atom -5572.438853 kJ/mol
# Density = 2.326266 g / cm^3
# Si number density = 23.315728 Si / 1000 Ang^3
#
#
#
# Elastic Constant Matrix: (Units=GPa)
#
#
# Indices 1 2 3 4 5 6 
#
# 1 95.6953 -10.2359 44.1946 0.0000 -0.5902 0.0000
# 2 -10.2359 36.7486 -10.2231 0.0000 -3.5633 0.0000
# 3 44.1946 -10.2231 132.9666 0.0000 -9.2488 0.0000
# 4 0.0000 0.0000 0.0000 8.6679 0.0000 26.1561
# 5 -0.5902 -3.5633 -9.2488 0.0000 42.8265 0.0000
# 6 0.0000 0.0000 0.0000 26.1561 0.0000 -17.6940
#
#
#
# Elastic Compliance Matrix: (Units=1/GPa)
#
#
# Indices 1 2 3 4 5 6 
#
# 1 0.012557 0.002328 -0.004030 0.000000 -0.000503 0.000000
# 2 0.002328 0.028577 0.001615 0.000000 0.002759 0.000000
# 3 -0.004030 0.001615 0.009127 0.000000 0.002050 0.000000
# 4 0.000000 0.000000 0.000000 0.021127 0.000000 0.031231
# 5 -0.000503 0.002759 0.002050 0.000000 0.024015 0.000000
# 6 0.000000 0.000000 0.000000 0.031231 0.000000 -0.010350
#
#
# Mechanical properties :
#
#
# Convention : Reuss Voigt Hill
#
# Bulk Modulus (GPa) = 19.96500 34.76463 27.36482
# Shear Modulus (GPa) = 49.05708 22.87174 35.96441
#
# Velocity S-wave (km/s) = 4.59195 3.13542 3.93172
# Velocity P-wave (km/s) = 6.05774 5.29628 5.68976
#
# Compressibility (1/GPa) = 0.05008765
#
# Stress axis : x y z
#
# Youngs Moduli (GPa) = 79.63897 34.99298 109.56761
#
# Poissons Ratio (x) = -0.08145 0.44151
# Poissons Ratio (y) = -0.18538 -0.17699
# Poissons Ratio (z) = 0.32091 -0.05653
#
# Static dielectric constant tensor:
#      x y z
#    x 1.991610 0.000000 -0.202550 
#    y 0.000000 2.012900 0.000000 
#    z -0.202550 0.000000 2.314060 
# 
# From -- ./inp_files/97186.got.cif
#   From: 2010.05.17/outbox.cif.g08.bks.cpg/sg15_49_cif.got.tgz:97186.got - 2010.06.03 18:47:42.
