data_PCOD9296791
_publ_section_title
;
Structure prediction by ZEFSAII (Michael W. Deem and Ramdas Pophale) SiO2 
 PCOD9296791
Probable space group: C 2/C
;
_chemical_formula_sum "Si O2"
_cell_formula_units_Z 36
_cell_length_a 16.695387
_cell_length_b 8.021142
_cell_length_c 13.740913
_cell_angle_alpha 90.000000
_cell_angle_beta 50.874658
_cell_angle_gamma 90.000000
_cell_volume 1427.512108
_symmetry_space_group_name_H-M "C 2/C"
_symmetry_group_IT_number 15
_symmetry_cell_setting 'monoclinic'
loop_
_space_group_symop_operation_xyz
x,y,z
-x,y,1/2-z
-x,-y,-z
x,-y,1/2+z
1/2+x,1/2+y,z
1/2-x,1/2+y,1/2-z
1/2-x,1/2-y,-z
1/2+x,1/2-y,1/2+z
loop_
_atom_site_type_symbol
_atom_site_label
_atom_site_fract_x
_atom_site_fract_y
_atom_site_fract_z
Si Si1 0.237457 0.362071 0.868762
Si Si2 0.937729 0.829957 0.059253
Si Si3 0.610700 0.402297 0.183602
Si Si4 0.603193 0.889521 0.343509
Si Si5 0.000000 0.592215 0.250000
O O1 0.150546 0.220038 0.951115
O O2 0.290216 0.482682 0.908051
O O3 0.180126 0.483361 0.836938
O O4 0.332310 0.265110 0.748039
O O5 0.021717 0.685762 0.981444
O O6 0.887725 0.846376 0.204173
O O7 0.000000 0.000000 0.000000
O O8 0.500000 0.493195 0.250000
O O9 0.589372 0.225048 0.147416
O O10 0.545017 0.978002 0.299408
#
# Coordination Sequence:
#
# PCOD9296791 Si02
#       5
#     8   8   8   8   4
#     4  12  22  42  73  97 136 186 225 272 349 406
#     4  12  24  44  73 103 136 178 235 277 336 417
#     4  10  23  46  66  96 142 181 220 287 339 394
#     4  12  23  43  71 101 135 182 229 278 339 408
#     4  10  24  42  68  98 142 182 218 290 338 386
#
# _framework density 25.218699999999998
#
# number of rings (size 3 to 8) (size 9 to 14) (size 15 to 20)
#    0.667    0.000    6.667    0.667    1.556    0.000 
#    0.000   11.111    0.000    0.000    0.000    0.000 
#    0.000    0.000    0.000    0.000    0.000    0.000 
#
# Total GULP energy -100567.424116 kJ/mol
# GULP energy per Si atom -5587.079118 kJ/mol
# Density = 2.516130 g / cm^3
# Si number density = 25.218700 Si / 1000 Ang^3
#
#
#
# Elastic Constant Matrix: (Units=GPa)
#
#
# Indices 1 2 3 4 5 6 
#
# 1 194.7285 96.9382 40.6965 0.0000 -22.9697 0.0000
# 2 96.9382 146.4536 37.7132 0.0001 -20.6523 -0.0001
# 3 40.6965 37.7132 54.6134 0.0000 -18.9736 0.0000
# 4 0.0000 0.0001 0.0000 47.0684 0.0000 -29.4666
# 5 -22.9697 -20.6523 -18.9736 0.0000 30.2686 0.0000
# 6 0.0000 -0.0001 0.0000 -29.4666 0.0000 64.2995
#
#
#
# Elastic Compliance Matrix: (Units=1/GPa)
#
#
# Indices 1 2 3 4 5 6 
#
# 1 0.008053 -0.004506 -0.002345 0.000000 0.001567 0.000000
# 2 -0.004506 0.010995 -0.003601 0.000000 0.001826 0.000000
# 3 -0.002345 -0.003601 0.026940 0.000000 0.012650 0.000000
# 4 0.000000 0.000000 0.000000 0.029793 0.000000 0.013653
# 5 0.001567 0.001826 0.012650 0.000000 0.043402 0.000000
# 6 0.000000 0.000000 0.000000 0.013653 0.000000 0.021809
#
#
# Mechanical properties :
#
#
# Convention : Reuss Voigt Hill
#
# Bulk Modulus (GPa) = 39.86557 82.94347 61.40452
# Shear Modulus (GPa) = 29.36724 43.02379 36.19551
#
# Velocity S-wave (km/s) = 3.41618 4.13489 3.79260
# Velocity P-wave (km/s) = 5.60381 7.46709 6.60152
#
# Compressibility (1/GPa) = 0.02508430
#
# Stress axis : x y z
#
# Youngs Moduli (GPa) = 124.17294 90.94979 37.11987
#
# Poissons Ratio (x) = 0.40978 0.08706
# Poissons Ratio (y) = 0.55947 0.13367
# Poissons Ratio (z) = 0.29124 0.32750
#
# Static dielectric constant tensor:
#      x y z
#    x 2.012890 0.000000 -0.033710 
#    y 0.000000 2.063830 0.000000 
#    z -0.033710 0.000000 2.020430 
# 
# From -- ./inp_files/158654.got.cif
#   From: 2010.05.17/outbox.cif.g08.bks.cpg/sg15_80_cif.got.tgz:158654.got - 2010.06.03 18:47:42.
