data_PCOD9296964
_publ_section_title
;
Structure prediction by ZEFSAII (Michael W. Deem and Ramdas Pophale) SiO2 
 PCOD9296964
Probable space group: C 2/C
;
_chemical_formula_sum "Si O2"
_cell_formula_units_Z 48
_cell_length_a 16.389410
_cell_length_b 18.959392
_cell_length_c 8.721547
_cell_angle_alpha 90.000000
_cell_angle_beta 55.744277
_cell_angle_gamma 90.000000
_cell_volume 2239.967552
_symmetry_space_group_name_H-M "C 2/C"
_symmetry_group_IT_number 15
_symmetry_cell_setting 'monoclinic'
loop_
_space_group_symop_operation_xyz
x,y,z
-x,y,1/2-z
-x,-y,-z
x,-y,1/2+z
1/2+x,1/2+y,z
1/2-x,1/2+y,1/2-z
1/2-x,1/2-y,-z
1/2+x,1/2-y,1/2+z
loop_
_atom_site_type_symbol
_atom_site_label
_atom_site_fract_x
_atom_site_fract_y
_atom_site_fract_z
Si Si1 0.235786 0.954585 0.028298
Si Si2 0.271102 0.916616 0.339191
Si Si3 0.594856 0.159594 0.580821
Si Si4 0.117349 0.810076 0.105908
Si Si5 0.236617 0.241095 0.767536
Si Si6 0.445452 0.062420 0.149598
O O1 0.271277 0.948914 0.166746
O O2 0.163289 0.889443 0.068980
O O3 0.332376 0.949216 0.818899
O O4 0.201150 0.033165 0.016854
O O5 0.368034 0.902292 0.343075
O O6 0.242151 0.836633 0.330665
O O7 0.500000 0.198193 0.750000
O O8 0.686446 0.207462 0.440935
O O9 0.557185 0.126549 0.463494
O O10 0.164912 0.766271 0.195996
O O11 0.000000 0.811236 0.250000
O O12 0.160901 0.772287 0.907452
O O13 0.500000 0.077347 0.250000
O O14 0.500000 0.000000 0.000000
#
# Coordination Sequence:
#
# PCOD9296964 Si02
#       6
#     8   8   8   8   8   8
#     4  11  22  43  66 100 136 177 234 285 343 414
#     4  11  24  42  68  96 140 181 225 290 347 404
#     4  12  24  40  64 101 138 183 223 282 354 406
#     4  10  23  46  75  99 136 187 233 285 345 410
#     4  10  24  45  67 105 137 180 236 287 339 418
#     4  12  23  38  62 101 141 179 222 276 347 419
#
# _framework density 21.428881000000001
#
# number of rings (size 3 to 8) (size 9 to 14) (size 15 to 20)
#    0.000    1.000    1.667    6.000    2.333    0.667 
#    0.000    4.167    0.000    0.000    0.000    0.000 
#    0.000    0.000    0.000    0.000    0.000    0.000 
#
# Total GULP energy -133983.969946 kJ/mol
# GULP energy per Si atom -5582.665414 kJ/mol
# Density = 2.138011 g / cm^3
# Si number density = 21.428881 Si / 1000 Ang^3
#
#
#
# Elastic Constant Matrix: (Units=GPa)
#
#
# Indices 1 2 3 4 5 6 
#
# 1 80.5068 38.3798 62.5742 0.0000 -3.2540 0.0000
# 2 38.3798 119.5701 77.8089 0.0000 2.7208 0.0000
# 3 62.5742 77.8089 147.4872 0.0000 -1.7585 0.0000
# 4 0.0000 0.0000 0.0000 32.4871 0.0000 11.6089
# 5 -3.2540 2.7208 -1.7585 0.0000 46.0654 0.0000
# 6 0.0000 0.0000 0.0000 11.6089 0.0000 27.7302
#
#
#
# Elastic Compliance Matrix: (Units=1/GPa)
#
#
# Indices 1 2 3 4 5 6 
#
# 1 0.018718 -0.001332 -0.007225 0.000000 0.001125 0.000000
# 2 -0.001332 0.012877 -0.006242 0.000000 -0.001093 0.000000
# 3 -0.007225 -0.006242 0.013143 0.000000 0.000360 0.000000
# 4 0.000000 0.000000 0.000000 0.036196 0.000000 -0.015153
# 5 0.001125 -0.001093 0.000360 0.000000 0.021866 0.000000
# 6 0.000000 0.000000 0.000000 -0.015153 0.000000 0.042405
#
#
# Mechanical properties :
#
#
# Convention : Reuss Voigt Hill
#
# Bulk Modulus (GPa) = 66.04862 78.34334 72.19598
# Shear Modulus (GPa) = 27.80106 32.50996 30.15551
#
# Velocity S-wave (km/s) = 3.60580 3.89923 3.75539
# Velocity P-wave (km/s) = 6.94441 7.54394 7.25038
#
# Compressibility (1/GPa) = 0.01514036
#
# Stress axis : x y z
#
# Youngs Moduli (GPa) = 53.42580 77.65604 76.08725
#
# Poissons Ratio (x) = 0.10343 0.54975
# Poissons Ratio (y) = 0.07116 0.47490
# Poissons Ratio (z) = 0.38601 0.48470
#
# Static dielectric constant tensor:
#      x y z
#    x 1.817330 0.000000 0.001300 
#    y 0.000000 1.757080 0.000000 
#    z 0.001300 0.000000 1.767510 
# 
# From -- ./inp_files/50028.got.cif
#   From: 2010.05.17/outbox.cif.g08.bks.cpg/sg15_26_cif.got.tgz:50028.got - 2010.06.03 18:47:42.
