data_PCOD9296625
_publ_section_title
;
Structure prediction by ZEFSAII (Michael W. Deem and Ramdas Pophale) SiO2 
 PCOD9296625
Probable space group: C 2/C
;
_chemical_formula_sum "Si O2"
_cell_formula_units_Z 44
_cell_length_a 18.363778
_cell_length_b 21.494972
_cell_length_c 5.266326
_cell_angle_alpha 90.000000
_cell_angle_beta 118.456846
_cell_angle_gamma 90.000000
_cell_volume 1827.606124
_symmetry_space_group_name_H-M "C 2/C"
_symmetry_group_IT_number 15
_symmetry_cell_setting 'monoclinic'
loop_
_space_group_symop_operation_xyz
x,y,z
-x,y,1/2-z
-x,-y,-z
x,-y,1/2+z
1/2+x,1/2+y,z
1/2-x,1/2+y,1/2-z
1/2-x,1/2-y,-z
1/2+x,1/2-y,1/2+z
loop_
_atom_site_type_symbol
_atom_site_label
_atom_site_fract_x
_atom_site_fract_y
_atom_site_fract_z
Si Si1 0.500000 0.041522 0.750000
Si Si2 0.291117 0.541615 0.042619
Si Si3 0.273080 0.321958 0.115025
Si Si4 0.344925 0.868585 0.990224
Si Si5 0.592933 0.264480 0.788108
Si Si6 0.910163 0.119370 0.521939
O O1 0.420375 0.084971 0.602850
O O2 0.500000 0.000000 0.500000
O O3 0.279910 0.495713 0.265042
O O4 0.225190 0.597681 0.958385
O O5 0.378630 0.575169 0.243329
O O6 0.332416 0.301576 0.448870
O O7 0.336737 0.374238 0.102225
O O8 0.250000 0.250000 0.000000
O O9 0.189866 0.352398 0.848246
O O10 0.373751 0.805249 0.175300
O O11 0.500000 0.263313 0.750000
O O12 0.582470 0.307056 0.526467
O O13 0.000000 0.097040 0.750000
#
# Coordination Sequence:
#
# PCOD9296625 Si02
#       6
#     4   8   8   8   8   8
#     4  12  26  50  72 104 144 196 248 298 350 424
#     4  11  27  48  71 101 140 191 245 297 352 424
#     4   9  21  40  63  99 139 177 227 286 360 426
#     4  10  23  45  70 105 139 189 242 298 364 428
#     4  11  21  42  71 105 146 178 235 298 372 433
#     4  11  24  41  69 105 139 186 236 299 364 435
#
# _framework density 24.075210999999999
#
# number of rings (size 3 to 8) (size 9 to 14) (size 15 to 20)
#    0.000    1.455    2.727    1.091    5.091    7.273 
#   14.727    0.000    0.000    0.000    0.000    0.000 
#    0.000    0.000    0.000    0.000    0.000    0.000 
#
# Total GULP energy -122589.412709 kJ/mol
# GULP energy per Si atom -5572.246032 kJ/mol
# Density = 2.402041 g / cm^3
# Si number density = 24.075211 Si / 1000 Ang^3
#
#
#
# Elastic Constant Matrix: (Units=GPa)
#
#
# Indices 1 2 3 4 5 6 
#
# 1 59.7796 46.0513 37.5288 0.0000 33.9396 0.0000
# 2 46.0513 140.7915 49.6044 0.0000 4.7898 0.0000
# 3 37.5288 49.6044 126.7838 0.0000 24.4331 0.0000
# 4 0.0000 0.0000 0.0000 99.7274 0.0000 18.3597
# 5 33.9396 4.7898 24.4331 0.0000 49.3279 0.0000
# 6 0.0000 0.0000 0.0000 18.3597 0.0000 41.9741
#
#
#
# Elastic Compliance Matrix: (Units=1/GPa)
#
#
# Indices 1 2 3 4 5 6 
#
# 1 0.043487 -0.012312 -0.002785 0.000000 -0.027346 0.000000
# 2 -0.012312 0.011759 -0.002619 0.000000 0.008627 0.000000
# 3 -0.002785 -0.002619 0.010301 0.000000 -0.002932 0.000000
# 4 0.000000 0.000000 0.000000 0.010906 0.000000 -0.004770
# 5 -0.027346 0.008627 -0.002932 0.000000 0.039702 0.000000
# 6 0.000000 0.000000 0.000000 -0.004770 0.000000 0.025911
#
#
# Mechanical properties :
#
#
# Convention : Reuss Voigt Hill
#
# Bulk Modulus (GPa) = 33.20639 65.96932 49.58786
# Shear Modulus (GPa) = 26.66149 51.15057 38.90603
#
# Velocity S-wave (km/s) = 3.33141 4.61436 4.02434
# Velocity P-wave (km/s) = 5.34981 7.47332 6.49888
#
# Compressibility (1/GPa) = 0.03011469
#
# Stress axis : x y z
#
# Youngs Moduli (GPa) = 22.99549 85.04038 97.07337
#
# Poissons Ratio (x) = 1.04705 0.27037
# Poissons Ratio (y) = 0.28313 0.25421
# Poissons Ratio (z) = 0.06405 0.22270
#
# Static dielectric constant tensor:
#      x y z
#    x 2.942210 0.000000 -0.352670 
#    y 0.000000 1.863150 0.000000 
#    z -0.352670 0.000000 2.044440 
# 
# From -- ./inp_files/13794.got.cif
#   From: 2010.05.17/outbox.cif.g08.bks.cpg/sg15_7_cif.got.tgz:13794.got - 2010.06.03 18:47:42.
