data_PCOD9296914
_publ_section_title
;
Structure prediction by ZEFSAII (Michael W. Deem and Ramdas Pophale) SiO2 
 PCOD9296914
Probable space group: C 2/C
;
_chemical_formula_sum "Si O2"
_cell_formula_units_Z 60
_cell_length_a 21.664417
_cell_length_b 24.332848
_cell_length_c 14.851924
_cell_angle_alpha 90.000000
_cell_angle_beta 160.461939
_cell_angle_gamma 90.000000
_cell_volume 2618.374465
_symmetry_space_group_name_H-M "C 2/C"
_symmetry_group_IT_number 15
_symmetry_cell_setting 'monoclinic'
loop_
_space_group_symop_operation_xyz
x,y,z
-x,y,1/2-z
-x,-y,-z
x,-y,1/2+z
1/2+x,1/2+y,z
1/2-x,1/2+y,1/2-z
1/2-x,1/2-y,-z
1/2+x,1/2-y,1/2+z
loop_
_atom_site_type_symbol
_atom_site_label
_atom_site_fract_x
_atom_site_fract_y
_atom_site_fract_z
Si Si1 0.783172 0.203904 0.778637
Si Si2 0.680999 0.101922 0.127722
Si Si3 0.683666 0.973461 0.790474
Si Si4 0.776012 0.608407 0.501503
Si Si5 0.477271 0.871903 0.825466
Si Si6 0.792303 0.776076 0.654160
Si Si7 0.194222 0.809951 0.559622
Si Si8 0.000000 0.063460 0.250000
O O1 0.681504 0.145372 0.641056
O O2 0.766788 0.232551 0.853074
O O3 0.686887 0.245898 0.575771
O O4 0.994928 0.207469 0.041594
O O5 0.760024 0.062024 0.313050
O O6 0.732641 0.073817 0.102562
O O7 0.748579 0.159115 0.268300
O O8 0.455728 0.102079 0.811315
O O9 0.614810 0.929613 0.770787
O O10 0.500000 0.000000 0.500000
O O11 0.828436 0.021065 0.009919
O O12 0.805163 0.665515 0.488143
O O13 0.583994 0.603640 0.289349
O O14 0.500000 0.869779 0.750000
O O15 0.348097 0.826468 0.697412
O O16 0.750000 0.750000 0.500000
O O17 0.000000 0.827479 0.250000
#
# Coordination Sequence:
#
# PCOD9296914 Si02
#       8
#     8   8   8   8   8   8   8   4
#     4  12  25  46  69 106 151 197 242 291 365 433
#     4  10  23  46  72 103 142 194 235 304 368 437
#     4  11  26  50  73 103 146 181 249 319 375 431
#     4  11  25  44  75 106 145 188 249 296 369 445
#     4  11  28  46  73 105 141 194 245 299 366 441
#     4  12  27  41  70 108 153 194 241 292 356 443
#     4  11  24  44  71 102 150 195 244 294 358 436
#     4  12  28  48  78 112 136 196 246 322 384 430
#
# _framework density 22.91498
#
# number of rings (size 3 to 8) (size 9 to 14) (size 15 to 20)
#    0.000    0.800    4.000    1.600   13.067    2.667 
#    0.000    0.000    0.000    0.000    0.000    0.000 
#    0.000    0.000    0.000    0.000    0.000    0.000 
#
# Total GULP energy -167276.124827 kJ/mol
# GULP energy per Si atom -5575.870828 kJ/mol
# Density = 2.286282 g / cm^3
# Si number density = 22.914980 Si / 1000 Ang^3
#
#
#
# Elastic Constant Matrix: (Units=GPa)
#
#
# Indices 1 2 3 4 5 6 
#
# 1 136.0316 16.2959 38.0124 0.0000 4.5994 0.0000
# 2 16.2959 37.8384 25.0508 0.0000 -4.9686 0.0000
# 3 38.0124 25.0508 100.9993 0.0001 17.5323 0.0000
# 4 0.0000 0.0000 0.0001 36.9533 0.0000 7.8898
# 5 4.5994 -4.9686 17.5323 0.0000 39.8814 0.0000
# 6 0.0000 0.0000 0.0000 7.8898 0.0000 4.8659
#
#
#
# Elastic Compliance Matrix: (Units=1/GPa)
#
#
# Indices 1 2 3 4 5 6 
#
# 1 0.008317 -0.001808 -0.002681 0.000000 -0.000006 0.000000
# 2 -0.001808 0.034559 -0.009392 0.000000 0.008643 0.000000
# 3 -0.002681 -0.009392 0.014495 0.000000 -0.007233 0.000000
# 4 0.000000 0.000000 0.000000 0.041390 0.000000 -0.067112
# 5 -0.000006 0.008643 -0.007233 0.000000 0.029331 0.000000
# 6 0.000000 0.000000 0.000000 -0.067112 0.000000 0.314328
#
#
# Mechanical properties :
#
#
# Convention : Reuss Voigt Hill
#
# Bulk Modulus (GPa) = 33.77138 48.17639 40.97388
# Shear Modulus (GPa) = 10.41554 29.37414 19.89484
#
# Velocity S-wave (km/s) = 2.13428 3.58421 2.94972
# Velocity P-wave (km/s) = 4.56544 6.18048 5.43331
#
# Compressibility (1/GPa) = 0.02961087
#
# Stress axis : x y z
#
# Youngs Moduli (GPa) = 120.23373 28.93575 68.98950
#
# Poissons Ratio (x) = 0.05231 0.18495
# Poissons Ratio (y) = 0.21737 0.64792
# Poissons Ratio (z) = 0.32233 0.27175
#
# Static dielectric constant tensor:
#      x y z
#    x 1.777980 0.000000 0.047540 
#    y 0.000000 1.983630 0.000000 
#    z 0.047540 0.000000 1.853060 
# 
# From -- ./inp_files/169960.got.cif
#   From: 2010.05.17/outbox.cif.g08.bks.cpg/sg15_85_cif.got.tgz:169960.got - 2010.06.03 18:47:42.
