data_PCOD9296220
_publ_section_title
;
Structure prediction by ZEFSAII (Michael W. Deem and Ramdas Pophale) SiO2 
 PCOD9296220
Probable space group: C 2/C
;
_chemical_formula_sum "Si O2"
_cell_formula_units_Z 48
_cell_length_a 11.674294
_cell_length_b 10.287511
_cell_length_c 21.410005
_cell_angle_alpha 90.000000
_cell_angle_beta 127.935164
_cell_angle_gamma 90.000000
_cell_volume 2028.025286
_symmetry_space_group_name_H-M "C 2/C"
_symmetry_group_IT_number 15
_symmetry_cell_setting 'monoclinic'
loop_
_space_group_symop_operation_xyz
x,y,z
-x,y,1/2-z
-x,-y,-z
x,-y,1/2+z
1/2+x,1/2+y,z
1/2-x,1/2+y,1/2-z
1/2-x,1/2-y,-z
1/2+x,1/2-y,1/2+z
loop_
_atom_site_type_symbol
_atom_site_label
_atom_site_fract_x
_atom_site_fract_y
_atom_site_fract_z
Si Si1 0.234797 0.453313 0.156949
Si Si2 0.789834 0.209143 0.117998
Si Si3 0.101231 0.919164 0.580102
Si Si4 0.131063 0.855830 0.173797
Si Si5 0.054382 0.655027 0.937485
Si Si6 0.328748 0.236433 0.092711
O O1 0.318260 0.587928 0.173515
O O2 0.274139 0.375630 0.233004
O O3 0.285344 0.361530 0.118279
O O4 0.058896 0.463565 0.097994
O O5 0.707729 0.306305 0.136883
O O6 0.901784 0.297277 0.116850
O O7 0.692465 0.144264 0.029488
O O8 0.260794 0.889243 0.604944
O O9 0.031361 0.778203 0.563589
O O10 0.089129 0.996966 0.640537
O O11 0.000000 0.000000 0.500000
O O12 0.000469 0.755909 0.142873
O O13 0.250000 0.250000 0.000000
#
# Coordination Sequence:
#
# PCOD9296220 Si02
#       6
#     8   8   8   8   8   8
#     4  11  26  43  65 100 142 177 224 293 357 410
#     4  11  24  43  71  97 135 183 229 285 343 427
#     4  11  21  42  71  97 133 180 230 288 333 411
#     4  12  25  43  64 105 137 179 230 286 359 412
#     4  10  23  44  69  98 130 179 240 277 345 418
#     4  11  23  42  71  97 130 181 235 276 338 421
#
# _framework density 23.668344000000001
#
# number of rings (size 3 to 8) (size 9 to 14) (size 15 to 20)
#    0.000    1.000    3.333    3.000    4.667    2.000 
#    0.000    0.000    0.000    0.000    0.000    0.000 
#    0.000    0.000    0.000    0.000    0.000    0.000 
#
# Total GULP energy -134080.917098 kJ/mol
# GULP energy per Si atom -5586.704879 kJ/mol
# Density = 2.361447 g / cm^3
# Si number density = 23.668344 Si / 1000 Ang^3
#
#
#
# Elastic Constant Matrix: (Units=GPa)
#
#
# Indices 1 2 3 4 5 6 
#
# 1 105.8908 10.1519 10.1338 0.0000 -23.1277 0.0000
# 2 10.1519 76.1686 -5.9832 0.0000 -4.7933 0.0000
# 3 10.1338 -5.9832 77.2567 0.0000 -7.9208 0.0000
# 4 0.0000 0.0000 0.0000 30.1207 0.0000 -9.3593
# 5 -23.1277 -4.7933 -7.9208 0.0000 22.7653 0.0000
# 6 0.0000 0.0000 0.0000 -9.3593 0.0000 34.2031
#
#
#
# Elastic Compliance Matrix: (Units=1/GPa)
#
#
# Indices 1 2 3 4 5 6 
#
# 1 0.012206 -0.000902 -0.000435 0.000000 0.012059 0.000000
# 2 -0.000902 0.013512 0.001413 0.000000 0.002420 0.000000
# 3 -0.000435 0.001413 0.013580 0.000000 0.004581 0.000000
# 4 0.000000 0.000000 0.000000 0.036285 0.000000 0.009929
# 5 0.012059 0.002420 0.004581 0.000000 0.058281 0.000000
# 6 0.000000 0.000000 0.000000 0.009929 0.000000 0.031954
#
#
# Mechanical properties :
#
#
# Convention : Reuss Voigt Hill
#
# Bulk Modulus (GPa) = 25.34823 31.99122 28.66972
# Shear Modulus (GPa) = 27.96183 33.75204 30.85693
#
# Velocity S-wave (km/s) = 3.44088 3.78039 3.61463
# Velocity P-wave (km/s) = 5.14968 5.70973 5.43692
#
# Compressibility (1/GPa) = 0.03945049
#
# Stress axis : x y z
#
# Youngs Moduli (GPa) = 81.93008 74.00669 73.63790
#
# Poissons Ratio (x) = 0.06676 0.03200
# Poissons Ratio (y) = 0.07390 -0.10405
# Poissons Ratio (z) = 0.03560 -0.10457
#
# Static dielectric constant tensor:
#      x y z
#    x 1.930670 0.000000 0.024080 
#    y 0.000000 1.852770 0.000000 
#    z 0.024080 0.000000 1.913300 
# 
# From -- ./inp_files/237224.got.cif
#   From: 2010.05.17/outbox.cif.g08.bks.cpg/sg15_119_cif.got.tgz:237224.got - 2010.06.03 18:47:42.
