data_PCOD9296779
_publ_section_title
;
Structure prediction by ZEFSAII (Michael W. Deem and Ramdas Pophale) SiO2 
 PCOD9296779
Probable space group: C 2/C
;
_chemical_formula_sum "Si O2"
_cell_formula_units_Z 44
_cell_length_a 10.372453
_cell_length_b 26.028284
_cell_length_c 9.703603
_cell_angle_alpha 90.000000
_cell_angle_beta 48.797023
_cell_angle_gamma 90.000000
_cell_volume 1971.050128
_symmetry_space_group_name_H-M "C 2/C"
_symmetry_group_IT_number 15
_symmetry_cell_setting 'monoclinic'
loop_
_space_group_symop_operation_xyz
x,y,z
-x,y,1/2-z
-x,-y,-z
x,-y,1/2+z
1/2+x,1/2+y,z
1/2-x,1/2+y,1/2-z
1/2-x,1/2-y,-z
1/2+x,1/2-y,1/2+z
loop_
_atom_site_type_symbol
_atom_site_label
_atom_site_fract_x
_atom_site_fract_y
_atom_site_fract_z
Si Si1 0.880175 0.496845 0.717458
Si Si2 0.002993 0.267562 0.049277
Si Si3 0.000000 0.303396 0.750000
Si Si4 0.739935 0.606424 0.450675
Si Si5 0.659704 0.411473 0.320783
Si Si6 0.263370 0.682292 0.562155
O O1 0.830244 0.440285 0.805609
O O2 0.709260 0.529995 0.816072
O O3 0.000000 0.521297 0.750000
O O4 0.000000 0.500000 0.500000
O O5 0.055235 0.210918 0.062299
O O6 0.982632 0.271059 0.901048
O O7 0.154069 0.304602 0.003701
O O8 0.836947 0.288123 0.244122
O O9 0.836304 0.340950 0.848517
O O10 0.539707 0.601668 0.556135
O O11 0.749309 0.600652 0.610571
O O12 0.726922 0.375941 0.397393
#
# Coordination Sequence:
#
# PCOD9296779 Si02
#       6
#     8   8   4   8   8   8
#     4  12  24  44  70  97 136 178 223 279 345 406
#     4  10  24  41  67  93 140 170 232 276 342 399
#     4  12  22  42  68 102 130 184 222 278 348 408
#     4  11  24  43  65 101 142 169 227 290 331 412
#     4  11  24  43  69  98 137 180 228 281 347 401
#     4  10  23  46  65  97 132 183 223 286 332 410
#
# _framework density 22.323125000000001
#
# number of rings (size 3 to 8) (size 9 to 14) (size 15 to 20)
#    0.000    1.091    4.545    0.545    5.091    2.182 
#    0.000    1.818    0.000    0.000    0.000    0.000 
#    0.000    0.000    0.000    0.000    0.000    0.000 
#
# Total GULP energy -122998.163421 kJ/mol
# GULP energy per Si atom -5590.825610 kJ/mol
# Density = 2.227232 g / cm^3
# Si number density = 22.323125 Si / 1000 Ang^3
#
#
#
# Elastic Constant Matrix: (Units=GPa)
#
#
# Indices 1 2 3 4 5 6 
#
# 1 55.9129 2.5303 35.4603 0.0000 12.5732 0.0000
# 2 2.5303 59.7021 17.3089 0.0000 2.4278 0.0000
# 3 35.4603 17.3089 105.4993 0.0000 10.8706 0.0000
# 4 0.0000 0.0000 0.0000 26.7237 0.0000 6.2653
# 5 12.5732 2.4278 10.8706 0.0000 45.0125 0.0000
# 6 0.0000 0.0000 0.0000 6.2653 0.0000 25.9799
#
#
#
# Elastic Compliance Matrix: (Units=1/GPa)
#
#
# Indices 1 2 3 4 5 6 
#
# 1 0.023823 0.001432 -0.007741 0.000000 -0.004862 0.000000
# 2 0.001432 0.017675 -0.003325 0.000000 -0.000551 0.000000
# 3 -0.007741 -0.003325 0.012701 0.000000 -0.000726 0.000000
# 4 0.000000 0.000000 0.000000 0.039662 0.000000 -0.009565
# 5 -0.004862 -0.000551 -0.000726 0.000000 0.023779 0.000000
# 6 0.000000 0.000000 0.000000 -0.009565 0.000000 0.040798
#
#
# Mechanical properties :
#
#
# Convention : Reuss Voigt Hill
#
# Bulk Modulus (GPa) = 28.62687 36.85703 32.74195
# Shear Modulus (GPa) = 26.40607 30.59754 28.50180
#
# Velocity S-wave (km/s) = 3.44307 3.70627 3.57709
# Velocity P-wave (km/s) = 5.35331 5.90438 5.63559
#
# Compressibility (1/GPa) = 0.03493221
#
# Stress axis : x y z
#
# Youngs Moduli (GPa) = 41.97603 56.57581 78.73394
#
# Poissons Ratio (x) = -0.08104 0.60951
# Poissons Ratio (y) = -0.06013 0.26177
# Poissons Ratio (z) = 0.32495 0.18810
#
# Static dielectric constant tensor:
#      x y z
#    x 1.844290 0.000000 -0.030410 
#    y 0.000000 1.801200 0.000000 
#    z -0.030410 0.000000 1.805720 
# 
# From -- ./inp_files/35043.got.cif
#   From: 2010.05.17/outbox.cif.g08.bks.cpg/sg15_18_cif.got.tgz:35043.got - 2010.06.03 18:47:42.
