data_PCOD9296011
_publ_section_title
;
Structure prediction by ZEFSAII (Michael W. Deem and Ramdas Pophale) SiO2 
 PCOD9296011
Probable space group: C 2/C
;
_chemical_formula_sum "Si O2"
_cell_formula_units_Z 40
_cell_length_a 15.070260
_cell_length_b 25.356204
_cell_length_c 7.624975
_cell_angle_alpha 90.000000
_cell_angle_beta 37.562386
_cell_angle_gamma 90.000000
_cell_volume 1776.258243
_symmetry_space_group_name_H-M "C 2/C"
_symmetry_group_IT_number 15
_symmetry_cell_setting 'monoclinic'
loop_
_space_group_symop_operation_xyz
x,y,z
-x,y,1/2-z
-x,-y,-z
x,-y,1/2+z
1/2+x,1/2+y,z
1/2-x,1/2+y,1/2-z
1/2-x,1/2-y,-z
1/2+x,1/2-y,1/2+z
loop_
_atom_site_type_symbol
_atom_site_label
_atom_site_fract_x
_atom_site_fract_y
_atom_site_fract_z
Si Si1 0.500000 0.222391 0.250000
Si Si2 0.019033 0.438748 0.931827
Si Si3 0.727807 0.858245 0.496422
Si Si4 0.205228 0.357760 0.107665
Si Si5 0.500000 0.229282 0.750000
Si Si6 0.022546 0.188358 0.494027
O O1 0.399760 0.185472 0.286815
O O2 0.404219 0.264486 0.507290
O O3 0.000000 0.432215 0.750000
O O4 0.172574 0.407475 0.699588
O O5 0.901173 0.408275 0.236314
O O6 0.000000 0.500000 0.000000
O O7 0.730450 0.860704 0.278956
O O8 0.890073 0.842577 0.290597
O O9 0.116772 0.308800 0.160699
O O10 0.361710 0.350972 0.772061
O O11 0.556977 0.272636 0.521452
#
# Coordination Sequence:
#
# PCOD9296011 Si02
#       6
#     4   8   8   8   4   8
#     4  12  22  38  55  96 133 164 198 230 296 364
#     4  10  23  44  65  85 114 154 207 260 304 353
#     4  11  20  41  61  90 124 160 202 247 296 356
#     4  11  22  39  61  94 118 161 209 243 293 362
#     4  12  20  34  63  90 125 170 196 226 282 380
#     4  12  23  36  62  91 133 162 193 242 299 357
#
# _framework density 22.519247
#
# number of rings (size 3 to 8) (size 9 to 14) (size 15 to 20)
#    0.000    0.800    7.000    2.400    1.400    1.600 
#    0.000    1.000    0.000    0.000    0.000    0.000 
#    0.000    0.000    0.000    0.000    0.000    0.000 
#
# Total GULP energy -111335.462741 kJ/mol
# GULP energy per Si atom -5566.773137 kJ/mol
# Density = 2.246799 g / cm^3
# Si number density = 22.519247 Si / 1000 Ang^3
#
#
#
# Elastic Constant Matrix: (Units=GPa)
#
#
# Indices 1 2 3 4 5 6 
#
# 1 56.4423 16.5708 16.3958 0.0000 -16.4449 0.0000
# 2 16.5708 169.4521 96.8519 0.0000 -16.4165 0.0000
# 3 16.3958 96.8519 159.6422 0.0000 -24.1721 0.0000
# 4 0.0000 0.0000 0.0000 41.4559 0.0000 13.0543
# 5 -16.4449 -16.4165 -24.1721 0.0000 34.7473 0.0000
# 6 0.0000 0.0000 0.0000 13.0543 0.0000 21.4103
#
#
#
# Elastic Compliance Matrix: (Units=1/GPa)
#
#
# Indices 1 2 3 4 5 6 
#
# 1 0.020756 -0.001095 -0.000065 0.000000 0.009260 0.000000
# 2 -0.001095 0.009100 -0.005405 0.000000 0.000021 0.000000
# 3 -0.000065 -0.005405 0.010237 0.000000 0.004537 0.000000
# 4 0.000000 0.000000 0.000000 0.029854 0.000000 -0.018203
# 5 0.009260 0.000021 0.004537 0.000000 0.036328 0.000000
# 6 0.000000 0.000000 0.000000 -0.018203 0.000000 0.057805
#
#
# Mechanical properties :
#
#
# Convention : Reuss Voigt Hill
#
# Bulk Modulus (GPa) = 37.08992 71.68596 54.38794
# Shear Modulus (GPa) = 26.85326 36.57057 31.71192
#
# Velocity S-wave (km/s) = 3.45695 4.03422 3.75669
# Velocity P-wave (km/s) = 5.69562 7.32135 6.55905
#
# Compressibility (1/GPa) = 0.02696151
#
# Stress axis : x y z
#
# Youngs Moduli (GPa) = 48.17930 109.89253 97.68725
#
# Poissons Ratio (x) = 0.12038 0.00634
# Poissons Ratio (y) = 0.05278 0.52800
# Poissons Ratio (z) = 0.00313 0.59397
#
# Static dielectric constant tensor:
#      x y z
#    x 2.100960 0.000000 0.134120 
#    y 0.000000 1.816100 0.000000 
#    z 0.134120 0.000000 1.930670 
# 
# From -- ./inp_files/51710.got.cif
#   From: 2010.05.17/outbox.cif.g08.bks.cpg/sg15_26_cif.got.tgz:51710.got - 2010.06.03 18:47:42.
