data_PCOD9296275
_publ_section_title
;
Structure prediction by ZEFSAII (Michael W. Deem and Ramdas Pophale) SiO2 
 PCOD9296275
Probable space group: C 2/C
;
_chemical_formula_sum "Si O2"
_cell_formula_units_Z 40
_cell_length_a 28.460887
_cell_length_b 5.093025
_cell_length_c 13.293306
_cell_angle_alpha 90.000000
_cell_angle_beta 62.409583
_cell_angle_gamma 90.000000
_cell_volume 1707.767353
_symmetry_space_group_name_H-M "C 2/C"
_symmetry_group_IT_number 15
_symmetry_cell_setting 'monoclinic'
loop_
_space_group_symop_operation_xyz
x,y,z
-x,y,1/2-z
-x,-y,-z
x,-y,1/2+z
1/2+x,1/2+y,z
1/2-x,1/2+y,1/2-z
1/2-x,1/2-y,-z
1/2+x,1/2-y,1/2+z
loop_
_atom_site_type_symbol
_atom_site_label
_atom_site_fract_x
_atom_site_fract_y
_atom_site_fract_z
Si Si1 0.125667 0.558018 0.793432
Si Si2 0.155820 0.826125 0.567238
Si Si3 0.281418 0.224987 0.184671
Si Si4 0.031099 0.751748 0.008363
Si Si5 0.410275 0.841352 0.863221
O O1 0.159390 0.729533 0.679177
O O2 0.164804 0.370127 0.814209
O O3 0.089937 0.734951 0.900800
O O4 0.086234 0.393142 0.759241
O O5 0.204755 0.778948 0.445405
O O6 0.109533 0.624358 0.576336
O O7 0.135549 0.122492 0.580819
O O8 0.258654 0.486055 0.257480
O O9 0.041095 0.748139 0.117815
O O10 0.000000 0.500000 0.000000
O O11 0.000000 0.000000 0.000000
#
# Coordination Sequence:
#
# PCOD9296275 Si02
#       5
#     8   8   8   8   8
#     4  10  26  47  73  97 150 188 227 303 353 416
#     4  10  23  44  70  97 138 188 231 281 365 409
#     4  12  27  43  73 106 141 186 246 295 356 428
#     4  12  27  45  73 107 140 186 240 291 358 426
#     4  10  23  45  71  96 140 187 230 283 359 419
#
# _framework density 23.422395000000002
#
# number of rings (size 3 to 8) (size 9 to 14) (size 15 to 20)
#    1.200    0.000    2.000    2.400    5.600    2.400 
#    0.000    0.000    0.000    0.000    0.000    0.000 
#    0.000    0.000    0.000    0.000    0.000    0.000 
#
# Total GULP energy -111801.811386 kJ/mol
# GULP energy per Si atom -5590.090569 kJ/mol
# Density = 2.336908 g / cm^3
# Si number density = 23.422395 Si / 1000 Ang^3
#
#
#
# Elastic Constant Matrix: (Units=GPa)
#
#
# Indices 1 2 3 4 5 6 
#
# 1 91.0550 19.0792 35.8462 0.0000 26.1399 0.0000
# 2 19.0792 107.2968 30.2469 0.0000 1.4557 0.0000
# 3 35.8462 30.2469 146.0284 0.0000 5.3776 0.0000
# 4 0.0000 0.0000 0.0000 34.0545 0.0000 -13.6379
# 5 26.1399 1.4557 5.3776 0.0000 26.0245 0.0000
# 6 0.0000 0.0000 0.0000 -13.6379 0.0000 49.7361
#
#
#
# Elastic Compliance Matrix: (Units=1/GPa)
#
#
# Indices 1 2 3 4 5 6 
#
# 1 0.017503 -0.001962 -0.003272 0.000000 -0.016795 0.000000
# 2 -0.001962 0.010118 -0.001679 0.000000 0.001752 0.000000
# 3 -0.003272 -0.001679 0.007935 0.000000 0.001740 0.000000
# 4 0.000000 0.000000 0.000000 0.032987 0.000000 0.009045
# 5 -0.016795 0.001752 0.001740 0.000000 0.054837 0.000000
# 6 0.000000 0.000000 0.000000 0.009045 0.000000 0.022586
#
#
# Mechanical properties :
#
#
# Convention : Reuss Voigt Hill
#
# Bulk Modulus (GPa) = 46.01733 57.19166 51.60449
# Shear Modulus (GPa) = 29.93394 39.24354 34.58874
#
# Velocity S-wave (km/s) = 3.57880 4.09769 3.84700
# Velocity P-wave (km/s) = 6.06353 6.84534 6.46626
#
# Compressibility (1/GPa) = 0.02173095
#
# Stress axis : x y z
#
# Youngs Moduli (GPa) = 57.13359 98.83079 126.02899
#
# Poissons Ratio (x) = 0.19393 0.41232
# Poissons Ratio (y) = 0.11211 0.21156
# Poissons Ratio (z) = 0.18692 0.16590
#
# Static dielectric constant tensor:
#      x y z
#    x 1.900440 0.000000 -0.012180 
#    y 0.000000 1.813350 0.000000 
#    z -0.012180 0.000000 1.907090 
# 
# From -- ./inp_files/179585.got.cif
#   From: 2010.05.17/outbox.cif.g08.bks.cpg/sg15_90_cif.got.tgz:179585.got - 2010.06.03 18:47:42.
