data_PCOD9296100
_publ_section_title
;
Structure prediction by ZEFSAII (Michael W. Deem and Ramdas Pophale) SiO2 
 PCOD9296100
Probable space group: C 2/C
;
_chemical_formula_sum "Si O2"
_cell_formula_units_Z 64
_cell_length_a 19.213929
_cell_length_b 24.039354
_cell_length_c 14.364821
_cell_angle_alpha 90.000000
_cell_angle_beta 151.600578
_cell_angle_gamma 90.000000
_cell_volume 3155.695148
_symmetry_space_group_name_H-M "C 2/C"
_symmetry_group_IT_number 15
_symmetry_cell_setting 'monoclinic'
loop_
_space_group_symop_operation_xyz
x,y,z
-x,y,1/2-z
-x,-y,-z
x,-y,1/2+z
1/2+x,1/2+y,z
1/2-x,1/2+y,1/2-z
1/2-x,1/2-y,-z
1/2+x,1/2-y,1/2+z
loop_
_atom_site_type_symbol
_atom_site_label
_atom_site_fract_x
_atom_site_fract_y
_atom_site_fract_z
Si Si1 0.572299 0.713976 0.543542
Si Si2 0.879431 0.916044 0.033776
Si Si3 0.529295 0.167990 0.892211
Si Si4 0.448972 0.114488 0.291747
Si Si5 0.090478 0.253708 0.771929
Si Si6 0.345138 0.621458 0.279762
Si Si7 0.956802 0.031384 0.044748
Si Si8 0.696008 0.879248 0.232376
O O1 0.563843 0.773610 0.484257
O O2 0.570866 0.723848 0.651928
O O3 0.431368 0.677098 0.352243
O O4 0.715949 0.677115 0.691437
O O5 0.000000 0.895096 0.250000
O O6 0.713990 0.905747 0.874570
O O7 0.888041 0.890840 0.938793
O O8 0.914731 0.981445 0.062858
O O9 0.500000 0.178703 0.750000
O O10 0.392672 0.136981 0.779356
O O11 0.673291 0.130356 0.073004
O O12 0.500000 0.094701 0.250000
O O13 0.446149 0.181653 0.286133
O O14 0.572881 0.101925 0.513573
O O15 0.000000 0.229512 0.750000
O O16 0.250000 0.250000 0.000000
O O17 0.404772 0.572687 0.282624
O O18 0.818403 0.072858 0.878582
O O19 0.000000 0.000000 0.000000
#
# Coordination Sequence:
#
# PCOD9296100 Si02
#       8
#     8   8   8   8   8   8   8   8
#     4  11  23  40  67  97 138 183 219 271 330 398
#     4  11  24  42  69  98 133 172 220 277 339 413
#     4  12  26  44  68 100 132 180 233 279 331 390
#     4  11  24  39  61 104 140 174 223 266 336 398
#     4  11  24  35  59  99 144 181 214 254 324 407
#     4  10  23  44  67  94 134 172 222 275 332 399
#     4   9  23  45  69  93 125 177 221 272 350 398
#     4  11  23  45  69  96 139 175 225 292 329 401
#
# _framework density 20.280792999999999
#
# number of rings (size 3 to 8) (size 9 to 14) (size 15 to 20)
#    0.000    1.250    2.500    2.250   10.500    3.500 
#    0.000    3.125    0.000    0.000    0.000    0.000 
#    0.000    0.000    0.000    0.000    0.000    0.000 
#
# Total GULP energy -178690.547440 kJ/mol
# GULP energy per Si atom -5584.079608 kJ/mol
# Density = 2.023463 g / cm^3
# Si number density = 20.280793 Si / 1000 Ang^3
#
#
#
# Elastic Constant Matrix: (Units=GPa)
#
#
# Indices 1 2 3 4 5 6 
#
# 1 109.7648 35.1443 55.6324 0.0000 18.3079 0.0000
# 2 35.1443 105.9550 36.1511 0.0000 14.9185 0.0000
# 3 55.6324 36.1511 93.4318 0.0000 18.5172 0.0000
# 4 0.0000 0.0000 0.0000 14.3413 0.0000 -0.5454
# 5 18.3079 14.9185 18.5172 0.0000 44.1217 0.0000
# 6 0.0000 0.0000 0.0000 -0.5454 0.0000 -220.5923
#
#
#
# Elastic Compliance Matrix: (Units=1/GPa)
#
#
# Indices 1 2 3 4 5 6 
#
# 1 0.013573 -0.001834 -0.006958 0.000000 -0.002092 0.000000
# 2 -0.001834 0.011300 -0.002917 0.000000 -0.001836 0.000000
# 3 -0.006958 -0.002917 0.016586 0.000000 -0.003088 0.000000
# 4 0.000000 0.000000 0.000000 0.069722 0.000000 -0.000172
# 5 -0.002092 -0.001836 -0.003088 0.000000 0.025449 0.000000
# 6 0.000000 0.000000 0.000000 -0.000172 0.000000 -0.004533
#
#
# Mechanical properties :
#
#
# Convention : Reuss Voigt Hill
#
# Bulk Modulus (GPa) = 55.42220 62.55636 58.98928
# Shear Modulus (GPa) = 30.95453 -20.27762 5.33846
#
# Velocity S-wave (km/s) = 3.91102 -3.16546 1.62419
# Velocity P-wave (km/s) = 6.91242 4.18950 5.71548
#
# Compressibility (1/GPa) = 0.01804331
#
# Stress axis : x y z
#
# Youngs Moduli (GPa) = 73.67728 88.49769 60.29086
#
# Poissons Ratio (x) = 0.16226 0.41948
# Poissons Ratio (y) = 0.13509 0.17584
# Poissons Ratio (z) = 0.51262 0.25811
#
# Static dielectric constant tensor:
#      x y z
#    x 1.739400 0.000000 -0.016160 
#    y 0.000000 1.714530 0.000000 
#    z -0.016160 0.000000 1.695100 
# 
# From -- ./inp_files/164260.got.cif
#   From: 2010.05.17/outbox.cif.g08.bks.cpg/sg15_83_cif.got.tgz:164260.got - 2010.06.03 18:47:42.
