data_PCOD9296787
_publ_section_title
;
Structure prediction by ZEFSAII (Michael W. Deem and Ramdas Pophale) SiO2 
 PCOD9296787
Probable space group: C 2/C
;
_chemical_formula_sum "Si O2"
_cell_formula_units_Z 36
_cell_length_a 9.949311
_cell_length_b 20.242514
_cell_length_c 8.530303
_cell_angle_alpha 90.000000
_cell_angle_beta 114.657805
_cell_angle_gamma 90.000000
_cell_volume 1561.340831
_symmetry_space_group_name_H-M "C 2/C"
_symmetry_group_IT_number 15
_symmetry_cell_setting 'monoclinic'
loop_
_space_group_symop_operation_xyz
x,y,z
-x,y,1/2-z
-x,-y,-z
x,-y,1/2+z
1/2+x,1/2+y,z
1/2-x,1/2+y,1/2-z
1/2-x,1/2-y,-z
1/2+x,1/2-y,1/2+z
loop_
_atom_site_type_symbol
_atom_site_label
_atom_site_fract_x
_atom_site_fract_y
_atom_site_fract_z
Si Si1 0.711191 0.940120 0.503671
Si Si2 0.789270 0.308852 0.404363
Si Si3 0.043338 0.899575 0.113508
Si Si4 0.000000 0.668991 0.750000
Si Si5 0.712445 0.916985 0.872159
O O1 0.863841 0.931381 0.480413
O O2 0.611227 0.881682 0.386991
O O3 0.701349 0.931277 0.684043
O O4 0.671405 0.014690 0.438022
O O5 0.750000 0.250000 0.500000
O O6 0.648927 0.342228 0.241636
O O7 0.907282 0.289419 0.329507
O O8 0.865809 0.362982 0.555770
O O9 0.000000 0.941573 0.250000
O O10 0.880754 0.888349 0.967643
#
# Coordination Sequence:
#
# PCOD9296787 Si02
#       5
#     8   8   8   4   8
#     4  11  22  39  67 101 135 172 225 283 359 394
#     4  10  23  46  66  94 136 183 229 274 333 403
#     4   9  19  39  63  92 132 170 219 281 327 398
#     4  10  24  46  68  98 136 178 228 286 340 418
#     4  11  22  39  66  98 133 175 222 284 338 407
#
# _framework density 23.057105
#
# number of rings (size 3 to 8) (size 9 to 14) (size 15 to 20)
#    0.000    1.778    0.000    5.333    0.000    6.222 
#   20.000    2.222    0.000    0.000    0.000    0.000 
#    0.000    0.000    0.000    0.000    0.000    0.000 
#
# Total GULP energy -100312.595853 kJ/mol
# GULP energy per Si atom -5572.921992 kJ/mol
# Density = 2.300463 g / cm^3
# Si number density = 23.057105 Si / 1000 Ang^3
#
#
#
# Elastic Constant Matrix: (Units=GPa)
#
#
# Indices 1 2 3 4 5 6 
#
# 1 123.4265 20.3870 53.3905 0.0000 -38.3118 0.0000
# 2 20.3870 83.7923 35.3153 0.0000 -23.0397 0.0000
# 3 53.3905 35.3153 150.7955 0.0000 -41.5922 0.0000
# 4 0.0000 0.0000 0.0000 38.8502 0.0000 -14.9159
# 5 -38.3118 -23.0397 -41.5922 0.0000 40.7850 0.0000
# 6 0.0000 0.0000 0.0000 -14.9159 0.0000 23.0203
#
#
#
# Elastic Compliance Matrix: (Units=1/GPa)
#
#
# Indices 1 2 3 4 5 6 
#
# 1 0.011705 0.000475 -0.001598 0.000000 0.009634 0.000000
# 2 0.000475 0.014410 -0.001634 0.000000 0.006920 0.000000
# 3 -0.001598 -0.001634 0.009616 0.000000 0.007382 0.000000
# 4 0.000000 0.000000 0.000000 0.034264 0.000000 0.022201
# 5 0.009634 0.006920 0.007382 0.000000 0.045005 0.000000
# 6 0.000000 0.000000 0.000000 0.022201 0.000000 0.057825
#
#
# Mechanical properties :
#
#
# Convention : Reuss Voigt Hill
#
# Bulk Modulus (GPa) = 33.09547 64.02220 48.55883
# Shear Modulus (GPa) = 26.53739 37.12586 31.83162
#
# Velocity S-wave (km/s) = 3.39623 4.01705 3.71961
# Velocity P-wave (km/s) = 5.45565 7.02443 6.28914
#
# Compressibility (1/GPa) = 0.03021562
#
# Stress axis : x y z
#
# Youngs Moduli (GPa) = 85.43143 69.39523 103.99113
#
# Poissons Ratio (x) = -0.03293 0.16622
# Poissons Ratio (y) = -0.04054 0.16995
# Poissons Ratio (z) = 0.13655 0.11341
#
# Static dielectric constant tensor:
#      x y z
#    x 1.977840 0.000000 0.047500 
#    y 0.000000 1.876050 0.000000 
#    z 0.047500 0.000000 1.927450 
# 
# From -- ./inp_files/29423.got.cif
#   From: 2010.05.17/outbox.cif.g08.bks.cpg/sg15_15_cif.got.tgz:29423.got - 2010.06.03 18:47:42.
