data_PCOD9296970
_publ_section_title
;
Structure prediction by ZEFSAII (Michael W. Deem and Ramdas Pophale) SiO2 
 PCOD9296970
Probable space group: C 2/C
;
_chemical_formula_sum "Si O2"
_cell_formula_units_Z 40
_cell_length_a 9.246747
_cell_length_b 19.170652
_cell_length_c 12.926813
_cell_angle_alpha 90.000000
_cell_angle_beta 46.547562
_cell_angle_gamma 90.000000
_cell_volume 1663.494474
_symmetry_space_group_name_H-M "C 2/C"
_symmetry_group_IT_number 15
_symmetry_cell_setting 'monoclinic'
loop_
_space_group_symop_operation_xyz
x,y,z
-x,y,1/2-z
-x,-y,-z
x,-y,1/2+z
1/2+x,1/2+y,z
1/2-x,1/2+y,1/2-z
1/2-x,1/2-y,-z
1/2+x,1/2-y,1/2+z
loop_
_atom_site_type_symbol
_atom_site_label
_atom_site_fract_x
_atom_site_fract_y
_atom_site_fract_z
Si Si1 0.798826 0.317844 0.282079
Si Si2 0.702634 0.880322 0.604225
Si Si3 0.937881 0.043034 0.631540
Si Si4 0.182969 0.899989 0.727987
Si Si5 0.481312 0.800135 0.976464
O O1 0.714454 0.396150 0.321068
O O2 0.631644 0.264235 0.402707
O O3 0.000000 0.312924 0.250000
O O4 0.840884 0.297605 0.143166
O O5 0.500000 0.916593 0.750000
O O6 0.820457 0.869775 0.653396
O O7 0.626518 0.813148 0.580175
O O8 0.848485 0.919732 0.451956
O O9 0.841644 0.983526 0.750565
O O10 0.000000 0.000000 0.500000
O O11 0.383868 0.870643 0.579924
O O12 0.000000 0.873763 0.750000
#
# Coordination Sequence:
#
# PCOD9296970 Si02
#       5
#     8   8   8   8   8
#     4  12  29  48  79 114 153 209 260 313 389 460
#     4   9  22  46  69 109 150 197 248 312 383 448
#     4  10  25  45  75 112 160 194 254 315 388 453
#     4  10  23  46  76 106 157 197 248 324 376 456
#     4  11  27  48  78 107 156 202 263 316 386 452
#
# _framework density 24.045767999999999
#
# number of rings (size 3 to 8) (size 9 to 14) (size 15 to 20)
#    0.000    1.600    0.000    1.200   16.800    8.000 
#    3.600    0.000    0.000    0.000    0.000    0.000 
#    0.000    0.000    0.000    0.000    0.000    0.000 
#
# Total GULP energy -111752.953898 kJ/mol
# GULP energy per Si atom -5587.647695 kJ/mol
# Density = 2.399104 g / cm^3
# Si number density = 24.045768 Si / 1000 Ang^3
#
#
#
# Elastic Constant Matrix: (Units=GPa)
#
#
# Indices 1 2 3 4 5 6 
#
# 1 159.8532 43.4729 12.4651 0.0000 6.1826 0.0000
# 2 43.4729 144.4043 42.3875 0.0000 -20.4365 0.0000
# 3 12.4651 42.3875 79.2434 0.0000 -5.8619 0.0000
# 4 0.0000 0.0000 0.0000 51.6072 0.0000 -10.4386
# 5 6.1826 -20.4365 -5.8619 0.0000 27.8254 0.0000
# 6 0.0000 0.0000 0.0000 -10.4386 0.0000 -13.1661
#
#
#
# Elastic Compliance Matrix: (Units=1/GPa)
#
#
# Indices 1 2 3 4 5 6 
#
# 1 0.007109 -0.002649 0.000039 0.000000 -0.003517 0.000000
# 2 -0.002649 0.010012 -0.004420 0.000000 0.007011 0.000000
# 3 0.000039 -0.004420 0.014970 0.000000 -0.000101 0.000000
# 4 0.000000 0.000000 0.000000 0.016699 0.000000 -0.013240
# 5 -0.003517 0.007011 -0.000101 0.000000 0.041848 0.000000
# 6 0.000000 0.000000 0.000000 -0.013240 0.000000 -0.065455
#
#
# Mechanical properties :
#
#
# Convention : Reuss Voigt Hill
#
# Bulk Modulus (GPa) = 55.46353 64.46133 59.96243
# Shear Modulus (GPa) = 110.48479 32.26497 71.37488
#
# Velocity S-wave (km/s) = 6.78583 3.66705 5.45411
# Velocity P-wave (km/s) = 9.19307 6.69296 8.04078
#
# Compressibility (1/GPa) = 0.01802986
#
# Stress axis : x y z
#
# Youngs Moduli (GPa) = 140.66124 99.87706 66.79961
#
# Poissons Ratio (x) = 0.26461 -0.00258
# Poissons Ratio (y) = 0.37267 0.29527
# Poissons Ratio (z) = -0.00544 0.44148
#
# Static dielectric constant tensor:
#      x y z
#    x 1.977400 0.000000 -0.016040 
#    y 0.000000 1.972130 0.000000 
#    z -0.016040 0.000000 1.993290 
# 
# From -- ./inp_files/135753.got.cif
#   From: 2010.05.17/outbox.cif.g08.bks.cpg/sg15_68_cif.got.tgz:135753.got - 2010.06.03 18:47:42.
