data_PCOD9296288
_publ_section_title
;
Structure prediction by ZEFSAII (Michael W. Deem and Ramdas Pophale) SiO2 
 PCOD9296288
Probable space group: C 2/C
;
_chemical_formula_sum "Si O2"
_cell_formula_units_Z 48
_cell_length_a 24.900559
_cell_length_b 8.330262
_cell_length_c 13.173555
_cell_angle_alpha 90.000000
_cell_angle_beta 133.692561
_cell_angle_gamma 90.000000
_cell_volume 1975.800931
_symmetry_space_group_name_H-M "C 2/C"
_symmetry_group_IT_number 15
_symmetry_cell_setting 'monoclinic'
loop_
_space_group_symop_operation_xyz
x,y,z
-x,y,1/2-z
-x,-y,-z
x,-y,1/2+z
1/2+x,1/2+y,z
1/2-x,1/2+y,1/2-z
1/2-x,1/2-y,-z
1/2+x,1/2-y,1/2+z
loop_
_atom_site_type_symbol
_atom_site_label
_atom_site_fract_x
_atom_site_fract_y
_atom_site_fract_z
Si Si1 0.135085 0.267590 0.316990
Si Si2 0.382554 0.873073 0.748858
Si Si3 0.491342 0.309440 0.980661
Si Si4 0.072281 0.200015 0.885901
Si Si5 0.269189 0.732669 0.386899
Si Si6 0.272733 0.110017 0.388064
O O1 0.137269 0.441901 0.265132
O O2 0.052343 0.217267 0.180392
O O3 0.196158 0.149238 0.348318
O O4 0.161526 0.301596 0.465295
O O5 0.423654 0.838889 0.695319
O O6 0.303084 0.789240 0.639086
O O7 0.433812 0.791760 0.901876
O O8 0.500000 0.500000 0.000000
O O9 0.441686 0.260574 0.014627
O O10 0.000000 0.104424 0.750000
O O11 0.155838 0.132019 0.992586
O O12 0.239608 0.675822 0.239353
O O13 0.287807 0.920813 0.405277
#
# Coordination Sequence:
#
# PCOD9296288 Si02
#       6
#     8   8   8   8   8   8
#     4  11  23  46  68 105 141 188 244 296 355 428
#     4  11  24  42  76 103 140 193 237 296 362 426
#     4  11  24  48  71 104 148 190 237 300 358 425
#     4  10  23  44  71 100 140 186 236 293 357 425
#     4  12  23  46  69 107 141 190 236 298 364 424
#     4  11  25  42  70 101 145 185 237 297 352 425
#
# _framework density 24.293944
#
# number of rings (size 3 to 8) (size 9 to 14) (size 15 to 20)
#    0.000    1.000    3.333    3.000    0.000    0.000 
#    9.000    0.833    0.000    0.000    0.000    0.000 
#    0.000    0.000    0.000    0.000    0.000    0.000 
#
# Total GULP energy -134070.802340 kJ/mol
# GULP energy per Si atom -5586.283431 kJ/mol
# Density = 2.423865 g / cm^3
# Si number density = 24.293944 Si / 1000 Ang^3
#
#
#
# Elastic Constant Matrix: (Units=GPa)
#
#
# Indices 1 2 3 4 5 6 
#
# 1 83.4179 1.3685 30.1373 0.0000 11.9993 0.0000
# 2 1.3685 78.9555 39.2859 0.0000 -2.8066 0.0000
# 3 30.1373 39.2859 221.1611 0.0000 30.5341 0.0000
# 4 0.0000 0.0000 0.0000 30.9628 0.0000 -3.4462
# 5 11.9993 -2.8066 30.5341 0.0000 35.8740 0.0000
# 6 0.0000 0.0000 0.0000 -3.4462 0.0000 25.9740
#
#
#
# Elastic Compliance Matrix: (Units=1/GPa)
#
#
# Indices 1 2 3 4 5 6 
#
# 1 0.012934 0.000361 -0.001397 0.000000 -0.003109 0.000000
# 2 0.000361 0.014329 -0.003096 0.000000 0.003636 0.000000
# 3 -0.001397 -0.003096 0.005928 0.000000 -0.004820 0.000000
# 4 0.000000 0.000000 0.000000 0.032781 0.000000 0.004349
# 5 -0.003109 0.003636 -0.004820 0.000000 0.033302 0.000000
# 6 0.000000 0.000000 0.000000 0.004349 0.000000 0.039077
#
#
# Mechanical properties :
#
#
# Convention : Reuss Voigt Hill
#
# Bulk Modulus (GPa) = 40.12189 58.34644 49.23416
# Shear Modulus (GPa) = 32.27365 39.41169 35.84267
#
# Velocity S-wave (km/s) = 3.64877 4.03213 3.84523
# Velocity P-wave (km/s) = 5.85682 6.76361 6.32648
#
# Compressibility (1/GPa) = 0.02492405
#
# Stress axis : x y z
#
# Youngs Moduli (GPa) = 77.31610 69.78821 168.70460
#
# Poissons Ratio (x) = -0.02517 0.23574
# Poissons Ratio (y) = -0.02788 0.52239
# Poissons Ratio (z) = 0.10804 0.21610
#
# Static dielectric constant tensor:
#      x y z
#    x 2.004740 0.000000 0.011180 
#    y 0.000000 1.936180 0.000000 
#    z 0.011180 0.000000 1.992250 
# 
# From -- ./inp_files/176958.got.cif
#   From: 2010.05.17/outbox.cif.g08.bks.cpg/sg15_89_cif.got.tgz:176958.got - 2010.06.03 18:47:42.
