data_PCOD9296948
_publ_section_title
;
Structure prediction by ZEFSAII (Michael W. Deem and Ramdas Pophale) SiO2 
 PCOD9296948
Probable space group: C 2/C
;
_chemical_formula_sum "Si O2"
_cell_formula_units_Z 48
_cell_length_a 10.679059
_cell_length_b 23.669997
_cell_length_c 8.506969
_cell_angle_alpha 90.000000
_cell_angle_beta 75.089313
_cell_angle_gamma 90.000000
_cell_volume 2077.928732
_symmetry_space_group_name_H-M "C 2/C"
_symmetry_group_IT_number 15
_symmetry_cell_setting 'monoclinic'
loop_
_space_group_symop_operation_xyz
x,y,z
-x,y,1/2-z
-x,-y,-z
x,-y,1/2+z
1/2+x,1/2+y,z
1/2-x,1/2+y,1/2-z
1/2-x,1/2-y,-z
1/2+x,1/2-y,1/2+z
loop_
_atom_site_type_symbol
_atom_site_label
_atom_site_fract_x
_atom_site_fract_y
_atom_site_fract_z
Si Si1 0.500000 0.370300 0.750000
Si Si2 0.464653 0.561939 0.949318
Si Si3 0.500000 0.894739 0.750000
Si Si4 0.656309 0.799938 0.194073
Si Si5 0.686137 0.026318 0.999352
Si Si6 0.275647 0.811074 0.692975
Si Si7 0.153365 0.575471 0.695928
O O1 0.521481 0.400030 0.571874
O O2 0.633555 0.337862 0.735670
O O3 0.500000 0.570146 0.750000
O O4 0.500000 0.500000 0.000000
O O5 0.309828 0.561382 0.015117
O O6 0.437695 0.938489 0.897140
O O7 0.384483 0.851948 0.732970
O O8 0.500000 0.791256 0.250000
O O9 0.741346 0.753251 0.257744
O O10 0.700336 0.862956 0.227829
O O11 0.680931 0.801684 0.000174
O O12 0.690669 0.959421 0.031217
O O13 0.692210 0.030266 0.811716
O O14 0.000000 0.581476 0.750000
#
# Coordination Sequence:
#
# PCOD9296948 Si02
#       7
#     4   8   4   8   8   8   8
#     4  12  26  50  79 105 158 210 256 320 386 476
#     4  12  27  47  73 111 158 207 260 312 387 476
#     4  12  24  46  73 115 154 188 256 324 386 456
#     4  10  23  46  74 105 143 202 264 307 388 471
#     4  12  26  43  70 113 150 192 248 312 388 459
#     4  11  25  47  77 106 149 204 256 323 388 457
#     4  11  24  41  69 107 149 188 239 309 382 464
#
# _framework density 23.099926
#
# number of rings (size 3 to 8) (size 9 to 14) (size 15 to 20)
#    0.000    0.667    4.167    3.500    7.000    0.000 
#    0.000    6.667    0.000    0.000    0.000    0.000 
#    0.000    0.000    0.000    0.000    0.000    0.000 
#
# Total GULP energy -133777.063819 kJ/mol
# GULP energy per Si atom -5574.044326 kJ/mol
# Density = 2.304735 g / cm^3
# Si number density = 23.099926 Si / 1000 Ang^3
#
#
#
# Elastic Constant Matrix: (Units=GPa)
#
#
# Indices 1 2 3 4 5 6 
#
# 1 117.9434 47.5081 17.2593 0.0000 -15.3579 0.0000
# 2 47.5081 113.1278 31.9602 0.0000 -12.0496 0.0000
# 3 17.2593 31.9602 86.1006 0.0000 -6.8379 0.0000
# 4 0.0000 0.0000 0.0000 302.8383 0.0000 -17.6940
# 5 -15.3579 -12.0496 -6.8379 0.0000 32.6504 0.0000
# 6 0.0000 0.0000 0.0000 -17.6940 0.0000 35.4142
#
#
#
# Elastic Compliance Matrix: (Units=1/GPa)
#
#
# Indices 1 2 3 4 5 6 
#
# 1 0.010580 -0.003972 -0.000374 0.000000 0.003433 0.000000
# 2 -0.003972 0.011649 -0.003391 0.000000 0.001721 0.000000
# 3 -0.000374 -0.003391 0.013052 0.000000 0.001306 0.000000
# 4 0.000000 0.000000 0.000000 0.003401 0.000000 0.001699
# 5 0.003433 0.001721 0.001306 0.000000 0.033151 0.000000
# 6 0.000000 0.000000 0.000000 0.001699 0.000000 0.029086
#
#
# Mechanical properties :
#
#
# Convention : Reuss Voigt Hill
#
# Bulk Modulus (GPa) = 50.48753 56.73635 53.61194
# Shear Modulus (GPa) = 40.65190 88.87686 64.76438
#
# Velocity S-wave (km/s) = 4.19958 6.20955 5.30071
# Velocity P-wave (km/s) = 6.73936 8.71928 7.79246
#
# Compressibility (1/GPa) = 0.01980687
#
# Stress axis : x y z
#
# Youngs Moduli (GPa) = 94.51586 85.84508 76.61785
#
# Poissons Ratio (x) = 0.34097 0.02865
# Poissons Ratio (y) = 0.37541 0.25983
# Poissons Ratio (z) = 0.03534 0.29112
#
# Static dielectric constant tensor:
#      x y z
#    x 1.961100 0.000000 -0.000200 
#    y 0.000000 1.995200 0.000000 
#    z -0.000200 0.000000 1.876930 
# 
# From -- ./inp_files/32567.got.cif
#   From: 2010.05.17/outbox.cif.g08.bks.cpg/sg15_17_cif.got.tgz:32567.got - 2010.06.03 18:47:42.
