data_PCOD9296173
_publ_section_title
;
Structure prediction by ZEFSAII (Michael W. Deem and Ramdas Pophale) SiO2 
 PCOD9296173
Probable space group: C 2/C
;
_chemical_formula_sum "Si O2"
_cell_formula_units_Z 48
_cell_length_a 11.766651
_cell_length_b 19.683021
_cell_length_c 13.207064
_cell_angle_alpha 90.000000
_cell_angle_beta 48.576212
_cell_angle_gamma 90.000000
_cell_volume 2293.598807
_symmetry_space_group_name_H-M "C 2/C"
_symmetry_group_IT_number 15
_symmetry_cell_setting 'monoclinic'
loop_
_space_group_symop_operation_xyz
x,y,z
-x,y,1/2-z
-x,-y,-z
x,-y,1/2+z
1/2+x,1/2+y,z
1/2-x,1/2+y,1/2-z
1/2-x,1/2-y,-z
1/2+x,1/2-y,1/2+z
loop_
_atom_site_type_symbol
_atom_site_label
_atom_site_fract_x
_atom_site_fract_y
_atom_site_fract_z
Si Si1 0.847604 0.684259 0.411126
Si Si2 0.429103 0.239345 0.902628
Si Si3 0.631565 0.051669 0.606539
Si Si4 0.764584 0.927342 0.658163
Si Si5 0.537257 0.391266 0.609681
Si Si6 0.533714 0.111340 0.470489
O O1 0.750000 0.750000 0.500000
O O2 0.736284 0.638137 0.411554
O O3 0.000000 0.697533 0.250000
O O4 0.898849 0.635948 0.475336
O O5 0.500000 0.228239 0.750000
O O6 0.493779 0.312606 0.898826
O O7 0.250000 0.250000 0.000000
O O8 0.450756 0.178475 0.968510
O O9 0.500000 0.084407 0.750000
O O10 0.786469 0.092980 0.507788
O O11 0.552545 0.050852 0.542738
O O12 0.681831 0.984764 0.639650
O O13 0.665933 0.906526 0.813823
O O14 0.931262 0.939155 0.604295
O O15 0.500000 0.400709 0.750000
#
# Coordination Sequence:
#
# PCOD9296173 Si02
#       6
#     8   8   8   8   8   8
#     4  10  23  44  68  98 135 179 223 275 347 408
#     4  11  21  37  67 102 133 167 220 284 342 405
#     4  12  25  43  68 100 133 178 238 280 334 406
#     4  11  24  45  68  93 136 188 222 281 339 404
#     4  11  22  44  68  99 139 176 221 287 349 407
#     4  11  22  43  68  96 136 177 229 277 341 404
#
# _framework density 20.927810999999998
#
# number of rings (size 3 to 8) (size 9 to 14) (size 15 to 20)
#    0.000    1.000    3.333    4.500    0.000    4.000 
#    3.000    0.833    0.000    0.000    0.000    0.000 
#    0.000    0.000    0.000    0.000    0.000    0.000 
#
# Total GULP energy -133727.603503 kJ/mol
# GULP energy per Si atom -5571.983479 kJ/mol
# Density = 2.088018 g / cm^3
# Si number density = 20.927811 Si / 1000 Ang^3
#
#
#
# Elastic Constant Matrix: (Units=GPa)
#
#
# Indices 1 2 3 4 5 6 
#
# 1 155.5176 35.7984 67.8175 0.0000 13.2295 0.0000
# 2 35.7984 90.2956 58.0859 0.0000 12.3177 0.0000
# 3 67.8175 58.0859 127.7652 0.0000 10.6049 0.0000
# 4 0.0000 0.0000 0.0000 22.5769 0.0000 33.7000
# 5 13.2295 12.3177 10.6049 0.0000 40.2224 0.0000
# 6 0.0000 0.0000 0.0000 33.7000 0.0000 -11.5415
#
#
#
# Elastic Compliance Matrix: (Units=1/GPa)
#
#
# Indices 1 2 3 4 5 6 
#
# 1 0.008485 -0.000478 -0.004158 0.000000 -0.001548 0.000000
# 2 -0.000478 0.016037 -0.006791 0.000000 -0.002963 0.000000
# 3 -0.004158 -0.006791 0.013123 0.000000 -0.000012 0.000000
# 4 0.000000 0.000000 0.000000 0.008266 0.000000 0.024136
# 5 -0.001548 -0.002963 -0.000012 0.000000 0.026282 0.000000
# 6 0.000000 0.000000 0.000000 0.024136 0.000000 -0.016170
#
#
# Mechanical properties :
#
#
# Convention : Reuss Voigt Hill
#
# Bulk Modulus (GPa) = 67.61263 77.44245 72.52754
# Shear Modulus (GPa) = 59.66023 24.37667 42.01845
#
# Velocity S-wave (km/s) = 5.34505 3.41662 4.48569
# Velocity P-wave (km/s) = 8.39466 7.25598 7.84601
#
# Compressibility (1/GPa) = 0.01479014
#
# Stress axis : x y z
#
# Youngs Moduli (GPa) = 117.85373 62.35479 76.20477
#
# Poissons Ratio (x) = 0.02980 0.31687
# Poissons Ratio (y) = 0.05633 0.51753
# Poissons Ratio (z) = 0.49005 0.42347
#
# Static dielectric constant tensor:
#      x y z
#    x 1.782470 0.000000 0.010700 
#    y 0.000000 1.816820 0.000000 
#    z 0.010700 0.000000 1.760660 
# 
# From -- ./inp_files/89392.got.cif
#   From: 2010.05.17/outbox.cif.g08.bks.cpg/sg15_45_cif.got.tgz:89392.got - 2010.06.03 18:47:42.
