data_PCOD9296227
_publ_section_title
;
Structure prediction by ZEFSAII (Michael W. Deem and Ramdas Pophale) SiO2 
 PCOD9296227
Probable space group: C 2/C
;
_chemical_formula_sum "Si O2"
_cell_formula_units_Z 52
_cell_length_a 18.624922
_cell_length_b 12.288331
_cell_length_c 21.561626
_cell_angle_alpha 90.000000
_cell_angle_beta 153.170031
_cell_angle_gamma 90.000000
_cell_volume 2227.290606
_symmetry_space_group_name_H-M "C 2/C"
_symmetry_group_IT_number 15
_symmetry_cell_setting 'monoclinic'
loop_
_space_group_symop_operation_xyz
x,y,z
-x,y,1/2-z
-x,-y,-z
x,-y,1/2+z
1/2+x,1/2+y,z
1/2-x,1/2+y,1/2-z
1/2-x,1/2-y,-z
1/2+x,1/2-y,1/2+z
loop_
_atom_site_type_symbol
_atom_site_label
_atom_site_fract_x
_atom_site_fract_y
_atom_site_fract_z
Si Si1 0.858061 0.274486 0.515522
Si Si2 0.563365 0.167275 0.056846
Si Si3 0.693516 0.372390 0.081471
Si Si4 0.750000 0.750000 0.500000
Si Si5 0.000000 0.280633 0.750000
Si Si6 0.177807 0.466076 0.202744
Si Si7 0.528307 0.548084 0.649378
Si Si8 0.000000 0.077749 0.250000
O O1 0.667128 0.280903 0.365276
O O2 0.932936 0.306308 0.508103
O O3 0.943946 0.334031 0.640707
O O4 0.907104 0.148015 0.563060
O O5 0.631665 0.271526 0.075255
O O6 0.685879 0.091729 0.188770
O O7 0.484734 0.089352 0.944732
O O8 0.804528 0.442711 0.211725
O O9 0.771601 0.320956 0.081378
O O10 0.553283 0.452694 0.953325
O O11 0.863202 0.847226 0.615825
O O12 0.320480 0.412592 0.273297
O O13 0.566694 0.495558 0.745267
#
# Coordination Sequence:
#
# PCOD9296227 Si02
#       8
#     8   8   8   4   4   8   8   4
#     4  11  23  44  70  99 142 193 240 309 365 432
#     4  11  26  42  72 102 146 187 239 299 361 437
#     4  11  25  43  72 102 142 187 237 299 360 441
#     4  10  24  44  70 102 138 190 234 298 366 424
#     4  10  25  42  67  98 138 192 247 302 375 432
#     4  11  25  43  67 109 139 187 240 297 359 444
#     4  11  23  40  69 103 140 189 243 296 370 440
#     4  10  23  44  69  98 142 188 239 298 363 440
#
# _framework density 23.346751000000001
#
# number of rings (size 3 to 8) (size 9 to 14) (size 15 to 20)
#    0.000    1.231    1.538    2.769    8.615    1.231 
#    0.000    6.154    0.000    0.000    0.000    0.000 
#    0.000    0.000    0.000    0.000    0.000    0.000 
#
# Total GULP energy -144791.342615 kJ/mol
# GULP energy per Si atom -5568.897793 kJ/mol
# Density = 2.329361 g / cm^3
# Si number density = 23.346751 Si / 1000 Ang^3
#
#
#
# Elastic Constant Matrix: (Units=GPa)
#
#
# Indices 1 2 3 4 5 6 
#
# 1 70.6060 20.3922 54.3539 0.0002 -23.9359 0.0006
# 2 20.3922 88.0297 34.9242 -0.0121 -7.3264 0.0014
# 3 54.3539 34.9242 119.4071 -0.0050 -24.7134 0.0011
# 4 0.0002 -0.0121 -0.0050 45.2625 -0.0031 -6.2870
# 5 -23.9359 -7.3264 -24.7134 -0.0031 47.0627 0.0012
# 6 0.0006 0.0014 0.0011 -6.2870 0.0012 19.8394
#
#
#
# Elastic Compliance Matrix: (Units=1/GPa)
#
#
# Indices 1 2 3 4 5 6 
#
# 1 0.023940 -0.001374 -0.008998 -0.000001 0.007237 -0.000001
# 2 -0.001374 0.012930 -0.003236 0.000003 -0.000385 0.000000
# 3 -0.008998 -0.003236 0.013873 0.000001 0.002205 0.000000
# 4 -0.000001 0.000003 0.000001 0.023111 0.000002 0.007324
# 5 0.007237 -0.000385 0.002205 0.000002 0.026027 -0.000001
# 6 -0.000001 0.000000 0.000000 0.007324 -0.000001 0.052726
#
#
# Mechanical properties :
#
#
# Convention : Reuss Voigt Hill
#
# Bulk Modulus (GPa) = 42.50272 55.26483 48.88377
# Shear Modulus (GPa) = 26.64332 33.65774 30.15053
#
# Velocity S-wave (km/s) = 3.38183 3.80102 3.59754
# Velocity P-wave (km/s) = 5.78736 6.55640 6.18385
#
# Compressibility (1/GPa) = 0.02352791
#
# Stress axis : x y z
#
# Youngs Moduli (GPa) = 41.77114 77.34044 72.08030
#
# Poissons Ratio (x) = 0.10624 0.64857
# Poissons Ratio (y) = 0.05738 0.23326
# Poissons Ratio (z) = 0.37585 0.25029
#
# Static dielectric constant tensor:
#      x y z
#    x 1.897980 0.000000 0.000980 
#    y 0.000000 1.875070 0.000000 
#    z 0.000980 0.000000 1.911370 
# 
# From -- ./inp_files/249144.got.cif
#   From: 2010.05.17/outbox.cif.g08.bks.cpg/sg15_125_cif.got.tgz:249144.got - 2010.06.03 18:47:42.
