data_PCOD9296609
_publ_section_title
;
Structure prediction by ZEFSAII (Michael W. Deem and Ramdas Pophale) SiO2 
 PCOD9296609
Probable space group: C 2/C
;
_chemical_formula_sum "Si O2"
_cell_formula_units_Z 44
_cell_length_a 12.109276
_cell_length_b 13.631566
_cell_length_c 14.159496
_cell_angle_alpha 90.000000
_cell_angle_beta 59.404189
_cell_angle_gamma 90.000000
_cell_volume 2011.886650
_symmetry_space_group_name_H-M "C 2/C"
_symmetry_group_IT_number 15
_symmetry_cell_setting 'monoclinic'
loop_
_space_group_symop_operation_xyz
x,y,z
-x,y,1/2-z
-x,-y,-z
x,-y,1/2+z
1/2+x,1/2+y,z
1/2-x,1/2+y,1/2-z
1/2-x,1/2-y,-z
1/2+x,1/2-y,1/2+z
loop_
_atom_site_type_symbol
_atom_site_label
_atom_site_fract_x
_atom_site_fract_y
_atom_site_fract_z
Si Si1 0.128932 0.774131 0.614370
Si Si2 0.795337 0.881365 0.740070
Si Si3 0.969903 0.987285 0.903247
Si Si4 0.000000 0.597285 0.750000
Si Si5 0.747929 0.638798 0.463959
Si Si6 0.972953 0.548902 0.111571
O O1 0.250000 0.750000 0.500000
O O2 0.143806 0.798789 0.719298
O O3 0.063529 0.668169 0.646580
O O4 0.080025 0.876959 0.592922
O O5 0.786808 0.859054 0.632569
O O6 0.651422 0.884042 0.843146
O O7 0.889696 0.977417 0.709166
O O8 0.858763 0.069427 0.936900
O O9 0.000000 0.000000 0.000000
O O10 0.922667 0.524862 0.715516
O O11 0.750000 0.750000 0.500000
O O12 0.891840 0.595445 0.414586
O O13 0.000000 0.500000 0.000000
#
# Coordination Sequence:
#
# PCOD9296609 Si02
#       6
#     8   8   8   4   8   8
#     4  12  25  43  70 108 137 187 238 289 360 427
#     4  11  23  46  68 101 149 180 235 299 358 418
#     4  10  23  45  69  99 140 178 235 295 347 422
#     4  12  24  46  72 102 148 178 242 294 356 432
#     4  11  25  47  71 105 144 189 240 291 363 428
#     4  12  26  46  71 103 142 191 237 299 353 424
#
# _framework density 21.87002
#
# number of rings (size 3 to 8) (size 9 to 14) (size 15 to 20)
#    0.000    0.727    3.636    3.273    5.091    2.909 
#    0.000    5.455    0.000    0.000    0.000    0.000 
#    0.000    0.000    0.000    0.000    0.000    0.000 
#
# Total GULP energy -122481.751065 kJ/mol
# GULP energy per Si atom -5567.352321 kJ/mol
# Density = 2.182024 g / cm^3
# Si number density = 21.870020 Si / 1000 Ang^3
#
#
#
# Elastic Constant Matrix: (Units=GPa)
#
#
# Indices 1 2 3 4 5 6 
#
# 1 98.4818 45.1582 22.1675 0.0000 -14.7008 0.0000
# 2 45.1582 104.0816 27.6046 0.0000 -2.1641 0.0000
# 3 22.1675 27.6046 94.9535 0.0000 -3.8756 0.0000
# 4 0.0000 0.0000 0.0000 40.1219 0.0000 2.8406
# 5 -14.7008 -2.1641 -3.8756 0.0000 40.7766 0.0000
# 6 0.0000 0.0000 0.0000 2.8406 0.0000 17.9995
#
#
#
# Elastic Compliance Matrix: (Units=1/GPa)
#
#
# Indices 1 2 3 4 5 6 
#
# 1 0.013643 -0.005450 -0.001417 0.000000 0.004495 0.000000
# 2 -0.005450 0.012591 -0.002450 0.000000 -0.001530 0.000000
# 3 -0.001417 -0.002450 0.011594 0.000000 0.000461 0.000000
# 4 0.000000 0.000000 0.000000 0.025206 0.000000 -0.003978
# 5 0.004495 -0.001530 0.000461 0.000000 0.026107 0.000000
# 6 0.000000 0.000000 0.000000 -0.003978 0.000000 0.056185
#
#
# Mechanical properties :
#
#
# Convention : Reuss Voigt Hill
#
# Bulk Modulus (GPa) = 52.10512 54.15305 53.12909
# Shear Modulus (GPa) = 29.35006 33.28537 31.31772
#
# Velocity S-wave (km/s) = 3.66734 3.90547 3.78827
# Velocity P-wave (km/s) = 6.46600 6.71952 6.59398
#
# Compressibility (1/GPa) = 0.01919197
#
# Stress axis : x y z
#
# Youngs Moduli (GPa) = 73.29644 79.42435 86.25517
#
# Poissons Ratio (x) = 0.43287 0.12224
# Poissons Ratio (y) = 0.39947 0.21136
# Poissons Ratio (z) = 0.10388 0.19462
#
# Static dielectric constant tensor:
#      x y z
#    x 1.854980 0.000000 -0.013230 
#    y 0.000000 1.758650 0.000000 
#    z -0.013230 0.000000 1.749990 
# 
# From -- ./inp_files/143357.got.cif
#   From: 2010.05.17/outbox.cif.g08.bks.cpg/sg15_72_cif.got.tgz:143357.got - 2010.06.03 18:47:42.
