data_PCOD9296401
_publ_section_title
;
Structure prediction by ZEFSAII (Michael W. Deem and Ramdas Pophale) SiO2 
 PCOD9296401
Probable space group: C 2/C
;
_chemical_formula_sum "Si O2"
_cell_formula_units_Z 44
_cell_length_a 8.104569
_cell_length_b 14.091757
_cell_length_c 16.806950
_cell_angle_alpha 90.000000
_cell_angle_beta 99.313688
_cell_angle_gamma 90.000000
_cell_volume 1894.177336
_symmetry_space_group_name_H-M "C 2/C"
_symmetry_group_IT_number 15
_symmetry_cell_setting 'monoclinic'
loop_
_space_group_symop_operation_xyz
x,y,z
-x,y,1/2-z
-x,-y,-z
x,-y,1/2+z
1/2+x,1/2+y,z
1/2-x,1/2+y,1/2-z
1/2-x,1/2-y,-z
1/2+x,1/2-y,1/2+z
loop_
_atom_site_type_symbol
_atom_site_label
_atom_site_fract_x
_atom_site_fract_y
_atom_site_fract_z
Si Si1 0.780432 0.033013 0.164991
Si Si2 0.681411 0.275512 0.733312
Si Si3 0.000000 0.865269 0.250000
Si Si4 0.633339 0.417953 0.006397
Si Si5 0.399149 0.258455 0.950524
Si Si6 0.027548 0.552547 0.917926
O O1 0.803075 0.122501 0.223361
O O2 0.798537 0.075220 0.077958
O O3 0.591956 0.993773 0.155814
O O4 0.906795 0.943067 0.184966
O O5 0.500000 0.235566 0.750000
O O6 0.842437 0.205477 0.759823
O O7 0.664876 0.299403 0.638176
O O8 0.543248 0.317923 0.004713
O O9 0.500000 0.500000 0.000000
O O10 0.776316 0.440268 0.080951
O O11 0.465778 0.157360 0.930351
O O12 0.250000 0.250000 0.000000
O O13 0.000000 0.500000 0.000000
#
# Coordination Sequence:
#
# PCOD9296401 Si02
#       6
#     8   8   4   8   8   8
#     4  11  23  52  72 109 160 196 269 323 394 494
#     4  12  27  50  77 113 160 209 264 329 402 475
#     4  12  26  48  82 108 158 212 260 326 398 480
#     4  11  24  43  76 109 150 198 245 329 401 463
#     4  12  24  46  75 111 148 200 265 320 392 477
#     4  10  23  44  73 109 150 194 255 320 398 481
#
# _framework density 23.22908
#
# number of rings (size 3 to 8) (size 9 to 14) (size 15 to 20)
#    0.000    0.727    4.545    2.727    0.000    5.818 
#    1.636    1.818    0.000    0.000    0.000    0.000 
#    0.000    0.000    0.000    0.000    0.000    0.000 
#
# Total GULP energy -122924.042613 kJ/mol
# GULP energy per Si atom -5587.456482 kJ/mol
# Density = 2.317621 g / cm^3
# Si number density = 23.229080 Si / 1000 Ang^3
#
#
#
# Elastic Constant Matrix: (Units=GPa)
#
#
# Indices 1 2 3 4 5 6 
#
# 1 175.6244 51.7928 47.5267 0.0000 28.8767 0.0000
# 2 51.7928 122.7917 5.8514 0.0000 16.2636 0.0000
# 3 47.5267 5.8514 49.8449 0.0000 10.8180 0.0000
# 4 0.0000 0.0000 0.0000 35.9410 0.0000 8.6412
# 5 28.8767 16.2636 10.8180 0.0000 41.2155 0.0000
# 6 0.0000 0.0000 0.0000 8.6412 0.0000 35.1878
#
#
#
# Elastic Compliance Matrix: (Units=1/GPa)
#
#
# Indices 1 2 3 4 5 6 
#
# 1 0.009231 -0.003099 -0.007740 0.000000 -0.003213 0.000000
# 2 -0.003099 0.009637 0.002309 0.000000 -0.002238 0.000000
# 3 -0.007740 0.002309 0.027775 0.000000 -0.002778 0.000000
# 4 0.000000 0.000000 0.000000 0.029569 0.000000 -0.007261
# 5 -0.003213 -0.002238 -0.002778 0.000000 0.028126 0.000000
# 6 0.000000 0.000000 0.000000 -0.007261 0.000000 0.030202
#
#
# Mechanical properties :
#
#
# Convention : Reuss Voigt Hill
#
# Bulk Modulus (GPa) = 33.80403 62.06697 47.93550
# Shear Modulus (GPa) = 30.96713 38.67485 34.82099
#
# Velocity S-wave (km/s) = 3.65515 4.08479 3.87593
# Velocity P-wave (km/s) = 5.69189 7.00177 6.38053
#
# Compressibility (1/GPa) = 0.02958227
#
# Stress axis : x y z
#
# Youngs Moduli (GPa) = 108.33195 103.76229 36.00414
#
# Poissons Ratio (x) = 0.32157 0.27869
# Poissons Ratio (y) = 0.33574 -0.08315
# Poissons Ratio (z) = 0.83854 -0.23962
#
# Static dielectric constant tensor:
#      x y z
#    x 1.843120 0.000000 -0.257380 
#    y 0.000000 1.838560 0.000000 
#    z -0.257380 0.000000 0.984990 
# 
# From -- ./inp_files/189004.got.cif
#   From: 2010.05.17/outbox.cif.g08.bks.cpg/sg15_95_cif.got.tgz:189004.got - 2010.06.03 18:47:42.
