data_PCOD9296250
_publ_section_title
;
Structure prediction by ZEFSAII (Michael W. Deem and Ramdas Pophale) SiO2 
 PCOD9296250
Probable space group: C 2/C
;
_chemical_formula_sum "Si O2"
_cell_formula_units_Z 36
_cell_length_a 16.333574
_cell_length_b 8.955141
_cell_length_c 11.658002
_cell_angle_alpha 90.000000
_cell_angle_beta 110.683456
_cell_angle_gamma 90.000000
_cell_volume 1595.302151
_symmetry_space_group_name_H-M "C 2/C"
_symmetry_group_IT_number 15
_symmetry_cell_setting 'monoclinic'
loop_
_space_group_symop_operation_xyz
x,y,z
-x,y,1/2-z
-x,-y,-z
x,-y,1/2+z
1/2+x,1/2+y,z
1/2-x,1/2+y,1/2-z
1/2-x,1/2-y,-z
1/2+x,1/2-y,1/2+z
loop_
_atom_site_type_symbol
_atom_site_label
_atom_site_fract_x
_atom_site_fract_y
_atom_site_fract_z
Si Si1 0.000000 0.192637 0.250000
Si Si2 0.646991 0.232883 0.424892
Si Si3 0.859955 0.893805 0.856624
Si Si4 0.420461 0.076831 0.530020
Si Si5 0.811614 0.777116 0.304493
O O1 0.066576 0.100685 0.204405
O O2 0.048461 0.301362 0.363496
O O3 0.750000 0.250000 0.500000
O O4 0.603403 0.329836 0.504732
O O5 0.634222 0.278153 0.287781
O O6 0.623961 0.060841 0.427929
O O7 0.785970 0.778699 0.774014
O O8 0.816396 0.055015 0.854069
O O9 0.354868 0.158658 0.410932
O O10 0.500000 0.000000 0.500000
#
# Coordination Sequence:
#
# PCOD9296250 Si02
#       5
#     4   8   8   8   8
#     4  12  28  44  70 106 146 180 246 290 356 416
#     4  10  23  44  70 103 140 179 238 283 346 420
#     4  11  26  47  72 106 141 187 237 291 352 423
#     4  12  25  46  73 105 144 189 232 295 356 417
#     4  11  26  46  76 101 144 188 237 290 353 420
#
# _framework density 22.566258000000001
#
# number of rings (size 3 to 8) (size 9 to 14) (size 15 to 20)
#    0.000    0.889    2.222    4.000    9.333    3.556 
#    0.000    0.000    0.000    0.000    0.000    0.000 
#    0.000    0.000    0.000    0.000    0.000    0.000 
#
# Total GULP energy -100766.190318 kJ/mol
# GULP energy per Si atom -5598.121684 kJ/mol
# Density = 2.251490 g / cm^3
# Si number density = 22.566258 Si / 1000 Ang^3
#
#
#
# Elastic Constant Matrix: (Units=GPa)
#
#
# Indices 1 2 3 4 5 6 
#
# 1 69.8889 1.2242 -9.0205 0.0000 -19.0668 0.0000
# 2 1.2242 106.9328 -7.6134 0.0000 2.9234 0.0000
# 3 -9.0205 -7.6134 91.7432 0.0000 -11.3804 0.0000
# 4 0.0000 0.0000 0.0000 35.3335 0.0000 -2.5743
# 5 -19.0668 2.9234 -11.3804 0.0000 28.4397 0.0000
# 6 0.0000 0.0000 0.0000 -2.5743 0.0000 42.2227
#
#
#
# Elastic Compliance Matrix: (Units=1/GPa)
#
#
# Indices 1 2 3 4 5 6 
#
# 1 0.018556 -0.000342 0.003518 0.000000 0.013884 0.000000
# 2 -0.000342 0.009426 0.000631 0.000000 -0.000945 0.000000
# 3 0.003518 0.000631 0.012188 0.000000 0.007171 0.000000
# 4 0.000000 0.000000 0.000000 0.028428 0.000000 0.001733
# 5 0.013884 -0.000945 0.007171 0.000000 0.047437 0.000000
# 6 0.000000 0.000000 0.000000 0.001733 0.000000 0.023790
#
#
# Mechanical properties :
#
#
# Convention : Reuss Voigt Hill
#
# Bulk Modulus (GPa) = 20.92619 26.41617 23.67118
# Shear Modulus (GPa) = 33.75250 40.13083 36.94167
#
# Velocity S-wave (km/s) = 3.87163 4.22163 4.05041
# Velocity P-wave (km/s) = 5.41104 5.95771 5.69095
#
# Compressibility (1/GPa) = 0.04778700
#
# Stress axis : x y z
#
# Youngs Moduli (GPa) = 53.89040 106.08530 82.04887
#
# Poissons Ratio (x) = 0.03623 -0.28868
# Poissons Ratio (y) = 0.01840 -0.05181
# Poissons Ratio (z) = -0.18961 -0.06699
#
# Static dielectric constant tensor:
#      x y z
#    x 1.849730 0.000000 -0.010190 
#    y 0.000000 1.775980 0.000000 
#    z -0.010190 0.000000 1.829660 
# 
# From -- ./inp_files/102524.got.cif
#   From: 2010.05.17/outbox.cif.g08.bks.cpg/sg15_52_cif.got.tgz:102524.got - 2010.06.03 18:47:42.
