data_PCOD9296440
_publ_section_title
;
Structure prediction by ZEFSAII (Michael W. Deem and Ramdas Pophale) SiO2 
 PCOD9296440
Probable space group: C 2/C
;
_chemical_formula_sum "Si O2"
_cell_formula_units_Z 56
_cell_length_a 12.190045
_cell_length_b 27.556594
_cell_length_c 9.222925
_cell_angle_alpha 90.000000
_cell_angle_beta 64.026209
_cell_angle_gamma 90.000000
_cell_volume 2785.201033
_symmetry_space_group_name_H-M "C 2/C"
_symmetry_group_IT_number 15
_symmetry_cell_setting 'monoclinic'
loop_
_space_group_symop_operation_xyz
x,y,z
-x,y,1/2-z
-x,-y,-z
x,-y,1/2+z
1/2+x,1/2+y,z
1/2-x,1/2+y,1/2-z
1/2-x,1/2-y,-z
1/2+x,1/2-y,1/2+z
loop_
_atom_site_type_symbol
_atom_site_label
_atom_site_fract_x
_atom_site_fract_y
_atom_site_fract_z
Si Si1 0.379510 0.698960 0.077870
Si Si2 0.614563 0.795549 0.577531
Si Si3 0.066636 0.539666 0.560928
Si Si4 0.000000 0.858984 0.250000
Si Si5 0.155430 0.041273 0.016965
Si Si6 0.427910 0.096596 0.441636
Si Si7 0.500000 0.370973 0.750000
Si Si8 0.824259 0.051738 0.834740
O O1 0.237905 0.701601 0.105569
O O2 0.415955 0.665703 0.197982
O O3 0.402323 0.756687 0.042922
O O4 0.463185 0.674048 0.905990
O O5 0.500000 0.788525 0.750000
O O6 0.614728 0.849115 0.516828
O O7 0.210947 0.542630 0.487861
O O8 0.000000 0.533403 0.750000
O O9 0.000000 0.500000 0.500000
O O10 0.022828 0.588784 0.514047
O O11 0.889397 0.896388 0.295942
O O12 0.078800 0.089481 0.107705
O O13 0.110617 0.988983 0.103475
O O14 0.175719 0.036613 0.833328
O O15 0.500000 0.089174 0.250000
O O16 0.310432 0.062024 0.523697
#
# Coordination Sequence:
#
# PCOD9296440 Si02
#       8
#     8   8   8   4   8   8   4   8
#     4  11  24  47  72 101 139 176 230 288 350 419
#     4  10  23  44  76 102 127 181 234 281 346 428
#     4  12  23  41  64  94 135 178 225 285 343 402
#     4  12  23  44  70  90 140 180 225 280 344 414
#     4  12  27  43  66  98 144 183 236 278 350 409
#     4  11  24  40  67 102 131 172 231 281 339 403
#     4  12  29  46  68 108 142 184 229 300 352 412
#     4  12  26  43  65  98 135 188 229 282 337 420
#
# _framework density 20.106266999999999
#
# number of rings (size 3 to 8) (size 9 to 14) (size 15 to 20)
#    0.000    0.571    6.429    0.857    8.000    1.143 
#    1.286    0.714    0.000    0.000    0.000    0.000 
#    0.000    0.000    0.000    0.000    0.000    0.000 
#
# Total GULP energy -155906.426981 kJ/mol
# GULP energy per Si atom -5568.086678 kJ/mol
# Density = 2.006050 g / cm^3
# Si number density = 20.106267 Si / 1000 Ang^3
#
#
#
# Elastic Constant Matrix: (Units=GPa)
#
#
# Indices 1 2 3 4 5 6 
#
# 1 53.6572 34.2891 17.6353 0.0000 -12.9054 0.0000
# 2 34.2891 123.6050 49.7947 0.0000 8.1026 0.0000
# 3 17.6353 49.7947 98.6736 0.0000 5.6745 0.0000
# 4 0.0000 0.0000 0.0000 6.8057 0.0000 32.3893
# 5 -12.9054 8.1026 5.6745 0.0000 35.5349 0.0000
# 6 0.0000 0.0000 0.0000 32.3893 0.0000 31.6461
#
#
#
# Elastic Compliance Matrix: (Units=1/GPa)
#
#
# Indices 1 2 3 4 5 6 
#
# 1 0.026821 -0.007539 -0.001663 0.000000 0.011726 0.000000
# 2 -0.007539 0.012355 -0.004610 0.000000 -0.004819 0.000000
# 3 -0.001663 -0.004610 0.012851 0.000000 -0.001605 0.000000
# 4 0.000000 0.000000 0.000000 -0.037959 0.000000 0.038850
# 5 0.011726 -0.004819 -0.001605 0.000000 0.033755 0.000000
# 6 0.000000 0.000000 0.000000 0.038850 0.000000 -0.008163
#
#
# Mechanical properties :
#
#
# Convention : Reuss Voigt Hill
#
# Bulk Modulus (GPa) = 40.98121 53.26379 47.12250
# Shear Modulus (GPa) = 66.29661 26.41177 46.35419
#
# Velocity S-wave (km/s) = 5.74845 3.62831 4.80673
# Velocity P-wave (km/s) = 8.03033 6.64089 7.36843
#
# Compressibility (1/GPa) = 0.02440143
#
# Stress axis : x y z
#
# Youngs Moduli (GPa) = 37.28359 80.94019 77.81783
#
# Poissons Ratio (x) = 0.61021 0.12945
# Poissons Ratio (y) = 0.28108 0.35876
# Poissons Ratio (z) = 0.06202 0.37315
#
# Static dielectric constant tensor:
#      x y z
#    x 2.144780 0.000000 0.028610 
#    y 0.000000 1.809410 0.000000 
#    z 0.028610 0.000000 1.721790 
# 
# From -- ./inp_files/34257.got.cif
#   From: 2010.05.17/outbox.cif.g08.bks.cpg/sg15_18_cif.got.tgz:34257.got - 2010.06.03 18:47:42.
