data_PCOD9296187
_publ_section_title
;
Structure prediction by ZEFSAII (Michael W. Deem and Ramdas Pophale) SiO2 
 PCOD9296187
Probable space group: C 2/C
;
_chemical_formula_sum "Si O2"
_cell_formula_units_Z 32
_cell_length_a 7.845140
_cell_length_b 34.494966
_cell_length_c 5.771235
_cell_angle_alpha 90.000000
_cell_angle_beta 62.765484
_cell_angle_gamma 90.000000
_cell_volume 1388.659408
_symmetry_space_group_name_H-M "C 2/C"
_symmetry_group_IT_number 15
_symmetry_cell_setting 'monoclinic'
loop_
_space_group_symop_operation_xyz
x,y,z
-x,y,1/2-z
-x,-y,-z
x,-y,1/2+z
1/2+x,1/2+y,z
1/2-x,1/2+y,1/2-z
1/2-x,1/2-y,-z
1/2+x,1/2-y,1/2+z
loop_
_atom_site_type_symbol
_atom_site_label
_atom_site_fract_x
_atom_site_fract_y
_atom_site_fract_z
Si Si1 0.794830 0.395796 0.001431
Si Si2 0.721411 0.486154 0.083107
Si Si3 0.500000 0.852180 0.250000
Si Si4 0.000000 0.163085 0.750000
Si Si5 0.297773 0.705069 0.494542
O O1 0.000000 0.392979 0.750000
O O2 0.730654 0.439977 0.045524
O O3 0.846883 0.379876 0.223746
O O4 0.627003 0.367198 0.019456
O O5 0.500000 0.499481 0.250000
O O6 0.801864 0.496744 0.289502
O O7 0.375988 0.822081 0.481268
O O8 0.845892 0.191107 0.724806
O O9 0.500000 0.697772 0.250000
O O10 0.250000 0.750000 0.500000
#
# Coordination Sequence:
#
# PCOD9296187 Si02
#       5
#     8   8   4   4   8
#     4  11  23  42  67  95 130 177 223 282 333 414
#     4  10  23  44  69 101 140 185 232 284 349 413
#     4  10  24  42  60  96 130 166 228 270 344 400
#     4  10  24  44  64  94 132 176 220 270 352 394
#     4  11  22  42  64  93 128 170 214 279 330 404
#
# _framework density 23.043809
#
# number of rings (size 3 to 8) (size 9 to 14) (size 15 to 20)
#    0.000    1.500    2.500    1.500    3.500    2.000 
#    2.250    0.000    0.000    0.000    0.000    0.000 
#    0.000    0.000    0.000    0.000    0.000    0.000 
#
# Total GULP energy -89189.397811 kJ/mol
# GULP energy per Si atom -5574.337363 kJ/mol
# Density = 2.299136 g / cm^3
# Si number density = 23.043809 Si / 1000 Ang^3
#
#
#
# Elastic Constant Matrix: (Units=GPa)
#
#
# Indices 1 2 3 4 5 6 
#
# 1 94.5461 17.3874 16.7303 0.0000 -7.8370 0.0000
# 2 17.3874 138.9268 40.1499 0.0000 13.9112 0.0000
# 3 16.7303 40.1499 95.0643 0.0000 -10.1664 0.0000
# 4 0.0000 0.0000 0.0000 23.4241 0.0000 0.3250
# 5 -7.8370 13.9112 -10.1664 0.0000 38.9822 0.0000
# 6 0.0000 0.0000 0.0000 0.3250 0.0000 36.7216
#
#
#
# Elastic Compliance Matrix: (Units=1/GPa)
#
#
# Indices 1 2 3 4 5 6 
#
# 1 0.011224 -0.001311 -0.001163 0.000000 0.002421 0.000000
# 2 -0.001311 0.008985 -0.004048 0.000000 -0.004526 0.000000
# 3 -0.001163 -0.004048 0.012923 0.000000 0.004581 0.000000
# 4 0.000000 0.000000 0.000000 0.042696 0.000000 -0.000378
# 5 0.002421 -0.004526 0.004581 0.000000 0.028949 0.000000
# 6 0.000000 0.000000 0.000000 -0.000378 0.000000 0.027235
#
#
# Mechanical properties :
#
#
# Convention : Reuss Voigt Hill
#
# Bulk Modulus (GPa) = 49.77819 53.00805 51.39312
# Shear Modulus (GPa) = 32.94796 36.77688 34.86242
#
# Velocity S-wave (km/s) = 3.78537 3.99927 3.89379
# Velocity P-wave (km/s) = 6.38387 6.66173 6.52428
#
# Compressibility (1/GPa) = 0.02008912
#
# Stress axis : x y z
#
# Youngs Moduli (GPa) = 89.09137 111.29376 77.37881
#
# Poissons Ratio (x) = 0.14593 0.08996
# Poissons Ratio (y) = 0.11682 0.31324
# Poissons Ratio (z) = 0.10358 0.45053
#
# Static dielectric constant tensor:
#      x y z
#    x 1.964090 0.000000 0.048190 
#    y 0.000000 1.771430 0.000000 
#    z 0.048190 0.000000 2.006670 
# 
# From -- ./inp_files/2600.got.cif
#   From: 2010.05.17/outbox.cif.g08.bks.cpg/sg15_2_cif.got.tgz:2600.got - 2010.06.03 18:47:42.
