data_PCOD9296748
_publ_section_title
;
Structure prediction by ZEFSAII (Michael W. Deem and Ramdas Pophale) SiO2 
 PCOD9296748
Probable space group: C 2/C
;
_chemical_formula_sum "Si O2"
_cell_formula_units_Z 52
_cell_length_a 28.131348
_cell_length_b 10.079725
_cell_length_c 8.134253
_cell_angle_alpha 90.000000
_cell_angle_beta 64.858813
_cell_angle_gamma 90.000000
_cell_volume 2088.007121
_symmetry_space_group_name_H-M "C 2/C"
_symmetry_group_IT_number 15
_symmetry_cell_setting 'monoclinic'
loop_
_space_group_symop_operation_xyz
x,y,z
-x,y,1/2-z
-x,-y,-z
x,-y,1/2+z
1/2+x,1/2+y,z
1/2-x,1/2+y,1/2-z
1/2-x,1/2-y,-z
1/2+x,1/2-y,1/2+z
loop_
_atom_site_type_symbol
_atom_site_label
_atom_site_fract_x
_atom_site_fract_y
_atom_site_fract_z
Si Si1 0.586725 0.903474 0.910003
Si Si2 0.892371 0.316798 0.992899
Si Si3 0.677662 0.725194 0.932235
Si Si4 0.660303 0.484182 0.165748
Si Si5 0.000000 0.716117 0.750000
Si Si6 0.719746 0.283105 0.875391
Si Si7 0.946880 0.083516 0.104488
O O1 0.592182 0.853274 0.716202
O O2 0.632618 0.831365 0.951156
O O3 0.530686 0.865955 0.068869
O O4 0.592112 0.061406 0.913370
O O5 0.828603 0.313897 0.089990
O O6 0.922113 0.181218 0.002461
O O7 0.675912 0.613938 0.790563
O O8 0.734761 0.791584 0.826751
O O9 0.670747 0.640832 0.110855
O O10 0.597859 0.482807 0.274779
O O11 0.687729 0.413997 0.970784
O O12 0.042048 0.814654 0.766444
O O13 0.750000 0.250000 0.000000
O O14 0.000000 0.000000 0.000000
#
# Coordination Sequence:
#
# PCOD9296748 Si02
#       7
#     8   8   8   8   4   8   8
#     4  12  27  51  76 113 163 202 274 319 403 488
#     4  12  28  51  78 117 157 213 264 333 394 492
#     4  11  24  45  75 110 157 205 261 329 394 481
#     4  11  23  47  71 113 154 197 272 328 392 480
#     4  12  28  52  74 112 152 212 260 340 402 474
#     4  10  23  45  76 111 155 211 253 326 402 462
#     4  12  29  48  81 118 155 210 270 338 411 470
#
# _framework density 24.904131
#
# number of rings (size 3 to 8) (size 9 to 14) (size 15 to 20)
#    0.000    0.615    4.615    2.769    4.308    3.077 
#    0.000    3.077    0.000    0.000    0.000    0.000 
#    0.000    0.000    0.000    0.000    0.000    0.000 
#
# Total GULP energy -145337.741266 kJ/mol
# GULP energy per Si atom -5589.913126 kJ/mol
# Density = 2.484745 g / cm^3
# Si number density = 24.904131 Si / 1000 Ang^3
#
#
#
# Elastic Constant Matrix: (Units=GPa)
#
#
# Indices 1 2 3 4 5 6 
#
# 1 115.3801 43.5486 54.3325 0.0000 -15.9691 0.0000
# 2 43.5486 113.2921 37.7749 0.0000 4.5718 0.0000
# 3 54.3325 37.7749 117.6909 0.0000 -33.6004 0.0000
# 4 0.0000 0.0000 0.0000 57.2398 0.0000 -2.3395
# 5 -15.9691 4.5718 -33.6004 0.0000 45.0400 0.0000
# 6 0.0000 0.0000 0.0000 -2.3395 0.0000 30.3978
#
#
#
# Elastic Compliance Matrix: (Units=1/GPa)
#
#
# Indices 1 2 3 4 5 6 
#
# 1 0.012053 -0.003355 -0.004028 0.000000 0.001609 0.000000
# 2 -0.003355 0.011514 -0.003583 0.000000 -0.005031 0.000000
# 3 -0.004028 -0.003583 0.014234 0.000000 0.009555 0.000000
# 4 0.000000 0.000000 0.000000 0.017526 0.000000 0.001349
# 5 0.001609 -0.005031 0.009555 0.000000 0.030411 0.000000
# 6 0.000000 0.000000 0.000000 0.001349 0.000000 0.033001
#
#
# Mechanical properties :
#
#
# Convention : Reuss Voigt Hill
#
# Bulk Modulus (GPa) = 63.01703 68.63056 65.82380
# Shear Modulus (GPa) = 34.25568 40.58264 37.41916
#
# Velocity S-wave (km/s) = 3.71280 4.04115 3.88045
# Velocity P-wave (km/s) = 6.61352 7.02796 6.82389
#
# Compressibility (1/GPa) = 0.01586873
#
# Stress axis : x y z
#
# Youngs Moduli (GPa) = 82.96873 86.84976 70.25263
#
# Poissons Ratio (x) = 0.29137 0.28298
# Poissons Ratio (y) = 0.27835 0.25174
# Poissons Ratio (z) = 0.33420 0.31121
#
# Static dielectric constant tensor:
#      x y z
#    x 1.998440 0.000000 0.065850 
#    y 0.000000 2.002200 0.000000 
#    z 0.065850 0.000000 2.016960 
# 
# From -- ./inp_files/65368.got.cif
#   From: 2010.05.17/outbox.cif.g08.bks.cpg/sg15_33_cif.got.tgz:65368.got - 2010.06.03 18:47:42.
