data_PCOD9296611
_publ_section_title
;
Structure prediction by ZEFSAII (Michael W. Deem and Ramdas Pophale) SiO2 
 PCOD9296611
Probable space group: C 2/C
;
_chemical_formula_sum "Si O2"
_cell_formula_units_Z 56
_cell_length_a 23.385426
_cell_length_b 9.109072
_cell_length_c 19.102940
_cell_angle_alpha 90.000000
_cell_angle_beta 39.788007
_cell_angle_gamma 90.000000
_cell_volume 2604.143481
_symmetry_space_group_name_H-M "C 2/C"
_symmetry_group_IT_number 15
_symmetry_cell_setting 'monoclinic'
loop_
_space_group_symop_operation_xyz
x,y,z
-x,y,1/2-z
-x,-y,-z
x,-y,1/2+z
1/2+x,1/2+y,z
1/2-x,1/2+y,1/2-z
1/2-x,1/2-y,-z
1/2+x,1/2-y,1/2+z
loop_
_atom_site_type_symbol
_atom_site_label
_atom_site_fract_x
_atom_site_fract_y
_atom_site_fract_z
Si Si1 0.537335 0.577454 0.533140
Si Si2 0.245544 0.117411 0.311441
Si Si3 0.988858 0.815567 0.843482
Si Si4 0.814881 0.362063 0.479034
Si Si5 0.110002 0.557256 0.735961
Si Si6 0.765243 0.548414 0.649572
Si Si7 0.475888 0.092253 0.453518
O O1 0.500000 0.500000 0.500000
O O2 0.644363 0.593614 0.431845
O O3 0.511874 0.473570 0.621125
O O4 0.497709 0.739304 0.566672
O O5 0.273478 0.288085 0.298743
O O6 0.310653 0.006776 0.291695
O O7 0.246539 0.065185 0.229870
O O8 0.074042 0.720122 0.788837
O O9 0.000000 0.824995 0.750000
O O10 0.894075 0.729003 0.944451
O O11 0.863369 0.448357 0.370088
O O12 0.754783 0.464595 0.585597
O O13 0.250000 0.750000 0.500000
O O14 0.023753 0.465349 0.839279
O O15 0.870696 0.579115 0.548329
O O16 0.500000 0.000000 0.500000
#
# Coordination Sequence:
#
# PCOD9296611 Si02
#       7
#     8   8   8   8   8   8   8
#     4  11  26  42  67 104 140 177 232 295 345 422
#     4  11  27  43  69 103 141 184 239 294 350 421
#     4  10  23  45  70 100 135 185 230 280 357 419
#     4  11  25  44  74 100 143 187 232 291 353 429
#     4  11  23  45  73  96 135 189 232 285 352 421
#     4  11  26  43  68 103 139 187 235 288 359 418
#     4  11  22  43  69 102 137 185 230 290 352 417
#
# _framework density 21.504190999999999
#
# number of rings (size 3 to 8) (size 9 to 14) (size 15 to 20)
#    0.000    1.143    2.857    1.714    8.000    1.714 
#    5.143    0.000    0.000    0.000    0.000    0.000 
#    0.000    0.000    0.000    0.000    0.000    0.000 
#
# Total GULP energy -156418.059588 kJ/mol
# GULP energy per Si atom -5586.359271 kJ/mol
# Density = 2.145525 g / cm^3
# Si number density = 21.504191 Si / 1000 Ang^3
#
#
#
# Elastic Constant Matrix: (Units=GPa)
#
#
# Indices 1 2 3 4 5 6 
#
# 1 72.1032 46.4733 16.3836 -0.0001 -5.1271 0.0000
# 2 46.4733 179.9661 67.9163 -0.0002 21.1949 0.0001
# 3 16.3836 67.9163 97.0204 -0.0001 16.7203 0.0001
# 4 -0.0001 -0.0002 -0.0001 40.0169 0.0001 5.8814
# 5 -5.1271 21.1949 16.7203 0.0001 35.7629 -0.0001
# 6 0.0000 0.0001 0.0001 5.8814 -0.0001 35.3605
#
#
#
# Elastic Compliance Matrix: (Units=1/GPa)
#
#
# Indices 1 2 3 4 5 6 
#
# 1 0.017641 -0.005074 -0.000415 0.000000 0.005730 0.000000
# 2 -0.005074 0.009170 -0.004895 0.000000 -0.003874 0.000000
# 3 -0.000415 -0.004895 0.014481 0.000000 -0.003929 0.000000
# 4 0.000000 0.000000 0.000000 0.025616 0.000000 -0.004261
# 5 0.005730 -0.003874 -0.003929 0.000000 0.032916 0.000000
# 6 0.000000 0.000000 0.000000 -0.004261 0.000000 0.028989
#
#
# Mechanical properties :
#
#
# Convention : Reuss Voigt Hill
#
# Bulk Modulus (GPa) = 48.72106 67.84845 58.28475
# Shear Modulus (GPa) = 31.96498 36.78251 34.37375
#
# Velocity S-wave (km/s) = 3.85964 4.14028 4.00242
# Velocity P-wave (km/s) = 6.52443 7.38076 6.96577
#
# Compressibility (1/GPa) = 0.02052501
#
# Stress axis : x y z
#
# Youngs Moduli (GPa) = 56.68628 109.04712 69.05679
#
# Poissons Ratio (x) = 0.55328 0.02864
# Poissons Ratio (y) = 0.28762 0.33804
# Poissons Ratio (z) = 0.02351 0.53379
#
# Static dielectric constant tensor:
#      x y z
#    x 1.791610 0.000000 -0.004390 
#    y 0.000000 1.854560 0.000000 
#    z -0.004390 0.000000 1.832880 
# 
# From -- ./inp_files/258948.got.cif
#   From: 2010.05.17/outbox.cif.g08.bks.cpg/sg15_130_cif.got.tgz:258948.got - 2010.06.03 18:47:42.
