data_PCOD9296156
_publ_section_title
;
Structure prediction by ZEFSAII (Michael W. Deem and Ramdas Pophale) SiO2 
 PCOD9296156
Probable space group: C 2/C
;
_chemical_formula_sum "Si O2"
_cell_formula_units_Z 40
_cell_length_a 8.115370
_cell_length_b 13.486441
_cell_length_c 20.366100
_cell_angle_alpha 90.000000
_cell_angle_beta 53.320563
_cell_angle_gamma 90.000000
_cell_volume 1787.650225
_symmetry_space_group_name_H-M "C 2/C"
_symmetry_group_IT_number 15
_symmetry_cell_setting 'monoclinic'
loop_
_space_group_symop_operation_xyz
x,y,z
-x,y,1/2-z
-x,-y,-z
x,-y,1/2+z
1/2+x,1/2+y,z
1/2-x,1/2+y,1/2-z
1/2-x,1/2-y,-z
1/2+x,1/2-y,1/2+z
loop_
_atom_site_type_symbol
_atom_site_label
_atom_site_fract_x
_atom_site_fract_y
_atom_site_fract_z
Si Si1 0.858114 0.338001 0.144952
Si Si2 0.257912 0.070359 0.795799
Si Si3 0.313515 0.954174 0.503711
Si Si4 0.865468 0.843689 0.441300
Si Si5 0.530957 0.372230 0.822122
O O1 0.735294 0.403985 0.225001
O O2 0.730070 0.340207 0.108765
O O3 0.885682 0.232681 0.172939
O O4 0.000000 0.418792 0.250000
O O5 0.110592 0.143860 0.872539
O O6 0.179606 0.957748 0.815984
O O7 0.418723 0.114743 0.924631
O O8 0.178484 0.893964 0.588074
O O9 0.500000 0.000000 0.500000
O O10 0.195913 0.053092 0.507970
O O11 0.750000 0.750000 0.500000
O O12 0.500000 0.374765 0.750000
#
# Coordination Sequence:
#
# PCOD9296156 Si02
#       5
#     8   8   8   8   8
#     4  11  23  40  66  96 130 172 219 274 334 398
#     4  11  25  43  65  97 133 175 225 277 334 401
#     4   9  20  39  63  90 126 169 215 267 325 392
#     4  10  23  44  68  95 131 177 223 278 337 397
#     4  11  23  42  65  94 132 175 218 272 336 400
#
# _framework density 22.375744000000001
#
# number of rings (size 3 to 8) (size 9 to 14) (size 15 to 20)
#    0.000    1.600    0.000    5.400    0.000   12.800 
#    0.000    4.000    0.000    0.000    0.000    4.200 
#    0.000    0.000    0.000    0.000    0.000    0.000 
#
# Total GULP energy -111654.550701 kJ/mol
# GULP energy per Si atom -5582.727535 kJ/mol
# Density = 2.232482 g / cm^3
# Si number density = 22.375744 Si / 1000 Ang^3
#
#
#
# Elastic Constant Matrix: (Units=GPa)
#
#
# Indices 1 2 3 4 5 6 
#
# 1 118.4277 29.1913 40.8817 0.0000 -21.8762 0.0000
# 2 29.1913 118.2484 50.3159 0.0000 -13.9526 0.0000
# 3 40.8817 50.3159 92.3457 0.0000 -29.7083 0.0000
# 4 0.0000 0.0000 0.0000 46.6742 0.0000 -2.5518
# 5 -21.8762 -13.9526 -29.7083 0.0000 41.7023 0.0000
# 6 0.0000 0.0000 0.0000 -2.5518 0.0000 9.9467
#
#
#
# Elastic Compliance Matrix: (Units=1/GPa)
#
#
# Indices 1 2 3 4 5 6 
#
# 1 0.010274 -0.000852 -0.003168 0.000000 0.002848 0.000000
# 2 -0.000852 0.011099 -0.005993 0.000000 -0.001003 0.000000
# 3 -0.003168 -0.005993 0.018573 0.000000 0.009565 0.000000
# 4 0.000000 0.000000 0.000000 0.021730 0.000000 0.005575
# 5 0.002848 -0.001003 0.009565 0.000000 0.031952 0.000000
# 6 0.000000 0.000000 0.000000 0.005575 0.000000 0.101966
#
#
# Mechanical properties :
#
#
# Convention : Reuss Voigt Hill
#
# Bulk Modulus (GPa) = 50.19929 63.31106 56.75518
# Shear Modulus (GPa) = 22.49629 33.57352 28.03490
#
# Velocity S-wave (km/s) = 3.17422 3.87776 3.54349
# Velocity P-wave (km/s) = 5.99313 6.95739 6.49319
#
# Compressibility (1/GPa) = 0.01992060
#
# Stress axis : x y z
#
# Youngs Moduli (GPa) = 97.33743 90.10006 53.84024
#
# Poissons Ratio (x) = 0.07679 0.17055
# Poissons Ratio (y) = 0.08296 0.32264
# Poissons Ratio (z) = 0.30833 0.53994
#
# Static dielectric constant tensor:
#      x y z
#    x 1.891550 0.000000 -0.034950 
#    y 0.000000 1.937500 0.000000 
#    z -0.034950 0.000000 1.842450 
# 
# From -- ./inp_files/133079.got.cif
#   From: 2010.05.17/outbox.cif.g08.bks.cpg/sg15_67_cif.got.tgz:133079.got - 2010.06.03 18:47:42.
