data_PCOD9296867
_publ_section_title
;
Structure prediction by ZEFSAII (Michael W. Deem and Ramdas Pophale) SiO2 
 PCOD9296867
Probable space group: C 2/C
;
_chemical_formula_sum "Si O2"
_cell_formula_units_Z 40
_cell_length_a 11.579903
_cell_length_b 8.230504
_cell_length_c 16.869511
_cell_angle_alpha 90.000000
_cell_angle_beta 96.300580
_cell_angle_gamma 90.000000
_cell_volume 1598.095340
_symmetry_space_group_name_H-M "C 2/C"
_symmetry_group_IT_number 15
_symmetry_cell_setting 'monoclinic'
loop_
_space_group_symop_operation_xyz
x,y,z
-x,y,1/2-z
-x,-y,-z
x,-y,1/2+z
1/2+x,1/2+y,z
1/2-x,1/2+y,1/2-z
1/2-x,1/2-y,-z
1/2+x,1/2-y,1/2+z
loop_
_atom_site_type_symbol
_atom_site_label
_atom_site_fract_x
_atom_site_fract_y
_atom_site_fract_z
Si Si1 0.858061 0.841046 0.966667
Si Si2 0.739804 0.373752 0.828333
Si Si3 0.305235 0.004059 0.659018
Si Si4 0.502477 0.558182 0.337760
Si Si5 0.482961 0.216294 0.383592
O O1 0.782178 0.988418 0.923067
O O2 0.935303 0.822547 0.891528
O O3 0.750000 0.750000 0.000000
O O4 0.962558 0.805468 0.035842
O O5 0.760880 0.427920 0.739170
O O6 0.639395 0.473062 0.865497
O O7 0.862413 0.379062 0.882853
O O8 0.687263 0.193739 0.826438
O O9 0.421278 0.903963 0.645798
O O10 0.500000 0.625881 0.250000
O O11 0.451648 0.374878 0.328934
#
# Coordination Sequence:
#
# PCOD9296867 Si02
#       5
#     8   8   8   8   8
#     4  10  23  46  70  97 144 187 218 284 357 405
#     4  12  24  42  72 102 136 179 236 280 341 408
#     4  11  23  44  68 101 141 183 223 287 346 407
#     4  12  23  44  73 101 139 183 232 285 342 404
#     4  11  24  45  69 100 140 180 229 285 346 405
#
# _framework density 25.029795
#
# number of rings (size 3 to 8) (size 9 to 14) (size 15 to 20)
#    0.000    0.800    4.000    3.600    0.000    2.400 
#    7.200    2.000    0.000    0.000    0.000    0.000 
#    0.000    0.000    0.000    0.000    0.000    0.000 
#
# Total GULP energy -111394.337233 kJ/mol
# GULP energy per Si atom -5569.716862 kJ/mol
# Density = 2.497283 g / cm^3
# Si number density = 25.029795 Si / 1000 Ang^3
#
#
#
# Elastic Constant Matrix: (Units=GPa)
#
#
# Indices 1 2 3 4 5 6 
#
# 1 175.8161 6.0385 24.0457 0.0000 -5.4159 0.0000
# 2 6.0385 44.9693 -12.9382 0.0000 -7.1234 0.0000
# 3 24.0457 -12.9382 71.6960 0.0000 -4.0111 0.0000
# 4 0.0000 0.0000 0.0000 2.7211 0.0000 6.4537
# 5 -5.4159 -7.1234 -4.0111 0.0000 59.8438 0.0000
# 6 0.0000 0.0000 0.0000 6.4537 0.0000 32.5963
#
#
#
# Elastic Compliance Matrix: (Units=1/GPa)
#
#
# Indices 1 2 3 4 5 6 
#
# 1 0.006055 -0.001433 -0.002277 0.000000 0.000225 0.000000
# 2 -0.001433 0.024376 0.005053 0.000000 0.003111 0.000000
# 3 -0.002277 0.005053 0.015704 0.000000 0.001448 0.000000
# 4 0.000000 0.000000 0.000000 0.692847 0.000000 -0.137177
# 5 0.000225 0.003111 0.001448 0.000000 0.017198 0.000000
# 6 0.000000 0.000000 0.000000 -0.137177 0.000000 0.057838
#
#
# Mechanical properties :
#
#
# Convention : Reuss Voigt Hill
#
# Bulk Modulus (GPa) = 20.48165 36.30817 28.39491
# Shear Modulus (GPa) = 6.04153 37.38793 21.71473
#
# Velocity S-wave (km/s) = 1.55531 3.86908 2.94862
# Velocity P-wave (km/s) = 3.38023 5.87343 4.79182
#
# Compressibility (1/GPa) = 0.04882420
#
# Stress axis : x y z
#
# Youngs Moduli (GPa) = 165.14524 41.02329 63.67672
#
# Poissons Ratio (x) = 0.05877 0.14498
# Poissons Ratio (y) = 0.23658 -0.32178
# Poissons Ratio (z) = 0.37600 -0.20731
#
# Static dielectric constant tensor:
#      x y z
#    x 2.206760 0.000000 0.084620 
#    y 0.000000 1.905480 0.000000 
#    z 0.084620 0.000000 2.081710 
# 
# From -- ./inp_files/195108.got.cif
#   From: 2010.05.17/outbox.cif.g08.bks.cpg/sg15_98_cif.got.tgz:195108.got - 2010.06.03 18:47:42.
