data_PCOD9296436
_publ_section_title
;
Structure prediction by ZEFSAII (Michael W. Deem and Ramdas Pophale) SiO2 
 PCOD9296436
Probable space group: C 2/C
;
_chemical_formula_sum "Si O2"
_cell_formula_units_Z 40
_cell_length_a 5.257547
_cell_length_b 17.992738
_cell_length_c 18.478874
_cell_angle_alpha 90.000000
_cell_angle_beta 106.519232
_cell_angle_gamma 90.000000
_cell_volume 1675.906097
_symmetry_space_group_name_H-M "C 2/C"
_symmetry_group_IT_number 15
_symmetry_cell_setting 'monoclinic'
loop_
_space_group_symop_operation_xyz
x,y,z
-x,y,1/2-z
-x,-y,-z
x,-y,1/2+z
1/2+x,1/2+y,z
1/2-x,1/2+y,1/2-z
1/2-x,1/2-y,-z
1/2+x,1/2-y,1/2+z
loop_
_atom_site_type_symbol
_atom_site_label
_atom_site_fract_x
_atom_site_fract_y
_atom_site_fract_z
Si Si1 0.725805 0.213597 0.918377
Si Si2 0.783275 0.626724 0.798592
Si Si3 0.689430 0.829908 0.700960
Si Si4 0.663991 0.976768 0.624764
Si Si5 0.805366 0.933305 0.487222
O O1 0.439067 0.180956 0.868098
O O2 0.822004 0.270953 0.865852
O O3 0.885082 0.136737 0.945484
O O4 0.750000 0.250000 0.000000
O O5 0.500000 0.656410 0.750000
O O6 0.701688 0.544999 0.822866
O O7 0.000000 0.619192 0.750000
O O8 0.500000 0.806269 0.750000
O O9 0.581611 0.912325 0.672323
O O10 0.000000 0.835234 0.750000
O O11 0.784810 0.923756 0.571614
O O12 0.451946 0.028363 0.567124
O O13 0.000000 0.000000 0.500000
#
# Coordination Sequence:
#
# PCOD9296436 Si02
#       5
#     8   8   8   8   8
#     4  11  25  51  77 111 154 206 258 319 385 462
#     4  11  26  47  76 112 153 199 254 317 387 454
#     4  12  28  50  76 112 155 197 250 313 389 456
#     4  10  23  44  75 110 145 198 255 312 374 458
#     4  10  23  45  75 110 143 192 261 313 370 446
#
# _framework density 23.867688000000001
#
# number of rings (size 3 to 8) (size 9 to 14) (size 15 to 20)
#    0.000    1.200    2.000    1.800    8.400    3.200 
#    7.200    5.000    0.000    0.000    0.000    0.000 
#    0.000    0.000    0.000    0.000    0.000    0.000 
#
# Total GULP energy -111425.684941 kJ/mol
# GULP energy per Si atom -5571.284247 kJ/mol
# Density = 2.381336 g / cm^3
# Si number density = 23.867688 Si / 1000 Ang^3
#
#
#
# Elastic Constant Matrix: (Units=GPa)
#
#
# Indices 1 2 3 4 5 6 
#
# 1 65.0516 10.2613 41.0699 0.0000 -5.8803 0.0000
# 2 10.2613 185.7763 72.9703 0.0000 -19.7224 0.0000
# 3 41.0699 72.9703 158.8424 0.0000 -6.2393 0.0000
# 4 0.0000 0.0000 0.0000 571.5296 0.0000 286.9485
# 5 -5.8803 -19.7224 -6.2393 0.0000 25.4523 0.0000
# 6 0.0000 0.0000 0.0000 286.9485 0.0000 189.4825
#
#
#
# Elastic Compliance Matrix: (Units=1/GPa)
#
#
# Indices 1 2 3 4 5 6 
#
# 1 0.018947 0.001540 -0.005440 0.000000 0.004237 0.000000
# 2 0.001540 0.007218 -0.003514 0.000000 0.005088 0.000000
# 3 -0.005440 -0.003514 0.009249 0.000000 -0.001713 0.000000
# 4 0.000000 0.000000 0.000000 0.007300 0.000000 -0.011055
# 5 0.004237 0.005088 -0.001713 0.000000 0.043791 0.000000
# 6 0.000000 0.000000 0.000000 -0.011055 0.000000 0.022020
#
#
# Mechanical properties :
#
#
# Convention : Reuss Voigt Hill
#
# Bulk Modulus (GPa) = 48.57663 73.14147 60.85905
# Shear Modulus (GPa) = 38.39791 176.31745 107.35768
#
# Velocity S-wave (km/s) = 4.01531 8.60426 6.71401
# Velocity P-wave (km/s) = 6.47253 11.37638 9.25515
#
# Compressibility (1/GPa) = 0.02058603
#
# Stress axis : x y z
#
# Youngs Moduli (GPa) = 52.77891 138.53798 108.11702
#
# Poissons Ratio (x) = -0.21335 0.58815
# Poissons Ratio (y) = -0.08128 0.37996
# Poissons Ratio (z) = 0.28711 0.48687
#
# Static dielectric constant tensor:
#      x y z
#    x 1.935560 0.000000 0.003010 
#    y 0.000000 1.691230 0.000000 
#    z 0.003010 0.000000 1.298400 
# 
# From -- ./inp_files/184381.got.cif
#   From: 2010.05.17/outbox.cif.g08.bks.cpg/sg15_93_cif.got.tgz:184381.got - 2010.06.03 18:47:42.
