data_PCOD9296928
_publ_section_title
;
Structure prediction by ZEFSAII (Michael W. Deem and Ramdas Pophale) SiO2 
 PCOD9296928
Probable space group: C 2/C
;
_chemical_formula_sum "Si O2"
_cell_formula_units_Z 28
_cell_length_a 10.382372
_cell_length_b 21.297624
_cell_length_c 8.201503
_cell_angle_alpha 90.000000
_cell_angle_beta 141.763861
_cell_angle_gamma 90.000000
_cell_volume 1122.391688
_symmetry_space_group_name_H-M "C 2/C"
_symmetry_group_IT_number 15
_symmetry_cell_setting 'monoclinic'
loop_
_space_group_symop_operation_xyz
x,y,z
-x,y,1/2-z
-x,-y,-z
x,-y,1/2+z
1/2+x,1/2+y,z
1/2-x,1/2+y,1/2-z
1/2-x,1/2-y,-z
1/2+x,1/2-y,1/2+z
loop_
_atom_site_type_symbol
_atom_site_label
_atom_site_fract_x
_atom_site_fract_y
_atom_site_fract_z
Si Si1 0.182785 0.910612 0.714206
Si Si2 0.000000 0.297667 0.750000
Si Si3 0.000000 0.980619 0.250000
Si Si4 0.000000 0.661467 0.750000
Si Si5 0.322522 0.690704 0.810449
O O1 0.160138 0.938629 0.511580
O O2 0.004795 0.856555 0.540092
O O3 0.383740 0.880348 0.997683
O O4 0.126220 0.971519 0.763047
O O5 0.822354 0.335024 0.480630
O O6 0.907771 0.252772 0.802168
O O7 0.175821 0.698431 0.822498
#
# Coordination Sequence:
#
# PCOD9296928 Si02
#       5
#     8   4   4   4   8
#     4  11  24  48  69 109 149 185 239 299 352 432
#     4  10  27  48  75 104 144 197 239 286 382 414
#     4  10  23  46  73 100 150 193 231 294 362 426
#     4  12  26  44  74 106 150 186 232 304 360 406
#     4  11  25  49  71 109 143 186 243 300 347 440
#
# _framework density 24.946728
#
# number of rings (size 3 to 8) (size 9 to 14) (size 15 to 20)
#    0.000    1.143    2.857    0.857   12.000    2.286 
#    0.000    0.000    0.000    0.000    0.000    0.000 
#    0.000    0.000    0.000    0.000    0.000    0.000 
#
# Total GULP energy -78248.478057 kJ/mol
# GULP energy per Si atom -5589.177004 kJ/mol
# Density = 2.488995 g / cm^3
# Si number density = 24.946728 Si / 1000 Ang^3
#
#
#
# Elastic Constant Matrix: (Units=GPa)
#
#
# Indices 1 2 3 4 5 6 
#
# 1 137.6540 111.1066 20.7703 0.0000 -7.9961 0.0000
# 2 111.1066 91.9819 86.6296 0.0000 -21.3533 0.0000
# 3 20.7703 86.6296 237.3598 0.0000 -11.4268 0.0000
# 4 0.0000 0.0000 0.0000 75.2485 0.0000 -12.6728
# 5 -7.9961 -21.3533 -11.4268 0.0000 30.6583 0.0000
# 6 0.0000 0.0000 0.0000 -12.6728 0.0000 0.5949
#
#
#
# Elastic Compliance Matrix: (Units=1/GPa)
#
#
# Indices 1 2 3 4 5 6 
#
# 1 -0.016197 0.031887 -0.009526 0.000000 0.014434 0.000000
# 2 0.031887 -0.042997 0.012078 0.000000 -0.017129 0.000000
# 3 -0.009526 0.012078 0.000941 0.000000 0.006278 0.000000
# 4 0.000000 0.000000 0.000000 -0.005136 0.000000 -0.109405
# 5 0.014434 -0.017129 0.006278 0.000000 0.026792 0.000000
# 6 0.000000 0.000000 0.000000 -0.109405 0.000000 -0.649627
#
#
# Mechanical properties :
#
#
# Convention : Reuss Voigt Hill
#
# Bulk Modulus (GPa) = 94.11541 100.44540 97.28040
# Shear Modulus (GPa) = -6.65283 37.86627 15.60672
#
# Velocity S-wave (km/s) = -1.63481 3.90023 2.50392
# Velocity P-wave (km/s) = 5.85192 7.78677 6.88763
#
# Compressibility (1/GPa) = 0.01062525
#
# Stress axis : x y z
#
# Youngs Moduli (GPa) = -61.73904 -23.25759 1062.92586
#
# Poissons Ratio (x) = 0.74162 10.12510
# Poissons Ratio (y) = 1.96869 -12.83767
# Poissons Ratio (z) = -0.58811 0.28090
#
# Static dielectric constant tensor:
#      x y z
#    x 2.058410 0.000000 0.011880 
#    y 0.000000 1.914720 0.000000 
#    z 0.011880 0.000000 2.008700 
# 
# From -- ./inp_files/30008.got.cif
#   From: 2010.05.17/outbox.cif.g08.bks.cpg/sg15_16_cif.got.tgz:30008.got - 2010.06.03 18:47:42.
