data_PCOD9296015
_publ_section_title
;
Structure prediction by ZEFSAII (Michael W. Deem and Ramdas Pophale) SiO2 
 PCOD9296015
Probable space group: C 2/C
;
_chemical_formula_sum "Si O2"
_cell_formula_units_Z 32
_cell_length_a 20.896851
_cell_length_b 5.180713
_cell_length_c 27.496423
_cell_angle_alpha 90.000000
_cell_angle_beta 148.359458
_cell_angle_gamma 90.000000
_cell_volume 1561.583834
_symmetry_space_group_name_H-M "C 2/C"
_symmetry_group_IT_number 15
_symmetry_cell_setting 'monoclinic'
loop_
_space_group_symop_operation_xyz
x,y,z
-x,y,1/2-z
-x,-y,-z
x,-y,1/2+z
1/2+x,1/2+y,z
1/2-x,1/2+y,1/2-z
1/2-x,1/2-y,-z
1/2+x,1/2-y,1/2+z
loop_
_atom_site_type_symbol
_atom_site_label
_atom_site_fract_x
_atom_site_fract_y
_atom_site_fract_z
Si Si1 0.696422 0.003330 0.991313
Si Si2 0.844581 0.490500 0.925966
Si Si3 0.309719 0.486454 0.837552
Si Si4 0.551601 0.118598 0.628748
O O1 0.549101 0.052707 0.895846
O O2 0.750000 0.750000 0.000000
O O3 0.750000 0.250000 0.000000
O O4 0.727763 0.008538 0.069273
O O5 0.810411 0.739779 0.873256
O O6 0.177206 0.766674 0.119416
O O7 0.981669 0.495564 0.036780
O O8 0.416201 0.413578 0.867157
O O9 0.181743 0.504328 0.726680
#
# Coordination Sequence:
#
# PCOD9296015 Si02
#       4
#     8   8   8   8
#     4  10  23  44  65  91 132 180 219 270 330 386
#     4  10  25  40  70  93 136 171 220 272 334 400
#     4  12  22  44  64 108 122 175 221 268 354 382
#     4  10  26  40  72  94 143 164 218 289 320 407
#
# _framework density 20.492014999999999
#
# number of rings (size 3 to 8) (size 9 to 14) (size 15 to 20)
#    1.500    0.000    0.000    4.500    0.000   10.000 
#    0.000    7.500    0.000    0.000    0.000    0.000 
#    0.000    0.000    0.000    0.000    0.000    0.000 
#
# Total GULP energy -89141.038622 kJ/mol
# GULP energy per Si atom -5571.314914 kJ/mol
# Density = 2.044537 g / cm^3
# Si number density = 20.492015 Si / 1000 Ang^3
#
#
#
# Elastic Constant Matrix: (Units=GPa)
#
#
# Indices 1 2 3 4 5 6 
#
# 1 153.3930 91.8614 51.7814 0.0019 9.6770 0.0027
# 2 91.8614 201.1530 61.8682 0.0064 -9.5672 0.0097
# 3 51.7814 61.8682 142.6058 0.0001 -12.0175 -0.0006
# 4 0.0019 0.0064 0.0001 36.7415 -0.0006 -9.4384
# 5 9.6770 -9.5672 -12.0175 -0.0006 33.3585 -0.0001
# 6 0.0027 0.0097 -0.0006 -9.4384 -0.0001 48.9681
#
#
#
# Elastic Compliance Matrix: (Units=1/GPa)
#
#
# Indices 1 2 3 4 5 6 
#
# 1 0.010076 -0.004135 -0.002280 0.000000 -0.004930 0.000000
# 2 -0.004135 0.007453 -0.001496 -0.000001 0.002798 -0.000002
# 3 -0.002280 -0.001496 0.008776 0.000001 0.003394 0.000001
# 4 0.000000 -0.000001 0.000001 0.028635 0.000000 0.005519
# 5 -0.004930 0.002798 0.003394 0.000000 0.033433 0.000000
# 6 0.000000 -0.000002 0.000001 0.005519 0.000000 0.021485
#
#
# Mechanical properties :
#
#
# Convention : Reuss Voigt Hill
#
# Bulk Modulus (GPa) = 95.40312 100.90820 98.15566
# Shear Modulus (GPa) = 38.70751 43.25634 40.98192
#
# Velocity S-wave (km/s) = 4.35087 4.59942 4.47687
# Velocity P-wave (km/s) = 8.47923 8.80658 8.64446
#
# Compressibility (1/GPa) = 0.01048184
#
# Stress axis : x y z
#
# Youngs Moduli (GPa) = 99.24457 134.17820 113.95350
#
# Poissons Ratio (x) = 0.55477 0.25986
# Poissons Ratio (y) = 0.41034 0.17050
# Poissons Ratio (z) = 0.22632 0.20076
#
# Static dielectric constant tensor:
#      x y z
#    x 1.805340 0.000000 0.028090 
#    y 0.000000 1.760190 0.000000 
#    z 0.028090 0.000000 1.723700 
# 
# From -- ./inp_files/300028.got.cif
#   From: 2010.05.17/outbox.cif.g08.bks.cpg/sg15_151_cif.got.tgz:300028.got - 2010.06.03 18:47:42.
