data_PCOD9296688
_publ_section_title
;
Structure prediction by ZEFSAII (Michael W. Deem and Ramdas Pophale) SiO2 
 PCOD9296688
Probable space group: C 2/C
;
_chemical_formula_sum "Si O2"
_cell_formula_units_Z 52
_cell_length_a 14.381124
_cell_length_b 17.866586
_cell_length_c 8.742718
_cell_angle_alpha 90.000000
_cell_angle_beta 123.150962
_cell_angle_gamma 90.000000
_cell_volume 1880.732515
_symmetry_space_group_name_H-M "C 2/C"
_symmetry_group_IT_number 15
_symmetry_cell_setting 'monoclinic'
loop_
_space_group_symop_operation_xyz
x,y,z
-x,y,1/2-z
-x,-y,-z
x,-y,1/2+z
1/2+x,1/2+y,z
1/2-x,1/2+y,1/2-z
1/2-x,1/2-y,-z
1/2+x,1/2-y,1/2+z
loop_
_atom_site_type_symbol
_atom_site_label
_atom_site_fract_x
_atom_site_fract_y
_atom_site_fract_z
Si Si1 0.221288 0.084137 0.423693
Si Si2 0.500000 0.477833 0.750000
Si Si3 0.625501 0.050847 0.311717
Si Si4 0.389711 0.385843 0.316312
Si Si5 0.658827 0.169122 0.583760
Si Si6 0.878845 0.163562 0.451733
Si Si7 0.065360 0.620693 0.959579
O O1 0.058753 0.967290 0.179685
O O2 0.172030 0.101590 0.207303
O O3 0.317235 0.148815 0.504897
O O4 0.288211 0.010341 0.546626
O O5 0.397857 0.427283 0.597433
O O6 0.500000 0.038551 0.250000
O O7 0.652537 0.131568 0.410098
O O8 0.612163 0.057518 0.117807
O O9 0.261814 0.375074 0.256208
O O10 0.489443 0.334203 0.469090
O O11 0.376292 0.356625 0.127133
O O12 0.679339 0.256644 0.615213
O O13 0.533592 0.159026 0.535558
O O14 0.000000 0.600499 0.750000
#
# Coordination Sequence:
#
# PCOD9296688 Si02
#       7
#     8   4   8   8   8   8   8
#     4  12  25  47  73 113 160 211 268 334 411 489
#     4  10  24  46  68 110 154 212 266 328 408 478
#     4  10  24  47  80 115 153 211 270 340 411 481
#     4  10  23  45  72 119 153 215 274 335 406 473
#     4  11  23  48  81 116 162 214 272 340 404 491
#     4  10  25  41  77 119 163 212 270 338 404 491
#     4  11  28  48  76 116 156 209 267 343 414 483
#
# _framework density 27.648800999999999
#
# number of rings (size 3 to 8) (size 9 to 14) (size 15 to 20)
#    0.000    1.538    1.538    1.846   10.769    9.231 
#    1.385    0.769    0.000    0.000    0.000    0.000 
#    0.000    0.000    0.000    0.000    0.000    0.000 
#
# Total GULP energy -144928.980755 kJ/mol
# GULP energy per Si atom -5574.191568 kJ/mol
# Density = 2.758587 g / cm^3
# Si number density = 27.648801 Si / 1000 Ang^3
#
#
#
# Elastic Constant Matrix: (Units=GPa)
#
#
# Indices 1 2 3 4 5 6 
#
# 1 189.1846 30.6698 32.2270 0.0000 45.4142 0.0000
# 2 30.6698 123.8038 48.3303 0.0000 8.7526 0.0000
# 3 32.2270 48.3303 137.1855 0.0000 46.0633 0.0000
# 4 0.0000 0.0000 0.0000 23.9550 0.0000 11.8295
# 5 45.4142 8.7526 46.0633 0.0000 73.3560 0.0000
# 6 0.0000 0.0000 0.0000 11.8295 0.0000 31.8686
#
#
#
# Elastic Compliance Matrix: (Units=1/GPa)
#
#
# Indices 1 2 3 4 5 6 
#
# 1 0.006427 -0.001445 0.000351 0.000000 -0.004027 0.000000
# 2 -0.001445 0.009775 -0.003818 0.000000 0.002126 0.000000
# 3 0.000351 -0.003818 0.010736 0.000000 -0.006503 0.000000
# 4 0.000000 0.000000 0.000000 0.051115 0.000000 -0.018974
# 5 -0.004027 0.002126 -0.006503 0.000000 0.019955 0.000000
# 6 0.000000 0.000000 0.000000 -0.018974 0.000000 0.038422
#
#
# Mechanical properties :
#
#
# Convention : Reuss Voigt Hill
#
# Bulk Modulus (GPa) = 58.42813 74.73647 66.58230
# Shear Modulus (GPa) = 32.90387 48.43236 40.66812
#
# Velocity S-wave (km/s) = 3.45347 4.18987 3.83937
# Velocity P-wave (km/s) = 6.08934 7.10605 6.61725
#
# Compressibility (1/GPa) = 0.01711504
#
# Stress axis : x y z
#
# Youngs Moduli (GPa) = 155.59601 102.29710 93.14748
#
# Poissons Ratio (x) = 0.14778 -0.03273
# Poissons Ratio (y) = 0.22477 0.35566
# Poissons Ratio (z) = -0.05467 0.39060
#
# Static dielectric constant tensor:
#      x y z
#    x 2.529340 0.000000 -0.158510 
#    y 0.000000 2.129230 0.000000 
#    z -0.158510 0.000000 2.304720 
# 
# From -- ./inp_files/50707.got.cif
#   From: 2010.05.17/outbox.cif.g08.bks.cpg/sg15_26_cif.got.tgz:50707.got - 2010.06.03 18:47:42.
