data_PCOD9296854
_publ_section_title
;
Structure prediction by ZEFSAII (Michael W. Deem and Ramdas Pophale) SiO2 
 PCOD9296854
Probable space group: C 2/C
;
_chemical_formula_sum "Si O2"
_cell_formula_units_Z 44
_cell_length_a 7.661035
_cell_length_b 28.159133
_cell_length_c 13.537150
_cell_angle_alpha 90.000000
_cell_angle_beta 135.316098
_cell_angle_gamma 90.000000
_cell_volume 2053.570988
_symmetry_space_group_name_H-M "C 2/C"
_symmetry_group_IT_number 15
_symmetry_cell_setting 'monoclinic'
loop_
_space_group_symop_operation_xyz
x,y,z
-x,y,1/2-z
-x,-y,-z
x,-y,1/2+z
1/2+x,1/2+y,z
1/2-x,1/2+y,1/2-z
1/2-x,1/2-y,-z
1/2+x,1/2-y,1/2+z
loop_
_atom_site_type_symbol
_atom_site_label
_atom_site_fract_x
_atom_site_fract_y
_atom_site_fract_z
Si Si1 0.199366 0.796695 0.546226
Si Si2 0.285934 0.054826 0.325325
Si Si3 0.500000 0.121950 0.250000
Si Si4 0.693081 0.651724 0.736185
Si Si5 0.209074 0.553524 0.665950
Si Si6 0.980626 0.740873 0.855642
O O1 0.250000 0.750000 0.500000
O O2 0.371758 0.842743 0.619668
O O3 0.197577 0.775512 0.655633
O O4 0.941730 0.820174 0.406368
O O5 0.325404 0.088644 0.246819
O O6 0.501728 0.063613 0.496450
O O7 0.000000 0.059231 0.250000
O O8 0.335688 0.999819 0.314895
O O9 0.500000 0.651581 0.750000
O O10 0.787552 0.598509 0.759363
O O11 0.911964 0.686985 0.851763
O O12 0.500000 0.551667 0.750000
O O13 0.000000 0.751505 0.750000
O O14 0.250000 0.750000 0.000000
#
# Coordination Sequence:
#
# PCOD9296854 Si02
#       6
#     8   8   4   8   8   8
#     4  12  25  44  67  95 136 187 237 292 352 435
#     4  10  23  46  70 104 144 185 232 303 368 429
#     4  12  26  42  70 104 140 186 240 286 370 434
#     4  11  21  41  69  94 130 185 238 280 354 431
#     4   9  20  43  74  99 138 186 239 294 364 437
#     4  12  26  42  63  98 138 174 235 300 355 417
#
# _framework density 21.426089999999999
#
# number of rings (size 3 to 8) (size 9 to 14) (size 15 to 20)
#    0.000    1.091    3.636    3.273    0.000    2.182 
#    1.636   12.727    0.000    0.000    0.000    0.000 
#    0.000    0.000    0.000    0.000    0.000    0.000 
#
# Total GULP energy -122639.078976 kJ/mol
# GULP energy per Si atom -5574.503590 kJ/mol
# Density = 2.137732 g / cm^3
# Si number density = 21.426090 Si / 1000 Ang^3
#
#
#
# Elastic Constant Matrix: (Units=GPa)
#
#
# Indices 1 2 3 4 5 6 
#
# 1 100.8434 52.8477 34.1431 0.0000 -9.4057 0.0000
# 2 52.8477 191.0223 51.9628 0.0000 -3.0009 0.0000
# 3 34.1431 51.9628 97.4827 0.0000 13.9144 0.0000
# 4 0.0000 0.0000 0.0000 32.9645 0.0000 8.8864
# 5 -9.4057 -3.0009 13.9144 0.0000 38.3877 0.0000
# 6 0.0000 0.0000 0.0000 8.8864 0.0000 -1.6161
#
#
#
# Elastic Compliance Matrix: (Units=1/GPa)
#
#
# Indices 1 2 3 4 5 6 
#
# 1 0.012910 -0.002461 -0.003832 0.000000 0.004360 0.000000
# 2 -0.002461 0.006706 -0.002849 0.000000 0.000954 0.000000
# 3 -0.003832 -0.002849 0.014010 0.000000 -0.006240 0.000000
# 4 0.000000 0.000000 0.000000 0.012221 0.000000 0.067197
# 5 0.004360 0.000954 -0.006240 0.000000 0.029455 0.000000
# 6 0.000000 0.000000 0.000000 0.067197 0.000000 -0.249271
#
#
# Mechanical properties :
#
#
# Convention : Reuss Voigt Hill
#
# Bulk Modulus (GPa) = 65.18136 74.13951 69.66044
# Shear Modulus (GPa) = -33.20665 30.64019 -1.28323
#
# Velocity S-wave (km/s) = -3.94105 3.78569 -0.77473
# Velocity P-wave (km/s) = 3.12704 7.33391 5.63758
#
# Compressibility (1/GPa) = 0.01534181
#
# Stress axis : x y z
#
# Youngs Moduli (GPa) = 77.45863 149.12764 71.37911
#
# Poissons Ratio (x) = 0.36695 0.27356
# Poissons Ratio (y) = 0.19060 0.20334
# Poissons Ratio (z) = 0.29685 0.42483
#
# Static dielectric constant tensor:
#      x y z
#    x 1.940700 0.000000 0.148140 
#    y 0.000000 1.829170 0.000000 
#    z 0.148140 0.000000 1.988790 
# 
# From -- ./inp_files/138821.got.cif
#   From: 2010.05.17/outbox.cif.g08.bks.cpg/sg15_70_cif.got.tgz:138821.got - 2010.06.03 18:47:42.
