data_PCOD9296545
_publ_section_title
;
Structure prediction by ZEFSAII (Michael W. Deem and Ramdas Pophale) SiO2 
 PCOD9296545
Probable space group: C 2/C
;
_chemical_formula_sum "Si O2"
_cell_formula_units_Z 48
_cell_length_a 9.141291
_cell_length_b 17.073572
_cell_length_c 18.839881
_cell_angle_alpha 90.000000
_cell_angle_beta 129.456430
_cell_angle_gamma 90.000000
_cell_volume 2270.325702
_symmetry_space_group_name_H-M "C 2/C"
_symmetry_group_IT_number 15
_symmetry_cell_setting 'monoclinic'
loop_
_space_group_symop_operation_xyz
x,y,z
-x,y,1/2-z
-x,-y,-z
x,-y,1/2+z
1/2+x,1/2+y,z
1/2-x,1/2+y,1/2-z
1/2-x,1/2-y,-z
1/2+x,1/2-y,1/2+z
loop_
_atom_site_type_symbol
_atom_site_label
_atom_site_fract_x
_atom_site_fract_y
_atom_site_fract_z
Si Si1 0.130915 0.071492 0.553968
Si Si2 0.326914 0.081098 0.753590
Si Si3 0.316271 0.251083 0.244741
Si Si4 0.924159 0.688190 0.051735
Si Si5 0.036241 0.768694 0.956531
Si Si6 0.955570 0.508187 0.069565
O O1 0.167479 0.061767 0.648364
O O2 0.050788 0.156125 0.511773
O O3 0.306383 0.054553 0.554847
O O4 0.000000 0.000000 0.500000
O O5 0.500000 0.094242 0.750000
O O6 0.261336 0.161252 0.768829
O O7 0.370373 0.014203 0.824396
O O8 0.500000 0.247783 0.250000
O O9 0.401589 0.216984 0.344500
O O10 0.128523 0.212465 0.151569
O O11 0.887154 0.597832 0.060504
O O12 0.750000 0.750000 0.000000
O O13 0.977165 0.694203 0.985465
O O14 0.250000 0.750000 0.000000
O O15 0.000000 0.500000 0.000000
#
# Coordination Sequence:
#
# PCOD9296545 Si02
#       6
#     8   8   8   8   8   8
#     4  11  24  42  69  96 137 184 230 281 356 416
#     4  10  23  45  67  98 139 187 230 291 355 419
#     4  12  26  41  74 105 139 185 239 295 358 418
#     4  12  25  45  69 106 144 179 236 296 356 422
#     4  12  25  46  72 101 137 185 237 288 347 422
#     4  11  25  44  69  99 142 182 233 294 352 424
#
# _framework density 21.142340000000001
#
# number of rings (size 3 to 8) (size 9 to 14) (size 15 to 20)
#    0.000    0.667    3.333    5.000    2.333    0.667 
#    0.000    0.000    0.000    0.000    0.000    0.000 
#    0.000    0.000    0.000    0.000    0.000    0.000 
#
# Total GULP energy -133793.764244 kJ/mol
# GULP energy per Si atom -5574.740177 kJ/mol
# Density = 2.109422 g / cm^3
# Si number density = 21.142340 Si / 1000 Ang^3
#
#
#
# Elastic Constant Matrix: (Units=GPa)
#
#
# Indices 1 2 3 4 5 6 
#
# 1 65.7938 4.8187 26.8416 0.0000 -6.1815 0.0000
# 2 4.8187 105.1511 43.2884 0.0000 0.3131 0.0000
# 3 26.8416 43.2884 180.9546 0.0000 -8.1280 0.0000
# 4 0.0000 0.0000 0.0000 43.1160 0.0000 0.9527
# 5 -6.1815 0.3131 -8.1280 0.0000 24.9632 0.0000
# 6 0.0000 0.0000 0.0000 0.9527 0.0000 35.1821
#
#
#
# Elastic Compliance Matrix: (Units=1/GPa)
#
#
# Indices 1 2 3 4 5 6 
#
# 1 0.016450 0.000199 -0.002339 0.000000 0.003309 0.000000
# 2 0.000199 0.010575 -0.002601 0.000000 -0.000930 0.000000
# 3 -0.002339 -0.002601 0.006567 0.000000 0.001592 0.000000
# 4 0.000000 0.000000 0.000000 0.023207 0.000000 -0.000628
# 5 0.003309 -0.000930 0.001592 0.000000 0.041408 0.000000
# 6 0.000000 0.000000 0.000000 -0.000628 0.000000 0.028441
#
#
# Mechanical properties :
#
#
# Convention : Reuss Voigt Hill
#
# Bulk Modulus (GPa) = 41.47753 55.75521 48.61637
# Shear Modulus (GPa) = 34.68246 39.11564 36.89905
#
# Velocity S-wave (km/s) = 4.05461 4.30596 4.18217
# Velocity P-wave (km/s) = 6.44831 7.15194 6.80922
#
# Compressibility (1/GPa) = 0.02410944
#
# Stress axis : x y z
#
# Youngs Moduli (GPa) = 60.79183 94.56681 152.27857
#
# Poissons Ratio (x) = -0.01884 0.35619
# Poissons Ratio (y) = -0.01211 0.39608
# Poissons Ratio (z) = 0.14219 0.24597
#
# Static dielectric constant tensor:
#      x y z
#    x 2.157340 0.000000 0.139790 
#    y 0.000000 1.762920 0.000000 
#    z 0.139790 0.000000 1.863610 
# 
# From -- ./inp_files/232885.got.cif
#   From: 2010.05.17/outbox.cif.g08.bks.cpg/sg15_117_cif.got.tgz:232885.got - 2010.06.03 18:47:42.
