data_PCOD9296316
_publ_section_title
;
Structure prediction by ZEFSAII (Michael W. Deem and Ramdas Pophale) SiO2 
 PCOD9296316
Probable space group: C 2/C
;
_chemical_formula_sum "Si O2"
_cell_formula_units_Z 44
_cell_length_a 7.709814
_cell_length_b 29.228286
_cell_length_c 10.774149
_cell_angle_alpha 90.000000
_cell_angle_beta 128.683482
_cell_angle_gamma 90.000000
_cell_volume 1895.242062
_symmetry_space_group_name_H-M "C 2/C"
_symmetry_group_IT_number 15
_symmetry_cell_setting 'monoclinic'
loop_
_space_group_symop_operation_xyz
x,y,z
-x,y,1/2-z
-x,-y,-z
x,-y,1/2+z
1/2+x,1/2+y,z
1/2-x,1/2+y,1/2-z
1/2-x,1/2-y,-z
1/2+x,1/2-y,1/2+z
loop_
_atom_site_type_symbol
_atom_site_label
_atom_site_fract_x
_atom_site_fract_y
_atom_site_fract_z
Si Si1 0.393588 0.078931 0.830695
Si Si2 0.000000 0.134279 0.750000
Si Si3 0.354781 0.488064 0.813547
Si Si4 0.701760 0.782526 0.092914
Si Si5 0.252736 0.392920 0.700925
Si Si6 0.752925 0.207634 0.190545
O O1 0.500000 0.094278 0.750000
O O2 0.152135 0.102199 0.734623
O O3 0.339259 0.024971 0.797185
O O4 0.563426 0.093643 0.015233
O O5 0.822347 0.170117 0.617260
O O6 0.500000 0.488286 0.750000
O O7 0.264742 0.436785 0.794316
O O8 0.500000 0.500000 0.000000
O O9 0.782975 0.752903 0.244885
O O10 0.750000 0.750000 0.000000
O O11 0.441525 0.791494 0.997433
O O12 0.500000 0.390459 0.750000
O O13 0.218442 0.342016 0.739608
O O14 0.000000 0.209044 0.250000
#
# Coordination Sequence:
#
# PCOD9296316 Si02
#       6
#     8   4   8   8   8   8
#     4  12  25  47  76 105 150 196 245 308 370 445
#     4  12  26  44  72 106 146 188 250 296 380 432
#     4  11  24  47  75 110 154 197 250 314 377 451
#     4  12  24  46  66  99 145 187 239 305 363 435
#     4  10  23  44  71 107 143 189 252 297 374 445
#     4  11  24  44  71 104 139 190 243 300 364 437
#
# _framework density 23.216031000000001
#
# number of rings (size 3 to 8) (size 9 to 14) (size 15 to 20)
#    0.000    0.727    4.545    3.273    0.000    5.091 
#    0.000    1.818    0.000    0.000    0.000    0.000 
#    0.000    0.000    0.000    0.000    0.000    0.000 
#
# Total GULP energy -122847.461810 kJ/mol
# GULP energy per Si atom -5583.975537 kJ/mol
# Density = 2.316319 g / cm^3
# Si number density = 23.216031 Si / 1000 Ang^3
#
#
#
# Elastic Constant Matrix: (Units=GPa)
#
#
# Indices 1 2 3 4 5 6 
#
# 1 113.5782 16.5995 29.1033 0.0000 26.4686 0.0000
# 2 16.5995 129.6074 15.7218 0.0000 11.5441 0.0000
# 3 29.1033 15.7218 102.1920 0.0000 24.4319 0.0000
# 4 0.0000 0.0000 0.0000 42.6857 0.0000 8.2374
# 5 26.4686 11.5441 24.4319 0.0000 42.1430 0.0000
# 6 0.0000 0.0000 0.0000 8.2374 0.0000 35.0933
#
#
#
# Elastic Compliance Matrix: (Units=1/GPa)
#
#
# Indices 1 2 3 4 5 6 
#
# 1 0.010604 -0.000671 -0.001589 0.000000 -0.005555 0.000000
# 2 -0.000671 0.008009 -0.000717 0.000000 -0.001357 0.000000
# 3 -0.001589 -0.000717 0.011682 0.000000 -0.005578 0.000000
# 4 0.000000 0.000000 0.000000 0.024539 0.000000 -0.005760
# 5 -0.005555 -0.001357 -0.005578 0.000000 0.030824 0.000000
# 6 0.000000 0.000000 0.000000 -0.005760 0.000000 0.029847
#
#
# Mechanical properties :
#
#
# Convention : Reuss Voigt Hill
#
# Bulk Modulus (GPa) = 41.07871 52.02520 46.55195
# Shear Modulus (GPa) = 38.58870 42.91459 40.75164
#
# Velocity S-wave (km/s) = 4.08138 4.30407 4.19420
# Velocity P-wave (km/s) = 6.32003 6.86716 6.59926
#
# Compressibility (1/GPa) = 0.02434351
#
# Stress axis : x y z
#
# Youngs Moduli (GPa) = 94.30182 124.85438 85.60283
#
# Poissons Ratio (x) = 0.08373 0.13599
# Poissons Ratio (y) = 0.06324 0.06135
# Poissons Ratio (z) = 0.14981 0.08949
#
# Static dielectric constant tensor:
#      x y z
#    x 1.901110 0.000000 0.088030 
#    y 0.000000 1.980750 0.000000 
#    z 0.088030 0.000000 1.859920 
# 
# From -- ./inp_files/81548.got.cif
#   From: 2010.05.17/outbox.cif.g08.bks.cpg/sg15_41_cif.got.tgz:81548.got - 2010.06.03 18:47:42.
