data_PCOD9296960
_publ_section_title
;
Structure prediction by ZEFSAII (Michael W. Deem and Ramdas Pophale) SiO2 
 PCOD9296960
Probable space group: C 2/C
;
_chemical_formula_sum "Si O2"
_cell_formula_units_Z 40
_cell_length_a 11.228798
_cell_length_b 24.699296
_cell_length_c 8.563521
_cell_angle_alpha 90.000000
_cell_angle_beta 136.467779
_cell_angle_gamma 90.000000
_cell_volume 1635.835526
_symmetry_space_group_name_H-M "C 2/C"
_symmetry_group_IT_number 15
_symmetry_cell_setting 'monoclinic'
loop_
_space_group_symop_operation_xyz
x,y,z
-x,y,1/2-z
-x,-y,-z
x,-y,1/2+z
1/2+x,1/2+y,z
1/2-x,1/2+y,1/2-z
1/2-x,1/2-y,-z
1/2+x,1/2-y,1/2+z
loop_
_atom_site_type_symbol
_atom_site_label
_atom_site_fract_x
_atom_site_fract_y
_atom_site_fract_z
Si Si1 0.838532 0.706580 0.696312
Si Si2 0.000000 0.336625 0.750000
Si Si3 0.540720 0.617770 0.461105
Si Si4 0.860669 0.204208 0.477130
Si Si5 0.826642 0.431315 0.387825
Si Si6 0.500000 0.020783 0.750000
O O1 0.750000 0.750000 0.500000
O O2 0.694771 0.661886 0.590140
O O3 0.885673 0.742409 0.893610
O O4 0.000000 0.685327 0.750000
O O5 0.834811 0.302069 0.648899
O O6 0.919813 0.378074 0.546109
O O7 0.387252 0.652058 0.390310
O O8 0.624360 0.576587 0.661949
O O9 0.500000 0.596674 0.250000
O O10 0.000000 0.198652 0.750000
O O11 0.914245 0.445221 0.305787
O O12 0.862836 0.480612 0.538561
#
# Coordination Sequence:
#
# PCOD9296960 Si02
#       6
#     8   4   8   8   8   4
#     4  12  25  46  67 100 145 198 249 290 346 420
#     4  11  26  44  78 106 146 196 238 300 364 427
#     4  12  26  46  71 103 145 194 248 299 348 435
#     4  12  26  48  66 107 153 189 253 298 350 416
#     4  10  23  46  75 107 138 187 233 295 370 439
#     4   9  22  46  78 106 140 178 238 296 380 453
#
# _framework density 24.452335999999999
#
# number of rings (size 3 to 8) (size 9 to 14) (size 15 to 20)
#    0.000    0.800    6.000    0.000    7.000    0.800 
#    9.000    1.000    0.000    0.000    0.000    0.000 
#    0.000    0.000    0.000    0.000    0.000    0.000 
#
# Total GULP energy -112112.100479 kJ/mol
# GULP energy per Si atom -5605.605024 kJ/mol
# Density = 2.439668 g / cm^3
# Si number density = 24.452336 Si / 1000 Ang^3
#
#
#
# Elastic Constant Matrix: (Units=GPa)
#
#
# Indices 1 2 3 4 5 6 
#
# 1 125.5670 20.2630 41.4686 0.0000 2.5175 0.0000
# 2 20.2630 66.5508 25.7161 0.0000 -5.8127 0.0000
# 3 41.4686 25.7161 160.6603 0.0000 -19.9565 0.0000
# 4 0.0000 0.0000 0.0000 5.3663 0.0000 6.7647
# 5 2.5175 -5.8127 -19.9565 0.0000 46.7056 0.0000
# 6 0.0000 0.0000 0.0000 6.7647 0.0000 13.3086
#
#
#
# Elastic Compliance Matrix: (Units=1/GPa)
#
#
# Indices 1 2 3 4 5 6 
#
# 1 0.009062 -0.002049 -0.002221 0.000000 -0.001693 0.000000
# 2 -0.002049 0.016520 -0.001950 0.000000 0.001333 0.000000
# 3 -0.002221 -0.001950 0.007492 0.000000 0.003078 0.000000
# 4 0.000000 0.000000 0.000000 0.518733 0.000000 -0.263671
# 5 -0.001693 0.001333 0.003078 0.000000 0.022983 0.000000
# 6 0.000000 0.000000 0.000000 -0.263671 0.000000 0.209163
#
#
# Mechanical properties :
#
#
# Convention : Reuss Voigt Hill
#
# Bulk Modulus (GPa) = 48.46307 58.63039 53.54673
# Shear Modulus (GPa) = 6.22455 30.76479 18.49467
#
# Velocity S-wave (km/s) = 1.59722 3.55089 2.75318
# Velocity P-wave (km/s) = 4.82327 6.39072 5.66150
#
# Compressibility (1/GPa) = 0.02063427
#
# Stress axis : x y z
#
# Youngs Moduli (GPa) = 110.35088 60.53358 133.47298
#
# Poissons Ratio (x) = 0.12401 0.29649
# Poissons Ratio (y) = 0.22607 0.26025
# Poissons Ratio (z) = 0.24513 0.11803
#
# Static dielectric constant tensor:
#      x y z
#    x 1.994350 0.000000 -0.035990 
#    y 0.000000 2.022470 0.000000 
#    z -0.035990 0.000000 1.983260 
# 
# From -- ./inp_files/35498.got.cif
#   From: 2010.05.17/outbox.cif.g08.bks.cpg/sg15_18_cif.got.tgz:35498.got - 2010.06.03 18:47:42.
