data_PCOD9296459
_publ_section_title
;
Structure prediction by ZEFSAII (Michael W. Deem and Ramdas Pophale) SiO2 
 PCOD9296459
Probable space group: C 2/C
;
_chemical_formula_sum "Si O2"
_cell_formula_units_Z 56
_cell_length_a 24.318413
_cell_length_b 15.722099
_cell_length_c 9.187772
_cell_angle_alpha 90.000000
_cell_angle_beta 135.957026
_cell_angle_gamma 90.000000
_cell_volume 2442.104798
_symmetry_space_group_name_H-M "C 2/C"
_symmetry_group_IT_number 15
_symmetry_cell_setting 'monoclinic'
loop_
_space_group_symop_operation_xyz
x,y,z
-x,y,1/2-z
-x,-y,-z
x,-y,1/2+z
1/2+x,1/2+y,z
1/2-x,1/2+y,1/2-z
1/2-x,1/2-y,-z
1/2+x,1/2-y,1/2+z
loop_
_atom_site_type_symbol
_atom_site_label
_atom_site_fract_x
_atom_site_fract_y
_atom_site_fract_z
Si Si1 0.500000 0.336852 0.250000
Si Si2 0.085754 0.881703 0.925907
Si Si3 0.726167 0.115860 0.030687
Si Si4 0.918540 0.392596 0.038157
Si Si5 0.500000 0.052440 0.250000
Si Si6 0.105633 0.306251 0.799856
Si Si7 0.391251 0.460415 0.845920
Si Si8 0.252512 0.797591 0.220417
O O1 0.447025 0.275617 0.254040
O O2 0.558224 0.394880 0.458782
O O3 0.095341 0.938419 0.797330
O O4 0.000000 0.839925 0.750000
O O5 0.161822 0.822287 0.074935
O O6 0.085875 0.945309 0.062613
O O7 0.797266 0.050642 0.192725
O O8 0.756491 0.204863 0.156272
O O9 0.645342 0.095154 0.957075
O O10 0.716160 0.135391 0.841006
O O11 0.000000 0.352621 0.250000
O O12 0.948525 0.487410 0.053444
O O13 0.886040 0.333140 0.850723
O O14 0.441562 0.113852 0.223423
O O15 0.191049 0.299077 0.034816
#
# Coordination Sequence:
#
# PCOD9296459 Si02
#       8
#     4   8   8   8   4   8   8   8
#     4  11  24  42  74  91 130 170 224 277 330 390
#     4  11  25  43  69  97 130 176 224 275 330 395
#     4  10  23  45  63  94 138 167 221 272 335 380
#     4  10  25  40  65 101 133 172 212 275 321 388
#     4   9  24  42  66  95 136 170 214 267 330 396
#     4  11  23  43  69 100 127 176 222 264 333 401
#     4  11  24  46  66  96 131 176 221 279 330 388
#     4  10  24  42  69  94 130 180 215 270 332 393
#
# _framework density 22.931039999999999
#
# number of rings (size 3 to 8) (size 9 to 14) (size 15 to 20)
#    0.429    1.143    2.143    0.857    6.000    3.429 
#    0.000    0.000    0.000    0.000    0.000    0.000 
#    0.000    0.000    0.000    0.000    0.000    0.000 
#
# Total GULP energy -156632.399816 kJ/mol
# GULP energy per Si atom -5594.014279 kJ/mol
# Density = 2.287885 g / cm^3
# Si number density = 22.931040 Si / 1000 Ang^3
#
#
#
# Elastic Constant Matrix: (Units=GPa)
#
#
# Indices 1 2 3 4 5 6 
#
# 1 112.1800 6.5702 33.0184 0.0000 30.2985 0.0000
# 2 6.5702 55.2625 7.2879 0.0000 -8.6909 0.0000
# 3 33.0184 7.2879 103.1470 0.0000 15.3985 0.0000
# 4 0.0000 0.0000 0.0000 17.6566 0.0000 6.2213
# 5 30.2985 -8.6909 15.3985 0.0000 34.5994 0.0000
# 6 0.0000 0.0000 0.0000 6.2213 0.0000 28.0369
#
#
#
# Elastic Compliance Matrix: (Units=1/GPa)
#
#
# Indices 1 2 3 4 5 6 
#
# 1 0.012667 -0.002915 -0.002232 0.000000 -0.010832 0.000000
# 2 -0.002915 0.019981 -0.001723 0.000000 0.008339 0.000000
# 3 -0.002232 -0.001723 0.011037 0.000000 -0.003391 0.000000
# 4 0.000000 0.000000 0.000000 0.061440 0.000000 -0.013633
# 5 -0.010832 0.008339 -0.003391 0.000000 0.041991 0.000000
# 6 0.000000 0.000000 0.000000 -0.013633 0.000000 0.038693
#
#
# Mechanical properties :
#
#
# Convention : Reuss Voigt Hill
#
# Bulk Modulus (GPa) = 33.39529 40.48251 36.93890
# Shear Modulus (GPa) = 23.86274 30.97276 27.41775
#
# Velocity S-wave (km/s) = 3.22938 3.67916 3.46158
# Velocity P-wave (km/s) = 5.33855 5.97835 5.66749
#
# Compressibility (1/GPa) = 0.02994434
#
# Stress axis : x y z
#
# Youngs Moduli (GPa) = 78.94246 50.04822 90.60178
#
# Poissons Ratio (x) = 0.14590 0.20222
# Poissons Ratio (y) = 0.23013 0.15615
# Poissons Ratio (z) = 0.17620 0.08626
#
# Static dielectric constant tensor:
#      x y z
#    x 1.874580 0.000000 -0.020300 
#    y 0.000000 1.835990 0.000000 
#    z -0.020300 0.000000 1.832030 
# 
# From -- ./inp_files/62814.got.cif
#   From: 2010.05.17/outbox.cif.g08.bks.cpg/sg15_32_cif.got.tgz:62814.got - 2010.06.03 18:47:42.
