data_PCOD9296067
_publ_section_title
;
Structure prediction by ZEFSAII (Michael W. Deem and Ramdas Pophale) SiO2 
 PCOD9296067
Probable space group: C 2/C
;
_chemical_formula_sum "Si O2"
_cell_formula_units_Z 60
_cell_length_a 9.850070
_cell_length_b 31.615186
_cell_length_c 7.577697
_cell_angle_alpha 90.000000
_cell_angle_beta 81.898578
_cell_angle_gamma 90.000000
_cell_volume 2336.233958
_symmetry_space_group_name_H-M "C 2/C"
_symmetry_group_IT_number 15
_symmetry_cell_setting 'monoclinic'
loop_
_space_group_symop_operation_xyz
x,y,z
-x,y,1/2-z
-x,-y,-z
x,-y,1/2+z
1/2+x,1/2+y,z
1/2-x,1/2+y,1/2-z
1/2-x,1/2-y,-z
1/2+x,1/2-y,1/2+z
loop_
_atom_site_type_symbol
_atom_site_label
_atom_site_fract_x
_atom_site_fract_y
_atom_site_fract_z
Si Si1 0.311159 0.045661 0.831918
Si Si2 0.939620 0.849486 0.957792
Si Si3 0.000000 0.381945 0.250000
Si Si4 0.486158 0.440286 0.052592
Si Si5 0.420452 0.256577 0.956826
Si Si6 0.413321 0.825797 0.989780
Si Si7 0.320880 0.868374 0.701220
Si Si8 0.225502 0.454008 0.582431
O O1 0.413575 0.082112 0.872496
O O2 0.169777 0.050281 0.966203
O O3 0.290705 0.053497 0.625175
O O4 0.350483 0.997016 0.852538
O O5 0.947438 0.802744 0.033868
O O6 0.783895 0.859591 0.935564
O O7 0.000000 0.850033 0.750000
O O8 0.003166 0.889392 0.044797
O O9 0.108428 0.348483 0.318089
O O10 0.500000 0.455213 0.250000
O O11 0.610042 0.459111 0.918797
O O12 0.500000 0.257778 0.750000
O O13 0.250000 0.250000 0.000000
O O14 0.510928 0.219121 0.026140
O O15 0.296885 0.833759 0.866291
O O16 0.533984 0.856656 0.905046
O O17 0.314597 0.913511 0.796465
#
# Coordination Sequence:
#
# PCOD9296067 Si02
#       8
#     8   8   4   8   8   8   8   8
#     4  11  26  40  66  96 136 178 237 287 351 414
#     4  11  22  41  72 101 136 178 232 289 355 420
#     4  12  24  44  68  98 134 188 228 288 346 426
#     4  10  23  44  66  97 135 177 229 291 357 412
#     4  11  24  45  72 110 142 185 242 296 354 437
#     4  11  24  44  73  95 142 186 228 283 358 422
#     4  11  23  44  69  99 137 182 230 279 358 418
#     4  11  24  44  64  99 135 177 235 294 343 422
#
# _framework density 25.682361
#
# number of rings (size 3 to 8) (size 9 to 14) (size 15 to 20)
#    0.000    1.067    4.667    1.200    3.733    1.600 
#    2.400    2.667    0.000    0.000    0.000    0.000 
#    0.000    0.000    0.000    0.000    0.000    0.000 
#
# Total GULP energy -167413.341869 kJ/mol
# GULP energy per Si atom -5580.444729 kJ/mol
# Density = 2.562391 g / cm^3
# Si number density = 25.682361 Si / 1000 Ang^3
#
#
#
# Elastic Constant Matrix: (Units=GPa)
#
#
# Indices 1 2 3 4 5 6 
#
# 1 70.5068 14.6286 8.6216 0.0000 -21.3427 0.0000
# 2 14.6286 214.6926 26.5445 0.0000 4.8632 0.0000
# 3 8.6216 26.5445 76.7923 0.0000 -3.2156 0.0000
# 4 0.0000 0.0000 0.0000 19.0992 0.0000 -2.0186
# 5 -21.3427 4.8632 -3.2156 0.0000 39.8853 0.0000
# 6 0.0000 0.0000 0.0000 -2.0186 0.0000 33.4177
#
#
#
# Elastic Compliance Matrix: (Units=1/GPa)
#
#
# Indices 1 2 3 4 5 6 
#
# 1 0.017424 -0.001260 -0.001127 0.000000 0.009386 0.000000
# 2 -0.001260 0.004978 -0.001639 0.000000 -0.001414 0.000000
# 3 -0.001127 -0.001639 0.013745 0.000000 0.000705 0.000000
# 4 0.000000 0.000000 0.000000 0.052695 0.000000 0.003183
# 5 0.009386 -0.001414 0.000705 0.000000 0.030324 0.000000
# 6 0.000000 0.000000 0.000000 0.003183 0.000000 0.030117
#
#
# Mechanical properties :
#
#
# Convention : Reuss Voigt Hill
#
# Bulk Modulus (GPa) = 35.59505 51.28679 43.44092
# Shear Modulus (GPa) = 29.99422 39.29357 34.64390
#
# Velocity S-wave (km/s) = 3.42115 3.91574 3.67677
# Velocity P-wave (km/s) = 5.43098 6.36059 5.91408
#
# Compressibility (1/GPa) = 0.02809380
#
# Stress axis : x y z
#
# Youngs Moduli (GPa) = 57.39319 200.87142 72.75585
#
# Poissons Ratio (x) = 0.25318 0.08203
# Poissons Ratio (y) = 0.07234 0.11921
# Poissons Ratio (z) = 0.06471 0.32913
#
# Static dielectric constant tensor:
#      x y z
#    x 2.359160 0.000000 0.048560 
#    y 0.000000 2.009080 0.000000 
#    z 0.048560 0.000000 2.946860 
# 
# From -- ./inp_files/35218.got.cif
#   From: 2010.05.17/outbox.cif.g08.bks.cpg/sg15_18_cif.got.tgz:35218.got - 2010.06.03 18:47:42.
