data_PCOD9296302
_publ_section_title
;
Structure prediction by ZEFSAII (Michael W. Deem and Ramdas Pophale) SiO2 
 PCOD9296302
Probable space group: C 2/C
;
_chemical_formula_sum "Si O2"
_cell_formula_units_Z 40
_cell_length_a 8.821192
_cell_length_b 7.284650
_cell_length_c 27.758149
_cell_angle_alpha 90.000000
_cell_angle_beta 105.184726
_cell_angle_gamma 90.000000
_cell_volume 1721.442985
_symmetry_space_group_name_H-M "C 2/C"
_symmetry_group_IT_number 15
_symmetry_cell_setting 'monoclinic'
loop_
_space_group_symop_operation_xyz
x,y,z
-x,y,1/2-z
-x,-y,-z
x,-y,1/2+z
1/2+x,1/2+y,z
1/2-x,1/2+y,1/2-z
1/2-x,1/2-y,-z
1/2+x,1/2-y,1/2+z
loop_
_atom_site_type_symbol
_atom_site_label
_atom_site_fract_x
_atom_site_fract_y
_atom_site_fract_z
Si Si1 0.521283 0.212201 0.696725
Si Si2 0.819235 0.985311 0.479634
Si Si3 0.076361 0.585105 0.383119
Si Si4 0.112065 0.871494 0.303526
Si Si5 0.860526 0.429750 0.953312
O O1 0.500000 0.147104 0.750000
O O2 0.705998 0.177075 0.696815
O O3 0.445317 0.417750 0.691120
O O4 0.421593 0.089356 0.651857
O O5 0.802208 0.775153 0.459743
O O6 0.773051 0.040238 0.530476
O O7 0.725043 0.090856 0.430853
O O8 0.000000 0.000000 0.500000
O O9 0.072780 0.759015 0.348261
O O10 0.924806 0.559568 0.405235
O O11 0.000000 0.811338 0.250000
O O12 0.000000 0.500000 0.000000
#
# Coordination Sequence:
#
# PCOD9296302 Si02
#       5
#     8   8   8   8   8
#     4  11  29  50  79 113 162 202 260 330 401 480
#     4  10  23  44  71 102 151 197 255 321 399 459
#     4  11  26  45  77 107 154 199 270 315 399 481
#     4  11  29  49  80 116 155 208 259 326 409 478
#     4   9  22  43  64 100 143 193 247 319 384 463
#
# _framework density 23.236318000000001
#
# number of rings (size 3 to 8) (size 9 to 14) (size 15 to 20)
#    0.000    1.600    0.000    0.600   16.800    9.600 
#    0.000    0.000    0.000    0.000    0.000    0.000 
#    0.000    0.000    0.000    0.000    0.000    0.000 
#
# Total GULP energy -111445.882948 kJ/mol
# GULP energy per Si atom -5572.294147 kJ/mol
# Density = 2.318343 g / cm^3
# Si number density = 23.236318 Si / 1000 Ang^3
#
#
#
# Elastic Constant Matrix: (Units=GPa)
#
#
# Indices 1 2 3 4 5 6 
#
# 1 156.0873 27.9734 71.6655 0.0000 -17.7663 0.0000
# 2 27.9734 142.4883 89.8989 0.0000 0.4532 0.0000
# 3 71.6655 89.8989 197.1761 0.0000 -34.4234 0.0000
# 4 0.0000 0.0000 0.0000 -27.0530 0.0000 -25.8388
# 5 -17.7663 0.4532 -34.4234 0.0000 49.1219 0.0000
# 6 0.0000 0.0000 0.0000 -25.8388 0.0000 18.5666
#
#
#
# Elastic Compliance Matrix: (Units=1/GPa)
#
#
# Indices 1 2 3 4 5 6 
#
# 1 0.007733 0.000221 -0.002761 0.000000 0.000860 0.000000
# 2 0.000221 0.010483 -0.005541 0.000000 -0.003899 0.000000
# 3 -0.002761 -0.005541 0.009612 0.000000 0.005788 0.000000
# 4 0.000000 0.000000 0.000000 -0.015870 0.000000 -0.022086
# 5 0.000860 -0.003899 0.005788 0.000000 0.024761 0.000000
# 6 0.000000 0.000000 0.000000 -0.022086 0.000000 0.023124
#
#
# Mechanical properties :
#
#
# Convention : Reuss Voigt Hill
#
# Bulk Modulus (GPa) = 85.71848 97.20301 91.46074
# Shear Modulus (GPa) = 62.58458 28.54136 45.56297
#
# Velocity S-wave (km/s) = 5.19542 3.50852 4.43295
# Velocity P-wave (km/s) = 8.54165 7.63781 8.10235
#
# Compressibility (1/GPa) = 0.01166610
#
# Stress axis : x y z
#
# Youngs Moduli (GPa) = 129.32106 95.39444 104.03713
#
# Poissons Ratio (x) = -0.02112 0.28729
# Poissons Ratio (y) = -0.02863 0.57644
# Poissons Ratio (z) = 0.35711 0.52855
#
# Static dielectric constant tensor:
#      x y z
#    x 1.924900 0.000000 -0.029340 
#    y 0.000000 1.883430 0.000000 
#    z -0.029340 0.000000 1.866860 
# 
# From -- ./inp_files/287071.got.cif
#   From: 2010.05.17/outbox.cif.g08.bks.cpg/sg15_144_cif.got.tgz:287071.got - 2010.06.03 18:47:42.
