data_PCOD9296422
_publ_section_title
;
Structure prediction by ZEFSAII (Michael W. Deem and Ramdas Pophale) SiO2 
 PCOD9296422
Probable space group: C 2/C
;
_chemical_formula_sum "Si O2"
_cell_formula_units_Z 40
_cell_length_a 17.294358
_cell_length_b 17.090503
_cell_length_c 4.994553
_cell_angle_alpha 90.000000
_cell_angle_beta 105.051660
_cell_angle_gamma 90.000000
_cell_volume 1425.589809
_symmetry_space_group_name_H-M "C 2/C"
_symmetry_group_IT_number 15
_symmetry_cell_setting 'monoclinic'
loop_
_space_group_symop_operation_xyz
x,y,z
-x,y,1/2-z
-x,-y,-z
x,-y,1/2+z
1/2+x,1/2+y,z
1/2-x,1/2+y,1/2-z
1/2-x,1/2-y,-z
1/2+x,1/2-y,1/2+z
loop_
_atom_site_type_symbol
_atom_site_label
_atom_site_fract_x
_atom_site_fract_y
_atom_site_fract_z
Si Si1 0.736629 0.826500 0.664714
Si Si2 0.500000 0.645834 0.250000
Si Si3 0.424426 0.223800 0.366089
Si Si4 0.000000 0.417199 0.250000
Si Si5 0.626281 0.556138 0.046597
Si Si6 0.166439 0.456844 0.211443
O O1 0.750000 0.750000 0.500000
O O2 0.665458 0.796608 0.802842
O O3 0.811918 0.871592 0.859271
O O4 0.702537 0.885569 0.405405
O O5 0.569178 0.703849 0.423255
O O6 0.541077 0.592581 0.061212
O O7 0.500000 0.243357 0.250000
O O8 0.451970 0.142116 0.517647
O O9 0.069837 0.456179 0.139533
O O10 0.636236 0.484427 0.267649
O O11 0.189553 0.528874 0.427881
#
# Coordination Sequence:
#
# PCOD9296422 Si02
#       6
#     8   4   8   4   8   8
#     4  11  24  49  74 108 149 197 253 311 379 452
#     4  11  24  46  76 114 147 200 262 316 385 452
#     4  10  23  44  74 112 149 192 255 315 379 451
#     4   9  22  38  66 100 139 186 236 286 361 438
#     4  12  28  51  78 113 155 202 255 320 386 456
#     4  11  24  42  67 100 142 183 234 295 360 436
#
# _framework density 28.058562999999999
#
# number of rings (size 3 to 8) (size 9 to 14) (size 15 to 20)
#    0.000    1.200    2.000    2.400    8.400    0.000 
#    7.200    5.000    0.000    0.000    0.000    0.000 
#    0.000    0.000    0.000    0.000    0.000    0.000 
#
# Total GULP energy -112028.472681 kJ/mol
# GULP energy per Si atom -5601.423634 kJ/mol
# Density = 2.799470 g / cm^3
# Si number density = 28.058563 Si / 1000 Ang^3
#
#
#
# Elastic Constant Matrix: (Units=GPa)
#
#
# Indices 1 2 3 4 5 6 
#
# 1 115.0139 34.5483 2.1120 0.0000 0.1398 0.0000
# 2 34.5483 137.3636 19.4233 0.0000 6.7851 0.0000
# 3 2.1120 19.4233 84.8484 0.0000 -13.0726 0.0000
# 4 0.0000 0.0000 0.0000 33.7138 0.0000 -19.0850
# 5 0.1398 6.7851 -13.0726 0.0000 38.5608 0.0000
# 6 0.0000 0.0000 0.0000 -19.0850 0.0000 7.9264
#
#
#
# Elastic Compliance Matrix: (Units=1/GPa)
#
#
# Indices 1 2 3 4 5 6 
#
# 1 0.009424 -0.002455 0.000410 0.000000 0.000537 0.000000
# 2 -0.002455 0.008314 -0.002180 0.000000 -0.002193 0.000000
# 3 0.000410 -0.002180 0.013013 0.000000 0.004794 0.000000
# 4 0.000000 0.000000 0.000000 -0.081708 0.000000 -0.196734
# 5 0.000537 -0.002193 0.004794 0.000000 0.027942 0.000000
# 6 0.000000 0.000000 0.000000 -0.196734 0.000000 -0.347532
#
#
# Mechanical properties :
#
#
# Convention : Reuss Voigt Hill
#
# Bulk Modulus (GPa) = 44.83987 49.93257 47.38622
# Shear Modulus (GPa) = -14.09788 34.78304 10.34258
#
# Velocity S-wave (km/s) = -2.24396 3.52470 1.92200
# Velocity P-wave (km/s) = 3.04987 5.86508 4.67444
#
# Compressibility (1/GPa) = 0.02230158
#
# Stress axis : x y z
#
# Youngs Moduli (GPa) = 106.11479 120.28056 76.84554
#
# Poissons Ratio (x) = 0.29525 -0.03151
# Poissons Ratio (y) = 0.26048 0.16752
# Poissons Ratio (z) = -0.04351 0.26221
#
# Static dielectric constant tensor:
#      x y z
#    x 2.335210 0.000000 -0.096870 
#    y 0.000000 2.170420 0.000000 
#    z -0.096870 0.000000 2.246950 
# 
# From -- ./inp_files/9915.got.cif
#   From: 2010.05.17/outbox.cif.g08.bks.cpg/sg15_5_cif.got.tgz:9915.got - 2010.06.03 18:47:42.
