data_PCOD9296028
_publ_section_title
;
Structure prediction by ZEFSAII (Michael W. Deem and Ramdas Pophale) SiO2 
 PCOD9296028
Probable space group: C 2/C
;
_chemical_formula_sum "Si O2"
_cell_formula_units_Z 56
_cell_length_a 26.975110
_cell_length_b 12.005760
_cell_length_c 8.663795
_cell_angle_alpha 90.000000
_cell_angle_beta 111.956418
_cell_angle_gamma 90.000000
_cell_volume 2602.317199
_symmetry_space_group_name_H-M "C 2/C"
_symmetry_group_IT_number 15
_symmetry_cell_setting 'monoclinic'
loop_
_space_group_symop_operation_xyz
x,y,z
-x,y,1/2-z
-x,-y,-z
x,-y,1/2+z
1/2+x,1/2+y,z
1/2-x,1/2+y,1/2-z
1/2-x,1/2-y,-z
1/2+x,1/2-y,1/2+z
loop_
_atom_site_type_symbol
_atom_site_label
_atom_site_fract_x
_atom_site_fract_y
_atom_site_fract_z
Si Si1 0.894394 0.147394 0.569491
Si Si2 0.228816 0.127289 0.990804
Si Si3 0.868012 0.414086 0.162701
Si Si4 0.444339 0.744407 0.094314
Si Si5 0.562406 0.522814 0.588577
Si Si6 0.443228 0.131193 0.263824
Si Si7 0.708400 0.987978 0.185574
O O1 0.832516 0.132103 0.535097
O O2 0.925787 0.070818 0.729596
O O3 0.914442 0.272484 0.627722
O O4 0.907966 0.091019 0.422194
O O5 0.242625 0.067382 0.846892
O O6 0.250000 0.250000 0.000000
O O7 0.265749 0.067434 0.158791
O O8 0.902969 0.309197 0.154762
O O9 0.906868 0.521026 0.231009
O O10 0.830832 0.403075 0.270250
O O11 0.828464 0.444680 0.976187
O O12 0.500000 0.732112 0.250000
O O13 0.423682 0.625266 0.009981
O O14 0.451384 0.817945 0.945159
O O15 0.500000 0.500000 0.500000
O O16 0.500000 0.105992 0.250000
#
# Coordination Sequence:
#
# PCOD9296028 Si02
#       7
#     8   8   8   8   8   8   8
#     4  11  22  42  66  92 128 174 216 270 329 383
#     4  11  24  45  70  96 133 175 229 282 336 393
#     4  11  22  42  65  93 135 173 215 272 334 389
#     4  11  24  39  61  96 135 170 219 265 321 404
#     4  11  23  42  65  94 133 170 215 267 327 399
#     4  11  24  40  66  96 133 176 214 259 333 407
#     4  10  23  44  65  98 130 172 226 278 329 397
#
# _framework density 21.519282
#
# number of rings (size 3 to 8) (size 9 to 14) (size 15 to 20)
#    0.000    1.143    1.429    6.000    4.000    1.143 
#    7.714    1.429    0.000    0.000    0.000    0.000 
#    0.000    0.000    0.000    0.000    0.000    0.000 
#
# Total GULP energy -156714.046024 kJ/mol
# GULP energy per Si atom -5596.930215 kJ/mol
# Density = 2.147030 g / cm^3
# Si number density = 21.519282 Si / 1000 Ang^3
#
#
#
# Elastic Constant Matrix: (Units=GPa)
#
#
# Indices 1 2 3 4 5 6 
#
# 1 114.9447 2.3477 -10.4199 0.0000 0.7016 0.0000
# 2 2.3477 74.4956 4.3863 0.0000 -9.0458 0.0000
# 3 -10.4199 4.3863 47.7099 0.0000 1.0790 0.0000
# 4 0.0000 0.0000 0.0000 46.9312 0.0000 13.3551
# 5 0.7016 -9.0458 1.0790 0.0000 25.1813 0.0000
# 6 0.0000 0.0000 0.0000 13.3551 0.0000 41.8378
#
#
#
# Elastic Compliance Matrix: (Units=1/GPa)
#
#
# Indices 1 2 3 4 5 6 
#
# 1 0.008893 -0.000458 0.001996 0.000000 -0.000498 0.000000
# 2 -0.000458 0.014154 -0.001518 0.000000 0.005162 0.000000
# 3 0.001996 -0.001518 0.021570 0.000000 -0.001525 0.000000
# 4 0.000000 0.000000 0.000000 0.023437 0.000000 -0.007481
# 5 -0.000498 0.005162 -0.001525 0.000000 0.041646 0.000000
# 6 0.000000 0.000000 0.000000 -0.007481 0.000000 0.026290
#
#
# Mechanical properties :
#
#
# Convention : Reuss Voigt Hill
#
# Bulk Modulus (GPa) = 22.39345 25.53095 23.96220
# Shear Modulus (GPa) = 33.14849 38.84580 35.99714
#
# Velocity S-wave (km/s) = 3.92906 4.25333 4.09441
# Velocity P-wave (km/s) = 5.56886 6.00092 5.78892
#
# Compressibility (1/GPa) = 0.04465592
#
# Stress axis : x y z
#
# Youngs Moduli (GPa) = 112.44618 70.64987 46.36087
#
# Poissons Ratio (x) = 0.03237 -0.09252
# Poissons Ratio (y) = 0.05153 0.07038
# Poissons Ratio (z) = -0.22440 0.10726
#
# Static dielectric constant tensor:
#      x y z
#    x 1.741430 0.000000 -0.039630 
#    y 0.000000 1.761040 0.000000 
#    z -0.039630 0.000000 1.790980 
# 
# From -- ./inp_files/65431.got.cif
#   From: 2010.05.17/outbox.cif.g08.bks.cpg/sg15_33_cif.got.tgz:65431.got - 2010.06.03 18:47:42.
