data_PCOD9296214
_publ_section_title
;
Structure prediction by ZEFSAII (Michael W. Deem and Ramdas Pophale) SiO2 
 PCOD9296214
Probable space group: C 2/C
;
_chemical_formula_sum "Si O2"
_cell_formula_units_Z 36
_cell_length_a 5.091223
_cell_length_b 27.934579
_cell_length_c 12.454509
_cell_angle_alpha 90.000000
_cell_angle_beta 81.892000
_cell_angle_gamma 90.000000
_cell_volume 1753.588947
_symmetry_space_group_name_H-M "C 2/C"
_symmetry_group_IT_number 15
_symmetry_cell_setting 'monoclinic'
loop_
_space_group_symop_operation_xyz
x,y,z
-x,y,1/2-z
-x,-y,-z
x,-y,1/2+z
1/2+x,1/2+y,z
1/2-x,1/2+y,1/2-z
1/2-x,1/2-y,-z
1/2+x,1/2-y,1/2+z
loop_
_atom_site_type_symbol
_atom_site_label
_atom_site_fract_x
_atom_site_fract_y
_atom_site_fract_z
Si Si1 0.000000 0.509748 0.250000
Si Si2 0.000000 0.166520 0.250000
Si Si3 0.009903 0.782092 0.974960
Si Si4 0.147078 0.405623 0.894846
Si Si5 0.000000 0.055306 0.750000
Si Si6 0.405769 0.385142 0.465218
O O1 0.064127 0.544802 0.345360
O O2 0.258841 0.477232 0.221565
O O3 0.947354 0.198739 0.148870
O O4 0.237123 0.131007 0.200708
O O5 0.750000 0.750000 0.000000
O O6 0.250000 0.750000 0.000000
O O7 0.994039 0.830532 0.045885
O O8 0.388107 0.410713 0.965266
O O9 0.887531 0.384883 0.967296
O O10 0.901254 0.088018 0.853213
#
# Coordination Sequence:
#
# PCOD9296214 Si02
#       6
#     4   4   8   8   4   8
#     4  12  24  40  67  99 124 173 221 260 316 388
#     4  10  23  44  69  96 130 168 213 274 321 366
#     4  11  24  41  66  96 124 164 215 259 314 382
#     4  11  23  43  70  92 125 170 226 269 306 370
#     4  12  27  42  62  95 140 171 204 260 337 392
#     4  11  25  44  64  94 133 173 209 269 329 374
#
# _framework density 20.529323999999999
#
# number of rings (size 3 to 8) (size 9 to 14) (size 15 to 20)
#    0.000    0.889    0.000    8.667    0.000   11.556 
#    0.000    0.000    0.000    0.000    0.000    0.000 
#    0.000    0.000    0.000    0.000    0.000    0.000 
#
# Total GULP energy -100733.961862 kJ/mol
# GULP energy per Si atom -5596.331215 kJ/mol
# Density = 2.048260 g / cm^3
# Si number density = 20.529324 Si / 1000 Ang^3
#
#
#
# Elastic Constant Matrix: (Units=GPa)
#
#
# Indices 1 2 3 4 5 6 
#
# 1 164.2995 57.9362 64.6789 0.0000 -17.7760 0.0000
# 2 57.9362 141.4239 74.6738 0.0000 -6.5209 0.0000
# 3 64.6789 74.6738 120.1164 0.0000 -11.6013 0.0000
# 4 0.0000 0.0000 0.0000 10.4182 0.0000 -4.3726
# 5 -17.7760 -6.5209 -11.6013 0.0000 39.8727 0.0000
# 6 0.0000 0.0000 0.0000 -4.3726 0.0000 19.1426
#
#
#
# Elastic Compliance Matrix: (Units=1/GPa)
#
#
# Indices 1 2 3 4 5 6 
#
# 1 0.008153 -0.001539 -0.003196 0.000000 0.002453 0.000000
# 2 -0.001539 0.010818 -0.005960 0.000000 -0.000651 0.000000
# 3 -0.003196 -0.005960 0.013910 0.000000 0.001648 0.000000
# 4 0.000000 0.000000 0.000000 0.106164 0.000000 0.024250
# 5 0.002453 -0.000651 0.001648 0.000000 0.026546 0.000000
# 6 0.000000 0.000000 0.000000 0.024250 0.000000 0.057779
#
#
# Mechanical properties :
#
#
# Convention : Reuss Voigt Hill
#
# Bulk Modulus (GPa) = 87.02050 91.15751 89.08901
# Shear Modulus (GPa) = 20.11336 29.12344 24.61840
#
# Velocity S-wave (km/s) = 3.13347 3.77055 3.46668
# Velocity P-wave (km/s) = 7.45466 7.96593 7.71453
#
# Compressibility (1/GPa) = 0.01149154
#
# Stress axis : x y z
#
# Youngs Moduli (GPa) = 122.65663 92.43718 71.88866
#
# Poissons Ratio (x) = 0.14227 0.22978
# Poissons Ratio (y) = 0.18878 0.42842
# Poissons Ratio (z) = 0.39205 0.55088
#
# Static dielectric constant tensor:
#      x y z
#    x 1.724380 0.000000 0.021170 
#    y 0.000000 1.717240 0.000000 
#    z 0.021170 0.000000 1.814180 
# 
# From -- ./inp_files/72646.got.cif
#   From: 2010.05.17/outbox.cif.g08.bks.cpg/sg15_37_cif.got.tgz:72646.got - 2010.06.03 18:47:42.
