data_PCOD9296971
_publ_section_title
;
Structure prediction by ZEFSAII (Michael W. Deem and Ramdas Pophale) SiO2 
 PCOD9296971
Probable space group: C 2/C
;
_chemical_formula_sum "Si O2"
_cell_formula_units_Z 48
_cell_length_a 19.599464
_cell_length_b 10.776184
_cell_length_c 13.163867
_cell_angle_alpha 90.000000
_cell_angle_beta 136.379510
_cell_angle_gamma 90.000000
_cell_volume 1918.073628
_symmetry_space_group_name_H-M "C 2/C"
_symmetry_group_IT_number 15
_symmetry_cell_setting 'monoclinic'
loop_
_space_group_symop_operation_xyz
x,y,z
-x,y,1/2-z
-x,-y,-z
x,-y,1/2+z
1/2+x,1/2+y,z
1/2-x,1/2+y,1/2-z
1/2-x,1/2-y,-z
1/2+x,1/2-y,1/2+z
loop_
_atom_site_type_symbol
_atom_site_label
_atom_site_fract_x
_atom_site_fract_y
_atom_site_fract_z
Si Si1 0.621217 0.060944 0.247293
Si Si2 0.704702 0.450173 0.967104
Si Si3 0.569338 0.237363 0.742926
Si Si4 0.903415 0.395315 0.446424
Si Si5 0.705799 0.679533 0.822851
Si Si6 0.575548 0.425695 0.010704
O O1 0.677701 0.959038 0.378874
O O2 0.671139 0.190561 0.330565
O O3 0.640315 0.022637 0.149281
O O4 0.503003 0.080220 0.116437
O O5 0.663866 0.317852 0.883990
O O6 0.683178 0.557064 0.863120
O O7 0.650965 0.490454 0.014182
O O8 0.500000 0.164920 0.750000
O O9 0.576848 0.176229 0.638520
O O10 0.493601 0.348498 0.636183
O O11 0.820921 0.324535 0.419637
O O12 0.643159 0.661923 0.652697
O O13 0.500000 0.500000 0.000000
#
# Coordination Sequence:
#
# PCOD9296971 Si02
#       6
#     8   8   8   8   8   8
#     4  11  26  48  65 109 152 193 247 299 388 446
#     4  11  25  45  73 116 141 187 259 312 369 441
#     4  10  23  46  76 108 141 194 258 315 363 440
#     4  11  26  48  73 104 151 202 240 309 383 458
#     4  12  25  45  78 104 150 199 248 310 378 456
#     4  11  22  45  74 108 141 190 255 313 365 444
#
# _framework density 25.025107999999999
#
# number of rings (size 3 to 8) (size 9 to 14) (size 15 to 20)
#    0.000    1.000    5.000    0.500    4.667    1.333 
#    6.000    0.000    0.000    0.000    0.000    0.000 
#    0.000    0.000    0.000    0.000    0.000    0.000 
#
# Total GULP energy -134083.273834 kJ/mol
# GULP energy per Si atom -5586.803076 kJ/mol
# Density = 2.496815 g / cm^3
# Si number density = 25.025108 Si / 1000 Ang^3
#
#
#
# Elastic Constant Matrix: (Units=GPa)
#
#
# Indices 1 2 3 4 5 6 
#
# 1 135.4836 44.4861 46.2418 0.0000 3.1346 0.0000
# 2 44.4861 95.7578 47.9505 0.0000 4.0445 0.0000
# 3 46.2418 47.9505 193.4145 0.0000 23.2079 0.0000
# 4 0.0000 0.0000 0.0000 41.3694 0.0000 -18.0073
# 5 3.1346 4.0445 23.2079 0.0000 39.9497 0.0000
# 6 0.0000 0.0000 0.0000 -18.0073 0.0000 28.0636
#
#
#
# Elastic Compliance Matrix: (Units=1/GPa)
#
#
# Indices 1 2 3 4 5 6 
#
# 1 0.008981 -0.003528 -0.001323 0.000000 0.000421 0.000000
# 2 -0.003528 0.013320 -0.002505 0.000000 0.000383 0.000000
# 3 -0.001323 -0.002505 0.006519 0.000000 -0.003430 0.000000
# 4 0.000000 0.000000 0.000000 0.033540 0.000000 0.021522
# 5 0.000421 0.000383 -0.003430 0.000000 0.026952 0.000000
# 6 0.000000 0.000000 0.000000 0.021522 0.000000 0.049443
#
#
# Mechanical properties :
#
#
# Convention : Reuss Voigt Hill
#
# Bulk Modulus (GPa) = 70.87706 78.00140 74.43923
# Shear Modulus (GPa) = 31.61162 40.94169 36.27666
#
# Velocity S-wave (km/s) = 3.55800 4.04917 3.81151
# Velocity P-wave (km/s) = 6.72778 7.28683 7.01288
#
# Compressibility (1/GPa) = 0.01410894
#
# Stress axis : x y z
#
# Youngs Moduli (GPa) = 111.34469 75.07560 153.39474
#
# Poissons Ratio (x) = 0.26483 0.20297
# Poissons Ratio (y) = 0.39277 0.38423
# Poissons Ratio (z) = 0.14733 0.18805
#
# Static dielectric constant tensor:
#      x y z
#    x 2.293450 0.000000 0.093330 
#    y 0.000000 2.169160 0.000000 
#    z 0.093330 0.000000 2.022430 
# 
# From -- ./inp_files/167925.got.cif
#   From: 2010.05.17/outbox.cif.g08.bks.cpg/sg15_84_cif.got.tgz:167925.got - 2010.06.03 18:47:42.
