data_PCOD9296645
_publ_section_title
;
Structure prediction by ZEFSAII (Michael W. Deem and Ramdas Pophale) SiO2 
 PCOD9296645
Probable space group: C 2/C
;
_chemical_formula_sum "Si O2"
_cell_formula_units_Z 48
_cell_length_a 19.266044
_cell_length_b 11.106469
_cell_length_c 19.200848
_cell_angle_alpha 90.000000
_cell_angle_beta 28.751183
_cell_angle_gamma 90.000000
_cell_volume 1976.242552
_symmetry_space_group_name_H-M "C 2/C"
_symmetry_group_IT_number 15
_symmetry_cell_setting 'monoclinic'
loop_
_space_group_symop_operation_xyz
x,y,z
-x,y,1/2-z
-x,-y,-z
x,-y,1/2+z
1/2+x,1/2+y,z
1/2-x,1/2+y,1/2-z
1/2-x,1/2-y,-z
1/2+x,1/2-y,1/2+z
loop_
_atom_site_type_symbol
_atom_site_label
_atom_site_fract_x
_atom_site_fract_y
_atom_site_fract_z
Si Si1 0.994966 0.801060 0.539683
Si Si2 0.840375 0.307069 0.859130
Si Si3 0.219881 0.828001 0.229109
Si Si4 0.122615 0.549320 0.472178
Si Si5 0.893640 0.829546 0.778299
Si Si6 0.386171 0.945689 0.287819
O O1 0.833491 0.771577 0.656471
O O2 0.976638 0.856163 0.632870
O O3 0.094612 0.861710 0.393885
O O4 0.073703 0.671772 0.479011
O O5 0.839963 0.225136 0.790677
O O6 0.783914 0.442632 0.893210
O O7 0.000000 0.319348 0.750000
O O8 0.750000 0.250000 0.000000
O O9 0.314895 0.945888 0.130484
O O10 0.254099 0.586885 0.407580
O O11 0.982896 0.510035 0.637910
O O12 0.836102 0.691007 0.820331
O O13 0.000000 0.838573 0.750000
O O14 0.500000 0.930345 0.250000
#
# Coordination Sequence:
#
# PCOD9296645 Si02
#       6
#     8   8   8   8   8   8
#     4  11  24  46  67 103 136 187 238 286 358 418
#     4  11  23  44  71 105 140 184 238 284 350 417
#     4  12  24  43  71  98 141 184 234 292 351 426
#     4  11  23  44  68 100 141 182 238 282 362 416
#     4  10  23  45  71 103 142 180 237 297 346 418
#     4   9  20  40  69  98 132 184 224 282 348 410
#
# _framework density 24.288516999999999
#
# number of rings (size 3 to 8) (size 9 to 14) (size 15 to 20)
#    0.000    1.333    1.667    4.500    0.000    8.667 
#    0.000    8.333    0.000    0.000    0.000    0.000 
#    0.000    0.000    0.000    0.000    0.000    0.000 
#
# Total GULP energy -134334.134452 kJ/mol
# GULP energy per Si atom -5597.255602 kJ/mol
# Density = 2.423324 g / cm^3
# Si number density = 24.288517 Si / 1000 Ang^3
#
#
#
# Elastic Constant Matrix: (Units=GPa)
#
#
# Indices 1 2 3 4 5 6 
#
# 1 119.9050 10.8661 36.6902 -0.0001 6.9113 0.0000
# 2 10.8661 39.7661 23.1330 0.0000 11.6280 0.0000
# 3 36.6902 23.1330 86.2237 -0.0001 13.7619 -0.0001
# 4 -0.0001 0.0000 -0.0001 39.8499 0.0000 0.1904
# 5 6.9113 11.6280 13.7619 0.0000 40.5738 0.0000
# 6 0.0000 0.0000 -0.0001 0.1904 0.0000 23.0541
#
#
#
# Elastic Compliance Matrix: (Units=1/GPa)
#
#
# Indices 1 2 3 4 5 6 
#
# 1 0.009593 -0.000242 -0.003983 0.000000 -0.000214 0.000000
# 2 -0.000242 0.031336 -0.007271 0.000000 -0.006473 0.000000
# 3 -0.003983 -0.007271 0.015650 0.000000 -0.002546 0.000000
# 4 0.000000 0.000000 0.000000 0.025095 0.000000 -0.000207
# 5 -0.000214 -0.006473 -0.002546 0.000000 0.027401 0.000000
# 6 0.000000 0.000000 0.000000 -0.000207 0.000000 0.043378
#
#
# Mechanical properties :
#
#
# Convention : Reuss Voigt Hill
#
# Bulk Modulus (GPa) = 29.77374 43.03040 36.40207
# Shear Modulus (GPa) = 26.78953 32.37592 29.58272
#
# Velocity S-wave (km/s) = 3.32470 3.65495 3.49373
# Velocity P-wave (km/s) = 5.19838 5.96375 5.59417
#
# Compressibility (1/GPa) = 0.03358665
#
# Stress axis : x y z
#
# Youngs Moduli (GPa) = 104.24320 31.91255 63.89898
#
# Poissons Ratio (x) = 0.00771 0.25451
# Poissons Ratio (y) = 0.02520 0.46461
# Poissons Ratio (z) = 0.41521 0.23204
#
# Static dielectric constant tensor:
#      x y z
#    x 1.975110 0.000000 0.032890 
#    y 0.000000 1.991940 0.000000 
#    z 0.032890 0.000000 1.908430 
# 
# From -- ./inp_files/252518.got.cif
#   From: 2010.05.17/outbox.cif.g08.bks.cpg/sg15_127_cif.got.tgz:252518.got - 2010.06.03 18:47:42.
