data_PCOD9296013
_publ_section_title
;
Structure prediction by ZEFSAII (Michael W. Deem and Ramdas Pophale) SiO2 
 PCOD9296013
Probable space group: C 2/C
;
_chemical_formula_sum "Si O2"
_cell_formula_units_Z 44
_cell_length_a 28.677536
_cell_length_b 14.010154
_cell_length_c 12.472092
_cell_angle_alpha 90.000000
_cell_angle_beta 25.363250
_cell_angle_gamma 90.000000
_cell_volume 2146.488352
_symmetry_space_group_name_H-M "C 2/C"
_symmetry_group_IT_number 15
_symmetry_cell_setting 'monoclinic'
loop_
_space_group_symop_operation_xyz
x,y,z
-x,y,1/2-z
-x,-y,-z
x,-y,1/2+z
1/2+x,1/2+y,z
1/2-x,1/2+y,1/2-z
1/2-x,1/2-y,-z
1/2+x,1/2-y,1/2+z
loop_
_atom_site_type_symbol
_atom_site_label
_atom_site_fract_x
_atom_site_fract_y
_atom_site_fract_z
Si Si1 0.213185 0.027414 0.689146
Si Si2 0.235099 0.729841 0.864913
Si Si3 0.581157 0.613429 0.781998
Si Si4 0.500000 0.498807 0.250000
Si Si5 0.205993 0.309637 0.988741
Si Si6 0.020792 0.240332 0.082274
O O1 0.288202 0.118807 0.561092
O O2 0.166793 0.047660 0.666646
O O3 0.254652 0.919285 0.604734
O O4 0.116662 0.043248 0.977580
O O5 0.253782 0.753373 0.701209
O O6 0.349225 0.758837 0.687719
O O7 0.141460 0.797134 0.103994
O O8 0.519497 0.562163 0.816063
O O9 0.504416 0.651396 0.036658
O O10 0.250000 0.250000 0.000000
O O11 0.073555 0.311710 0.259035
O O12 0.000000 0.220561 0.250000
#
# Coordination Sequence:
#
# PCOD9296013 Si02
#       6
#     8   8   8   4   8   8
#     4  11  24  39  66  95 128 169 213 264 324 384
#     4  10  23  44  65  90 133 172 212 259 328 384
#     4  11  23  43  64  95 133 165 216 268 325 381
#     4  12  24  38  64 100 124 162 214 278 324 378
#     4  11  23  39  63  99 130 166 216 272 314 376
#     4   9  20  38  66  87 124 174 209 250 317 384
#
# _framework density 20.498597
#
# number of rings (size 3 to 8) (size 9 to 14) (size 15 to 20)
#    0.000    1.455    1.818    3.818   12.727    0.000 
#    0.000    3.636    6.000    0.000    0.000    0.000 
#    0.000    0.000    0.000    0.000    0.000    0.000 
#
# Total GULP energy -122660.741787 kJ/mol
# GULP energy per Si atom -5575.488263 kJ/mol
# Density = 2.045194 g / cm^3
# Si number density = 20.498597 Si / 1000 Ang^3
#
#
#
# Elastic Constant Matrix: (Units=GPa)
#
#
# Indices 1 2 3 4 5 6 
#
# 1 106.6925 33.7433 -4.0018 0.0000 13.8837 0.0000
# 2 33.7433 132.7662 21.0324 0.0000 -17.4731 0.0000
# 3 -4.0018 21.0324 32.7636 0.0000 -3.6010 0.0000
# 4 0.0000 0.0000 0.0000 41.4019 0.0000 -2.1130
# 5 13.8837 -17.4731 -3.6010 0.0000 22.3270 0.0000
# 6 0.0000 0.0000 0.0000 -2.1130 0.0000 27.5369
#
#
#
# Elastic Compliance Matrix: (Units=1/GPa)
#
#
# Indices 1 2 3 4 5 6 
#
# 1 0.012684 -0.005317 0.003704 0.000000 -0.011451 0.000000
# 2 -0.005317 0.011422 -0.006756 0.000000 0.011156 0.000000
# 3 0.003704 -0.006756 0.035099 0.000000 -0.001929 0.000000
# 4 0.000000 0.000000 0.000000 0.024248 0.000000 0.001861
# 5 -0.011451 0.011156 -0.001929 0.000000 0.060329 0.000000
# 6 0.000000 0.000000 0.000000 0.001861 0.000000 0.036458
#
#
# Mechanical properties :
#
#
# Convention : Reuss Voigt Hill
#
# Bulk Modulus (GPa) = 23.54807 41.53002 32.53904
# Shear Modulus (GPa) = 23.68183 33.01640 28.34911
#
# Velocity S-wave (km/s) = 3.40264 4.01766 3.72288
# Velocity P-wave (km/s) = 5.19133 6.46731 5.86413
#
# Compressibility (1/GPa) = 0.04246633
#
# Stress axis : x y z
#
# Youngs Moduli (GPa) = 78.84253 87.55124 28.49106
#
# Poissons Ratio (x) = 0.46555 -0.10553
# Poissons Ratio (y) = 0.41924 0.19247
# Poissons Ratio (z) = -0.29204 0.59146
#
# Static dielectric constant tensor:
#      x y z
#    x 1.749240 0.000000 -0.003460 
#    y 0.000000 1.773690 0.000000 
#    z -0.003460 0.000000 1.766170 
# 
# From -- ./inp_files/123274.got.cif
#   From: 2010.05.17/outbox.cif.g08.bks.cpg/sg15_62_cif.got.tgz:123274.got - 2010.06.03 18:47:42.
