data_PCOD9296636
_publ_section_title
;
Structure prediction by ZEFSAII (Michael W. Deem and Ramdas Pophale) SiO2 
 PCOD9296636
Probable space group: C 2/C
;
_chemical_formula_sum "Si O2"
_cell_formula_units_Z 36
_cell_length_a 20.198028
_cell_length_b 8.814497
_cell_length_c 11.995461
_cell_angle_alpha 90.000000
_cell_angle_beta 57.209263
_cell_angle_gamma 90.000000
_cell_volume 1795.315660
_symmetry_space_group_name_H-M "C 2/C"
_symmetry_group_IT_number 15
_symmetry_cell_setting 'monoclinic'
loop_
_space_group_symop_operation_xyz
x,y,z
-x,y,1/2-z
-x,-y,-z
x,-y,1/2+z
1/2+x,1/2+y,z
1/2-x,1/2+y,1/2-z
1/2-x,1/2-y,-z
1/2+x,1/2-y,1/2+z
loop_
_atom_site_type_symbol
_atom_site_label
_atom_site_fract_x
_atom_site_fract_y
_atom_site_fract_z
Si Si1 0.919714 0.594466 0.390193
Si Si2 0.370986 0.422891 0.468655
Si Si3 0.000000 0.149226 0.250000
Si Si4 0.409319 0.777167 0.128799
Si Si5 0.713054 0.895027 0.093586
O O1 0.882325 0.760861 0.397064
O O2 0.935447 0.608806 0.507657
O O3 0.855984 0.469327 0.417056
O O4 0.000000 0.577096 0.250000
O O5 0.429414 0.543473 0.359434
O O6 0.395480 0.379481 0.573078
O O7 0.283069 0.485740 0.546854
O O8 0.031269 0.247084 0.325007
O O9 0.328838 0.839427 0.255216
O O10 0.750000 0.750000 0.000000
#
# Coordination Sequence:
#
# PCOD9296636 Si02
#       5
#     8   8   4   8   8
#     4  10  25  47  68 105 135 180 231 284 341 404
#     4  10  23  45  71 100 137 182 228 280 341 408
#     4  12  20  48  72 104 138 182 236 272 352 406
#     4  10  26  42  70 103 136 187 222 292 334 409
#     4  12  25  44  69 102 143 179 228 282 346 413
#
# _framework density 20.052182999999999
#
# number of rings (size 3 to 8) (size 9 to 14) (size 15 to 20)
#    1.333    0.000    3.333    1.333    4.667    0.889 
#    4.000    0.000    0.000    0.000    0.000    0.000 
#    0.000    0.000    0.000    0.000    0.000    0.000 
#
# Total GULP energy -100472.403012 kJ/mol
# GULP energy per Si atom -5581.800167 kJ/mol
# Density = 2.000654 g / cm^3
# Si number density = 20.052183 Si / 1000 Ang^3
#
#
#
# Elastic Constant Matrix: (Units=GPa)
#
#
# Indices 1 2 3 4 5 6 
#
# 1 121.4666 46.4498 83.3305 0.0000 2.4653 0.0000
# 2 46.4498 80.0598 64.3453 0.0000 -2.4176 0.0000
# 3 83.3305 64.3453 175.0572 0.0000 -5.5257 0.0000
# 4 0.0000 0.0000 0.0000 -150.1108 0.0000 22.2127
# 5 2.4653 -2.4176 -5.5257 0.0000 36.4601 0.0000
# 6 0.0000 0.0000 0.0000 22.2127 0.0000 47.6805
#
#
#
# Elastic Compliance Matrix: (Units=1/GPa)
#
#
# Indices 1 2 3 4 5 6 
#
# 1 0.013052 -0.003673 -0.004922 0.000000 -0.001872 0.000000
# 2 -0.003673 0.018763 -0.005125 0.000000 0.000716 0.000000
# 3 -0.004922 -0.005125 0.009987 0.000000 0.001506 0.000000
# 4 0.000000 0.000000 0.000000 -0.006232 0.000000 0.002903
# 5 -0.001872 0.000716 0.001506 0.000000 0.027830 0.000000
# 6 0.000000 0.000000 0.000000 0.002903 0.000000 0.019620
#
#
# Mechanical properties :
#
#
# Convention : Reuss Voigt Hill
#
# Bulk Modulus (GPa) = 69.63614 84.98166 77.30890
# Shear Modulus (GPa) = 43.38474 -1.03019 21.17728
#
# Velocity S-wave (km/s) = 4.65649 -0.71754 3.25331
# Velocity P-wave (km/s) = 7.98207 6.46419 7.26289
#
# Compressibility (1/GPa) = 0.01436036
#
# Stress axis : x y z
#
# Youngs Moduli (GPa) = 76.61643 53.29661 100.13175
#
# Poissons Ratio (x) = 0.19578 0.49284
# Poissons Ratio (y) = 0.28144 0.51322
# Poissons Ratio (z) = 0.37710 0.27317
#
# Static dielectric constant tensor:
#      x y z
#    x 1.689090 0.000000 0.018460 
#    y 0.000000 1.730800 0.000000 
#    z 0.018460 0.000000 1.679040 
# 
# From -- ./inp_files/109527.got.cif
#   From: 2010.05.17/outbox.cif.g08.bks.cpg/sg15_55_cif.got.tgz:109527.got - 2010.06.03 18:47:42.
