data_PCOD9296421
_publ_section_title
;
Structure prediction by ZEFSAII (Michael W. Deem and Ramdas Pophale) SiO2 
 PCOD9296421
Probable space group: C 2/C
;
_chemical_formula_sum "Si O2"
_cell_formula_units_Z 44
_cell_length_a 24.857240
_cell_length_b 11.507934
_cell_length_c 18.940591
_cell_angle_alpha 90.000000
_cell_angle_beta 161.124730
_cell_angle_gamma 90.000000
_cell_volume 1752.791318
_symmetry_space_group_name_H-M "C 2/C"
_symmetry_group_IT_number 15
_symmetry_cell_setting 'monoclinic'
loop_
_space_group_symop_operation_xyz
x,y,z
-x,y,1/2-z
-x,-y,-z
x,-y,1/2+z
1/2+x,1/2+y,z
1/2-x,1/2+y,1/2-z
1/2-x,1/2-y,-z
1/2+x,1/2-y,1/2+z
loop_
_atom_site_type_symbol
_atom_site_label
_atom_site_fract_x
_atom_site_fract_y
_atom_site_fract_z
Si Si1 0.859975 0.602886 0.156857
Si Si2 0.387672 0.671948 0.765442
Si Si3 0.369950 0.192611 0.383021
Si Si4 0.239648 0.735376 0.860438
Si Si5 0.000000 0.600213 0.750000
Si Si6 0.829909 0.977553 0.948957
O O1 0.952979 0.709272 0.309453
O O2 0.961227 0.486790 0.266668
O O3 0.705738 0.575727 0.017932
O O4 0.783475 0.644242 0.987733
O O5 0.358555 0.705579 0.810163
O O6 0.512318 0.570345 0.897545
O O7 0.238516 0.206160 0.281991
O O8 0.550310 0.205173 0.642099
O O9 0.327603 0.072399 0.291009
O O10 0.333446 0.614055 0.964691
O O11 0.340372 0.819497 0.036990
#
# Coordination Sequence:
#
# PCOD9296421 Si02
#       6
#     8   8   8   8   4   8
#     4  10  25  43  73 102 150 181 239 293 360 421
#     4  10  23  44  74 108 133 188 240 299 351 419
#     4  11  25  48  71 107 143 188 240 299 360 420
#     4  12  28  47  72 103 149 193 240 290 369 433
#     4  12  30  46  68 108 148 192 236 300 358 434
#     4  11  24  45  75 102 143 188 241 298 355 429
#
# _framework density 25.102817999999999
#
# number of rings (size 3 to 8) (size 9 to 14) (size 15 to 20)
#    0.000    1.091    1.818    2.182   12.727    5.091 
#    0.000    0.000    0.000    0.000    0.000    0.000 
#    0.000    0.000    0.000    0.000    0.000    0.000 
#
# Total GULP energy -123178.480442 kJ/mol
# GULP energy per Si atom -5599.021838 kJ/mol
# Density = 2.504568 g / cm^3
# Si number density = 25.102818 Si / 1000 Ang^3
#
#
#
# Elastic Constant Matrix: (Units=GPa)
#
#
# Indices 1 2 3 4 5 6 
#
# 1 52.9095 -8.2576 -8.8608 -0.0001 0.1014 0.0000
# 2 -8.2576 110.9291 5.7052 -0.0002 -2.8123 -0.0001
# 3 -8.8608 5.7052 76.0717 0.0000 1.2059 -0.0001
# 4 -0.0001 -0.0002 0.0000 28.4730 0.0000 9.7100
# 5 0.1014 -2.8123 1.2059 0.0000 31.6345 0.0000
# 6 0.0000 -0.0001 -0.0001 9.7100 0.0000 31.8817
#
#
#
# Elastic Compliance Matrix: (Units=1/GPa)
#
#
# Indices 1 2 3 4 5 6 
#
# 1 0.019472 0.001337 0.002168 0.000000 -0.000026 0.000000
# 2 0.001337 0.009163 -0.000545 0.000000 0.000831 0.000000
# 3 0.002168 -0.000545 0.013448 0.000000 -0.000568 0.000000
# 4 0.000000 0.000000 0.000000 0.039192 0.000000 -0.011936
# 5 -0.000026 0.000831 -0.000568 0.000000 0.031707 0.000000
# 6 0.000000 0.000000 0.000000 -0.011936 0.000000 0.035001
#
#
# Mechanical properties :
#
#
# Convention : Reuss Voigt Hill
#
# Bulk Modulus (GPa) = 20.83106 24.12042 22.47574
# Shear Modulus (GPa) = 31.63297 35.15274 33.39286
#
# Velocity S-wave (km/s) = 3.55369 3.74619 3.65121
# Velocity P-wave (km/s) = 5.01544 5.32366 5.17185
#
# Compressibility (1/GPa) = 0.04800524
#
# Stress axis : x y z
#
# Youngs Moduli (GPa) = 51.35556 109.12982 74.36108
#
# Poissons Ratio (x) = -0.14594 -0.16123
# Poissons Ratio (y) = -0.06868 0.04050
# Poissons Ratio (z) = -0.11135 0.05944
#
# Static dielectric constant tensor:
#      x y z
#    x 2.044050 0.000000 0.024930 
#    y 0.000000 1.961890 0.000000 
#    z 0.024930 0.000000 2.023590 
# 
# From -- ./inp_files/257555.got.cif
#   From: 2010.05.17/outbox.cif.g08.bks.cpg/sg15_129_cif.got.tgz:257555.got - 2010.06.03 18:47:42.
