data_PCOD9296703
_publ_section_title
;
Structure prediction by ZEFSAII (Michael W. Deem and Ramdas Pophale) SiO2 
 PCOD9296703
Probable space group: C 2/C
;
_chemical_formula_sum "Si O2"
_cell_formula_units_Z 32
_cell_length_a 14.904821
_cell_length_b 12.548165
_cell_length_c 21.233570
_cell_angle_alpha 90.000000
_cell_angle_beta 18.537795
_cell_angle_gamma 90.000000
_cell_volume 1262.588164
_symmetry_space_group_name_H-M "C 2/C"
_symmetry_group_IT_number 15
_symmetry_cell_setting 'monoclinic'
loop_
_space_group_symop_operation_xyz
x,y,z
-x,y,1/2-z
-x,-y,-z
x,-y,1/2+z
1/2+x,1/2+y,z
1/2-x,1/2+y,1/2-z
1/2-x,1/2-y,-z
1/2+x,1/2-y,1/2+z
loop_
_atom_site_type_symbol
_atom_site_label
_atom_site_fract_x
_atom_site_fract_y
_atom_site_fract_z
Si Si1 0.223255 0.157027 0.781855
Si Si2 0.353287 0.197028 0.282453
Si Si3 0.494456 0.667495 0.329534
Si Si4 0.773486 0.484315 0.024463
O O1 0.201943 0.200594 0.724989
O O2 0.273616 0.270497 0.786235
O O3 0.472678 0.067543 0.621244
O O4 0.926196 0.129719 0.011952
O O5 0.500000 0.225896 0.250000
O O6 0.565144 0.118824 0.105019
O O7 0.500000 0.660103 0.250000
O O8 0.250000 0.750000 0.500000
O O9 0.387020 0.552883 0.423534
O O10 0.500000 0.459540 0.250000
#
# Coordination Sequence:
#
# PCOD9296703 Si02
#       4
#     8   8   8   8
#     4  11  24  47  74 103 143 192 237 289 356 425
#     4  12  27  45  70 106 146 189 236 291 352 421
#     4   9  18  37  67 100 132 172 227 288 343 404
#     4  10  23  45  73 105 138 181 238 298 353 418
#
# _framework density 25.344764999999999
#
# number of rings (size 3 to 8) (size 9 to 14) (size 15 to 20)
#    0.000    1.500    0.000    6.000    0.000   11.000 
#    0.000   10.000    0.000    0.000    0.000    0.000 
#    0.000    0.000    0.000    0.000    0.000    0.000 
#
# Total GULP energy -89121.432346 kJ/mol
# GULP energy per Si atom -5570.089522 kJ/mol
# Density = 2.528708 g / cm^3
# Si number density = 25.344765 Si / 1000 Ang^3
#
#
#
# Elastic Constant Matrix: (Units=GPa)
#
#
# Indices 1 2 3 4 5 6 
#
# 1 130.7871 47.3093 33.6925 0.0426 -0.1922 0.0340
# 2 47.3093 135.4839 60.8864 0.0641 7.8471 0.0086
# 3 33.6925 60.8864 243.3014 -0.0953 12.6817 0.1265
# 4 0.0426 0.0641 -0.0953 42.5357 -0.0371 -6.0997
# 5 -0.1922 7.8471 12.6817 -0.0371 17.5039 -0.0742
# 6 0.0340 0.0086 0.1265 -6.0997 -0.0742 32.9660
#
#
#
# Elastic Compliance Matrix: (Units=1/GPa)
#
#
# Indices 1 2 3 4 5 6 
#
# 1 0.008863 -0.002937 -0.000588 -0.000005 0.001840 -0.000003
# 2 -0.002937 0.009380 -0.001787 -0.000018 -0.002943 -0.000003
# 3 -0.000588 -0.001787 0.004778 0.000009 -0.002667 -0.000022
# 4 -0.000005 -0.000018 0.000009 0.024151 0.000072 0.004469
# 5 0.001840 -0.002943 -0.002667 0.000072 0.060402 0.000158
# 6 -0.000003 -0.000003 -0.000022 0.004469 0.000158 0.031162
#
#
# Mechanical properties :
#
#
# Convention : Reuss Voigt Hill
#
# Bulk Modulus (GPa) = 80.67331 88.14986 84.41159
# Shear Modulus (GPa) = 32.57495 43.11340 37.84418
#
# Velocity S-wave (km/s) = 3.58896 4.12889 3.86835
# Velocity P-wave (km/s) = 7.00526 7.58855 7.30273
#
# Compressibility (1/GPa) = 0.01239567
#
# Stress axis : x y z
#
# Youngs Moduli (GPa) = 112.83326 106.60808 209.29762
#
# Poissons Ratio (x) = 0.31310 0.12312
# Poissons Ratio (y) = 0.33139 0.37408
# Poissons Ratio (z) = 0.06637 0.19054
#
# Static dielectric constant tensor:
#      x y z
#    x 2.446330 -0.001810 -0.124800 
#    y -0.001810 2.451710 0.000520 
#    z -0.124800 0.000520 2.090750 
# 
# From -- ./inp_files/244663.got.cif
#   From: 2010.05.17/outbox.cif.g08.bks.cpg/sg15_123_cif.got.tgz:244663.got - 2010.06.03 18:47:42.
