data_PCOD9296638
_publ_section_title
;
Structure prediction by ZEFSAII (Michael W. Deem and Ramdas Pophale) SiO2 
 PCOD9296638
Probable space group: C 2/C
;
_chemical_formula_sum "Si O2"
_cell_formula_units_Z 40
_cell_length_a 13.515669
_cell_length_b 9.324497
_cell_length_c 16.373697
_cell_angle_alpha 90.000000
_cell_angle_beta 49.971584
_cell_angle_gamma 90.000000
_cell_volume 1580.093740
_symmetry_space_group_name_H-M "C 2/C"
_symmetry_group_IT_number 15
_symmetry_cell_setting 'monoclinic'
loop_
_space_group_symop_operation_xyz
x,y,z
-x,y,1/2-z
-x,-y,-z
x,-y,1/2+z
1/2+x,1/2+y,z
1/2-x,1/2+y,1/2-z
1/2-x,1/2-y,-z
1/2+x,1/2-y,1/2+z
loop_
_atom_site_type_symbol
_atom_site_label
_atom_site_fract_x
_atom_site_fract_y
_atom_site_fract_z
Si Si1 0.503394 0.552750 0.090757
Si Si2 0.641619 0.054031 0.949240
Si Si3 0.227143 0.252467 0.252485
Si Si4 0.643263 0.685332 0.139471
Si Si5 0.516646 0.242133 0.146067
O O1 0.360459 0.612141 0.184783
O O2 0.603282 0.680228 0.064787
O O3 0.541981 0.411106 0.120698
O O4 0.500000 0.500000 0.000000
O O5 0.692362 0.145901 0.845991
O O6 0.744448 0.930241 0.910559
O O7 0.620304 0.149775 0.041567
O O8 0.500000 0.000000 0.000000
O O9 0.184860 0.305439 0.184088
O O10 0.377524 0.220309 0.177452
O O11 0.500000 0.646505 0.250000
O O12 0.500000 0.206864 0.250000
#
# Coordination Sequence:
#
# PCOD9296638 Si02
#       5
#     8   8   8   8   8
#     4  11  23  44  69 100 130 188 233 282 351 417
#     4  12  25  46  71 108 144 179 238 294 350 416
#     4  11  22  44  70  96 141 182 226 291 350 409
#     4  10  23  45  71 102 141 180 231 286 351 426
#     4  12  26  43  71 103 139 187 235 295 345 417
#
# _framework density 25.314954
#
# number of rings (size 3 to 8) (size 9 to 14) (size 15 to 20)
#    0.000    0.800    4.000    5.400    2.800    1.600 
#    0.000   14.000    0.000    0.000    0.000    0.000 
#    0.000    0.000    0.000    0.000    0.000    0.000 
#
# Total GULP energy -111803.492046 kJ/mol
# GULP energy per Si atom -5590.174602 kJ/mol
# Density = 2.525734 g / cm^3
# Si number density = 25.314954 Si / 1000 Ang^3
#
#
#
# Elastic Constant Matrix: (Units=GPa)
#
#
# Indices 1 2 3 4 5 6 
#
# 1 153.4912 8.0117 37.0204 0.0000 6.6053 0.0000
# 2 8.0117 52.9246 35.0933 0.0000 -0.9121 0.0000
# 3 37.0204 35.0933 125.6596 0.0000 22.9533 0.0000
# 4 0.0000 0.0000 0.0000 48.5373 0.0000 -6.2260
# 5 6.6053 -0.9121 22.9533 0.0000 59.7406 0.0000
# 6 0.0000 0.0000 0.0000 -6.2260 0.0000 25.6695
#
#
#
# Elastic Compliance Matrix: (Units=1/GPa)
#
#
# Indices 1 2 3 4 5 6 
#
# 1 0.007020 0.000391 -0.002190 0.000000 0.000071 0.000000
# 2 0.000391 0.023742 -0.007317 0.000000 0.003131 0.000000
# 3 -0.002190 -0.007317 0.011425 0.000000 -0.004259 0.000000
# 4 0.000000 0.000000 0.000000 0.021264 0.000000 0.005158
# 5 0.000071 0.003131 -0.004259 0.000000 0.018415 0.000000
# 6 0.000000 0.000000 0.000000 0.005158 0.000000 0.040208
#
#
# Mechanical properties :
#
#
# Convention : Reuss Voigt Hill
#
# Bulk Modulus (GPa) = 41.74900 54.70289 48.22594
# Shear Modulus (GPa) = 33.71741 43.58616 38.65179
#
# Velocity S-wave (km/s) = 3.65350 4.15391 3.91171
# Velocity P-wave (km/s) = 5.85876 6.68299 6.28440
#
# Compressibility (1/GPa) = 0.02395267
#
# Stress axis : x y z
#
# Youngs Moduli (GPa) = 142.45352 42.12019 87.52868
#
# Poissons Ratio (x) = -0.01647 0.19172
# Poissons Ratio (y) = -0.05569 0.64048
# Poissons Ratio (z) = 0.31202 0.30821
#
# Static dielectric constant tensor:
#      x y z
#    x 2.057630 0.000000 0.119620 
#    y 0.000000 2.053640 0.000000 
#    z 0.119620 0.000000 2.105280 
# 
# From -- ./inp_files/195898.got.cif
#   From: 2010.05.17/outbox.cif.g08.bks.cpg/sg15_98_cif.got.tgz:195898.got - 2010.06.03 18:47:42.
