data_PCOD9296035
_publ_section_title
;
Structure prediction by ZEFSAII (Michael W. Deem and Ramdas Pophale) SiO2 
 PCOD9296035
Probable space group: C 2/C
;
_chemical_formula_sum "Si O2"
_cell_formula_units_Z 56
_cell_length_a 15.674716
_cell_length_b 13.847262
_cell_length_c 12.771322
_cell_angle_alpha 90.000000
_cell_angle_beta 121.288950
_cell_angle_gamma 90.000000
_cell_volume 2368.871493
_symmetry_space_group_name_H-M "C 2/C"
_symmetry_group_IT_number 15
_symmetry_cell_setting 'monoclinic'
loop_
_space_group_symop_operation_xyz
x,y,z
-x,y,1/2-z
-x,-y,-z
x,-y,1/2+z
1/2+x,1/2+y,z
1/2-x,1/2+y,1/2-z
1/2-x,1/2-y,-z
1/2+x,1/2-y,1/2+z
loop_
_atom_site_type_symbol
_atom_site_label
_atom_site_fract_x
_atom_site_fract_y
_atom_site_fract_z
Si Si1 0.639726 0.531600 0.781985
Si Si2 0.680098 0.993736 0.763377
Si Si3 0.236153 0.687520 0.885830
Si Si4 0.991658 0.379612 0.619845
Si Si5 0.955500 0.169982 0.934257
Si Si6 0.922279 0.175616 0.282867
Si Si7 0.229990 0.363031 0.979107
O O1 0.736999 0.518693 0.769434
O O2 0.556232 0.592199 0.665901
O O3 0.607834 0.424342 0.789808
O O4 0.676940 0.586880 0.906978
O O5 0.680441 0.083706 0.845813
O O6 0.571742 0.964560 0.648293
O O7 0.717134 0.901460 0.853362
O O8 0.346779 0.670180 0.916670
O O9 0.171581 0.754435 0.767591
O O10 0.250000 0.750000 0.000000
O O11 0.023511 0.278450 0.590254
O O12 0.000000 0.367459 0.750000
O O13 0.873336 0.391820 0.527713
O O14 0.032967 0.149502 0.076164
O O15 0.000000 0.223209 0.250000
O O16 0.250000 0.250000 0.000000
#
# Coordination Sequence:
#
# PCOD9296035 Si02
#       7
#     8   8   8   8   8   8   8
#     4  11  25  43  69 101 136 179 229 286 342 414
#     4  10  24  44  69  99 138 178 231 286 343 411
#     4  11  23  46  69 100 141 178 224 283 345 416
#     4  10  23  44  66 102 134 180 237 283 351 410
#     4  11  25  44  70 101 136 178 232 284 345 416
#     4  12  26  43  68 101 135 182 224 279 351 410
#     4  11  25  44  73  99 138 184 230 290 354 407
#
# _framework density 23.639946999999999
#
# number of rings (size 3 to 8) (size 9 to 14) (size 15 to 20)
#    0.000    1.143    1.429    3.857    8.000    4.000 
#    2.571    0.000    0.000    0.000    0.000    0.000 
#    0.000    0.000    0.000    0.000    0.000    0.000 
#
# Total GULP energy -156671.540699 kJ/mol
# GULP energy per Si atom -5595.412168 kJ/mol
# Density = 2.358614 g / cm^3
# Si number density = 23.639947 Si / 1000 Ang^3
#
#
#
# Elastic Constant Matrix: (Units=GPa)
#
#
# Indices 1 2 3 4 5 6 
#
# 1 50.4579 11.6368 17.2735 0.0000 14.1196 0.0000
# 2 11.6368 87.6784 20.7830 0.0000 26.7363 0.0000
# 3 17.2735 20.7830 102.4857 0.0000 32.7554 0.0000
# 4 0.0000 0.0000 0.0000 35.2039 0.0000 -4.6135
# 5 14.1196 26.7363 32.7554 0.0000 27.6540 0.0000
# 6 0.0000 0.0000 0.0000 -4.6135 0.0000 30.2638
#
#
#
# Elastic Compliance Matrix: (Units=1/GPa)
#
#
# Indices 1 2 3 4 5 6 
#
# 1 0.023158 0.000742 -0.000073 0.000000 -0.012454 0.000000
# 2 0.000742 0.016699 0.002848 0.000000 -0.019897 0.000000
# 3 -0.000073 0.002848 0.016189 0.000000 -0.021891 0.000000
# 4 0.000000 0.000000 0.000000 0.028985 0.000000 0.004419
# 5 -0.012454 -0.019897 -0.021891 0.000000 0.087686 0.000000
# 6 0.000000 0.000000 0.000000 0.004419 0.000000 0.033716
#
#
# Mechanical properties :
#
#
# Convention : Reuss Voigt Hill
#
# Bulk Modulus (GPa) = 15.85326 37.77871 26.81598
# Shear Modulus (GPa) = 22.68328 31.35292 27.01810
#
# Velocity S-wave (km/s) = 3.10099 3.64575 3.38435
# Velocity P-wave (km/s) = 4.42066 5.80840 5.16138
#
# Compressibility (1/GPa) = 0.06307851
#
# Stress axis : x y z
#
# Youngs Moduli (GPa) = 43.18247 59.88353 61.77047
#
# Poissons Ratio (x) = -0.04441 0.00450
# Poissons Ratio (y) = -0.03202 -0.17591
# Poissons Ratio (z) = 0.00315 -0.17054
#
# Static dielectric constant tensor:
#      x y z
#    x 1.951660 0.000000 0.028810 
#    y 0.000000 1.879250 0.000000 
#    z 0.028810 0.000000 1.882970 
# 
# From -- ./inp_files/162311.got.cif
#   From: 2010.05.17/outbox.cif.g08.bks.cpg/sg15_82_cif.got.tgz:162311.got - 2010.06.03 18:47:42.
