data_PCOD9296213
_publ_section_title
;
Structure prediction by ZEFSAII (Michael W. Deem and Ramdas Pophale) SiO2 
 PCOD9296213
Probable space group: C 2/C
;
_chemical_formula_sum "Si O2"
_cell_formula_units_Z 40
_cell_length_a 16.874525
_cell_length_b 9.444743
_cell_length_c 11.446046
_cell_angle_alpha 90.000000
_cell_angle_beta 103.543513
_cell_angle_gamma 90.000000
_cell_volume 1773.492631
_symmetry_space_group_name_H-M "C 2/C"
_symmetry_group_IT_number 15
_symmetry_cell_setting 'monoclinic'
loop_
_space_group_symop_operation_xyz
x,y,z
-x,y,1/2-z
-x,-y,-z
x,-y,1/2+z
1/2+x,1/2+y,z
1/2-x,1/2+y,1/2-z
1/2-x,1/2-y,-z
1/2+x,1/2-y,1/2+z
loop_
_atom_site_type_symbol
_atom_site_label
_atom_site_fract_x
_atom_site_fract_y
_atom_site_fract_z
Si Si1 0.656987 0.290180 0.866642
Si Si2 0.451749 0.974291 0.106439
Si Si3 0.412004 0.562551 0.765080
Si Si4 0.286281 0.576921 0.887979
Si Si5 0.310168 0.811062 0.615790
O O1 0.597631 0.175115 0.908171
O O2 0.604287 0.401478 0.777088
O O3 0.723613 0.196507 0.821231
O O4 0.709268 0.387422 0.973568
O O5 0.500000 0.979356 0.250000
O O6 0.384752 0.098005 0.089740
O O7 0.500000 0.000000 0.000000
O O8 0.500000 0.603435 0.750000
O O9 0.381581 0.573439 0.887212
O O10 0.349606 0.676319 0.690674
O O11 0.243523 0.431000 0.838048
O O12 0.250000 0.750000 0.500000
#
# Coordination Sequence:
#
# PCOD9296213 Si02
#       5
#     8   8   8   8   8
#     4  10  23  45  69 101 138 192 238 288 361 436
#     4  11  27  48  75 107 148 191 241 303 371 435
#     4  12  25  40  69 106 138 177 238 306 364 418
#     4  10  23  44  69  95 139 187 237 288 353 445
#     4  11  24  44  67 104 134 190 237 290 360 434
#
# _framework density 22.554365000000001
#
# number of rings (size 3 to 8) (size 9 to 14) (size 15 to 20)
#    0.000    1.200    2.000    2.400    5.600    7.200 
#    0.000    0.000    0.000    0.000    0.000    0.000 
#    0.000    0.000    0.000    0.000    0.000    0.000 
#
# Total GULP energy -111459.518566 kJ/mol
# GULP energy per Si atom -5572.975928 kJ/mol
# Density = 2.250303 g / cm^3
# Si number density = 22.554365 Si / 1000 Ang^3
#
#
#
# Elastic Constant Matrix: (Units=GPa)
#
#
# Indices 1 2 3 4 5 6 
#
# 1 155.5097 28.4493 38.7862 0.0000 -22.0460 0.0000
# 2 28.4493 136.6869 31.3066 0.0000 -8.7224 0.0000
# 3 38.7862 31.3066 50.1611 0.0000 -1.6948 0.0000
# 4 0.0000 0.0000 0.0000 27.1352 0.0000 13.1997
# 5 -22.0460 -8.7224 -1.6948 0.0000 37.0417 0.0000
# 6 0.0000 0.0000 0.0000 13.1997 0.0000 43.4518
#
#
#
# Elastic Compliance Matrix: (Units=1/GPa)
#
#
# Indices 1 2 3 4 5 6 
#
# 1 0.008780 0.000004 -0.006625 0.000000 0.004924 0.000000
# 2 0.000004 0.008654 -0.005343 0.000000 0.001796 0.000000
# 3 -0.006625 -0.005343 0.028262 0.000000 -0.003908 0.000000
# 4 0.000000 0.000000 0.000000 0.043242 0.000000 -0.013136
# 5 0.004924 0.001796 -0.003908 0.000000 0.030171 0.000000
# 6 0.000000 0.000000 0.000000 -0.013136 0.000000 0.027004
#
#
# Mechanical properties :
#
#
# Convention : Reuss Voigt Hill
#
# Bulk Modulus (GPa) = 45.94295 59.93796 52.94046
# Shear Modulus (GPa) = 28.20115 37.78013 32.99064
#
# Velocity S-wave (km/s) = 3.53988 4.09720 3.82870
# Velocity P-wave (km/s) = 6.09277 7.00109 6.56266
#
# Compressibility (1/GPa) = 0.02176612
#
# Stress axis : x y z
#
# Youngs Moduli (GPa) = 113.89345 115.55940 35.38368
#
# Poissons Ratio (x) = -0.00048 0.23443
# Poissons Ratio (y) = -0.00048 0.18907
# Poissons Ratio (z) = 0.75458 0.61748
#
# Static dielectric constant tensor:
#      x y z
#    x 1.916210 0.000000 -0.085830 
#    y 0.000000 1.969740 0.000000 
#    z -0.085830 0.000000 1.894880 
# 
# From -- ./inp_files/102803.got.cif
#   From: 2010.05.17/outbox.cif.g08.bks.cpg/sg15_52_cif.got.tgz:102803.got - 2010.06.03 18:47:42.
