data_PCOD9296900
_publ_section_title
;
Structure prediction by ZEFSAII (Michael W. Deem and Ramdas Pophale) SiO2 
 PCOD9296900
Probable space group: C 2/C
;
_chemical_formula_sum "Si O2"
_cell_formula_units_Z 56
_cell_length_a 23.675171
_cell_length_b 5.220133
_cell_length_c 18.641218
_cell_angle_alpha 90.000000
_cell_angle_beta 105.644394
_cell_angle_gamma 90.000000
_cell_volume 2218.474700
_symmetry_space_group_name_H-M "C 2/C"
_symmetry_group_IT_number 15
_symmetry_cell_setting 'monoclinic'
loop_
_space_group_symop_operation_xyz
x,y,z
-x,y,1/2-z
-x,-y,-z
x,-y,1/2+z
1/2+x,1/2+y,z
1/2-x,1/2+y,1/2-z
1/2-x,1/2-y,-z
1/2+x,1/2-y,1/2+z
loop_
_atom_site_type_symbol
_atom_site_label
_atom_site_fract_x
_atom_site_fract_y
_atom_site_fract_z
Si Si1 0.500000 0.500000 0.500000
Si Si2 0.397977 0.297666 0.168664
Si Si3 0.068078 0.537459 0.683790
Si Si4 0.602214 0.297774 0.076837
Si Si5 0.215769 0.082425 0.152512
Si Si6 0.055354 0.472306 0.936032
Si Si7 0.787937 0.915561 0.677379
Si Si8 0.000000 0.080192 0.250000
O O1 0.452070 0.465762 0.414997
O O2 0.460713 0.744939 0.516077
O O3 0.405975 0.157820 0.247668
O O4 0.393190 0.103786 0.100479
O O5 0.344746 0.492735 0.154450
O O6 0.462046 0.421878 0.180293
O O7 0.107672 0.453497 0.628801
O O8 0.054232 0.774374 0.731132
O O9 0.002368 0.523508 0.629550
O O10 0.659903 0.464747 0.093093
O O11 0.571259 0.220151 0.990218
O O12 0.201132 0.070284 0.232781
O O13 0.266800 0.872518 0.156419
O O14 0.238715 0.366895 0.144292
#
# Coordination Sequence:
#
# PCOD9296900 Si02
#       8
#     4   8   8   8   8   8   8   4
#     4  10  24  40  64  94 134 180 216 268 348 430
#     4  12  24  41  64 102 138 177 235 289 353 413
#     4  11  22  41  62 101 135 176 231 281 349 415
#     4  11  25  42  69  97 139 181 228 286 347 431
#     4  10  23  46  71  98 134 181 243 297 352 409
#     4  11  24  41  59 102 141 179 221 274 354 432
#     4  10  24  44  70 102 130 181 243 300 348 411
#     4  12  24  36  70  96 144 180 224 298 354 416
#
# _framework density 25.242571000000002
#
# number of rings (size 3 to 8) (size 9 to 14) (size 15 to 20)
#    0.000    1.143    4.286    1.714    8.000    1.143 
#    0.000    1.429    0.000    0.000    0.000    0.000 
#    0.000    0.000    0.000    0.000    0.000    0.000 
#
# Total GULP energy -156013.009823 kJ/mol
# GULP energy per Si atom -5571.893208 kJ/mol
# Density = 2.518512 g / cm^3
# Si number density = 25.242571 Si / 1000 Ang^3
#
#
#
# Elastic Constant Matrix: (Units=GPa)
#
#
# Indices 1 2 3 4 5 6 
#
# 1 79.3289 -5.3679 8.8768 0.0000 7.3368 0.0000
# 2 -5.3679 75.9348 9.0378 0.0000 -2.7598 0.0000
# 3 8.8768 9.0378 66.6661 0.0000 4.1835 0.0000
# 4 0.0000 0.0000 0.0000 31.5358 0.0000 3.6539
# 5 7.3368 -2.7598 4.1835 0.0000 29.9091 0.0000
# 6 0.0000 0.0000 0.0000 3.6539 0.0000 24.3026
#
#
#
# Elastic Compliance Matrix: (Units=1/GPa)
#
#
# Indices 1 2 3 4 5 6 
#
# 1 0.013133 0.001027 -0.001707 0.000000 -0.002888 0.000000
# 2 0.001027 0.013533 -0.002052 0.000000 0.001284 0.000000
# 3 -0.001707 -0.002052 0.015628 0.000000 -0.001957 0.000000
# 4 0.000000 0.000000 0.000000 0.032272 0.000000 -0.004852
# 5 -0.002888 0.001284 -0.001957 0.000000 0.034535 0.000000
# 6 0.000000 0.000000 0.000000 -0.004852 0.000000 0.041877
#
#
# Mechanical properties :
#
#
# Convention : Reuss Voigt Hill
#
# Bulk Modulus (GPa) = 27.15153 27.44704 27.29928
# Shear Modulus (GPa) = 29.63493 31.10837 30.37165
#
# Velocity S-wave (km/s) = 3.43009 3.51433 3.47247
# Velocity P-wave (km/s) = 5.14461 5.23109 5.18803
#
# Compressibility (1/GPa) = 0.03683034
#
# Stress axis : x y z
#
# Youngs Moduli (GPa) = 76.14233 73.89547 63.98636
#
# Poissons Ratio (x) = -0.07586 0.10920
# Poissons Ratio (y) = -0.07817 0.13129
# Poissons Ratio (z) = 0.12995 0.15162
#
# Static dielectric constant tensor:
#      x y z
#    x 1.753790 0.000000 0.006980 
#    y 0.000000 1.921470 0.000000 
#    z 0.006980 0.000000 2.027220 
# 
# From -- ./inp_files/221322.got.cif
#   From: 2010.05.17/outbox.cif.g08.bks.cpg/sg15_111_cif.got.tgz:221322.got - 2010.06.03 18:47:42.
