data_PCOD9296615
_publ_section_title
;
Structure prediction by ZEFSAII (Michael W. Deem and Ramdas Pophale) SiO2 
 PCOD9296615
Probable space group: C 2/C
;
_chemical_formula_sum "Si O2"
_cell_formula_units_Z 56
_cell_length_a 14.443352
_cell_length_b 15.135629
_cell_length_c 21.202935
_cell_angle_alpha 90.000000
_cell_angle_beta 33.382368
_cell_angle_gamma 90.000000
_cell_volume 2550.373717
_symmetry_space_group_name_H-M "C 2/C"
_symmetry_group_IT_number 15
_symmetry_cell_setting 'monoclinic'
loop_
_space_group_symop_operation_xyz
x,y,z
-x,y,1/2-z
-x,-y,-z
x,-y,1/2+z
1/2+x,1/2+y,z
1/2-x,1/2+y,1/2-z
1/2-x,1/2-y,-z
1/2+x,1/2-y,1/2+z
loop_
_atom_site_type_symbol
_atom_site_label
_atom_site_fract_x
_atom_site_fract_y
_atom_site_fract_z
Si Si1 0.140621 0.931730 0.446871
Si Si2 0.956542 0.615147 0.448867
Si Si3 0.649332 0.921582 0.627083
Si Si4 0.360038 0.594596 0.782656
Si Si5 0.188771 0.103419 0.189136
Si Si6 0.992773 0.178883 0.584162
Si Si7 0.638195 0.335109 0.580494
O O1 0.112638 0.846911 0.418360
O O2 0.126142 0.897709 0.526435
O O3 0.308002 0.991195 0.355741
O O4 0.000000 0.000000 0.500000
O O5 0.908636 0.564941 0.411934
O O6 0.817863 0.599914 0.581473
O O7 0.139889 0.594557 0.370749
O O8 0.965433 0.719355 0.430303
O O9 0.500000 0.873600 0.750000
O O10 0.825696 0.869488 0.522029
O O11 0.500000 0.632437 0.750000
O O12 0.399113 0.491211 0.750984
O O13 0.381768 0.643106 0.704719
O O14 0.215769 0.121631 0.099753
O O15 0.058828 0.177342 0.288438
O O16 0.750000 0.250000 0.500000
#
# Coordination Sequence:
#
# PCOD9296615 Si02
#       7
#     8   8   8   8   8   8   8
#     4  10  23  45  70 100 142 195 235 288 367 436
#     4  12  27  43  73 110 142 188 248 307 366 432
#     4  11  25  42  69 102 144 185 240 290 364 446
#     4  12  24  47  75  96 146 196 246 289 363 449
#     4  11  25  46  72 108 141 196 247 302 368 442
#     4  11  26  44  71 105 143 188 237 307 372 418
#     4  11  23  45  75 100 148 187 240 300 371 434
#
# _framework density 21.957566
#
# number of rings (size 3 to 8) (size 9 to 14) (size 15 to 20)
#    0.000    0.857    2.857    4.286    8.000    1.143 
#    5.143    0.000    0.000    0.000    0.000    0.000 
#    0.000    0.000    0.000    0.000    0.000    0.000 
#
# Total GULP energy -156375.812502 kJ/mol
# GULP energy per Si atom -5584.850447 kJ/mol
# Density = 2.190759 g / cm^3
# Si number density = 21.957566 Si / 1000 Ang^3
#
#
#
# Elastic Constant Matrix: (Units=GPa)
#
#
# Indices 1 2 3 4 5 6 
#
# 1 146.7452 22.4814 40.0671 -0.0004 -9.9375 0.0000
# 2 22.4814 58.0398 27.8160 -0.0009 5.7429 0.0001
# 3 40.0671 27.8160 106.6421 -0.0021 4.9877 0.0005
# 4 -0.0004 -0.0009 -0.0021 33.6012 0.0005 -0.6653
# 5 -9.9375 5.7429 4.9877 0.0005 41.0416 -0.0002
# 6 0.0000 0.0001 0.0005 -0.6653 -0.0002 19.1110
#
#
#
# Elastic Compliance Matrix: (Units=1/GPa)
#
#
# Indices 1 2 3 4 5 6 
#
# 1 0.008016 -0.002122 -0.002578 0.000000 0.002551 0.000000
# 2 -0.002122 0.020442 -0.004402 0.000000 -0.002839 0.000000
# 3 -0.002578 -0.004402 0.011560 0.000001 -0.001413 0.000000
# 4 0.000000 0.000000 0.000001 0.029781 -0.000001 0.001037
# 5 0.002551 -0.002839 -0.001413 -0.000001 0.025552 0.000000
# 6 0.000000 0.000000 0.000000 0.001037 0.000000 0.052362
#
#
# Mechanical properties :
#
#
# Convention : Reuss Voigt Hill
#
# Bulk Modulus (GPa) = 45.84020 54.68402 50.26211
# Shear Modulus (GPa) = 28.87023 33.48826 31.17925
#
# Velocity S-wave (km/s) = 3.62998 3.90953 3.77235
# Velocity P-wave (km/s) = 6.20411 6.73333 6.47413
#
# Compressibility (1/GPa) = 0.02181491
#
# Stress axis : x y z
#
# Youngs Moduli (GPa) = 124.74755 48.91852 86.50619
#
# Poissons Ratio (x) = 0.10381 0.22298
# Poissons Ratio (y) = 0.26473 0.38079
# Poissons Ratio (z) = 0.32155 0.21534
#
# Static dielectric constant tensor:
#      x y z
#    x 2.372910 0.000000 0.008010 
#    y 0.000000 1.858050 0.000000 
#    z 0.008010 0.000000 1.812470 
# 
# From -- ./inp_files/245128.got.cif
#   From: 2010.05.17/outbox.cif.g08.bks.cpg/sg15_123_cif.got.tgz:245128.got - 2010.06.03 18:47:42.
