data_PCOD9296419
_publ_section_title
;
Structure prediction by ZEFSAII (Michael W. Deem and Ramdas Pophale) SiO2 
 PCOD9296419
Probable space group: C 2/C
;
_chemical_formula_sum "Si O2"
_cell_formula_units_Z 24
_cell_length_a 11.180547
_cell_length_b 18.136872
_cell_length_c 5.334034
_cell_angle_alpha 90.000000
_cell_angle_beta 64.793243
_cell_angle_gamma 90.000000
_cell_volume 978.639388
_symmetry_space_group_name_H-M "C 2/C"
_symmetry_group_IT_number 15
_symmetry_cell_setting 'monoclinic'
loop_
_space_group_symop_operation_xyz
x,y,z
-x,y,1/2-z
-x,-y,-z
x,-y,1/2+z
1/2+x,1/2+y,z
1/2-x,1/2+y,1/2-z
1/2-x,1/2-y,-z
1/2+x,1/2-y,1/2+z
loop_
_atom_site_type_symbol
_atom_site_label
_atom_site_fract_x
_atom_site_fract_y
_atom_site_fract_z
Si Si1 0.277587 0.336004 0.991861
Si Si2 0.908390 0.430920 0.638219
Si Si3 0.361485 0.409576 0.430124
O O1 0.328367 0.360557 0.217204
O O2 0.250000 0.250000 0.000000
O O3 0.144252 0.381166 0.040118
O O4 0.370516 0.361044 0.675594
O O5 0.000000 0.385049 0.750000
O O6 0.000000 0.500000 0.500000
O O7 0.770793 0.455959 0.896092
O O8 0.500000 0.448959 0.250000
#
# Coordination Sequence:
#
# PCOD9296419 Si02
#       3
#     8   8   8
#     4  10  23  44  74 107 150 198 259 318 388 465
#     4  10  26  43  73 107 156 198 259 316 390 456
#     4  10  23  45  70 104 150 194 253 317 389 456
#
# _framework density 24.523845000000001
#
# number of rings (size 3 to 8) (size 9 to 14) (size 15 to 20)
#    2.000    0.000    0.000    2.000    4.667    1.333 
#    6.000    1.667    0.000    0.000    0.000    0.000 
#    0.000    0.000    0.000    0.000    0.000    0.000 
#
# Total GULP energy -67010.116165 kJ/mol
# GULP energy per Si atom -5584.176347 kJ/mol
# Density = 2.446803 g / cm^3
# Si number density = 24.523845 Si / 1000 Ang^3
#
#
#
# Elastic Constant Matrix: (Units=GPa)
#
#
# Indices 1 2 3 4 5 6 
#
# 1 112.2615 37.3880 70.3701 0.0000 -34.8713 0.0000
# 2 37.3880 122.5407 50.9394 0.0000 -8.8073 0.0000
# 3 70.3701 50.9394 180.7973 0.0000 -1.0631 0.0000
# 4 0.0000 0.0000 0.0000 24.4576 0.0000 0.6895
# 5 -34.8713 -8.8073 -1.0631 0.0000 80.7892 0.0000
# 6 0.0000 0.0000 0.0000 0.6895 0.0000 21.5314
#
#
#
# Elastic Compliance Matrix: (Units=1/GPa)
#
#
# Indices 1 2 3 4 5 6 
#
# 1 0.014627 -0.001899 -0.005123 0.000000 0.006039 0.000000
# 2 -0.001899 0.009567 -0.001955 0.000000 0.000197 0.000000
# 3 -0.005123 -0.001955 0.008062 0.000000 -0.002318 0.000000
# 4 0.000000 0.000000 0.000000 0.040924 0.000000 -0.001311
# 5 0.006039 0.000197 -0.002318 0.000000 0.014976 0.000000
# 6 0.000000 0.000000 0.000000 -0.001311 0.000000 0.046486
#
#
# Mechanical properties :
#
#
# Convention : Reuss Voigt Hill
#
# Bulk Modulus (GPa) = 69.91888 81.44384 75.68136
# Shear Modulus (GPa) = 31.77360 42.48243 37.12801
#
# Velocity S-wave (km/s) = 3.60338 4.16659 3.89518
# Velocity P-wave (km/s) = 6.77384 7.51196 7.15243
#
# Compressibility (1/GPa) = 0.01430229
#
# Stress axis : x y z
#
# Youngs Moduli (GPa) = 68.36511 104.52647 124.03750
#
# Poissons Ratio (x) = 0.19854 0.63540
# Poissons Ratio (y) = 0.12985 0.24250
# Poissons Ratio (z) = 0.35021 0.20435
#
# Static dielectric constant tensor:
#      x y z
#    x 2.050620 0.000000 0.061300 
#    y 0.000000 1.867530 0.000000 
#    z 0.061300 0.000000 2.195850 
# 
# From -- ./inp_files/3413.got.cif
#   From: 2010.05.17/outbox.cif.g08.bks.cpg/sg15_2_cif.got.tgz:3413.got - 2010.06.03 18:47:42.
