data_PCOD9296758
_publ_section_title
;
Structure prediction by ZEFSAII (Michael W. Deem and Ramdas Pophale) SiO2 
 PCOD9296758
Probable space group: C 2/C
;
_chemical_formula_sum "Si O2"
_cell_formula_units_Z 36
_cell_length_a 23.003122
_cell_length_b 9.943417
_cell_length_c 7.382241
_cell_angle_alpha 90.000000
_cell_angle_beta 134.417947
_cell_angle_gamma 90.000000
_cell_volume 1206.043642
_symmetry_space_group_name_H-M "C 2/C"
_symmetry_group_IT_number 15
_symmetry_cell_setting 'monoclinic'
loop_
_space_group_symop_operation_xyz
x,y,z
-x,y,1/2-z
-x,-y,-z
x,-y,1/2+z
1/2+x,1/2+y,z
1/2-x,1/2+y,1/2-z
1/2-x,1/2-y,-z
1/2+x,1/2-y,1/2+z
loop_
_atom_site_type_symbol
_atom_site_label
_atom_site_fract_x
_atom_site_fract_y
_atom_site_fract_z
Si Si1 0.114292 0.827771 0.185095
Si Si2 0.672189 0.089419 0.548237
Si Si3 0.943595 0.775678 0.849540
Si Si4 0.788951 0.097433 0.111891
Si Si5 0.500000 0.972974 0.250000
O O1 0.155360 0.691715 0.348029
O O2 0.171741 0.952318 0.347122
O O3 0.091755 0.821055 0.923439
O O4 0.026575 0.847959 0.087079
O O5 0.714240 0.948945 0.577136
O O6 0.584461 0.054667 0.443343
O O7 0.741165 0.149442 0.831138
O O8 0.870457 0.815536 0.823474
O O9 0.980185 0.628918 0.873732
#
# Coordination Sequence:
#
# PCOD9296758 Si02
#       5
#     8   8   8   8   4
#     4  10  23  48  72 109 151 190 232 306 366 431
#     4  12  27  46  80 102 154 190 244 300 364 432
#     4  10  23  45  79  99 153 185 239 299 365 424
#     4  12  24  45  76 115 138 193 244 304 359 429
#     4  10  26  50  64 108 144 198 232 294 368 428
#
# _framework density 29.849665000000002
#
# number of rings (size 3 to 8) (size 9 to 14) (size 15 to 20)
#    0.000    1.333    2.222    4.000    3.111    8.889 
#    4.000    0.000    0.000    0.000    0.000    0.000 
#    0.000    0.000    0.000    0.000    0.000    0.000 
#
# Total GULP energy -100915.160546 kJ/mol
# GULP energy per Si atom -5606.397808 kJ/mol
# Density = 2.978173 g / cm^3
# Si number density = 29.849665 Si / 1000 Ang^3
#
#
#
# Elastic Constant Matrix: (Units=GPa)
#
#
# Indices 1 2 3 4 5 6 
#
# 1 211.3464 65.6124 72.6344 0.0000 71.8627 0.0000
# 2 65.6124 119.1302 22.0313 0.0000 44.6601 0.0000
# 3 72.6344 22.0313 192.1104 0.0000 44.6827 0.0000
# 4 0.0000 0.0000 0.0000 72.4562 0.0000 28.8906
# 5 71.8627 44.6601 44.6827 0.0000 74.7573 0.0000
# 6 0.0000 0.0000 0.0000 28.8906 0.0000 48.2964
#
#
#
# Elastic Compliance Matrix: (Units=1/GPa)
#
#
# Indices 1 2 3 4 5 6 
#
# 1 0.007637 -0.001945 -0.001425 0.000000 -0.005327 0.000000
# 2 -0.001945 0.011328 0.000668 0.000000 -0.005297 0.000000
# 3 -0.001425 0.000668 0.006320 0.000000 -0.002807 0.000000
# 4 0.000000 0.000000 0.000000 0.018124 0.000000 -0.010842
# 5 -0.005327 -0.005297 -0.002807 0.000000 0.023339 0.000000
# 6 0.000000 0.000000 0.000000 -0.010842 0.000000 0.027191
#
#
# Mechanical properties :
#
#
# Convention : Reuss Voigt Hill
#
# Bulk Modulus (GPa) = 50.30145 93.68257 71.99201
# Shear Modulus (GPa) = 47.18296 63.25591 55.21943
#
# Velocity S-wave (km/s) = 3.98010 4.60842 4.30573
# Velocity P-wave (km/s) = 6.16520 7.73108 6.99212
#
# Compressibility (1/GPa) = 0.01988014
#
# Stress axis : x y z
#
# Youngs Moduli (GPa) = 130.94857 88.27973 158.21717
#
# Poissons Ratio (x) = 0.17174 0.22550
# Poissons Ratio (y) = 0.25475 -0.10575
# Poissons Ratio (z) = 0.18663 -0.05901
#
# Static dielectric constant tensor:
#      x y z
#    x 2.408490 0.000000 -0.104420 
#    y 0.000000 2.455010 0.000000 
#    z -0.104420 0.000000 2.199140 
# 
# From -- ./inp_files/65296.got.cif
#   From: 2010.05.17/outbox.cif.g08.bks.cpg/sg15_33_cif.got.tgz:65296.got - 2010.06.03 18:47:42.
