data_PCOD9296019
_publ_section_title
;
Structure prediction by ZEFSAII (Michael W. Deem and Ramdas Pophale) SiO2 
 PCOD9296019
Probable space group: C 2/C
;
_chemical_formula_sum "Si O2"
_cell_formula_units_Z 48
_cell_length_a 8.101061
_cell_length_b 17.735624
_cell_length_c 16.888221
_cell_angle_alpha 90.000000
_cell_angle_beta 116.784000
_cell_angle_gamma 90.000000
_cell_volume 2166.124936
_symmetry_space_group_name_H-M "C 2/C"
_symmetry_group_IT_number 15
_symmetry_cell_setting 'monoclinic'
loop_
_space_group_symop_operation_xyz
x,y,z
-x,y,1/2-z
-x,-y,-z
x,-y,1/2+z
1/2+x,1/2+y,z
1/2-x,1/2+y,1/2-z
1/2-x,1/2-y,-z
1/2+x,1/2-y,1/2+z
loop_
_atom_site_type_symbol
_atom_site_label
_atom_site_fract_x
_atom_site_fract_y
_atom_site_fract_z
Si Si1 0.625019 0.206338 0.036325
Si Si2 0.031696 0.653597 0.168876
Si Si3 0.871309 0.160996 0.493702
Si Si4 0.515355 0.980311 0.164195
Si Si5 0.693325 0.439394 0.984523
Si Si6 0.358059 0.573472 0.646971
O O1 0.659951 0.203338 0.138871
O O2 0.437355 0.254108 0.990108
O O3 0.750000 0.250000 0.000000
O O4 0.661692 0.119815 0.022352
O O5 0.000000 0.683389 0.250000
O O6 0.093206 0.565998 0.187181
O O7 0.831731 0.649030 0.084091
O O8 0.880727 0.140147 0.588470
O O9 0.021104 0.106210 0.483339
O O10 0.500000 0.950782 0.250000
O O11 0.315634 0.978831 0.079001
O O12 0.657204 0.931851 0.143482
O O13 0.627334 0.498671 0.904836
O O14 0.500000 0.575405 0.750000
#
# Coordination Sequence:
#
# PCOD9296019 Si02
#       6
#     8   8   8   8   8   8
#     4  10  23  44  65  92 132 181 225 276 343 415
#     4  11  23  40  67  97 134 180 226 284 342 412
#     4  11  24  41  67  98 134 176 224 280 342 414
#     4  11  23  40  64  98 135 169 221 282 350 394
#     4  11  22  42  66  95 132 173 224 277 344 403
#     4  12  24  38  67  99 132 172 228 288 339 403
#
# _framework density 22.159386999999999
#
# number of rings (size 3 to 8) (size 9 to 14) (size 15 to 20)
#    0.000    1.000    3.333    3.500    4.667    0.667 
#    0.000    5.833    0.000    3.000    0.000    0.000 
#    0.000    0.000    0.000    0.000    0.000    0.000 
#
# Total GULP energy -133996.738273 kJ/mol
# GULP energy per Si atom -5583.197428 kJ/mol
# Density = 2.210895 g / cm^3
# Si number density = 22.159387 Si / 1000 Ang^3
#
#
#
# Elastic Constant Matrix: (Units=GPa)
#
#
# Indices 1 2 3 4 5 6 
#
# 1 104.8430 26.9969 52.3291 0.0000 -20.7435 0.0000
# 2 26.9969 74.9841 25.8687 0.0000 -9.6018 0.0000
# 3 52.3291 25.8687 172.4780 0.0000 -18.4285 0.0000
# 4 0.0000 0.0000 0.0000 10.4858 0.0000 -8.1660
# 5 -20.7435 -9.6018 -18.4285 0.0000 47.8892 0.0000
# 6 0.0000 0.0000 0.0000 -8.1660 0.0000 41.6466
#
#
#
# Elastic Compliance Matrix: (Units=1/GPa)
#
#
# Indices 1 2 3 4 5 6 
#
# 1 0.012516 -0.003017 -0.002952 0.000000 0.003681 0.000000
# 2 -0.003017 0.014995 -0.001202 0.000000 0.001237 0.000000
# 3 -0.002952 -0.001202 0.006999 0.000000 0.001174 0.000000
# 4 0.000000 0.000000 0.000000 0.112554 0.000000 0.022069
# 5 0.003681 0.001237 0.001174 0.000000 0.023176 0.000000
# 6 0.000000 0.000000 0.000000 0.022069 0.000000 0.028339
#
#
# Mechanical properties :
#
#
# Convention : Reuss Voigt Hill
#
# Bulk Modulus (GPa) = 49.57670 62.52159 56.04915
# Shear Modulus (GPa) = 22.76421 36.47833 29.62127
#
# Velocity S-wave (km/s) = 3.20862 4.06172 3.66011
# Velocity P-wave (km/s) = 6.01235 7.09031 6.57346
#
# Compressibility (1/GPa) = 0.02017076
#
# Stress axis : x y z
#
# Youngs Moduli (GPa) = 79.89536 66.68771 142.87754
#
# Poissons Ratio (x) = 0.20118 0.42173
# Poissons Ratio (y) = 0.24102 0.17167
# Poissons Ratio (z) = 0.23583 0.08013
#
# Static dielectric constant tensor:
#      x y z
#    x 1.787090 0.000000 -0.021080 
#    y 0.000000 1.866530 0.000000 
#    z -0.021080 0.000000 1.777200 
# 
# From -- ./inp_files/136175.got.cif
#   From: 2010.05.17/outbox.cif.g08.bks.cpg/sg15_69_cif.got.tgz:136175.got - 2010.06.03 18:47:42.
