data_PCOD9296552
_publ_section_title
;
Structure prediction by ZEFSAII (Michael W. Deem and Ramdas Pophale) SiO2 
 PCOD9296552
Probable space group: C 2/C
;
_chemical_formula_sum "Si O2"
_cell_formula_units_Z 52
_cell_length_a 17.003889
_cell_length_b 5.885502
_cell_length_c 23.443678
_cell_angle_alpha 90.000000
_cell_angle_beta 63.340578
_cell_angle_gamma 90.000000
_cell_volume 2096.737768
_symmetry_space_group_name_H-M "C 2/C"
_symmetry_group_IT_number 15
_symmetry_cell_setting 'monoclinic'
loop_
_space_group_symop_operation_xyz
x,y,z
-x,y,1/2-z
-x,-y,-z
x,-y,1/2+z
1/2+x,1/2+y,z
1/2-x,1/2+y,1/2-z
1/2-x,1/2-y,-z
1/2+x,1/2-y,1/2+z
loop_
_atom_site_type_symbol
_atom_site_label
_atom_site_fract_x
_atom_site_fract_y
_atom_site_fract_z
Si Si1 0.872350 0.872112 0.746797
Si Si2 0.899678 0.520977 0.470440
Si Si3 0.867750 0.421696 0.356768
Si Si4 0.000000 0.767790 0.250000
Si Si5 0.312276 0.680110 0.079598
Si Si6 0.820023 0.497135 0.184566
Si Si7 0.431336 0.294867 0.070180
O O1 0.869119 0.789394 0.813540
O O2 0.884572 0.644180 0.705101
O O3 0.775150 0.948882 0.758485
O O4 0.944723 0.068348 0.725115
O O5 0.894046 0.385885 0.413613
O O6 0.818693 0.668066 0.521017
O O7 0.918105 0.351759 0.516786
O O8 0.974915 0.711404 0.438491
O O9 0.930391 0.611899 0.307088
O O10 0.767841 0.507928 0.394337
O O11 0.299153 0.841312 0.137353
O O12 0.403910 0.548464 0.062665
O O13 0.865031 0.714339 0.141474
#
# Coordination Sequence:
#
# PCOD9296552 Si02
#       7
#     8   8   8   4   8   8   8
#     4  12  27  47  71 106 146 193 241 298 357 431
#     4  10  25  42  70 103 136 181 239 294 358 421
#     4  12  26  46  69 102 144 184 237 295 362 430
#     4  12  30  46  68 110 146 188 242 296 370 418
#     4  11  22  46  69 102 137 186 238 292 358 422
#     4  11  25  43  73  99 137 191 243 291 352 437
#     4  10  23  45  68 100 137 183 241 296 352 420
#
# _framework density 24.800431
#
# number of rings (size 3 to 8) (size 9 to 14) (size 15 to 20)
#    0.000    0.923    3.077    2.308    6.462    1.846 
#    0.000    0.000    0.000    0.000    0.000    0.000 
#    0.000    0.000    0.000    0.000    0.000    0.000 
#
# Total GULP energy -145526.972151 kJ/mol
# GULP energy per Si atom -5597.191237 kJ/mol
# Density = 2.474398 g / cm^3
# Si number density = 24.800431 Si / 1000 Ang^3
#
#
#
# Elastic Constant Matrix: (Units=GPa)
#
#
# Indices 1 2 3 4 5 6 
#
# 1 60.5094 2.6523 32.0355 0.0010 5.3750 0.0030
# 2 2.6523 54.2238 14.5034 0.0041 -1.6002 0.0050
# 3 32.0355 14.5034 94.1109 0.0000 11.5828 0.0001
# 4 0.0010 0.0041 0.0000 44.2173 0.0002 0.6028
# 5 5.3750 -1.6002 11.5828 0.0002 38.2370 0.0008
# 6 0.0030 0.0050 0.0001 0.6028 0.0008 46.3401
#
#
#
# Elastic Compliance Matrix: (Units=1/GPa)
#
#
# Indices 1 2 3 4 5 6 
#
# 1 0.020219 0.000842 -0.006925 0.000000 -0.000709 -0.000001
# 2 0.000842 0.019386 -0.003490 -0.000002 0.001750 -0.000002
# 3 -0.006925 -0.003490 0.013939 0.000000 -0.003395 0.000001
# 4 0.000000 -0.000002 0.000000 0.022620 0.000000 -0.000294
# 5 -0.000709 0.001750 -0.003395 0.000000 0.027354 -0.000001
# 6 -0.000001 -0.000002 0.000001 -0.000294 -0.000001 0.021583
#
#
# Mechanical properties :
#
#
# Convention : Reuss Voigt Hill
#
# Bulk Modulus (GPa) = 29.07092 34.13628 31.60360
# Shear Modulus (GPa) = 32.11073 36.40242 34.25657
#
# Velocity S-wave (km/s) = 3.60219 3.83536 3.72060
# Velocity P-wave (km/s) = 5.38966 5.77993 5.58820
#
# Compressibility (1/GPa) = 0.03439864
#
# Stress axis : x y z
#
# Youngs Moduli (GPa) = 49.45910 51.58386 71.74280
#
# Poissons Ratio (x) = -0.04345 0.49682
# Poissons Ratio (y) = -0.04166 0.25036
# Poissons Ratio (z) = 0.34251 0.18001
#
# Static dielectric constant tensor:
#      x y z
#    x 1.994630 0.000000 -0.037620 
#    y 0.000000 1.939260 0.000000 
#    z -0.037620 0.000000 1.945640 
# 
# From -- ./inp_files/278888.got.cif
#   From: 2010.05.17/outbox.cif.g08.bks.cpg/sg15_140_cif.got.tgz:278888.got - 2010.06.03 18:47:42.
