data_PCOD9296731
_publ_section_title
;
Structure prediction by ZEFSAII (Michael W. Deem and Ramdas Pophale) SiO2 
 PCOD9296731
Probable space group: C 2/C
;
_chemical_formula_sum "Si O2"
_cell_formula_units_Z 32
_cell_length_a 22.041874
_cell_length_b 9.452327
_cell_length_c 14.529682
_cell_angle_alpha 90.000000
_cell_angle_beta 28.454749
_cell_angle_gamma 90.000000
_cell_volume 1442.360921
_symmetry_space_group_name_H-M "C 2/C"
_symmetry_group_IT_number 15
_symmetry_cell_setting 'monoclinic'
loop_
_space_group_symop_operation_xyz
x,y,z
-x,y,1/2-z
-x,-y,-z
x,-y,1/2+z
1/2+x,1/2+y,z
1/2-x,1/2+y,1/2-z
1/2-x,1/2-y,-z
1/2+x,1/2-y,1/2+z
loop_
_atom_site_type_symbol
_atom_site_label
_atom_site_fract_x
_atom_site_fract_y
_atom_site_fract_z
Si Si1 0.904154 0.713498 0.795383
Si Si2 0.135725 0.155323 0.531771
Si Si3 0.877330 0.607928 0.313073
Si Si4 0.033620 0.839851 0.983290
O O1 0.933170 0.545483 0.751018
O O2 0.944678 0.770700 0.642776
O O3 0.000000 0.765818 0.750000
O O4 0.750000 0.750000 0.000000
O O5 0.143190 0.315860 0.561184
O O6 0.244816 0.076782 0.439869
O O7 0.146132 0.147457 0.408779
O O8 0.000000 0.101189 0.750000
O O9 0.943031 0.730400 0.162432
O O10 0.000000 0.000000 0.000000
#
# Coordination Sequence:
#
# PCOD9296731 Si02
#       4
#     8   8   8   8
#     4  12  30  47  71 106 146 187 243 299 355 421
#     4   9  21  41  73 101 137 184 234 286 362 416
#     4  10  23  45  74  98 145 186 235 295 359 423
#     4  11  26  43  71 101 141 186 237 290 357 427
#
# _framework density 22.185848
#
# number of rings (size 3 to 8) (size 9 to 14) (size 15 to 20)
#    0.000    1.500    0.000    3.000   17.500    0.000 
#    0.000    0.000    0.000    0.000    0.000    0.000 
#    0.000    0.000    0.000    0.000    0.000    0.000 
#
# Total GULP energy -89074.615167 kJ/mol
# GULP energy per Si atom -5567.163448 kJ/mol
# Density = 2.213535 g / cm^3
# Si number density = 22.185848 Si / 1000 Ang^3
#
#
#
# Elastic Constant Matrix: (Units=GPa)
#
#
# Indices 1 2 3 4 5 6 
#
# 1 228.1879 63.0666 53.1072 0.0000 27.2353 0.0000
# 2 63.0666 162.4483 35.4796 0.0000 27.7091 0.0000
# 3 53.1072 35.4796 52.7395 0.0000 8.5101 0.0000
# 4 0.0000 0.0000 0.0000 14.2030 0.0000 -21.3482
# 5 27.2353 27.7091 8.5101 0.0000 49.1580 0.0000
# 6 0.0000 0.0000 0.0000 -21.3482 0.0000 -20.3347
#
#
#
# Elastic Compliance Matrix: (Units=1/GPa)
#
#
# Indices 1 2 3 4 5 6 
#
# 1 0.006072 -0.000886 -0.005201 0.000000 -0.001964 0.000000
# 2 -0.000886 0.007914 -0.003900 0.000000 -0.003295 0.000000
# 3 -0.005201 -0.003900 0.026750 0.000000 0.000449 0.000000
# 4 0.000000 0.000000 0.000000 0.027311 0.000000 -0.028672
# 5 -0.001964 -0.003295 0.000449 0.000000 0.023210 0.000000
# 6 0.000000 0.000000 0.000000 -0.028672 0.000000 -0.019076
#
#
# Mechanical properties :
#
#
# Convention : Reuss Voigt Hill
#
# Bulk Modulus (GPa) = 48.16749 82.96474 65.56612
# Shear Modulus (GPa) = 50.46631 28.05342 39.25987
#
# Velocity S-wave (km/s) = 4.77456 3.55980 4.21121
# Velocity P-wave (km/s) = 7.22173 7.37379 7.29815
#
# Compressibility (1/GPa) = 0.02076089
#
# Stress axis : x y z
#
# Youngs Moduli (GPa) = 164.68181 126.36553 37.38354
#
# Poissons Ratio (x) = 0.11201 0.19445
# Poissons Ratio (y) = 0.14597 0.14578
# Poissons Ratio (z) = 0.85658 0.49277
#
# Static dielectric constant tensor:
#      x y z
#    x 1.779190 0.000000 -0.168330 
#    y 0.000000 1.875820 0.000000 
#    z -0.168330 0.000000 1.820130 
# 
# From -- ./inp_files/172227.got.cif
#   From: 2010.05.17/outbox.cif.g08.bks.cpg/sg15_87_cif.got.tgz:172227.got - 2010.06.03 18:47:42.
