data_PCOD9296225
_publ_section_title
;
Structure prediction by ZEFSAII (Michael W. Deem and Ramdas Pophale) SiO2 
 PCOD9296225
Probable space group: C 2/C
;
_chemical_formula_sum "Si O2"
_cell_formula_units_Z 48
_cell_length_a 11.869402
_cell_length_b 7.670658
_cell_length_c 23.152660
_cell_angle_alpha 90.000000
_cell_angle_beta 96.880983
_cell_angle_gamma 90.000000
_cell_volume 2092.776645
_symmetry_space_group_name_H-M "C 2/C"
_symmetry_group_IT_number 15
_symmetry_cell_setting 'monoclinic'
loop_
_space_group_symop_operation_xyz
x,y,z
-x,y,1/2-z
-x,-y,-z
x,-y,1/2+z
1/2+x,1/2+y,z
1/2-x,1/2+y,1/2-z
1/2-x,1/2-y,-z
1/2+x,1/2-y,1/2+z
loop_
_atom_site_type_symbol
_atom_site_label
_atom_site_fract_x
_atom_site_fract_y
_atom_site_fract_z
Si Si1 0.690021 0.996417 0.165786
Si Si2 0.866983 0.840214 0.759694
Si Si3 0.480647 0.442442 0.425126
Si Si4 0.614940 0.922212 0.534453
Si Si5 0.694445 0.569056 0.016223
Si Si6 0.555046 0.321703 0.192006
O O1 0.676500 0.818397 0.202341
O O2 0.796119 0.110600 0.197484
O O3 0.672555 0.986498 0.095013
O O4 0.590186 0.129133 0.177666
O O5 0.000000 0.812546 0.750000
O O6 0.854931 0.021108 0.795339
O O7 0.421286 0.266654 0.445105
O O8 0.377450 0.577438 0.428843
O O9 0.592592 0.481935 0.467100
O O10 0.520280 0.399359 0.363544
O O11 0.500000 0.000000 0.500000
O O12 0.704351 0.934101 0.487432
O O13 0.750000 0.750000 0.000000
O O14 0.500000 0.310992 0.250000
#
# Coordination Sequence:
#
# PCOD9296225 Si02
#       6
#     8   8   8   8   8   8
#     4  11  24  45  69  99 141 179 229 291 345 421
#     4  11  24  43  66 100 131 176 231 279 351 409
#     4  10  24  44  64  99 134 180 230 282 347 413
#     4  11  24  45  66 101 140 180 231 286 349 411
#     4  11  23  41  69  96 133 180 230 280 338 410
#     4  10  23  44  69  98 138 178 228 290 348 415
#
# _framework density 22.936036000000001
#
# number of rings (size 3 to 8) (size 9 to 14) (size 15 to 20)
#    0.000    1.333    3.333    1.000    7.000    0.000 
#    6.000    0.000    0.000    0.000    0.000    0.000 
#    0.000    0.000    0.000    0.000    0.000    0.000 
#
# Total GULP energy -133632.766942 kJ/mol
# GULP energy per Si atom -5568.031956 kJ/mol
# Density = 2.288383 g / cm^3
# Si number density = 22.936036 Si / 1000 Ang^3
#
#
#
# Elastic Constant Matrix: (Units=GPa)
#
#
# Indices 1 2 3 4 5 6 
#
# 1 95.7909 -5.9408 16.2569 0.0000 -1.5188 0.0000
# 2 -5.9408 99.5139 1.3402 0.0000 -4.7117 0.0000
# 3 16.2569 1.3402 111.0650 0.0000 3.3037 0.0000
# 4 0.0000 0.0000 0.0000 34.8402 0.0000 3.8827
# 5 -1.5188 -4.7117 3.3037 0.0000 37.7687 0.0000
# 6 0.0000 0.0000 0.0000 3.8827 0.0000 35.6077
#
#
#
# Elastic Compliance Matrix: (Units=1/GPa)
#
#
# Indices 1 2 3 4 5 6 
#
# 1 0.010765 0.000696 -0.001604 0.000000 0.000660 0.000000
# 2 0.000696 0.010156 -0.000264 0.000000 0.001318 0.000000
# 3 -0.001604 -0.000264 0.009269 0.000000 -0.000908 0.000000
# 4 0.000000 0.000000 0.000000 0.029056 0.000000 -0.003168
# 5 0.000660 0.001318 -0.000908 0.000000 0.026747 0.000000
# 6 0.000000 0.000000 0.000000 -0.003168 0.000000 0.028429
#
#
# Mechanical properties :
#
#
# Convention : Reuss Voigt Hill
#
# Bulk Modulus (GPa) = 35.91110 36.63139 36.27124
# Shear Modulus (GPa) = 39.66737 41.29089 40.47913
#
# Velocity S-wave (km/s) = 4.16321 4.24755 4.20559
# Velocity P-wave (km/s) = 6.22903 6.32941 6.27942
#
# Compressibility (1/GPa) = 0.02784655
#
# Stress axis : x y z
#
# Youngs Moduli (GPa) = 92.89206 98.46086 107.89025
#
# Poissons Ratio (x) = -0.06848 0.17303
# Poissons Ratio (y) = -0.06461 0.02844
# Poissons Ratio (z) = 0.14898 0.02595
#
# Static dielectric constant tensor:
#      x y z
#    x 1.875320 0.000000 -0.049220 
#    y 0.000000 1.698060 0.000000 
#    z -0.049220 0.000000 2.005460 
# 
# From -- ./inp_files/267776.got.cif
#   From: 2010.05.17/outbox.cif.g08.bks.cpg/sg15_134_cif.got.tgz:267776.got - 2010.06.03 18:47:42.
