data_PCOD9296266
_publ_section_title
;
Structure prediction by ZEFSAII (Michael W. Deem and Ramdas Pophale) SiO2 
 PCOD9296266
Probable space group: C 2/C
;
_chemical_formula_sum "Si O2"
_cell_formula_units_Z 40
_cell_length_a 11.700557
_cell_length_b 15.397814
_cell_length_c 8.981024
_cell_angle_alpha 90.000000
_cell_angle_beta 86.134540
_cell_angle_gamma 90.000000
_cell_volume 1614.367332
_symmetry_space_group_name_H-M "C 2/C"
_symmetry_group_IT_number 15
_symmetry_cell_setting 'monoclinic'
loop_
_space_group_symop_operation_xyz
x,y,z
-x,y,1/2-z
-x,-y,-z
x,-y,1/2+z
1/2+x,1/2+y,z
1/2-x,1/2+y,1/2-z
1/2-x,1/2-y,-z
1/2+x,1/2-y,1/2+z
loop_
_atom_site_type_symbol
_atom_site_label
_atom_site_fract_x
_atom_site_fract_y
_atom_site_fract_z
Si Si1 0.334193 0.293102 0.614814
Si Si2 0.890871 0.097470 0.848280
Si Si3 0.173549 0.491749 0.955642
Si Si4 0.283283 0.818042 0.366852
Si Si5 0.112389 0.386713 0.698800
O O1 0.250000 0.250000 0.500000
O O2 0.416523 0.348085 0.498865
O O3 0.369589 0.226208 0.739366
O O4 0.240220 0.351323 0.709398
O O5 0.823272 0.155738 0.731561
O O6 0.000000 0.063474 0.750000
O O7 0.802080 0.023491 0.907168
O O8 0.109026 0.465324 0.813860
O O9 0.176573 0.406987 0.059576
O O10 0.113944 0.574795 0.034792
O O11 0.250000 0.750000 0.500000
O O12 0.000000 0.331091 0.750000
#
# Coordination Sequence:
#
# PCOD9296266 Si02
#       5
#     8   8   8   8   8
#     4   9  21  40  64  89 129 168 207 264 327 374
#     4  10  23  44  70  91 129 179 222 258 324 396
#     4  11  22  42  65  95 131 168 213 273 320 381
#     4  11  21  41  65  92 135 166 209 275 322 374
#     4  11  22  40  67  92 125 170 220 260 320 390
#
# _framework density 24.777508000000001
#
# number of rings (size 3 to 8) (size 9 to 14) (size 15 to 20)
#    0.000    1.600    4.000    0.600    0.000    4.000 
#    0.000    1.000    0.000    0.000    0.000    0.000 
#    0.000    0.000    0.000    0.000    0.000    0.000 
#
# Total GULP energy -111589.368990 kJ/mol
# GULP energy per Si atom -5579.468450 kJ/mol
# Density = 2.472111 g / cm^3
# Si number density = 24.777508 Si / 1000 Ang^3
#
#
#
# Elastic Constant Matrix: (Units=GPa)
#
#
# Indices 1 2 3 4 5 6 
#
# 1 77.5014 18.7622 40.1497 0.0000 -39.4639 0.0000
# 2 18.7622 84.7942 55.9200 0.0000 -6.6643 0.0000
# 3 40.1497 55.9200 157.0098 0.0000 -9.5100 0.0000
# 4 0.0000 0.0000 0.0000 56.4254 0.0000 10.1556
# 5 -39.4639 -6.6643 -9.5100 0.0000 43.9335 0.0000
# 6 0.0000 0.0000 0.0000 10.1556 0.0000 9.2732
#
#
#
# Elastic Compliance Matrix: (Units=1/GPa)
#
#
# Indices 1 2 3 4 5 6 
#
# 1 0.028120 -0.000724 -0.005481 0.000000 0.023963 0.000000
# 2 -0.000724 0.015491 -0.005299 0.000000 0.000553 0.000000
# 3 -0.005481 -0.005299 0.009435 0.000000 -0.003685 0.000000
# 4 0.000000 0.000000 0.000000 0.022073 0.000000 -0.024174
# 5 0.023963 0.000553 -0.003685 0.000000 0.043573 0.000000
# 6 0.000000 0.000000 0.000000 -0.024174 0.000000 0.134311
#
#
# Mechanical properties :
#
#
# Convention : Reuss Voigt Hill
#
# Bulk Modulus (GPa) = 33.29142 60.99658 47.14400
# Shear Modulus (GPa) = 17.48108 35.55798 26.51953
#
# Velocity S-wave (km/s) = 2.65905 3.79237 3.27510
# Velocity P-wave (km/s) = 4.78463 6.62173 5.77667
#
# Compressibility (1/GPa) = 0.03003777
#
# Stress axis : x y z
#
# Youngs Moduli (GPa) = 35.56221 64.55244 105.99191
#
# Poissons Ratio (x) = 0.04672 0.58099
# Poissons Ratio (y) = 0.02574 0.56163
# Poissons Ratio (z) = 0.19493 0.34205
#
# Static dielectric constant tensor:
#      x y z
#    x 2.242950 0.000000 -0.171120 
#    y 0.000000 2.081830 0.000000 
#    z -0.171120 0.000000 2.057620 
# 
# From -- ./inp_files/29069.got.cif
#   From: 2010.05.17/outbox.cif.g08.bks.cpg/sg15_15_cif.got.tgz:29069.got - 2010.06.03 18:47:42.
