data_PCOD9296604
_publ_section_title
;
Structure prediction by ZEFSAII (Michael W. Deem and Ramdas Pophale) SiO2 
 PCOD9296604
Probable space group: C 2/C
;
_chemical_formula_sum "Si O2"
_cell_formula_units_Z 40
_cell_length_a 7.370466
_cell_length_b 19.817775
_cell_length_c 13.778811
_cell_angle_alpha 90.000000
_cell_angle_beta 60.109835
_cell_angle_gamma 90.000000
_cell_volume 1744.905117
_symmetry_space_group_name_H-M "C 2/C"
_symmetry_group_IT_number 15
_symmetry_cell_setting 'monoclinic'
loop_
_space_group_symop_operation_xyz
x,y,z
-x,y,1/2-z
-x,-y,-z
x,-y,1/2+z
1/2+x,1/2+y,z
1/2-x,1/2+y,1/2-z
1/2-x,1/2-y,-z
1/2+x,1/2-y,1/2+z
loop_
_atom_site_type_symbol
_atom_site_label
_atom_site_fract_x
_atom_site_fract_y
_atom_site_fract_z
Si Si1 0.747707 0.341962 0.797752
Si Si2 0.166717 0.824109 0.484407
Si Si3 0.404670 0.037728 0.172333
Si Si4 0.282731 0.696697 0.750346
Si Si5 0.038331 0.402478 0.452379
O O1 0.717568 0.412148 0.750454
O O2 0.717681 0.273527 0.746248
O O3 0.000000 0.342976 0.750000
O O4 0.579711 0.331815 0.927470
O O5 0.250000 0.750000 0.500000
O O6 0.203826 0.834519 0.359660
O O7 0.293740 0.884145 0.503421
O O8 0.500000 0.016719 0.250000
O O9 0.372818 0.969412 0.122146
O O10 0.557232 0.082330 0.061556
O O11 0.500000 0.697783 0.750000
O O12 0.137814 0.659135 0.866637
#
# Coordination Sequence:
#
# PCOD9296604 Si02
#       5
#     8   8   8   8   8
#     4  10  24  42  70  99 141 181 229 283 348 412
#     4  12  24  43  74 105 138 181 236 290 344 407
#     4  10  23  45  69  97 146 181 227 285 350 416
#     4  11  25  41  70 102 140 182 230 284 349 415
#     4  11  24  45  71 102 140 181 236 289 341 412
#
# _framework density 22.923883
#
# number of rings (size 3 to 8) (size 9 to 14) (size 15 to 20)
#    0.000    1.200    2.000    3.000    5.600    4.000 
#    7.200    5.000    0.000    0.000    0.000    0.000 
#    0.000    0.000    0.000    0.000    0.000    0.000 
#
# Total GULP energy -111447.679451 kJ/mol
# GULP energy per Si atom -5572.383973 kJ/mol
# Density = 2.287171 g / cm^3
# Si number density = 22.923883 Si / 1000 Ang^3
#
#
#
# Elastic Constant Matrix: (Units=GPa)
#
#
# Indices 1 2 3 4 5 6 
#
# 1 74.3120 -2.7488 12.8121 0.0000 -2.6699 0.0000
# 2 -2.7488 101.0241 5.3298 0.0000 -5.9727 0.0000
# 3 12.8121 5.3298 92.6818 0.0000 14.1673 0.0000
# 4 0.0000 0.0000 0.0000 47.9153 0.0000 -2.8068
# 5 -2.6699 -5.9727 14.1673 0.0000 47.4492 0.0000
# 6 0.0000 0.0000 0.0000 -2.8068 0.0000 16.3417
#
#
#
# Elastic Compliance Matrix: (Units=1/GPa)
#
#
# Indices 1 2 3 4 5 6 
#
# 1 0.013910 0.000583 -0.002187 0.000000 0.001509 0.000000
# 2 0.000583 0.010055 -0.000898 0.000000 0.001567 0.000000
# 3 -0.002187 -0.000898 0.011714 0.000000 -0.003734 0.000000
# 4 0.000000 0.000000 0.000000 0.021082 0.000000 0.003621
# 5 0.001509 0.001567 -0.003734 0.000000 0.022472 0.000000
# 6 0.000000 0.000000 0.000000 0.003621 0.000000 0.061815
#
#
# Mechanical properties :
#
#
# Convention : Reuss Voigt Hill
#
# Bulk Modulus (GPa) = 32.60090 33.20044 32.90067
# Shear Modulus (GPa) = 31.99447 39.18291 35.58869
#
# Velocity S-wave (km/s) = 3.73994 4.13881 3.94442
# Velocity P-wave (km/s) = 5.73600 6.11179 5.92688
#
# Compressibility (1/GPa) = 0.03067400
#
# Stress axis : x y z
#
# Youngs Moduli (GPa) = 71.89264 99.45794 85.36547
#
# Poissons Ratio (x) = -0.05799 0.18670
# Poissons Ratio (y) = -0.04192 0.07668
# Poissons Ratio (z) = 0.15723 0.08934
#
# Static dielectric constant tensor:
#      x y z
#    x 1.951860 0.000000 -0.053480 
#    y 0.000000 1.907700 0.000000 
#    z -0.053480 0.000000 1.891230 
# 
# From -- ./inp_files/135756.got.cif
#   From: 2010.05.17/outbox.cif.g08.bks.cpg/sg15_68_cif.got.tgz:135756.got - 2010.06.03 18:47:42.
