data_PCOD9296280
_publ_section_title
;
Structure prediction by ZEFSAII (Michael W. Deem and Ramdas Pophale) SiO2 
 PCOD9296280
Probable space group: C 2/C
;
_chemical_formula_sum "Si O2"
_cell_formula_units_Z 52
_cell_length_a 5.106256
_cell_length_b 18.115985
_cell_length_c 20.874100
_cell_angle_alpha 90.000000
_cell_angle_beta 99.450491
_cell_angle_gamma 90.000000
_cell_volume 1904.748418
_symmetry_space_group_name_H-M "C 2/C"
_symmetry_group_IT_number 15
_symmetry_cell_setting 'monoclinic'
loop_
_space_group_symop_operation_xyz
x,y,z
-x,y,1/2-z
-x,-y,-z
x,-y,1/2+z
1/2+x,1/2+y,z
1/2-x,1/2+y,1/2-z
1/2-x,1/2-y,-z
1/2+x,1/2-y,1/2+z
loop_
_atom_site_type_symbol
_atom_site_label
_atom_site_fract_x
_atom_site_fract_y
_atom_site_fract_z
Si Si1 0.786337 0.359847 0.692394
Si Si2 0.000000 0.116647 0.750000
Si Si3 0.590093 0.211735 0.667778
Si Si4 0.553117 0.708270 0.581345
Si Si5 0.110636 0.620776 0.076677
Si Si6 0.060473 0.007309 0.152683
Si Si7 0.302085 0.561736 0.966351
O O1 0.560428 0.298680 0.681676
O O2 0.711014 0.441441 0.709523
O O3 0.000000 0.329254 0.750000
O O4 0.902955 0.373440 0.626282
O O5 0.252429 0.169841 0.770281
O O6 0.962661 0.063021 0.687541
O O7 0.306543 0.185105 0.634160
O O8 0.792024 0.210499 0.614857
O O9 0.626577 0.790901 0.560716
O O10 0.540911 0.640174 0.531925
O O11 0.347525 0.566804 0.114562
O O12 0.067738 0.580700 0.006501
O O13 0.250837 0.972560 0.105527
O O14 0.500000 0.500000 0.000000
#
# Coordination Sequence:
#
# PCOD9296280 Si02
#       7
#     8   4   8   8   8   8   8
#     4  11  23  43  68 103 137 188 238 296 356 435
#     4  12  24  46  70 108 146 188 232 304 364 426
#     4  11  25  46  74 105 146 190 243 295 359 435
#     4  11  23  49  74 105 143 193 248 292 359 435
#     4  10  23  44  70  98 142 187 239 294 357 429
#     4  11  23  44  66 104 139 183 238 296 362 423
#     4  10  23  45  68 103 149 183 242 297 369 419
#
# _framework density 27.300194000000001
#
# number of rings (size 3 to 8) (size 9 to 14) (size 15 to 20)
#    0.000    1.231    3.846    1.385    0.000    3.692 
#    8.308    2.308    0.000    0.000    0.000    0.000 
#    0.000    0.000    0.000    0.000    0.000    0.000 
#
# Total GULP energy -145282.820444 kJ/mol
# GULP energy per Si atom -5587.800786 kJ/mol
# Density = 2.723806 g / cm^3
# Si number density = 27.300194 Si / 1000 Ang^3
#
#
#
# Elastic Constant Matrix: (Units=GPa)
#
#
# Indices 1 2 3 4 5 6 
#
# 1 74.2325 18.4738 30.1069 0.0000 -23.0723 0.0000
# 2 18.4738 234.0935 49.1602 0.0000 -8.2930 0.0000
# 3 30.1069 49.1602 67.3502 0.0000 -29.7937 0.0000
# 4 0.0000 0.0000 0.0000 38.1004 0.0000 7.7036
# 5 -23.0723 -8.2930 -29.7937 0.0000 37.4944 0.0000
# 6 0.0000 0.0000 0.0000 7.7036 0.0000 26.0069
#
#
#
# Elastic Compliance Matrix: (Units=1/GPa)
#
#
# Indices 1 2 3 4 5 6 
#
# 1 0.017592 -0.000175 -0.004572 0.000000 0.007154 0.000000
# 2 -0.000175 0.005244 -0.005064 0.000000 -0.002972 0.000000
# 3 -0.004572 -0.005064 0.029064 0.000000 0.019162 0.000000
# 4 0.000000 0.000000 0.000000 0.027919 0.000000 -0.008270
# 5 0.007154 -0.002972 0.019162 0.000000 0.045642 0.000000
# 6 0.000000 0.000000 0.000000 -0.008270 0.000000 0.040901
#
#
# Mechanical properties :
#
#
# Convention : Reuss Voigt Hill
#
# Bulk Modulus (GPa) = 30.97955 63.46199 47.22077
# Shear Modulus (GPa) = 25.41387 38.84936 32.13161
#
# Velocity S-wave (km/s) = 3.05438 3.77642 3.43443
# Velocity P-wave (km/s) = 4.87969 6.50473 5.74991
#
# Compressibility (1/GPa) = 0.03227936
#
# Stress axis : x y z
#
# Youngs Moduli (GPa) = 56.84246 190.70277 34.40646
#
# Poissons Ratio (x) = 0.03333 0.15730
# Poissons Ratio (y) = 0.00994 0.17423
# Poissons Ratio (z) = 0.25987 0.96571
#
# Static dielectric constant tensor:
#      x y z
#    x 2.168430 0.000000 -0.026330 
#    y 0.000000 2.096230 0.000000 
#    z -0.026330 0.000000 2.226190 
# 
# From -- ./inp_files/285902.got.cif
#   From: 2010.05.17/outbox.cif.g08.bks.cpg/sg15_143_cif.got.tgz:285902.got - 2010.06.03 18:47:42.
