data_PCOD9296353
_publ_section_title
;
Structure prediction by ZEFSAII (Michael W. Deem and Ramdas Pophale) SiO2 
 PCOD9296353
Probable space group: C 2/C
;
_chemical_formula_sum "Si O2"
_cell_formula_units_Z 28
_cell_length_a 12.701286
_cell_length_b 8.417063
_cell_length_c 20.364225
_cell_angle_alpha 90.000000
_cell_angle_beta 147.362145
_cell_angle_gamma 90.000000
_cell_volume 1174.163405
_symmetry_space_group_name_H-M "C 2/C"
_symmetry_group_IT_number 15
_symmetry_cell_setting 'monoclinic'
loop_
_space_group_symop_operation_xyz
x,y,z
-x,y,1/2-z
-x,-y,-z
x,-y,1/2+z
1/2+x,1/2+y,z
1/2-x,1/2+y,1/2-z
1/2-x,1/2-y,-z
1/2+x,1/2-y,1/2+z
loop_
_atom_site_type_symbol
_atom_site_label
_atom_site_fract_x
_atom_site_fract_y
_atom_site_fract_z
Si Si1 0.813636 0.710665 0.339274
Si Si2 0.381880 0.598497 0.754183
Si Si3 0.000000 0.586364 0.750000
Si Si4 0.830754 0.113421 0.494497
O O1 0.658234 0.019856 0.370966
O O2 0.012513 0.795696 0.469280
O O3 0.790807 0.527095 0.344422
O O4 0.823351 0.747737 0.266012
O O5 0.500000 0.630403 0.750000
O O6 0.370742 0.196648 0.729080
O O7 0.532465 0.512398 0.884499
O O8 0.750000 0.250000 0.500000
#
# Coordination Sequence:
#
# PCOD9296353 Si02
#       4
#     8   8   4   8
#     4  10  23  44  72 104 141 190 230 301 356 410
#     4  10  23  46  69 108 137 182 244 286 355 424
#     4  12  22  46  70 104 150 182 248 286 360 432
#     4  10  25  42  72 104 140 195 230 299 356 420
#
# _framework density 23.846765999999999
#
# number of rings (size 3 to 8) (size 9 to 14) (size 15 to 20)
#    1.714    0.000    1.429    2.571    2.000    1.143 
#    0.000    2.857    0.000    0.000    0.000    0.000 
#    0.000    0.000    0.000    0.000    0.000    0.000 
#
# Total GULP energy -78156.099176 kJ/mol
# GULP energy per Si atom -5582.578513 kJ/mol
# Density = 2.379249 g / cm^3
# Si number density = 23.846766 Si / 1000 Ang^3
#
#
#
# Elastic Constant Matrix: (Units=GPa)
#
#
# Indices 1 2 3 4 5 6 
#
# 1 166.3815 34.6198 6.3463 0.0000 19.2360 0.0000
# 2 34.6198 63.9097 0.6241 0.0001 4.4615 0.0000
# 3 6.3463 0.6241 89.7195 0.0002 7.3309 0.0001
# 4 0.0000 0.0001 0.0002 30.5640 0.0000 7.2396
# 5 19.2360 4.4615 7.3309 0.0000 41.5447 0.0000
# 6 0.0000 0.0000 0.0001 7.2396 0.0000 23.4544
#
#
#
# Elastic Compliance Matrix: (Units=1/GPa)
#
#
# Indices 1 2 3 4 5 6 
#
# 1 0.007109 -0.003649 -0.000244 0.000000 -0.002857 0.000000
# 2 -0.003649 0.017639 0.000154 0.000000 -0.000232 0.000000
# 3 -0.000244 0.000154 0.011317 0.000000 -0.001901 0.000000
# 4 0.000000 0.000000 0.000000 0.035299 0.000000 -0.010896
# 5 -0.002857 -0.000232 -0.001901 0.000000 0.025753 0.000000
# 6 0.000000 0.000000 0.000000 -0.010896 0.000000 0.045999
#
#
# Mechanical properties :
#
#
# Convention : Reuss Voigt Hill
#
# Bulk Modulus (GPa) = 34.98067 44.79902 39.88985
# Shear Modulus (GPa) = 31.22593 37.67399 34.44996
#
# Velocity S-wave (km/s) = 3.62255 3.97903 3.80496
# Velocity P-wave (km/s) = 5.67432 6.31959 6.00563
#
# Compressibility (1/GPa) = 0.02858722
#
# Stress axis : x y z
#
# Youngs Moduli (GPa) = 140.66321 56.69402 88.36001
#
# Poissons Ratio (x) = 0.20689 0.02157
# Poissons Ratio (y) = 0.51331 -0.01364
# Poissons Ratio (z) = 0.03433 -0.00875
#
# Static dielectric constant tensor:
#      x y z
#    x 1.902220 0.000000 0.019610 
#    y 0.000000 1.870810 0.000000 
#    z 0.019610 0.000000 2.044620 
# 
# From -- ./inp_files/131632.got.cif
#   From: 2010.05.17/outbox.cif.g08.bks.cpg/sg15_66_cif.got.tgz:131632.got - 2010.06.03 18:47:42.
