data_PCOD9296521
_publ_section_title
;
Structure prediction by ZEFSAII (Michael W. Deem and Ramdas Pophale) SiO2 
 PCOD9296521
Probable space group: C 2/C
;
_chemical_formula_sum "Si O2"
_cell_formula_units_Z 40
_cell_length_a 7.807036
_cell_length_b 22.052141
_cell_length_c 13.666007
_cell_angle_alpha 90.000000
_cell_angle_beta 48.137932
_cell_angle_gamma 90.000000
_cell_volume 1752.230124
_symmetry_space_group_name_H-M "C 2/C"
_symmetry_group_IT_number 15
_symmetry_cell_setting 'monoclinic'
loop_
_space_group_symop_operation_xyz
x,y,z
-x,y,1/2-z
-x,-y,-z
x,-y,1/2+z
1/2+x,1/2+y,z
1/2-x,1/2+y,1/2-z
1/2-x,1/2-y,-z
1/2+x,1/2-y,1/2+z
loop_
_atom_site_type_symbol
_atom_site_label
_atom_site_fract_x
_atom_site_fract_y
_atom_site_fract_z
Si Si1 0.336997 0.048759 0.005879
Si Si2 0.500000 0.047264 0.750000
Si Si3 0.547521 0.465357 0.349474
Si Si4 0.000000 0.861534 0.750000
Si Si5 0.444672 0.200667 0.155194
Si Si6 0.924885 0.165927 0.892452
O O1 0.180529 0.094613 0.125961
O O2 0.447627 0.082625 0.870716
O O3 0.153097 0.003717 0.028777
O O4 0.500000 0.000000 0.000000
O O5 0.707169 0.008109 0.715940
O O6 0.500000 0.465834 0.250000
O O7 0.532458 0.396153 0.390949
O O8 0.183349 0.821110 0.739857
O O9 0.500000 0.197122 0.250000
O O10 0.479723 0.270114 0.105644
O O11 0.649606 0.164816 0.019156
O O12 0.000000 0.166114 0.750000
#
# Coordination Sequence:
#
# PCOD9296521 Si02
#       6
#     8   4   8   4   8   8
#     4  12  24  47  65 101 141 182 230 286 347 415
#     4  12  26  39  68  96 132 181 228 274 348 420
#     4  11  22  42  65  95 133 176 224 281 339 413
#     4  12  26  43  70 102 146 177 230 294 344 408
#     4  10  23  45  67 101 133 181 231 285 346 407
#     4   9  21  43  71  93 136 181 227 284 346 403
#
# _framework density 22.828053000000001
#
# number of rings (size 3 to 8) (size 9 to 14) (size 15 to 20)
#    0.000    1.200    3.000    1.800    5.600    0.800 
#    9.000    9.000    0.000    0.000    0.000    0.000 
#    0.000    0.000    0.000    0.000    0.000    0.000 
#
# Total GULP energy -111364.105088 kJ/mol
# GULP energy per Si atom -5568.205254 kJ/mol
# Density = 2.277610 g / cm^3
# Si number density = 22.828053 Si / 1000 Ang^3
#
#
#
# Elastic Constant Matrix: (Units=GPa)
#
#
# Indices 1 2 3 4 5 6 
#
# 1 165.4363 27.6845 22.2392 0.0000 -37.1723 0.0000
# 2 27.6845 71.5414 5.4929 0.0000 -12.8000 0.0000
# 3 22.2392 5.4929 101.6035 0.0000 -5.3667 0.0000
# 4 0.0000 0.0000 0.0000 29.0169 0.0000 -14.2701
# 5 -37.1723 -12.8000 -5.3667 0.0000 40.5789 0.0000
# 6 0.0000 0.0000 0.0000 -14.2701 0.0000 11.3004
#
#
#
# Elastic Compliance Matrix: (Units=1/GPa)
#
#
# Indices 1 2 3 4 5 6 
#
# 1 0.008004 -0.001819 -0.001306 0.000000 0.006586 0.000000
# 2 -0.001819 0.015259 -0.000262 0.000000 0.003112 0.000000
# 3 -0.001306 -0.000262 0.010146 0.000000 0.000063 0.000000
# 4 0.000000 0.000000 0.000000 0.090938 0.000000 0.114836
# 5 0.006586 0.003112 0.000063 0.000000 0.031666 0.000000
# 6 0.000000 0.000000 0.000000 0.114836 0.000000 0.233508
#
#
# Mechanical properties :
#
#
# Convention : Reuss Voigt Hill
#
# Bulk Modulus (GPa) = 37.54534 49.93492 43.74013
# Shear Modulus (GPa) = 12.34040 35.05687 23.69864
#
# Velocity S-wave (km/s) = 2.32756 3.92304 3.22551
# Velocity P-wave (km/s) = 4.86889 6.51477 5.75101
#
# Compressibility (1/GPa) = 0.02663446
#
# Stress axis : x y z
#
# Youngs Moduli (GPa) = 124.93224 65.53615 98.56586
#
# Poissons Ratio (x) = 0.11920 0.12871
# Poissons Ratio (y) = 0.22723 0.02586
# Poissons Ratio (z) = 0.16314 0.01720
#
# Static dielectric constant tensor:
#      x y z
#    x 1.918000 0.000000 -0.019310 
#    y 0.000000 1.886460 0.000000 
#    z -0.019310 0.000000 2.086850 
# 
# From -- ./inp_files/138159.got.cif
#   From: 2010.05.17/outbox.cif.g08.bks.cpg/sg15_70_cif.got.tgz:138159.got - 2010.06.03 18:47:42.
