data_PCOD9296395
_publ_section_title
;
Structure prediction by ZEFSAII (Michael W. Deem and Ramdas Pophale) SiO2 
 PCOD9296395
Probable space group: C 2/C
;
_chemical_formula_sum "Si O2"
_cell_formula_units_Z 44
_cell_length_a 17.083493
_cell_length_b 22.676195
_cell_length_c 5.061692
_cell_angle_alpha 90.000000
_cell_angle_beta 109.926548
_cell_angle_gamma 90.000000
_cell_volume 1843.446879
_symmetry_space_group_name_H-M "C 2/C"
_symmetry_group_IT_number 15
_symmetry_cell_setting 'monoclinic'
loop_
_space_group_symop_operation_xyz
x,y,z
-x,y,1/2-z
-x,-y,-z
x,-y,1/2+z
1/2+x,1/2+y,z
1/2-x,1/2+y,1/2-z
1/2-x,1/2-y,-z
1/2+x,1/2-y,1/2+z
loop_
_atom_site_type_symbol
_atom_site_label
_atom_site_fract_x
_atom_site_fract_y
_atom_site_fract_z
Si Si1 0.326122 0.461914 0.003903
Si Si2 0.721111 0.872038 0.198160
Si Si3 0.327647 0.705587 0.159694
Si Si4 0.000000 0.895012 0.250000
Si Si5 0.250000 0.750000 0.500000
Si Si6 0.598360 0.959175 0.343556
Si Si7 0.500000 0.309514 0.750000
O O1 0.317224 0.516810 0.194515
O O2 0.257732 0.416091 0.024925
O O3 0.417475 0.434696 0.154909
O O4 0.796872 0.852865 0.482555
O O5 0.651367 0.903778 0.296950
O O6 0.696386 0.810669 0.024853
O O7 0.323050 0.707013 0.466784
O O8 0.414491 0.726184 0.148592
O O9 0.250000 0.750000 0.000000
O O10 0.004961 0.852583 0.507242
O O11 0.500000 0.944197 0.250000
O O12 0.614980 0.989508 0.645089
#
# Coordination Sequence:
#
# PCOD9296395 Si02
#       7
#     8   8   8   4   4   8   4
#     4  12  25  40  66 102 138 183 231 286 352 425
#     4  11  23  43  70  99 142 184 237 295 361 435
#     4  10  24  45  68 101 134 187 243 298 353 436
#     4  12  24  43  66 100 140 186 228 287 346 436
#     4  10  24  44  70  98 142 184 250 292 358 432
#     4  10  23  44  73 107 142 183 238 305 373 438
#     4  12  24  45  76  96 142 190 230 299 368 416
#
# _framework density 23.868331999999999
#
# number of rings (size 3 to 8) (size 9 to 14) (size 15 to 20)
#    0.000    1.091    1.818    3.818    7.636    0.000 
#    6.545    0.000    0.000    0.000    0.000    0.000 
#    0.000    0.000    0.000    0.000    0.000    0.000 
#
# Total GULP energy -122501.440671 kJ/mol
# GULP energy per Si atom -5568.247303 kJ/mol
# Density = 2.381401 g / cm^3
# Si number density = 23.868332 Si / 1000 Ang^3
#
#
#
# Elastic Constant Matrix: (Units=GPa)
#
#
# Indices 1 2 3 4 5 6 
#
# 1 193.0645 62.2511 27.1546 0.0000 -17.3721 0.0000
# 2 62.2511 108.8198 25.0891 0.0000 -4.0299 0.0000
# 3 27.1546 25.0891 81.4103 0.0000 -17.0902 0.0000
# 4 0.0000 0.0000 0.0000 47.0810 0.0000 -9.5640
# 5 -17.3721 -4.0299 -17.0902 0.0000 33.3808 0.0000
# 6 0.0000 0.0000 0.0000 -9.5640 0.0000 37.7424
#
#
#
# Elastic Compliance Matrix: (Units=1/GPa)
#
#
# Indices 1 2 3 4 5 6 
#
# 1 0.006659 -0.003583 -0.000538 0.000000 0.002757 0.000000
# 2 -0.003583 0.011825 -0.002847 0.000000 -0.001895 0.000000
# 3 -0.000538 -0.002847 0.014800 0.000000 0.006954 0.000000
# 4 0.000000 0.000000 0.000000 0.022393 0.000000 0.005674
# 5 0.002757 -0.001895 0.006954 0.000000 0.034724 0.000000
# 6 0.000000 0.000000 0.000000 0.005674 0.000000 0.027933
#
#
# Mechanical properties :
#
#
# Convention : Reuss Voigt Hill
#
# Bulk Modulus (GPa) = 51.68434 68.03159 59.85797
# Shear Modulus (GPa) = 36.04409 41.56083 38.80246
#
# Velocity S-wave (km/s) = 3.89024 4.17736 4.03636
# Velocity P-wave (km/s) = 6.47145 7.19944 6.84513
#
# Compressibility (1/GPa) = 0.01934822
#
# Stress axis : x y z
#
# Youngs Moduli (GPa) = 150.17992 84.56372 67.56746
#
# Poissons Ratio (x) = 0.30299 0.03635
# Poissons Ratio (y) = 0.53809 0.19236
# Poissons Ratio (z) = 0.08079 0.24075
#
# Static dielectric constant tensor:
#      x y z
#    x 1.919660 0.000000 0.067220 
#    y 0.000000 1.934950 0.000000 
#    z 0.067220 0.000000 1.333460 
# 
# From -- ./inp_files/10407.got.cif
#   From: 2010.05.17/outbox.cif.g08.bks.cpg/sg15_6_cif.got.tgz:10407.got - 2010.06.03 18:47:42.
