data_PCOD9296987
_publ_section_title
;
Structure prediction by ZEFSAII (Michael W. Deem and Ramdas Pophale) SiO2 
 PCOD9296987
Probable space group: C 2/C
;
_chemical_formula_sum "Si O2"
_cell_formula_units_Z 48
_cell_length_a 21.006307
_cell_length_b 8.868283
_cell_length_c 11.124579
_cell_angle_alpha 90.000000
_cell_angle_beta 106.707700
_cell_angle_gamma 90.000000
_cell_volume 1984.907872
_symmetry_space_group_name_H-M "C 2/C"
_symmetry_group_IT_number 15
_symmetry_cell_setting 'monoclinic'
loop_
_space_group_symop_operation_xyz
x,y,z
-x,y,1/2-z
-x,-y,-z
x,-y,1/2+z
1/2+x,1/2+y,z
1/2-x,1/2+y,1/2-z
1/2-x,1/2-y,-z
1/2+x,1/2-y,1/2+z
loop_
_atom_site_type_symbol
_atom_site_label
_atom_site_fract_x
_atom_site_fract_y
_atom_site_fract_z
Si Si1 0.871365 0.830154 0.542499
Si Si2 0.671692 0.958288 0.555209
Si Si3 0.781110 0.904538 0.960488
Si Si4 0.013788 0.172844 0.030720
Si Si5 0.968837 0.562364 0.107606
Si Si6 0.841802 0.739536 0.789099
O O1 0.840683 0.717989 0.424320
O O2 0.842339 0.766860 0.649810
O O3 0.949399 0.791683 0.577208
O O4 0.851148 0.005819 0.522316
O O5 0.732454 0.978418 0.497667
O O6 0.608387 0.023994 0.445966
O O7 0.673985 0.071620 0.670335
O O8 0.750000 0.750000 0.000000
O O9 0.791570 0.854063 0.828877
O O10 0.083262 0.216985 0.128939
O O11 0.015254 0.261870 0.905326
O O12 0.000000 0.000000 0.000000
O O13 0.000000 0.511857 0.250000
O O14 0.000000 0.500000 0.000000
#
# Coordination Sequence:
#
# PCOD9296987 Si02
#       6
#     8   8   8   8   8   8
#     4  12  23  41  72 100 135 194 234 295 371 424
#     4  10  24  42  69  98 144 178 240 292 353 436
#     4  10  23  47  63  97 141 178 242 294 352 433
#     4  11  23  44  65 100 143 179 238 299 352 428
#     4  11  25  44  71 109 144 190 239 298 370 430
#     4  10  24  43  67 100 140 184 235 297 359 424
#
# _framework density 24.182480999999999
#
# number of rings (size 3 to 8) (size 9 to 14) (size 15 to 20)
#    0.000    1.333    3.333    1.000    4.667    4.000 
#    0.000    3.333    0.000    0.000    0.000    0.000 
#    0.000    0.000    0.000    0.000    0.000    0.000 
#
# Total GULP energy -133852.225764 kJ/mol
# GULP energy per Si atom -5577.176074 kJ/mol
# Density = 2.412744 g / cm^3
# Si number density = 24.182481 Si / 1000 Ang^3
#
#
#
# Elastic Constant Matrix: (Units=GPa)
#
#
# Indices 1 2 3 4 5 6 
#
# 1 134.3271 21.6226 18.0448 0.0000 -18.7227 0.0000
# 2 21.6226 126.7210 30.2761 0.0000 -0.0333 0.0000
# 3 18.0448 30.2761 96.4718 0.0000 -11.1686 0.0000
# 4 0.0000 0.0000 0.0000 21.1098 0.0000 -0.2209
# 5 -18.7227 -0.0333 -11.1686 0.0000 31.8787 0.0000
# 6 0.0000 0.0000 0.0000 -0.2209 0.0000 42.8943
#
#
#
# Elastic Compliance Matrix: (Units=1/GPa)
#
#
# Indices 1 2 3 4 5 6 
#
# 1 0.008391 -0.001282 -0.000622 0.000000 0.004709 0.000000
# 2 -0.001282 0.008756 -0.002704 0.000000 -0.001691 0.000000
# 3 -0.000622 -0.002704 0.011765 0.000000 0.003754 0.000000
# 4 0.000000 0.000000 0.000000 0.047374 0.000000 0.000244
# 5 0.004709 -0.001691 0.003754 0.000000 0.035448 0.000000
# 6 0.000000 0.000000 0.000000 0.000244 0.000000 0.023314
#
#
# Mechanical properties :
#
#
# Convention : Reuss Voigt Hill
#
# Bulk Modulus (GPa) = 50.77145 55.26743 53.01944
# Shear Modulus (GPa) = 33.15027 38.34834 35.74930
#
# Velocity S-wave (km/s) = 3.70650 3.98652 3.84906
# Velocity P-wave (km/s) = 6.27361 6.64031 6.45956
#
# Compressibility (1/GPa) = 0.01969611
#
# Stress axis : x y z
#
# Youngs Moduli (GPa) = 119.17935 114.21235 84.99651
#
# Poissons Ratio (x) = 0.14640 0.05287
# Poissons Ratio (y) = 0.15277 0.22981
# Poissons Ratio (z) = 0.07413 0.30881
#
# Static dielectric constant tensor:
#      x y z
#    x 1.997080 0.000000 0.027800 
#    y 0.000000 2.137670 0.000000 
#    z 0.027800 0.000000 1.877850 
# 
# From -- ./inp_files/116367.got.cif
#   From: 2010.05.17/outbox.cif.g08.bks.cpg/sg15_59_cif.got.tgz:116367.got - 2010.06.03 18:47:42.
