data_PCOD9296296
_publ_section_title
;
Structure prediction by ZEFSAII (Michael W. Deem and Ramdas Pophale) SiO2 
 PCOD9296296
Probable space group: C 2/C
;
_chemical_formula_sum "Si O2"
_cell_formula_units_Z 40
_cell_length_a 14.923024
_cell_length_b 13.394752
_cell_length_c 11.823699
_cell_angle_alpha 90.000000
_cell_angle_beta 136.319627
_cell_angle_gamma 90.000000
_cell_volume 1632.274830
_symmetry_space_group_name_H-M "C 2/C"
_symmetry_group_IT_number 15
_symmetry_cell_setting 'monoclinic'
loop_
_space_group_symop_operation_xyz
x,y,z
-x,y,1/2-z
-x,-y,-z
x,-y,1/2+z
1/2+x,1/2+y,z
1/2-x,1/2+y,1/2-z
1/2-x,1/2-y,-z
1/2+x,1/2-y,1/2+z
loop_
_atom_site_type_symbol
_atom_site_label
_atom_site_fract_x
_atom_site_fract_y
_atom_site_fract_z
Si Si1 0.145735 0.533429 0.651210
Si Si2 0.456791 0.688055 0.967951
Si Si3 0.816009 0.054139 0.998997
Si Si4 0.302726 0.652512 0.611931
Si Si5 0.724551 0.665305 0.308645
O O1 0.179725 0.568019 0.808454
O O2 0.193828 0.608783 0.598745
O O3 0.234674 0.435659 0.717364
O O4 0.000000 0.500000 0.500000
O O5 0.422659 0.586554 0.004676
O O6 0.422300 0.678759 0.804476
O O7 0.351391 0.766009 0.920031
O O8 0.602598 0.712808 0.133488
O O9 0.816852 0.129589 0.104908
O O10 0.831350 0.942012 0.058001
O O11 0.250000 0.750000 0.500000
#
# Coordination Sequence:
#
# PCOD9296296 Si02
#       5
#     8   8   8   8   8
#     4  10  24  46  73 104 146 185 242 300 361 435
#     4  11  25  45  71 107 143 186 238 300 352 434
#     4  10  23  44  71 102 141 189 236 294 361 430
#     4  10  23  46  73 105 141 192 237 302 363 437
#     4  11  25  44  73 103 145 186 239 294 361 425
#
# _framework density 24.505678
#
# number of rings (size 3 to 8) (size 9 to 14) (size 15 to 20)
#    0.000    1.600    0.000    2.400    5.600   12.000 
#    3.600    2.000    0.000    0.000    0.000    0.000 
#    0.000    0.000    0.000    0.000    0.000    0.000 
#
# Total GULP energy -112105.325363 kJ/mol
# GULP energy per Si atom -5605.266268 kJ/mol
# Density = 2.444990 g / cm^3
# Si number density = 24.505678 Si / 1000 Ang^3
#
#
#
# Elastic Constant Matrix: (Units=GPa)
#
#
# Indices 1 2 3 4 5 6 
#
# 1 66.6371 54.2974 69.1645 0.0000 7.6364 0.0000
# 2 54.2974 162.5861 59.5784 0.0000 -8.2014 0.0000
# 3 69.1645 59.5784 192.9383 0.0000 4.6234 0.0000
# 4 0.0000 0.0000 0.0000 41.9623 0.0000 -9.0025
# 5 7.6364 -8.2014 4.6234 0.0000 55.5362 0.0000
# 6 0.0000 0.0000 0.0000 -9.0025 0.0000 41.2176
#
#
#
# Elastic Compliance Matrix: (Units=1/GPa)
#
#
# Indices 1 2 3 4 5 6 
#
# 1 0.030214 -0.007204 -0.008499 0.000000 -0.004511 0.000000
# 2 -0.007204 0.008734 -0.000170 0.000000 0.002295 0.000000
# 3 -0.008499 -0.000170 0.008271 0.000000 0.000455 0.000000
# 4 0.000000 0.000000 0.000000 0.025002 0.000000 0.005461
# 5 -0.004511 0.002295 0.000455 0.000000 0.018928 0.000000
# 6 0.000000 0.000000 0.000000 0.005461 0.000000 0.025454
#
#
# Mechanical properties :
#
#
# Convention : Reuss Voigt Hill
#
# Bulk Modulus (GPa) = 64.61797 87.58246 76.10022
# Shear Modulus (GPa) = 32.57192 43.68464 38.12828
#
# Velocity S-wave (km/s) = 3.64972 4.22670 3.94876
# Velocity P-wave (km/s) = 6.64728 7.72252 7.20499
#
# Compressibility (1/GPa) = 0.01547557
#
# Stress axis : x y z
#
# Youngs Moduli (GPa) = 33.09692 114.49161 120.90276
#
# Poissons Ratio (x) = 0.82476 1.02751
# Poissons Ratio (y) = 0.23842 0.02052
# Poissons Ratio (z) = 0.28128 0.01943
#
# Static dielectric constant tensor:
#      x y z
#    x 1.948320 0.000000 -0.006040 
#    y 0.000000 1.996200 0.000000 
#    z -0.006040 0.000000 1.972940 
# 
# From -- ./inp_files/105544.got.cif
#   From: 2010.05.17/outbox.cif.g08.bks.cpg/sg15_53_cif.got.tgz:105544.got - 2010.06.03 18:47:42.
