data_PCOD9296954
_publ_section_title
;
Structure prediction by ZEFSAII (Michael W. Deem and Ramdas Pophale) SiO2 
 PCOD9296954
Probable space group: C 2/C
;
_chemical_formula_sum "Si O2"
_cell_formula_units_Z 36
_cell_length_a 7.459403
_cell_length_b 22.602510
_cell_length_c 9.236524
_cell_angle_alpha 90.000000
_cell_angle_beta 109.408297
_cell_angle_gamma 90.000000
_cell_volume 1468.795646
_symmetry_space_group_name_H-M "C 2/C"
_symmetry_group_IT_number 15
_symmetry_cell_setting 'monoclinic'
loop_
_space_group_symop_operation_xyz
x,y,z
-x,y,1/2-z
-x,-y,-z
x,-y,1/2+z
1/2+x,1/2+y,z
1/2-x,1/2+y,1/2-z
1/2-x,1/2-y,-z
1/2+x,1/2-y,1/2+z
loop_
_atom_site_type_symbol
_atom_site_label
_atom_site_fract_x
_atom_site_fract_y
_atom_site_fract_z
Si Si1 0.838346 0.073709 0.397248
Si Si2 0.500000 0.092396 0.750000
Si Si3 0.364274 0.193633 0.084569
Si Si4 0.740248 0.034309 0.056106
Si Si5 0.374755 0.799595 0.103776
O O1 0.767354 0.139775 0.402948
O O2 0.732306 0.047041 0.225646
O O3 0.064375 0.069279 0.432981
O O4 0.790403 0.032450 0.521617
O O5 0.435359 0.053147 0.595274
O O6 0.670778 0.142904 0.808471
O O7 0.500000 0.212986 0.250000
O O8 0.250000 0.250000 0.000000
O O9 0.506032 0.173285 0.996045
O O10 0.500000 0.762580 0.250000
O O11 0.250000 0.750000 0.000000
#
# Coordination Sequence:
#
# PCOD9296954 Si02
#       5
#     8   4   8   8   8
#     4  10  25  46  75 108 151 191 255 308 385 445
#     4  10  24  40  72  98 140 200 238 304 374 444
#     4  12  27  46  70 108 146 197 248 309 370 456
#     4  10  23  46  74 110 148 197 243 321 376 453
#     4  10  24  44  67 102 140 193 242 299 366 436
#
# _framework density 24.509879000000002
#
# number of rings (size 3 to 8) (size 9 to 14) (size 15 to 20)
#    0.667    0.889    0.000    2.667    7.778    0.889 
#    4.000    0.000    0.000    0.000    0.000    0.000 
#    0.000    0.000    0.000    0.000    0.000    0.000 
#
# Total GULP energy -100347.660577 kJ/mol
# GULP energy per Si atom -5574.870032 kJ/mol
# Density = 2.445409 g / cm^3
# Si number density = 24.509879 Si / 1000 Ang^3
#
#
#
# Elastic Constant Matrix: (Units=GPa)
#
#
# Indices 1 2 3 4 5 6 
#
# 1 76.8410 28.1302 27.5581 0.0000 -0.6220 0.0000
# 2 28.1302 130.6062 51.5934 0.0000 12.5354 0.0000
# 3 27.5581 51.5934 193.2528 0.0000 18.1513 0.0000
# 4 0.0000 0.0000 0.0000 51.2552 0.0000 0.6743
# 5 -0.6220 12.5354 18.1513 0.0000 38.9777 0.0000
# 6 0.0000 0.0000 0.0000 0.6743 0.0000 16.5613
#
#
#
# Elastic Compliance Matrix: (Units=1/GPa)
#
#
# Indices 1 2 3 4 5 6 
#
# 1 0.014567 -0.002709 -0.001524 0.000000 0.001814 0.000000
# 2 -0.002709 0.009181 -0.001865 0.000000 -0.002127 0.000000
# 3 -0.001524 -0.001865 0.006103 0.000000 -0.002267 0.000000
# 4 0.000000 0.000000 0.000000 0.019521 0.000000 -0.000795
# 5 0.001814 -0.002127 -0.002267 0.000000 0.027424 0.000000
# 6 0.000000 0.000000 0.000000 -0.000795 0.000000 0.060414
#
#
# Mechanical properties :
#
#
# Convention : Reuss Voigt Hill
#
# Bulk Modulus (GPa) = 56.64566 68.36262 62.50414
# Shear Modulus (GPa) = 32.19744 40.92004 36.55874
#
# Velocity S-wave (km/s) = 3.62836 4.09042 3.86630
# Velocity P-wave (km/s) = 6.38082 7.08951 6.74448
#
# Compressibility (1/GPa) = 0.01765360
#
# Stress axis : x y z
#
# Youngs Moduli (GPa) = 68.64777 108.92006 163.86185
#
# Poissons Ratio (x) = 0.29511 0.24977
# Poissons Ratio (y) = 0.18600 0.30559
# Poissons Ratio (z) = 0.10464 0.20313
#
# Static dielectric constant tensor:
#      x y z
#    x 2.144610 0.000000 -0.031720 
#    y 0.000000 1.899890 0.000000 
#    z -0.031720 0.000000 2.017880 
# 
# From -- ./inp_files/78825.got.cif
#   From: 2010.05.17/outbox.cif.g08.bks.cpg/sg15_40_cif.got.tgz:78825.got - 2010.06.03 18:47:42.
