data_PCOD9296413
_publ_section_title
;
Structure prediction by ZEFSAII (Michael W. Deem and Ramdas Pophale) SiO2 
 PCOD9296413
Probable space group: C 2/C
;
_chemical_formula_sum "Si O2"
_cell_formula_units_Z 40
_cell_length_a 8.390001
_cell_length_b 18.744289
_cell_length_c 10.544453
_cell_angle_alpha 90.000000
_cell_angle_beta 92.462108
_cell_angle_gamma 90.000000
_cell_volume 1656.738389
_symmetry_space_group_name_H-M "C 2/C"
_symmetry_group_IT_number 15
_symmetry_cell_setting 'monoclinic'
loop_
_space_group_symop_operation_xyz
x,y,z
-x,y,1/2-z
-x,-y,-z
x,-y,1/2+z
1/2+x,1/2+y,z
1/2-x,1/2+y,1/2-z
1/2-x,1/2-y,-z
1/2+x,1/2-y,1/2+z
loop_
_atom_site_type_symbol
_atom_site_label
_atom_site_fract_x
_atom_site_fract_y
_atom_site_fract_z
Si Si1 0.173719 0.493356 0.945154
Si Si2 0.203533 0.139334 0.528852
Si Si3 0.809708 0.877952 0.758938
Si Si4 0.186652 0.717663 0.738091
Si Si5 0.889542 0.905478 0.125031
O O1 0.215344 0.571905 0.898056
O O2 0.211994 0.435101 0.838085
O O3 0.296732 0.471173 0.061296
O O4 0.000000 0.500000 0.000000
O O5 0.256590 0.132044 0.386339
O O6 0.240010 0.206405 0.618528
O O7 0.015055 0.125275 0.528322
O O8 0.791692 0.797556 0.812129
O O9 0.000000 0.894876 0.750000
O O10 0.269599 0.657905 0.656030
O O11 0.000000 0.705601 0.750000
O O12 0.000000 0.923201 0.250000
#
# Coordination Sequence:
#
# PCOD9296413 Si02
#       5
#     8   8   8   8   8
#     4  12  27  46  72 112 146 194 251 318 368 436
#     4  11  24  45  74 100 146 193 248 300 375 447
#     4  11  25  46  75 107 145 197 250 300 377 452
#     4  10  23  46  72 106 147 192 243 311 367 447
#     4  10  23  44  74 101 149 197 242 300 378 448
#
# _framework density 24.143823000000001
#
# number of rings (size 3 to 8) (size 9 to 14) (size 15 to 20)
#    0.000    1.200    2.000    2.400    5.600    1.600 
#   14.400    0.000    0.000    0.000    0.000    0.000 
#    0.000    0.000    0.000    0.000    0.000    0.000 
#
# Total GULP energy -111906.992196 kJ/mol
# GULP energy per Si atom -5595.349610 kJ/mol
# Density = 2.408887 g / cm^3
# Si number density = 24.143823 Si / 1000 Ang^3
#
#
#
# Elastic Constant Matrix: (Units=GPa)
#
#
# Indices 1 2 3 4 5 6 
#
# 1 105.4172 38.6373 13.2260 0.0000 -18.7496 0.0000
# 2 38.6373 135.9711 34.9269 0.0000 -13.7631 0.0000
# 3 13.2260 34.9269 105.0736 0.0000 -10.1760 0.0000
# 4 0.0000 0.0000 0.0000 49.3666 0.0000 -4.1029
# 5 -18.7496 -13.7631 -10.1760 0.0000 37.3647 0.0000
# 6 0.0000 0.0000 0.0000 -4.1029 0.0000 -80.8119
#
#
#
# Elastic Compliance Matrix: (Units=1/GPa)
#
#
# Indices 1 2 3 4 5 6 
#
# 1 0.011323 -0.002729 -0.000067 0.000000 0.004659 0.000000
# 2 -0.002729 0.008895 -0.002494 0.000000 0.001228 0.000000
# 3 -0.000067 -0.002494 0.010540 0.000000 0.001918 0.000000
# 4 0.000000 0.000000 0.000000 0.020172 0.000000 -0.001024
# 5 0.004659 0.001228 0.001918 0.000000 0.030076 0.000000
# 6 0.000000 0.000000 0.000000 -0.001024 0.000000 -0.012322
#
#
# Mechanical properties :
#
#
# Convention : Reuss Voigt Hill
#
# Bulk Modulus (GPa) = 49.55825 57.78246 53.67035
# Shear Modulus (GPa) = 58.14640 18.49533 38.32087
#
# Velocity S-wave (km/s) = 4.91280 2.77076 3.98828
# Velocity P-wave (km/s) = 7.26303 5.84985 6.59441
#
# Compressibility (1/GPa) = 0.02017828
#
# Stress axis : x y z
#
# Youngs Moduli (GPa) = 88.31359 112.42388 94.87240
#
# Poissons Ratio (x) = 0.30679 0.00636
# Poissons Ratio (y) = 0.24099 0.23664
# Poissons Ratio (z) = 0.00592 0.28042
#
# Static dielectric constant tensor:
#      x y z
#    x 1.907170 0.000000 0.026080 
#    y 0.000000 1.904480 0.000000 
#    z 0.026080 0.000000 2.045290 
# 
# From -- ./inp_files/77805.got.cif
#   From: 2010.05.17/outbox.cif.g08.bks.cpg/sg15_39_cif.got.tgz:77805.got - 2010.06.03 18:47:42.
