data_PCOD9296502
_publ_section_title
;
Structure prediction by ZEFSAII (Michael W. Deem and Ramdas Pophale) SiO2 
 PCOD9296502
Probable space group: C 2/C
;
_chemical_formula_sum "Si O2"
_cell_formula_units_Z 40
_cell_length_a 17.377909
_cell_length_b 17.929260
_cell_length_c 5.213724
_cell_angle_alpha 90.000000
_cell_angle_beta 76.115697
_cell_angle_gamma 90.000000
_cell_volume 1576.992951
_symmetry_space_group_name_H-M "C 2/C"
_symmetry_group_IT_number 15
_symmetry_cell_setting 'monoclinic'
loop_
_space_group_symop_operation_xyz
x,y,z
-x,y,1/2-z
-x,-y,-z
x,-y,1/2+z
1/2+x,1/2+y,z
1/2-x,1/2+y,1/2-z
1/2-x,1/2-y,-z
1/2+x,1/2-y,1/2+z
loop_
_atom_site_type_symbol
_atom_site_label
_atom_site_fract_x
_atom_site_fract_y
_atom_site_fract_z
Si Si1 0.329247 0.449351 0.375697
Si Si2 0.374444 0.790623 0.758096
Si Si3 0.292287 0.684498 0.218209
Si Si4 0.406804 0.037854 0.313086
Si Si5 0.429522 0.647693 0.492727
O O1 0.320191 0.502917 0.626188
O O2 0.278127 0.377745 0.503702
O O3 0.412413 0.406755 0.244724
O O4 0.296846 0.794623 0.635907
O O5 0.403271 0.873730 0.780983
O O6 0.436575 0.732783 0.586093
O O7 0.340375 0.750208 0.038755
O O8 0.348941 0.649473 0.386316
O O9 0.500000 0.017331 0.250000
O O10 0.370170 0.006183 0.602880
O O11 0.500000 0.625667 0.250000
#
# Coordination Sequence:
#
# PCOD9296502 Si02
#       5
#     8   8   8   8   8
#     4  11  23  45  69 100 140 185 230 289 347 417
#     4  10  24  42  71  97 142 184 233 299 354 421
#     4  10  23  45  66 104 136 185 240 291 353 426
#     4  10  24  44  67 101 136 174 227 284 353 419
#     4  11  25  42  71 104 139 188 242 288 357 423
#
# _framework density 25.364730000000002
#
# number of rings (size 3 to 8) (size 9 to 14) (size 15 to 20)
#    0.000    1.600    2.000    0.600    5.600    5.600 
#    0.000    0.000    0.000    0.000    0.000    0.000 
#    0.000    0.000    0.000    0.000    0.000    0.000 
#
# Total GULP energy -111826.074064 kJ/mol
# GULP energy per Si atom -5591.303703 kJ/mol
# Density = 2.530700 g / cm^3
# Si number density = 25.364730 Si / 1000 Ang^3
#
#
#
# Elastic Constant Matrix: (Units=GPa)
#
#
# Indices 1 2 3 4 5 6 
#
# 1 63.6601 -16.6044 25.4362 0.0000 0.4709 0.0000
# 2 -16.6044 98.2985 54.1639 0.0000 6.4829 0.0000
# 3 25.4362 54.1639 139.1928 0.0000 18.1110 0.0000
# 4 0.0000 0.0000 0.0000 32.3728 0.0000 2.2822
# 5 0.4709 6.4829 18.1110 0.0000 38.2769 0.0000
# 6 0.0000 0.0000 0.0000 2.2822 0.0000 19.0406
#
#
#
# Elastic Compliance Matrix: (Units=1/GPa)
#
#
# Indices 1 2 3 4 5 6 
#
# 1 0.020137 0.006923 -0.006595 0.000000 0.001700 0.000000
# 2 0.006923 0.015332 -0.007334 0.000000 0.000788 0.000000
# 3 -0.006595 -0.007334 0.011797 0.000000 -0.004259 0.000000
# 4 0.000000 0.000000 0.000000 0.031153 0.000000 -0.003734
# 5 0.001700 0.000788 -0.004259 0.000000 0.027986 0.000000
# 6 0.000000 0.000000 0.000000 -0.003734 0.000000 0.052967
#
#
# Mechanical properties :
#
#
# Convention : Reuss Voigt Hill
#
# Bulk Modulus (GPa) = 30.07079 47.46029 38.76554
# Shear Modulus (GPa) = 27.10496 33.81509 30.46003
#
# Velocity S-wave (km/s) = 3.27250 3.65520 3.46913
# Velocity P-wave (km/s) = 5.11470 6.04696 5.60026
#
# Compressibility (1/GPa) = 0.03325486
#
# Stress axis : x y z
#
# Youngs Moduli (GPa) = 49.66031 65.22489 84.76481
#
# Poissons Ratio (x) = -0.45157 0.55903
# Poissons Ratio (y) = -0.34382 0.62164
# Poissons Ratio (z) = 0.32751 0.47834
#
# Static dielectric constant tensor:
#      x y z
#    x 2.059050 0.000000 0.090690 
#    y 0.000000 2.017430 0.000000 
#    z 0.090690 0.000000 2.212420 
# 
# From -- ./inp_files/9807.got.cif
#   From: 2010.05.17/outbox.cif.g08.bks.cpg/sg15_5_cif.got.tgz:9807.got - 2010.06.03 18:47:42.
