data_PCOD9296117
_publ_section_title
;
Structure prediction by ZEFSAII (Michael W. Deem and Ramdas Pophale) SiO2 
 PCOD9296117
Probable space group: C 2/C
;
_chemical_formula_sum "Si O2"
_cell_formula_units_Z 36
_cell_length_a 21.667414
_cell_length_b 13.348762
_cell_length_c 8.087696
_cell_angle_alpha 90.000000
_cell_angle_beta 39.065350
_cell_angle_gamma 90.000000
_cell_volume 1474.197535
_symmetry_space_group_name_H-M "C 2/C"
_symmetry_group_IT_number 15
_symmetry_cell_setting 'monoclinic'
loop_
_space_group_symop_operation_xyz
x,y,z
-x,y,1/2-z
-x,-y,-z
x,-y,1/2+z
1/2+x,1/2+y,z
1/2-x,1/2+y,1/2-z
1/2-x,1/2-y,-z
1/2+x,1/2-y,1/2+z
loop_
_atom_site_type_symbol
_atom_site_label
_atom_site_fract_x
_atom_site_fract_y
_atom_site_fract_z
Si Si1 0.500000 0.993400 0.750000
Si Si2 0.463223 0.318245 0.008360
Si Si3 0.325800 0.341636 0.825174
Si Si4 0.814997 0.963246 0.191654
Si Si5 0.877482 0.616850 0.236422
O O1 0.588760 0.063680 0.503377
O O2 0.538766 0.922443 0.813160
O O3 0.500000 0.286636 0.750000
O O4 0.559989 0.312052 0.917599
O O5 0.412772 0.425359 0.083943
O O6 0.383492 0.235944 0.220885
O O7 0.308374 0.416925 0.709450
O O8 0.250000 0.250000 0.000000
O O9 0.315288 0.409831 0.013007
O O10 0.723441 0.922013 0.483608
#
# Coordination Sequence:
#
# PCOD9296117 Si02
#       5
#     4   8   8   8   8
#     4  10  24  36  64  98 142 178 236 304 338 414
#     4  10  23  44  67  99 139 183 229 289 346 416
#     4  11  27  47  72 103 144 185 233 290 351 419
#     4  11  25  45  71 101 137 185 235 288 350 421
#     4  11  22  40  66  98 136 180 236 287 353 401
#
# _framework density 24.420065000000001
#
# number of rings (size 3 to 8) (size 9 to 14) (size 15 to 20)
#    0.000    1.333    1.111    2.667    9.333    5.333 
#    0.000    0.000    0.000    0.000    0.000    0.000 
#    0.000    0.000    0.000    0.000    0.000    0.000 
#
# Total GULP energy -100767.560760 kJ/mol
# GULP energy per Si atom -5598.197820 kJ/mol
# Density = 2.436448 g / cm^3
# Si number density = 24.420065 Si / 1000 Ang^3
#
#
#
# Elastic Constant Matrix: (Units=GPa)
#
#
# Indices 1 2 3 4 5 6 
#
# 1 66.9848 30.4056 -2.5941 0.0000 -12.5480 0.0000
# 2 30.4056 128.5826 -4.0670 0.0000 -1.0704 0.0000
# 3 -2.5941 -4.0670 49.7888 0.0000 -3.1094 0.0000
# 4 0.0000 0.0000 0.0000 39.8326 0.0000 -2.7454
# 5 -12.5480 -1.0704 -3.1094 0.0000 34.2271 0.0000
# 6 0.0000 0.0000 0.0000 -2.7454 0.0000 11.8058
#
#
#
# Elastic Compliance Matrix: (Units=1/GPa)
#
#
# Indices 1 2 3 4 5 6 
#
# 1 0.018108 -0.004195 0.001013 0.000000 0.006600 0.000000
# 2 -0.004195 0.008772 0.000421 0.000000 -0.001225 0.000000
# 3 0.001013 0.000421 0.020311 0.000000 0.002230 0.000000
# 4 0.000000 0.000000 0.000000 0.025514 0.000000 0.005933
# 5 0.006600 -0.001225 0.002230 0.000000 0.031800 0.000000
# 6 0.000000 0.000000 0.000000 0.005933 0.000000 0.086084
#
#
# Mechanical properties :
#
#
# Convention : Reuss Voigt Hill
#
# Bulk Modulus (GPa) = 23.99768 32.53834 28.26801
# Shear Modulus (GPa) = 23.80931 31.94721 27.87826
#
# Velocity S-wave (km/s) = 3.12587 3.62088 3.38244
# Velocity P-wave (km/s) = 4.78293 5.55287 5.18222
#
# Compressibility (1/GPa) = 0.04167070
#
# Stress axis : x y z
#
# Youngs Moduli (GPa) = 55.22276 113.99607 49.23371
#
# Poissons Ratio (x) = 0.47822 -0.04987
# Poissons Ratio (y) = 0.23166 -0.02075
# Poissons Ratio (z) = -0.05594 -0.04805
#
# Static dielectric constant tensor:
#      x y z
#    x 2.023020 0.000000 0.040960 
#    y 0.000000 1.960510 0.000000 
#    z 0.040960 0.000000 1.934810 
# 
# From -- ./inp_files/61134.got.cif
#   From: 2010.05.17/outbox.cif.g08.bks.cpg/sg15_31_cif.got.tgz:61134.got - 2010.06.03 18:47:42.
