data_PCOD9296136
_publ_section_title
;
Structure prediction by ZEFSAII (Michael W. Deem and Ramdas Pophale) SiO2 
 PCOD9296136
Probable space group: C 2/C
;
_chemical_formula_sum "Si O2"
_cell_formula_units_Z 56
_cell_length_a 24.613547
_cell_length_b 11.631466
_cell_length_c 11.490853
_cell_angle_alpha 90.000000
_cell_angle_beta 46.831720
_cell_angle_gamma 90.000000
_cell_volume 2399.360045
_symmetry_space_group_name_H-M "C 2/C"
_symmetry_group_IT_number 15
_symmetry_cell_setting 'monoclinic'
loop_
_space_group_symop_operation_xyz
x,y,z
-x,y,1/2-z
-x,-y,-z
x,-y,1/2+z
1/2+x,1/2+y,z
1/2-x,1/2+y,1/2-z
1/2-x,1/2-y,-z
1/2+x,1/2-y,1/2+z
loop_
_atom_site_type_symbol
_atom_site_label
_atom_site_fract_x
_atom_site_fract_y
_atom_site_fract_z
Si Si1 0.659652 0.809733 0.428593
Si Si2 0.680650 0.539454 0.100177
Si Si3 0.940217 0.773421 0.999611
Si Si4 0.587383 0.049457 0.603575
Si Si5 0.927714 0.843902 0.276041
Si Si6 0.109522 0.267694 0.247238
Si Si7 0.698218 0.429091 0.322796
O O1 0.637480 0.721843 0.560533
O O2 0.618712 0.773754 0.370937
O O3 0.746844 0.822047 0.277513
O O4 0.629742 0.935806 0.505666
O O5 0.602673 0.470009 0.207973
O O6 0.668181 0.675258 0.117284
O O7 0.707744 0.503681 0.190257
O O8 0.718086 0.514660 0.918915
O O9 0.941591 0.776528 0.136917
O O10 0.886022 0.879185 0.045652
O O11 0.909411 0.653645 0.993961
O O12 0.026711 0.776125 0.835876
O O13 0.500000 0.021061 0.750000
O O14 0.618255 0.108308 0.675711
O O15 0.000000 0.846333 0.250000
#
# Coordination Sequence:
#
# PCOD9296136 Si02
#       7
#     8   8   8   8   8   8   8
#     4  12  27  44  68 105 145 190 235 288 359 437
#     4  11  26  47  72 107 145 188 239 296 367 423
#     4  10  23  44  68 104 134 189 239 299 349 419
#     4  10  24  41  70  98 136 187 239 295 344 418
#     4  11  24  42  72 104 141 180 236 301 355 418
#     4  11  24  45  75 100 139 188 243 295 355 419
#     4  11  27  44  72 106 149 190 233 297 361 435
#
# _framework density 23.339555000000001
#
# number of rings (size 3 to 8) (size 9 to 14) (size 15 to 20)
#    0.000    1.143    2.857    1.286    6.000    7.429 
#    0.000    0.000    0.000    0.000    0.000    0.000 
#    0.000    0.000    0.000    0.000    0.000    0.000 
#
# Total GULP energy -156538.026821 kJ/mol
# GULP energy per Si atom -5590.643815 kJ/mol
# Density = 2.328643 g / cm^3
# Si number density = 23.339555 Si / 1000 Ang^3
#
#
#
# Elastic Constant Matrix: (Units=GPa)
#
#
# Indices 1 2 3 4 5 6 
#
# 1 64.5216 10.1293 35.1861 0.0000 14.7031 0.0000
# 2 10.1293 48.7928 8.4640 0.0000 4.5424 0.0000
# 3 35.1861 8.4640 81.9400 0.0000 26.4754 0.0000
# 4 0.0000 0.0000 0.0000 21.2766 0.0000 5.9289
# 5 14.7031 4.5424 26.4754 0.0000 40.4465 0.0000
# 6 0.0000 0.0000 0.0000 5.9289 0.0000 14.8514
#
#
#
# Elastic Compliance Matrix: (Units=1/GPa)
#
#
# Indices 1 2 3 4 5 6 
#
# 1 0.020733 -0.002734 -0.007970 0.000000 -0.002013 0.000000
# 2 -0.002734 0.021274 -0.000726 0.000000 -0.000920 0.000000
# 3 -0.007970 -0.000726 0.018693 0.000000 -0.009257 0.000000
# 4 0.000000 0.000000 0.000000 0.052883 0.000000 -0.021112
# 5 -0.002013 -0.000920 -0.009257 0.000000 0.031618 0.000000
# 6 0.000000 0.000000 0.000000 -0.021112 0.000000 0.075762
#
#
# Mechanical properties :
#
#
# Convention : Reuss Voigt Hill
#
# Bulk Modulus (GPa) = 26.42821 33.64588 30.03704
# Shear Modulus (GPa) = 19.49799 24.74658 22.12228
#
# Velocity S-wave (km/s) = 2.89347 3.25973 3.08205
# Velocity P-wave (km/s) = 4.74456 5.34929 5.05598
#
# Compressibility (1/GPa) = 0.03783836
#
# Stress axis : x y z
#
# Youngs Moduli (GPa) = 48.23208 47.00559 53.49724
#
# Poissons Ratio (x) = 0.12852 0.42639
# Poissons Ratio (y) = 0.13188 0.03885
# Poissons Ratio (z) = 0.38443 0.03413
#
# Static dielectric constant tensor:
#      x y z
#    x 1.903120 0.000000 0.019710 
#    y 0.000000 1.833110 0.000000 
#    z 0.019710 0.000000 1.864880 
# 
# From -- ./inp_files/122638.got.cif
#   From: 2010.05.17/outbox.cif.g08.bks.cpg/sg15_62_cif.got.tgz:122638.got - 2010.06.03 18:47:42.
