data_PCOD9296828
_publ_section_title
;
Structure prediction by ZEFSAII (Michael W. Deem and Ramdas Pophale) SiO2 
 PCOD9296828
Probable space group: C 2/C
;
_chemical_formula_sum "Si O2"
_cell_formula_units_Z 52
_cell_length_a 25.726747
_cell_length_b 5.382771
_cell_length_c 20.161915
_cell_angle_alpha 90.000000
_cell_angle_beta 130.083969
_cell_angle_gamma 90.000000
_cell_volume 2136.198792
_symmetry_space_group_name_H-M "C 2/C"
_symmetry_group_IT_number 15
_symmetry_cell_setting 'monoclinic'
loop_
_space_group_symop_operation_xyz
x,y,z
-x,y,1/2-z
-x,-y,-z
x,-y,1/2+z
1/2+x,1/2+y,z
1/2-x,1/2+y,1/2-z
1/2-x,1/2-y,-z
1/2+x,1/2-y,1/2+z
loop_
_atom_site_type_symbol
_atom_site_label
_atom_site_fract_x
_atom_site_fract_y
_atom_site_fract_z
Si Si1 0.920896 0.935771 0.096560
Si Si2 0.683901 0.068817 0.637281
Si Si3 0.054459 0.278011 0.498368
Si Si4 0.460825 0.163603 0.368500
Si Si5 0.236669 0.568316 0.827360
Si Si6 0.127657 0.653155 0.321926
Si Si7 0.500000 0.186622 0.750000
O O1 0.870026 0.833028 0.111838
O O2 0.971726 0.719281 0.118085
O O3 0.969793 0.131292 0.171522
O O4 0.907064 0.082922 0.017334
O O5 0.608835 0.003285 0.551463
O O6 0.729745 0.840209 0.646997
O O7 0.690053 0.060010 0.722344
O O8 0.712887 0.334118 0.639579
O O9 0.044644 0.192596 0.566297
O O10 0.982794 0.385316 0.411386
O O11 0.398691 0.257684 0.270941
O O12 0.193656 0.505160 0.857738
O O13 0.064573 0.471018 0.282011
#
# Coordination Sequence:
#
# PCOD9296828 Si02
#       7
#     8   8   8   8   8   8   4
#     4  12  23  40  64  98 139 178 217 276 347 417
#     4  10  23  46  68  98 137 180 237 282 341 399
#     4  11  24  41  68 100 139 174 221 293 345 407
#     4  11  22  41  64 106 134 171 221 280 363 396
#     4  10  24  44  70  98 132 188 232 285 331 412
#     4  12  22  42  66 100 134 176 231 274 343 421
#     4  12  22  40  66  94 138 174 220 276 340 422
#
# _framework density 24.342303999999999
#
# number of rings (size 3 to 8) (size 9 to 14) (size 15 to 20)
#    0.000    0.923    6.154    0.462    4.308    0.000 
#    2.769    1.538    0.000    0.000    0.000    0.000 
#    0.000    0.000    0.000    0.000    0.000    0.000 
#
# Total GULP energy -144993.049658 kJ/mol
# GULP energy per Si atom -5576.655756 kJ/mol
# Density = 2.428690 g / cm^3
# Si number density = 24.342304 Si / 1000 Ang^3
#
#
#
# Elastic Constant Matrix: (Units=GPa)
#
#
# Indices 1 2 3 4 5 6 
#
# 1 84.7407 16.5690 27.4338 0.0005 -23.3899 0.0001
# 2 16.5690 83.3970 21.9524 0.0001 -11.9311 -0.0007
# 3 27.4338 21.9524 44.2378 0.0004 -15.3634 0.0004
# 4 0.0005 0.0001 0.0004 42.6250 0.0001 -13.9341
# 5 -23.3899 -11.9311 -15.3634 0.0001 37.9654 -0.0004
# 6 0.0001 -0.0007 0.0004 -13.9341 -0.0004 105.3029
#
#
#
# Elastic Compliance Matrix: (Units=1/GPa)
#
#
# Indices 1 2 3 4 5 6 
#
# 1 0.016176 -0.000253 -0.007531 0.000000 0.006839 0.000000
# 2 -0.000253 0.013905 -0.006143 0.000000 0.001728 0.000000
# 3 -0.007531 -0.006143 0.032627 0.000000 0.006633 0.000000
# 4 0.000000 0.000000 0.000000 0.024521 0.000000 0.003245
# 5 0.006839 0.001728 0.006633 0.000000 0.033780 0.000000
# 6 0.000000 0.000000 0.000000 0.003245 0.000000 0.009926
#
#
# Mechanical properties :
#
#
# Convention : Reuss Voigt Hill
#
# Bulk Modulus (GPa) = 28.69083 38.25401 33.47242
# Shear Modulus (GPa) = 29.34135 46.94002 38.14069
#
# Velocity S-wave (km/s) = 3.47560 4.39604 3.96264
# Velocity P-wave (km/s) = 5.28379 6.44329 5.89213
#
# Compressibility (1/GPa) = 0.03485434
#
# Stress axis : x y z
#
# Youngs Moduli (GPa) = 61.82096 71.91438 30.64909
#
# Poissons Ratio (x) = 0.01820 0.23081
# Poissons Ratio (y) = 0.01565 0.18829
# Poissons Ratio (z) = 0.46556 0.44179
#
# Static dielectric constant tensor:
#      x y z
#    x 2.017680 0.000000 -0.135290 
#    y 0.000000 2.064960 0.000000 
#    z -0.135290 0.000000 2.207290 
# 
# From -- ./inp_files/254414.got.cif
#   From: 2010.05.17/outbox.cif.g08.bks.cpg/sg15_128_cif.got.tgz:254414.got - 2010.06.03 18:47:42.
