data_PCOD9296882
_publ_section_title
;
Structure prediction by ZEFSAII (Michael W. Deem and Ramdas Pophale) SiO2 
 PCOD9296882
Probable space group: C 2/C
;
_chemical_formula_sum "Si O2"
_cell_formula_units_Z 48
_cell_length_a 13.079574
_cell_length_b 14.557921
_cell_length_c 10.697680
_cell_angle_alpha 90.000000
_cell_angle_beta 72.908789
_cell_angle_gamma 90.000000
_cell_volume 1947.004260
_symmetry_space_group_name_H-M "C 2/C"
_symmetry_group_IT_number 15
_symmetry_cell_setting 'monoclinic'
loop_
_space_group_symop_operation_xyz
x,y,z
-x,y,1/2-z
-x,-y,-z
x,-y,1/2+z
1/2+x,1/2+y,z
1/2-x,1/2+y,1/2-z
1/2-x,1/2-y,-z
1/2+x,1/2-y,1/2+z
loop_
_atom_site_type_symbol
_atom_site_label
_atom_site_fract_x
_atom_site_fract_y
_atom_site_fract_z
Si Si1 0.378207 0.306244 0.752460
Si Si2 0.874475 0.504533 0.289527
Si Si3 0.775624 0.989077 0.858982
Si Si4 0.236979 0.834996 0.410389
Si Si5 0.947494 0.936069 0.127855
Si Si6 0.728926 0.650936 0.450374
O O1 0.500000 0.293641 0.750000
O O2 0.325495 0.387487 0.860621
O O3 0.307678 0.214007 0.775574
O O4 0.366386 0.337330 0.614064
O O5 0.842278 0.502680 0.154256
O O6 0.808950 0.428937 0.399127
O O7 0.832996 0.605255 0.347775
O O8 0.000000 0.490199 0.250000
O O9 0.840806 0.011412 0.708999
O O10 0.000000 0.075522 0.750000
O O11 0.250000 0.750000 0.500000
O O12 0.113803 0.848981 0.411112
O O13 0.198667 0.927476 0.059845
O O14 0.000000 0.000000 0.000000
O O15 0.750000 0.750000 0.500000
#
# Coordination Sequence:
#
# PCOD9296882 Si02
#       6
#     8   8   8   8   8   8
#     4  11  25  45  74 108 155 201 259 325 402 475
#     4  10  23  46  71 103 154 205 253 322 407 480
#     4  10  24  44  74 109 154 200 264 325 397 475
#     4  11  25  46  74 115 160 206 272 332 403 500
#     4  11  27  47  79 114 159 218 275 339 417 486
#     4  11  24  46  75 106 152 198 266 334 392 478
#
# _framework density 24.653258000000001
#
# number of rings (size 3 to 8) (size 9 to 14) (size 15 to 20)
#    0.000    1.333    0.000    4.000   11.667    1.333 
#    0.000   13.333    0.000    0.000    0.000    1.167 
#    0.000    0.000    0.000    0.000    0.000    0.000 
#
# Total GULP energy -133614.441171 kJ/mol
# GULP energy per Si atom -5567.268382 kJ/mol
# Density = 2.459715 g / cm^3
# Si number density = 24.653258 Si / 1000 Ang^3
#
#
#
# Elastic Constant Matrix: (Units=GPa)
#
#
# Indices 1 2 3 4 5 6 
#
# 1 207.0580 46.4819 74.3621 0.0000 20.6705 0.0000
# 2 46.4819 144.5920 62.8138 0.0000 13.1650 0.0000
# 3 74.3621 62.8138 59.2592 0.0000 24.9895 0.0000
# 4 0.0000 0.0000 0.0000 41.3789 0.0000 -3.8502
# 5 20.6705 13.1650 24.9895 0.0000 50.5409 0.0000
# 6 0.0000 0.0000 0.0000 -3.8502 0.0000 33.1175
#
#
#
# Elastic Compliance Matrix: (Units=1/GPa)
#
#
# Indices 1 2 3 4 5 6 
#
# 1 0.010710 0.005226 -0.020920 0.000000 0.004602 0.000000
# 2 0.005226 0.016142 -0.026524 0.000000 0.006773 0.000000
# 3 -0.020920 -0.026524 0.081770 0.000000 -0.024965 0.000000
# 4 0.000000 0.000000 0.000000 0.024431 0.000000 0.002840
# 5 0.004602 0.006773 -0.024965 0.000000 0.028483 0.000000
# 6 0.000000 0.000000 0.000000 0.002840 0.000000 0.030526
#
#
# Mechanical properties :
#
#
# Convention : Reuss Voigt Hill
#
# Bulk Modulus (GPa) = 41.34688 86.46941 63.90815
# Shear Modulus (GPa) = 17.57096 40.15756 28.86426
#
# Velocity S-wave (km/s) = 2.67258 4.04034 3.42542
# Velocity P-wave (km/s) = 5.13141 7.54428 6.45165
#
# Compressibility (1/GPa) = 0.02418562
#
# Stress axis : x y z
#
# Youngs Moduli (GPa) = 93.37029 61.94989 12.22946
#
# Poissons Ratio (x) = -0.32375 0.25584
# Poissons Ratio (y) = -0.48796 0.32438
# Poissons Ratio (z) = 1.95329 1.64318
#
# Static dielectric constant tensor:
#      x y z
#    x 2.101450 0.000000 0.138150 
#    y 0.000000 2.314270 0.000000 
#    z 0.138150 0.000000 2.626600 
# 
# From -- ./inp_files/143467.got.cif
#   From: 2010.05.17/outbox.cif.g08.bks.cpg/sg15_72_cif.got.tgz:143467.got - 2010.06.03 18:47:42.
