data_PCOD9296126
_publ_section_title
;
Structure prediction by ZEFSAII (Michael W. Deem and Ramdas Pophale) SiO2 
 PCOD9296126
Probable space group: C 2/C
;
_chemical_formula_sum "Si O2"
_cell_formula_units_Z 40
_cell_length_a 12.750729
_cell_length_b 5.173162
_cell_length_c 28.235713
_cell_angle_alpha 90.000000
_cell_angle_beta 55.283193
_cell_angle_gamma 90.000000
_cell_volume 1530.909530
_symmetry_space_group_name_H-M "C 2/C"
_symmetry_group_IT_number 15
_symmetry_cell_setting 'monoclinic'
loop_
_space_group_symop_operation_xyz
x,y,z
-x,y,1/2-z
-x,-y,-z
x,-y,1/2+z
1/2+x,1/2+y,z
1/2-x,1/2+y,1/2-z
1/2-x,1/2-y,-z
1/2+x,1/2-y,1/2+z
loop_
_atom_site_type_symbol
_atom_site_label
_atom_site_fract_x
_atom_site_fract_y
_atom_site_fract_z
Si Si1 0.240633 0.956615 0.640653
Si Si2 0.966536 0.935628 0.086262
Si Si3 0.870279 0.288231 0.754082
Si Si4 0.031480 0.790181 0.819070
Si Si5 0.117847 0.696868 0.974850
O O1 0.359551 0.779962 0.626019
O O2 0.105300 0.805572 0.673144
O O3 0.227445 0.202658 0.679367
O O4 0.265721 0.052092 0.580460
O O5 0.906322 0.072235 0.055834
O O6 0.993736 0.147555 0.119440
O O7 0.097260 0.803345 0.033085
O O8 0.000000 0.298448 0.750000
O O9 0.887132 0.544765 0.718512
O O10 0.885506 0.036249 0.717848
O O11 0.000000 0.500000 0.000000
#
# Coordination Sequence:
#
# PCOD9296126 Si02
#       5
#     8   8   8   8   8
#     4  10  23  44  74  98 148 193 233 307 377 417
#     4  10  23  44  71 104 141 185 248 294 366 439
#     4  10  23  44  68 101 142 187 233 295 362 428
#     4  11  25  43  72 104 142 187 244 295 353 450
#     4   9  21  43  69 101 144 185 234 310 358 431
#
# _framework density 26.128257999999999
#
# number of rings (size 3 to 8) (size 9 to 14) (size 15 to 20)
#    0.000    2.000    0.000    1.800   14.000    0.800 
#    3.600    9.000    0.000    0.000    0.000    0.000 
#    0.000    0.000    0.000    0.000    0.000    0.000 
#
# Total GULP energy -111731.731543 kJ/mol
# GULP energy per Si atom -5586.586577 kJ/mol
# Density = 2.606879 g / cm^3
# Si number density = 26.128258 Si / 1000 Ang^3
#
#
#
# Elastic Constant Matrix: (Units=GPa)
#
#
# Indices 1 2 3 4 5 6 
#
# 1 67.0704 24.8180 49.7648 0.0018 1.6553 0.0035
# 2 24.8180 194.3094 87.4185 0.0103 1.4666 0.0137
# 3 49.7648 87.4185 177.4863 0.0006 -6.5801 0.0035
# 4 0.0018 0.0103 0.0006 70.5881 0.0010 1.9218
# 5 1.6553 1.4666 -6.5801 0.0010 44.1765 0.0016
# 6 0.0035 0.0137 0.0035 1.9218 0.0016 -8.5369
#
#
#
# Elastic Compliance Matrix: (Units=1/GPa)
#
#
# Indices 1 2 3 4 5 6 
#
# 1 0.018926 0.000009 -0.005367 -0.000001 -0.001509 0.000005
# 2 0.000009 0.006634 -0.003296 -0.000001 -0.000711 0.000009
# 3 -0.005367 -0.003296 0.008823 0.000001 0.001625 -0.000003
# 4 -0.000001 -0.000001 0.000001 0.014080 0.000000 0.003170
# 5 -0.001509 -0.000711 0.001625 0.000000 0.022959 0.000003
# 6 0.000005 0.000009 -0.000003 0.003170 0.000003 -0.116425
#
#
# Mechanical properties :
#
#
# Convention : Reuss Voigt Hill
#
# Bulk Modulus (GPa) = 58.56998 84.76320 71.66659
# Shear Modulus (GPa) = -227.22553 39.70320 -93.76116
#
# Velocity S-wave (km/s) = -9.33564 3.90237 -5.99690
# Velocity P-wave (km/s) = 9.68197 7.26748 4.52351
#
# Compressibility (1/GPa) = 0.01707359
#
# Stress axis : x y z
#
# Youngs Moduli (GPa) = 52.83811 150.74811 113.34472
#
# Poissons Ratio (x) = -0.00129 0.60828
# Poissons Ratio (y) = -0.00045 0.37359
# Poissons Ratio (z) = 0.28356 0.49687
#
# Static dielectric constant tensor:
#      x y z
#    x 2.055760 0.000000 -0.003900 
#    y 0.000000 2.185930 0.000000 
#    z -0.003900 0.000000 2.228280 
# 
# From -- ./inp_files/312012.got.cif
#   From: 2010.05.17/outbox.cif.g08.bks.cpg/sg15_157_cif.got.tgz:312012.got - 2010.06.03 18:47:42.
