data_PCOD9296584
_publ_section_title
;
Structure prediction by ZEFSAII (Michael W. Deem and Ramdas Pophale) SiO2 
 PCOD9296584
Probable space group: C 2/C
;
_chemical_formula_sum "Si O2"
_cell_formula_units_Z 60
_cell_length_a 8.415758
_cell_length_b 12.261874
_cell_length_c 25.922851
_cell_angle_alpha 90.000000
_cell_angle_beta 93.287681
_cell_angle_gamma 90.000000
_cell_volume 2670.653149
_symmetry_space_group_name_H-M "C 2/C"
_symmetry_group_IT_number 15
_symmetry_cell_setting 'monoclinic'
loop_
_space_group_symop_operation_xyz
x,y,z
-x,y,1/2-z
-x,-y,-z
x,-y,1/2+z
1/2+x,1/2+y,z
1/2-x,1/2+y,1/2-z
1/2-x,1/2-y,-z
1/2+x,1/2-y,1/2+z
loop_
_atom_site_type_symbol
_atom_site_label
_atom_site_fract_x
_atom_site_fract_y
_atom_site_fract_z
Si Si1 0.769116 0.785858 0.596034
Si Si2 0.998619 0.111098 0.031266
Si Si3 0.924651 0.188691 0.571085
Si Si4 0.689129 0.517430 0.853386
Si Si5 0.209153 0.148595 0.131089
Si Si6 0.500000 0.508429 0.750000
Si Si7 0.848078 0.490683 0.716726
Si Si8 0.511154 0.167192 0.666015
O O1 0.602682 0.725222 0.589447
O O2 0.828102 0.839867 0.543831
O O3 0.901159 0.697324 0.615416
O O4 0.777861 0.888652 0.636463
O O5 0.090007 0.099210 0.087069
O O6 0.080904 0.190043 0.990861
O O7 0.000000 0.000000 0.000000
O O8 0.866294 0.074600 0.594634
O O9 0.811781 0.271236 0.598597
O O10 0.550549 0.548333 0.809069
O O11 0.853918 0.575613 0.839523
O O12 0.111946 0.220473 0.171873
O O13 0.322056 0.064015 0.161154
O O14 0.680889 0.469246 0.741594
O O15 0.000000 0.444839 0.750000
O O16 0.890718 0.618176 0.706452
#
# Coordination Sequence:
#
# PCOD9296584 Si02
#       8
#     8   8   8   8   8   4   8   8
#     4  11  23  42  69  99 140 185 236 295 359 429
#     4  11  22  42  69  98 143 185 231 298 367 423
#     4  11  23  43  69 101 138 185 242 287 364 436
#     4  11  23  45  64 102 142 185 237 303 355 429
#     4  10  25  47  71 103 142 189 235 301 362 432
#     4  12  24  42  74 100 144 192 230 300 368 418
#     4  12  25  49  75 107 147 186 246 300 362 434
#     4  10  23  45  68  99 142 183 233 293 352 430
#
# _framework density 22.466412999999999
#
# number of rings (size 3 to 8) (size 9 to 14) (size 15 to 20)
#    0.000    1.067    2.667    4.000    1.867    0.000 
#    9.600    0.667    0.000    0.000    0.000    0.000 
#    0.000    0.000    0.000    0.000    0.000    0.000 
#
# Total GULP energy -167106.549696 kJ/mol
# GULP energy per Si atom -5570.218323 kJ/mol
# Density = 2.241528 g / cm^3
# Si number density = 22.466413 Si / 1000 Ang^3
#
#
#
# Elastic Constant Matrix: (Units=GPa)
#
#
# Indices 1 2 3 4 5 6 
#
# 1 139.8361 35.6343 12.7252 0.0000 9.8043 0.0000
# 2 35.6343 58.1277 23.5912 0.0000 11.3700 0.0000
# 3 12.7252 23.5912 75.4077 0.0000 4.5474 0.0000
# 4 0.0000 0.0000 0.0000 22.4899 0.0000 1.3665
# 5 9.8043 11.3700 4.5474 0.0000 37.5301 0.0000
# 6 0.0000 0.0000 0.0000 1.3665 0.0000 27.4663
#
#
#
# Elastic Compliance Matrix: (Units=1/GPa)
#
#
# Indices 1 2 3 4 5 6 
#
# 1 0.008495 -0.005165 0.000223 0.000000 -0.000681 0.000000
# 2 -0.005165 0.023934 -0.006306 0.000000 -0.005138 0.000000
# 3 0.000223 -0.006306 0.015196 0.000000 0.000011 0.000000
# 4 0.000000 0.000000 0.000000 0.044599 0.000000 -0.002219
# 5 -0.000681 -0.005138 0.000011 0.000000 0.028378 0.000000
# 6 0.000000 0.000000 0.000000 -0.002219 0.000000 0.036519
#
#
# Mechanical properties :
#
#
# Convention : Reuss Voigt Hill
#
# Bulk Modulus (GPa) = 39.79464 46.36364 43.07914
# Shear Modulus (GPa) = 26.59667 30.92532 28.76099
#
# Velocity S-wave (km/s) = 3.44443 3.71416 3.58184
# Velocity P-wave (km/s) = 5.79398 6.25100 6.02683
#
# Compressibility (1/GPa) = 0.02512901
#
# Stress axis : x y z
#
# Youngs Moduli (GPa) = 117.71805 41.78123 65.80760
#
# Poissons Ratio (x) = 0.21580 -0.01470
# Poissons Ratio (y) = 0.60802 0.41501
# Poissons Ratio (z) = -0.02630 0.26349
#
# Static dielectric constant tensor:
#      x y z
#    x 1.868200 0.000000 -0.047430 
#    y 0.000000 1.870970 0.000000 
#    z -0.047430 0.000000 1.895040 
# 
# From -- ./inp_files/288030.got.cif
#   From: 2010.05.17/outbox.cif.g08.bks.cpg/sg15_145_cif.got.tgz:288030.got - 2010.06.03 18:47:42.
