data_PCOD9296408
_publ_section_title
;
Structure prediction by ZEFSAII (Michael W. Deem and Ramdas Pophale) SiO2 
 PCOD9296408
Probable space group: C 2/C
;
_chemical_formula_sum "Si O2"
_cell_formula_units_Z 40
_cell_length_a 10.786160
_cell_length_b 14.655300
_cell_length_c 11.216670
_cell_angle_alpha 90.000000
_cell_angle_beta 105.383653
_cell_angle_gamma 90.000000
_cell_volume 1709.541460
_symmetry_space_group_name_H-M "C 2/C"
_symmetry_group_IT_number 15
_symmetry_cell_setting 'monoclinic'
loop_
_space_group_symop_operation_xyz
x,y,z
-x,y,1/2-z
-x,-y,-z
x,-y,1/2+z
1/2+x,1/2+y,z
1/2-x,1/2+y,1/2-z
1/2-x,1/2-y,-z
1/2+x,1/2-y,1/2+z
loop_
_atom_site_type_symbol
_atom_site_label
_atom_site_fract_x
_atom_site_fract_y
_atom_site_fract_z
Si Si1 0.147372 0.299587 0.803032
Si Si2 0.743367 0.619722 0.926293
Si Si3 0.362722 0.453554 0.486912
Si Si4 0.366680 0.091440 0.725677
Si Si5 0.365176 0.705602 0.157743
O O1 0.146343 0.193127 0.845060
O O2 0.241482 0.310678 0.712478
O O3 0.000000 0.327500 0.750000
O O4 0.214359 0.348695 0.932381
O O5 0.856673 0.620927 0.860045
O O6 0.695567 0.517094 0.924807
O O7 0.500000 0.500000 0.500000
O O8 0.263236 0.456068 0.351431
O O9 0.364845 0.350457 0.535348
O O10 0.500000 0.038147 0.750000
O O11 0.376431 0.184944 0.652150
O O12 0.500000 0.674192 0.250000
#
# Coordination Sequence:
#
# PCOD9296408 Si02
#       5
#     8   8   8   8   8
#     4  10  23  44  73  98 138 192 237 291 355 431
#     4  10  25  43  66 104 139 180 241 292 355 426
#     4  12  27  41  73 105 143 183 240 302 356 417
#     4  10  25  47  68  99 144 191 235 291 359 439
#     4  10  23  45  70 101 144 188 235 288 364 430
#
# _framework density 23.398085999999999
#
# number of rings (size 3 to 8) (size 9 to 14) (size 15 to 20)
#    0.000    1.600    0.000    1.800   14.000    3.200 
#    0.000    0.000    0.000    0.000    0.000    0.000 
#    0.000    0.000    0.000    0.000    0.000    0.000 
#
# Total GULP energy -111669.045544 kJ/mol
# GULP energy per Si atom -5583.452277 kJ/mol
# Density = 2.334483 g / cm^3
# Si number density = 23.398086 Si / 1000 Ang^3
#
#
#
# Elastic Constant Matrix: (Units=GPa)
#
#
# Indices 1 2 3 4 5 6 
#
# 1 157.0129 10.1007 53.0572 0.0000 27.5496 0.0000
# 2 10.1007 67.1235 -3.1394 0.0000 -14.8072 0.0000
# 3 53.0572 -3.1394 72.1349 0.0000 7.9823 0.0000
# 4 0.0000 0.0000 0.0000 22.4538 0.0000 -12.3530
# 5 27.5496 -14.8072 7.9823 0.0000 25.9081 0.0000
# 6 0.0000 0.0000 0.0000 -12.3530 0.0000 9.8323
#
#
#
# Elastic Compliance Matrix: (Units=1/GPa)
#
#
# Indices 1 2 3 4 5 6 
#
# 1 0.011286 -0.004800 -0.007121 0.000000 -0.012551 0.000000
# 2 -0.004800 0.019097 0.002681 0.000000 0.015193 0.000000
# 3 -0.007121 0.002681 0.018853 0.000000 0.003296 0.000000
# 4 0.000000 0.000000 0.000000 0.144223 0.000000 0.181198
# 5 -0.012551 0.015193 0.003296 0.000000 0.059612 0.000000
# 6 0.000000 0.000000 0.000000 0.181198 0.000000 0.329358
#
#
# Mechanical properties :
#
#
# Convention : Reuss Voigt Hill
#
# Bulk Modulus (GPa) = 32.51588 46.25648 39.38618
# Shear Modulus (GPa) = 8.18114 27.38901 17.78507
#
# Velocity S-wave (km/s) = 1.87192 3.42507 2.76000
# Velocity P-wave (km/s) = 4.31267 5.95430 5.19869
#
# Compressibility (1/GPa) = 0.03075421
#
# Stress axis : x y z
#
# Youngs Moduli (GPa) = 88.60301 52.36403 53.04234
#
# Poissons Ratio (x) = 0.25135 0.37774
# Poissons Ratio (y) = 0.42530 -0.14218
# Poissons Ratio (z) = 0.63098 -0.14036
#
# Static dielectric constant tensor:
#      x y z
#    x 1.959540 0.000000 -0.007890 
#    y 0.000000 1.928130 0.000000 
#    z -0.007890 0.000000 1.935450 
# 
# From -- ./inp_files/85943.got.cif
#   From: 2010.05.17/outbox.cif.g08.bks.cpg/sg15_43_cif.got.tgz:85943.got - 2010.06.03 18:47:42.
