data_PCOD9296680
_publ_section_title
;
Structure prediction by ZEFSAII (Michael W. Deem and Ramdas Pophale) SiO2 
 PCOD9296680
Probable space group: C 2/C
;
_chemical_formula_sum "Si O2"
_cell_formula_units_Z 20
_cell_length_a 11.378153
_cell_length_b 11.108125
_cell_length_c 7.884577
_cell_angle_alpha 90.000000
_cell_angle_beta 46.111715
_cell_angle_gamma 90.000000
_cell_volume 718.192977
_symmetry_space_group_name_H-M "C 2/C"
_symmetry_group_IT_number 15
_symmetry_cell_setting 'monoclinic'
loop_
_space_group_symop_operation_xyz
x,y,z
-x,y,1/2-z
-x,-y,-z
x,-y,1/2+z
1/2+x,1/2+y,z
1/2-x,1/2+y,1/2-z
1/2-x,1/2-y,-z
1/2+x,1/2-y,1/2+z
loop_
_atom_site_type_symbol
_atom_site_label
_atom_site_fract_x
_atom_site_fract_y
_atom_site_fract_z
Si Si1 0.500000 0.101392 0.250000
Si Si2 0.499275 0.286210 0.944397
Si Si3 0.333570 0.485932 0.529650
O O1 0.503331 0.185591 0.411888
O O2 0.333419 0.028242 0.402337
O O3 0.500000 0.243368 0.750000
O O4 0.651656 0.381265 0.405806
O O5 0.645045 0.377238 0.856780
O O6 0.500000 0.473796 0.250000
#
# Coordination Sequence:
#
# PCOD9296680 Si02
#       3
#     4   8   8
#     4  12  24  48  78 102 144 200 240 296 374 434
#     4  10  23  45  72 106 151 186 240 312 358 430
#     4  10  23  47  72 105 152 187 238 313 360 427
#
# _framework density 27.847669
#
# number of rings (size 3 to 8) (size 9 to 14) (size 15 to 20)
#    0.000    1.600    2.000    1.200    2.800    1.600 
#    0.000   26.000    0.000    0.000    0.000    0.000 
#    0.000    0.000    0.000    0.000    0.000    0.000 
#
# Total GULP energy -56077.355852 kJ/mol
# GULP energy per Si atom -5607.735585 kJ/mol
# Density = 2.778429 g / cm^3
# Si number density = 27.847669 Si / 1000 Ang^3
#
#
#
# Elastic Constant Matrix: (Units=GPa)
#
#
# Indices 1 2 3 4 5 6 
#
# 1 271.9716 77.7877 102.8891 0.0000 -31.9879 0.0000
# 2 77.7877 100.1189 47.2907 0.0000 -24.4470 0.0000
# 3 102.8891 47.2907 128.4319 0.0000 -3.3656 0.0000
# 4 0.0000 0.0000 0.0000 33.1714 0.0000 15.5409
# 5 -31.9879 -24.4470 -3.3656 0.0000 59.8104 0.0000
# 6 0.0000 0.0000 0.0000 15.5409 0.0000 60.2766
#
#
#
# Elastic Compliance Matrix: (Units=1/GPa)
#
#
# Indices 1 2 3 4 5 6 
#
# 1 0.006092 -0.002358 -0.003958 0.000000 0.002072 0.000000
# 2 -0.002358 0.014483 -0.003327 0.000000 0.004472 0.000000
# 3 -0.003958 -0.003327 0.012109 0.000000 -0.002795 0.000000
# 4 0.000000 0.000000 0.000000 0.034288 0.000000 -0.008840
# 5 0.002072 0.004472 -0.002795 0.000000 0.019498 0.000000
# 6 0.000000 0.000000 0.000000 -0.008840 0.000000 0.018869
#
#
# Mechanical properties :
#
#
# Convention : Reuss Voigt Hill
#
# Bulk Modulus (GPa) = 74.63362 106.27305 90.45333
# Shear Modulus (GPa) = 38.73188 48.82202 43.77695
#
# Velocity S-wave (km/s) = 3.73345 4.19164 3.96917
# Velocity P-wave (km/s) = 6.74120 7.85313 7.31831
#
# Compressibility (1/GPa) = 0.01339879
#
# Stress axis : x y z
#
# Youngs Moduli (GPa) = 164.14064 69.04424 82.58368
#
# Poissons Ratio (x) = 0.16280 0.32688
# Poissons Ratio (y) = 0.38704 0.27474
# Poissons Ratio (z) = 0.64969 0.22970
#
# Static dielectric constant tensor:
#      x y z
#    x 2.156630 0.000000 0.042190 
#    y 0.000000 2.183890 0.000000 
#    z 0.042190 0.000000 2.299380 
# 
# From -- ./inp_files/26882.got.cif
#   From: 2010.05.17/outbox.cif.g08.bks.cpg/sg15_14_cif.got.tgz:26882.got - 2010.06.03 18:47:42.
