data_PCOD9296470
_publ_section_title
;
Structure prediction by ZEFSAII (Michael W. Deem and Ramdas Pophale) SiO2 
 PCOD9296470
Probable space group: C 2/C
;
_chemical_formula_sum "Si O2"
_cell_formula_units_Z 44
_cell_length_a 13.249046
_cell_length_b 14.360887
_cell_length_c 19.655634
_cell_angle_alpha 90.000000
_cell_angle_beta 148.906376
_cell_angle_gamma 90.000000
_cell_volume 1931.395221
_symmetry_space_group_name_H-M "C 2/C"
_symmetry_group_IT_number 15
_symmetry_cell_setting 'monoclinic'
loop_
_space_group_symop_operation_xyz
x,y,z
-x,y,1/2-z
-x,-y,-z
x,-y,1/2+z
1/2+x,1/2+y,z
1/2-x,1/2+y,1/2-z
1/2-x,1/2-y,-z
1/2+x,1/2-y,1/2+z
loop_
_atom_site_type_symbol
_atom_site_label
_atom_site_fract_x
_atom_site_fract_y
_atom_site_fract_z
Si Si1 0.000000 0.284773 0.750000
Si Si2 0.691532 0.448463 0.819274
Si Si3 0.998654 0.104500 0.427104
Si Si4 0.796138 0.858570 0.235645
Si Si5 0.319598 0.425182 0.962868
Si Si6 0.606219 0.205411 0.972837
O O1 0.130123 0.218961 0.776032
O O2 0.142493 0.355215 0.873465
O O3 0.500000 0.478055 0.750000
O O4 0.621918 0.392466 0.712204
O O5 0.777127 0.547115 0.844569
O O6 0.804573 0.378447 0.933247
O O7 0.853672 0.068455 0.401540
O O8 0.068557 0.202663 0.495714
O O9 0.178508 0.034059 0.516043
O O10 0.612937 0.824159 0.174260
O O11 0.985834 0.887226 0.388235
O O12 0.750000 0.250000 0.000000
#
# Coordination Sequence:
#
# PCOD9296470 Si02
#       6
#     4   8   8   8   8   8
#     4  12  22  44  76 100 130 186 240 296 366 430
#     4  11  23  45  69 101 147 187 242 295 357 433
#     4  10  23  45  64  96 146 177 234 293 356 429
#     4  11  25  46  71 103 143 185 243 301 361 430
#     4  10  24  46  67 103 138 180 235 300 356 432
#     4  12  25  43  71 106 138 191 234 290 362 429
#
# _framework density 22.781458000000001
#
# number of rings (size 3 to 8) (size 9 to 14) (size 15 to 20)
#    0.000    1.091    4.545    1.091    2.545    0.000 
#   14.727    0.000    0.000    0.000    0.000    0.000 
#    0.000    0.000    0.000    0.000    0.000    0.000 
#
# Total GULP energy -122737.129019 kJ/mol
# GULP energy per Si atom -5578.960410 kJ/mol
# Density = 2.272961 g / cm^3
# Si number density = 22.781458 Si / 1000 Ang^3
#
#
#
# Elastic Constant Matrix: (Units=GPa)
#
#
# Indices 1 2 3 4 5 6 
#
# 1 71.3263 11.1768 33.1871 0.0008 9.5858 0.0001
# 2 11.1768 149.2880 54.6562 0.0029 23.7629 0.0009
# 3 33.1871 54.6562 92.7229 0.0062 13.1591 0.0027
# 4 0.0008 0.0029 0.0062 27.0747 0.0018 1.3848
# 5 9.5858 23.7629 13.1591 0.0018 30.6890 0.0005
# 6 0.0001 0.0009 0.0027 1.3848 0.0005 25.3957
#
#
#
# Elastic Compliance Matrix: (Units=1/GPa)
#
#
# Indices 1 2 3 4 5 6 
#
# 1 0.017396 0.001784 -0.006719 0.000001 -0.003934 0.000001
# 2 0.001784 0.009427 -0.005409 0.000001 -0.005537 0.000000
# 3 -0.006719 -0.005409 0.016490 -0.000003 -0.000783 -0.000001
# 4 0.000001 0.000001 -0.000003 0.037038 -0.000002 -0.002020
# 5 -0.003934 -0.005537 -0.000783 -0.000002 0.038437 0.000000
# 6 0.000001 0.000000 -0.000001 -0.002020 0.000000 0.039487
#
#
# Mechanical properties :
#
#
# Convention : Reuss Voigt Hill
#
# Bulk Modulus (GPa) = 44.20467 56.81971 50.51219
# Shear Modulus (GPa) = 26.80908 30.91970 28.86439
#
# Velocity S-wave (km/s) = 3.43416 3.68806 3.56337
# Velocity P-wave (km/s) = 5.93048 6.56742 6.25706
#
# Compressibility (1/GPa) = 0.02262205
#
# Stress axis : x y z
#
# Youngs Moduli (GPa) = 57.48566 106.08225 60.64462
#
# Poissons Ratio (x) = -0.18923 0.40750
# Poissons Ratio (y) = -0.10254 0.32804
# Poissons Ratio (z) = 0.38627 0.57383
#
# Static dielectric constant tensor:
#      x y z
#    x 1.899670 0.000000 0.025600 
#    y 0.000000 1.951280 0.000000 
#    z 0.025600 0.000000 1.861410 
# 
# From -- ./inp_files/244633.got.cif
#   From: 2010.05.17/outbox.cif.g08.bks.cpg/sg15_123_cif.got.tgz:244633.got - 2010.06.03 18:47:42.
