data_PCOD9296841
_publ_section_title
;
Structure prediction by ZEFSAII (Michael W. Deem and Ramdas Pophale) SiO2 
 PCOD9296841
Probable space group: C 2/C
;
_chemical_formula_sum "Si O2"
_cell_formula_units_Z 40
_cell_length_a 14.113661
_cell_length_b 10.752219
_cell_length_c 19.416984
_cell_angle_alpha 90.000000
_cell_angle_beta 29.474528
_cell_angle_gamma 90.000000
_cell_volume 1449.829542
_symmetry_space_group_name_H-M "C 2/C"
_symmetry_group_IT_number 15
_symmetry_cell_setting 'monoclinic'
loop_
_space_group_symop_operation_xyz
x,y,z
-x,y,1/2-z
-x,-y,-z
x,-y,1/2+z
1/2+x,1/2+y,z
1/2-x,1/2+y,1/2-z
1/2-x,1/2-y,-z
1/2+x,1/2-y,1/2+z
loop_
_atom_site_type_symbol
_atom_site_label
_atom_site_fract_x
_atom_site_fract_y
_atom_site_fract_z
Si Si1 0.102380 0.438129 0.290566
Si Si2 0.105268 0.041724 0.003531
Si Si3 0.137642 0.853736 0.110340
Si Si4 0.271328 0.601306 0.396042
Si Si5 0.247063 0.309833 0.765379
O O1 0.187007 0.429513 0.160005
O O2 0.131330 0.584041 0.295147
O O3 0.236994 0.340056 0.249542
O O4 0.883940 0.391872 0.443675
O O5 0.095945 0.945962 0.072565
O O6 0.000000 0.000000 0.000000
O O7 0.968828 0.150759 0.115679
O O8 0.000000 0.780743 0.250000
O O9 0.219544 0.951070 0.114905
O O10 0.250000 0.750000 0.000000
O O11 0.500000 0.638467 0.250000
O O12 0.184765 0.661655 0.382834
#
# Coordination Sequence:
#
# PCOD9296841 Si02
#       5
#     8   8   8   8   8
#     4  11  26  42  80 111 155 206 268 323 410 469
#     4  10  23  46  69 109 156 200 264 330 400 486
#     4  11  25  46  75 112 158 208 266 335 406 477
#     4  11  24  46  70 109 157 199 264 319 399 474
#     4  11  23  49  71 114 150 211 257 337 393 488
#
# _framework density 27.589449999999999
#
# number of rings (size 3 to 8) (size 9 to 14) (size 15 to 20)
#    0.000    1.200    4.000    1.800    2.800    7.200 
#    3.600    0.000    0.000    0.000    0.000    0.000 
#    0.000    0.000    0.000    0.000    0.000    0.000 
#
# Total GULP energy -111391.691813 kJ/mol
# GULP energy per Si atom -5569.584591 kJ/mol
# Density = 2.752666 g / cm^3
# Si number density = 27.589450 Si / 1000 Ang^3
#
#
#
# Elastic Constant Matrix: (Units=GPa)
#
#
# Indices 1 2 3 4 5 6 
#
# 1 67.6563 52.0568 60.8884 -0.0057 11.2255 0.0010
# 2 52.0568 135.8871 30.7305 -0.0067 4.2632 0.0025
# 3 60.8884 30.7305 305.0472 -0.0090 25.0984 0.0059
# 4 -0.0057 -0.0067 -0.0090 53.8373 0.0029 4.8630
# 5 11.2255 4.2632 25.0984 0.0029 61.2979 -0.0031
# 6 0.0010 0.0025 0.0059 4.8630 -0.0031 19.7582
#
#
#
# Elastic Compliance Matrix: (Units=1/GPa)
#
#
# Indices 1 2 3 4 5 6 
#
# 1 0.025583 -0.008816 -0.004019 0.000001 -0.002426 0.000000
# 2 -0.008816 0.010571 0.000644 0.000001 0.000615 -0.000001
# 3 -0.004019 0.000644 0.004097 0.000001 -0.000986 -0.000001
# 4 0.000001 0.000001 0.000001 0.018997 -0.000002 -0.004676
# 5 -0.002426 0.000615 -0.000986 -0.000002 0.017119 0.000003
# 6 0.000000 -0.000001 -0.000001 -0.004676 0.000003 0.051763
#
#
# Mechanical properties :
#
#
# Convention : Reuss Voigt Hill
#
# Bulk Modulus (GPa) = 63.01116 88.43800 75.72458
# Shear Modulus (GPa) = 31.68575 51.30635 41.49605
#
# Velocity S-wave (km/s) = 3.39259 4.31703 3.88242
# Velocity P-wave (km/s) = 6.18342 7.54808 6.89957
#
# Compressibility (1/GPa) = 0.01587020
#
# Stress axis : x y z
#
# Youngs Moduli (GPa) = 39.08877 94.59640 244.10567
#
# Poissons Ratio (x) = 0.83392 0.98098
# Poissons Ratio (y) = 0.34459 -0.15721
# Poissons Ratio (z) = 0.15709 -0.06092
#
# Static dielectric constant tensor:
#      x y z
#    x 2.298330 0.000030 0.051110 
#    y 0.000030 3.790150 -0.000350 
#    z 0.051110 -0.000350 0.595250 
# 
# From -- ./inp_files/248518.got.cif
#   From: 2010.05.17/outbox.cif.g08.bks.cpg/sg15_125_cif.got.tgz:248518.got - 2010.06.03 18:47:42.
