data_PCOD9296595
_publ_section_title
;
Structure prediction by ZEFSAII (Michael W. Deem and Ramdas Pophale) SiO2 
 PCOD9296595
Probable space group: C 2/C
;
_chemical_formula_sum "Si O2"
_cell_formula_units_Z 56
_cell_length_a 24.390693
_cell_length_b 14.342132
_cell_length_c 9.271110
_cell_angle_alpha 90.000000
_cell_angle_beta 56.517072
_cell_angle_gamma 90.000000
_cell_volume 2704.965944
_symmetry_space_group_name_H-M "C 2/C"
_symmetry_group_IT_number 15
_symmetry_cell_setting 'monoclinic'
loop_
_space_group_symop_operation_xyz
x,y,z
-x,y,1/2-z
-x,-y,-z
x,-y,1/2+z
1/2+x,1/2+y,z
1/2-x,1/2+y,1/2-z
1/2-x,1/2-y,-z
1/2+x,1/2-y,1/2+z
loop_
_atom_site_type_symbol
_atom_site_label
_atom_site_fract_x
_atom_site_fract_y
_atom_site_fract_z
Si Si1 0.384235 0.704757 0.633216
Si Si2 0.375981 0.610494 0.109452
Si Si3 0.436073 0.040697 0.420568
Si Si4 0.020639 0.265704 0.555223
Si Si5 0.780479 0.151225 0.010668
Si Si6 0.645419 0.911713 0.745272
Si Si7 0.078963 0.939949 0.646113
O O1 0.460671 0.723262 0.555070
O O2 0.356966 0.810021 0.676045
O O3 0.383777 0.642780 0.492454
O O4 0.343830 0.648802 0.814000
O O5 0.307542 0.640034 0.134269
O O6 0.388285 0.561565 0.244435
O O7 0.415263 0.706633 0.066398
O O8 0.408413 0.537418 0.951736
O O9 0.500000 0.994364 0.250000
O O10 0.465062 0.124607 0.476475
O O11 0.395250 0.084791 0.345733
O O12 0.389145 0.979896 0.590028
O O13 0.000000 0.251619 0.750000
O O14 0.721496 0.076384 0.088401
O O15 0.750000 0.250000 0.000000
O O16 0.000000 0.924478 0.750000
#
# Coordination Sequence:
#
# PCOD9296595 Si02
#       7
#     8   8   8   8   8   8   8
#     4  11  22  42  66  95 134 177 227 282 342 412
#     4  12  24  41  65  99 139 178 225 287 347 414
#     4  11  23  39  68  97 131 170 225 287 355 405
#     4  11  19  37  67  95 127 176 225 279 352 407
#     4  10  23  45  69  91 130 185 226 270 336 417
#     4  11  24  43  63  97 133 174 228 282 338 424
#     4  12  26  39  65 105 138 172 225 290 354 410
#
# _framework density 20.702663000000001
#
# number of rings (size 3 to 8) (size 9 to 14) (size 15 to 20)
#    0.000    0.857    5.714    3.000    0.000    4.000 
#    0.000    2.857    0.000    0.000    0.000    0.000 
#    0.000    0.000    0.000    0.000    0.000    0.000 
#
# Total GULP energy -156058.500643 kJ/mol
# GULP energy per Si atom -5573.517880 kJ/mol
# Density = 2.065554 g / cm^3
# Si number density = 20.702663 Si / 1000 Ang^3
#
#
#
# Elastic Constant Matrix: (Units=GPa)
#
#
# Indices 1 2 3 4 5 6 
#
# 1 126.2295 22.5664 50.8302 0.0000 -4.2465 0.0000
# 2 22.5664 68.2570 58.9944 0.0000 -4.0892 0.0000
# 3 50.8302 58.9944 93.2496 0.0000 9.6633 0.0000
# 4 0.0000 0.0000 0.0000 44.6269 0.0000 3.5922
# 5 -4.2465 -4.0892 9.6633 0.0000 27.9330 0.0000
# 6 0.0000 0.0000 0.0000 3.5922 0.0000 24.8839
#
#
#
# Elastic Compliance Matrix: (Units=1/GPa)
#
#
# Indices 1 2 3 4 5 6 
#
# 1 0.011270 0.005494 -0.010247 0.000000 0.006063 0.000000
# 2 0.005494 0.039621 -0.029817 0.000000 0.016950 0.000000
# 3 -0.010247 -0.029817 0.037118 0.000000 -0.018764 0.000000
# 4 0.000000 0.000000 0.000000 0.022671 0.000000 -0.003273
# 5 0.006063 0.016950 -0.018764 0.000000 0.045694 0.000000
# 6 0.000000 0.000000 0.000000 -0.003273 0.000000 0.040659
#
#
# Mechanical properties :
#
#
# Convention : Reuss Voigt Hill
#
# Bulk Modulus (GPa) = 53.00111 61.39090 57.19601
# Shear Modulus (GPa) = 18.35101 29.84511 24.09806
#
# Velocity S-wave (km/s) = 2.98049 3.80097 3.41546
# Velocity P-wave (km/s) = 6.12382 6.99865 6.57580
#
# Compressibility (1/GPa) = 0.01886753
#
# Stress axis : x y z
#
# Youngs Moduli (GPa) = 88.72866 25.23939 26.94099
#
# Poissons Ratio (x) = -0.13867 0.27608
# Poissons Ratio (y) = -0.48748 0.80331
# Poissons Ratio (z) = 0.90924 0.75257
#
# Static dielectric constant tensor:
#      x y z
#    x 1.838400 0.000000 -0.033380 
#    y 0.000000 1.766190 0.000000 
#    z -0.033380 0.000000 1.774320 
# 
# From -- ./inp_files/61828.got.cif
#   From: 2010.05.17/outbox.cif.g08.bks.cpg/sg15_31_cif.got.tgz:61828.got - 2010.06.03 18:47:42.
