data_PCOD9296070
_publ_section_title
;
Structure prediction by ZEFSAII (Michael W. Deem and Ramdas Pophale) SiO2 
 PCOD9296070
Probable space group: C 2/C
;
_chemical_formula_sum "Si O2"
_cell_formula_units_Z 44
_cell_length_a 27.917883
_cell_length_b 12.915014
_cell_length_c 8.192309
_cell_angle_alpha 90.000000
_cell_angle_beta 45.850870
_cell_angle_gamma 90.000000
_cell_volume 2119.450755
_symmetry_space_group_name_H-M "C 2/C"
_symmetry_group_IT_number 15
_symmetry_cell_setting 'monoclinic'
loop_
_space_group_symop_operation_xyz
x,y,z
-x,y,1/2-z
-x,-y,-z
x,-y,1/2+z
1/2+x,1/2+y,z
1/2-x,1/2+y,1/2-z
1/2-x,1/2-y,-z
1/2+x,1/2-y,1/2+z
loop_
_atom_site_type_symbol
_atom_site_label
_atom_site_fract_x
_atom_site_fract_y
_atom_site_fract_z
Si Si1 0.239131 0.366789 0.453954
Si Si2 0.340955 0.034017 0.643990
Si Si3 0.441188 0.918597 0.176659
Si Si4 0.545344 0.422681 0.007517
Si Si5 0.886457 0.103743 0.476419
Si Si6 0.000000 0.750579 0.750000
O O1 0.250000 0.250000 0.500000
O O2 0.213728 0.455064 0.644637
O O3 0.188628 0.388915 0.422460
O O4 0.311022 0.387723 0.205788
O O5 0.385622 0.094753 0.669472
O O6 0.396153 0.960193 0.431456
O O7 0.478551 0.817869 0.149045
O O8 0.500000 0.000000 0.000000
O O9 0.500000 0.363116 0.250000
O O10 0.590035 0.492099 0.020313
O O11 0.500000 0.500000 0.000000
O O12 0.594969 0.375114 0.756235
O O13 0.936565 0.181274 0.450183
#
# Coordination Sequence:
#
# PCOD9296070 Si02
#       6
#     8   8   8   8   8   4
#     4  11  24  43  69  98 139 187 226 280 337 424
#     4  10  23  44  66  98 134 180 229 278 347 411
#     4  11  21  41  68  93 129 167 218 291 349 391
#     4   9  17  36  58  89 130 164 203 266 327 387
#     4  11  21  38  65  93 132 173 216 269 334 394
#     4  12  22  36  66 100 126 166 228 282 332 402
#
# _framework density 20.760096000000001
#
# number of rings (size 3 to 8) (size 9 to 14) (size 15 to 20)
#    0.000    1.455    4.545    2.182    2.545    0.000 
#    0.000   15.455    0.000    0.000    0.000    0.000 
#    0.000    0.000    0.000    0.000    0.000    0.000 
#
# Total GULP energy -122479.940518 kJ/mol
# GULP energy per Si atom -5567.270024 kJ/mol
# Density = 2.071284 g / cm^3
# Si number density = 20.760096 Si / 1000 Ang^3
#
#
#
# Elastic Constant Matrix: (Units=GPa)
#
#
# Indices 1 2 3 4 5 6 
#
# 1 85.5634 42.6241 34.6421 0.0000 7.0597 0.0000
# 2 42.6241 75.8408 29.2204 0.0000 4.0850 0.0000
# 3 34.6421 29.2204 170.4937 0.0000 -9.7456 0.0000
# 4 0.0000 0.0000 0.0000 -51.6725 0.0000 41.7465
# 5 7.0597 4.0850 -9.7456 0.0000 38.4571 0.0000
# 6 0.0000 0.0000 0.0000 41.7465 0.0000 11.2012
#
#
#
# Elastic Compliance Matrix: (Units=1/GPa)
#
#
# Indices 1 2 3 4 5 6 
#
# 1 0.017082 -0.008623 -0.002151 0.000000 -0.002765 0.000000
# 2 -0.008623 0.018647 -0.001488 0.000000 -0.000775 0.000000
# 3 -0.002151 -0.001488 0.006686 0.000000 0.002247 0.000000
# 4 0.000000 0.000000 0.000000 -0.004825 0.000000 0.017982
# 5 -0.002765 -0.000775 0.002247 0.000000 0.027162 0.000000
# 6 0.000000 0.000000 0.000000 0.017982 0.000000 0.022258
#
#
# Mechanical properties :
#
#
# Convention : Reuss Voigt Hill
#
# Bulk Modulus (GPa) = 55.89456 60.54123 58.21789
# Shear Modulus (GPa) = 42.55459 14.62461 28.58960
#
# Velocity S-wave (km/s) = 4.53241 2.65704 3.71501
# Velocity P-wave (km/s) = 7.37379 6.21601 6.81952
#
# Compressibility (1/GPa) = 0.01789083
#
# Stress axis : x y z
#
# Youngs Moduli (GPa) = 58.54239 53.62899 149.56909
#
# Poissons Ratio (x) = 0.46242 0.32173
# Poissons Ratio (y) = 0.50478 0.22257
# Poissons Ratio (z) = 0.12593 0.07980
#
# Static dielectric constant tensor:
#      x y z
#    x 1.788420 0.000000 0.056270 
#    y 0.000000 1.890890 0.000000 
#    z 0.056270 0.000000 1.803620 
# 
# From -- ./inp_files/68974.got.cif
#   From: 2010.05.17/outbox.cif.g08.bks.cpg/sg15_35_cif.got.tgz:68974.got - 2010.06.03 18:47:42.
