data_PCOD9296234
_publ_section_title
;
Structure prediction by ZEFSAII (Michael W. Deem and Ramdas Pophale) SiO2 
 PCOD9296234
Probable space group: C 2/C
;
_chemical_formula_sum "Si O2"
_cell_formula_units_Z 40
_cell_length_a 5.244115
_cell_length_b 20.674497
_cell_length_c 15.775098
_cell_angle_alpha 90.000000
_cell_angle_beta 100.526418
_cell_angle_gamma 90.000000
_cell_volume 1681.543810
_symmetry_space_group_name_H-M "C 2/C"
_symmetry_group_IT_number 15
_symmetry_cell_setting 'monoclinic'
loop_
_space_group_symop_operation_xyz
x,y,z
-x,y,1/2-z
-x,-y,-z
x,-y,1/2+z
1/2+x,1/2+y,z
1/2-x,1/2+y,1/2-z
1/2-x,1/2-y,-z
1/2+x,1/2-y,1/2+z
loop_
_atom_site_type_symbol
_atom_site_label
_atom_site_fract_x
_atom_site_fract_y
_atom_site_fract_z
Si Si1 0.000000 0.157451 0.250000
Si Si2 0.360031 0.238233 0.602256
Si Si3 0.010437 0.077865 0.002844
Si Si4 0.598679 0.661404 0.849019
Si Si5 0.463467 0.944570 0.928019
Si Si6 0.000000 0.567021 0.250000
O O1 0.964404 0.203230 0.166007
O O2 0.751331 0.112294 0.253233
O O3 0.250000 0.250000 0.500000
O O4 0.601381 0.185621 0.621737
O O5 0.099146 0.217368 0.635355
O O6 0.018430 0.104874 0.909396
O O7 0.780532 0.094453 0.052458
O O8 0.284787 0.100083 0.055891
O O9 0.000000 0.000000 0.000000
O O10 0.500000 0.642575 0.750000
O O11 0.475103 0.973898 0.834883
O O12 0.500000 0.000000 0.000000
#
# Coordination Sequence:
#
# PCOD9296234 Si02
#       6
#     4   8   8   8   8   4
#     4  12  26  46  70 107 148 179 256 294 348 460
#     4  12  27  46  72 103 147 192 239 303 364 430
#     4  10  23  44  69  99 140 180 238 296 353 433
#     4  12  24  47  72 103 145 192 242 297 366 432
#     4  10  23  46  66 101 142 181 248 294 358 442
#     4  12  26  42  76 101 142 201 232 300 376 410
#
# _framework density 23.787666000000002
#
# number of rings (size 3 to 8) (size 9 to 14) (size 15 to 20)
#    0.000    0.800    2.000    4.200    8.400    0.000 
#   14.400    0.000    0.000    0.000    0.000    0.000 
#    0.000    0.000    0.000    0.000    0.000    0.000 
#
# Total GULP energy -111561.117954 kJ/mol
# GULP energy per Si atom -5578.055898 kJ/mol
# Density = 2.373352 g / cm^3
# Si number density = 23.787666 Si / 1000 Ang^3
#
#
#
# Elastic Constant Matrix: (Units=GPa)
#
#
# Indices 1 2 3 4 5 6 
#
# 1 206.4293 2.7165 42.7574 0.0000 -11.6088 0.0000
# 2 2.7165 58.7441 33.6763 0.0000 -2.0082 0.0000
# 3 42.7574 33.6763 221.6222 0.0000 -26.6611 0.0000
# 4 0.0000 0.0000 0.0000 81.1760 0.0000 7.0204
# 5 -11.6088 -2.0082 -26.6611 0.0000 37.2897 0.0000
# 6 0.0000 0.0000 0.0000 7.0204 0.0000 20.7430
#
#
#
# Elastic Compliance Matrix: (Units=1/GPa)
#
#
# Indices 1 2 3 4 5 6 
#
# 1 0.005083 0.000322 -0.000916 0.000000 0.000945 0.000000
# 2 0.000322 0.018710 -0.003033 0.000000 -0.001060 0.000000
# 3 -0.000916 -0.003033 0.005575 0.000000 0.003538 0.000000
# 4 0.000000 0.000000 0.000000 0.012690 0.000000 -0.004295
# 5 0.000945 -0.001060 0.003538 0.000000 0.029583 0.000000
# 6 0.000000 0.000000 0.000000 -0.004295 0.000000 0.049663
#
#
# Mechanical properties :
#
#
# Convention : Reuss Voigt Hill
#
# Bulk Modulus (GPa) = 45.21673 71.67734 58.44704
# Shear Modulus (GPa) = 36.78360 55.01809 45.90085
#
# Velocity S-wave (km/s) = 3.93661 4.81446 4.39749
# Velocity P-wave (km/s) = 6.30177 7.81684 7.09983
#
# Compressibility (1/GPa) = 0.02211571
#
# Stress axis : x y z
#
# Youngs Moduli (GPa) = 196.73857 53.44596 179.36109
#
# Poissons Ratio (x) = -0.01723 0.16429
# Poissons Ratio (y) = -0.06342 0.54398
# Poissons Ratio (z) = 0.18020 0.16210
#
# Static dielectric constant tensor:
#      x y z
#    x 2.114040 0.000000 0.130330 
#    y 0.000000 1.844790 0.000000 
#    z 0.130330 0.000000 2.271650 
# 
# From -- ./inp_files/73266.got.cif
#   From: 2010.05.17/outbox.cif.g08.bks.cpg/sg15_37_cif.got.tgz:73266.got - 2010.06.03 18:47:42.
