data_PCOD9296114
_publ_section_title
;
Structure prediction by ZEFSAII (Michael W. Deem and Ramdas Pophale) SiO2 
 PCOD9296114
Probable space group: C 2/C
;
_chemical_formula_sum "Si O2"
_cell_formula_units_Z 36
_cell_length_a 12.098420
_cell_length_b 9.985021
_cell_length_c 12.973798
_cell_angle_alpha 90.000000
_cell_angle_beta 78.262693
_cell_angle_gamma 90.000000
_cell_volume 1534.502625
_symmetry_space_group_name_H-M "C 2/C"
_symmetry_group_IT_number 15
_symmetry_cell_setting 'monoclinic'
loop_
_space_group_symop_operation_xyz
x,y,z
-x,y,1/2-z
-x,-y,-z
x,-y,1/2+z
1/2+x,1/2+y,z
1/2-x,1/2+y,1/2-z
1/2-x,1/2-y,-z
1/2+x,1/2-y,1/2+z
loop_
_atom_site_type_symbol
_atom_site_label
_atom_site_fract_x
_atom_site_fract_y
_atom_site_fract_z
Si Si1 0.572860 0.537566 0.650921
Si Si2 0.500000 0.934778 0.250000
Si Si3 0.138895 0.662126 0.538413
Si Si4 0.679509 0.950455 0.373239
Si Si5 0.569596 0.318400 0.942528
O O1 0.500000 0.615486 0.750000
O O2 0.694026 0.506655 0.678749
O O3 0.487974 0.419321 0.629044
O O4 0.609132 0.605079 0.536382
O O5 0.412258 0.850870 0.337545
O O6 0.584484 0.005487 0.313058
O O7 0.250000 0.750000 0.500000
O O8 0.156094 0.516293 0.488297
O O9 0.037847 0.733710 0.497915
O O10 0.657292 0.790475 0.382593
#
# Coordination Sequence:
#
# PCOD9296114 Si02
#       5
#     8   4   8   8   8
#     4  11  25  43  68 105 138 186 238 291 365 431
#     4  10  24  40  70 102 138 194 240 288 372 424
#     4  11  23  45  69 103 143 187 237 303 354 427
#     4  11  24  45  71 102 142 188 239 298 355 434
#     4  10  23  44  67  98 142 182 232 294 359 425
#
# _framework density 23.460370999999999
#
# number of rings (size 3 to 8) (size 9 to 14) (size 15 to 20)
#    0.000    1.333    2.222    3.333    9.333    0.000 
#    8.000    0.000    0.000    0.000    0.000    0.000 
#    0.000    0.000    0.000    0.000    0.000    0.000 
#
# Total GULP energy -100351.219216 kJ/mol
# GULP energy per Si atom -5575.067734 kJ/mol
# Density = 2.340697 g / cm^3
# Si number density = 23.460371 Si / 1000 Ang^3
#
#
#
# Elastic Constant Matrix: (Units=GPa)
#
#
# Indices 1 2 3 4 5 6 
#
# 1 146.6905 26.7326 62.7611 0.0000 -10.6150 0.0000
# 2 26.7326 61.6051 27.6457 0.0000 8.3490 0.0000
# 3 62.7611 27.6457 114.0100 0.0000 -6.1931 0.0000
# 4 0.0000 0.0000 0.0000 3.4473 0.0000 3.3014
# 5 -10.6150 8.3490 -6.1931 0.0000 33.0661 0.0000
# 6 0.0000 0.0000 0.0000 3.3014 0.0000 32.5323
#
#
#
# Elastic Compliance Matrix: (Units=1/GPa)
#
#
# Indices 1 2 3 4 5 6 
#
# 1 0.009350 -0.002463 -0.004398 0.000000 0.002800 0.000000
# 2 -0.002463 0.019903 -0.003825 0.000000 -0.006533 0.000000
# 3 -0.004398 -0.003825 0.012220 0.000000 0.001843 0.000000
# 4 0.000000 0.000000 0.000000 0.321308 0.000000 -0.032606
# 5 0.002800 -0.006533 0.001843 0.000000 0.033136 0.000000
# 6 0.000000 0.000000 0.000000 -0.032606 0.000000 0.034047
#
#
# Mechanical properties :
#
#
# Convention : Reuss Voigt Hill
#
# Bulk Modulus (GPa) = 49.74921 61.84269 55.79595
# Shear Modulus (GPa) = 10.91616 27.48691 19.20153
#
# Velocity S-wave (km/s) = 2.15943 3.42662 2.86399
# Velocity P-wave (km/s) = 5.24110 6.48640 5.89672
#
# Compressibility (1/GPa) = 0.02010082
#
# Stress axis : x y z
#
# Youngs Moduli (GPa) = 106.95015 50.24323 81.83526
#
# Poissons Ratio (x) = 0.12376 0.35989
# Poissons Ratio (y) = 0.26345 0.31302
# Poissons Ratio (z) = 0.47034 0.19218
#
# Static dielectric constant tensor:
#      x y z
#    x 1.925000 0.000000 0.088570 
#    y 0.000000 1.955040 0.000000 
#    z 0.088570 0.000000 1.923450 
# 
# From -- ./inp_files/84396.got.cif
#   From: 2010.05.17/outbox.cif.g08.bks.cpg/sg15_43_cif.got.tgz:84396.got - 2010.06.03 18:47:42.
