data_PCOD9296884
_publ_section_title
;
Structure prediction by ZEFSAII (Michael W. Deem and Ramdas Pophale) SiO2 
 PCOD9296884
Probable space group: C 2/C
;
_chemical_formula_sum "Si O2"
_cell_formula_units_Z 48
_cell_length_a 15.315027
_cell_length_b 24.981746
_cell_length_c 14.770126
_cell_angle_alpha 90.000000
_cell_angle_beta 160.019070
_cell_angle_gamma 90.000000
_cell_volume 1930.985851
_symmetry_space_group_name_H-M "C 2/C"
_symmetry_group_IT_number 15
_symmetry_cell_setting 'monoclinic'
loop_
_space_group_symop_operation_xyz
x,y,z
-x,y,1/2-z
-x,-y,-z
x,-y,1/2+z
1/2+x,1/2+y,z
1/2-x,1/2+y,1/2-z
1/2-x,1/2-y,-z
1/2+x,1/2-y,1/2+z
loop_
_atom_site_type_symbol
_atom_site_label
_atom_site_fract_x
_atom_site_fract_y
_atom_site_fract_z
Si Si1 0.000000 0.478410 0.750000
Si Si2 0.777003 0.783004 0.167064
Si Si3 0.222101 0.091175 0.852563
Si Si4 0.588893 0.668425 0.526649
Si Si5 0.240061 0.911637 0.723225
Si Si6 0.500000 0.284768 0.750000
Si Si7 0.031443 0.580246 0.678964
O O1 0.108685 0.520224 0.781345
O O2 0.774781 0.441288 0.494549
O O3 0.800950 0.844628 0.155966
O O4 0.024864 0.747259 0.388533
O O5 0.765375 0.790653 0.266273
O O6 0.994962 0.068840 0.567672
O O7 0.493807 0.082501 0.067206
O O8 0.344622 0.650116 0.346772
O O9 0.489081 0.684187 0.332439
O O10 0.774918 0.618173 0.686215
O O11 0.289082 0.928124 0.875766
O O12 0.250000 0.250000 0.500000
O O13 0.000000 0.605367 0.750000
#
# Coordination Sequence:
#
# PCOD9296884 Si02
#       7
#     4   8   8   8   8   4   8
#     4  10  28  51  72 110 144 189 238 306 364 434
#     4  11  22  40  71 100 132 179 236 287 357 414
#     4  11  25  49  73 105 146 182 243 303 357 432
#     4  11  23  42  68  97 148 181 240 292 347 429
#     4  11  22  45  74  98 138 191 230 290 355 420
#     4  12  28  37  60 100 146 195 238 290 362 418
#     4  10  23  46  71 104 146 190 234 285 360 416
#
# _framework density 24.857769999999999
#
# number of rings (size 3 to 8) (size 9 to 14) (size 15 to 20)
#    0.500    0.667    3.333    4.000    3.500    2.000 
#    6.000    0.833    0.000    0.000    0.000    0.000 
#    0.000    0.000    0.000    0.000    0.000    0.000 
#
# Total GULP energy -134033.876162 kJ/mol
# GULP energy per Si atom -5584.744840 kJ/mol
# Density = 2.480119 g / cm^3
# Si number density = 24.857770 Si / 1000 Ang^3
#
#
#
# Elastic Constant Matrix: (Units=GPa)
#
#
# Indices 1 2 3 4 5 6 
#
# 1 55.3261 14.1275 55.9219 0.0445 -13.5130 0.0788
# 2 14.1275 89.8854 55.3599 0.0043 -17.9760 0.0087
# 3 55.9219 55.3599 212.9332 0.0569 -19.6748 0.1023
# 4 0.0445 0.0043 0.0569 -131.1043 0.0678 -328.1553
# 5 -13.5130 -17.9760 -19.6748 0.0678 45.6552 0.1213
# 6 0.0788 0.0087 0.1023 -328.1553 0.1213 -515.6239
#
#
#
# Elastic Compliance Matrix: (Units=1/GPa)
#
#
# Indices 1 2 3 4 5 6 
#
# 1 0.025683 0.001024 -0.006532 0.000002 0.005190 0.000003
# 2 0.001024 0.013984 -0.003508 0.000000 0.004298 0.000000
# 3 -0.006532 -0.003508 0.007308 0.000000 -0.000165 0.000000
# 4 0.000002 0.000000 0.000000 0.012863 0.000003 -0.008186
# 5 0.005190 0.004298 -0.000165 0.000003 0.025061 0.000005
# 6 0.000003 0.000000 0.000000 -0.008186 0.000005 0.003271
#
#
# Mechanical properties :
#
#
# Convention : Reuss Voigt Hill
#
# Bulk Modulus (GPa) = 34.54825 67.66260 51.10543
# Shear Modulus (GPa) = 43.15999 -104.69889 -30.76945
#
# Velocity S-wave (km/s) = 4.17139 -6.49697 -3.52208
# Velocity P-wave (km/s) = 6.09337 5.38534 2.01585
#
# Compressibility (1/GPa) = 0.02894502
#
# Stress axis : x y z
#
# Youngs Moduli (GPa) = 38.93658 71.51007 136.82892
#
# Poissons Ratio (x) = -0.07324 0.89372
# Poissons Ratio (y) = -0.03988 0.47993
# Poissons Ratio (z) = 0.25432 0.25082
#
# Static dielectric constant tensor:
#      x y z
#    x 1.918230 0.000000 0.015720 
#    y 0.000000 1.958350 0.000000 
#    z 0.015720 0.000000 1.974570 
# 
# From -- ./inp_files/212071.got.cif
#   From: 2010.05.17/outbox.cif.g08.bks.cpg/sg15_107_cif.got.tgz:212071.got - 2010.06.03 18:47:42.
