data_PCOD9296738
_publ_section_title
;
Structure prediction by ZEFSAII (Michael W. Deem and Ramdas Pophale) SiO2 
 PCOD9296738
Probable space group: C 2/C
;
_chemical_formula_sum "Si O2"
_cell_formula_units_Z 32
_cell_length_a 11.338320
_cell_length_b 17.004840
_cell_length_c 14.427364
_cell_angle_alpha 90.000000
_cell_angle_beta 150.207144
_cell_angle_gamma 90.000000
_cell_volume 1382.124984
_symmetry_space_group_name_H-M "C 2/C"
_symmetry_group_IT_number 15
_symmetry_cell_setting 'monoclinic'
loop_
_space_group_symop_operation_xyz
x,y,z
-x,y,1/2-z
-x,-y,-z
x,-y,1/2+z
1/2+x,1/2+y,z
1/2-x,1/2+y,1/2-z
1/2-x,1/2-y,-z
1/2+x,1/2-y,1/2+z
loop_
_atom_site_type_symbol
_atom_site_label
_atom_site_fract_x
_atom_site_fract_y
_atom_site_fract_z
Si Si1 0.500000 0.911600 0.250000
Si Si2 0.088351 0.667633 0.111445
Si Si3 0.500000 0.158966 0.250000
Si Si4 0.602136 0.702536 0.476411
Si Si5 0.737777 0.042434 0.531402
O O1 0.708442 0.857274 0.352055
O O2 0.619743 0.963464 0.412064
O O3 0.368720 0.656088 0.285194
O O4 0.050313 0.702543 0.189556
O O5 0.016037 0.731265 0.988035
O O6 0.935023 0.588297 0.014453
O O7 0.717438 0.100884 0.427183
O O8 0.750000 0.750000 0.500000
O O9 0.000000 0.034248 0.750000
#
# Coordination Sequence:
#
# PCOD9296738 Si02
#       5
#     4   8   4   8   8
#     4  11  24  48  76 106 155 190 256 307 366 462
#     4  10  23  45  75 108 149 195 249 317 368 446
#     4   7  20  44  70 112 133 188 246 317 356 426
#     4  12  24  46  71 110 155 201 245 302 384 453
#     4   9  21  48  76 107 144 192 249 313 374 433
#
# _framework density 23.152753000000001
#
# number of rings (size 3 to 8) (size 9 to 14) (size 15 to 20)
#    1.500    0.500    2.500    0.000    0.000    6.000 
#    2.250    2.500    0.000    0.000    0.000    0.000 
#    0.000    0.000    0.000    0.000    0.000    0.000 
#
# Total GULP energy -89230.566171 kJ/mol
# GULP energy per Si atom -5576.910386 kJ/mol
# Density = 2.310006 g / cm^3
# Si number density = 23.152753 Si / 1000 Ang^3
#
#
#
# Elastic Constant Matrix: (Units=GPa)
#
#
# Indices 1 2 3 4 5 6 
#
# 1 93.8760 45.7246 27.9617 -0.0217 -5.2290 -0.0130
# 2 45.7246 107.3016 70.7613 -0.0208 6.4880 -0.0099
# 3 27.9617 70.7613 194.0248 -0.0947 28.6082 -0.0465
# 4 -0.0217 -0.0208 -0.0947 22.6665 -0.0120 -14.9664
# 5 -5.2290 6.4880 28.6082 -0.0120 41.4826 -0.0079
# 6 -0.0130 -0.0099 -0.0465 -14.9664 -0.0079 -0.2527
#
#
#
# Elastic Compliance Matrix: (Units=1/GPa)
#
#
# Indices 1 2 3 4 5 6 
#
# 1 0.013739 -0.005852 -0.000263 -0.000008 0.002828 -0.000025
# 2 -0.005852 0.014827 -0.004579 0.000009 0.000101 0.000030
# 3 -0.000263 -0.004579 0.007526 -0.000017 -0.004507 -0.000063
# 4 -0.000008 0.000009 -0.000017 0.001100 -0.000003 -0.065150
# 5 0.002828 0.000101 -0.004507 -0.000003 0.027556 -0.000002
# 6 -0.000025 0.000030 -0.000063 -0.065150 -0.000002 -0.098668
#
#
# Mechanical properties :
#
#
# Convention : Reuss Voigt Hill
#
# Bulk Modulus (GPa) = 68.00762 76.01086 72.00924
# Shear Modulus (GPa) = -655.17219 29.49624 -312.83797
#
# Velocity S-wave (km/s) = -16.84020 3.57316 -11.63669
# Velocity P-wave (km/s) = 18.67314 7.06575 12.22214
#
# Compressibility (1/GPa) = 0.01470423
#
# Stress axis : x y z
#
# Youngs Moduli (GPa) = 72.78762 67.44513 132.86654
#
# Poissons Ratio (x) = 0.39471 0.03489
# Poissons Ratio (y) = 0.42597 0.60838
# Poissons Ratio (z) = 0.01911 0.30882
#
# Static dielectric constant tensor:
#      x y z
#    x 1.881770 0.000000 -0.023620 
#    y 0.000000 1.895950 0.000000 
#    z -0.023620 0.000000 1.934580 
# 
# From -- ./inp_files/145911.got.cif
#   From: 2010.05.17/outbox.cif.g08.bks.cpg/sg15_73_cif.got.tgz:145911.got - 2010.06.03 18:47:42.
