data_PCOD9296006
_publ_section_title
;
Structure prediction by ZEFSAII (Michael W. Deem and Ramdas Pophale) SiO2 
 PCOD9296006
Probable space group: C 2/C
;
_chemical_formula_sum "Si O2"
_cell_formula_units_Z 28
_cell_length_a 5.257281
_cell_length_b 13.509701
_cell_length_c 15.024504
_cell_angle_alpha 90.000000
_cell_angle_beta 91.676922
_cell_angle_gamma 90.000000
_cell_volume 1066.647784
_symmetry_space_group_name_H-M "C 2/C"
_symmetry_group_IT_number 15
_symmetry_cell_setting 'monoclinic'
loop_
_space_group_symop_operation_xyz
x,y,z
-x,y,1/2-z
-x,-y,-z
x,-y,1/2+z
1/2+x,1/2+y,z
1/2-x,1/2+y,1/2-z
1/2-x,1/2-y,-z
1/2+x,1/2-y,1/2+z
loop_
_atom_site_type_symbol
_atom_site_label
_atom_site_fract_x
_atom_site_fract_y
_atom_site_fract_z
Si Si1 0.861311 0.265157 0.353892
Si Si2 0.500000 0.605173 0.750000
Si Si3 0.572745 0.129435 0.473912
Si Si4 0.439254 0.559672 0.103273
O O1 0.741231 0.324666 0.271256
O O2 0.617868 0.224826 0.410479
O O3 0.995378 0.335119 0.428248
O O4 0.015998 0.164251 0.343663
O O5 0.488269 0.531764 0.833979
O O6 0.848438 0.077241 0.470824
O O7 0.353323 0.064993 0.427899
#
# Coordination Sequence:
#
# PCOD9296006 Si02
#       4
#     8   4   8   8
#     4   9  23  44  70  98 134 182 224 279 338 395
#     4  12  26  42  70 110 134 188 212 290 358 388
#     4   9  21  47  71  88 140 180 226 279 323 404
#     4  10  23  44  65 102 133 173 232 280 324 414
#
# _framework density 26.250463
#
# number of rings (size 3 to 8) (size 9 to 14) (size 15 to 20)
#    1.714    0.571    0.000    0.857    4.000    3.429 
#   10.286    0.000    0.000    0.000    0.000    0.000 
#    0.000    0.000    0.000    0.000    0.000    0.000 
#
# Total GULP energy -78277.220756 kJ/mol
# GULP energy per Si atom -5591.230054 kJ/mol
# Density = 2.619072 g / cm^3
# Si number density = 26.250463 Si / 1000 Ang^3
#
#
#
# Elastic Constant Matrix: (Units=GPa)
#
#
# Indices 1 2 3 4 5 6 
#
# 1 104.3314 24.8972 20.7705 0.0000 30.6815 0.0000
# 2 24.8972 124.5123 -0.3453 0.0000 19.6958 0.0000
# 3 20.7705 -0.3453 79.3389 0.0000 19.0520 0.0000
# 4 0.0000 0.0000 0.0000 69.8413 0.0000 -0.5961
# 5 30.6815 19.6958 19.0520 0.0000 32.9571 0.0000
# 6 0.0000 0.0000 0.0000 -0.5961 0.0000 35.6737
#
#
#
# Elastic Compliance Matrix: (Units=1/GPa)
#
#
# Indices 1 2 3 4 5 6 
#
# 1 0.013301 -0.000851 -0.000737 0.000000 -0.011449 0.000000
# 2 -0.000851 0.009086 0.001598 0.000000 -0.005561 0.000000
# 3 -0.000737 0.001598 0.014943 0.000000 -0.008907 0.000000
# 4 0.000000 0.000000 0.000000 0.014320 0.000000 0.000239
# 5 -0.011449 -0.005561 -0.008907 0.000000 0.049473 0.000000
# 6 0.000000 0.000000 0.000000 0.000239 0.000000 0.028036
#
#
# Mechanical properties :
#
#
# Convention : Reuss Voigt Hill
#
# Bulk Modulus (GPa) = 26.77352 44.31416 35.54384
# Shear Modulus (GPa) = 35.31354 45.21844 40.26599
#
# Velocity S-wave (km/s) = 3.67175 4.15490 3.92077
# Velocity P-wave (km/s) = 5.31009 6.31945 5.83663
#
# Compressibility (1/GPa) = 0.03735034
#
# Stress axis : x y z
#
# Youngs Moduli (GPa) = 75.18070 110.06431 66.92126
#
# Poissons Ratio (x) = 0.09364 0.04930
# Poissons Ratio (y) = 0.06396 -0.10692
# Poissons Ratio (z) = 0.05539 -0.17585
#
# Static dielectric constant tensor:
#      x y z
#    x 2.061770 0.000000 -0.100340 
#    y 0.000000 2.136790 0.000000 
#    z -0.100340 0.000000 2.129330 
# 
# From -- ./inp_files/183629.got.cif
#   From: 2010.05.17/outbox.cif.g08.bks.cpg/sg15_92_cif.got.tgz:183629.got - 2010.06.03 18:47:42.
