data_PCOD9296376
_publ_section_title
;
Structure prediction by ZEFSAII (Michael W. Deem and Ramdas Pophale) SiO2 
 PCOD9296376
Probable space group: C 2/C
;
_chemical_formula_sum "Si O2"
_cell_formula_units_Z 52
_cell_length_a 14.692709
_cell_length_b 23.813386
_cell_length_c 8.523385
_cell_angle_alpha 90.000000
_cell_angle_beta 50.033580
_cell_angle_gamma 90.000000
_cell_volume 2285.612234
_symmetry_space_group_name_H-M "C 2/C"
_symmetry_group_IT_number 15
_symmetry_cell_setting 'monoclinic'
loop_
_space_group_symop_operation_xyz
x,y,z
-x,y,1/2-z
-x,-y,-z
x,-y,1/2+z
1/2+x,1/2+y,z
1/2-x,1/2+y,1/2-z
1/2-x,1/2-y,-z
1/2+x,1/2-y,1/2+z
loop_
_atom_site_type_symbol
_atom_site_label
_atom_site_fract_x
_atom_site_fract_y
_atom_site_fract_z
Si Si1 0.929935 0.878170 0.667499
Si Si2 0.519733 0.908849 0.914155
Si Si3 0.337137 0.502193 0.801248
Si Si4 0.516586 0.784110 0.043306
Si Si5 0.723421 0.274756 0.700588
Si Si6 0.000000 0.904050 0.250000
Si Si7 0.678098 0.990181 0.228739
O O1 0.908839 0.944910 0.707614
O O2 0.811738 0.840082 0.785821
O O3 0.000000 0.860299 0.750000
O O4 0.987393 0.871755 0.429409
O O5 0.500000 0.902697 0.750000
O O6 0.637698 0.946013 0.799300
O O7 0.516494 0.848984 0.997371
O O8 0.418783 0.947019 0.105694
O O9 0.392483 0.552497 0.838253
O O10 0.304263 0.524879 0.666579
O O11 0.207725 0.487094 0.013344
O O12 0.500000 0.778504 0.250000
O O13 0.399170 0.753855 0.103509
O O14 0.651082 0.764690 0.850519
O O15 0.750000 0.250000 0.500000
#
# Coordination Sequence:
#
# PCOD9296376 Si02
#       7
#     8   8   8   8   8   4   8
#     4  12  24  42  71  96 142 193 238 302 364 419
#     4  11  24  42  60  99 135 178 225 290 355 426
#     4  12  22  42  63  97 137 185 228 282 346 434
#     4  10  23  44  72  96 133 174 236 293 353 422
#     4  10  23  46  72 104 131 181 245 293 354 438
#     4  12  26  44  62 108 146 180 246 286 358 442
#     4  11  24  37  64  94 136 178 229 280 347 424
#
# _framework density 22.751014000000001
#
# number of rings (size 3 to 8) (size 9 to 14) (size 15 to 20)
#    0.000    0.923    3.846    3.692    6.462    0.000 
#    4.154    0.769    0.000    0.000    0.000    0.000 
#    0.000    0.000    0.000    0.000    0.000    0.000 
#
# Total GULP energy -145029.278346 kJ/mol
# GULP energy per Si atom -5578.049167 kJ/mol
# Density = 2.269923 g / cm^3
# Si number density = 22.751014 Si / 1000 Ang^3
#
#
#
# Elastic Constant Matrix: (Units=GPa)
#
#
# Indices 1 2 3 4 5 6 
#
# 1 110.0305 29.7978 34.3099 0.0000 -22.4410 0.0000
# 2 29.7978 77.2218 25.0490 0.0000 -11.7311 0.0000
# 3 34.3099 25.0490 97.2589 0.0000 -9.3700 0.0000
# 4 0.0000 0.0000 0.0000 34.6069 0.0000 -6.4273
# 5 -22.4410 -11.7311 -9.3700 0.0000 38.3266 0.0000
# 6 0.0000 0.0000 0.0000 -6.4273 0.0000 23.7512
#
#
#
# Elastic Compliance Matrix: (Units=1/GPa)
#
#
# Indices 1 2 3 4 5 6 
#
# 1 0.011861 -0.002807 -0.002944 0.000000 0.005366 0.000000
# 2 -0.002807 0.015273 -0.002715 0.000000 0.002368 0.000000
# 3 -0.002944 -0.002715 0.012058 0.000000 0.000393 0.000000
# 4 0.000000 0.000000 0.000000 0.030425 0.000000 0.008233
# 5 0.005366 0.002368 0.000393 0.000000 0.030054 0.000000
# 6 0.000000 0.000000 0.000000 0.008233 0.000000 0.044331
#
#
# Mechanical properties :
#
#
# Convention : Reuss Voigt Hill
#
# Bulk Modulus (GPa) = 44.92544 51.42498 48.17521
# Shear Modulus (GPa) = 29.69916 32.36055 31.02986
#
# Velocity S-wave (km/s) = 3.61695 3.77553 3.69709
# Velocity P-wave (km/s) = 6.10185 6.45435 6.28057
#
# Compressibility (1/GPa) = 0.02225910
#
# Stress axis : x y z
#
# Youngs Moduli (GPa) = 84.31002 65.47409 82.93446
#
# Poissons Ratio (x) = 0.18376 0.24419
# Poissons Ratio (y) = 0.23662 0.22520
# Poissons Ratio (z) = 0.24824 0.17779
#
# Static dielectric constant tensor:
#      x y z
#    x 1.908830 0.000000 -0.023240 
#    y 0.000000 1.796510 0.000000 
#    z -0.023240 0.000000 1.868080 
# 
# From -- ./inp_files/43414.got.cif
#   From: 2010.05.17/outbox.cif.g08.bks.cpg/sg15_22_cif.got.tgz:43414.got - 2010.06.03 18:47:42.
