data_PCOD9296956
_publ_section_title
;
Structure prediction by ZEFSAII (Michael W. Deem and Ramdas Pophale) SiO2 
 PCOD9296956
Probable space group: C 2/C
;
_chemical_formula_sum "Si O2"
_cell_formula_units_Z 56
_cell_length_a 11.895717
_cell_length_b 9.031838
_cell_length_c 23.077532
_cell_angle_alpha 90.000000
_cell_angle_beta 105.397253
_cell_angle_gamma 90.000000
_cell_volume 2390.462154
_symmetry_space_group_name_H-M "C 2/C"
_symmetry_group_IT_number 15
_symmetry_cell_setting 'monoclinic'
loop_
_space_group_symop_operation_xyz
x,y,z
-x,y,1/2-z
-x,-y,-z
x,-y,1/2+z
1/2+x,1/2+y,z
1/2-x,1/2+y,1/2-z
1/2-x,1/2-y,-z
1/2+x,1/2-y,1/2+z
loop_
_atom_site_type_symbol
_atom_site_label
_atom_site_fract_x
_atom_site_fract_y
_atom_site_fract_z
Si Si1 0.970075 0.459953 0.642318
Si Si2 0.551960 0.336345 0.311690
Si Si3 0.143675 0.873772 0.930459
Si Si4 0.911283 0.980392 0.863057
Si Si5 0.691844 0.173206 0.824865
Si Si6 0.812689 0.330372 0.313196
Si Si7 0.884522 0.570037 0.512279
O O1 0.970082 0.284218 0.642214
O O2 0.900725 0.539237 0.684625
O O3 0.890583 0.503361 0.576934
O O4 0.096004 0.538481 0.660640
O O5 0.500000 0.250979 0.250000
O O6 0.466152 0.473296 0.308664
O O7 0.685841 0.369990 0.320209
O O8 0.154838 0.795070 0.868045
O O9 0.117928 0.745896 0.974436
O O10 0.029543 0.975603 0.915962
O O11 0.264480 0.954974 0.961588
O O12 0.857611 0.817612 0.851274
O O13 0.813457 0.100958 0.862159
O O14 0.698144 0.209412 0.757134
O O15 0.000000 0.500000 0.500000
#
# Coordination Sequence:
#
# PCOD9296956 Si02
#       7
#     8   8   8   8   8   8   8
#     4  11  25  47  68  98 141 183 231 289 347 404
#     4  12  27  41  65 106 142 177 233 275 343 429
#     4  10  25  46  68 101 136 175 241 289 340 421
#     4  12  26  42  69 106 137 182 225 279 342 417
#     4  11  23  42  71  98 144 180 221 285 353 410
#     4  12  25  44  69 100 145 184 223 277 349 428
#     4  10  23  46  74  94 128 191 239 288 349 402
#
# _framework density 23.426431999999998
#
# number of rings (size 3 to 8) (size 9 to 14) (size 15 to 20)
#    0.000    0.857    5.714    1.286    6.000    0.000 
#    0.000    8.571    0.000    0.000    0.000    0.000 
#    0.000    0.000    0.000    0.000    0.000    0.000 
#
# Total GULP energy -156345.808673 kJ/mol
# GULP energy per Si atom -5583.778881 kJ/mol
# Density = 2.337311 g / cm^3
# Si number density = 23.426432 Si / 1000 Ang^3
#
#
#
# Elastic Constant Matrix: (Units=GPa)
#
#
# Indices 1 2 3 4 5 6 
#
# 1 143.4294 44.3256 3.4800 0.0000 28.1921 0.0000
# 2 44.3256 51.4693 12.1126 0.0000 14.4689 0.0000
# 3 3.4800 12.1126 60.4289 0.0000 25.5681 0.0000
# 4 0.0000 0.0000 0.0000 18.8648 0.0000 13.3244
# 5 28.1921 14.4689 25.5681 0.0000 42.3413 0.0000
# 6 0.0000 0.0000 0.0000 13.3244 0.0000 36.6137
#
#
#
# Elastic Compliance Matrix: (Units=1/GPa)
#
#
# Indices 1 2 3 4 5 6 
#
# 1 0.010750 -0.008296 0.003859 0.000000 -0.006653 0.000000
# 2 -0.008296 0.028013 -0.004599 0.000000 -0.001272 0.000000
# 3 0.003859 -0.004599 0.023734 0.000000 -0.015330 0.000000
# 4 0.000000 0.000000 0.000000 0.071348 0.000000 -0.025965
# 5 -0.006653 -0.001272 -0.015330 0.000000 0.037739 0.000000
# 6 0.000000 0.000000 0.000000 -0.025965 0.000000 0.036761
#
#
# Mechanical properties :
#
#
# Convention : Reuss Voigt Hill
#
# Bulk Modulus (GPa) = 22.50997 41.68490 32.09743
# Shear Modulus (GPa) = 20.72746 32.59125 26.65936
#
# Velocity S-wave (km/s) = 2.97777 3.73395 3.37709
# Velocity P-wave (km/s) = 4.63168 6.03510 5.37935
#
# Compressibility (1/GPa) = 0.04442475
#
# Stress axis : x y z
#
# Youngs Moduli (GPa) = 93.02497 35.69740 42.13346
#
# Poissons Ratio (x) = 0.29613 -0.16258
# Poissons Ratio (y) = 0.77170 0.19378
# Poissons Ratio (z) = -0.35895 0.16418
#
# Static dielectric constant tensor:
#      x y z
#    x 1.924140 0.000000 -0.075750 
#    y 0.000000 1.932750 0.000000 
#    z -0.075750 0.000000 2.086750 
# 
# From -- ./inp_files/291621.got.cif
#   From: 2010.05.17/outbox.cif.g08.bks.cpg/sg15_146_cif.got.tgz:291621.got - 2010.06.03 18:47:42.
