data_PCOD9296939
_publ_section_title
;
Structure prediction by ZEFSAII (Michael W. Deem and Ramdas Pophale) SiO2 
 PCOD9296939
Probable space group: C 2/C
;
_chemical_formula_sum "Si O2"
_cell_formula_units_Z 40
_cell_length_a 11.638675
_cell_length_b 11.844481
_cell_length_c 20.942328
_cell_angle_alpha 90.000000
_cell_angle_beta 142.372512
_cell_angle_gamma 90.000000
_cell_volume 1762.577119
_symmetry_space_group_name_H-M "C 2/C"
_symmetry_group_IT_number 15
_symmetry_cell_setting 'monoclinic'
loop_
_space_group_symop_operation_xyz
x,y,z
-x,y,1/2-z
-x,-y,-z
x,-y,1/2+z
1/2+x,1/2+y,z
1/2-x,1/2+y,1/2-z
1/2-x,1/2-y,-z
1/2+x,1/2-y,1/2+z
loop_
_atom_site_type_symbol
_atom_site_label
_atom_site_fract_x
_atom_site_fract_y
_atom_site_fract_z
Si Si1 0.000000 0.121535 0.250000
Si Si2 0.500000 0.807572 0.750000
Si Si3 0.160228 0.555915 0.613816
Si Si4 0.697985 0.522205 0.055091
Si Si5 0.133157 0.834316 0.406493
Si Si6 0.581394 0.189399 0.887967
O O1 0.008061 0.208609 0.312501
O O2 0.173916 0.037940 0.308058
O O3 0.672839 0.886967 0.850006
O O4 0.539708 0.732148 0.702649
O O5 0.249306 0.644433 0.604923
O O6 0.000000 0.500000 0.500000
O O7 0.064246 0.618935 0.631373
O O8 0.818823 0.408683 0.108530
O O9 0.500000 0.500000 0.000000
O O10 0.637955 0.558291 0.955539
O O11 0.250000 0.750000 0.500000
O O12 0.750000 0.250000 0.000000
#
# Coordination Sequence:
#
# PCOD9296939 Si02
#       6
#     4   4   8   8   8   8
#     4  12  28  52  80 124 158 220 260 334 416 466
#     4  10  24  46  70 110 146 202 258 306 388 464
#     4  12  25  53  78 110 165 202 268 329 395 486
#     4  11  25  49  73 111 158 202 262 324 390 480
#     4  10  23  46  73 107 148 201 253 319 387 457
#     4  12  27  51  80 112 161 214 262 332 402 471
#
# _framework density 22.694044000000002
#
# number of rings (size 3 to 8) (size 9 to 14) (size 15 to 20)
#    0.000    0.800    4.000    1.200    5.600    1.600 
#   21.600    0.000    0.000    0.000    0.000    0.000 
#    0.000    0.000    0.000    0.000    0.000    0.000 
#
# Total GULP energy -111454.350198 kJ/mol
# GULP energy per Si atom -5572.717510 kJ/mol
# Density = 2.264239 g / cm^3
# Si number density = 22.694044 Si / 1000 Ang^3
#
#
#
# Elastic Constant Matrix: (Units=GPa)
#
#
# Indices 1 2 3 4 5 6 
#
# 1 145.8294 62.4390 57.4144 0.0000 20.2042 0.0000
# 2 62.4390 159.8845 73.7458 0.0000 8.3416 0.0000
# 3 57.4144 73.7458 168.2441 0.0000 -3.0297 0.0000
# 4 0.0000 0.0000 0.0000 66.4921 0.0000 -19.9829
# 5 20.2042 8.3416 -3.0297 0.0000 33.5727 0.0000
# 6 0.0000 0.0000 0.0000 -19.9829 0.0000 29.2899
#
#
#
# Elastic Compliance Matrix: (Units=1/GPa)
#
#
# Indices 1 2 3 4 5 6 
#
# 1 0.009523 -0.002377 -0.002304 0.000000 -0.005348 0.000000
# 2 -0.002377 0.008608 -0.002980 0.000000 -0.000977 0.000000
# 3 -0.002304 -0.002980 0.008088 0.000000 0.002857 0.000000
# 4 0.000000 0.000000 0.000000 0.018918 0.000000 0.012907
# 5 -0.005348 -0.000977 0.002857 0.000000 0.033505 0.000000
# 6 0.000000 0.000000 0.000000 0.012907 0.000000 0.042947
#
#
# Mechanical properties :
#
#
# Convention : Reuss Voigt Hill
#
# Bulk Modulus (GPa) = 91.76787 95.68405 93.72596
# Shear Modulus (GPa) = 35.57596 44.56151 40.06873
#
# Velocity S-wave (km/s) = 3.96363 4.43603 4.20647
# Velocity P-wave (km/s) = 7.84040 8.27599 8.06114
#
# Compressibility (1/GPa) = 0.01089706
#
# Stress axis : x y z
#
# Youngs Moduli (GPa) = 105.00449 116.16879 123.64731
#
# Poissons Ratio (x) = 0.27617 0.28491
# Poissons Ratio (y) = 0.24963 0.36841
# Poissons Ratio (z) = 0.24195 0.34613
#
# Static dielectric constant tensor:
#      x y z
#    x 1.649070 0.000000 0.306680 
#    y 0.000000 1.172670 0.000000 
#    z 0.306680 0.000000 1.403220 
# 
# From -- ./inp_files/237828.got.cif
#   From: 2010.05.17/outbox.cif.g08.bks.cpg/sg15_119_cif.got.tgz:237828.got - 2010.06.03 18:47:42.
