data_PCOD9296415
_publ_section_title
;
Structure prediction by ZEFSAII (Michael W. Deem and Ramdas Pophale) SiO2 
 PCOD9296415
Probable space group: C 2/C
;
_chemical_formula_sum "Si O2"
_cell_formula_units_Z 36
_cell_length_a 15.738223
_cell_length_b 16.270910
_cell_length_c 8.841345
_cell_angle_alpha 90.000000
_cell_angle_beta 143.160043
_cell_angle_gamma 90.000000
_cell_volume 1357.482895
_symmetry_space_group_name_H-M "C 2/C"
_symmetry_group_IT_number 15
_symmetry_cell_setting 'monoclinic'
loop_
_space_group_symop_operation_xyz
x,y,z
-x,y,1/2-z
-x,-y,-z
x,-y,1/2+z
1/2+x,1/2+y,z
1/2-x,1/2+y,1/2-z
1/2-x,1/2-y,-z
1/2+x,1/2-y,1/2+z
loop_
_atom_site_type_symbol
_atom_site_label
_atom_site_fract_x
_atom_site_fract_y
_atom_site_fract_z
Si Si1 0.218048 0.919684 0.463456
Si Si2 0.292640 0.201993 0.818085
Si Si3 0.906654 0.877566 0.922133
Si Si4 0.500000 0.318038 0.750000
Si Si5 0.085628 0.436976 0.228672
O O1 0.286207 0.842436 0.472137
O O2 0.210087 0.915670 0.633317
O O3 0.296605 0.002342 0.534220
O O4 0.056340 0.917336 0.178785
O O5 0.388696 0.282242 0.947551
O O6 0.132013 0.223019 0.529527
O O7 0.356862 0.135540 0.793845
O O8 0.917444 0.871149 0.757813
O O9 0.000000 0.403643 0.250000
O O10 0.000000 0.500000 0.000000
#
# Coordination Sequence:
#
# PCOD9296415 Si02
#       5
#     8   8   8   4   8
#     4  10  24  47  71 105 141 198 243 296 367 444
#     4  11  24  45  71 105 148 190 251 300 368 436
#     4  10  23  44  74 103 143 190 246 304 361 439
#     4  10  24  40  66 108 142 184 234 316 370 422
#     4  12  27  46  71 104 149 199 245 301 370 445
#
# _framework density 26.519670999999999
#
# number of rings (size 3 to 8) (size 9 to 14) (size 15 to 20)
#    0.000    1.333    2.222    1.333    4.667    8.889 
#    0.000    7.778    0.000    0.000    0.000    0.000 
#    0.000    0.000    0.000    0.000    0.000    0.000 
#
# Total GULP energy -100776.867237 kJ/mol
# GULP energy per Si atom -5598.714846 kJ/mol
# Density = 2.645931 g / cm^3
# Si number density = 26.519671 Si / 1000 Ang^3
#
#
#
# Elastic Constant Matrix: (Units=GPa)
#
#
# Indices 1 2 3 4 5 6 
#
# 1 207.6504 23.3641 22.9561 0.0000 -26.4231 0.0000
# 2 23.3641 86.7141 37.5378 0.0000 17.8134 0.0000
# 3 22.9561 37.5378 110.6922 0.0000 -2.0494 0.0000
# 4 0.0000 0.0000 0.0000 -7.1155 0.0000 36.0051
# 5 -26.4231 17.8134 -2.0494 0.0000 43.0518 0.0000
# 6 0.0000 0.0000 0.0000 36.0051 0.0000 5.2362
#
#
#
# Elastic Compliance Matrix: (Units=1/GPa)
#
#
# Indices 1 2 3 4 5 6 
#
# 1 0.005671 -0.002299 -0.000315 0.000000 0.004417 0.000000
# 2 -0.002299 0.016079 -0.005130 0.000000 -0.008308 0.000000
# 3 -0.000315 -0.005130 0.010884 0.000000 0.002447 0.000000
# 4 0.000000 0.000000 0.000000 -0.003926 0.000000 0.026998
# 5 0.004417 -0.008308 0.002447 0.000000 0.029493 0.000000
# 6 0.000000 0.000000 0.000000 0.026998 0.000000 0.005335
#
#
# Mechanical properties :
#
#
# Convention : Reuss Voigt Hill
#
# Bulk Modulus (GPa) = 58.31805 63.64141 60.97973
# Shear Modulus (GPa) = 59.00412 29.64775 44.32594
#
# Velocity S-wave (km/s) = 4.72202 3.34721 4.09276
# Velocity P-wave (km/s) = 7.19501 6.24406 6.73634
#
# Compressibility (1/GPa) = 0.01714735
#
# Stress axis : x y z
#
# Youngs Moduli (GPa) = 176.32449 62.19286 91.87635
#
# Poissons Ratio (x) = 0.14300 0.02891
# Poissons Ratio (y) = 0.40542 0.47130
# Poissons Ratio (z) = 0.05548 0.31903
#
# Static dielectric constant tensor:
#      x y z
#    x 2.028480 0.000000 0.001630 
#    y 0.000000 1.996870 0.000000 
#    z 0.001630 0.000000 2.328870 
# 
# From -- ./inp_files/41335.got.cif
#   From: 2010.05.17/outbox.cif.g08.bks.cpg/sg15_21_cif.got.tgz:41335.got - 2010.06.03 18:47:42.
