data_PCOD9296478
_publ_section_title
;
Structure prediction by ZEFSAII (Michael W. Deem and Ramdas Pophale) SiO2 
 PCOD9296478
Probable space group: C 2/C
;
_chemical_formula_sum "Si O2"
_cell_formula_units_Z 36
_cell_length_a 6.716611
_cell_length_b 12.442791
_cell_length_c 22.117651
_cell_angle_alpha 90.000000
_cell_angle_beta 59.791870
_cell_angle_gamma 90.000000
_cell_volume 1597.434218
_symmetry_space_group_name_H-M "C 2/C"
_symmetry_group_IT_number 15
_symmetry_cell_setting 'monoclinic'
loop_
_space_group_symop_operation_xyz
x,y,z
-x,y,1/2-z
-x,-y,-z
x,-y,1/2+z
1/2+x,1/2+y,z
1/2-x,1/2+y,1/2-z
1/2-x,1/2-y,-z
1/2+x,1/2-y,1/2+z
loop_
_atom_site_type_symbol
_atom_site_label
_atom_site_fract_x
_atom_site_fract_y
_atom_site_fract_z
Si Si1 0.025147 0.767612 0.493846
Si Si2 0.745030 0.804687 0.303602
Si Si3 0.389320 0.599384 0.122916
Si Si4 0.170766 0.893398 0.076061
Si Si5 0.000000 0.464390 0.250000
O O1 0.250000 0.750000 0.500000
O O2 0.869632 0.846267 0.560206
O O3 0.032427 0.827166 0.428211
O O4 0.896627 0.653757 0.508827
O O5 0.581095 0.701670 0.337444
O O6 0.781411 0.862836 0.362168
O O7 0.654755 0.888190 0.268636
O O8 0.000000 0.763096 0.250000
O O9 0.598604 0.516415 0.085682
O O10 0.170195 0.534259 0.181679
#
# Coordination Sequence:
#
# PCOD9296478 Si02
#       5
#     8   8   8   8   4
#     4  10  24  46  71 102 137 177 229 288 336 408
#     4  11  24  44  65  99 141 174 231 282 324 413
#     4  11  24  44  71  99 138 180 226 280 344 407
#     4  10  23  45  65 102 136 172 231 279 336 406
#     4  12  26  44  68 100 138 182 228 282 342 402
#
# _framework density 22.53614
#
# number of rings (size 3 to 8) (size 9 to 14) (size 15 to 20)
#    0.000    1.333    3.333    0.667    6.222    2.667 
#   12.000    0.000    0.000    0.000    0.000    0.000 
#    0.000    0.000    0.000    0.000    0.000    0.000 
#
# Total GULP energy -100441.321657 kJ/mol
# GULP energy per Si atom -5580.073425 kJ/mol
# Density = 2.248485 g / cm^3
# Si number density = 22.536140 Si / 1000 Ang^3
#
#
#
# Elastic Constant Matrix: (Units=GPa)
#
#
# Indices 1 2 3 4 5 6 
#
# 1 122.3521 54.2586 41.8466 -0.0002 22.6554 0.0001
# 2 54.2586 115.6613 39.6339 0.0000 -10.5420 0.0000
# 3 41.8466 39.6339 85.3033 -0.0001 13.8868 0.0000
# 4 -0.0002 0.0000 -0.0001 30.8374 0.0001 -16.4282
# 5 22.6554 -10.5420 13.8868 0.0001 32.4831 -0.0001
# 6 0.0001 0.0000 0.0000 -16.4282 -0.0001 30.1811
#
#
#
# Elastic Compliance Matrix: (Units=1/GPa)
#
#
# Indices 1 2 3 4 5 6 
#
# 1 0.013944 -0.006953 -0.001784 0.000000 -0.011219 0.000000
# 2 -0.006953 0.014870 -0.005453 0.000000 0.012006 0.000000
# 3 -0.001784 -0.005453 0.016355 0.000000 -0.007518 0.000000
# 4 0.000000 0.000000 0.000000 0.045672 0.000000 0.024860
# 5 -0.011219 0.012006 -0.007518 0.000000 0.045720 0.000000
# 6 0.000000 0.000000 0.000000 0.024860 0.000000 0.046665
#
#
# Mechanical properties :
#
#
# Convention : Reuss Voigt Hill
#
# Bulk Modulus (GPa) = 59.55544 66.08830 62.82187
# Shear Modulus (GPa) = 23.02001 31.20550 27.11275
#
# Velocity S-wave (km/s) = 3.19951 3.72518 3.47231
# Velocity P-wave (km/s) = 6.33508 6.92038 6.63419
#
# Compressibility (1/GPa) = 0.01679108
#
# Stress axis : x y z
#
# Youngs Moduli (GPa) = 71.71691 67.24753 61.14240
#
# Poissons Ratio (x) = 0.46755 0.10905
# Poissons Ratio (y) = 0.49862 0.33341
# Poissons Ratio (z) = 0.12791 0.36670
#
# Static dielectric constant tensor:
#      x y z
#    x 1.879120 0.000000 -0.073060 
#    y 0.000000 1.835470 0.000000 
#    z -0.073060 0.000000 1.894840 
# 
# From -- ./inp_files/259862.got.cif
#   From: 2010.05.17/outbox.cif.g08.bks.cpg/sg15_130_cif.got.tgz:259862.got - 2010.06.03 18:47:42.
