data_PCOD9296203
_publ_section_title
;
Structure prediction by ZEFSAII (Michael W. Deem and Ramdas Pophale) SiO2 
 PCOD9296203
Probable space group: C 2/C
;
_chemical_formula_sum "Si O2"
_cell_formula_units_Z 40
_cell_length_a 23.173926
_cell_length_b 6.599050
_cell_length_c 19.618131
_cell_angle_alpha 90.000000
_cell_angle_beta 148.747209
_cell_angle_gamma 90.000000
_cell_volume 1556.507103
_symmetry_space_group_name_H-M "C 2/C"
_symmetry_group_IT_number 15
_symmetry_cell_setting 'monoclinic'
loop_
_space_group_symop_operation_xyz
x,y,z
-x,y,1/2-z
-x,-y,-z
x,-y,1/2+z
1/2+x,1/2+y,z
1/2-x,1/2+y,1/2-z
1/2-x,1/2-y,-z
1/2+x,1/2-y,1/2+z
loop_
_atom_site_type_symbol
_atom_site_label
_atom_site_fract_x
_atom_site_fract_y
_atom_site_fract_z
Si Si1 0.944244 0.857181 0.025658
Si Si2 0.726291 0.855406 0.064701
Si Si3 0.908635 0.460555 0.782815
Si Si4 0.000000 0.691242 0.750000
Si Si5 0.750000 0.750000 0.500000
Si Si6 0.349421 0.630890 0.286056
O O1 0.875737 0.793613 0.022664
O O2 0.861028 0.882423 0.878648
O O3 0.022609 0.661573 0.091281
O O4 0.030100 0.042737 0.117253
O O5 0.832249 0.707763 0.170461
O O6 0.751605 0.994127 0.157417
O O7 0.720721 0.022861 0.001023
O O8 0.838450 0.645658 0.743248
O O9 0.987300 0.559051 0.805843
O O10 0.883558 0.808901 0.631502
#
# Coordination Sequence:
#
# PCOD9296203 Si02
#       6
#     8   8   8   4   4   8
#     4  10  23  44  70 106 149 199 251 319 402 474
#     4  11  25  44  75 111 146 206 258 323 401 478
#     4  11  24  46  71 105 147 199 258 316 401 466
#     4  12  26  48  74 110 144 204 252 328 388 470
#     4  12  26  52  76 112 160 202 270 334 398 474
#     4  10  23  44  69 108 151 195 258 326 384 482
#
# _framework density 25.698567000000001
#
# number of rings (size 3 to 8) (size 9 to 14) (size 15 to 20)
#    0.000    1.200    4.000    0.600    2.800    4.800 
#    0.000    0.000    0.000    0.000    0.000    0.000 
#    0.000    0.000    0.000    0.000    0.000    0.000 
#
# Total GULP energy -111388.138758 kJ/mol
# GULP energy per Si atom -5569.406938 kJ/mol
# Density = 2.564008 g / cm^3
# Si number density = 25.698567 Si / 1000 Ang^3
#
#
#
# Elastic Constant Matrix: (Units=GPa)
#
#
# Indices 1 2 3 4 5 6 
#
# 1 64.6648 49.1060 24.2131 0.0000 15.5749 0.0000
# 2 49.1060 128.7438 33.6587 -0.0001 -9.7629 -0.0001
# 3 24.2131 33.6587 61.5017 0.0000 10.4414 0.0000
# 4 0.0000 -0.0001 0.0000 45.8926 0.0000 -18.5515
# 5 15.5749 -9.7629 10.4414 0.0000 47.4195 0.0000
# 6 0.0000 -0.0001 0.0000 -18.5515 0.0000 18.7383
#
#
#
# Elastic Compliance Matrix: (Units=1/GPa)
#
#
# Indices 1 2 3 4 5 6 
#
# 1 0.026866 -0.010161 -0.003286 0.000000 -0.010193 0.000000
# 2 -0.010161 0.013360 -0.004514 0.000000 0.007082 0.000000
# 3 -0.003286 -0.004514 0.020775 0.000000 -0.004425 0.000000
# 4 0.000000 0.000000 0.000000 0.036329 0.000000 0.035967
# 5 -0.010193 0.007082 -0.004425 0.000000 0.026868 0.000000
# 6 0.000000 0.000000 0.000000 0.035967 0.000000 0.088975
#
#
# Mechanical properties :
#
#
# Convention : Reuss Voigt Hill
#
# Bulk Modulus (GPa) = 39.87259 52.09618 45.98439
# Shear Modulus (GPa) = 19.42089 32.27224 25.84657
#
# Velocity S-wave (km/s) = 2.75202 3.54757 3.17481
# Velocity P-wave (km/s) = 5.06432 6.09068 5.60106
#
# Compressibility (1/GPa) = 0.02507988
#
# Stress axis : x y z
#
# Youngs Moduli (GPa) = 37.22174 74.84912 48.13563
#
# Poissons Ratio (x) = 0.76056 0.15815
# Poissons Ratio (y) = 0.37822 0.21727
# Poissons Ratio (z) = 0.12229 0.33784
#
# Static dielectric constant tensor:
#      x y z
#    x 2.061460 0.000000 -0.042590 
#    y 0.000000 1.922310 0.000000 
#    z -0.042590 0.000000 2.060040 
# 
# From -- ./inp_files/283118.got.cif
#   From: 2010.05.17/outbox.cif.g08.bks.cpg/sg15_142_cif.got.tgz:283118.got - 2010.06.03 18:47:42.
