data_PCOD9296957
_publ_section_title
;
Structure prediction by ZEFSAII (Michael W. Deem and Ramdas Pophale) SiO2 
 PCOD9296957
Probable space group: C 2/C
;
_chemical_formula_sum "Si O2"
_cell_formula_units_Z 40
_cell_length_a 8.549765
_cell_length_b 20.218740
_cell_length_c 10.502847
_cell_angle_alpha 90.000000
_cell_angle_beta 83.463695
_cell_angle_gamma 90.000000
_cell_volume 1803.778240
_symmetry_space_group_name_H-M "C 2/C"
_symmetry_group_IT_number 15
_symmetry_cell_setting 'monoclinic'
loop_
_space_group_symop_operation_xyz
x,y,z
-x,y,1/2-z
-x,-y,-z
x,-y,1/2+z
1/2+x,1/2+y,z
1/2-x,1/2+y,1/2-z
1/2-x,1/2-y,-z
1/2+x,1/2-y,1/2+z
loop_
_atom_site_type_symbol
_atom_site_label
_atom_site_fract_x
_atom_site_fract_y
_atom_site_fract_z
Si Si1 0.638217 0.946689 0.828987
Si Si2 0.818025 0.818274 0.801637
Si Si3 0.144183 0.640804 0.556901
Si Si4 0.684401 0.579393 0.712290
Si Si5 0.690906 0.206493 0.889459
O O1 0.500000 0.968012 0.750000
O O2 0.722522 0.882133 0.759200
O O3 0.753630 0.008005 0.832984
O O4 0.584152 0.918526 0.970277
O O5 0.774363 0.823528 0.955086
O O6 0.767269 0.750084 0.739454
O O7 0.000000 0.826969 0.750000
O O8 0.220950 0.607128 0.672728
O O9 0.994910 0.688263 0.594662
O O10 0.500000 0.575779 0.750000
O O11 0.720535 0.637143 0.609851
O O12 0.750000 0.250000 0.000000
#
# Coordination Sequence:
#
# PCOD9296957 Si02
#       5
#     8   8   8   8   8
#     4  10  23  46  75 102 146 188 239 294 367 429
#     4  10  24  44  71 103 143 188 237 289 366 420
#     4  10  26  48  72 105 149 190 238 301 358 432
#     4  12  28  46  72 110 145 193 249 295 364 432
#     4  12  27  43  75 107 144 192 241 299 368 434
#
# _framework density 22.175674999999998
#
# number of rings (size 3 to 8) (size 9 to 14) (size 15 to 20)
#    1.200    0.000    0.000    4.800    5.600    7.200 
#    0.000    0.000    0.000    0.000    0.000    0.000 
#    0.000    0.000    0.000    0.000    0.000    0.000 
#
# Total GULP energy -111748.414077 kJ/mol
# GULP energy per Si atom -5587.420704 kJ/mol
# Density = 2.212520 g / cm^3
# Si number density = 22.175675 Si / 1000 Ang^3
#
#
#
# Elastic Constant Matrix: (Units=GPa)
#
#
# Indices 1 2 3 4 5 6 
#
# 1 73.0698 45.3663 -0.5313 0.0000 -3.5754 0.0000
# 2 45.3663 148.0803 27.1560 0.0000 -13.4240 0.0000
# 3 -0.5313 27.1560 75.6166 0.0000 2.7565 0.0000
# 4 0.0000 0.0000 0.0000 16.9657 0.0000 -7.0388
# 5 -3.5754 -13.4240 2.7565 0.0000 34.7651 0.0000
# 6 0.0000 0.0000 0.0000 -7.0388 0.0000 44.9388
#
#
#
# Elastic Compliance Matrix: (Units=1/GPa)
#
#
# Indices 1 2 3 4 5 6 
#
# 1 0.017236 -0.005741 0.002205 0.000000 -0.000619 0.000000
# 2 -0.005741 0.009469 -0.003563 0.000000 0.003348 0.000000
# 3 0.002205 -0.003563 0.014604 0.000000 -0.002307 0.000000
# 4 0.000000 0.000000 0.000000 0.063039 0.000000 0.009874
# 5 -0.000619 0.003348 -0.002307 0.000000 0.030177 0.000000
# 6 0.000000 0.000000 0.000000 0.009874 0.000000 0.023799
#
#
# Mechanical properties :
#
#
# Convention : Reuss Voigt Hill
#
# Bulk Modulus (GPa) = 36.88499 48.97207 42.92853
# Shear Modulus (GPa) = 27.53958 34.31898 30.92928
#
# Velocity S-wave (km/s) = 3.52786 3.93822 3.73867
# Velocity P-wave (km/s) = 5.76746 6.54301 6.16744
#
# Compressibility (1/GPa) = 0.02711130
#
# Stress axis : x y z
#
# Youngs Moduli (GPa) = 58.01948 105.60981 68.47567
#
# Poissons Ratio (x) = 0.60629 -0.15102
# Poissons Ratio (y) = 0.33308 0.24397
# Poissons Ratio (z) = -0.12796 0.37628
#
# Static dielectric constant tensor:
#      x y z
#    x 1.804990 0.000000 0.008930 
#    y 0.000000 1.828780 0.000000 
#    z 0.008930 0.000000 1.858190 
# 
# From -- ./inp_files/76819.got.cif
#   From: 2010.05.17/outbox.cif.g08.bks.cpg/sg15_39_cif.got.tgz:76819.got - 2010.06.03 18:47:42.
