data_PCOD9296366
_publ_section_title
;
Structure prediction by ZEFSAII (Michael W. Deem and Ramdas Pophale) SiO2 
 PCOD9296366
Probable space group: C 2/C
;
_chemical_formula_sum "Si O2"
_cell_formula_units_Z 60
_cell_length_a 20.095954
_cell_length_b 17.898727
_cell_length_c 7.232185
_cell_angle_alpha 90.000000
_cell_angle_beta 59.501290
_cell_angle_gamma 90.000000
_cell_volume 2241.436537
_symmetry_space_group_name_H-M "C 2/C"
_symmetry_group_IT_number 15
_symmetry_cell_setting 'monoclinic'
loop_
_space_group_symop_operation_xyz
x,y,z
-x,y,1/2-z
-x,-y,-z
x,-y,1/2+z
1/2+x,1/2+y,z
1/2-x,1/2+y,1/2-z
1/2-x,1/2-y,-z
1/2+x,1/2-y,1/2+z
loop_
_atom_site_type_symbol
_atom_site_label
_atom_site_fract_x
_atom_site_fract_y
_atom_site_fract_z
Si Si1 0.704839 0.761564 0.872307
Si Si2 0.136339 0.104231 0.840783
Si Si3 0.017531 0.169234 0.506959
Si Si4 0.000000 0.457363 0.250000
Si Si5 0.555743 0.172289 0.441779
Si Si6 0.636408 0.076270 0.048127
Si Si7 0.317858 0.376847 0.635391
Si Si8 0.241872 0.460185 0.080434
O O1 0.675517 0.683020 0.837344
O O2 0.627025 0.811765 0.980058
O O3 0.767683 0.803615 0.659000
O O4 0.750000 0.750000 0.000000
O O5 0.150940 0.092020 0.602953
O O6 0.181074 0.045172 0.902864
O O7 0.045285 0.114997 0.997957
O O8 0.105673 0.146986 0.357414
O O9 0.000000 0.165559 0.750000
O O10 0.996051 0.254151 0.486041
O O11 0.073658 0.510256 0.133586
O O12 0.992522 0.400096 0.430786
O O13 0.597155 0.149347 0.190519
O O14 0.701487 0.039417 0.090777
O O15 0.678419 0.083876 0.793052
O O16 0.264356 0.421008 0.857179
#
# Coordination Sequence:
#
# PCOD9296366 Si02
#       8
#     8   8   8   4   8   8   8   8
#     4  11  22  41  65 109 142 190 242 311 383 449
#     4  10  23  44  72 108 148 189 250 319 379 451
#     4   9  23  44  75 112 148 191 243 318 395 443
#     4  12  26  44  68 104 150 204 258 294 360 452
#     4  11  25  43  71 107 156 196 249 309 375 462
#     4  12  28  48  67 108 148 207 255 300 368 445
#     4  11  23  44  72 107 144 194 249 316 381 446
#     4  12  27  45  75 102 150 199 256 307 366 448
#
# _framework density 26.768547000000002
#
# number of rings (size 3 to 8) (size 9 to 14) (size 15 to 20)
#    0.000    1.067    2.667    2.400    4.667    2.667 
#    0.000    0.000    0.000    3.200    0.000    0.000 
#    0.000    0.000    0.000    0.000    0.000    0.000 
#
# Total GULP energy -168215.913186 kJ/mol
# GULP energy per Si atom -5607.197106 kJ/mol
# Density = 2.670762 g / cm^3
# Si number density = 26.768547 Si / 1000 Ang^3
#
#
#
# Elastic Constant Matrix: (Units=GPa)
#
#
# Indices 1 2 3 4 5 6 
#
# 1 156.0541 44.7835 48.2977 0.0000 -12.9629 0.0000
# 2 44.7835 87.2727 50.8892 0.0000 -6.7241 0.0000
# 3 48.2977 50.8892 164.8243 0.0000 0.6123 0.0000
# 4 0.0000 0.0000 0.0000 32.9605 0.0000 7.2387
# 5 -12.9629 -6.7241 0.6123 0.0000 51.4313 0.0000
# 6 0.0000 0.0000 0.0000 7.2387 0.0000 46.5122
#
#
#
# Elastic Compliance Matrix: (Units=1/GPa)
#
#
# Indices 1 2 3 4 5 6 
#
# 1 0.007852 -0.003124 -0.001342 0.000000 0.001586 0.000000
# 2 -0.003124 0.015401 -0.003844 0.000000 0.001272 0.000000
# 3 -0.001342 -0.003844 0.007651 0.000000 -0.000932 0.000000
# 4 0.000000 0.000000 0.000000 0.031413 0.000000 -0.004889
# 5 0.001586 0.001272 -0.000932 0.000000 0.020021 0.000000
# 6 0.000000 0.000000 0.000000 -0.004889 0.000000 0.022261
#
#
# Mechanical properties :
#
#
# Convention : Reuss Voigt Hill
#
# Bulk Modulus (GPa) = 70.01649 77.34353 73.68001
# Shear Modulus (GPa) = 39.68885 43.79285 41.74085
#
# Velocity S-wave (km/s) = 3.85472 4.04912 3.95311
# Velocity P-wave (km/s) = 6.78416 7.12858 6.95850
#
# Compressibility (1/GPa) = 0.01428235
#
# Stress axis : x y z
#
# Youngs Moduli (GPa) = 127.35990 64.93003 130.70696
#
# Poissons Ratio (x) = 0.20286 0.17541
# Poissons Ratio (y) = 0.39791 0.50248
# Poissons Ratio (z) = 0.17092 0.24961
#
# Static dielectric constant tensor:
#      x y z
#    x 2.164510 0.000000 0.042050 
#    y 0.000000 2.160040 0.000000 
#    z 0.042050 0.000000 2.066530 
# 
# From -- ./inp_files/57007.got.cif
#   From: 2010.05.17/outbox.cif.g08.bks.cpg/sg15_29_cif.got.tgz:57007.got - 2010.06.03 18:47:42.
