data_PCOD9296003
_publ_section_title
;
Structure prediction by ZEFSAII (Michael W. Deem and Ramdas Pophale) SiO2 
 PCOD9296003
Probable space group: C 2/C
;
_chemical_formula_sum "Si O2"
_cell_formula_units_Z 48
_cell_length_a 30.183874
_cell_length_b 6.777504
_cell_length_c 13.113113
_cell_angle_alpha 90.000000
_cell_angle_beta 52.588632
_cell_angle_gamma 90.000000
_cell_volume 2130.747070
_symmetry_space_group_name_H-M "C 2/C"
_symmetry_group_IT_number 15
_symmetry_cell_setting 'monoclinic'
loop_
_space_group_symop_operation_xyz
x,y,z
-x,y,1/2-z
-x,-y,-z
x,-y,1/2+z
1/2+x,1/2+y,z
1/2-x,1/2+y,1/2-z
1/2-x,1/2-y,-z
1/2+x,1/2-y,1/2+z
loop_
_atom_site_type_symbol
_atom_site_label
_atom_site_fract_x
_atom_site_fract_y
_atom_site_fract_z
Si Si1 0.646420 0.748454 0.056271
Si Si2 0.820326 0.914606 0.347414
Si Si3 0.039947 0.464064 0.290300
Si Si4 0.623508 0.574771 0.423561
Si Si5 0.801385 0.353018 0.061743
Si Si6 0.008356 0.217726 0.528223
O O1 0.684073 0.614379 0.078406
O O2 0.598259 0.861447 0.185345
O O3 0.679520 0.921929 0.953884
O O4 0.619844 0.595247 0.013574
O O5 0.827769 0.743058 0.421239
O O6 0.764556 0.856089 0.364417
O O7 0.866219 0.968810 0.198922
O O8 0.012134 0.345083 0.421109
O O9 0.000000 0.448442 0.250000
O O10 0.037511 0.689721 0.332757
O O11 0.675665 0.714843 0.380397
O O12 0.568732 0.711013 0.498506
O O13 0.000000 0.000000 0.500000
#
# Coordination Sequence:
#
# PCOD9296003 Si02
#       6
#     8   8   8   8   8   8
#     4  11  23  42  70  96 135 178 225 279 344 407
#     4  10  23  44  64  99 138 175 229 282 342 411
#     4  11  24  43  66  99 132 173 225 275 339 411
#     4  11  24  42  67 105 134 176 236 282 341 412
#     4  10  24  42  67  96 136 183 222 283 349 407
#     4  11  25  43  68  95 134 177 225 279 344 401
#
# _framework density 22.527308000000001
#
# number of rings (size 3 to 8) (size 9 to 14) (size 15 to 20)
#    0.000    1.333    1.667    2.500    4.667    4.667 
#    0.000    0.000    0.000    0.000    0.000    0.000 
#    0.000    0.000    0.000    0.000    0.000    0.000 
#
# Total GULP energy -134133.898214 kJ/mol
# GULP energy per Si atom -5588.912426 kJ/mol
# Density = 2.247604 g / cm^3
# Si number density = 22.527308 Si / 1000 Ang^3
#
#
#
# Elastic Constant Matrix: (Units=GPa)
#
#
# Indices 1 2 3 4 5 6 
#
# 1 77.4447 38.9903 0.8382 0.0000 9.8428 0.0000
# 2 38.9903 120.9946 20.2012 0.0000 7.5885 0.0000
# 3 0.8382 20.2012 46.1765 0.0000 1.0255 0.0000
# 4 0.0000 0.0000 0.0000 27.3475 0.0000 -3.5850
# 5 9.8428 7.5885 1.0255 0.0000 19.1269 0.0000
# 6 0.0000 0.0000 0.0000 -3.5850 0.0000 34.8637
#
#
#
# Elastic Compliance Matrix: (Units=1/GPa)
#
#
# Indices 1 2 3 4 5 6 
#
# 1 0.016335 -0.005214 0.002128 0.000000 -0.006451 0.000000
# 2 -0.005214 0.010798 -0.004599 0.000000 -0.001354 0.000000
# 3 0.002128 -0.004599 0.023641 0.000000 -0.000538 0.000000
# 4 0.000000 0.000000 0.000000 0.037066 0.000000 0.003811
# 5 -0.006451 -0.001354 -0.000538 0.000000 0.056168 0.000000
# 6 0.000000 0.000000 0.000000 0.003811 0.000000 0.029075
#
#
# Mechanical properties :
#
#
# Convention : Reuss Voigt Hill
#
# Bulk Modulus (GPa) = 28.24647 40.51946 34.38296
# Shear Modulus (GPa) = 24.96811 28.57336 26.77073
#
# Velocity S-wave (km/s) = 3.33280 3.56531 3.45101
# Velocity P-wave (km/s) = 5.23221 5.91392 5.58348
#
# Compressibility (1/GPa) = 0.03540265
#
# Stress axis : x y z
#
# Youngs Moduli (GPa) = 61.21974 92.60985 42.29874
#
# Poissons Ratio (x) = 0.48291 -0.09001
# Poissons Ratio (y) = 0.31923 0.19454
# Poissons Ratio (z) = -0.13027 0.42593
#
# Static dielectric constant tensor:
#      x y z
#    x 1.791060 0.000000 0.002660 
#    y 0.000000 3.127520 0.000000 
#    z 0.002660 0.000000 1.823690 
# 
# From -- ./inp_files/180007.got.cif
#   From: 2010.05.17/outbox.cif.g08.bks.cpg/sg15_91_cif.got.tgz:180007.got - 2010.06.03 18:47:42.
