data_PCOD9296849
_publ_section_title
;
Structure prediction by ZEFSAII (Michael W. Deem and Ramdas Pophale) SiO2 
 PCOD9296849
Probable space group: C 2/C
;
_chemical_formula_sum "Si O2"
_cell_formula_units_Z 64
_cell_length_a 7.531446
_cell_length_b 30.517993
_cell_length_c 11.671112
_cell_angle_alpha 90.000000
_cell_angle_beta 88.437088
_cell_angle_gamma 90.000000
_cell_volume 2681.544299
_symmetry_space_group_name_H-M "C 2/C"
_symmetry_group_IT_number 15
_symmetry_cell_setting 'monoclinic'
loop_
_space_group_symop_operation_xyz
x,y,z
-x,y,1/2-z
-x,-y,-z
x,-y,1/2+z
1/2+x,1/2+y,z
1/2-x,1/2+y,1/2-z
1/2-x,1/2-y,-z
1/2+x,1/2-y,1/2+z
loop_
_atom_site_type_symbol
_atom_site_label
_atom_site_fract_x
_atom_site_fract_y
_atom_site_fract_z
Si Si1 0.711104 0.589643 0.979493
Si Si2 0.136400 0.683723 0.570779
Si Si3 0.751523 0.184671 0.817582
Si Si4 0.921472 0.271247 0.878035
Si Si5 0.294900 0.943792 0.716636
Si Si6 0.792349 0.040878 0.745714
Si Si7 0.325420 0.137183 0.334137
Si Si8 0.302263 0.401292 0.438815
O O1 0.778498 0.639842 0.983693
O O2 0.776872 0.568472 0.859646
O O3 0.496069 0.588009 0.986145
O O4 0.778251 0.560204 0.081922
O O5 0.255800 0.695421 0.681163
O O6 0.948628 0.676548 0.636564
O O7 0.073824 0.716203 0.468692
O O8 0.824916 0.224877 0.891654
O O9 0.839725 0.139005 0.850838
O O10 0.785531 0.312692 0.868021
O O11 0.000000 0.267854 0.750000
O O12 0.500000 0.944025 0.750000
O O13 0.212454 0.898215 0.765364
O O14 0.221853 0.989014 0.765911
O O15 0.720496 0.059220 0.866962
O O16 0.000000 0.051302 0.750000
O O17 0.500000 0.141600 0.250000
O O18 0.328867 0.113765 0.457748
#
# Coordination Sequence:
#
# PCOD9296849 Si02
#       8
#     8   8   8   8   8   8   8   8
#     4  11  25  45  74 105 145 192 237 299 367 429
#     4  11  23  45  70 103 143 193 237 296 359 419
#     4  11  25  43  73 104 140 190 247 294 355 432
#     4  11  24  44  71 100 147 189 238 304 357 425
#     4  11  26  45  68 104 145 190 242 293 361 433
#     4  10  25  44  71 108 146 183 240 300 359 429
#     4  10  23  46  70 100 145 191 229 298 363 420
#     4  11  24  45  76 105 141 187 242 298 364 429
#
# _framework density 23.866845000000001
#
# number of rings (size 3 to 8) (size 9 to 14) (size 15 to 20)
#    0.000    1.250    2.500    2.625    5.250    3.000 
#    2.250    0.000    0.000    0.000    0.000    0.000 
#    0.000    0.000    0.000    0.000    0.000    0.000 
#
# Total GULP energy -178561.229961 kJ/mol
# GULP energy per Si atom -5580.038436 kJ/mol
# Density = 2.381252 g / cm^3
# Si number density = 23.866845 Si / 1000 Ang^3
#
#
#
# Elastic Constant Matrix: (Units=GPa)
#
#
# Indices 1 2 3 4 5 6 
#
# 1 60.8012 12.6357 33.5727 0.0000 16.2058 0.0000
# 2 12.6357 119.8672 12.6826 0.0000 13.4416 0.0000
# 3 33.5727 12.6826 131.4446 0.0000 15.4105 0.0000
# 4 0.0000 0.0000 0.0000 38.7213 0.0000 -7.5392
# 5 16.2058 13.4416 15.4105 0.0000 37.6841 0.0000
# 6 0.0000 0.0000 0.0000 -7.5392 0.0000 129.3567
#
#
#
# Elastic Compliance Matrix: (Units=1/GPa)
#
#
# Indices 1 2 3 4 5 6 
#
# 1 0.020927 -0.000969 -0.004450 0.000000 -0.006834 0.000000
# 2 -0.000969 0.008766 -0.000295 0.000000 -0.002590 0.000000
# 3 -0.004450 -0.000295 0.008966 0.000000 -0.001648 0.000000
# 4 0.000000 0.000000 0.000000 0.026122 0.000000 0.001522
# 5 -0.006834 -0.002590 -0.001648 0.000000 0.031073 0.000000
# 6 0.000000 0.000000 0.000000 0.001522 0.000000 0.007819
#
#
# Mechanical properties :
#
#
# Convention : Reuss Voigt Hill
#
# Bulk Modulus (GPa) = 36.72189 47.76610 42.24399
# Shear Modulus (GPa) = 40.26449 58.03390 49.14919
#
# Velocity S-wave (km/s) = 4.11182 4.93644 4.54288
# Velocity P-wave (km/s) = 6.16136 7.24902 6.72721
#
# Compressibility (1/GPa) = 0.02723172
#
# Stress axis : x y z
#
# Youngs Moduli (GPa) = 47.78444 114.07347 111.53174
#
# Poissons Ratio (x) = 0.11051 0.49636
# Poissons Ratio (y) = 0.04629 0.03288
# Poissons Ratio (z) = 0.21266 0.03363
#
# Static dielectric constant tensor:
#      x y z
#    x 1.989430 0.000000 -0.002900 
#    y 0.000000 1.931220 0.000000 
#    z -0.002900 0.000000 1.965800 
# 
# From -- ./inp_files/82599.got.cif
#   From: 2010.05.17/outbox.cif.g08.bks.cpg/sg15_42_cif.got.tgz:82599.got - 2010.06.03 18:47:42.
