data_PCOD9296169
_publ_section_title
;
Structure prediction by ZEFSAII (Michael W. Deem and Ramdas Pophale) SiO2 
 PCOD9296169
Probable space group: C 2/C
;
_chemical_formula_sum "Si O2"
_cell_formula_units_Z 36
_cell_length_a 8.549783
_cell_length_b 23.952972
_cell_length_c 8.396335
_cell_angle_alpha 90.000000
_cell_angle_beta 70.975207
_cell_angle_gamma 90.000000
_cell_volume 1625.584569
_symmetry_space_group_name_H-M "C 2/C"
_symmetry_group_IT_number 15
_symmetry_cell_setting 'monoclinic'
loop_
_space_group_symop_operation_xyz
x,y,z
-x,y,1/2-z
-x,-y,-z
x,-y,1/2+z
1/2+x,1/2+y,z
1/2-x,1/2+y,1/2-z
1/2-x,1/2-y,-z
1/2+x,1/2-y,1/2+z
loop_
_atom_site_type_symbol
_atom_site_label
_atom_site_fract_x
_atom_site_fract_y
_atom_site_fract_z
Si Si1 0.553234 0.745333 0.056823
Si Si2 0.731539 0.950145 0.413380
Si Si3 0.500000 0.810642 0.750000
Si Si4 0.653058 0.365942 0.914528
Si Si5 0.500000 0.461159 0.750000
Si Si6 0.000000 0.498291 0.250000
O O1 0.500000 0.766522 0.250000
O O2 0.480211 0.682749 0.062071
O O3 0.750000 0.750000 0.000000
O O4 0.488550 0.776390 0.919593
O O5 0.811038 0.890281 0.421504
O O6 0.640851 0.959175 0.277142
O O7 0.868787 0.998357 0.377233
O O8 0.588068 0.963130 0.589758
O O9 0.329112 0.844286 0.792919
O O10 0.594260 0.420243 0.838399
#
# Coordination Sequence:
#
# PCOD9296169 Si02
#       6
#     8   8   4   8   4   4
#     4  12  26  53  79 109 148 193 253 321 379 450
#     4  11  24  45  70 105 149 193 241 299 355 448
#     4  12  27  51  76 110 150 189 260 325 372 450
#     4  12  25  46  76 107 147 199 242 306 387 434
#     4  12  24  45  70 107 153 191 242 296 362 452
#     4  10  23  44  68  97 153 190 242 293 350 422
#
# _framework density 22.145876999999999
#
# number of rings (size 3 to 8) (size 9 to 14) (size 15 to 20)
#    0.000    0.444    5.556    2.000    3.111    0.889 
#    2.000    0.000    0.000    0.000    0.000    0.000 
#    0.000    0.000    0.000    0.000    0.000    0.000 
#
# Total GULP energy -100635.437400 kJ/mol
# GULP energy per Si atom -5590.857633 kJ/mol
# Density = 2.209547 g / cm^3
# Si number density = 22.145877 Si / 1000 Ang^3
#
#
#
# Elastic Constant Matrix: (Units=GPa)
#
#
# Indices 1 2 3 4 5 6 
#
# 1 132.3707 54.0896 34.5174 0.0000 -11.2230 0.0000
# 2 54.0896 101.6895 29.0341 0.0000 -4.0083 0.0000
# 3 34.5174 29.0341 95.1418 0.0000 1.0721 0.0000
# 4 0.0000 0.0000 0.0000 30.9088 0.0000 1.3681
# 5 -11.2230 -4.0083 1.0721 0.0000 51.3819 0.0000
# 6 0.0000 0.0000 0.0000 1.3681 0.0000 12.1521
#
#
#
# Elastic Compliance Matrix: (Units=1/GPa)
#
#
# Indices 1 2 3 4 5 6 
#
# 1 0.010244 -0.004717 -0.002299 0.000000 0.001918 0.000000
# 2 -0.004717 0.012987 -0.002252 0.000000 0.000030 0.000000
# 3 -0.002299 -0.002252 0.012042 0.000000 -0.000929 0.000000
# 4 0.000000 0.000000 0.000000 0.032515 0.000000 -0.003661
# 5 0.001918 0.000030 -0.000929 0.000000 0.019903 0.000000
# 6 0.000000 0.000000 0.000000 -0.003661 0.000000 0.082703
#
#
# Mechanical properties :
#
#
# Convention : Reuss Voigt Hill
#
# Bulk Modulus (GPa) = 59.74547 62.72048 61.23297
# Shear Modulus (GPa) = 25.70575 32.99261 29.34918
#
# Velocity S-wave (km/s) = 3.41067 3.86396 3.64437
# Velocity P-wave (km/s) = 6.52280 6.94910 6.73932
#
# Compressibility (1/GPa) = 0.01673767
#
# Stress axis : x y z
#
# Youngs Moduli (GPa) = 97.61824 76.99950 83.04020
#
# Poissons Ratio (x) = 0.36321 0.19088
# Poissons Ratio (y) = 0.46046 0.18703
# Poissons Ratio (z) = 0.22439 0.17342
#
# Static dielectric constant tensor:
#      x y z
#    x 1.835140 0.000000 0.043570 
#    y 0.000000 1.795490 0.000000 
#    z 0.043570 0.000000 1.878800 
# 
# From -- ./inp_files/23355.got.cif
#   From: 2010.05.17/outbox.cif.g08.bks.cpg/sg15_12_cif.got.tgz:23355.got - 2010.06.03 18:47:42.
