data_PCOD9296664
_publ_section_title
;
Structure prediction by ZEFSAII (Michael W. Deem and Ramdas Pophale) SiO2 
 PCOD9296664
Probable space group: C 2/C
;
_chemical_formula_sum "Si O2"
_cell_formula_units_Z 48
_cell_length_a 7.773343
_cell_length_b 27.814133
_cell_length_c 13.944156
_cell_angle_alpha 90.000000
_cell_angle_beta 137.288804
_cell_angle_gamma 90.000000
_cell_volume 2044.982041
_symmetry_space_group_name_H-M "C 2/C"
_symmetry_group_IT_number 15
_symmetry_cell_setting 'monoclinic'
loop_
_space_group_symop_operation_xyz
x,y,z
-x,y,1/2-z
-x,-y,-z
x,-y,1/2+z
1/2+x,1/2+y,z
1/2-x,1/2+y,1/2-z
1/2-x,1/2-y,-z
1/2+x,1/2-y,1/2+z
loop_
_atom_site_type_symbol
_atom_site_label
_atom_site_fract_x
_atom_site_fract_y
_atom_site_fract_z
Si Si1 0.000000 0.295475 0.250000
Si Si2 0.476111 0.348924 0.992494
Si Si3 0.136948 0.046039 0.096962
Si Si4 0.000000 0.796045 0.250000
Si Si5 0.580754 0.852404 0.007918
Si Si6 0.053500 0.543484 0.096200
Si Si7 0.776125 0.281673 0.767536
O O1 0.948563 0.255924 0.311266
O O2 0.250422 0.325656 0.376990
O O3 0.506789 0.403442 0.968965
O O4 0.291661 0.351338 0.009142
O O5 0.311531 0.318817 0.848930
O O6 0.359389 0.049354 0.107150
O O7 0.199411 0.037710 0.235246
O O8 0.000000 0.000000 0.000000
O O9 0.242231 0.830552 0.337474
O O10 0.997819 0.756202 0.164412
O O11 0.470601 0.905790 0.969414
O O12 0.364128 0.814652 0.891292
O O13 0.000000 0.500000 0.000000
#
# Coordination Sequence:
#
# PCOD9296664 Si02
#       7
#     4   8   8   4   8   8   8
#     4  12  26  38  62 108 144 176 222 284 338 398
#     4  11  22  43  68  95 136 183 225 277 341 414
#     4  10  23  45  72  96 134 184 224 286 362 413
#     4  12  22  36  70  98 132 180 226 272 324 414
#     4  11  22  42  70  97 130 181 234 273 340 413
#     4  10  23  45  72 100 132 174 237 294 341 416
#     4  12  22  43  66  97 137 181 231 274 330 408
#
# _framework density 23.472086999999998
#
# number of rings (size 3 to 8) (size 9 to 14) (size 15 to 20)
#    0.000    1.000    5.000    2.000    0.000    4.667 
#    6.000    0.000    0.000    0.000    0.000    0.000 
#    0.000    0.000    0.000    0.000    0.000    0.000 
#
# Total GULP energy -133825.865539 kJ/mol
# GULP energy per Si atom -5576.077731 kJ/mol
# Density = 2.341866 g / cm^3
# Si number density = 23.472087 Si / 1000 Ang^3
#
#
#
# Elastic Constant Matrix: (Units=GPa)
#
#
# Indices 1 2 3 4 5 6 
#
# 1 36.7297 22.6420 10.0321 0.0000 0.3520 0.0000
# 2 22.6420 234.9713 101.2521 0.0000 -5.2391 0.0000
# 3 10.0321 101.2521 137.2385 0.0000 3.3465 0.0000
# 4 0.0000 0.0000 0.0000 39.5098 0.0000 -1.2571
# 5 0.3520 -5.2391 3.3465 0.0000 24.9715 0.0000
# 6 0.0000 0.0000 0.0000 -1.2571 0.0000 37.5170
#
#
#
# Elastic Compliance Matrix: (Units=1/GPa)
#
#
# Indices 1 2 3 4 5 6 
#
# 1 0.028970 -0.002803 -0.000026 0.000000 -0.000993 0.000000
# 2 -0.002803 0.006605 -0.004718 0.000000 0.002058 0.000000
# 3 -0.000026 -0.004718 0.010829 0.000000 -0.002441 0.000000
# 4 0.000000 0.000000 0.000000 0.025337 0.000000 0.000849
# 5 -0.000993 0.002058 -0.002441 0.000000 0.040818 0.000000
# 6 0.000000 0.000000 0.000000 0.000849 0.000000 0.026683
#
#
# Mechanical properties :
#
#
# Convention : Reuss Voigt Hill
#
# Bulk Modulus (GPa) = 31.93789 75.19911 53.56850
# Shear Modulus (GPa) = 30.34473 38.73388 34.53930
#
# Velocity S-wave (km/s) = 3.59945 4.06669 3.84018
# Velocity P-wave (km/s) = 5.55977 7.35920 6.52184
#
# Compressibility (1/GPa) = 0.03131077
#
# Stress axis : x y z
#
# Youngs Moduli (GPa) = 34.51824 151.40124 92.34392
#
# Poissons Ratio (x) = 0.42432 0.00238
# Poissons Ratio (y) = 0.09674 0.43571
# Poissons Ratio (z) = 0.00089 0.71436
#
# Static dielectric constant tensor:
#      x y z
#    x 2.093250 0.000000 0.002910 
#    y 0.000000 1.829960 0.000000 
#    z 0.002910 0.000000 1.967420 
# 
# From -- ./inp_files/139119.got.cif
#   From: 2010.05.17/outbox.cif.g08.bks.cpg/sg15_70_cif.got.tgz:139119.got - 2010.06.03 18:47:42.
