data_PCOD9296778
_publ_section_title
;
Structure prediction by ZEFSAII (Michael W. Deem and Ramdas Pophale) SiO2 
 PCOD9296778
Probable space group: C 2/C
;
_chemical_formula_sum "Si O2"
_cell_formula_units_Z 48
_cell_length_a 8.223629
_cell_length_b 12.073531
_cell_length_c 18.994410
_cell_angle_alpha 90.000000
_cell_angle_beta 87.535715
_cell_angle_gamma 90.000000
_cell_volume 1884.177465
_symmetry_space_group_name_H-M "C 2/C"
_symmetry_group_IT_number 15
_symmetry_cell_setting 'monoclinic'
loop_
_space_group_symop_operation_xyz
x,y,z
-x,y,1/2-z
-x,-y,-z
x,-y,1/2+z
1/2+x,1/2+y,z
1/2-x,1/2+y,1/2-z
1/2-x,1/2-y,-z
1/2+x,1/2-y,1/2+z
loop_
_atom_site_type_symbol
_atom_site_label
_atom_site_fract_x
_atom_site_fract_y
_atom_site_fract_z
Si Si1 0.114732 0.846051 0.447868
Si Si2 0.677100 0.665088 0.711915
Si Si3 0.969318 0.919443 0.585645
Si Si4 0.172976 0.231220 0.162098
Si Si5 0.091994 0.525578 0.322635
Si Si6 0.375739 0.840801 0.909810
O O1 0.110612 0.898714 0.525449
O O2 0.276382 0.801154 0.407872
O O3 0.992643 0.741076 0.450453
O O4 0.051351 0.949924 0.402199
O O5 0.500000 0.638917 0.750000
O O6 0.805003 0.690942 0.772015
O O7 0.772899 0.568115 0.669832
O O8 0.652736 0.769392 0.661162
O O9 0.014530 0.841907 0.650477
O O10 0.799717 0.873688 0.557875
O O11 0.311019 0.140590 0.175214
O O12 0.000000 0.517719 0.250000
O O13 0.961580 0.543994 0.386739
#
# Coordination Sequence:
#
# PCOD9296778 Si02
#       6
#     8   8   8   8   8   8
#     4  10  23  46  65  96 134 172 231 275 318 393
#     4  12  24  44  66  97 135 173 219 274 339 400
#     4  11  25  41  71  96 129 181 221 272 336 387
#     4  11  23  43  66  98 135 172 218 276 328 398
#     4  11  24  41  64  95 134 168 212 268 330 402
#     4  11  23  45  65  99 134 170 217 278 326 399
#
# _framework density 25.475304999999999
#
# number of rings (size 3 to 8) (size 9 to 14) (size 15 to 20)
#    0.000    1.000    5.000    2.000    4.667    0.000 
#    0.000    0.000    0.000   11.000    0.000    0.000 
#    0.000    0.000    0.000    0.000    0.000    0.000 
#
# Total GULP energy -134208.404221 kJ/mol
# GULP energy per Si atom -5592.016843 kJ/mol
# Density = 2.541732 g / cm^3
# Si number density = 25.475305 Si / 1000 Ang^3
#
#
#
# Elastic Constant Matrix: (Units=GPa)
#
#
# Indices 1 2 3 4 5 6 
#
# 1 76.4714 52.9721 6.0156 0.0000 3.2769 0.0000
# 2 52.9721 135.0985 20.3467 0.0000 -12.5411 0.0000
# 3 6.0156 20.3467 42.3285 0.0000 -9.5629 0.0000
# 4 0.0000 0.0000 0.0000 12.4204 0.0000 -5.5442
# 5 3.2769 -12.5411 -9.5629 0.0000 25.2137 0.0000
# 6 0.0000 0.0000 0.0000 -5.5442 0.0000 54.4257
#
#
#
# Elastic Compliance Matrix: (Units=1/GPa)
#
#
# Indices 1 2 3 4 5 6 
#
# 1 0.018904 -0.007970 -0.000335 0.000000 -0.006548 0.000000
# 2 -0.007970 0.011518 -0.003145 0.000000 0.005572 0.000000
# 3 -0.000335 -0.003145 0.027169 0.000000 0.008784 0.000000
# 4 0.000000 0.000000 0.000000 0.084348 0.000000 0.008592
# 5 -0.006548 0.005572 0.008784 0.000000 0.046615 0.000000
# 6 0.000000 0.000000 0.000000 0.008592 0.000000 0.019249
#
#
# Mechanical properties :
#
#
# Convention : Reuss Voigt Hill
#
# Bulk Modulus (GPa) = 28.82581 45.84077 37.33329
# Shear Modulus (GPa) = 20.63843 30.04957 25.34400
#
# Velocity S-wave (km/s) = 2.84937 3.43819 3.15754
# Velocity P-wave (km/s) = 4.70797 5.81333 5.28960
#
# Compressibility (1/GPa) = 0.03469113
#
# Stress axis : x y z
#
# Youngs Moduli (GPa) = 52.89751 86.82161 36.80730
#
# Poissons Ratio (x) = 0.69195 0.01233
# Poissons Ratio (y) = 0.42158 0.11576
# Poissons Ratio (z) = 0.01772 0.27306
#
# Static dielectric constant tensor:
#      x y z
#    x 2.068340 0.000000 0.002540 
#    y 0.000000 1.974000 0.000000 
#    z 0.002540 0.000000 2.072050 
# 
# From -- ./inp_files/263096.got.cif
#   From: 2010.05.17/outbox.cif.g08.bks.cpg/sg15_132_cif.got.tgz:263096.got - 2010.06.03 18:47:42.
