data_PCOD9296610
_publ_section_title
;
Structure prediction by ZEFSAII (Michael W. Deem and Ramdas Pophale) SiO2 
 PCOD9296610
Probable space group: C 2/C
;
_chemical_formula_sum "Si O2"
_cell_formula_units_Z 64
_cell_length_a 11.900309
_cell_length_b 25.609690
_cell_length_c 15.906384
_cell_angle_alpha 90.000000
_cell_angle_beta 35.181839
_cell_angle_gamma 90.000000
_cell_volume 2793.104178
_symmetry_space_group_name_H-M "C 2/C"
_symmetry_group_IT_number 15
_symmetry_cell_setting 'monoclinic'
loop_
_space_group_symop_operation_xyz
x,y,z
-x,y,1/2-z
-x,-y,-z
x,-y,1/2+z
1/2+x,1/2+y,z
1/2-x,1/2+y,1/2-z
1/2-x,1/2-y,-z
1/2+x,1/2-y,1/2+z
loop_
_atom_site_type_symbol
_atom_site_label
_atom_site_fract_x
_atom_site_fract_y
_atom_site_fract_z
Si Si1 0.913599 0.190927 0.077123
Si Si2 0.554946 0.525806 0.103569
Si Si3 0.375958 0.965884 0.984576
Si Si4 0.270593 0.966236 0.295248
Si Si5 0.903089 0.862639 0.889823
Si Si6 0.998775 0.702560 0.071526
Si Si7 0.004656 0.607663 0.938598
Si Si8 0.697479 0.133885 0.077082
O O1 0.713537 0.198999 0.253771
O O2 0.866449 0.145082 0.039622
O O3 0.078664 0.173615 0.041107
O O4 0.965105 0.242159 0.993219
O O5 0.393102 0.486325 0.169197
O O6 0.474840 0.584051 0.168165
O O7 0.692469 0.505312 0.094929
O O8 0.693729 0.531711 0.936504
O O9 0.284882 0.916188 0.991856
O O10 0.548170 0.994150 0.828048
O O11 0.470909 0.941132 0.010649
O O12 0.336142 0.908574 0.227594
O O13 0.000000 0.835547 0.750000
O O14 0.692577 0.882999 0.992159
O O15 0.155174 0.685029 0.046426
O O16 0.022348 0.658626 0.985168
O O17 0.500000 0.125167 0.250000
#
# Coordination Sequence:
#
# PCOD9296610 Si02
#       8
#     8   8   8   8   8   8   8   8
#     4  11  24  44  71  99 132 176 233 292 354 414
#     4  11  26  38  66  98 139 186 226 280 336 409
#     4  11  22  41  66  99 138 183 225 276 342 411
#     4  11  24  41  62 101 140 177 231 274 341 408
#     4  12  25  43  66  95 132 180 234 276 339 414
#     4  10  23  45  70 100 131 176 227 292 356 416
#     4  11  24  44  67  95 136 181 226 279 340 415
#     4   9  20  38  69  97 131 173 222 280 350 414
#
# _framework density 22.913575000000002
#
# number of rings (size 3 to 8) (size 9 to 14) (size 15 to 20)
#    0.000    1.250    2.500    2.625    8.750    1.500 
#    0.000    0.000    0.000    0.000    0.000    0.000 
#    0.000    0.000    0.000    0.000    0.000    0.000 
#
# Total GULP energy -178966.287966 kJ/mol
# GULP energy per Si atom -5592.696499 kJ/mol
# Density = 2.286142 g / cm^3
# Si number density = 22.913575 Si / 1000 Ang^3
#
#
#
# Elastic Constant Matrix: (Units=GPa)
#
#
# Indices 1 2 3 4 5 6 
#
# 1 131.4126 10.0224 24.7046 0.0016 9.5507 0.0005
# 2 10.0224 53.3390 10.7358 0.0003 9.6518 0.0002
# 3 24.7046 10.7358 66.9788 0.0027 -2.7026 0.0005
# 4 0.0016 0.0003 0.0027 19.6731 -0.0011 8.6616
# 5 9.5507 9.6518 -2.7026 -0.0011 26.5895 -0.0006
# 6 0.0005 0.0002 0.0005 8.6616 -0.0006 21.7246
#
#
#
# Elastic Compliance Matrix: (Units=1/GPa)
#
#
# Indices 1 2 3 4 5 6 
#
# 1 0.008474 -0.000363 -0.003198 0.000000 -0.003237 0.000000
# 2 -0.000363 0.020946 -0.003540 0.000000 -0.007833 0.000000
# 3 -0.003198 -0.003540 0.016844 -0.000002 0.004146 0.000001
# 4 0.000000 0.000000 -0.000002 0.061654 0.000002 -0.024581
# 5 -0.003237 -0.007833 0.004146 0.000002 0.042036 0.000000
# 6 0.000000 0.000000 0.000001 -0.024581 0.000000 0.055831
#
#
# Mechanical properties :
#
#
# Convention : Reuss Voigt Hill
#
# Bulk Modulus (GPa) = 31.18829 38.07287 34.63058
# Shear Modulus (GPa) = 21.67567 27.34861 24.51214
#
# Velocity S-wave (km/s) = 3.07901 3.45853 3.27427
# Velocity P-wave (km/s) = 5.12652 5.70969 5.42594
#
# Compressibility (1/GPa) = 0.03206332
#
# Stress axis : x y z
#
# Youngs Moduli (GPa) = 118.01169 47.74191 59.36743
#
# Poissons Ratio (x) = 0.01732 0.18985
# Poissons Ratio (y) = 0.04282 0.21014
# Poissons Ratio (z) = 0.37739 0.16899
#
# Static dielectric constant tensor:
#      x y z
#    x 1.872610 0.000000 0.011260 
#    y 0.000000 1.835540 0.000000 
#    z 0.011260 0.000000 1.875770 
# 
# From -- ./inp_files/148758.got.cif
#   From: 2010.05.17/outbox.cif.g08.bks.cpg/sg15_75_cif.got.tgz:148758.got - 2010.06.03 18:47:42.
