data_PCOD9296318
_publ_section_title
;
Structure prediction by ZEFSAII (Michael W. Deem and Ramdas Pophale) SiO2 
 PCOD9296318
Probable space group: C 2/C
;
_chemical_formula_sum "Si O2"
_cell_formula_units_Z 36
_cell_length_a 11.187533
_cell_length_b 24.883665
_cell_length_c 5.542758
_cell_angle_alpha 90.000000
_cell_angle_beta 64.295748
_cell_angle_gamma 90.000000
_cell_volume 1390.339928
_symmetry_space_group_name_H-M "C 2/C"
_symmetry_group_IT_number 15
_symmetry_cell_setting 'monoclinic'
loop_
_space_group_symop_operation_xyz
x,y,z
-x,y,1/2-z
-x,-y,-z
x,-y,1/2+z
1/2+x,1/2+y,z
1/2-x,1/2+y,1/2-z
1/2-x,1/2-y,-z
1/2+x,1/2-y,1/2+z
loop_
_atom_site_type_symbol
_atom_site_label
_atom_site_fract_x
_atom_site_fract_y
_atom_site_fract_z
Si Si1 0.500000 0.453247 0.250000
Si Si2 0.778528 0.527553 0.346577
Si Si3 0.666695 0.247338 0.320559
Si Si4 0.381949 0.129852 0.026704
Si Si5 0.112991 0.136777 0.963090
O O1 0.384645 0.479355 0.518665
O O2 0.399973 0.410344 0.213520
O O3 0.822427 0.501212 0.558956
O O4 0.839631 0.587093 0.264986
O O5 0.750000 0.250000 0.500000
O O6 0.593049 0.190170 0.396604
O O7 0.586595 0.302893 0.396074
O O8 0.750000 0.250000 0.000000
O O9 0.500000 0.112565 0.750000
O O10 0.252913 0.134203 0.970451
O O11 0.000000 0.123733 0.250000
#
# Coordination Sequence:
#
# PCOD9296318 Si02
#       5
#     4   8   8   8   8
#     4  12  24  46  78 114 150 184 254 318 384 438
#     4  12  27  47  76 108 146 200 256 319 373 435
#     4  10  23  44  71 108 148 195 242 296 368 449
#     4  11  25  50  73 109 154 200 249 308 375 451
#     4  11  23  44  76 109 148 191 241 301 374 447
#
# _framework density 25.892946999999999
#
# number of rings (size 3 to 8) (size 9 to 14) (size 15 to 20)
#    0.000    0.889    2.222    4.000    3.111    2.667 
#    0.000   12.222    0.000    0.000    0.000    0.000 
#    0.000    0.000    0.000    0.000    0.000    0.000 
#
# Total GULP energy -100759.747598 kJ/mol
# GULP energy per Si atom -5597.763755 kJ/mol
# Density = 2.583401 g / cm^3
# Si number density = 25.892947 Si / 1000 Ang^3
#
#
#
# Elastic Constant Matrix: (Units=GPa)
#
#
# Indices 1 2 3 4 5 6 
#
# 1 90.8551 -5.2489 24.5991 0.0000 -0.2387 0.0000
# 2 -5.2489 146.6213 33.5133 0.0000 6.2361 0.0000
# 3 24.5991 33.5133 176.1171 0.0000 -4.9997 0.0000
# 4 0.0000 0.0000 0.0000 39.4461 0.0000 -20.7537
# 5 -0.2387 6.2361 -4.9997 0.0000 47.9080 0.0000
# 6 0.0000 0.0000 0.0000 -20.7537 0.0000 11.0895
#
#
#
# Elastic Compliance Matrix: (Units=1/GPa)
#
#
# Indices 1 2 3 4 5 6 
#
# 1 0.011535 0.000829 -0.001775 0.000000 -0.000236 0.000000
# 2 0.000829 0.007245 -0.001526 0.000000 -0.001098 0.000000
# 3 -0.001775 -0.001526 0.006240 0.000000 0.000841 0.000000
# 4 0.000000 0.000000 0.000000 1.649847 0.000000 3.087644
# 5 -0.000236 -0.001098 0.000841 0.000000 0.021103 0.000000
# 6 0.000000 0.000000 0.000000 3.087644 0.000000 5.868618
#
#
# Mechanical properties :
#
#
# Convention : Reuss Voigt Hill
#
# Bulk Modulus (GPa) = 49.81223 57.70227 53.75725
# Shear Modulus (GPa) = 0.65996 43.73739 22.19867
#
# Velocity S-wave (km/s) = 0.50540 4.11440 2.93119
# Velocity P-wave (km/s) = 4.42946 6.70107 5.67999
#
# Compressibility (1/GPa) = 0.02007539
#
# Stress axis : x y z
#
# Youngs Moduli (GPa) = 86.69642 138.01877 160.25076
#
# Poissons Ratio (x) = -0.11439 0.28452
# Poissons Ratio (y) = -0.07185 0.24449
# Poissons Ratio (z) = 0.15393 0.21057
#
# Static dielectric constant tensor:
#      x y z
#    x 2.133730 0.000000 0.061500 
#    y 0.000000 2.045460 0.000000 
#    z 0.061500 0.000000 2.377160 
# 
# From -- ./inp_files/7218.got.cif
#   From: 2010.05.17/outbox.cif.g08.bks.cpg/sg15_4_cif.got.tgz:7218.got - 2010.06.03 18:47:42.
