data_PCOD9296240
_publ_section_title
;
Structure prediction by ZEFSAII (Michael W. Deem and Ramdas Pophale) SiO2 
 PCOD9296240
Probable space group: C 2/C
;
_chemical_formula_sum "Si O2"
_cell_formula_units_Z 44
_cell_length_a 16.563842
_cell_length_b 8.706924
_cell_length_c 20.033713
_cell_angle_alpha 90.000000
_cell_angle_beta 43.337056
_cell_angle_gamma 90.000000
_cell_volume 1982.870049
_symmetry_space_group_name_H-M "C 2/C"
_symmetry_group_IT_number 15
_symmetry_cell_setting 'monoclinic'
loop_
_space_group_symop_operation_xyz
x,y,z
-x,y,1/2-z
-x,-y,-z
x,-y,1/2+z
1/2+x,1/2+y,z
1/2-x,1/2+y,1/2-z
1/2-x,1/2-y,-z
1/2+x,1/2-y,1/2+z
loop_
_atom_site_type_symbol
_atom_site_label
_atom_site_fract_x
_atom_site_fract_y
_atom_site_fract_z
Si Si1 0.066029 0.364741 0.602267
Si Si2 0.160564 0.122320 0.361596
Si Si3 0.500000 0.883842 0.250000
Si Si4 0.080091 0.776782 0.426918
Si Si5 0.310363 0.650198 0.311033
Si Si6 0.801848 0.169061 0.875278
O O1 0.028716 0.510062 0.668763
O O2 0.099863 0.231764 0.634271
O O3 0.187706 0.381294 0.487643
O O4 0.966167 0.307977 0.611499
O O5 0.182186 0.170195 0.272991
O O6 0.256732 0.194290 0.353843
O O7 0.035609 0.188591 0.460848
O O8 0.145670 0.938637 0.374256
O O9 0.390728 0.773754 0.299122
O O10 0.173340 0.674174 0.409706
O O11 0.155878 0.977781 0.190681
#
# Coordination Sequence:
#
# PCOD9296240 Si02
#       6
#     8   8   4   8   8   8
#     4  10  25  46  69  99 135 183 223 282 335 408
#     4  10  23  44  70 101 131 174 227 276 342 406
#     4  12  30  42  64 102 144 178 232 276 336 404
#     4  10  24  44  72  96 135 174 223 283 338 402
#     4  12  27  42  68 102 132 184 221 285 330 412
#     4  10  24  46  72  97 138 177 225 279 349 390
#
# _framework density 22.190056999999999
#
# number of rings (size 3 to 8) (size 9 to 14) (size 15 to 20)
#    0.000    1.455    0.000    2.182   15.273    3.636 
#    0.000    0.000    0.000    0.000    0.000    0.000 
#    0.000    0.000    0.000    0.000    0.000    0.000 
#
# Total GULP energy -123187.773814 kJ/mol
# GULP energy per Si atom -5599.444264 kJ/mol
# Density = 2.213955 g / cm^3
# Si number density = 22.190057 Si / 1000 Ang^3
#
#
#
# Elastic Constant Matrix: (Units=GPa)
#
#
# Indices 1 2 3 4 5 6 
#
# 1 115.7856 40.4685 2.0597 0.0000 -4.2595 0.0000
# 2 40.4685 77.1712 13.9078 0.0000 2.6789 0.0000
# 3 2.0597 13.9078 59.5783 0.0000 11.5273 0.0000
# 4 0.0000 0.0000 0.0000 21.7946 0.0000 0.8300
# 5 -4.2595 2.6789 11.5273 0.0000 26.3207 0.0000
# 6 0.0000 0.0000 0.0000 0.8300 0.0000 38.5675
#
#
#
# Elastic Compliance Matrix: (Units=1/GPa)
#
#
# Indices 1 2 3 4 5 6 
#
# 1 0.010731 -0.005804 0.000583 0.000000 0.002072 0.000000
# 2 -0.005804 0.016667 -0.003474 0.000000 -0.001114 0.000000
# 3 0.000583 -0.003474 0.019108 0.000000 -0.007920 0.000000
# 4 0.000000 0.000000 0.000000 0.045921 0.000000 -0.000988
# 5 0.002072 -0.001114 -0.007920 0.000000 0.041910 0.000000
# 6 0.000000 0.000000 0.000000 -0.000988 0.000000 0.025950
#
#
# Mechanical properties :
#
#
# Convention : Reuss Voigt Hill
#
# Bulk Modulus (GPa) = 34.34721 40.60080 37.47401
# Shear Modulus (GPa) = 26.68325 30.40983 28.54654
#
# Velocity S-wave (km/s) = 3.47145 3.70594 3.59061
# Velocity P-wave (km/s) = 5.61963 6.05381 5.84075
#
# Compressibility (1/GPa) = 0.02911444
#
# Stress axis : x y z
#
# Youngs Moduli (GPa) = 93.18584 59.99918 52.33413
#
# Poissons Ratio (x) = 0.34826 -0.03051
# Poissons Ratio (y) = 0.54089 0.18183
# Poissons Ratio (z) = -0.05433 0.20846
#
# Static dielectric constant tensor:
#      x y z
#    x 1.761450 0.000000 -0.022680 
#    y 0.000000 1.796770 0.000000 
#    z -0.022680 0.000000 1.841440 
# 
# From -- ./inp_files/203445.got.cif
#   From: 2010.05.17/outbox.cif.g08.bks.cpg/sg15_102_cif.got.tgz:203445.got - 2010.06.03 18:47:42.
