data_PCOD9296481
_publ_section_title
;
Structure prediction by ZEFSAII (Michael W. Deem and Ramdas Pophale) SiO2 
 PCOD9296481
Probable space group: C 2/C
;
_chemical_formula_sum "Si O2"
_cell_formula_units_Z 56
_cell_length_a 18.131863
_cell_length_b 7.752834
_cell_length_c 23.887626
_cell_angle_alpha 90.000000
_cell_angle_beta 125.664585
_cell_angle_gamma 90.000000
_cell_volume 2728.157095
_symmetry_space_group_name_H-M "C 2/C"
_symmetry_group_IT_number 15
_symmetry_cell_setting 'monoclinic'
loop_
_space_group_symop_operation_xyz
x,y,z
-x,y,1/2-z
-x,-y,-z
x,-y,1/2+z
1/2+x,1/2+y,z
1/2-x,1/2+y,1/2-z
1/2-x,1/2-y,-z
1/2+x,1/2-y,1/2+z
loop_
_atom_site_type_symbol
_atom_site_label
_atom_site_fract_x
_atom_site_fract_y
_atom_site_fract_z
Si Si1 0.002518 0.961518 0.168591
Si Si2 0.139493 0.286424 0.682342
Si Si3 0.141841 0.923357 0.805209
Si Si4 0.451909 0.094432 0.926150
Si Si5 0.238670 0.248728 0.165600
Si Si6 0.733268 0.604616 0.620221
Si Si7 0.059136 0.920579 0.974454
O O1 0.076697 0.103606 0.222371
O O2 0.922173 0.986290 0.176954
O O3 0.960964 0.968159 0.088821
O O4 0.067026 0.794102 0.193719
O O5 0.090731 0.451214 0.633647
O O6 0.232295 0.307645 0.758750
O O7 0.169289 0.157768 0.645412
O O8 0.190402 0.751201 0.847715
O O9 0.217560 0.065026 0.824976
O O10 0.365660 0.221081 0.897220
O O11 0.527366 0.230251 0.941283
O O12 0.500000 0.000000 0.000000
O O13 0.273185 0.085662 0.145792
O O14 0.663006 0.595792 0.538428
O O15 0.000000 0.000000 0.000000
#
# Coordination Sequence:
#
# PCOD9296481 Si02
#       7
#     8   8   8   8   8   8   8
#     4  10  23  45  65  88 134 172 212 268 331 393
#     4  11  22  38  65  96 126 168 218 277 328 379
#     4  10  24  46  63  92 132 175 213 264 328 401
#     4  12  21  37  63  99 131 166 217 277 329 390
#     4  11  23  38  65  94 131 165 218 272 325 389
#     4  12  23  39  66  98 126 167 219 270 328 385
#     4  12  22  38  64  94 130 166 216 273 327 377
#
# _framework density 20.526678
#
# number of rings (size 3 to 8) (size 9 to 14) (size 15 to 20)
#    0.000    0.857    5.714    0.857    6.000    0.571 
#    2.571    2.143    0.000    0.000    0.000    0.000 
#    0.000    0.000    0.000    0.000    0.000    0.000 
#
# Total GULP energy -156014.898878 kJ/mol
# GULP energy per Si atom -5571.960674 kJ/mol
# Density = 2.047996 g / cm^3
# Si number density = 20.526678 Si / 1000 Ang^3
#
#
#
# Elastic Constant Matrix: (Units=GPa)
#
#
# Indices 1 2 3 4 5 6 
#
# 1 46.1137 0.1382 25.2132 0.0000 1.8630 0.0000
# 2 0.1382 75.3327 14.7591 0.0000 5.5843 0.0000
# 3 25.2132 14.7591 135.6926 0.0000 9.6269 0.0000
# 4 0.0000 0.0000 0.0000 45.2894 0.0000 7.6010
# 5 1.8630 5.5843 9.6269 0.0000 21.0024 0.0000
# 6 0.0000 0.0000 0.0000 7.6010 0.0000 18.8968
#
#
#
# Elastic Compliance Matrix: (Units=1/GPa)
#
#
# Indices 1 2 3 4 5 6 
#
# 1 0.024193 0.000872 -0.004570 0.000000 -0.000283 0.000000
# 2 0.000872 0.013784 -0.001443 0.000000 -0.003081 0.000000
# 3 -0.004570 -0.001443 0.008599 0.000000 -0.003153 0.000000
# 4 0.000000 0.000000 0.000000 0.023679 0.000000 -0.009524
# 5 -0.000283 -0.003081 -0.003153 0.000000 0.049903 0.000000
# 6 0.000000 0.000000 0.000000 -0.009524 0.000000 0.056750
#
#
# Mechanical properties :
#
#
# Convention : Reuss Voigt Hill
#
# Bulk Modulus (GPa) = 27.55221 37.48444 32.51832
# Shear Modulus (GPa) = 25.08931 31.50629 28.29780
#
# Velocity S-wave (km/s) = 3.49990 3.92202 3.71696
# Velocity P-wave (km/s) = 5.45749 6.22982 5.85640
#
# Compressibility (1/GPa) = 0.03629473
#
# Stress axis : x y z
#
# Youngs Moduli (GPa) = 41.33405 72.54851 116.28763
#
# Poissons Ratio (x) = -0.06326 0.53145
# Poissons Ratio (y) = -0.03604 0.16777
# Poissons Ratio (z) = 0.18890 0.10467
#
# Static dielectric constant tensor:
#      x y z
#    x 1.769690 0.000000 0.002950 
#    y 0.000000 1.773730 0.000000 
#    z 0.002950 0.000000 1.817150 
# 
# From -- ./inp_files/276606.got.cif
#   From: 2010.05.17/outbox.cif.g08.bks.cpg/sg15_139_cif.got.tgz:276606.got - 2010.06.03 18:47:42.
