data_PCOD9296189
_publ_section_title
;
Structure prediction by ZEFSAII (Michael W. Deem and Ramdas Pophale) SiO2 
 PCOD9296189
Probable space group: C 2/C
;
_chemical_formula_sum "Si O2"
_cell_formula_units_Z 48
_cell_length_a 29.519641
_cell_length_b 5.272777
_cell_length_c 14.756130
_cell_angle_alpha 90.000000
_cell_angle_beta 59.022415
_cell_angle_gamma 90.000000
_cell_volume 1969.203442
_symmetry_space_group_name_H-M "C 2/C"
_symmetry_group_IT_number 15
_symmetry_cell_setting 'monoclinic'
loop_
_space_group_symop_operation_xyz
x,y,z
-x,y,1/2-z
-x,-y,-z
x,-y,1/2+z
1/2+x,1/2+y,z
1/2-x,1/2+y,1/2-z
1/2-x,1/2-y,-z
1/2+x,1/2-y,1/2+z
loop_
_atom_site_type_symbol
_atom_site_label
_atom_site_fract_x
_atom_site_fract_y
_atom_site_fract_z
Si Si1 0.623042 0.874004 0.929545
Si Si2 0.037024 0.262439 0.554496
Si Si3 0.928046 0.955374 0.158377
Si Si4 0.231453 0.355606 0.298513
Si Si5 0.390281 0.449123 0.883653
Si Si6 0.223492 0.003046 0.564613
O O1 0.618956 0.701065 0.843657
O O2 0.668438 0.087166 0.870370
O O3 0.632522 0.736695 0.015400
O O4 0.563169 0.967500 0.010086
O O5 0.975317 0.237232 0.636033
O O6 0.050878 0.123901 0.445918
O O7 0.070615 0.131738 0.600609
O O8 0.918062 0.121211 0.259235
O O9 0.247056 0.060652 0.298396
O O10 0.263370 0.505178 0.343735
O O11 0.336919 0.554999 0.896768
O O12 0.250000 0.750000 0.500000
O O13 0.250000 0.250000 0.500000
#
# Coordination Sequence:
#
# PCOD9296189 Si02
#       6
#     8   8   8   8   8   8
#     4  11  24  43  71 101 144 186 236 305 364 433
#     4  10  23  44  70  98 142 176 238 301 359 433
#     4  10  23  44  69 102 134 185 237 295 365 435
#     4  12  27  45  73 108 147 194 247 302 366 443
#     4  11  24  42  69 100 140 188 232 297 361 436
#     4  12  25  45  69 101 145 191 239 299 365 434
#
# _framework density 24.375337999999999
#
# number of rings (size 3 to 8) (size 9 to 14) (size 15 to 20)
#    0.000    1.000    1.667    4.000    7.000    1.333 
#    0.000    5.000    0.000    0.000    0.000    0.000 
#    0.000    0.000    0.000    0.000    0.000    0.000 
#
# Total GULP energy -133768.235145 kJ/mol
# GULP energy per Si atom -5573.676464 kJ/mol
# Density = 2.431986 g / cm^3
# Si number density = 24.375338 Si / 1000 Ang^3
#
#
#
# Elastic Constant Matrix: (Units=GPa)
#
#
# Indices 1 2 3 4 5 6 
#
# 1 90.8251 -19.2872 16.0787 -0.0002 -0.0966 0.0000
# 2 -19.2872 55.8962 0.2171 0.0009 -5.0187 0.0010
# 3 16.0787 0.2171 81.8366 -0.0004 8.3403 -0.0004
# 4 -0.0002 0.0009 -0.0004 19.9898 -0.0002 -7.2882
# 5 -0.0966 -5.0187 8.3403 -0.0002 38.1750 -0.0001
# 6 0.0000 0.0010 -0.0004 -7.2882 -0.0001 14.0969
#
#
#
# Elastic Compliance Matrix: (Units=1/GPa)
#
#
# Indices 1 2 3 4 5 6 
#
# 1 0.012399 0.004393 -0.002567 0.000000 0.001170 -0.000001
# 2 0.004393 0.019668 -0.001207 -0.000002 0.002860 -0.000002
# 3 -0.002567 -0.001207 0.013034 0.000000 -0.003013 0.000001
# 4 0.000000 -0.000002 0.000000 0.061646 0.000000 0.031871
# 5 0.001170 0.002860 -0.003013 0.000000 0.027232 0.000000
# 6 -0.000001 -0.000002 0.000001 0.031871 0.000000 0.087415
#
#
# Mechanical properties :
#
#
# Convention : Reuss Voigt Hill
#
# Bulk Modulus (GPa) = 21.57987 24.73057 23.15522
# Shear Modulus (GPa) = 21.22228 29.88898 25.55563
#
# Velocity S-wave (km/s) = 2.95387 3.50551 3.24145
# Velocity P-wave (km/s) = 4.52838 5.15292 4.85071
#
# Compressibility (1/GPa) = 0.04633949
#
# Stress axis : x y z
#
# Youngs Moduli (GPa) = 80.65327 50.84480 76.72218
#
# Poissons Ratio (x) = -0.22337 0.19694
# Poissons Ratio (y) = -0.35433 0.09259
# Poissons Ratio (z) = 0.20703 0.06136
#
# Static dielectric constant tensor:
#      x y z
#    x 1.921190 0.000020 0.054470 
#    y 0.000020 3.190060 0.000050 
#    z 0.054470 0.000050 2.299780 
# 
# From -- ./inp_files/180002.got.cif
#   From: 2010.05.17/outbox.cif.g08.bks.cpg/sg15_91_cif.got.tgz:180002.got - 2010.06.03 18:47:42.
