data_PCOD9296468
_publ_section_title
;
Structure prediction by ZEFSAII (Michael W. Deem and Ramdas Pophale) SiO2 
 PCOD9296468
Probable space group: C 2/C
;
_chemical_formula_sum "Si O2"
_cell_formula_units_Z 64
_cell_length_a 14.830389
_cell_length_b 10.612707
_cell_length_c 17.470545
_cell_angle_alpha 90.000000
_cell_angle_beta 83.880383
_cell_angle_gamma 90.000000
_cell_volume 2734.029939
_symmetry_space_group_name_H-M "C 2/C"
_symmetry_group_IT_number 15
_symmetry_cell_setting 'monoclinic'
loop_
_space_group_symop_operation_xyz
x,y,z
-x,y,1/2-z
-x,-y,-z
x,-y,1/2+z
1/2+x,1/2+y,z
1/2-x,1/2+y,1/2-z
1/2-x,1/2-y,-z
1/2+x,1/2-y,1/2+z
loop_
_atom_site_type_symbol
_atom_site_label
_atom_site_fract_x
_atom_site_fract_y
_atom_site_fract_z
Si Si1 0.299980 0.510769 0.111013
Si Si2 0.694700 0.494137 0.573684
Si Si3 0.872414 0.422210 0.286294
Si Si4 0.886343 0.403985 0.566060
Si Si5 0.741974 0.213475 0.823034
Si Si6 0.008175 0.055580 0.413893
Si Si7 0.500803 0.152728 0.590222
Si Si8 0.411139 0.204474 0.219145
O O1 0.217823 0.430794 0.152775
O O2 0.275870 0.651256 0.139935
O O3 0.403549 0.487820 0.129732
O O4 0.302113 0.504190 0.018653
O O5 0.778096 0.401984 0.586336
O O6 0.723786 0.621578 0.613435
O O7 0.593613 0.457586 0.609590
O O8 0.843775 0.338529 0.216409
O O9 0.953134 0.373916 0.332384
O O10 0.895691 0.561978 0.253748
O O11 0.919621 0.361915 0.480434
O O12 0.925828 0.314596 0.628004
O O13 0.928068 0.544351 0.574956
O O14 0.822813 0.223863 0.754518
O O15 0.030909 0.203943 0.414417
O O16 0.000000 0.000000 0.500000
O O17 0.500000 0.258855 0.250000
#
# Coordination Sequence:
#
# PCOD9296468 Si02
#       8
#     8   8   8   8   8   8   8   8
#     4  10  23  45  64  94 136 173 222 286 326 403
#     4  11  22  43  67  96 131 178 227 269 338 403
#     4  11  23  42  63  99 131 174 224 271 336 397
#     4  11  23  42  72 102 128 175 231 279 332 396
#     4  11  25  39  70  93 136 179 220 272 346 403
#     4  10  25  43  65 100 134 169 222 275 334 400
#     4  11  24  42  72  99 129 179 226 276 333 403
#     4  11  24  41  62  99 140 167 222 285 331 393
#
# _framework density 23.408669
#
# number of rings (size 3 to 8) (size 9 to 14) (size 15 to 20)
#    0.000    1.250    3.750    1.125    1.750    6.500 
#    0.000    1.250    0.000    0.000    0.000    0.000 
#    0.000    0.000    0.000    0.000    0.000    0.000 
#
# Total GULP energy -179054.583534 kJ/mol
# GULP energy per Si atom -5595.455735 kJ/mol
# Density = 2.335539 g / cm^3
# Si number density = 23.408669 Si / 1000 Ang^3
#
#
#
# Elastic Constant Matrix: (Units=GPa)
#
#
# Indices 1 2 3 4 5 6 
#
# 1 125.7878 12.9598 0.9855 0.0000 7.9095 0.0000
# 2 12.9598 53.2919 11.9041 0.0000 6.5421 0.0000
# 3 0.9855 11.9041 81.7489 0.0000 7.8872 0.0000
# 4 0.0000 0.0000 0.0000 13.8972 0.0000 -5.3955
# 5 7.9095 6.5421 7.8872 0.0000 38.6704 0.0000
# 6 0.0000 0.0000 0.0000 -5.3955 0.0000 32.8282
#
#
#
# Elastic Compliance Matrix: (Units=1/GPa)
#
#
# Indices 1 2 3 4 5 6 
#
# 1 0.008233 -0.001897 0.000315 0.000000 -0.001427 0.000000
# 2 -0.001897 0.020126 -0.002669 0.000000 -0.002472 0.000000
# 3 0.000315 -0.002669 0.012833 0.000000 -0.002230 0.000000
# 4 0.000000 0.000000 0.000000 0.076862 0.000000 0.012633
# 5 -0.001427 -0.002472 -0.002230 0.000000 0.027025 0.000000
# 6 0.000000 0.000000 0.000000 0.012633 0.000000 0.032538
#
#
# Mechanical properties :
#
#
# Convention : Reuss Voigt Hill
#
# Bulk Modulus (GPa) = 30.59272 34.72527 32.65899
# Shear Modulus (GPa) = 25.37888 32.74445 29.06166
#
# Velocity S-wave (km/s) = 3.29624 3.74413 3.52730
# Velocity P-wave (km/s) = 5.25207 5.79292 5.52911
#
# Compressibility (1/GPa) = 0.03268752
#
# Stress axis : x y z
#
# Youngs Moduli (GPa) = 121.46786 49.68778 77.92624
#
# Poissons Ratio (x) = 0.09427 -0.02452
# Poissons Ratio (y) = 0.23044 0.20801
# Poissons Ratio (z) = -0.03823 0.13263
#
# Static dielectric constant tensor:
#      x y z
#    x 1.940520 0.000000 -0.019940 
#    y 0.000000 1.862000 0.000000 
#    z -0.019940 0.000000 1.836360 
# 
# From -- ./inp_files/204450.got.cif
#   From: 2010.05.17/outbox.cif.g08.bks.cpg/sg15_103_cif.got.tgz:204450.got - 2010.06.03 18:47:42.
