data_PCOD9296253
_publ_section_title
;
Structure prediction by ZEFSAII (Michael W. Deem and Ramdas Pophale) SiO2 
 PCOD9296253
Probable space group: C 2/C
;
_chemical_formula_sum "Si O2"
_cell_formula_units_Z 48
_cell_length_a 15.880177
_cell_length_b 17.324490
_cell_length_c 16.866359
_cell_angle_alpha 90.000000
_cell_angle_beta 26.068173
_cell_angle_gamma 90.000000
_cell_volume 2039.092751
_symmetry_space_group_name_H-M "C 2/C"
_symmetry_group_IT_number 15
_symmetry_cell_setting 'monoclinic'
loop_
_space_group_symop_operation_xyz
x,y,z
-x,y,1/2-z
-x,-y,-z
x,-y,1/2+z
1/2+x,1/2+y,z
1/2-x,1/2+y,1/2-z
1/2-x,1/2-y,-z
1/2+x,1/2-y,1/2+z
loop_
_atom_site_type_symbol
_atom_site_label
_atom_site_fract_x
_atom_site_fract_y
_atom_site_fract_z
Si Si1 0.369909 0.635156 0.631736
Si Si2 0.434157 0.125092 0.224492
Si Si3 0.673947 0.294551 0.162451
Si Si4 0.210961 0.525767 0.297680
Si Si5 0.184225 0.682668 0.646108
Si Si6 0.407403 0.656559 0.211299
O O1 0.369659 0.684122 0.710401
O O2 0.357274 0.545508 0.664764
O O3 0.182900 0.643057 0.733186
O O4 0.530573 0.666955 0.434767
O O5 0.500000 0.083734 0.250000
O O6 0.314495 0.201389 0.351428
O O7 0.322993 0.072314 0.256031
O O8 0.628967 0.161170 0.022938
O O9 0.500000 0.316592 0.250000
O O10 0.289408 0.579358 0.302399
O O11 0.000000 0.500000 0.500000
O O12 0.375548 0.654121 0.439375
O O13 0.000000 0.670022 0.750000
O O14 0.199428 0.772718 0.658046
#
# Coordination Sequence:
#
# PCOD9296253 Si02
#       6
#     8   8   8   8   8   8
#     4  10  25  41  68  98 136 182 228 277 358 413
#     4  11  25  41  68  96 131 176 223 291 341 405
#     4  11  23  42  68 101 129 172 233 288 341 410
#     4  12  25  45  64  97 141 183 230 274 355 426
#     4  10  23  44  70 104 134 175 239 294 349 406
#     4  10  25  40  71  96 138 181 229 290 345 414
#
# _framework density 23.539881000000001
#
# number of rings (size 3 to 8) (size 9 to 14) (size 15 to 20)
#    1.000    0.333    1.667    4.000    9.333    0.667 
#    0.000    0.833    0.000    0.000    0.000    0.000 
#    0.000    0.000    0.000    0.000    0.000    0.000 
#
# Total GULP energy -133980.630684 kJ/mol
# GULP energy per Si atom -5582.526278 kJ/mol
# Density = 2.348630 g / cm^3
# Si number density = 23.539881 Si / 1000 Ang^3
#
#
#
# Elastic Constant Matrix: (Units=GPa)
#
#
# Indices 1 2 3 4 5 6 
#
# 1 87.2729 20.7627 30.2842 0.0053 -13.9335 0.0003
# 2 20.7627 56.4468 12.7231 0.0007 -30.6741 0.0031
# 3 30.2842 12.7231 76.5648 -0.0131 -17.5266 -0.0061
# 4 0.0053 0.0007 -0.0131 32.5162 -0.0013 -13.2399
# 5 -13.9335 -30.6741 -17.5266 -0.0013 33.2878 0.0040
# 6 0.0003 0.0031 -0.0061 -13.2399 0.0040 24.9056
#
#
#
# Elastic Compliance Matrix: (Units=1/GPa)
#
#
# Indices 1 2 3 4 5 6 
#
# 1 0.014150 -0.004593 -0.005056 -0.000006 -0.000972 -0.000004
# 2 -0.004593 0.037197 0.003459 -0.000001 0.034174 -0.000010
# 3 -0.005056 0.003459 0.016750 0.000011 0.009890 0.000008
# 4 -0.000006 -0.000001 0.000011 0.039250 0.000001 0.020865
# 5 -0.000972 0.034174 0.009890 0.000001 0.066333 -0.000012
# 6 -0.000004 -0.000010 0.000008 0.020865 -0.000012 0.051244
#
#
# Mechanical properties :
#
#
# Convention : Reuss Voigt Hill
#
# Bulk Modulus (GPa) = 17.94842 38.64718 28.29780
# Shear Modulus (GPa) = 19.54066 28.57622 24.05844
#
# Velocity S-wave (km/s) = 2.88429 3.48796 3.20039
# Velocity P-wave (km/s) = 4.32821 5.71616 5.06991
#
# Compressibility (1/GPa) = 0.05571521
#
# Stress axis : x y z
#
# Youngs Moduli (GPa) = 70.66902 26.88411 59.70186
#
# Poissons Ratio (x) = 0.12349 0.30186
# Poissons Ratio (y) = 0.32461 -0.20649
# Poissons Ratio (z) = 0.35732 -0.09298
#
# Static dielectric constant tensor:
#      x y z
#    x 1.947180 0.000000 -0.024450 
#    y 0.000000 1.929860 0.000040 
#    z -0.024450 0.000040 2.005990 
# 
# From -- ./inp_files/206687.got.cif
#   From: 2010.05.17/outbox.cif.g08.bks.cpg/sg15_104_cif.got.tgz:206687.got - 2010.06.03 18:47:42.
