data_PCOD9296374
_publ_section_title
;
Structure prediction by ZEFSAII (Michael W. Deem and Ramdas Pophale) SiO2 
 PCOD9296374
Probable space group: C 2/C
;
_chemical_formula_sum "Si O2"
_cell_formula_units_Z 48
_cell_length_a 33.071523
_cell_length_b 5.481683
_cell_length_c 14.483339
_cell_angle_alpha 90.000000
_cell_angle_beta 55.253558
_cell_angle_gamma 90.000000
_cell_volume 2157.450089
_symmetry_space_group_name_H-M "C 2/C"
_symmetry_group_IT_number 15
_symmetry_cell_setting 'monoclinic'
loop_
_space_group_symop_operation_xyz
x,y,z
-x,y,1/2-z
-x,-y,-z
x,-y,1/2+z
1/2+x,1/2+y,z
1/2-x,1/2+y,1/2-z
1/2-x,1/2-y,-z
1/2+x,1/2-y,1/2+z
loop_
_atom_site_type_symbol
_atom_site_label
_atom_site_fract_x
_atom_site_fract_y
_atom_site_fract_z
Si Si1 0.974853 0.746659 0.496274
Si Si2 0.805073 0.342251 0.436907
Si Si3 0.134079 0.122201 0.983913
Si Si4 0.873138 0.919445 0.697157
Si Si5 0.952234 0.553789 0.857287
Si Si6 0.622688 0.224871 0.156509
O O1 0.918838 0.758687 0.605459
O O2 0.970266 0.680989 0.392801
O O3 0.000000 0.500000 0.500000
O O4 0.000000 0.000000 0.500000
O O5 0.750000 0.250000 0.500000
O O6 0.826015 0.277729 0.511508
O O7 0.836332 0.210263 0.315559
O O8 0.822059 0.621839 0.402536
O O9 0.151354 0.020905 0.863822
O O10 0.083204 0.272074 0.036681
O O11 0.122990 0.905156 0.069443
O O12 0.893974 0.142268 0.730117
O O13 0.915826 0.481567 0.821459
O O14 0.000000 0.675396 0.750000
#
# Coordination Sequence:
#
# PCOD9296374 Si02
#       6
#     8   8   8   8   8   8
#     4  12  27  42  68 107 146 199 257 297 368 435
#     4  10  25  47  72 107 138 185 244 317 386 455
#     4  10  23  45  67 102 141 194 241 301 376 446
#     4  11  24  45  69 102 145 191 243 310 366 457
#     4  11  24  40  66  99 147 196 252 305 362 441
#     4  10  23  44  72  93 149 183 243 308 383 433
#
# _framework density 22.248484999999999
#
# number of rings (size 3 to 8) (size 9 to 14) (size 15 to 20)
#    0.000    1.333    1.667    2.000   11.667    3.333 
#    6.000    0.000    0.000    0.000    0.000    0.000 
#    0.000    0.000    0.000    0.000    0.000    0.000 
#
# Total GULP energy -134037.742956 kJ/mol
# GULP energy per Si atom -5584.905956 kJ/mol
# Density = 2.219785 g / cm^3
# Si number density = 22.248485 Si / 1000 Ang^3
#
#
#
# Elastic Constant Matrix: (Units=GPa)
#
#
# Indices 1 2 3 4 5 6 
#
# 1 91.5772 26.4640 43.4608 0.0000 0.4818 0.0000
# 2 26.4640 79.8445 20.8125 -0.0001 2.0749 -0.0001
# 3 43.4608 20.8125 105.1820 0.0000 14.6409 0.0000
# 4 0.0000 -0.0001 0.0000 28.7006 0.0000 6.2496
# 5 0.4818 2.0749 14.6409 0.0000 50.5430 0.0000
# 6 0.0000 -0.0001 0.0000 6.2496 0.0000 30.3358
#
#
#
# Elastic Compliance Matrix: (Units=1/GPa)
#
#
# Indices 1 2 3 4 5 6 
#
# 1 0.014533 -0.003411 -0.005554 0.000000 0.001610 0.000000
# 2 -0.003411 0.014008 -0.001341 0.000000 -0.000154 0.000000
# 3 -0.005554 -0.001341 0.012559 0.000000 -0.003530 0.000000
# 4 0.000000 0.000000 0.000000 0.036479 0.000000 -0.007515
# 5 0.001610 -0.000154 -0.003530 0.000000 0.020799 0.000000
# 6 0.000000 0.000000 0.000000 -0.007515 0.000000 0.034513
#
#
# Mechanical properties :
#
#
# Convention : Reuss Voigt Hill
#
# Bulk Modulus (GPa) = 48.80892 50.89761 49.85326
# Shear Modulus (GPa) = 31.18526 34.30696 32.74611
#
# Velocity S-wave (km/s) = 3.74796 3.93108 3.84061
# Velocity P-wave (km/s) = 6.38086 6.59781 6.49024
#
# Compressibility (1/GPa) = 0.02048806
#
# Stress axis : x y z
#
# Youngs Moduli (GPa) = 68.80954 71.38555 79.62412
#
# Poissons Ratio (x) = 0.24349 0.44225
# Poissons Ratio (y) = 0.23470 0.10678
# Poissons Ratio (z) = 0.38218 0.09573
#
# Static dielectric constant tensor:
#      x y z
#    x 1.855990 0.000000 -0.005430 
#    y 0.000000 1.923590 0.000000 
#    z -0.005430 0.000000 1.815510 
# 
# From -- ./inp_files/179974.got.cif
#   From: 2010.05.17/outbox.cif.g08.bks.cpg/sg15_90_cif.got.tgz:179974.got - 2010.06.03 18:47:42.
