data_PCOD9296068
_publ_section_title
;
Structure prediction by ZEFSAII (Michael W. Deem and Ramdas Pophale) SiO2 
 PCOD9296068
Probable space group: C 2/C
;
_chemical_formula_sum "Si O2"
_cell_formula_units_Z 40
_cell_length_a 9.052888
_cell_length_b 20.044487
_cell_length_c 10.304752
_cell_angle_alpha 90.000000
_cell_angle_beta 72.645693
_cell_angle_gamma 90.000000
_cell_volume 1784.784523
_symmetry_space_group_name_H-M "C 2/C"
_symmetry_group_IT_number 15
_symmetry_cell_setting 'monoclinic'
loop_
_space_group_symop_operation_xyz
x,y,z
-x,y,1/2-z
-x,-y,-z
x,-y,1/2+z
1/2+x,1/2+y,z
1/2-x,1/2+y,1/2-z
1/2-x,1/2-y,-z
1/2+x,1/2-y,1/2+z
loop_
_atom_site_type_symbol
_atom_site_label
_atom_site_fract_x
_atom_site_fract_y
_atom_site_fract_z
Si Si1 0.663958 0.122469 0.278764
Si Si2 0.631222 0.720840 0.424828
Si Si3 0.599997 0.358203 0.340787
Si Si4 0.401449 0.511420 0.157960
Si Si5 0.143351 0.686063 0.554943
O O1 0.500000 0.128948 0.250000
O O2 0.768563 0.185392 0.210684
O O3 0.749001 0.056865 0.199138
O O4 0.650167 0.130468 0.438222
O O5 0.750000 0.750000 0.500000
O O6 0.515644 0.662928 0.511364
O O7 0.524687 0.781141 0.405268
O O8 0.500000 0.326256 0.250000
O O9 0.626793 0.434962 0.297041
O O10 0.771767 0.339394 0.339380
O O11 0.500000 0.542639 0.250000
O O12 0.500000 0.500000 0.000000
O O13 0.250000 0.750000 0.500000
#
# Coordination Sequence:
#
# PCOD9296068 Si02
#       5
#     8   8   8   8   8
#     4  12  25  45  70 102 142 187 238 301 361 433
#     4  11  23  41  69 100 141 181 226 294 367 430
#     4  10  23  44  66  97 139 178 235 289 350 424
#     4  11  23  45  74 100 138 195 247 297 357 428
#     4  10  24  41  68 105 135 182 234 290 364 434
#
# _framework density 22.411669
#
# number of rings (size 3 to 8) (size 9 to 14) (size 15 to 20)
#    0.000    1.200    4.000    1.200    8.400    0.000 
#    0.000    8.000    0.000    0.000    0.000    0.000 
#    0.000    0.000    0.000    0.000    0.000    0.000 
#
# Total GULP energy -111504.171039 kJ/mol
# GULP energy per Si atom -5575.208552 kJ/mol
# Density = 2.236066 g / cm^3
# Si number density = 22.411669 Si / 1000 Ang^3
#
#
#
# Elastic Constant Matrix: (Units=GPa)
#
#
# Indices 1 2 3 4 5 6 
#
# 1 201.6765 51.0985 62.1136 0.0000 12.1183 0.0000
# 2 51.0985 89.6964 26.2522 0.0000 -7.0824 0.0000
# 3 62.1136 26.2522 99.1394 0.0000 0.6409 0.0000
# 4 0.0000 0.0000 0.0000 31.5820 0.0000 -6.4010
# 5 12.1183 -7.0824 0.6409 0.0000 35.2711 0.0000
# 6 0.0000 0.0000 0.0000 -6.4010 0.0000 38.6717
#
#
#
# Elastic Compliance Matrix: (Units=1/GPa)
#
#
# Indices 1 2 3 4 5 6 
#
# 1 0.007044 -0.003213 -0.003543 0.000000 -0.003001 0.000000
# 2 -0.003213 0.013773 -0.001659 0.000000 0.003899 0.000000
# 3 -0.003543 -0.001659 0.012742 0.000000 0.000653 0.000000
# 4 0.000000 0.000000 0.000000 0.032763 0.000000 0.005423
# 5 -0.003001 0.003899 0.000653 0.000000 0.030154 0.000000
# 6 0.000000 0.000000 0.000000 0.005423 0.000000 0.026756
#
#
# Mechanical properties :
#
#
# Convention : Reuss Voigt Hill
#
# Bulk Modulus (GPa) = 59.78009 74.38231 67.08120
# Shear Modulus (GPa) = 34.33176 37.84151 36.08664
#
# Velocity S-wave (km/s) = 3.91816 4.11356 4.01705
# Velocity P-wave (km/s) = 6.87029 7.47148 7.17718
#
# Compressibility (1/GPa) = 0.01672798
#
# Stress axis : x y z
#
# Youngs Moduli (GPa) = 141.96465 72.60836 78.48171
#
# Poissons Ratio (x) = 0.23328 0.27807
# Poissons Ratio (y) = 0.45610 0.13022
# Poissons Ratio (z) = 0.50300 0.12048
#
# Static dielectric constant tensor:
#      x y z
#    x 1.917340 0.000000 0.118240 
#    y 0.000000 2.030970 0.000000 
#    z 0.118240 0.000000 1.899660 
# 
# From -- ./inp_files/77644.got.cif
#   From: 2010.05.17/outbox.cif.g08.bks.cpg/sg15_39_cif.got.tgz:77644.got - 2010.06.03 18:47:42.
