data_PCOD9296279
_publ_section_title
;
Structure prediction by ZEFSAII (Michael W. Deem and Ramdas Pophale) SiO2 
 PCOD9296279
Probable space group: C 2/C
;
_chemical_formula_sum "Si O2"
_cell_formula_units_Z 60
_cell_length_a 12.411490
_cell_length_b 20.093929
_cell_length_c 19.977525
_cell_angle_alpha 90.000000
_cell_angle_beta 35.474496
_cell_angle_gamma 90.000000
_cell_volume 2891.434485
_symmetry_space_group_name_H-M "C 2/C"
_symmetry_group_IT_number 15
_symmetry_cell_setting 'monoclinic'
loop_
_space_group_symop_operation_xyz
x,y,z
-x,y,1/2-z
-x,-y,-z
x,-y,1/2+z
1/2+x,1/2+y,z
1/2-x,1/2+y,1/2-z
1/2-x,1/2-y,-z
1/2+x,1/2-y,1/2+z
loop_
_atom_site_type_symbol
_atom_site_label
_atom_site_fract_x
_atom_site_fract_y
_atom_site_fract_z
Si Si1 0.383042 0.094907 0.419906
Si Si2 0.897460 0.005187 0.370590
Si Si3 0.376396 0.533252 0.621573
Si Si4 0.012269 0.761974 0.555552
Si Si5 0.000000 0.492508 0.250000
Si Si6 0.923160 0.280762 0.713358
Si Si7 0.032120 0.829744 0.061435
Si Si8 0.342337 0.659345 0.388325
O O1 0.459903 0.038987 0.333085
O O2 0.543681 0.150799 0.346367
O O3 0.233436 0.137594 0.454098
O O4 0.258094 0.052122 0.535474
O O5 0.814467 0.079747 0.407724
O O6 0.000000 0.988965 0.250000
O O7 0.055842 0.009553 0.348708
O O8 0.500000 0.500000 0.500000
O O9 0.410013 0.605894 0.635152
O O10 0.182336 0.543282 0.682190
O O11 0.144048 0.697185 0.481523
O O12 0.080074 0.808025 0.582486
O O13 0.790184 0.756216 0.677564
O O14 0.031999 0.798457 0.474908
O O15 0.000000 0.287025 0.750000
O O16 0.033478 0.223233 0.619273
O O17 0.500000 0.670682 0.250000
#
# Coordination Sequence:
#
# PCOD9296279 Si02
#       8
#     8   8   8   8   4   8   8   8
#     4  11  23  42  70 100 136 188 234 286 352 418
#     4  10  23  44  71 103 149 188 233 296 358 425
#     4  11  23  44  72 101 141 177 237 294 340 422
#     4  11  23  42  70  97 136 185 234 284 351 420
#     4  12  22  42  76 108 128 186 240 292 356 406
#     4  12  25  42  67 102 144 181 233 290 350 425
#     4  11  23  43  64 100 135 181 225 284 346 403
#     4  10  23  44  70  98 141 187 233 287 354 425
#
# _framework density 20.750945999999999
#
# number of rings (size 3 to 8) (size 9 to 14) (size 15 to 20)
#    0.000    1.067    4.667    2.000    1.867    3.200 
#    3.600    0.667    0.000    0.000    0.000    0.000 
#    0.000    0.000    0.000    0.000    0.000    0.000 
#
# Total GULP energy -167006.033679 kJ/mol
# GULP energy per Si atom -5566.867789 kJ/mol
# Density = 2.070372 g / cm^3
# Si number density = 20.750946 Si / 1000 Ang^3
#
#
#
# Elastic Constant Matrix: (Units=GPa)
#
#
# Indices 1 2 3 4 5 6 
#
# 1 50.3119 17.5449 33.5648 0.0200 -5.4861 -0.0047
# 2 17.5449 119.3667 74.8486 0.0066 10.3386 -0.0026
# 3 33.5648 74.8486 159.4745 0.0581 14.6856 -0.0111
# 4 0.0200 0.0066 0.0581 137.9189 -0.0201 -38.2437
# 5 -5.4861 10.3386 14.6856 -0.0201 46.9344 0.0056
# 6 -0.0047 -0.0026 -0.0111 -38.2437 0.0056 40.9284
#
#
#
# Elastic Compliance Matrix: (Units=1/GPa)
#
#
# Indices 1 2 3 4 5 6 
#
# 1 0.024060 -0.000699 -0.005158 -0.000001 0.004580 0.000000
# 2 -0.000699 0.011928 -0.005356 0.000002 -0.001033 0.000001
# 3 -0.005158 -0.005356 0.010108 -0.000004 -0.002586 -0.000002
# 4 -0.000001 0.000002 -0.000004 0.009786 0.000004 0.009144
# 5 0.004580 -0.001033 -0.002586 0.000004 0.022878 0.000000
# 6 0.000000 0.000001 -0.000002 0.009144 0.000000 0.032977
#
#
# Mechanical properties :
#
#
# Convention : Reuss Voigt Hill
#
# Bulk Modulus (GPa) = 42.24612 64.56329 53.40471
# Shear Modulus (GPa) = 35.19763 58.70264 46.95013
#
# Velocity S-wave (km/s) = 4.12296 5.32452 4.76179
# Velocity P-wave (km/s) = 6.56261 8.30552 7.48497
#
# Compressibility (1/GPa) = 0.02367081
#
# Stress axis : x y z
#
# Youngs Moduli (GPa) = 41.56265 83.83338 98.92966
#
# Poissons Ratio (x) = 0.05860 0.51024
# Poissons Ratio (y) = 0.02905 0.52989
# Poissons Ratio (z) = 0.21437 0.44903
#
# Static dielectric constant tensor:
#      x y z
#    x 1.818190 -0.000040 -0.095180 
#    y -0.000040 1.732830 0.000030 
#    z -0.095180 0.000030 1.837280 
# 
# From -- ./inp_files/200496.got.cif
#   From: 2010.05.17/outbox.cif.g08.bks.cpg/sg15_101_cif.got.tgz:200496.got - 2010.06.03 18:47:42.
