data_PCOD9296573
_publ_section_title
;
Structure prediction by ZEFSAII (Michael W. Deem and Ramdas Pophale) SiO2 
 PCOD9296573
Probable space group: C 2/C
;
_chemical_formula_sum "Si O2"
_cell_formula_units_Z 36
_cell_length_a 15.900874
_cell_length_b 9.623199
_cell_length_c 13.984143
_cell_angle_alpha 90.000000
_cell_angle_beta 130.373878
_cell_angle_gamma 90.000000
_cell_volume 1630.183557
_symmetry_space_group_name_H-M "C 2/C"
_symmetry_group_IT_number 15
_symmetry_cell_setting 'monoclinic'
loop_
_space_group_symop_operation_xyz
x,y,z
-x,y,1/2-z
-x,-y,-z
x,-y,1/2+z
1/2+x,1/2+y,z
1/2-x,1/2+y,1/2-z
1/2-x,1/2-y,-z
1/2+x,1/2-y,1/2+z
loop_
_atom_site_type_symbol
_atom_site_label
_atom_site_fract_x
_atom_site_fract_y
_atom_site_fract_z
Si Si1 0.833090 0.934928 0.642539
Si Si2 0.820989 0.376511 0.134948
Si Si3 0.132089 0.005690 0.115549
Si Si4 0.636827 0.307261 0.459613
Si Si5 0.500000 0.903550 0.750000
O O1 0.872984 0.775886 0.679256
O O2 0.716657 0.909312 0.502073
O O3 0.836617 0.995968 0.750785
O O4 0.889665 0.047309 0.614341
O O5 0.710182 0.395194 0.117351
O O6 0.906033 0.496869 0.222519
O O7 0.158516 0.153376 0.084705
O O8 0.000000 0.000000 0.000000
O O9 0.750000 0.250000 0.500000
O O10 0.545074 0.196248 0.366345
#
# Coordination Sequence:
#
# PCOD9296573 Si02
#       5
#     8   8   8   8   4
#     4  10  23  45  68  95 141 172 235 283 346 419
#     4  10  25  42  69 100 133 183 228 293 348 408
#     4  11  24  42  69 100 134 185 232 278 357 419
#     4  11  23  44  69 102 137 185 229 289 351 413
#     4  12  22  44  72  96 142 178 234 284 354 418
#
# _framework density 22.083402
#
# number of rings (size 3 to 8) (size 9 to 14) (size 15 to 20)
#    0.000    1.333    4.444    1.333    3.111   10.667 
#    0.000    2.222    0.000    0.000    0.000    0.000 
#    0.000    0.000    0.000    0.000    0.000    0.000 
#
# Total GULP energy -100409.629429 kJ/mol
# GULP energy per Si atom -5578.312746 kJ/mol
# Density = 2.203314 g / cm^3
# Si number density = 22.083402 Si / 1000 Ang^3
#
#
#
# Elastic Constant Matrix: (Units=GPa)
#
#
# Indices 1 2 3 4 5 6 
#
# 1 94.5809 28.5501 40.8202 0.0000 4.7842 0.0000
# 2 28.5501 141.7489 19.8102 0.0000 9.5753 0.0000
# 3 40.8202 19.8102 83.3274 0.0000 -19.8965 0.0000
# 4 0.0000 0.0000 0.0000 44.7719 0.0000 6.5512
# 5 4.7842 9.5753 -19.8965 0.0000 37.3449 0.0000
# 6 0.0000 0.0000 0.0000 6.5512 0.0000 30.3896
#
#
#
# Elastic Compliance Matrix: (Units=1/GPa)
#
#
# Indices 1 2 3 4 5 6 
#
# 1 0.014944 -0.001425 -0.008423 0.000000 -0.006037 0.000000
# 2 -0.001425 0.007783 -0.001816 0.000000 -0.002781 0.000000
# 3 -0.008423 -0.001816 0.019395 0.000000 0.011878 0.000000
# 4 0.000000 0.000000 0.000000 0.023063 0.000000 -0.004972
# 5 -0.006037 -0.002781 0.011878 0.000000 0.034592 0.000000
# 6 0.000000 0.000000 0.000000 -0.004972 0.000000 0.033978
#
#
# Mechanical properties :
#
#
# Convention : Reuss Voigt Hill
#
# Bulk Modulus (GPa) = 53.21046 55.33535 54.27290
# Shear Modulus (GPa) = 30.60921 37.86638 34.23780
#
# Velocity S-wave (km/s) = 3.72704 4.14538 3.94177
# Velocity P-wave (km/s) = 6.53212 6.92994 6.73397
#
# Compressibility (1/GPa) = 0.01879330
#
# Stress axis : x y z
#
# Youngs Moduli (GPa) = 66.91698 128.47811 51.55878
#
# Poissons Ratio (x) = 0.18307 0.43430
# Poissons Ratio (y) = 0.09535 0.09365
# Poissons Ratio (z) = 0.56367 0.23337
#
# Static dielectric constant tensor:
#      x y z
#    x 1.866750 0.000000 0.006190 
#    y 0.000000 1.860200 0.000000 
#    z 0.006190 0.000000 1.953370 
# 
# From -- ./inp_files/159569.got.cif
#   From: 2010.05.17/outbox.cif.g08.bks.cpg/sg15_80_cif.got.tgz:159569.got - 2010.06.03 18:47:42.
