data_PCOD9296150
_publ_section_title
;
Structure prediction by ZEFSAII (Michael W. Deem and Ramdas Pophale) SiO2 
 PCOD9296150
Probable space group: C 2/C
;
_chemical_formula_sum "Si O2"
_cell_formula_units_Z 32
_cell_length_a 12.483944
_cell_length_b 17.054060
_cell_length_c 10.622042
_cell_angle_alpha 90.000000
_cell_angle_beta 38.478797
_cell_angle_gamma 90.000000
_cell_volume 1407.132699
_symmetry_space_group_name_H-M "C 2/C"
_symmetry_group_IT_number 15
_symmetry_cell_setting 'monoclinic'
loop_
_space_group_symop_operation_xyz
x,y,z
-x,y,1/2-z
-x,-y,-z
x,-y,1/2+z
1/2+x,1/2+y,z
1/2-x,1/2+y,1/2-z
1/2-x,1/2-y,-z
1/2+x,1/2-y,1/2+z
loop_
_atom_site_type_symbol
_atom_site_label
_atom_site_fract_x
_atom_site_fract_y
_atom_site_fract_z
Si Si1 0.268648 0.578782 0.705178
Si Si2 0.953489 0.321191 0.423301
Si Si3 0.354721 0.407005 0.701362
Si Si4 0.516775 0.700772 0.874847
O O1 0.270489 0.491460 0.756790
O O2 0.441671 0.582260 0.458458
O O3 0.318489 0.643124 0.765421
O O4 0.093039 0.609023 0.808101
O O5 0.763739 0.357074 0.598717
O O6 0.000000 0.279861 0.250000
O O7 0.968596 0.264049 0.528247
O O8 0.364193 0.357653 0.561102
O O9 0.500000 0.731030 0.750000
#
# Coordination Sequence:
#
# PCOD9296150 Si02
#       4
#     8   8   8   8
#     4   9  22  44  65  94 132 166 215 270 325 376
#     4  12  25  40  66 100 132 172 211 262 328 388
#     4   9  22  44  65  94 132 166 215 270 325 376
#     4  10  23  44  68  94 128 174 219 266 322 382
#
# _framework density 22.741281000000001
#
# number of rings (size 3 to 8) (size 9 to 14) (size 15 to 20)
#    1.500    0.500    0.000    2.250    0.000   11.000 
#    0.000    2.500    0.000    0.000    0.000    0.000 
#    0.000    0.000    0.000    0.000    0.000    0.000 
#
# Total GULP energy -89221.134490 kJ/mol
# GULP energy per Si atom -5576.320906 kJ/mol
# Density = 2.268952 g / cm^3
# Si number density = 22.741281 Si / 1000 Ang^3
#
#
#
# Elastic Constant Matrix: (Units=GPa)
#
#
# Indices 1 2 3 4 5 6 
#
# 1 81.9160 37.8153 43.9479 -0.0042 17.4379 0.0022
# 2 37.8153 118.9211 41.4165 -0.0056 3.7569 0.0027
# 3 43.9479 41.4165 94.8444 -0.0099 13.4556 0.0057
# 4 -0.0042 -0.0056 -0.0099 -78.2303 0.0037 35.4509
# 5 17.4379 3.7569 13.4556 0.0037 37.3255 -0.0024
# 6 0.0022 0.0027 0.0057 35.4509 -0.0024 -2.1881
#
#
#
# Elastic Compliance Matrix: (Units=1/GPa)
#
#
# Indices 1 2 3 4 5 6 
#
# 1 0.018412 -0.003528 -0.006135 0.000000 -0.006035 0.000000
# 2 -0.003528 0.010605 -0.003245 0.000000 0.001750 0.000000
# 3 -0.006135 -0.003245 0.015124 -0.000002 -0.002259 -0.000001
# 4 0.000000 0.000000 -0.000002 0.002016 0.000003 0.032656
# 5 -0.006035 0.001750 -0.002259 0.000003 0.030249 0.000002
# 6 0.000000 0.000000 -0.000001 0.032656 0.000002 0.072062
#
#
# Mechanical properties :
#
#
# Convention : Reuss Voigt Hill
#
# Bulk Modulus (GPa) = 54.56564 60.22678 57.39621
# Shear Modulus (GPa) = 27.71737 2.88156 15.29947
#
# Velocity S-wave (km/s) = 3.49494 1.12688 2.59658
# Velocity P-wave (km/s) = 6.35077 5.31358 5.85519
#
# Compressibility (1/GPa) = 0.01832655
#
# Stress axis : x y z
#
# Youngs Moduli (GPa) = 54.31165 94.29103 66.12056
#
# Poissons Ratio (x) = 0.33261 0.40565
# Poissons Ratio (y) = 0.19159 0.21456
# Poissons Ratio (z) = 0.33320 0.30597
#
# Static dielectric constant tensor:
#      x y z
#    x 1.868870 0.000000 -0.015250 
#    y 0.000000 1.845360 0.000000 
#    z -0.015250 0.000000 1.868160 
# 
# From -- ./inp_files/87005.got.cif
#   From: 2010.05.17/outbox.cif.g08.bks.cpg/sg15_44_cif.got.tgz:87005.got - 2010.06.03 18:47:42.
