data_PCOD9296858
_publ_section_title
;
Structure prediction by ZEFSAII (Michael W. Deem and Ramdas Pophale) SiO2 
 PCOD9296858
Probable space group: C 2/C
;
_chemical_formula_sum "Si O2"
_cell_formula_units_Z 60
_cell_length_a 26.463752
_cell_length_b 5.061916
_cell_length_c 19.388252
_cell_angle_alpha 90.000000
_cell_angle_beta 63.912934
_cell_angle_gamma 90.000000
_cell_volume 2332.613019
_symmetry_space_group_name_H-M "C 2/C"
_symmetry_group_IT_number 15
_symmetry_cell_setting 'monoclinic'
loop_
_space_group_symop_operation_xyz
x,y,z
-x,y,1/2-z
-x,-y,-z
x,-y,1/2+z
1/2+x,1/2+y,z
1/2-x,1/2+y,1/2-z
1/2-x,1/2-y,-z
1/2+x,1/2-y,1/2+z
loop_
_atom_site_type_symbol
_atom_site_label
_atom_site_fract_x
_atom_site_fract_y
_atom_site_fract_z
Si Si1 0.620898 0.889498 0.688531
Si Si2 0.000000 0.619580 0.250000
Si Si3 0.323149 0.404290 0.902076
Si Si4 0.301089 0.262453 0.067112
Si Si5 0.013310 0.686108 0.883907
Si Si6 0.411671 0.082702 0.041626
Si Si7 0.397165 0.433696 0.171204
Si Si8 0.283107 0.636629 0.207932
O O1 0.561469 0.768738 0.696845
O O2 0.666293 0.702885 0.626244
O O3 0.621198 0.807833 0.768902
O O4 0.634494 0.189455 0.659028
O O5 0.985380 0.456048 0.189996
O O6 0.260153 0.339131 0.916518
O O7 0.327746 0.378385 0.981288
O O8 0.346630 0.035698 0.061910
O O9 0.289823 0.485634 0.131429
O O10 0.055005 0.591839 0.921485
O O11 0.040444 0.967309 0.848149
O O12 0.952368 0.638789 0.953200
O O13 0.404298 0.352257 0.088191
O O14 0.344768 0.632083 0.205722
O O15 0.255764 0.924938 0.226822
#
# Coordination Sequence:
#
# PCOD9296858 Si02
#       8
#     8   4   8   8   8   8   8   8
#     4  12  26  46  73 106 144 191 241 304 355 440
#     4  12  26  46  76 102 142 192 244 300 376 428
#     4  11  26  48  71 109 149 188 248 291 366 431
#     4  10  24  46  74 104 145 197 234 304 359 442
#     4  11  24  47  72 104 144 190 243 309 361 444
#     4  10  23  46  70 107 143 188 247 296 374 430
#     4  11  24  42  71  99 148 184 243 301 363 429
#     4  11  25  42  70 106 140 190 242 295 362 429
#
# _framework density 25.722227
#
# number of rings (size 3 to 8) (size 9 to 14) (size 15 to 20)
#    0.000    1.067    1.333    3.600    3.733    6.400 
#   14.400    0.000    0.000    0.000    0.000    0.000 
#    0.000    0.000    0.000    0.000    0.000    0.000 
#
# Total GULP energy -167693.828101 kJ/mol
# GULP energy per Si atom -5589.794270 kJ/mol
# Density = 2.566368 g / cm^3
# Si number density = 25.722227 Si / 1000 Ang^3
#
#
#
# Elastic Constant Matrix: (Units=GPa)
#
#
# Indices 1 2 3 4 5 6 
#
# 1 97.0862 4.9255 18.6267 -0.0148 -11.6861 -0.0679
# 2 4.9255 56.7677 4.0429 0.0362 0.2969 -0.2244
# 3 18.6267 4.0429 138.4367 0.2303 9.8936 0.0774
# 4 -0.0148 0.0362 0.2303 48.3401 -0.0204 4.6958
# 5 -11.6861 0.2969 9.8936 -0.0204 45.0770 -0.0382
# 6 -0.0679 -0.2244 0.0774 4.6958 -0.0382 31.9882
#
#
#
# Elastic Compliance Matrix: (Units=1/GPa)
#
#
# Indices 1 2 3 4 5 6 
#
# 1 0.011059 -0.000856 -0.001695 0.000011 0.003245 0.000024
# 2 -0.000856 0.017719 -0.000384 -0.000024 -0.000254 0.000127
# 3 -0.001695 -0.000384 0.007614 -0.000035 -0.002108 -0.000022
# 4 0.000011 -0.000024 -0.000035 0.020986 0.000018 -0.003081
# 5 0.003245 -0.000254 -0.002108 0.000018 0.023490 0.000036
# 6 0.000024 0.000127 -0.000022 -0.003081 0.000036 0.031715
#
#
# Mechanical properties :
#
#
# Convention : Reuss Voigt Hill
#
# Bulk Modulus (GPa) = 32.76311 38.60897 35.68604
# Shear Modulus (GPa) = 38.87217 42.72742 40.79979
#
# Velocity S-wave (km/s) = 3.89167 4.08009 3.98699
# Velocity P-wave (km/s) = 5.74094 6.10236 5.92440
#
# Compressibility (1/GPa) = 0.03052213
#
# Stress axis : x y z
#
# Youngs Moduli (GPa) = 90.42145 56.43625 131.34532
#
# Poissons Ratio (x) = 0.04829 0.22263
# Poissons Ratio (y) = 0.07738 0.05046
# Poissons Ratio (z) = 0.15326 0.02168
#
# Static dielectric constant tensor:
#      x y z
#    x 2.180850 -0.000080 -0.016230 
#    y -0.000080 2.025670 -0.000030 
#    z -0.016230 -0.000030 1.998060 
# 
# From -- ./inp_files/256761.got.cif
#   From: 2010.05.17/outbox.cif.g08.bks.cpg/sg15_129_cif.got.tgz:256761.got - 2010.06.03 18:47:42.
