data_PCOD9296297
_publ_section_title
;
Structure prediction by ZEFSAII (Michael W. Deem and Ramdas Pophale) SiO2 
 PCOD9296297
Probable space group: C 2/C
;
_chemical_formula_sum "Si O2"
_cell_formula_units_Z 44
_cell_length_a 11.046391
_cell_length_b 17.950695
_cell_length_c 8.157241
_cell_angle_alpha 90.000000
_cell_angle_beta 88.677479
_cell_angle_gamma 90.000000
_cell_volume 1617.071666
_symmetry_space_group_name_H-M "C 2/C"
_symmetry_group_IT_number 15
_symmetry_cell_setting 'monoclinic'
loop_
_space_group_symop_operation_xyz
x,y,z
-x,y,1/2-z
-x,-y,-z
x,-y,1/2+z
1/2+x,1/2+y,z
1/2-x,1/2+y,1/2-z
1/2-x,1/2-y,-z
1/2+x,1/2-y,1/2+z
loop_
_atom_site_type_symbol
_atom_site_label
_atom_site_fract_x
_atom_site_fract_y
_atom_site_fract_z
Si Si1 0.228006 0.902056 0.730469
Si Si2 0.500000 0.514964 0.750000
Si Si3 0.500000 0.768162 0.750000
Si Si4 0.104916 0.149250 0.951349
Si Si5 0.500000 0.747149 0.250000
Si Si6 0.407716 0.977736 0.142398
Si Si7 0.838960 0.662128 0.519732
O O1 0.227195 0.871814 0.542782
O O2 0.237651 0.840614 0.875235
O O3 0.114701 0.958901 0.740666
O O4 0.346379 0.953900 0.733441
O O5 0.464418 0.574834 0.607677
O O6 0.396367 0.709507 0.695070
O O7 0.546645 0.818735 0.601528
O O8 0.039214 0.192905 0.100673
O O9 0.614570 0.793285 0.321174
O O10 0.500000 0.932298 0.250000
O O11 0.309461 0.919984 0.087106
O O12 0.500000 0.000000 0.000000
#
# Coordination Sequence:
#
# PCOD9296297 Si02
#       7
#     8   4   4   8   4   8   8
#     4  12  25  43  78 108 141 191 238 306 363 424
#     4  11  25  50  74 106 147 187 246 298 362 433
#     4   9  22  46  70  98 146 191 240 292 348 435
#     4  10  23  44  71 102 143 192 242 291 355 434
#     4  10  23  44  72 102 149 192 242 296 350 438
#     4  12  24  43  70 107 142 179 233 298 366 421
#     4  11  22  42  70 105 139 188 237 296 360 423
#
# _framework density 27.209681
#
# number of rings (size 3 to 8) (size 9 to 14) (size 15 to 20)
#    0.000    1.091    2.727    3.273    0.000    2.909 
#    0.000    3.636    0.000    0.000    0.000    0.000 
#    0.000    0.000    0.000    0.000    0.000    0.000 
#
# Total GULP energy -122548.204741 kJ/mol
# GULP energy per Si atom -5570.372943 kJ/mol
# Density = 2.714775 g / cm^3
# Si number density = 27.209681 Si / 1000 Ang^3
#
#
#
# Elastic Constant Matrix: (Units=GPa)
#
#
# Indices 1 2 3 4 5 6 
#
# 1 94.9275 44.1337 30.8500 0.0000 24.6576 0.0000
# 2 44.1337 137.0166 54.5401 0.0000 24.3059 0.0000
# 3 30.8500 54.5401 132.8149 0.0000 50.6143 0.0000
# 4 0.0000 0.0000 0.0000 -37.7236 0.0000 8.6557
# 5 24.6576 24.3059 50.6143 0.0000 44.1036 0.0000
# 6 0.0000 0.0000 0.0000 8.6557 0.0000 42.0534
#
#
#
# Elastic Compliance Matrix: (Units=1/GPa)
#
#
# Indices 1 2 3 4 5 6 
#
# 1 0.013632 -0.003540 0.000797 0.000000 -0.006585 0.000000
# 2 -0.003540 0.009682 -0.003331 0.000000 0.000466 0.000000
# 3 0.000797 -0.003331 0.014542 0.000000 -0.015299 0.000000
# 4 0.000000 0.000000 0.000000 -0.025313 0.000000 0.005210
# 5 -0.006585 0.000466 -0.015299 0.000000 0.043655 0.000000
# 6 0.000000 0.000000 0.000000 0.005210 0.000000 0.022707
#
#
# Mechanical properties :
#
#
# Convention : Reuss Voigt Hill
#
# Bulk Modulus (GPa) = 38.90039 69.31184 54.10612
# Shear Modulus (GPa) = 50.18924 25.36901 37.77913
#
# Velocity S-wave (km/s) = 4.29947 3.05676 3.73023
# Velocity P-wave (km/s) = 6.24298 6.16335 6.20329
#
# Compressibility (1/GPa) = 0.02570668
#
# Stress axis : x y z
#
# Youngs Moduli (GPa) = 73.35919 103.28537 68.76447
#
# Poissons Ratio (x) = 0.36561 -0.05478
# Poissons Ratio (y) = 0.25968 0.22908
# Poissons Ratio (z) = -0.05844 0.34408
#
# Static dielectric constant tensor:
#      x y z
#    x 2.167160 0.000000 0.070780 
#    y 0.000000 2.124770 0.000000 
#    z 0.070780 0.000000 2.132450 
# 
# From -- ./inp_files/30984.got.cif
#   From: 2010.05.17/outbox.cif.g08.bks.cpg/sg15_16_cif.got.tgz:30984.got - 2010.06.03 18:47:42.
