data_PCOD9296099
_publ_section_title
;
Structure prediction by ZEFSAII (Michael W. Deem and Ramdas Pophale) SiO2 
 PCOD9296099
Probable space group: C 2/C
;
_chemical_formula_sum "Si O2"
_cell_formula_units_Z 56
_cell_length_a 9.066899
_cell_length_b 11.039394
_cell_length_c 29.727914
_cell_angle_alpha 90.000000
_cell_angle_beta 121.204615
_cell_angle_gamma 90.000000
_cell_volume 2545.061964
_symmetry_space_group_name_H-M "C 2/C"
_symmetry_group_IT_number 15
_symmetry_cell_setting 'monoclinic'
loop_
_space_group_symop_operation_xyz
x,y,z
-x,y,1/2-z
-x,-y,-z
x,-y,1/2+z
1/2+x,1/2+y,z
1/2-x,1/2+y,1/2-z
1/2-x,1/2-y,-z
1/2+x,1/2-y,1/2+z
loop_
_atom_site_type_symbol
_atom_site_label
_atom_site_fract_x
_atom_site_fract_y
_atom_site_fract_z
Si Si1 0.877959 0.609331 0.839550
Si Si2 0.337551 0.154087 0.191515
Si Si3 0.922074 0.341434 0.854673
Si Si4 0.455763 0.798399 0.051905
Si Si5 0.864071 0.936236 0.510628
Si Si6 0.107424 0.352958 0.980688
Si Si7 0.159300 0.617804 0.810582
O O1 0.765551 0.726611 0.808943
O O2 0.827078 0.468414 0.825893
O O3 0.909175 0.631440 0.896932
O O4 0.059192 0.620022 0.842181
O O5 0.500000 0.146242 0.250000
O O6 0.416745 0.172012 0.154083
O O7 0.259529 0.017524 0.181902
O O8 0.796827 0.225996 0.830139
O O9 0.998786 0.355627 0.917287
O O10 0.462489 0.653761 0.059853
O O11 0.266947 0.845476 0.035404
O O12 0.495675 0.826513 0.006644
O O13 0.727625 0.030674 0.507793
O O14 0.000000 0.000000 0.500000
O O15 0.250000 0.250000 0.000000
O O16 0.000000 0.631725 0.750000
#
# Coordination Sequence:
#
# PCOD9296099 Si02
#       7
#     8   8   8   8   8   8   8
#     4  11  24  41  67  94 130 167 216 265 319 387
#     4  10  23  44  67  94 127 165 212 268 325 386
#     4  11  25  41  65  95 131 166 214 268 319 385
#     4  11  25  40  63  91 129 173 210 262 316 373
#     4  11  24  41  63  87 126 170 217 258 309 368
#     4  12  24  41  62  92 133 171 211 259 314 378
#     4  10  24  44  68  96 127 165 214 272 327 383
#
# _framework density 22.003394
#
# number of rings (size 3 to 8) (size 9 to 14) (size 15 to 20)
#    0.000    1.143    2.857    2.143    4.000    2.857 
#    0.000    0.000    0.000    0.000    0.000    0.000 
#    0.000    0.000    0.000    0.000    0.000    0.000 
#
# Total GULP energy -156201.661249 kJ/mol
# GULP energy per Si atom -5578.630759 kJ/mol
# Density = 2.195331 g / cm^3
# Si number density = 22.003394 Si / 1000 Ang^3
#
#
#
# Elastic Constant Matrix: (Units=GPa)
#
#
# Indices 1 2 3 4 5 6 
#
# 1 75.4143 57.1432 9.3413 0.0000 5.1037 0.0000
# 2 57.1432 210.1139 2.9937 0.0000 27.9157 0.0000
# 3 9.3413 2.9937 44.7291 0.0000 -13.9666 0.0000
# 4 0.0000 0.0000 0.0000 27.2173 0.0000 15.9924
# 5 5.1037 27.9157 -13.9666 0.0000 24.5645 0.0000
# 6 0.0000 0.0000 0.0000 15.9924 0.0000 51.8558
#
#
#
# Elastic Compliance Matrix: (Units=1/GPa)
#
#
# Indices 1 2 3 4 5 6 
#
# 1 0.017170 -0.004586 -0.003362 0.000000 -0.000267 0.000000
# 2 -0.004586 0.007152 -0.002142 0.000000 -0.008393 0.000000
# 3 -0.003362 -0.002142 0.029400 0.000000 0.019848 0.000000
# 4 0.000000 0.000000 0.000000 0.044873 0.000000 -0.013839
# 5 -0.000267 -0.008393 0.019848 0.000000 0.061587 0.000000
# 6 0.000000 0.000000 0.000000 -0.013839 0.000000 0.023552
#
#
# Mechanical properties :
#
#
# Convention : Reuss Voigt Hill
#
# Bulk Modulus (GPa) = 29.81337 52.13484 40.97411
# Shear Modulus (GPa) = 23.24565 38.11279 30.67922
#
# Velocity S-wave (km/s) = 3.25385 4.16640 3.73808
# Velocity P-wave (km/s) = 5.26266 6.84768 6.10681
#
# Compressibility (1/GPa) = 0.03354200
#
# Stress axis : x y z
#
# Youngs Moduli (GPa) = 58.24245 139.81861 34.01379
#
# Poissons Ratio (x) = 0.64122 0.11436
# Poissons Ratio (y) = 0.26711 0.07284
# Poissons Ratio (z) = 0.19582 0.29942
#
# Static dielectric constant tensor:
#      x y z
#    x 1.820860 0.000000 -0.011050 
#    y 0.000000 2.739990 0.000000 
#    z -0.011050 0.000000 2.088100 
# 
# From -- ./inp_files/307564.got.cif
#   From: 2010.05.17/outbox.cif.g08.bks.cpg/sg15_154_cif.got.tgz:307564.got - 2010.06.03 18:47:42.
