data_PCOD9296729
_publ_section_title
;
Structure prediction by ZEFSAII (Michael W. Deem and Ramdas Pophale) SiO2 
 PCOD9296729
Probable space group: C 2/C
;
_chemical_formula_sum "Si O2"
_cell_formula_units_Z 28
_cell_length_a 8.966602
_cell_length_b 25.383725
_cell_length_c 4.642589
_cell_angle_alpha 90.000000
_cell_angle_beta 90.447676
_cell_angle_gamma 90.000000
_cell_volume 1056.647740
_symmetry_space_group_name_H-M "C 2/C"
_symmetry_group_IT_number 15
_symmetry_cell_setting 'monoclinic'
loop_
_space_group_symop_operation_xyz
x,y,z
-x,y,1/2-z
-x,-y,-z
x,-y,1/2+z
1/2+x,1/2+y,z
1/2-x,1/2+y,1/2-z
1/2-x,1/2-y,-z
1/2+x,1/2-y,1/2+z
loop_
_atom_site_type_symbol
_atom_site_label
_atom_site_fract_x
_atom_site_fract_y
_atom_site_fract_z
Si Si1 0.677870 0.966284 0.787258
Si Si2 0.104948 0.116532 0.024324
Si Si3 0.795297 0.298040 0.790334
Si Si4 0.500000 0.188073 0.750000
O O1 0.500000 0.961244 0.750000
O O2 0.743654 0.916452 0.952872
O O3 0.725510 0.982160 0.469844
O O4 0.155476 0.172180 0.156278
O O5 0.000000 0.087043 0.250000
O O6 0.000000 0.123277 0.750000
O O7 0.599517 0.214027 0.488072
O O8 0.750000 0.250000 0.000000
O O9 0.877838 0.336246 0.029710
#
# Coordination Sequence:
#
# PCOD9296729 Si02
#       4
#     8   8   8   4
#     4  10  23  45  74 113 153 197 252 312 377 468
#     4  12  27  46  75 113 154 205 250 323 395 470
#     4  11  25  48  74 107 151 200 264 329 389 467
#     4  10  24  44  76 104 130 212 256 326 376 456
#
# _framework density 26.498895999999998
#
# number of rings (size 3 to 8) (size 9 to 14) (size 15 to 20)
#    0.000    1.143    0.000    4.286    6.000    3.429 
#    5.143    0.000    0.000    0.000    0.000    0.000 
#    0.000    0.000    0.000    0.000    0.000    0.000 
#
# Total GULP energy -77992.021439 kJ/mol
# GULP energy per Si atom -5570.858674 kJ/mol
# Density = 2.643858 g / cm^3
# Si number density = 26.498896 Si / 1000 Ang^3
#
#
#
# Elastic Constant Matrix: (Units=GPa)
#
#
# Indices 1 2 3 4 5 6 
#
# 1 109.2130 41.7325 96.8015 0.0000 34.5481 0.0000
# 2 41.7325 91.9983 62.2996 0.0000 29.6276 0.0000
# 3 96.8015 62.2996 276.8552 0.0000 44.9935 0.0000
# 4 0.0000 0.0000 0.0000 96.7205 0.0000 21.8009
# 5 34.5481 29.6276 44.9935 0.0000 85.7877 0.0000
# 6 0.0000 0.0000 0.0000 21.8009 0.0000 19.9812
#
#
#
# Elastic Compliance Matrix: (Units=1/GPa)
#
#
# Indices 1 2 3 4 5 6 
#
# 1 0.014779 -0.003086 -0.004022 0.000000 -0.002776 0.000000
# 2 -0.003086 0.014318 -0.001685 0.000000 -0.002818 0.000000
# 3 -0.004022 -0.001685 0.005509 0.000000 -0.000688 0.000000
# 4 0.000000 0.000000 0.000000 0.013711 0.000000 -0.014960
# 5 -0.002776 -0.002818 -0.000688 0.000000 0.014109 0.000000
# 6 0.000000 0.000000 0.000000 -0.014960 0.000000 0.066369
#
#
# Mechanical properties :
#
#
# Convention : Reuss Voigt Hill
#
# Bulk Modulus (GPa) = 58.75279 97.74820 78.25049
# Shear Modulus (GPa) = 32.88303 58.98009 45.93156
#
# Velocity S-wave (km/s) = 3.52649 4.72291 4.16786
# Velocity P-wave (km/s) = 6.22908 8.16755 7.26328
#
# Compressibility (1/GPa) = 0.01702047
#
# Stress axis : x y z
#
# Youngs Moduli (GPa) = 67.66527 69.84008 181.51958
#
# Poissons Ratio (x) = 0.21556 0.72999
# Poissons Ratio (y) = 0.20885 0.30583
# Poissons Ratio (z) = 0.27212 0.11767
#
# Static dielectric constant tensor:
#      x y z
#    x 2.397240 0.000000 -0.064310 
#    y 0.000000 2.139080 0.000000 
#    z -0.064310 0.000000 2.049440 
# 
# From -- ./inp_files/2056.got.cif
#   From: 2010.05.17/outbox.cif.g08.bks.cpg/sg15_2_cif.got.tgz:2056.got - 2010.06.03 18:47:42.
