data_PCOD9296167
_publ_section_title
;
Structure prediction by ZEFSAII (Michael W. Deem and Ramdas Pophale) SiO2 
 PCOD9296167
Probable space group: C 2/C
;
_chemical_formula_sum "Si O2"
_cell_formula_units_Z 48
_cell_length_a 21.487450
_cell_length_b 8.561043
_cell_length_c 12.849879
_cell_angle_alpha 90.000000
_cell_angle_beta 72.566316
_cell_angle_gamma 90.000000
_cell_volume 2255.216642
_symmetry_space_group_name_H-M "C 2/C"
_symmetry_group_IT_number 15
_symmetry_cell_setting 'monoclinic'
loop_
_space_group_symop_operation_xyz
x,y,z
-x,y,1/2-z
-x,-y,-z
x,-y,1/2+z
1/2+x,1/2+y,z
1/2-x,1/2+y,1/2-z
1/2-x,1/2-y,-z
1/2+x,1/2-y,1/2+z
loop_
_atom_site_type_symbol
_atom_site_label
_atom_site_fract_x
_atom_site_fract_y
_atom_site_fract_z
Si Si1 0.000000 0.691253 0.250000
Si Si2 0.035981 0.944366 0.381108
Si Si3 0.391567 0.950761 0.332329
Si Si4 0.000000 0.785839 0.750000
Si Si5 0.329741 0.397666 0.265117
Si Si6 0.806968 0.754550 0.720501
Si Si7 0.172268 0.729211 0.025349
O O1 0.006021 0.806412 0.149760
O O2 0.938831 0.580893 0.259055
O O3 0.109939 0.883900 0.344604
O O4 0.037460 0.097387 0.307336
O O5 0.000000 0.000000 0.500000
O O6 0.445363 0.819118 0.335554
O O7 0.343128 0.871619 0.274610
O O8 0.351897 0.052907 0.436553
O O9 0.267527 0.297376 0.261577
O O10 0.308646 0.577828 0.274418
O O11 0.352173 0.341917 0.368916
O O12 0.840599 0.766115 0.589104
O O13 0.250000 0.750000 0.000000
#
# Coordination Sequence:
#
# PCOD9296167 Si02
#       7
#     4   8   8   4   8   8   8
#     4  10  24  40  70  88 142 172 222 280 328 392
#     4  11  24  44  70  95 130 183 228 277 339 402
#     4  11  22  44  65  98 136 173 222 283 328 411
#     4  10  24  44  60  98 136 172 226 282 322 406
#     4  11  23  45  68  98 136 171 233 286 334 410
#     4  11  24  43  71  98 136 175 224 283 346 403
#     4  10  23  44  68  97 133 177 221 281 345 397
#
# _framework density 21.283985999999999
#
# number of rings (size 3 to 8) (size 9 to 14) (size 15 to 20)
#    0.000    1.333    3.333    2.000    2.333    1.333 
#    3.000    7.500    0.000    0.000    0.000    0.000 
#    0.000    0.000    0.000    0.000    0.000    0.000 
#
# Total GULP energy -133904.682974 kJ/mol
# GULP energy per Si atom -5579.361791 kJ/mol
# Density = 2.123554 g / cm^3
# Si number density = 21.283986 Si / 1000 Ang^3
#
#
#
# Elastic Constant Matrix: (Units=GPa)
#
#
# Indices 1 2 3 4 5 6 
#
# 1 108.6325 27.3033 10.3971 0.0000 -14.8698 0.0000
# 2 27.3033 110.2386 12.2852 0.0000 3.2478 0.0000
# 3 10.3971 12.2852 51.8158 0.0000 -10.7574 0.0000
# 4 0.0000 0.0000 0.0000 10.0327 0.0000 1.6623
# 5 -14.8698 3.2478 -10.7574 0.0000 29.5203 0.0000
# 6 0.0000 0.0000 0.0000 1.6623 0.0000 45.8827
#
#
#
# Elastic Compliance Matrix: (Units=1/GPa)
#
#
# Indices 1 2 3 4 5 6 
#
# 1 0.010698 -0.002777 -0.000331 0.000000 0.005574 0.000000
# 2 -0.002777 0.010146 -0.002565 0.000000 -0.003450 0.000000
# 3 -0.000331 -0.002565 0.021634 0.000000 0.007999 0.000000
# 4 0.000000 0.000000 0.000000 0.100276 0.000000 -0.003633
# 5 0.005574 -0.003450 0.007999 0.000000 0.039977 0.000000
# 6 0.000000 0.000000 0.000000 -0.003633 0.000000 0.021926
#
#
# Mechanical properties :
#
#
# Convention : Reuss Voigt Hill
#
# Bulk Modulus (GPa) = 32.11987 41.18424 36.65206
# Shear Modulus (GPa) = 22.08664 31.80056 26.94360
#
# Velocity S-wave (km/s) = 3.22485 3.86956 3.56182
# Velocity P-wave (km/s) = 5.38424 6.27348 5.84579
#
# Compressibility (1/GPa) = 0.03113337
#
# Stress axis : x y z
#
# Youngs Moduli (GPa) = 93.47636 98.55667 46.22290
#
# Poissons Ratio (x) = 0.27368 0.01530
# Poissons Ratio (y) = 0.25958 0.11854
# Poissons Ratio (z) = 0.03095 0.25276
#
# Static dielectric constant tensor:
#      x y z
#    x 1.828850 0.000000 -0.036090 
#    y 0.000000 1.772230 0.000000 
#    z -0.036090 0.000000 1.783180 
# 
# From -- ./inp_files/116328.got.cif
#   From: 2010.05.17/outbox.cif.g08.bks.cpg/sg15_59_cif.got.tgz:116328.got - 2010.06.03 18:47:42.
