data_PCOD9296112
_publ_section_title
;
Structure prediction by ZEFSAII (Michael W. Deem and Ramdas Pophale) SiO2 
 PCOD9296112
Probable space group: C 2/C
;
_chemical_formula_sum "Si O2"
_cell_formula_units_Z 32
_cell_length_a 5.249788
_cell_length_b 32.696394
_cell_length_c 8.066611
_cell_angle_alpha 90.000000
_cell_angle_beta 69.563541
_cell_angle_gamma 90.000000
_cell_volume 1297.478394
_symmetry_space_group_name_H-M "C 2/C"
_symmetry_group_IT_number 15
_symmetry_cell_setting 'monoclinic'
loop_
_space_group_symop_operation_xyz
x,y,z
-x,y,1/2-z
-x,-y,-z
x,-y,1/2+z
1/2+x,1/2+y,z
1/2-x,1/2+y,1/2-z
1/2-x,1/2-y,-z
1/2+x,1/2-y,1/2+z
loop_
_atom_site_type_symbol
_atom_site_label
_atom_site_fract_x
_atom_site_fract_y
_atom_site_fract_z
Si Si1 0.000000 0.906474 0.250000
Si Si2 0.500000 0.715742 0.250000
Si Si3 0.500000 0.103506 0.250000
Si Si4 0.025033 0.547051 0.947127
Si Si5 0.016308 0.157978 0.507850
Si Si6 0.500000 0.271274 0.250000
O O1 0.830050 0.936641 0.401282
O O2 0.144431 0.874059 0.340266
O O3 0.358438 0.683252 0.406728
O O4 0.747476 0.744234 0.249357
O O5 0.614138 0.075343 0.378345
O O6 0.263315 0.132396 0.375588
O O7 0.000000 0.551434 0.750000
O O8 0.000000 0.500000 0.000000
O O9 0.119007 0.196572 0.590504
#
# Coordination Sequence:
#
# PCOD9296112 Si02
#       6
#     4   4   4   8   8   4
#     4   9  24  46  64 100 140 182 236 286 356 432
#     4  12  24  42  73 105 141 190 243 301 365 430
#     4  10  23  46  67 103 142 182 244 287 365 434
#     4  11  23  44  71 101 140 183 232 295 354 432
#     4  10  23  44  67  98 139 187 233 298 357 430
#     4  11  25  46  68 102 143 190 241 302 362 432
#
# _framework density 24.663222000000001
#
# number of rings (size 3 to 8) (size 9 to 14) (size 15 to 20)
#    0.000    1.500    1.250    2.250    3.500    3.000 
#   15.750    0.000    0.000    0.000    0.000    0.000 
#    0.000    0.000    0.000    0.000    0.000    0.000 
#
# Total GULP energy -89076.476483 kJ/mol
# GULP energy per Si atom -5567.279780 kJ/mol
# Density = 2.460709 g / cm^3
# Si number density = 24.663222 Si / 1000 Ang^3
#
#
#
# Elastic Constant Matrix: (Units=GPa)
#
#
# Indices 1 2 3 4 5 6 
#
# 1 70.0599 65.1908 23.4813 0.0000 0.1549 0.0000
# 2 65.1908 233.7384 90.6653 0.0000 9.1409 0.0000
# 3 23.4813 90.6653 127.2267 0.0000 16.1432 0.0000
# 4 0.0000 0.0000 0.0000 90.0461 0.0000 6.2010
# 5 0.1549 9.1409 16.1432 0.0000 39.6065 0.0000
# 6 0.0000 0.0000 0.0000 6.2010 0.0000 25.6290
#
#
#
# Elastic Compliance Matrix: (Units=1/GPa)
#
#
# Indices 1 2 3 4 5 6 
#
# 1 0.019335 -0.005524 0.000228 0.000000 0.001106 0.000000
# 2 -0.005524 0.007496 -0.004330 0.000000 0.000056 0.000000
# 3 0.000228 -0.004330 0.011364 0.000000 -0.003634 0.000000
# 4 0.000000 0.000000 0.000000 0.011294 0.000000 -0.002733
# 5 0.001106 0.000056 -0.003634 0.000000 0.026712 0.000000
# 6 0.000000 0.000000 0.000000 -0.002733 0.000000 0.039679
#
#
# Mechanical properties :
#
#
# Convention : Reuss Voigt Hill
#
# Bulk Modulus (GPa) = 52.78829 87.74442 70.26636
# Shear Modulus (GPa) = 35.34882 47.83550 41.59216
#
# Velocity S-wave (km/s) = 3.78995 4.40881 4.11104
# Velocity P-wave (km/s) = 6.37195 7.84672 7.14747
#
# Compressibility (1/GPa) = 0.01894360
#
# Stress axis : x y z
#
# Youngs Moduli (GPa) = 51.71958 133.39989 87.99418
#
# Poissons Ratio (x) = 0.73694 -0.02005
# Poissons Ratio (y) = 0.28571 0.38098
# Poissons Ratio (z) = -0.01178 0.57757
#
# Static dielectric constant tensor:
#      x y z
#    x 2.034350 0.000000 0.119260 
#    y 0.000000 1.866420 0.000000 
#    z 0.119260 0.000000 2.306330 
# 
# From -- ./inp_files/20203.got.cif
#   From: 2010.05.17/outbox.cif.g08.bks.cpg/sg15_11_cif.got.tgz:20203.got - 2010.06.03 18:47:42.
