data_PCOD9296399
_publ_section_title
;
Structure prediction by ZEFSAII (Michael W. Deem and Ramdas Pophale) SiO2 
 PCOD9296399
Probable space group: C 2/C
;
_chemical_formula_sum "Si O2"
_cell_formula_units_Z 56
_cell_length_a 18.232643
_cell_length_b 4.951369
_cell_length_c 25.443614
_cell_angle_alpha 90.000000
_cell_angle_beta 118.971484
_cell_angle_gamma 90.000000
_cell_volume 2009.521796
_symmetry_space_group_name_H-M "C 2/C"
_symmetry_group_IT_number 15
_symmetry_cell_setting 'monoclinic'
loop_
_space_group_symop_operation_xyz
x,y,z
-x,y,1/2-z
-x,-y,-z
x,-y,1/2+z
1/2+x,1/2+y,z
1/2-x,1/2+y,1/2-z
1/2-x,1/2-y,-z
1/2+x,1/2-y,1/2+z
loop_
_atom_site_type_symbol
_atom_site_label
_atom_site_fract_x
_atom_site_fract_y
_atom_site_fract_z
Si Si1 0.761693 0.164859 0.592260
Si Si2 0.250000 0.250000 0.500000
Si Si3 0.905596 0.411389 0.918478
Si Si4 0.000000 0.633179 0.250000
Si Si5 0.439564 0.686792 0.034416
Si Si6 0.451924 0.412576 0.342492
Si Si7 0.328117 0.154451 0.661087
Si Si8 0.216941 0.108431 0.213636
O O1 0.768324 0.027524 0.539176
O O2 0.671408 0.092856 0.587190
O O3 0.823924 0.970753 0.647987
O O4 0.788005 0.479726 0.598327
O O5 0.351003 0.215489 0.523186
O O6 0.989194 0.586065 0.943500
O O7 0.895517 0.292783 0.857138
O O8 0.920109 0.159896 0.964488
O O9 0.079973 0.449025 0.293235
O O10 0.021439 0.804886 0.204871
O O11 0.473954 0.483089 0.091029
O O12 0.382988 0.649370 0.315413
O O13 0.262610 0.041429 0.681030
O O14 0.261157 0.394834 0.233482
#
# Coordination Sequence:
#
# PCOD9296399 Si02
#       8
#     8   4   8   4   8   8   8   8
#     4  11  25  47  76 105 147 193 250 306 377 445
#     4  10  24  48  70 110 148 194 240 310 386 456
#     4  10  23  44  73 109 134 189 250 311 369 451
#     4  12  30  44  68 110 154 194 256 304 386 446
#     4  10  23  45  72 104 145 186 249 309 379 447
#     4  12  25  45  72 103 147 196 246 311 372 451
#     4  12  26  48  70 106 145 199 245 309 367 451
#     4  12  26  48  76 107 143 197 256 307 366 443
#
# _framework density 27.867325000000001
#
# number of rings (size 3 to 8) (size 9 to 14) (size 15 to 20)
#    0.000    0.857    2.857    3.000    4.000    1.143 
#    7.714    0.000    0.000    0.000    0.000    0.000 
#    0.000    0.000    0.000    0.000    0.000    0.000 
#
# Total GULP energy -156363.133347 kJ/mol
# GULP energy per Si atom -5584.397620 kJ/mol
# Density = 2.780390 g / cm^3
# Si number density = 27.867325 Si / 1000 Ang^3
#
#
#
# Elastic Constant Matrix: (Units=GPa)
#
#
# Indices 1 2 3 4 5 6 
#
# 1 165.0798 12.8007 61.0435 -0.0003 12.2166 -0.0002
# 2 12.8007 98.4522 25.7929 -0.0006 1.6732 -0.0003
# 3 61.0435 25.7929 96.5562 -0.0001 -4.9164 -0.0001
# 4 -0.0003 -0.0006 -0.0001 45.6642 -0.0002 11.1228
# 5 12.2166 1.6732 -4.9164 -0.0002 75.3582 0.0001
# 6 -0.0002 -0.0003 -0.0001 11.1228 0.0001 31.0311
#
#
#
# Elastic Compliance Matrix: (Units=1/GPa)
#
#
# Indices 1 2 3 4 5 6 
#
# 1 0.008118 0.000365 -0.005315 0.000000 -0.001671 0.000000
# 2 0.000365 0.010952 -0.003183 0.000000 -0.000510 0.000000
# 3 -0.005315 -0.003183 0.014663 0.000000 0.001889 0.000000
# 4 0.000000 0.000000 0.000000 0.023994 0.000000 -0.008600
# 5 -0.001671 -0.000510 0.001889 0.000000 0.013675 0.000000
# 6 0.000000 0.000000 0.000000 -0.008600 0.000000 0.035309
#
#
# Mechanical properties :
#
#
# Convention : Reuss Voigt Hill
#
# Bulk Modulus (GPa) = 57.24415 62.15139 59.69777
# Shear Modulus (GPa) = 38.81996 47.77409 43.29702
#
# Velocity S-wave (km/s) = 3.73638 4.14495 3.94596
# Velocity P-wave (km/s) = 6.26101 6.72745 6.49842
#
# Compressibility (1/GPa) = 0.01746903
#
# Stress axis : x y z
#
# Youngs Moduli (GPa) = 123.17564 91.30619 68.19736
#
# Poissons Ratio (x) = -0.03336 0.36249
# Poissons Ratio (y) = -0.04500 0.21704
# Poissons Ratio (z) = 0.65471 0.29059
#
# Static dielectric constant tensor:
#      x y z
#    x 2.657010 0.000030 -1.154490 
#    y 0.000030 1.915350 -0.000050 
#    z -1.154490 -0.000050 4.600600 
# 
# From -- ./inp_files/315146.got.cif
#   From: 2010.05.17/outbox.cif.g08.bks.cpg/sg15_158_cif.got.tgz:315146.got - 2010.06.03 18:47:42.
