data_PCOD9296707
_publ_section_title
;
Structure prediction by ZEFSAII (Michael W. Deem and Ramdas Pophale) SiO2 
 PCOD9296707
Probable space group: C 2/C
;
_chemical_formula_sum "Si O2"
_cell_formula_units_Z 24
_cell_length_a 19.983362
_cell_length_b 7.101920
_cell_length_c 10.233963
_cell_angle_alpha 90.000000
_cell_angle_beta 137.131054
_cell_angle_gamma 90.000000
_cell_volume 988.106592
_symmetry_space_group_name_H-M "C 2/C"
_symmetry_group_IT_number 15
_symmetry_cell_setting 'monoclinic'
loop_
_space_group_symop_operation_xyz
x,y,z
-x,y,1/2-z
-x,-y,-z
x,-y,1/2+z
1/2+x,1/2+y,z
1/2-x,1/2+y,1/2-z
1/2-x,1/2-y,-z
1/2+x,1/2-y,1/2+z
loop_
_atom_site_type_symbol
_atom_site_label
_atom_site_fract_x
_atom_site_fract_y
_atom_site_fract_z
Si Si1 0.306872 0.349619 0.919862
Si Si2 0.106837 0.954473 0.710446
Si Si3 0.613339 0.945300 0.154496
O O1 0.324110 0.480297 0.816563
O O2 0.357611 0.158162 0.940707
O O3 0.192574 0.390229 0.791034
O O4 0.368167 0.428345 0.127761
O O5 0.122602 0.732677 0.766341
O O6 0.000000 0.000000 0.500000
O O7 0.500000 0.000000 0.000000
#
# Coordination Sequence:
#
# PCOD9296707 Si02
#       3
#     8   8   8
#     4  10  24  46  73 106 153 188 248 301 367 434
#     4  10  23  45  73 106 148 194 244 301 367 437
#     4  10  25  45  75 110 148 195 245 302 370 437
#
# _framework density 24.288876999999999
#
# number of rings (size 3 to 8) (size 9 to 14) (size 15 to 20)
#    2.000    0.000    0.000    2.000    4.667    1.333 
#    6.000    0.000    0.000    0.000    0.000    0.000 
#    0.000    0.000    0.000    0.000    0.000    0.000 
#
# Total GULP energy -66903.244963 kJ/mol
# GULP energy per Si atom -5575.270414 kJ/mol
# Density = 2.423359 g / cm^3
# Si number density = 24.288877 Si / 1000 Ang^3
#
#
#
# Elastic Constant Matrix: (Units=GPa)
#
#
# Indices 1 2 3 4 5 6 
#
# 1 108.1383 54.8847 67.1873 0.0000 36.1166 0.0000
# 2 54.8847 117.0388 50.9783 0.0000 5.8819 0.0000
# 3 67.1873 50.9783 139.5624 0.0000 32.3777 0.0000
# 4 0.0000 0.0000 0.0000 19.8797 0.0000 10.2660
# 5 36.1166 5.8819 32.3777 0.0000 61.1924 0.0000
# 6 0.0000 0.0000 0.0000 10.2660 0.0000 45.0320
#
#
#
# Elastic Compliance Matrix: (Units=1/GPa)
#
#
# Indices 1 2 3 4 5 6 
#
# 1 0.017525 -0.005847 -0.004596 0.000000 -0.007350 0.000000
# 2 -0.005847 0.012180 -0.002466 0.000000 0.003585 0.000000
# 3 -0.004596 -0.002466 0.010937 0.000000 -0.002837 0.000000
# 4 0.000000 0.000000 0.000000 0.057015 0.000000 -0.012998
# 5 -0.007350 0.003585 -0.002837 0.000000 0.021836 0.000000
# 6 0.000000 0.000000 0.000000 -0.012998 0.000000 0.025170
#
#
# Mechanical properties :
#
#
# Convention : Reuss Voigt Hill
#
# Bulk Modulus (GPa) = 67.45766 78.98224 73.21995
# Shear Modulus (GPa) = 28.50263 38.00010 33.25137
#
# Velocity S-wave (km/s) = 3.42933 3.95967 3.70401
# Velocity P-wave (km/s) = 6.59650 7.31395 6.96447
#
# Compressibility (1/GPa) = 0.01482411
#
# Stress axis : x y z
#
# Youngs Moduli (GPa) = 57.05991 82.10145 91.43492
#
# Poissons Ratio (x) = 0.48006 0.42024
# Poissons Ratio (y) = 0.33364 0.22546
# Poissons Ratio (z) = 0.26225 0.20245
#
# Static dielectric constant tensor:
#      x y z
#    x 1.966350 0.000000 0.019290 
#    y 0.000000 2.219230 0.000000 
#    z 0.019290 0.000000 1.879100 
# 
# From -- ./inp_files/92939.got.cif
#   From: 2010.05.17/outbox.cif.g08.bks.cpg/sg15_47_cif.got.tgz:92939.got - 2010.06.03 18:47:42.
