data_PCOD9296400
_publ_section_title
;
Structure prediction by ZEFSAII (Michael W. Deem and Ramdas Pophale) SiO2 
 PCOD9296400
Probable space group: C 2/C
;
_chemical_formula_sum "Si O2"
_cell_formula_units_Z 36
_cell_length_a 8.498587
_cell_length_b 22.025369
_cell_length_c 7.706287
_cell_angle_alpha 90.000000
_cell_angle_beta 108.445755
_cell_angle_gamma 90.000000
_cell_volume 1368.387316
_symmetry_space_group_name_H-M "C 2/C"
_symmetry_group_IT_number 15
_symmetry_cell_setting 'monoclinic'
loop_
_space_group_symop_operation_xyz
x,y,z
-x,y,1/2-z
-x,-y,-z
x,-y,1/2+z
1/2+x,1/2+y,z
1/2-x,1/2+y,1/2-z
1/2-x,1/2-y,-z
1/2+x,1/2-y,1/2+z
loop_
_atom_site_type_symbol
_atom_site_label
_atom_site_fract_x
_atom_site_fract_y
_atom_site_fract_z
Si Si1 0.036647 0.167286 0.576134
Si Si2 0.958759 0.604457 0.935004
Si Si3 0.858244 0.729090 0.844960
Si Si4 0.174401 0.484906 0.700759
Si Si5 0.500000 0.423635 0.750000
O O1 0.194327 0.210352 0.679168
O O2 0.062738 0.120361 0.428581
O O3 0.000000 0.137123 0.750000
O O4 0.883917 0.211091 0.469198
O O5 0.908360 0.670211 0.977877
O O6 0.824246 0.550100 0.895046
O O7 0.000000 0.615366 0.750000
O O8 0.116482 0.574703 0.077281
O O9 0.000000 0.739966 0.750000
O O10 0.362616 0.466202 0.797249
O O11 0.000000 0.492720 0.750000
#
# Coordination Sequence:
#
# PCOD9296400 Si02
#       5
#     8   8   8   8   4
#     4  12  28  46  72 114 150 203 256 317 392 458
#     4   9  20  42  70 103 147 196 251 311 382 455
#     4  11  23  45  73 103 154 196 252 320 384 455
#     4  10  23  44  73 109 148 202 252 311 391 457
#     4  12  26  48  76 118 158 192 264 322 382 468
#
# _framework density 26.308340000000001
#
# number of rings (size 3 to 8) (size 9 to 14) (size 15 to 20)
#    0.000    1.333    1.111    4.000    6.222    0.889 
#    2.000   11.111    0.000    0.000    0.000    0.000 
#    0.000    0.000    0.000    0.000    0.000    0.000 
#
# Total GULP energy -100311.129130 kJ/mol
# GULP energy per Si atom -5572.840507 kJ/mol
# Density = 2.624846 g / cm^3
# Si number density = 26.308340 Si / 1000 Ang^3
#
#
#
# Elastic Constant Matrix: (Units=GPa)
#
#
# Indices 1 2 3 4 5 6 
#
# 1 142.0455 40.1073 38.3534 0.0000 2.2190 0.0000
# 2 40.1073 113.6198 1.3927 0.0000 -5.9586 0.0000
# 3 38.3534 1.3927 63.5803 0.0000 -10.7379 0.0000
# 4 0.0000 0.0000 0.0000 28.4819 0.0000 10.4763
# 5 2.2190 -5.9586 -10.7379 0.0000 37.3406 0.0000
# 6 0.0000 0.0000 0.0000 10.4763 0.0000 19.8126
#
#
#
# Elastic Compliance Matrix: (Units=1/GPa)
#
#
# Indices 1 2 3 4 5 6 
#
# 1 0.009794 -0.003535 -0.006332 0.000000 -0.002967 0.000000
# 2 -0.003535 0.010152 0.002333 0.000000 0.002501 0.000000
# 3 -0.006332 0.002333 0.020625 0.000000 0.006679 0.000000
# 4 0.000000 0.000000 0.000000 0.043587 0.000000 -0.023048
# 5 -0.002967 0.002501 0.006679 0.000000 0.029277 0.000000
# 6 0.000000 0.000000 0.000000 -0.023048 0.000000 0.062660
#
#
# Mechanical properties :
#
#
# Convention : Reuss Voigt Hill
#
# Bulk Modulus (GPa) = 39.21325 53.21694 46.21509
# Shear Modulus (GPa) = 25.04210 33.08650 29.06430
#
# Velocity S-wave (km/s) = 3.08858 3.55017 3.32739
# Velocity P-wave (km/s) = 5.25897 6.08909 5.68919
#
# Compressibility (1/GPa) = 0.02550159
#
# Stress axis : x y z
#
# Youngs Moduli (GPa) = 102.10149 98.50489 48.48580
#
# Poissons Ratio (x) = 0.34824 0.30700
# Poissons Ratio (y) = 0.36096 -0.11310
# Poissons Ratio (z) = 0.64648 -0.22977
#
# Static dielectric constant tensor:
#      x y z
#    x 2.195620 0.000000 -0.090290 
#    y 0.000000 2.100960 0.000000 
#    z -0.090290 0.000000 2.200440 
# 
# From -- ./inp_files/23840.got.cif
#   From: 2010.05.17/outbox.cif.g08.bks.cpg/sg15_12_cif.got.tgz:23840.got - 2010.06.03 18:47:42.
