data_PCOD9296618
_publ_section_title
;
Structure prediction by ZEFSAII (Michael W. Deem and Ramdas Pophale) SiO2 
 PCOD9296618
Probable space group: C 2/C
;
_chemical_formula_sum "Si O2"
_cell_formula_units_Z 60
_cell_length_a 30.013418
_cell_length_b 10.842838
_cell_length_c 8.385976
_cell_angle_alpha 90.000000
_cell_angle_beta 68.573152
_cell_angle_gamma 90.000000
_cell_volume 2540.434201
_symmetry_space_group_name_H-M "C 2/C"
_symmetry_group_IT_number 15
_symmetry_cell_setting 'monoclinic'
loop_
_space_group_symop_operation_xyz
x,y,z
-x,y,1/2-z
-x,-y,-z
x,-y,1/2+z
1/2+x,1/2+y,z
1/2-x,1/2+y,1/2-z
1/2-x,1/2-y,-z
1/2+x,1/2-y,1/2+z
loop_
_atom_site_type_symbol
_atom_site_label
_atom_site_fract_x
_atom_site_fract_y
_atom_site_fract_z
Si Si1 0.918222 0.382891 0.749376
Si Si2 0.736314 0.155031 0.747653
Si Si3 0.719989 0.575932 0.145859
Si Si4 0.112066 0.854758 0.743157
Si Si5 0.000000 0.466497 0.250000
Si Si6 0.370151 0.898433 0.141694
Si Si7 0.522619 0.378713 0.045433
Si Si8 0.947833 0.758202 0.947691
O O1 0.971285 0.442287 0.670982
O O2 0.881862 0.475100 0.712098
O O3 0.917291 0.258694 0.648501
O O4 0.906318 0.371968 0.949861
O O5 0.733692 0.306709 0.746845
O O6 0.750767 0.112182 0.550709
O O7 0.682849 0.110352 0.856075
O O8 0.768447 0.063304 0.813073
O O9 0.663147 0.580348 0.180865
O O10 0.125364 0.710635 0.737318
O O11 0.077613 0.857064 0.632996
O O12 0.079034 0.884673 0.939596
O O13 0.043208 0.376133 0.140301
O O14 0.500000 0.358368 0.250000
O O15 0.500000 0.500000 0.000000
O O16 0.500843 0.283780 0.945612
#
# Coordination Sequence:
#
# PCOD9296618 Si02
#       8
#     8   8   8   8   4   8   8   8
#     4  12  23  34  61  99 133 181 216 272 329 407
#     4  10  23  45  70 102 133 182 222 298 353 418
#     4  10  24  45  74 101 139 175 233 290 358 423
#     4  11  23  44  64  93 133 179 226 279 339 408
#     4  12  22  36  60  94 140 174 212 264 328 390
#     4  11  21  39  62  94 135 171 225 269 344 412
#     4  12  26  44  65  91 129 178 229 276 330 396
#     4  12  23  40  64  92 137 182 219 275 329 394
#
# _framework density 23.618010999999999
#
# number of rings (size 3 to 8) (size 9 to 14) (size 15 to 20)
#    0.000    0.800    4.000    2.800    2.800    4.800 
#    0.000    2.667    0.000    0.000    0.000    0.000 
#    0.000    0.000    0.000    0.000    0.000    0.000 
#
# Total GULP energy -167360.750039 kJ/mol
# GULP energy per Si atom -5578.691668 kJ/mol
# Density = 2.356426 g / cm^3
# Si number density = 23.618011 Si / 1000 Ang^3
#
#
#
# Elastic Constant Matrix: (Units=GPa)
#
#
# Indices 1 2 3 4 5 6 
#
# 1 96.1054 20.2094 27.9206 0.0000 -11.6419 0.0000
# 2 20.2094 42.2404 9.5407 0.0000 1.9591 0.0000
# 3 27.9206 9.5407 56.5790 0.0000 4.6730 0.0000
# 4 0.0000 0.0000 0.0000 22.6764 0.0000 5.1364
# 5 -11.6419 1.9591 4.6730 0.0000 30.5423 0.0000
# 6 0.0000 0.0000 0.0000 5.1364 0.0000 40.0835
#
#
#
# Elastic Compliance Matrix: (Units=1/GPa)
#
#
# Indices 1 2 3 4 5 6 
#
# 1 0.014381 -0.005685 -0.006706 0.000000 0.006872 0.000000
# 2 -0.005685 0.026886 -0.001425 0.000000 -0.003673 0.000000
# 3 -0.006706 -0.001425 0.021702 0.000000 -0.005785 0.000000
# 4 0.000000 0.000000 0.000000 0.045417 0.000000 -0.005820
# 5 0.006872 -0.003673 -0.005785 0.000000 0.036482 0.000000
# 6 0.000000 0.000000 0.000000 -0.005820 0.000000 0.025694
#
#
# Mechanical properties :
#
#
# Convention : Reuss Voigt Hill
#
# Bulk Modulus (GPa) = 28.29824 34.47402 31.38613
# Shear Modulus (GPa) = 23.81269 27.81072 25.81170
#
# Velocity S-wave (km/s) = 3.17873 3.43523 3.30946
# Velocity P-wave (km/s) = 5.04778 5.51022 5.28406
#
# Compressibility (1/GPa) = 0.03533789
#
# Stress axis : x y z
#
# Youngs Moduli (GPa) = 69.53447 37.19403 46.07920
#
# Poissons Ratio (x) = 0.21144 0.30900
# Poissons Ratio (y) = 0.39528 0.06566
# Poissons Ratio (z) = 0.46629 0.05300
#
# Static dielectric constant tensor:
#      x y z
#    x 1.994830 0.000000 0.093650 
#    y 0.000000 2.073320 0.000000 
#    z 0.093650 0.000000 1.990770 
# 
# From -- ./inp_files/69359.got.cif
#   From: 2010.05.17/outbox.cif.g08.bks.cpg/sg15_35_cif.got.tgz:69359.got - 2010.06.03 18:47:42.
