data_PCOD9296843
_publ_section_title
;
Structure prediction by ZEFSAII (Michael W. Deem and Ramdas Pophale) SiO2 
 PCOD9296843
Probable space group: C 2/C
;
_chemical_formula_sum "Si O2"
_cell_formula_units_Z 48
_cell_length_a 5.386178
_cell_length_b 23.453667
_cell_length_c 17.704332
_cell_angle_alpha 90.000000
_cell_angle_beta 99.576965
_cell_angle_gamma 90.000000
_cell_volume 2205.340568
_symmetry_space_group_name_H-M "C 2/C"
_symmetry_group_IT_number 15
_symmetry_cell_setting 'monoclinic'
loop_
_space_group_symop_operation_xyz
x,y,z
-x,y,1/2-z
-x,-y,-z
x,-y,1/2+z
1/2+x,1/2+y,z
1/2-x,1/2+y,1/2-z
1/2-x,1/2-y,-z
1/2+x,1/2-y,1/2+z
loop_
_atom_site_type_symbol
_atom_site_label
_atom_site_fract_x
_atom_site_fract_y
_atom_site_fract_z
Si Si1 0.500000 0.055126 0.750000
Si Si2 0.739288 0.389150 0.465853
Si Si3 0.447813 0.701670 0.657937
Si Si4 0.774750 0.123751 0.057952
Si Si5 0.790790 0.499383 0.380116
Si Si6 0.447058 0.733215 0.157785
Si Si7 0.500000 0.564369 0.750000
O O1 0.507291 0.016976 0.674880
O O2 0.742425 0.094163 0.756232
O O3 0.639970 0.356649 0.386298
O O4 0.507028 0.385892 0.512027
O O5 0.807030 0.454645 0.449151
O O6 0.003502 0.362171 0.506589
O O7 0.500000 0.699790 0.750000
O O8 0.207238 0.743624 0.635417
O O9 0.707907 0.724645 0.635192
O O10 0.862855 0.173635 0.117761
O O11 0.724382 0.064165 0.098070
O O12 0.545733 0.478235 0.322088
O O13 0.500000 0.727378 0.250000
#
# Coordination Sequence:
#
# PCOD9296843 Si02
#       7
#     4   8   8   8   8   8   4
#     4   8  20  36  62  90 118 170 216 268 304 362
#     4  12  27  41  67  99 138 178 209 271 329 398
#     4  10  23  46  69  96 127 170 225 276 322 382
#     4  12  27  41  67  99 138 178 209 271 329 398
#     4  10  24  42  64  98 137 169 222 261 333 383
#     4  10  23  46  69  96 127 170 225 276 322 382
#     4   8  20  36  62  90 114 174 206 274 292 374
#
# _framework density 21.765346000000001
#
# number of rings (size 3 to 8) (size 9 to 14) (size 15 to 20)
#    1.000    0.667    0.000    3.000    7.000    4.000 
#    9.000    0.000    0.000    0.000    0.000    0.000 
#    0.000    0.000    0.000    0.000    0.000    0.000 
#
# Total GULP energy -133853.984621 kJ/mol
# GULP energy per Si atom -5577.249359 kJ/mol
# Density = 2.171581 g / cm^3
# Si number density = 21.765346 Si / 1000 Ang^3
#
#
#
# Elastic Constant Matrix: (Units=GPa)
#
#
# Indices 1 2 3 4 5 6 
#
# 1 201.5561 35.0427 41.2176 0.0000 -2.8082 0.0000
# 2 35.0427 119.2466 30.7306 0.0000 14.8975 0.0000
# 3 41.2176 30.7306 46.9474 0.0000 -0.1889 0.0000
# 4 0.0000 0.0000 0.0000 21.1746 0.0000 4.2905
# 5 -2.8082 14.8975 -0.1889 0.0000 37.3640 0.0000
# 6 0.0000 0.0000 0.0000 4.2905 0.0000 28.1304
#
#
#
# Elastic Compliance Matrix: (Units=1/GPa)
#
#
# Indices 1 2 3 4 5 6 
#
# 1 0.006087 -0.000597 -0.004951 0.000000 0.000670 0.000000
# 2 -0.000597 0.010801 -0.006564 0.000000 -0.004384 0.000000
# 3 -0.004951 -0.006564 0.029953 0.000000 0.002396 0.000000
# 4 0.000000 0.000000 0.000000 0.048733 0.000000 -0.007433
# 5 0.000670 -0.004384 0.002396 0.000000 0.028574 0.000000
# 6 0.000000 0.000000 0.000000 -0.007433 0.000000 0.036682
#
#
# Mechanical properties :
#
#
# Convention : Reuss Voigt Hill
#
# Bulk Modulus (GPa) = 44.21172 64.63687 54.42430
# Shear Modulus (GPa) = 25.96176 34.71773 30.33975
#
# Velocity S-wave (km/s) = 3.45744 3.99819 3.73761
# Velocity P-wave (km/s) = 6.02458 7.14673 6.60951
#
# Compressibility (1/GPa) = 0.02261844
#
# Stress axis : x y z
#
# Youngs Moduli (GPa) = 164.28771 92.58817 33.38572
#
# Poissons Ratio (x) = 0.05524 0.16528
# Poissons Ratio (y) = 0.09802 0.21913
# Poissons Ratio (z) = 0.81335 0.60771
#
# Static dielectric constant tensor:
#      x y z
#    x 1.808260 0.000000 0.041120 
#    y 0.000000 1.745420 0.000000 
#    z 0.041120 0.000000 1.805570 
# 
# From -- ./inp_files/185327.got.cif
#   From: 2010.05.17/outbox.cif.g08.bks.cpg/sg15_93_cif.got.tgz:185327.got - 2010.06.03 18:47:42.
