data_PCOD9296391
_publ_section_title
;
Structure prediction by ZEFSAII (Michael W. Deem and Ramdas Pophale) SiO2 
 PCOD9296391
Probable space group: C 2/C
;
_chemical_formula_sum "Si O2"
_cell_formula_units_Z 40
_cell_length_a 5.382756
_cell_length_b 24.153243
_cell_length_c 10.677698
_cell_angle_alpha 90.000000
_cell_angle_beta 97.657648
_cell_angle_gamma 90.000000
_cell_volume 1375.838167
_symmetry_space_group_name_H-M "C 2/C"
_symmetry_group_IT_number 15
_symmetry_cell_setting 'monoclinic'
loop_
_space_group_symop_operation_xyz
x,y,z
-x,y,1/2-z
-x,-y,-z
x,-y,1/2+z
1/2+x,1/2+y,z
1/2-x,1/2+y,1/2-z
1/2-x,1/2-y,-z
1/2+x,1/2-y,1/2+z
loop_
_atom_site_type_symbol
_atom_site_label
_atom_site_fract_x
_atom_site_fract_y
_atom_site_fract_z
Si Si1 0.727575 0.783412 0.812387
Si Si2 0.210259 0.185435 0.436298
Si Si3 0.572951 0.332845 0.403247
Si Si4 0.333307 0.944518 0.363661
Si Si5 0.666321 0.064503 0.135121
O O1 0.575338 0.800192 0.661500
O O2 0.695453 0.717900 0.839696
O O3 0.000000 0.786185 0.750000
O O4 0.869825 0.813622 0.943985
O O5 0.250000 0.250000 0.500000
O O6 0.219024 0.161580 0.584017
O O7 0.181133 0.120440 0.373424
O O8 0.667456 0.390192 0.363218
O O9 0.500000 0.944614 0.250000
O O10 0.486696 0.939961 0.503163
O O11 0.200231 0.004794 0.355950
O O12 0.500000 0.070392 0.250000
#
# Coordination Sequence:
#
# PCOD9296391 Si02
#       5
#     8   8   8   8   8
#     4  10  25  44  64 100 138 179 230 283 342 407
#     4  11  24  43  70 102 132 185 229 287 341 414
#     4  11  25  44  65  99 142 185 236 284 349 420
#     4  10  23  44  73 104 143 188 225 296 355 410
#     4  10  23  45  74 107 143 181 238 289 351 419
#
# _framework density 29.07319
#
# number of rings (size 3 to 8) (size 9 to 14) (size 15 to 20)
#    0.000    1.600    0.000    2.400   11.200    4.000 
#    3.600    0.000    0.000    0.000    0.000    0.000 
#    0.000    0.000    0.000    0.000    0.000    0.000 
#
# Total GULP energy -111341.604612 kJ/mol
# GULP energy per Si atom -5567.080231 kJ/mol
# Density = 2.900702 g / cm^3
# Si number density = 29.073190 Si / 1000 Ang^3
#
#
#
# Elastic Constant Matrix: (Units=GPa)
#
#
# Indices 1 2 3 4 5 6 
#
# 1 186.6768 72.9292 72.4560 0.0000 14.6790 0.0000
# 2 72.9292 365.5917 74.2574 0.0000 -35.4380 0.0000
# 3 72.4560 74.2574 277.7666 0.0000 -22.8114 0.0000
# 4 0.0000 0.0000 0.0000 61.5456 0.0000 -35.9208
# 5 14.6790 -35.4380 -22.8114 0.0000 71.7937 0.0000
# 6 0.0000 0.0000 0.0000 -35.9208 0.0000 14.9811
#
#
#
# Elastic Compliance Matrix: (Units=1/GPa)
#
#
# Indices 1 2 3 4 5 6 
#
# 1 0.006663 -0.001243 -0.001610 0.000000 -0.002488 0.000000
# 2 -0.001243 0.003231 -0.000398 0.000000 0.001723 0.000000
# 3 -0.001610 -0.000398 0.004248 0.000000 0.001483 0.000000
# 4 0.000000 0.000000 0.000000 -0.040679 0.000000 -0.097536
# 5 -0.002488 0.001723 0.001483 0.000000 0.015759 0.000000
# 6 0.000000 0.000000 0.000000 -0.097536 0.000000 -0.167116
#
#
# Mechanical properties :
#
#
# Convention : Reuss Voigt Hill
#
# Bulk Modulus (GPa) = 130.89191 141.03558 135.96375
# Shear Modulus (GPa) = -29.61310 70.35693 20.37192
#
# Velocity S-wave (km/s) = -3.19497 4.92468 2.64997
# Velocity P-wave (km/s) = 5.61327 8.99736 7.49871
#
# Compressibility (1/GPa) = 0.00763989
#
# Stress axis : x y z
#
# Youngs Moduli (GPa) = 150.08106 309.48921 235.38985
#
# Poissons Ratio (x) = 0.38478 0.37898
# Poissons Ratio (y) = 0.18659 0.09369
# Poissons Ratio (z) = 0.24163 0.12318
#
# Static dielectric constant tensor:
#      x y z
#    x 5.527280 0.000000 3.479870 
#    y 0.000000 2.147850 0.000000 
#    z 3.479870 0.000000 5.908350 
# 
# From -- ./inp_files/29086.got.cif
#   From: 2010.05.17/outbox.cif.g08.bks.cpg/sg15_15_cif.got.tgz:29086.got - 2010.06.03 18:47:42.
