data_PCOD9296456
_publ_section_title
;
Structure prediction by ZEFSAII (Michael W. Deem and Ramdas Pophale) SiO2 
 PCOD9296456
Probable space group: C 2/C
;
_chemical_formula_sum "Si O2"
_cell_formula_units_Z 40
_cell_length_a 11.765759
_cell_length_b 7.799499
_cell_length_c 24.727788
_cell_angle_alpha 90.000000
_cell_angle_beta 56.342140
_cell_angle_gamma 90.000000
_cell_volume 1888.792092
_symmetry_space_group_name_H-M "C 2/C"
_symmetry_group_IT_number 15
_symmetry_cell_setting 'monoclinic'
loop_
_space_group_symop_operation_xyz
x,y,z
-x,y,1/2-z
-x,-y,-z
x,-y,1/2+z
1/2+x,1/2+y,z
1/2-x,1/2+y,1/2-z
1/2-x,1/2-y,-z
1/2+x,1/2-y,1/2+z
loop_
_atom_site_type_symbol
_atom_site_label
_atom_site_fract_x
_atom_site_fract_y
_atom_site_fract_z
Si Si1 0.623701 0.167306 0.002571
Si Si2 0.392800 0.890339 0.410234
Si Si3 0.183583 0.364008 0.359972
Si Si4 0.856967 0.555156 0.313548
Si Si5 0.682213 0.750691 0.887396
O O1 0.477785 0.254041 0.055259
O O2 0.617306 0.974313 0.028265
O O3 0.750000 0.250000 0.000000
O O4 0.653410 0.171267 0.931358
O O5 0.544064 0.815574 0.366175
O O6 0.276089 0.768850 0.416886
O O7 0.384181 0.049965 0.370822
O O8 0.303961 0.239888 0.310078
O O9 0.207552 0.567844 0.351448
O O10 0.739639 0.410133 0.337806
O O11 0.000000 0.505434 0.250000
#
# Coordination Sequence:
#
# PCOD9296456 Si02
#       5
#     8   8   8   8   8
#     4  11  20  37  66  97 133 159 202 263 317 381
#     4   9  21  41  57  93 121 160 214 243 313 385
#     4  11  22  40  64  93 124 165 203 260 319 367
#     4  10  23  45  59  88 127 162 220 259 303 379
#     4   9  22  40  62  91 127 162 207 252 318 373
#
# _framework density 21.177554000000001
#
# number of rings (size 3 to 8) (size 9 to 14) (size 15 to 20)
#    1.200    0.800    2.000    2.400    0.000    8.800 
#    7.200    0.000    0.000    0.000    0.000    0.000 
#    0.000    0.000    0.000    0.000    0.000    0.000 
#
# Total GULP energy -111404.313771 kJ/mol
# GULP energy per Si atom -5570.215689 kJ/mol
# Density = 2.112935 g / cm^3
# Si number density = 21.177554 Si / 1000 Ang^3
#
#
#
# Elastic Constant Matrix: (Units=GPa)
#
#
# Indices 1 2 3 4 5 6 
#
# 1 120.6872 23.2759 1.1462 0.0000 -24.8972 0.0000
# 2 23.2759 62.5989 30.9259 0.0000 -18.9201 0.0000
# 3 1.1462 30.9259 39.2440 0.0000 -14.7590 0.0000
# 4 0.0000 0.0000 0.0000 16.2170 0.0000 -14.6505
# 5 -24.8972 -18.9201 -14.7590 0.0000 18.2547 0.0000
# 6 0.0000 0.0000 0.0000 -14.6505 0.0000 38.1602
#
#
#
# Elastic Compliance Matrix: (Units=1/GPa)
#
#
# Indices 1 2 3 4 5 6 
#
# 1 0.013987 -0.003424 0.011681 0.000000 0.024972 0.000000
# 2 -0.003424 0.030211 -0.019668 0.000000 0.010740 0.000000
# 3 0.011681 -0.019668 0.055989 0.000000 0.040814 0.000000
# 4 0.000000 0.000000 0.000000 0.094407 0.000000 0.036245
# 5 0.024972 0.010740 0.040814 0.000000 0.132969 0.000000
# 6 0.000000 0.000000 0.000000 0.036245 0.000000 0.040121
#
#
# Mechanical properties :
#
#
# Convention : Reuss Voigt Hill
#
# Bulk Modulus (GPa) = 12.92575 37.02514 24.97545
# Shear Modulus (GPa) = 12.01075 25.67186 18.84130
#
# Velocity S-wave (km/s) = 2.38406 3.48547 2.98599
# Velocity P-wave (km/s) = 3.70069 5.80682 4.86900
#
# Compressibility (1/GPa) = 0.07736492
#
# Stress axis : x y z
#
# Youngs Moduli (GPa) = 71.49562 33.10077 17.86061
#
# Poissons Ratio (x) = 0.11334 -0.20863
# Poissons Ratio (y) = 0.24480 0.35128
# Poissons Ratio (z) = -0.83515 0.65103
#
# Static dielectric constant tensor:
#      x y z
#    x 1.804490 0.000000 0.000070 
#    y 0.000000 1.858370 0.000000 
#    z 0.000070 0.000000 1.803650 
# 
# From -- ./inp_files/290905.got.cif
#   From: 2010.05.17/outbox.cif.g08.bks.cpg/sg15_146_cif.got.tgz:290905.got - 2010.06.03 18:47:42.
