data_PCOD9296243
_publ_section_title
;
Structure prediction by ZEFSAII (Michael W. Deem and Ramdas Pophale) SiO2 
 PCOD9296243
Probable space group: C 2/C
;
_chemical_formula_sum "Si O2"
_cell_formula_units_Z 56
_cell_length_a 15.607338
_cell_length_b 28.054944
_cell_length_c 7.424496
_cell_angle_alpha 90.000000
_cell_angle_beta 128.434625
_cell_angle_gamma 90.000000
_cell_volume 2546.497732
_symmetry_space_group_name_H-M "C 2/C"
_symmetry_group_IT_number 15
_symmetry_cell_setting 'monoclinic'
loop_
_space_group_symop_operation_xyz
x,y,z
-x,y,1/2-z
-x,-y,-z
x,-y,1/2+z
1/2+x,1/2+y,z
1/2-x,1/2+y,1/2-z
1/2-x,1/2-y,-z
1/2+x,1/2-y,1/2+z
loop_
_atom_site_type_symbol
_atom_site_label
_atom_site_fract_x
_atom_site_fract_y
_atom_site_fract_z
Si Si1 0.714353 0.050622 0.048734
Si Si2 0.927552 0.402925 0.428186
Si Si3 0.756581 0.400000 0.514891
Si Si4 0.500000 0.748236 0.750000
Si Si5 0.215327 0.795767 0.577800
Si Si6 0.000000 0.515268 0.250000
Si Si7 0.565409 0.188494 0.002208
Si Si8 0.591871 0.476398 0.240918
O O1 0.665627 0.089126 0.844686
O O2 0.613947 0.012945 0.911331
O O3 0.733719 0.073980 0.273540
O O4 0.821291 0.020877 0.118259
O O5 0.992917 0.450874 0.563630
O O6 0.864806 0.393702 0.534000
O O7 0.011786 0.363179 0.470015
O O8 0.714278 0.346382 0.476790
O O9 0.673999 0.434281 0.299278
O O10 0.407563 0.716867 0.534392
O O11 0.544156 0.782521 0.654241
O O12 0.250000 0.750000 0.500000
O O13 0.304552 0.806148 0.849442
O O14 0.500000 0.208961 0.750000
O O15 0.500000 0.452475 0.250000
O O16 0.500000 0.500000 0.000000
#
# Coordination Sequence:
#
# PCOD9296243 Si02
#       8
#     8   8   8   4   8   4   8   8
#     4  12  27  43  64 103 137 184 236 287 346 423
#     4  12  25  40  66  98 137 179 224 279 352 420
#     4  12  25  45  69  98 137 186 232 291 356 415
#     4  10  23  46  72  96 136 180 234 297 358 440
#     4  10  23  44  70 102 135 179 240 294 365 433
#     4  12  25  40  62  94 144 176 226 283 332 404
#     4  11  24  44  70 105 139 178 230 296 368 431
#     4  12  24  45  68  95 141 191 237 288 349 425
#
# _framework density 21.990985999999999
#
# number of rings (size 3 to 8) (size 9 to 14) (size 15 to 20)
#    0.000    0.571    2.857    6.000    6.000    0.571 
#    0.000    2.857    0.000    3.429    0.000    0.000 
#    0.000    0.000    0.000    0.000    0.000    0.000 
#
# Total GULP energy -155982.561999 kJ/mol
# GULP energy per Si atom -5570.805786 kJ/mol
# Density = 2.194093 g / cm^3
# Si number density = 21.990986 Si / 1000 Ang^3
#
#
#
# Elastic Constant Matrix: (Units=GPa)
#
#
# Indices 1 2 3 4 5 6 
#
# 1 66.9140 16.2025 27.9307 0.0000 14.3508 0.0000
# 2 16.2025 117.8922 42.7958 0.0000 11.7199 0.0000
# 3 27.9307 42.7958 148.6589 0.0000 22.7014 0.0000
# 4 0.0000 0.0000 0.0000 35.2380 0.0000 9.7370
# 5 14.3508 11.7199 22.7014 0.0000 42.4575 0.0000
# 6 0.0000 0.0000 0.0000 9.7370 0.0000 -72.3461
#
#
#
# Elastic Compliance Matrix: (Units=1/GPa)
#
#
# Indices 1 2 3 4 5 6 
#
# 1 0.017061 -0.001109 -0.002235 0.000000 -0.004266 0.000000
# 2 -0.001109 0.009607 -0.002406 0.000000 -0.000990 0.000000
# 3 -0.002235 -0.002406 0.008300 0.000000 -0.003019 0.000000
# 4 0.000000 0.000000 0.000000 0.027361 0.000000 0.003682
# 5 -0.004266 -0.000990 -0.003019 0.000000 0.026882 0.000000
# 6 0.000000 0.000000 0.000000 0.003682 0.000000 -0.013327
#
#
# Mechanical properties :
#
#
# Convention : Reuss Voigt Hill
#
# Bulk Modulus (GPa) = 42.61195 56.36923 49.49059
# Shear Modulus (GPa) = 52.51747 17.50562 35.01154
#
# Velocity S-wave (km/s) = 4.89216 2.82447 3.99442
# Velocity P-wave (km/s) = 7.16450 6.02705 6.62025
#
# Compressibility (1/GPa) = 0.02346760
#
# Stress axis : x y z
#
# Youngs Moduli (GPa) = 58.61387 104.09511 120.47875
#
# Poissons Ratio (x) = 0.11549 0.26923
# Poissons Ratio (y) = 0.06503 0.28985
# Poissons Ratio (z) = 0.13098 0.25044
#
# Static dielectric constant tensor:
#      x y z
#    x 1.860560 0.000000 0.015900 
#    y 0.000000 1.861620 0.000000 
#    z 0.015900 0.000000 2.132400 
# 
# From -- ./inp_files/52686.got.cif
#   From: 2010.05.17/outbox.cif.g08.bks.cpg/sg15_27_cif.got.tgz:52686.got - 2010.06.03 18:47:42.
