data_PCOD9296345
_publ_section_title
;
Structure prediction by ZEFSAII (Michael W. Deem and Ramdas Pophale) SiO2 
 PCOD9296345
Probable space group: C 2/C
;
_chemical_formula_sum "Si O2"
_cell_formula_units_Z 64
_cell_length_a 8.229993
_cell_length_b 15.637534
_cell_length_c 28.264238
_cell_angle_alpha 90.000000
_cell_angle_beta 129.702085
_cell_angle_gamma 90.000000
_cell_volume 2798.619293
_symmetry_space_group_name_H-M "C 2/C"
_symmetry_group_IT_number 15
_symmetry_cell_setting 'monoclinic'
loop_
_space_group_symop_operation_xyz
x,y,z
-x,y,1/2-z
-x,-y,-z
x,-y,1/2+z
1/2+x,1/2+y,z
1/2-x,1/2+y,1/2-z
1/2-x,1/2-y,-z
1/2+x,1/2-y,1/2+z
loop_
_atom_site_type_symbol
_atom_site_label
_atom_site_fract_x
_atom_site_fract_y
_atom_site_fract_z
Si Si1 0.858736 0.666626 0.650416
Si Si2 0.273711 0.283308 0.106837
Si Si3 0.577623 0.168382 0.114693
Si Si4 0.786754 0.451736 0.945293
Si Si5 0.675542 0.841022 0.467762
Si Si6 0.220739 0.923600 0.764387
Si Si7 0.241028 0.261292 0.794727
Si Si8 0.092524 0.063409 0.670290
O O1 0.747266 0.754262 0.647390
O O2 0.806743 0.651514 0.585301
O O3 0.769481 0.590077 0.665081
O O4 0.105068 0.690243 0.698238
O O5 0.358100 0.219550 0.082109
O O6 0.206692 0.228927 0.140303
O O7 0.462532 0.348803 0.154837
O O8 0.069755 0.341495 0.061530
O O9 0.631025 0.119066 0.076808
O O10 0.608831 0.101174 0.163690
O O11 0.593381 0.502380 0.885191
O O12 0.705726 0.411113 0.979294
O O13 0.000000 0.500000 0.000000
O O14 0.750000 0.750000 0.500000
O O15 0.239163 0.849747 0.728830
O O16 0.000000 0.913791 0.750000
O O17 0.202296 0.013702 0.734077
O O18 0.000000 0.235104 0.750000
#
# Coordination Sequence:
#
# PCOD9296345 Si02
#       8
#     8   8   8   8   8   8   8   8
#     4  10  23  44  72 103 134 188 238 291 346 426
#     4  10  24  44  69 102 136 189 241 287 345 434
#     4  11  22  45  74  98 142 186 239 282 361 435
#     4  12  24  43  68 105 145 184 232 303 361 419
#     4  11  23  43  73 101 137 185 243 295 350 417
#     4  12  23  44  72 104 141 188 224 296 369 422
#     4  11  22  43  72  97 137 183 239 277 346 429
#     4  11  25  45  68 105 148 182 238 293 366 430
#
# _framework density 22.868421000000001
#
# number of rings (size 3 to 8) (size 9 to 14) (size 15 to 20)
#    0.000    1.000    6.250    0.000    1.750    2.500 
#    2.250    3.750    0.000    0.000    0.000    0.000 
#    0.000    0.000    0.000    0.000    0.000    0.000 
#
# Total GULP energy -178734.701418 kJ/mol
# GULP energy per Si atom -5585.459419 kJ/mol
# Density = 2.281637 g / cm^3
# Si number density = 22.868421 Si / 1000 Ang^3
#
#
#
# Elastic Constant Matrix: (Units=GPa)
#
#
# Indices 1 2 3 4 5 6 
#
# 1 120.3644 30.3614 23.1977 0.0000 -1.6099 0.0000
# 2 30.3614 53.7992 40.0838 0.0000 -16.9354 0.0000
# 3 23.1977 40.0838 58.4817 0.0000 -11.8759 0.0000
# 4 0.0000 0.0000 0.0000 37.6445 0.0000 -16.9216
# 5 -1.6099 -16.9354 -11.8759 0.0000 24.8070 0.0000
# 6 0.0000 0.0000 0.0000 -16.9216 0.0000 47.6645
#
#
#
# Elastic Compliance Matrix: (Units=1/GPa)
#
#
# Indices 1 2 3 4 5 6 
#
# 1 0.010002 -0.006857 -0.000096 0.000000 -0.004078 0.000000
# 2 -0.006857 0.048424 -0.026416 0.000000 0.019967 0.000000
# 3 -0.000096 -0.026416 0.034980 0.000000 -0.001294 0.000000
# 4 0.000000 0.000000 0.000000 0.031609 0.000000 0.011222
# 5 -0.004078 0.019967 -0.001294 0.000000 0.053059 0.000000
# 6 0.000000 0.000000 0.000000 0.011222 0.000000 0.024964
#
#
# Mechanical properties :
#
#
# Convention : Reuss Voigt Hill
#
# Bulk Modulus (GPa) = 37.49575 46.65901 42.07738
# Shear Modulus (GPa) = 17.94286 31.29003 24.61644
#
# Velocity S-wave (km/s) = 2.80413 3.70302 3.28447
# Velocity P-wave (km/s) = 5.18807 6.22340 5.72917
#
# Compressibility (1/GPa) = 0.02666969
#
# Stress axis : x y z
#
# Youngs Moduli (GPa) = 99.98423 20.65095 28.58776
#
# Poissons Ratio (x) = 0.14160 0.00274
# Poissons Ratio (y) = 0.68556 0.75516
# Poissons Ratio (z) = 0.00957 0.54551
#
# Static dielectric constant tensor:
#      x y z
#    x 1.898440 0.000000 0.010390 
#    y 0.000000 1.871320 0.000000 
#    z 0.010390 0.000000 1.960510 
# 
# From -- ./inp_files/308272.got.cif
#   From: 2010.05.17/outbox.cif.g08.bks.cpg/sg15_155_cif.got.tgz:308272.got - 2010.06.03 18:47:42.
