data_PCOD9296821
_publ_section_title
;
Structure prediction by ZEFSAII (Michael W. Deem and Ramdas Pophale) SiO2 
 PCOD9296821
Probable space group: C 2/C
;
_chemical_formula_sum "Si O2"
_cell_formula_units_Z 52
_cell_length_a 10.219110
_cell_length_b 12.401353
_cell_length_c 21.295996
_cell_angle_alpha 90.000000
_cell_angle_beta 51.440321
_cell_angle_gamma 90.000000
_cell_volume 2110.397496
_symmetry_space_group_name_H-M "C 2/C"
_symmetry_group_IT_number 15
_symmetry_cell_setting 'monoclinic'
loop_
_space_group_symop_operation_xyz
x,y,z
-x,y,1/2-z
-x,-y,-z
x,-y,1/2+z
1/2+x,1/2+y,z
1/2-x,1/2+y,1/2-z
1/2-x,1/2-y,-z
1/2+x,1/2-y,1/2+z
loop_
_atom_site_type_symbol
_atom_site_label
_atom_site_fract_x
_atom_site_fract_y
_atom_site_fract_z
Si Si1 0.118805 0.628975 0.591518
Si Si2 0.246855 0.154318 0.719652
Si Si3 0.758849 0.859617 0.920057
Si Si4 0.598889 0.536211 0.909928
Si Si5 0.169563 0.345781 0.661846
Si Si6 0.033069 0.741083 0.385421
Si Si7 0.000000 0.980219 0.750000
O O1 0.135725 0.758395 0.585069
O O2 0.187626 0.584607 0.504490
O O3 0.233884 0.593587 0.614361
O O4 0.929395 0.605166 0.665117
O O5 0.222224 0.225109 0.664961
O O6 0.191843 0.237497 0.790732
O O7 0.117943 0.057031 0.756020
O O8 0.600985 0.815933 0.927336
O O9 0.879590 0.918896 0.834786
O O10 0.681265 0.424733 0.861502
O O11 0.490796 0.633165 0.912160
O O12 0.500000 0.500000 0.000000
O O13 0.000000 0.374626 0.750000
O O14 0.105333 0.330012 0.609337
#
# Coordination Sequence:
#
# PCOD9296821 Si02
#       7
#     8   8   8   8   8   8   4
#     4  10  25  46  66 103 137 177 232 288 347 431
#     4  11  24  44  69 101 139 175 239 288 348 427
#     4  10  24  44  71  97 138 181 227 289 349 410
#     4  11  27  43  72 103 137 187 232 292 360 425
#     4  10  24  47  69 103 140 186 230 300 353 416
#     4  10  23  46  68 104 136 185 236 280 353 431
#     4  12  24  42  68 102 132 182 228 288 350 414
#
# _framework density 24.639907999999998
#
# number of rings (size 3 to 8) (size 9 to 14) (size 15 to 20)
#    0.000    1.538    2.308    0.923   12.923    3.692 
#    0.000    0.000    0.000    0.000    0.000    0.000 
#    0.000    0.000    0.000    0.000    0.000    0.000 
#
# Total GULP energy -145196.506302 kJ/mol
# GULP energy per Si atom -5584.481012 kJ/mol
# Density = 2.458383 g / cm^3
# Si number density = 24.639908 Si / 1000 Ang^3
#
#
#
# Elastic Constant Matrix: (Units=GPa)
#
#
# Indices 1 2 3 4 5 6 
#
# 1 56.9675 7.2304 -8.2923 0.0000 10.4334 0.0000
# 2 7.2304 75.9766 7.3892 0.0000 2.1364 0.0000
# 3 -8.2923 7.3892 32.0589 0.0000 1.8175 0.0000
# 4 0.0000 0.0000 0.0000 34.8222 0.0000 8.8410
# 5 10.4334 2.1364 1.8175 0.0000 38.6987 0.0000
# 6 0.0000 0.0000 0.0000 8.8410 0.0000 34.6127
#
#
#
# Elastic Compliance Matrix: (Units=1/GPa)
#
#
# Indices 1 2 3 4 5 6 
#
# 1 0.019711 -0.002300 0.005938 0.000000 -0.005466 0.000000
# 2 -0.002300 0.013746 -0.003765 0.000000 0.000038 0.000000
# 3 0.005938 -0.003765 0.033765 0.000000 -0.002979 0.000000
# 4 0.000000 0.000000 0.000000 0.030709 0.000000 -0.007844
# 5 -0.005466 0.000038 -0.002979 0.000000 0.027452 0.000000
# 6 0.000000 0.000000 0.000000 -0.007844 0.000000 0.030895
#
#
# Mechanical properties :
#
#
# Convention : Reuss Voigt Hill
#
# Bulk Modulus (GPa) = 14.93217 19.73974 17.33596
# Shear Modulus (GPa) = 27.95570 32.20510 30.08040
#
# Velocity S-wave (km/s) = 3.37199 3.61921 3.49779
# Velocity P-wave (km/s) = 4.60801 5.04912 4.83360
#
# Compressibility (1/GPa) = 0.06696950
#
# Stress axis : x y z
#
# Youngs Moduli (GPa) = 50.73235 72.74877 29.61619
#
# Poissons Ratio (x) = 0.16730 -0.17587
# Poissons Ratio (y) = 0.11667 0.11151
# Poissons Ratio (z) = -0.30127 0.27392
#
# Static dielectric constant tensor:
#      x y z
#    x 1.990470 0.000000 0.050970 
#    y 0.000000 2.042650 0.000000 
#    z 0.050970 0.000000 2.019280 
# 
# From -- ./inp_files/269205.got.cif
#   From: 2010.05.17/outbox.cif.g08.bks.cpg/sg15_135_cif.got.tgz:269205.got - 2010.06.03 18:47:42.
