data_PCOD9296541
_publ_section_title
;
Structure prediction by ZEFSAII (Michael W. Deem and Ramdas Pophale) SiO2 
 PCOD9296541
Probable space group: C 2/C
;
_chemical_formula_sum "Si O2"
_cell_formula_units_Z 60
_cell_length_a 8.089130
_cell_length_b 23.097245
_cell_length_c 15.245436
_cell_angle_alpha 90.000000
_cell_angle_beta 90.177709
_cell_angle_gamma 90.000000
_cell_volume 2848.391993
_symmetry_space_group_name_H-M "C 2/C"
_symmetry_group_IT_number 15
_symmetry_cell_setting 'monoclinic'
loop_
_space_group_symop_operation_xyz
x,y,z
-x,y,1/2-z
-x,-y,-z
x,-y,1/2+z
1/2+x,1/2+y,z
1/2-x,1/2+y,1/2-z
1/2-x,1/2-y,-z
1/2+x,1/2-y,1/2+z
loop_
_atom_site_type_symbol
_atom_site_label
_atom_site_fract_x
_atom_site_fract_y
_atom_site_fract_z
Si Si1 0.830532 0.141955 0.627397
Si Si2 0.000000 0.944459 0.250000
Si Si3 0.478470 0.704478 0.017642
Si Si4 0.974953 0.608685 0.643215
Si Si5 0.330485 0.995169 0.691941
Si Si6 0.158236 0.755485 0.686162
Si Si7 0.130031 0.675283 0.023286
Si Si8 0.881151 0.368070 0.666546
O O1 0.663387 0.106409 0.612967
O O2 0.773921 0.198174 0.685849
O O3 0.964394 0.100287 0.671164
O O4 0.899708 0.166189 0.537806
O O5 0.835515 0.982563 0.260939
O O6 0.405013 0.756678 0.959606
O O7 0.579214 0.738672 0.090285
O O8 0.321332 0.668163 0.050739
O O9 0.000000 0.619020 0.750000
O O10 0.877454 0.549011 0.629649
O O11 0.888769 0.655567 0.578882
O O12 0.500000 0.992230 0.750000
O O13 0.299337 0.931159 0.655608
O O14 0.261096 0.814859 0.690805
O O15 0.000000 0.752393 0.750000
O O16 0.995161 0.643691 0.082188
O O17 0.000000 0.371657 0.750000
#
# Coordination Sequence:
#
# PCOD9296541 Si02
#       8
#     8   4   8   8   8   8   8   8
#     4  12  23  38  67 101 134 168 229 282 349 402
#     4  12  24  40  74 102 130 182 234 294 336 410
#     4  11  24  40  62 100 141 177 222 281 342 422
#     4  11  21  42  68  97 129 179 221 285 348 391
#     4  10  23  45  67  96 135 181 231 288 340 401
#     4  12  25  40  66 101 139 181 222 283 351 418
#     4  11  23  42  65  94 142 181 223 278 350 413
#     4  11  25  46  67  94 136 187 228 276 350 417
#
# _framework density 21.064518
#
# number of rings (size 3 to 8) (size 9 to 14) (size 15 to 20)
#    0.000    0.800    5.333    3.200    1.867    1.600 
#    0.000    0.000    0.000    3.200    0.000    0.000 
#    0.000    0.000    0.000    0.000    0.000    0.000 
#
# Total GULP energy -167272.002584 kJ/mol
# GULP energy per Si atom -5575.733419 kJ/mol
# Density = 2.101657 g / cm^3
# Si number density = 21.064518 Si / 1000 Ang^3
#
#
#
# Elastic Constant Matrix: (Units=GPa)
#
#
# Indices 1 2 3 4 5 6 
#
# 1 100.9971 45.1977 15.5189 0.0000 -22.0021 0.0000
# 2 45.1977 130.2926 16.1572 0.0000 -19.6465 0.0000
# 3 15.5189 16.1572 45.0055 0.0000 -21.3196 0.0000
# 4 0.0000 0.0000 0.0000 19.6143 0.0000 4.3024
# 5 -22.0021 -19.6465 -21.3196 0.0000 35.3574 0.0000
# 6 0.0000 0.0000 0.0000 4.3024 0.0000 3.7758
#
#
#
# Elastic Compliance Matrix: (Units=1/GPa)
#
#
# Indices 1 2 3 4 5 6 
#
# 1 0.012794 -0.003518 -0.000424 0.000000 0.005750 0.000000
# 2 -0.003518 0.009385 -0.001012 0.000000 0.002415 0.000000
# 3 -0.000424 -0.001012 0.031269 0.000000 0.018028 0.000000
# 4 0.000000 0.000000 0.000000 0.067973 0.000000 -0.077453
# 5 0.005750 0.002415 0.018028 0.000000 0.044074 0.000000
# 6 0.000000 0.000000 0.000000 -0.077453 0.000000 0.353103
#
#
# Mechanical properties :
#
#
# Convention : Reuss Voigt Hill
#
# Bulk Modulus (GPa) = 22.96805 47.78254 35.37529
# Shear Modulus (GPa) = 9.20777 25.04425 17.12601
#
# Velocity S-wave (km/s) = 2.09302 3.45183 2.85446
# Velocity P-wave (km/s) = 4.09491 6.21450 5.26252
#
# Compressibility (1/GPa) = 0.04353875
#
# Stress axis : x y z
#
# Youngs Moduli (GPa) = 78.16343 106.55041 31.98025
#
# Poissons Ratio (x) = 0.37488 0.01357
# Poissons Ratio (y) = 0.27501 0.03236
# Poissons Ratio (z) = 0.03318 0.10782
#
# Static dielectric constant tensor:
#      x y z
#    x 1.884050 0.000000 0.026460 
#    y 0.000000 1.812350 0.000000 
#    z 0.026460 0.000000 1.797080 
# 
# From -- ./inp_files/137365.got.cif
#   From: 2010.05.17/outbox.cif.g08.bks.cpg/sg15_69_cif.got.tgz:137365.got - 2010.06.03 18:47:42.
