data_PCOD9296802
_publ_section_title
;
Structure prediction by ZEFSAII (Michael W. Deem and Ramdas Pophale) SiO2 
 PCOD9296802
Probable space group: C 2/C
;
_chemical_formula_sum "Si O2"
_cell_formula_units_Z 40
_cell_length_a 13.990542
_cell_length_b 17.997231
_cell_length_c 14.206347
_cell_angle_alpha 90.000000
_cell_angle_beta 148.741415
_cell_angle_gamma 90.000000
_cell_volume 1856.125978
_symmetry_space_group_name_H-M "C 2/C"
_symmetry_group_IT_number 15
_symmetry_cell_setting 'monoclinic'
loop_
_space_group_symop_operation_xyz
x,y,z
-x,y,1/2-z
-x,-y,-z
x,-y,1/2+z
1/2+x,1/2+y,z
1/2-x,1/2+y,1/2-z
1/2-x,1/2-y,-z
1/2+x,1/2-y,1/2+z
loop_
_atom_site_type_symbol
_atom_site_label
_atom_site_fract_x
_atom_site_fract_y
_atom_site_fract_z
Si Si1 0.412756 0.149399 0.282423
Si Si2 0.207859 0.495414 0.889998
Si Si3 0.500000 0.595530 0.750000
Si Si4 0.164855 0.842326 0.034933
Si Si5 0.267752 0.693749 0.693016
Si Si6 0.000000 0.250228 0.250000
O O1 0.500000 0.151258 0.250000
O O2 0.318872 0.068892 0.210992
O O3 0.278909 0.219469 0.176840
O O4 0.572744 0.162046 0.493256
O O5 0.314573 0.569348 0.950759
O O6 0.000000 0.513654 0.750000
O O7 0.331941 0.455149 0.073207
O O8 0.421916 0.648827 0.765016
O O9 0.191501 0.816936 0.163592
O O10 0.330657 0.806686 0.114214
O O11 0.996034 0.803919 0.837883
#
# Coordination Sequence:
#
# PCOD9296802 Si02
#       6
#     8   8   4   8   8   4
#     4  11  21  40  63  98 136 174 213 275 337 394
#     4  11  23  43  66  97 134 182 215 282 338 384
#     4  12  23  42  67  98 148 168 220 280 339 402
#     4  11  24  44  70  96 131 179 231 273 336 398
#     4  12  23  39  68 101 131 184 225 267 336 414
#     4  10  23  46  67  92 134 178 228 286 317 398
#
# _framework density 21.550262
#
# number of rings (size 3 to 8) (size 9 to 14) (size 15 to 20)
#    0.000    0.800    6.000    3.600    0.000    1.600 
#    0.000    0.000    0.000    0.000    0.000    0.000 
#    0.000    0.000    0.000    0.000    0.000    0.000 
#
# Total GULP energy -111767.594760 kJ/mol
# GULP energy per Si atom -5588.379738 kJ/mol
# Density = 2.150121 g / cm^3
# Si number density = 21.550262 Si / 1000 Ang^3
#
#
#
# Elastic Constant Matrix: (Units=GPa)
#
#
# Indices 1 2 3 4 5 6 
#
# 1 25.6858 13.6817 1.5368 0.0000 -16.0141 0.0000
# 2 13.6817 171.7165 22.8091 0.0000 -12.3492 0.0000
# 3 1.5368 22.8091 101.6188 0.0001 -18.9648 -0.0001
# 4 0.0000 0.0000 0.0001 23.7195 0.0000 7.8106
# 5 -16.0141 -12.3492 -18.9648 0.0000 34.6656 -0.0001
# 6 0.0000 0.0000 -0.0001 7.8106 -0.0001 -6.6340
#
#
#
# Elastic Compliance Matrix: (Units=1/GPa)
#
#
# Indices 1 2 3 4 5 6 
#
# 1 0.058153 -0.003269 0.005179 0.000000 0.028533 -0.000001
# 2 -0.003269 0.006263 -0.001361 0.000000 -0.000024 0.000000
# 3 0.005179 -0.001361 0.011609 0.000000 0.008259 0.000000
# 4 0.000000 0.000000 0.000000 0.030381 0.000000 0.035769
# 5 0.028533 -0.000024 0.008259 0.000000 0.046538 -0.000001
# 6 -0.000001 0.000000 0.000000 0.035769 -0.000001 -0.108625
#
#
# Mechanical properties :
#
#
# Convention : Reuss Voigt Hill
#
# Bulk Modulus (GPa) = 12.96619 41.67516 27.32068
# Shear Modulus (GPa) = 72.53881 27.74978 50.14429
#
# Velocity S-wave (km/s) = 5.80804 3.59231 4.82898
# Velocity P-wave (km/s) = 7.14196 6.04871 6.61795
#
# Compressibility (1/GPa) = 0.07712365
#
# Stress axis : x y z
#
# Youngs Moduli (GPa) = 17.19607 159.66536 86.13881
#
# Poissons Ratio (x) = 0.52201 -0.44615
# Poissons Ratio (y) = 0.05622 0.11721
# Poissons Ratio (z) = -0.08907 0.21727
#
# Static dielectric constant tensor:
#      x y z
#    x 1.775590 0.000000 0.023470 
#    y 0.000000 1.767960 0.000000 
#    z 0.023470 0.000000 1.887540 
# 
# From -- ./inp_files/39001.got.cif
#   From: 2010.05.17/outbox.cif.g08.bks.cpg/sg15_20_cif.got.tgz:39001.got - 2010.06.03 18:47:42.
