data_PCOD9296947
_publ_section_title
;
Structure prediction by ZEFSAII (Michael W. Deem and Ramdas Pophale) SiO2 
 PCOD9296947
Probable space group: C 2/C
;
_chemical_formula_sum "Si O2"
_cell_formula_units_Z 40
_cell_length_a 9.009738
_cell_length_b 18.733608
_cell_length_c 12.894952
_cell_angle_alpha 90.000000
_cell_angle_beta 128.350895
_cell_angle_gamma 90.000000
_cell_volume 1706.845814
_symmetry_space_group_name_H-M "C 2/C"
_symmetry_group_IT_number 15
_symmetry_cell_setting 'monoclinic'
loop_
_space_group_symop_operation_xyz
x,y,z
-x,y,1/2-z
-x,-y,-z
x,-y,1/2+z
1/2+x,1/2+y,z
1/2-x,1/2+y,1/2-z
1/2-x,1/2-y,-z
1/2+x,1/2-y,1/2+z
loop_
_atom_site_type_symbol
_atom_site_label
_atom_site_fract_x
_atom_site_fract_y
_atom_site_fract_z
Si Si1 0.295711 0.025153 0.379039
Si Si2 0.690471 0.671820 0.021930
Si Si3 0.638572 0.744389 0.210706
Si Si4 0.470617 0.538326 0.880534
Si Si5 0.962738 0.670483 0.448328
O O1 0.303152 0.110402 0.389790
O O2 0.500000 0.000000 0.500000
O O3 0.234253 0.986099 0.246955
O O4 0.133342 0.996803 0.382388
O O5 0.524917 0.621848 0.905742
O O6 0.564137 0.808491 0.101688
O O7 0.652581 0.682937 0.127209
O O8 0.888744 0.637232 0.070128
O O9 0.500000 0.739261 0.250000
O O10 0.848976 0.738837 0.352433
O O11 0.500000 0.500000 0.000000
O O12 0.250000 0.750000 0.500000
#
# Coordination Sequence:
#
# PCOD9296947 Si02
#       5
#     8   8   8   8   8
#     4  11  25  47  73 104 151 190 251 308 369 458
#     4  10  23  46  74 105 141 192 250 303 367 446
#     4  11  25  44  71 107 150 191 247 309 372 439
#     4  11  25  46  74 105 147 195 241 307 382 440
#     4  11  24  47  72 107 150 196 246 308 376 452
#
# _framework density 23.435039
#
# number of rings (size 3 to 8) (size 9 to 14) (size 15 to 20)
#    0.000    1.200    2.000    2.400    5.600    4.000 
#   10.800    0.000    0.000    0.000    0.000    0.000 
#    0.000    0.000    0.000    0.000    0.000    0.000 
#
# Total GULP energy -111358.913583 kJ/mol
# GULP energy per Si atom -5567.945679 kJ/mol
# Density = 2.338170 g / cm^3
# Si number density = 23.435039 Si / 1000 Ang^3
#
#
#
# Elastic Constant Matrix: (Units=GPa)
#
#
# Indices 1 2 3 4 5 6 
#
# 1 113.5671 22.9049 43.8980 0.0000 -23.0650 0.0000
# 2 22.9049 155.2445 59.2644 0.0000 4.5755 0.0000
# 3 43.8980 59.2644 192.1208 0.0000 1.8781 0.0000
# 4 0.0000 0.0000 0.0000 42.1878 0.0000 6.4551
# 5 -23.0650 4.5755 1.8781 0.0000 38.5411 0.0000
# 6 0.0000 0.0000 0.0000 6.4551 0.0000 29.5383
#
#
#
# Elastic Compliance Matrix: (Units=1/GPa)
#
#
# Indices 1 2 3 4 5 6 
#
# 1 0.011339 -0.000980 -0.002357 0.000000 0.007017 0.000000
# 2 -0.000980 0.007408 -0.002048 0.000000 -0.001366 0.000000
# 3 -0.002357 -0.002048 0.006390 0.000000 -0.001479 0.000000
# 4 0.000000 0.000000 0.000000 0.024524 0.000000 -0.005359
# 5 0.007017 -0.001366 -0.001479 0.000000 0.030380 0.000000
# 6 0.000000 0.000000 0.000000 -0.005359 0.000000 0.035025
#
#
# Mechanical properties :
#
#
# Convention : Reuss Voigt Hill
#
# Bulk Modulus (GPa) = 69.60389 79.22967 74.41678
# Shear Modulus (GPa) = 38.27728 44.37778 41.32753
#
# Velocity S-wave (km/s) = 4.04584 4.35633 4.20395
# Velocity P-wave (km/s) = 7.18264 7.69318 7.44229
#
# Compressibility (1/GPa) = 0.01436701
#
# Stress axis : x y z
#
# Youngs Moduli (GPa) = 88.18841 134.98741 156.49776
#
# Poissons Ratio (x) = 0.13228 0.36890
# Poissons Ratio (y) = 0.08642 0.32050
# Poissons Ratio (z) = 0.20788 0.27645
#
# Static dielectric constant tensor:
#      x y z
#    x 1.954610 0.000000 0.012360 
#    y 0.000000 2.079440 0.000000 
#    z 0.012360 0.000000 1.969410 
# 
# From -- ./inp_files/137607.got.cif
#   From: 2010.05.17/outbox.cif.g08.bks.cpg/sg15_69_cif.got.tgz:137607.got - 2010.06.03 18:47:42.
