data_PCOD9296331
_publ_section_title
;
Structure prediction by ZEFSAII (Michael W. Deem and Ramdas Pophale) SiO2 
 PCOD9296331
Probable space group: C 2/C
;
_chemical_formula_sum "Si O2"
_cell_formula_units_Z 48
_cell_length_a 8.006097
_cell_length_b 24.591856
_cell_length_c 11.070666
_cell_angle_alpha 90.000000
_cell_angle_beta 70.693875
_cell_angle_gamma 90.000000
_cell_volume 2057.074653
_symmetry_space_group_name_H-M "C 2/C"
_symmetry_group_IT_number 15
_symmetry_cell_setting 'monoclinic'
loop_
_space_group_symop_operation_xyz
x,y,z
-x,y,1/2-z
-x,-y,-z
x,-y,1/2+z
1/2+x,1/2+y,z
1/2-x,1/2+y,1/2-z
1/2-x,1/2-y,-z
1/2+x,1/2-y,1/2+z
loop_
_atom_site_type_symbol
_atom_site_label
_atom_site_fract_x
_atom_site_fract_y
_atom_site_fract_z
Si Si1 0.293221 0.088685 0.322764
Si Si2 0.000000 0.432938 0.250000
Si Si3 0.579558 0.237604 0.453598
Si Si4 0.500000 0.617512 0.750000
Si Si5 0.644222 0.482465 0.369023
Si Si6 0.663044 0.291224 0.803061
Si Si7 0.846571 0.633274 0.563185
O O1 0.500000 0.084335 0.250000
O O2 0.183183 0.039260 0.290574
O O3 0.217964 0.146138 0.297810
O O4 0.292670 0.092148 0.469113
O O5 0.846809 0.467850 0.350972
O O6 0.926887 0.396570 0.159485
O O7 0.750000 0.250000 0.500000
O O8 0.419392 0.273465 0.548341
O O9 0.670525 0.239400 0.299546
O O10 0.488385 0.177905 0.486969
O O11 0.421889 0.573379 0.674277
O O12 0.656214 0.652848 0.656834
O O13 0.500000 0.500000 0.500000
O O14 0.500000 0.284001 0.750000
#
# Coordination Sequence:
#
# PCOD9296331 Si02
#       7
#     8   4   8   4   8   8   8
#     4  12  24  43  66 101 139 180 228 285 347 408
#     4  10  26  42  68  98 132 192 228 286 348 410
#     4  10  23  44  71  99 134 179 232 287 345 421
#     4  10  24  44  66 108 136 184 228 280 352 408
#     4  11  23  42  66  98 140 181 229 282 344 420
#     4  10  24  44  68 103 134 183 230 285 356 421
#     4  11  24  45  69 101 141 175 237 283 348 419
#
# _framework density 23.334109000000002
#
# number of rings (size 3 to 8) (size 9 to 14) (size 15 to 20)
#    0.000    1.333    4.167    0.000    4.667    6.667 
#    1.500    0.000    0.000    0.000    0.000    0.000 
#    0.000    0.000    0.000    0.000    0.000    0.000 
#
# Total GULP energy -133719.819239 kJ/mol
# GULP energy per Si atom -5571.659135 kJ/mol
# Density = 2.328100 g / cm^3
# Si number density = 23.334109 Si / 1000 Ang^3
#
#
#
# Elastic Constant Matrix: (Units=GPa)
#
#
# Indices 1 2 3 4 5 6 
#
# 1 94.8923 27.9527 65.4425 0.0000 -37.3083 0.0000
# 2 27.9527 87.5108 41.5243 0.0000 -20.8584 0.0000
# 3 65.4425 41.5243 138.5347 0.0000 -50.0180 0.0000
# 4 0.0000 0.0000 0.0000 26.0820 0.0000 -24.1903
# 5 -37.3083 -20.8584 -50.0180 0.0000 55.9809 0.0000
# 6 0.0000 0.0000 0.0000 -24.1903 0.0000 16.9274
#
#
#
# Elastic Compliance Matrix: (Units=1/GPa)
#
#
# Indices 1 2 3 4 5 6 
#
# 1 0.017088 -0.001433 -0.005497 0.000000 0.005943 0.000000
# 2 -0.001433 0.013605 -0.002828 0.000000 0.001587 0.000000
# 3 -0.005497 -0.002828 0.013226 0.000000 0.007101 0.000000
# 4 0.000000 0.000000 0.000000 -0.117823 0.000000 -0.168376
# 5 0.005943 0.001587 0.007101 0.000000 0.028759 0.000000
# 6 0.000000 0.000000 0.000000 -0.168376 0.000000 -0.181544
#
#
# Mechanical properties :
#
#
# Convention : Reuss Voigt Hill
#
# Bulk Modulus (GPa) = 40.97817 65.64186 53.31001
# Shear Modulus (GPa) = -25.12085 32.19930 3.53922
#
# Velocity S-wave (km/s) = -3.28468 3.71876 1.23290
# Velocity P-wave (km/s) = 1.79281 6.82871 4.99227
#
# Compressibility (1/GPa) = 0.02440324
#
# Stress axis : x y z
#
# Youngs Moduli (GPa) = 58.52089 73.50154 75.60688
#
# Poissons Ratio (x) = 0.10536 0.41560
# Poissons Ratio (y) = 0.08389 0.21379
# Poissons Ratio (z) = 0.32168 0.20784
#
# Static dielectric constant tensor:
#      x y z
#    x 1.887610 0.000000 -0.008390 
#    y 0.000000 1.900010 0.000000 
#    z -0.008390 0.000000 1.972550 
# 
# From -- ./inp_files/80563.got.cif
#   From: 2010.05.17/outbox.cif.g08.bks.cpg/sg15_41_cif.got.tgz:80563.got - 2010.06.03 18:47:42.
