data_PCOD9296620
_publ_section_title
;
Structure prediction by ZEFSAII (Michael W. Deem and Ramdas Pophale) SiO2 
 PCOD9296620
Probable space group: C 2/C
;
_chemical_formula_sum "Si O2"
_cell_formula_units_Z 36
_cell_length_a 17.483881
_cell_length_b 9.329716
_cell_length_c 19.141784
_cell_angle_alpha 90.000000
_cell_angle_beta 30.865960
_cell_angle_gamma 90.000000
_cell_volume 1601.889682
_symmetry_space_group_name_H-M "C 2/C"
_symmetry_group_IT_number 15
_symmetry_cell_setting 'monoclinic'
loop_
_space_group_symop_operation_xyz
x,y,z
-x,y,1/2-z
-x,-y,-z
x,-y,1/2+z
1/2+x,1/2+y,z
1/2-x,1/2+y,1/2-z
1/2-x,1/2-y,-z
1/2+x,1/2-y,1/2+z
loop_
_atom_site_type_symbol
_atom_site_label
_atom_site_fract_x
_atom_site_fract_y
_atom_site_fract_z
Si Si1 0.500000 0.132760 0.250000
Si Si2 0.663489 0.862979 0.114154
Si Si3 0.569948 0.843610 0.444158
Si Si4 0.942366 0.915085 0.975624
Si Si5 0.081919 0.173045 0.810079
O O1 0.420958 0.233679 0.256956
O O2 0.618197 0.022252 0.122085
O O3 0.500000 0.797233 0.250000
O O4 0.750000 0.750000 0.000000
O O5 0.766103 0.896020 0.101454
O O6 0.511451 0.742252 0.427566
O O7 0.747631 0.848468 0.301437
O O8 0.509949 0.764282 0.560735
O O9 0.500000 0.000000 0.500000
O O10 0.004324 0.017703 0.866293
O O11 0.000000 0.000000 0.000000
#
# Coordination Sequence:
#
# PCOD9296620 Si02
#       5
#     4   8   8   8   8
#     4  10  24  46  72  98 150 186 256 282 386 438
#     4  10  25  45  70 103 150 189 241 307 377 443
#     4  11  25  42  75 107 145 186 245 304 373 431
#     4  10  23  45  70 102 143 187 247 300 365 442
#     4  11  24  46  73 105 143 194 241 306 359 448
#
# _framework density 22.473457
#
# number of rings (size 3 to 8) (size 9 to 14) (size 15 to 20)
#    0.667    0.889    0.000    4.000    3.111   10.667 
#    2.000    0.000    0.000    0.000    0.000    0.000 
#    0.000    0.000    0.000    0.000    0.000    0.000 
#
# Total GULP energy -100451.173489 kJ/mol
# GULP energy per Si atom -5580.620749 kJ/mol
# Density = 2.242231 g / cm^3
# Si number density = 22.473457 Si / 1000 Ang^3
#
#
#
# Elastic Constant Matrix: (Units=GPa)
#
#
# Indices 1 2 3 4 5 6 
#
# 1 77.5471 38.6616 33.7471 0.0000 -34.9098 0.0000
# 2 38.6616 179.1704 39.6419 0.0000 -5.1657 0.0000
# 3 33.7471 39.6419 126.6769 0.0000 -35.6631 0.0000
# 4 0.0000 0.0000 0.0000 29.6527 0.0000 2.1216
# 5 -34.9098 -5.1657 -35.6631 0.0000 40.7617 0.0000
# 6 0.0000 0.0000 0.0000 2.1216 0.0000 21.9300
#
#
#
# Elastic Compliance Matrix: (Units=1/GPa)
#
#
# Indices 1 2 3 4 5 6 
#
# 1 0.024425 -0.004876 0.000974 0.000000 0.021153 0.000000
# 2 -0.004876 0.007012 -0.002416 0.000000 -0.005401 0.000000
# 3 0.000974 -0.002416 0.011330 0.000000 0.010441 0.000000
# 4 0.000000 0.000000 0.000000 0.033959 0.000000 -0.003285
# 5 0.021153 -0.005401 0.010441 0.000000 0.051099 0.000000
# 6 0.000000 0.000000 0.000000 -0.003285 0.000000 0.045918
#
#
# Mechanical properties :
#
#
# Convention : Reuss Voigt Hill
#
# Bulk Modulus (GPa) = 33.18802 67.49951 50.34376
# Shear Modulus (GPa) = 25.45533 36.55847 31.00690
#
# Velocity S-wave (km/s) = 3.36919 4.03766 3.71848
# Velocity P-wave (km/s) = 5.47128 7.19982 6.39423
#
# Compressibility (1/GPa) = 0.03013135
#
# Stress axis : x y z
#
# Youngs Moduli (GPa) = 40.94179 142.60704 88.26066
#
# Poissons Ratio (x) = 0.69537 -0.08598
# Poissons Ratio (y) = 0.19964 0.21324
# Poissons Ratio (z) = -0.03988 0.34454
#
# Static dielectric constant tensor:
#      x y z
#    x 1.888820 0.000000 0.034590 
#    y 0.000000 1.845480 0.000000 
#    z 0.034590 0.000000 1.899470 
# 
# From -- ./inp_files/247741.got.cif
#   From: 2010.05.17/outbox.cif.g08.bks.cpg/sg15_124_cif.got.tgz:247741.got - 2010.06.03 18:47:42.
