data_PCOD9296531
_publ_section_title
;
Structure prediction by ZEFSAII (Michael W. Deem and Ramdas Pophale) SiO2 
 PCOD9296531
Probable space group: C 2/C
;
_chemical_formula_sum "Si O2"
_cell_formula_units_Z 44
_cell_length_a 10.027848
_cell_length_b 13.058367
_cell_length_c 24.804294
_cell_angle_alpha 90.000000
_cell_angle_beta 147.362669
_cell_angle_gamma 90.000000
_cell_volume 1751.740061
_symmetry_space_group_name_H-M "C 2/C"
_symmetry_group_IT_number 15
_symmetry_cell_setting 'monoclinic'
loop_
_space_group_symop_operation_xyz
x,y,z
-x,y,1/2-z
-x,-y,-z
x,-y,1/2+z
1/2+x,1/2+y,z
1/2-x,1/2+y,1/2-z
1/2-x,1/2-y,-z
1/2+x,1/2-y,1/2+z
loop_
_atom_site_type_symbol
_atom_site_label
_atom_site_fract_x
_atom_site_fract_y
_atom_site_fract_z
Si Si1 0.882146 0.336663 0.467183
Si Si2 0.500000 0.571608 0.750000
Si Si3 0.392561 0.687284 0.092621
Si Si4 0.299874 0.206213 0.722749
Si Si5 0.269094 0.983142 0.738962
Si Si6 0.158103 0.640288 0.426164
O O1 0.691425 0.366089 0.354312
O O2 0.869891 0.212836 0.473471
O O3 0.166399 0.361270 0.550262
O O4 0.807622 0.389342 0.499268
O O5 0.653227 0.505498 0.758821
O O6 0.559836 0.777389 0.174214
O O7 0.595015 0.600150 0.151374
O O8 0.250000 0.750000 0.000000
O O9 0.500000 0.249066 0.750000
O O10 0.062131 0.275855 0.643568
O O11 0.260157 0.086985 0.702371
O O12 0.544457 0.942809 0.847013
#
# Coordination Sequence:
#
# PCOD9296531 Si02
#       6
#     8   4   8   8   8   8
#     4  11  23  43  69  96 134 178 224 273 334 399
#     4  12  24  40  68 102 136 168 236 284 328 386
#     4  11  25  43  69  97 139 178 224 272 343 401
#     4  11  22  46  65  96 134 177 220 276 336 401
#     4  11  25  42  68 101 132 172 224 285 331 396
#     4  10  23  45  67  93 135 180 220 272 345 397
#
# _framework density 25.117882999999999
#
# number of rings (size 3 to 8) (size 9 to 14) (size 15 to 20)
#    0.000    1.091    3.636    2.182    5.091    5.818 
#    0.000    1.818    0.000    0.000    0.000    0.000 
#    0.000    0.000    0.000    0.000    0.000    0.000 
#
# Total GULP energy -122962.609847 kJ/mol
# GULP energy per Si atom -5589.209539 kJ/mol
# Density = 2.506071 g / cm^3
# Si number density = 25.117883 Si / 1000 Ang^3
#
#
#
# Elastic Constant Matrix: (Units=GPa)
#
#
# Indices 1 2 3 4 5 6 
#
# 1 39.3041 -5.4079 4.2209 0.0000 2.1809 0.0000
# 2 -5.4079 63.6750 17.9394 0.0001 -8.6277 0.0000
# 3 4.2209 17.9394 150.4211 0.0002 -19.5936 0.0000
# 4 0.0000 0.0001 0.0002 19.9199 0.0000 -4.8944
# 5 2.1809 -8.6277 -19.5936 0.0000 32.0837 0.0000
# 6 0.0000 0.0000 0.0000 -4.8944 0.0000 23.8275
#
#
#
# Elastic Compliance Matrix: (Units=1/GPa)
#
#
# Indices 1 2 3 4 5 6 
#
# 1 0.026000 0.002302 -0.001253 0.000000 -0.001914 0.000000
# 2 0.002302 0.016816 -0.001631 0.000000 0.003369 0.000000
# 3 -0.001253 -0.001631 0.007422 0.000000 0.004179 0.000000
# 4 0.000000 0.000000 0.000000 0.052869 0.000000 0.010860
# 5 -0.001914 0.003369 0.004179 0.000000 0.034757 0.000000
# 6 0.000000 0.000000 0.000000 0.010860 0.000000 0.044199
#
#
# Mechanical properties :
#
#
# Convention : Reuss Voigt Hill
#
# Bulk Modulus (GPa) = 20.37767 31.87833 26.12800
# Shear Modulus (GPa) = 25.05173 30.94275 27.99724
#
# Velocity S-wave (km/s) = 3.16154 3.51365 3.34224
# Velocity P-wave (km/s) = 4.63223 5.40186 5.03178
#
# Compressibility (1/GPa) = 0.04907333
#
# Stress axis : x y z
#
# Youngs Moduli (GPa) = 38.46131 59.46580 134.73278
#
# Poissons Ratio (x) = -0.13689 0.16887
# Poissons Ratio (y) = -0.08854 0.21978
# Poissons Ratio (z) = 0.04821 0.09700
#
# Static dielectric constant tensor:
#      x y z
#    x 2.115430 0.000000 -0.051210 
#    y 0.000000 2.067200 0.000000 
#    z -0.051210 0.000000 2.069210 
# 
# From -- ./inp_files/292952.got.cif
#   From: 2010.05.17/outbox.cif.g08.bks.cpg/sg15_147_cif.got.tgz:292952.got - 2010.06.03 18:47:42.
