data_PCOD9296176
_publ_section_title
;
Structure prediction by ZEFSAII (Michael W. Deem and Ramdas Pophale) SiO2 
 PCOD9296176
Probable space group: C 2/C
;
_chemical_formula_sum "Si O2"
_cell_formula_units_Z 40
_cell_length_a 16.449224
_cell_length_b 12.872121
_cell_length_c 15.761962
_cell_angle_alpha 90.000000
_cell_angle_beta 153.513759
_cell_angle_gamma 90.000000
_cell_volume 1488.414879
_symmetry_space_group_name_H-M "C 2/C"
_symmetry_group_IT_number 15
_symmetry_cell_setting 'monoclinic'
loop_
_space_group_symop_operation_xyz
x,y,z
-x,y,1/2-z
-x,-y,-z
x,-y,1/2+z
1/2+x,1/2+y,z
1/2-x,1/2+y,1/2-z
1/2-x,1/2-y,-z
1/2+x,1/2-y,1/2+z
loop_
_atom_site_type_symbol
_atom_site_label
_atom_site_fract_x
_atom_site_fract_y
_atom_site_fract_z
Si Si1 0.784600 0.701239 0.224100
Si Si2 0.913517 0.570035 0.076066
Si Si3 0.611871 0.157347 0.940875
Si Si4 0.033689 0.895398 0.155868
Si Si5 0.956459 0.132091 0.343098
O O1 0.840682 0.821812 0.288094
O O2 0.680411 0.653990 0.206538
O O3 0.971717 0.642871 0.378511
O O4 0.652168 0.670862 0.020769
O O5 0.945520 0.452518 0.072125
O O6 0.000000 0.578532 0.250000
O O7 0.694624 0.591910 0.876381
O O8 0.500000 0.158291 0.750000
O O9 0.584327 0.268138 0.958756
O O10 0.828265 0.140140 0.139466
O O11 0.977284 0.014225 0.084626
#
# Coordination Sequence:
#
# PCOD9296176 Si02
#       5
#     8   8   8   8   8
#     4  12  24  44  69  96 141 175 226 278 326 398
#     4  10  25  46  68  98 135 180 225 276 333 394
#     4  10  23  44  68  99 135 172 222 277 338 396
#     4  11  25  44  65 103 129 178 230 267 342 391
#     4  11  25  41  69 101 134 174 225 273 339 395
#
# _framework density 26.874227999999999
#
# number of rings (size 3 to 8) (size 9 to 14) (size 15 to 20)
#    0.000    1.200    2.000    2.400    5.600    3.200 
#    0.000    0.000    0.000    0.000    0.000    0.000 
#    0.000    0.000    0.000    0.000    0.000    0.000 
#
# Total GULP energy -111573.523527 kJ/mol
# GULP energy per Si atom -5578.676176 kJ/mol
# Density = 2.681306 g / cm^3
# Si number density = 26.874228 Si / 1000 Ang^3
#
#
#
# Elastic Constant Matrix: (Units=GPa)
#
#
# Indices 1 2 3 4 5 6 
#
# 1 49.2278 33.4690 7.6603 0.0030 2.6765 0.0029
# 2 33.4690 221.1259 39.3152 0.0057 18.9035 0.0065
# 3 7.6603 39.3152 151.0312 0.0017 7.8783 0.0029
# 4 0.0030 0.0057 0.0017 43.2930 0.0018 13.9810
# 5 2.6765 18.9035 7.8783 0.0018 41.2748 0.0020
# 6 0.0029 0.0065 0.0029 13.9810 0.0020 18.5519
#
#
#
# Elastic Compliance Matrix: (Units=1/GPa)
#
#
# Indices 1 2 3 4 5 6 
#
# 1 0.022655 -0.003392 -0.000273 -0.000001 0.000137 -0.000002
# 2 -0.003392 0.005411 -0.001130 0.000000 -0.002043 -0.000001
# 3 -0.000273 -0.001130 0.006971 0.000000 -0.000795 -0.000001
# 4 -0.000001 0.000000 0.000000 0.030528 0.000000 -0.023007
# 5 0.000137 -0.002043 -0.000795 0.000000 0.025306 -0.000002
# 6 -0.000002 -0.000001 -0.000001 -0.023007 -0.000002 0.071241
#
#
# Mechanical properties :
#
#
# Convention : Reuss Voigt Hill
#
# Bulk Modulus (GPa) = 39.29842 64.69711 51.99777
# Shear Modulus (GPa) = 27.74924 43.35331 35.55127
#
# Velocity S-wave (km/s) = 3.21683 4.02081 3.64108
# Velocity P-wave (km/s) = 5.33406 6.75886 6.08828
#
# Compressibility (1/GPa) = 0.02544632
#
# Stress axis : x y z
#
# Youngs Moduli (GPa) = 44.14031 184.79971 143.45875
#
# Poissons Ratio (x) = 0.62686 0.03919
# Poissons Ratio (y) = 0.14973 0.16211
# Poissons Ratio (z) = 0.01206 0.20883
#
# Static dielectric constant tensor:
#      x y z
#    x 2.203420 0.000000 -0.131830 
#    y 0.000000 2.082760 0.000000 
#    z -0.131830 0.000000 2.234340 
# 
# From -- ./inp_files/255511.got.cif
#   From: 2010.05.17/outbox.cif.g08.bks.cpg/sg15_128_cif.got.tgz:255511.got - 2010.06.03 18:47:42.
