data_PCOD9296853
_publ_section_title
;
Structure prediction by ZEFSAII (Michael W. Deem and Ramdas Pophale) SiO2 
 PCOD9296853
Probable space group: C 2/C
;
_chemical_formula_sum "Si O2"
_cell_formula_units_Z 56
_cell_length_a 16.142721
_cell_length_b 26.906146
_cell_length_c 8.739283
_cell_angle_alpha 90.000000
_cell_angle_beta 40.222609
_cell_angle_gamma 90.000000
_cell_volume 2451.176182
_symmetry_space_group_name_H-M "C 2/C"
_symmetry_group_IT_number 15
_symmetry_cell_setting 'monoclinic'
loop_
_space_group_symop_operation_xyz
x,y,z
-x,y,1/2-z
-x,-y,-z
x,-y,1/2+z
1/2+x,1/2+y,z
1/2-x,1/2+y,1/2-z
1/2-x,1/2-y,-z
1/2+x,1/2-y,1/2+z
loop_
_atom_site_type_symbol
_atom_site_label
_atom_site_fract_x
_atom_site_fract_y
_atom_site_fract_z
Si Si1 0.213812 0.615634 0.867659
Si Si2 0.139808 0.439571 0.987857
Si Si3 0.227873 0.644928 0.532976
Si Si4 0.000000 0.313794 0.750000
Si Si5 0.000000 0.077377 0.750000
Si Si6 0.756648 0.475970 0.975625
Si Si7 0.563344 0.236280 0.832561
Si Si8 0.012160 0.852795 0.954210
O O1 0.163599 0.617559 0.766356
O O2 0.360242 0.636151 0.661306
O O3 0.126239 0.652538 0.086988
O O4 0.201252 0.560991 0.949243
O O5 0.168290 0.380621 0.966731
O O6 0.233880 0.469295 0.970608
O O7 0.000000 0.450174 0.250000
O O8 0.162927 0.461632 0.787860
O O9 0.191376 0.702351 0.618207
O O10 0.378826 0.632121 0.321269
O O11 0.012998 0.286616 0.566478
O O12 0.113033 0.041754 0.643933
O O13 0.049432 0.114779 0.549902
O O14 0.500000 0.232623 0.750000
O O15 0.546097 0.294244 0.903216
#
# Coordination Sequence:
#
# PCOD9296853 Si02
#       8
#     8   8   8   4   4   8   8   8
#     4  10  24  41  67  92 137 178 227 287 350 410
#     4  12  26  43  69 100 136 182 232 289 353 420
#     4  11  23  43  65  99 135 182 229 290 344 415
#     4  10  25  42  62 100 138 182 234 291 346 422
#     4  10  23  46  70 104 142 184 224 293 360 424
#     4  11  25  45  69 101 135 182 230 289 355 428
#     4  11  24  40  70 101 139 187 236 289 354 418
#     4  11  22  43  67  99 136 180 232 284 350 417
#
# _framework density 22.846176
#
# number of rings (size 3 to 8) (size 9 to 14) (size 15 to 20)
#    0.000    1.143    1.429    3.857    7.000    2.286 
#    2.571    0.000    0.000    0.000    0.000    0.000 
#    0.000    0.000    0.000    0.000    0.000    0.000 
#
# Total GULP energy -155950.780532 kJ/mol
# GULP energy per Si atom -5569.670733 kJ/mol
# Density = 2.279418 g / cm^3
# Si number density = 22.846176 Si / 1000 Ang^3
#
#
#
# Elastic Constant Matrix: (Units=GPa)
#
#
# Indices 1 2 3 4 5 6 
#
# 1 43.4249 19.1957 12.1351 0.0000 1.9866 0.0000
# 2 19.1957 123.1465 37.5033 0.0000 1.9705 0.0000
# 3 12.1351 37.5033 119.6612 0.0000 -1.2986 0.0000
# 4 0.0000 0.0000 0.0000 10.4396 0.0000 36.9700
# 5 1.9866 1.9705 -1.2986 0.0000 17.1218 0.0000
# 6 0.0000 0.0000 0.0000 36.9700 0.0000 289.4175
#
#
#
# Elastic Compliance Matrix: (Units=1/GPa)
#
#
# Indices 1 2 3 4 5 6 
#
# 1 0.025076 -0.003409 -0.001503 0.000000 -0.002631 0.000000
# 2 -0.003409 0.009467 -0.002631 0.000000 -0.000894 0.000000
# 3 -0.001503 -0.002631 0.009347 0.000000 0.001186 0.000000
# 4 0.000000 0.000000 0.000000 0.174913 0.000000 -0.022343
# 5 -0.002631 -0.000894 0.001186 0.000000 0.058903 0.000000
# 6 0.000000 0.000000 0.000000 -0.022343 0.000000 0.006309
#
#
# Mechanical properties :
#
#
# Convention : Reuss Voigt Hill
#
# Bulk Modulus (GPa) = 34.71802 47.10006 40.90904
# Shear Modulus (GPa) = 16.19680 77.88901 47.04291
#
# Velocity S-wave (km/s) = 2.66550 5.84524 4.54267
# Velocity P-wave (km/s) = 4.97017 8.13736 6.74238
#
# Compressibility (1/GPa) = 0.02880349
#
# Stress axis : x y z
#
# Youngs Moduli (GPa) = 39.87949 105.62588 106.98752
#
# Poissons Ratio (x) = 0.36006 0.16082
# Poissons Ratio (y) = 0.13594 0.28151
# Poissons Ratio (z) = 0.05994 0.27792
#
# Static dielectric constant tensor:
#      x y z
#    x 1.938030 0.000000 0.023940 
#    y 0.000000 1.869150 0.000000 
#    z 0.023940 0.000000 1.859610 
# 
# From -- ./inp_files/52338.got.cif
#   From: 2010.05.17/outbox.cif.g08.bks.cpg/sg15_27_cif.got.tgz:52338.got - 2010.06.03 18:47:42.
