data_PCOD9296140
_publ_section_title
;
Structure prediction by ZEFSAII (Michael W. Deem and Ramdas Pophale) SiO2 
 PCOD9296140
Probable space group: C 2/C
;
_chemical_formula_sum "Si O2"
_cell_formula_units_Z 60
_cell_length_a 18.258634
_cell_length_b 11.617249
_cell_length_c 22.587004
_cell_angle_alpha 90.000000
_cell_angle_beta 147.613434
_cell_angle_gamma 90.000000
_cell_volume 2566.221508
_symmetry_space_group_name_H-M "C 2/C"
_symmetry_group_IT_number 15
_symmetry_cell_setting 'monoclinic'
loop_
_space_group_symop_operation_xyz
x,y,z
-x,y,1/2-z
-x,-y,-z
x,-y,1/2+z
1/2+x,1/2+y,z
1/2-x,1/2+y,1/2-z
1/2-x,1/2-y,-z
1/2+x,1/2-y,1/2+z
loop_
_atom_site_type_symbol
_atom_site_label
_atom_site_fract_x
_atom_site_fract_y
_atom_site_fract_z
Si Si1 0.984235 0.545982 0.081335
Si Si2 0.000000 0.642378 0.750000
Si Si3 0.008294 0.954726 0.190352
Si Si4 0.604771 0.307892 0.913397
Si Si5 0.813605 0.525992 0.173946
Si Si6 0.384159 0.331691 0.441306
Si Si7 0.392653 0.700838 0.506449
Si Si8 0.204078 0.583795 0.127662
O O1 0.061490 0.538789 0.195953
O O2 0.106327 0.549865 0.115921
O O3 0.897179 0.663452 0.020082
O O4 0.883114 0.446204 0.990889
O O5 0.002910 0.724167 0.808665
O O6 0.131126 0.559988 0.838464
O O7 0.156575 0.011443 0.277537
O O8 0.000000 0.901744 0.250000
O O9 0.907985 0.065181 0.122634
O O10 0.960696 0.867016 0.107506
O O11 0.750000 0.250000 0.000000
O O12 0.573900 0.323464 0.961453
O O13 0.692649 0.451876 0.121285
O O14 0.752534 0.643238 0.107199
O O15 0.511917 0.319285 0.485544
O O16 0.286885 0.221661 0.362958
#
# Coordination Sequence:
#
# PCOD9296140 Si02
#       8
#     8   4   8   8   8   8   8   8
#     4  10  25  46  70  96 143 187 240 298 344 424
#     4  12  24  42  68 106 140 188 226 288 366 426
#     4  12  24  42  70 102 145 188 231 295 357 434
#     4  12  22  40  66 106 149 176 228 289 375 427
#     4  12  24  44  68 101 141 183 237 298 353 426
#     4  11  22  42  73 104 140 176 232 306 355 425
#     4  11  26  45  69 104 134 194 243 287 352 423
#     4  10  23  44  68 106 135 186 236 291 366 419
#
# _framework density 23.380676999999999
#
# number of rings (size 3 to 8) (size 9 to 14) (size 15 to 20)
#    0.000    0.800    3.333    3.600    3.733    1.067 
#    6.000    1.333    0.000    0.000    0.000    0.000 
#    0.000    0.000    0.000    0.000    0.000    0.000 
#
# Total GULP energy -167981.445329 kJ/mol
# GULP energy per Si atom -5599.381511 kJ/mol
# Density = 2.332746 g / cm^3
# Si number density = 23.380677 Si / 1000 Ang^3
#
#
#
# Elastic Constant Matrix: (Units=GPa)
#
#
# Indices 1 2 3 4 5 6 
#
# 1 75.9161 13.3165 32.3086 0.0000 -23.7433 0.0000
# 2 13.3165 88.2757 16.5176 0.0000 1.6551 0.0000
# 3 32.3086 16.5176 86.7541 -0.0001 -11.7330 0.0000
# 4 0.0000 0.0000 -0.0001 23.0997 0.0000 -3.2648
# 5 -23.7433 1.6551 -11.7330 0.0000 33.8399 0.0000
# 6 0.0000 0.0000 0.0000 -3.2648 0.0000 28.9013
#
#
#
# Elastic Compliance Matrix: (Units=1/GPa)
#
#
# Indices 1 2 3 4 5 6 
#
# 1 0.019539 -0.002193 -0.005236 0.000000 0.012001 0.000000
# 2 -0.002193 0.012058 -0.001854 0.000000 -0.002771 0.000000
# 3 -0.005236 -0.001854 0.014002 0.000000 0.001272 0.000000
# 4 0.000000 0.000000 0.000000 0.043993 0.000000 0.004970
# 5 0.012001 -0.002771 0.001272 0.000000 0.038548 0.000000
# 6 0.000000 0.000000 0.000000 0.004970 0.000000 0.035162
#
#
# Mechanical properties :
#
#
# Convention : Reuss Voigt Hill
#
# Bulk Modulus (GPa) = 36.99175 41.69236 39.34206
# Shear Modulus (GPa) = 26.19486 29.75507 27.97496
#
# Velocity S-wave (km/s) = 3.35081 3.57127 3.46280
# Velocity P-wave (km/s) = 5.55216 5.90559 5.73160
#
# Compressibility (1/GPa) = 0.02703305
#
# Stress axis : x y z
#
# Youngs Moduli (GPa) = 51.18013 82.93417 71.41954
#
# Poissons Ratio (x) = 0.18185 0.37396
# Poissons Ratio (y) = 0.11222 0.13240
# Poissons Ratio (z) = 0.26798 0.15375
#
# Static dielectric constant tensor:
#      x y z
#    x 1.907260 0.000000 0.017510 
#    y 0.000000 1.858260 0.000000 
#    z 0.017510 0.000000 1.909270 
# 
# From -- ./inp_files/280108.got.cif
#   From: 2010.05.17/outbox.cif.g08.bks.cpg/sg15_141_cif.got.tgz:280108.got - 2010.06.03 18:47:42.
