data_PCOD9296211
_publ_section_title
;
Structure prediction by ZEFSAII (Michael W. Deem and Ramdas Pophale) SiO2 
 PCOD9296211
Probable space group: C 2/C
;
_chemical_formula_sum "Si O2"
_cell_formula_units_Z 48
_cell_length_a 8.613589
_cell_length_b 18.079594
_cell_length_c 25.868560
_cell_angle_alpha 90.000000
_cell_angle_beta 147.770523
_cell_angle_gamma 90.000000
_cell_volume 2148.454002
_symmetry_space_group_name_H-M "C 2/C"
_symmetry_group_IT_number 15
_symmetry_cell_setting 'monoclinic'
loop_
_space_group_symop_operation_xyz
x,y,z
-x,y,1/2-z
-x,-y,-z
x,-y,1/2+z
1/2+x,1/2+y,z
1/2-x,1/2+y,1/2-z
1/2-x,1/2-y,-z
1/2+x,1/2-y,1/2+z
loop_
_atom_site_type_symbol
_atom_site_label
_atom_site_fract_x
_atom_site_fract_y
_atom_site_fract_z
Si Si1 0.000000 0.544680 0.750000
Si Si2 0.535661 0.174564 0.381329
Si Si3 0.575293 0.331807 0.104433
Si Si4 0.014629 0.678090 0.880336
Si Si5 0.057085 0.835562 0.604772
Si Si6 0.810929 0.053887 0.267493
Si Si7 0.000000 0.936967 0.250000
O O1 0.283318 0.596819 0.829599
O O2 0.030698 0.493273 0.708385
O O3 0.427324 0.258258 0.361119
O O4 0.726712 0.166755 0.383049
O O5 0.288688 0.113989 0.302723
O O6 0.752141 0.157840 0.490331
O O7 0.789348 0.321572 0.115737
O O8 0.884092 0.759666 0.848421
O O9 0.771776 0.615688 0.815224
O O10 0.234071 0.666561 0.990156
O O11 0.088548 0.902362 0.653408
O O12 0.031210 0.994016 0.306397
#
# Coordination Sequence:
#
# PCOD9296211 Si02
#       7
#     4   8   8   8   8   8   4
#     4  12  24  42  64 100 134 178 220 276 344 398
#     4  10  23  44  69  99 130 176 227 279 335 404
#     4  10  24  43  69  98 131 176 229 276 335 403
#     4  10  24  45  66  96 133 179 228 277 328 404
#     4  10  23  44  69  95 133 177 227 277 336 400
#     4  12  26  42  66 102 138 178 220 277 345 404
#     4  12  28  42  64 100 142 182 224 278 342 396
#
# _framework density 22.341646000000001
#
# number of rings (size 3 to 8) (size 9 to 14) (size 15 to 20)
#    0.000    1.333    3.333    0.000    9.333    2.667 
#    0.000    0.000    0.000    0.000    0.000    0.000 
#    0.000    0.000    0.000    0.000    0.000    0.000 
#
# Total GULP energy -134174.465656 kJ/mol
# GULP energy per Si atom -5590.602736 kJ/mol
# Density = 2.229080 g / cm^3
# Si number density = 22.341646 Si / 1000 Ang^3
#
#
#
# Elastic Constant Matrix: (Units=GPa)
#
#
# Indices 1 2 3 4 5 6 
#
# 1 76.8736 56.1626 19.3323 -0.0004 -6.5794 0.0003
# 2 56.1626 134.0469 30.2160 -0.0039 -11.8053 0.0012
# 3 19.3323 30.2160 54.8459 -0.0127 -8.2995 0.0034
# 4 -0.0004 -0.0039 -0.0127 -4.6820 -0.0032 1.6328
# 5 -6.5794 -11.8053 -8.2995 -0.0032 24.8141 0.0003
# 6 0.0003 0.0012 0.0034 1.6328 0.0003 58.0361
#
#
#
# Elastic Compliance Matrix: (Units=1/GPa)
#
#
# Indices 1 2 3 4 5 6 
#
# 1 0.019090 -0.007357 -0.002569 0.000011 0.000702 0.000000
# 2 -0.007357 0.011518 -0.003390 -0.000002 0.002395 0.000000
# 3 -0.002569 -0.003390 0.021760 -0.000059 0.004984 0.000000
# 4 0.000011 -0.000002 -0.000059 -0.211510 -0.000045 0.005951
# 5 0.000702 0.002395 0.004984 -0.000045 0.043292 0.000001
# 6 0.000000 0.000000 0.000000 0.005951 0.000001 0.017063
#
#
# Mechanical properties :
#
#
# Convention : Reuss Voigt Hill
#
# Bulk Modulus (GPa) = 38.85725 53.02089 45.93907
# Shear Modulus (GPa) = -78.64507 26.30401 -26.17053
#
# Velocity S-wave (km/s) = -5.93949 3.43498 -3.42625
# Velocity P-wave (km/s) = 5.44120 6.28614 2.22585
#
# Compressibility (1/GPa) = 0.02573522
#
# Stress axis : x y z
#
# Youngs Moduli (GPa) = 52.38462 86.82424 45.95551
#
# Poissons Ratio (x) = 0.63877 0.11807
# Poissons Ratio (y) = 0.38540 0.15577
# Poissons Ratio (z) = 0.13459 0.29430
#
# Static dielectric constant tensor:
#      x y z
#    x 1.861030 0.000000 -0.009800 
#    y 0.000000 1.829650 0.000000 
#    z -0.009800 0.000000 1.827430 
# 
# From -- ./inp_files/308855.got.cif
#   From: 2010.05.17/outbox.cif.g08.bks.cpg/sg15_155_cif.got.tgz:308855.got - 2010.06.03 18:47:42.
