data_PCOD9296325
_publ_section_title
;
Structure prediction by ZEFSAII (Michael W. Deem and Ramdas Pophale) SiO2 
 PCOD9296325
Probable space group: C 2/C
;
_chemical_formula_sum "Si O2"
_cell_formula_units_Z 64
_cell_length_a 22.991211
_cell_length_b 10.179622
_cell_length_c 27.548964
_cell_angle_alpha 90.000000
_cell_angle_beta 155.181551
_cell_angle_gamma 90.000000
_cell_volume 2706.348004
_symmetry_space_group_name_H-M "C 2/C"
_symmetry_group_IT_number 15
_symmetry_cell_setting 'monoclinic'
loop_
_space_group_symop_operation_xyz
x,y,z
-x,y,1/2-z
-x,-y,-z
x,-y,1/2+z
1/2+x,1/2+y,z
1/2-x,1/2+y,1/2-z
1/2-x,1/2-y,-z
1/2+x,1/2-y,1/2+z
loop_
_atom_site_type_symbol
_atom_site_label
_atom_site_fract_x
_atom_site_fract_y
_atom_site_fract_z
Si Si1 0.964440 0.870633 0.026674
Si Si2 0.066161 0.339508 0.680284
Si Si3 0.653943 0.745342 0.849704
Si Si4 0.792646 0.999380 0.968594
Si Si5 0.066495 0.837322 0.698645
Si Si6 0.660226 0.393478 0.665811
Si Si7 0.914618 0.586326 0.616335
Si Si8 0.161292 0.941235 0.860866
O O1 0.982692 0.758971 0.081175
O O2 0.101167 0.959509 0.128295
O O3 0.842233 0.973744 0.950995
O O4 0.925985 0.828281 0.943686
O O5 0.142811 0.262384 0.782728
O O6 0.182839 0.395508 0.732729
O O7 0.979846 0.454311 0.641975
O O8 0.500000 0.777182 0.750000
O O9 0.752236 0.849439 0.951092
O O10 0.680822 0.595965 0.882974
O O11 0.653806 0.070398 0.881945
O O12 0.929764 0.067493 0.093741
O O13 0.022577 0.701297 0.689437
O O14 0.126239 0.822067 0.690289
O O15 0.178210 0.905303 0.817725
O O16 0.778196 0.624687 0.481513
O O17 0.000000 0.910322 0.750000
#
# Coordination Sequence:
#
# PCOD9296325 Si02
#       8
#     8   8   8   8   8   8   8   8
#     4  10  23  44  71  97 136 187 235 305 362 428
#     4  12  25  42  69 106 138 185 241 302 351 432
#     4  11  22  39  68 107 141 178 227 297 364 419
#     4  11  21  43  68 103 140 180 235 292 359 430
#     4  11  26  49  68  99 149 199 233 298 360 439
#     4  10  24  46  69  95 136 193 243 288 365 428
#     4  12  27  43  71 110 140 192 245 293 361 446
#     4  11  25  44  70 105 144 183 229 297 374 418
#
# _framework density 23.648105000000001
#
# number of rings (size 3 to 8) (size 9 to 14) (size 15 to 20)
#    0.000    1.000    3.750    2.625    3.500    3.000 
#    0.000    1.250    0.000    0.000    0.000    0.000 
#    0.000    0.000    0.000    0.000    0.000    0.000 
#
# Total GULP energy -178728.603435 kJ/mol
# GULP energy per Si atom -5585.268857 kJ/mol
# Density = 2.359428 g / cm^3
# Si number density = 23.648105 Si / 1000 Ang^3
#
#
#
# Elastic Constant Matrix: (Units=GPa)
#
#
# Indices 1 2 3 4 5 6 
#
# 1 174.9795 42.6354 37.3364 0.0002 9.9705 0.0000
# 2 42.6354 87.2497 30.4127 0.0011 -3.4082 0.0001
# 3 37.3364 30.4127 52.4312 0.0026 6.2505 -0.0002
# 4 0.0002 0.0011 0.0026 32.0679 0.0004 2.8226
# 5 9.9705 -3.4082 6.2505 0.0004 51.9416 -0.0001
# 6 0.0000 0.0001 -0.0002 2.8226 -0.0001 33.3088
#
#
#
# Elastic Compliance Matrix: (Units=1/GPa)
#
#
# Indices 1 2 3 4 5 6 
#
# 1 0.007097 -0.002247 -0.003622 0.000000 -0.001074 0.000000
# 2 -0.002247 0.015280 -0.007542 0.000000 0.002342 0.000000
# 3 -0.003622 -0.007542 0.026381 -0.000002 -0.002974 0.000000
# 4 0.000000 0.000000 -0.000002 0.031418 0.000000 -0.002662
# 5 -0.001074 0.002342 -0.002974 0.000000 0.019970 0.000000
# 6 0.000000 0.000000 0.000000 -0.002662 0.000000 0.030248
#
#
# Mechanical properties :
#
#
# Convention : Reuss Voigt Hill
#
# Bulk Modulus (GPa) = 45.58883 59.49217 52.54050
# Shear Modulus (GPa) = 30.39005 37.08204 33.73605
#
# Velocity S-wave (km/s) = 3.58871 3.96419 3.78111
# Velocity P-wave (km/s) = 6.04083 6.79448 6.42871
#
# Compressibility (1/GPa) = 0.02193520
#
# Stress axis : x y z
#
# Youngs Moduli (GPa) = 140.91387 65.44557 37.90594
#
# Poissons Ratio (x) = 0.14707 0.13729
# Poissons Ratio (y) = 0.31667 0.28589
# Poissons Ratio (z) = 0.51038 0.49359
#
# Static dielectric constant tensor:
#      x y z
#    x 1.942030 0.000000 0.009650 
#    y 0.000000 1.902150 0.000000 
#    z 0.009650 0.000000 1.954990 
# 
# From -- ./inp_files/300863.got.cif
#   From: 2010.05.17/outbox.cif.g08.bks.cpg/sg15_151_cif.got.tgz:300863.got - 2010.06.03 18:47:42.
