data_PCOD9296908
_publ_section_title
;
Structure prediction by ZEFSAII (Michael W. Deem and Ramdas Pophale) SiO2 
 PCOD9296908
Probable space group: C 2/C
;
_chemical_formula_sum "Si O2"
_cell_formula_units_Z 56
_cell_length_a 12.792914
_cell_length_b 26.633833
_cell_length_c 8.893590
_cell_angle_alpha 90.000000
_cell_angle_beta 63.397097
_cell_angle_gamma 90.000000
_cell_volume 2709.453338
_symmetry_space_group_name_H-M "C 2/C"
_symmetry_group_IT_number 15
_symmetry_cell_setting 'monoclinic'
loop_
_space_group_symop_operation_xyz
x,y,z
-x,y,1/2-z
-x,-y,-z
x,-y,1/2+z
1/2+x,1/2+y,z
1/2-x,1/2+y,1/2-z
1/2-x,1/2-y,-z
1/2+x,1/2-y,1/2+z
loop_
_atom_site_type_symbol
_atom_site_label
_atom_site_fract_x
_atom_site_fract_y
_atom_site_fract_z
Si Si1 0.420021 0.477422 0.682682
Si Si2 0.056244 0.652799 0.380730
Si Si3 0.204385 0.924872 0.195525
Si Si4 0.296441 0.612623 0.130129
Si Si5 0.540315 0.052060 0.895424
Si Si6 0.605385 0.248727 0.555298
Si Si7 0.535455 0.340654 0.401096
O O1 0.500000 0.448593 0.750000
O O2 0.500000 0.500000 0.500000
O O3 0.367625 0.525654 0.799299
O O4 0.320299 0.441424 0.686612
O O5 0.192150 0.641363 0.271030
O O6 0.059744 0.698866 0.495776
O O7 0.000000 0.662795 0.250000
O O8 0.002634 0.601568 0.486055
O O9 0.320115 0.943431 0.199551
O O10 0.123045 0.887897 0.342453
O O11 0.234497 0.896054 0.023931
O O12 0.416956 0.642553 0.057915
O O13 0.500000 0.052960 0.750000
O O14 0.500000 0.000000 0.000000
O O15 0.500000 0.255755 0.750000
O O16 0.750000 0.250000 0.500000
O O17 0.591898 0.294186 0.446900
O O18 0.500000 0.330346 0.250000
#
# Coordination Sequence:
#
# PCOD9296908 Si02
#       7
#     8   8   8   8   8   8   8
#     4  12  22  38  64 101 140 182 231 289 356 420
#     4  12  26  48  75 104 141 193 241 291 364 440
#     4  11  23  42  69  98 139 182 237 291 349 428
#     4  11  23  44  68 101 140 180 236 293 349 428
#     4  12  28  46  70 104 146 192 241 295 354 431
#     4  12  29  49  75 110 147 184 242 307 370 436
#     4  10  23  46  72 101 135 183 236 292 358 427
#
# _framework density 20.668375000000001
#
# number of rings (size 3 to 8) (size 9 to 14) (size 15 to 20)
#    0.000    0.571    4.286    3.429    6.000    2.857 
#    0.000    3.571    0.000    0.000    0.000    0.000 
#    0.000    0.000    0.000    0.000    0.000    0.000 
#
# Total GULP energy -156288.040132 kJ/mol
# GULP energy per Si atom -5581.715719 kJ/mol
# Density = 2.062133 g / cm^3
# Si number density = 20.668375 Si / 1000 Ang^3
#
#
#
# Elastic Constant Matrix: (Units=GPa)
#
#
# Indices 1 2 3 4 5 6 
#
# 1 155.4035 55.7628 48.7436 0.0000 -3.4992 0.0000
# 2 55.7628 114.7828 22.5934 0.0000 2.1722 0.0000
# 3 48.7436 22.5934 69.5656 0.0000 -5.8917 0.0000
# 4 0.0000 0.0000 0.0000 13.3951 0.0000 6.2461
# 5 -3.4992 2.1722 -5.8917 0.0000 29.9616 0.0000
# 6 0.0000 0.0000 0.0000 6.2461 0.0000 37.0021
#
#
#
# Elastic Compliance Matrix: (Units=1/GPa)
#
#
# Indices 1 2 3 4 5 6 
#
# 1 0.009400 -0.003504 -0.005424 0.000000 0.000285 0.000000
# 2 -0.003504 0.010663 -0.001126 0.000000 -0.001404 0.000000
# 3 -0.005424 -0.001126 0.018808 0.000000 0.003147 0.000000
# 4 0.000000 0.000000 0.000000 0.081033 0.000000 -0.013679
# 5 0.000285 -0.001404 0.003147 0.000000 0.034130 0.000000
# 6 0.000000 0.000000 0.000000 -0.013679 0.000000 0.029335
#
#
# Mechanical properties :
#
#
# Convention : Reuss Voigt Hill
#
# Bulk Modulus (GPa) = 53.30281 65.99463 59.64872
# Shear Modulus (GPa) = 23.83997 30.24855 27.04426
#
# Velocity S-wave (km/s) = 3.39993 3.82975 3.62122
# Velocity P-wave (km/s) = 6.42326 7.18022 6.81226
#
# Compressibility (1/GPa) = 0.01876074
#
# Stress axis : x y z
#
# Youngs Moduli (GPa) = 106.38190 93.78330 53.16901
#
# Poissons Ratio (x) = 0.32865 0.28840
# Poissons Ratio (y) = 0.37280 0.05989
# Poissons Ratio (z) = 0.57704 0.10565
#
# Static dielectric constant tensor:
#      x y z
#    x 1.567930 0.000000 -0.057950 
#    y 0.000000 1.730970 0.000000 
#    z -0.057950 0.000000 1.731460 
# 
# From -- ./inp_files/35543.got.cif
#   From: 2010.05.17/outbox.cif.g08.bks.cpg/sg15_18_cif.got.tgz:35543.got - 2010.06.03 18:47:42.
