data_PCOD9296282
_publ_section_title
;
Structure prediction by ZEFSAII (Michael W. Deem and Ramdas Pophale) SiO2 
 PCOD9296282
Probable space group: C 2/C
;
_chemical_formula_sum "Si O2"
_cell_formula_units_Z 36
_cell_length_a 9.760946
_cell_length_b 25.345603
_cell_length_c 8.831711
_cell_angle_alpha 90.000000
_cell_angle_beta 47.241053
_cell_angle_gamma 90.000000
_cell_volume 1604.218532
_symmetry_space_group_name_H-M "C 2/C"
_symmetry_group_IT_number 15
_symmetry_cell_setting 'monoclinic'
loop_
_space_group_symop_operation_xyz
x,y,z
-x,y,1/2-z
-x,-y,-z
x,-y,1/2+z
1/2+x,1/2+y,z
1/2-x,1/2+y,1/2-z
1/2-x,1/2-y,-z
1/2+x,1/2-y,1/2+z
loop_
_atom_site_type_symbol
_atom_site_label
_atom_site_fract_x
_atom_site_fract_y
_atom_site_fract_z
Si Si1 0.000000 0.158049 0.750000
Si Si2 0.500000 0.900888 0.250000
Si Si3 0.000000 0.217284 0.250000
Si Si4 0.270820 0.189333 0.796120
Si Si5 0.210615 0.972859 0.648058
Si Si6 0.714711 0.074386 0.081160
O O1 0.866233 0.190358 0.741213
O O2 0.137146 0.120830 0.549585
O O3 0.595816 0.861351 0.299381
O O4 0.349440 0.937107 0.445382
O O5 0.853788 0.185168 0.457932
O O6 0.888603 0.257315 0.224149
O O7 0.235849 0.957827 0.803802
O O8 0.000000 0.964420 0.750000
O O9 0.261757 0.033595 0.575578
O O10 0.500000 0.092116 0.250000
#
# Coordination Sequence:
#
# PCOD9296282 Si02
#       6
#     4   4   4   8   8   8
#     4  12  26  42  65 104 136 166 225 272 326 380
#     4  11  24  40  70  98 128 180 232 262 316 397
#     4   9  22  48  73  94 126 168 211 268 356 399
#     4  10  23  44  70  99 128 165 218 276 328 410
#     4  12  25  41  65  92 136 186 226 266 321 369
#     4  12  26  42  62  96 138 184 224 271 315 375
#
# _framework density 22.440832
#
# number of rings (size 3 to 8) (size 9 to 14) (size 15 to 20)
#    0.000    0.889    2.222    4.000    7.778    0.889 
#    4.000    0.000    0.000    0.000    0.000    0.000 
#    0.000    0.000    0.000    0.000    0.000    0.000 
#
# Total GULP energy -100878.903105 kJ/mol
# GULP energy per Si atom -5604.383506 kJ/mol
# Density = 2.238976 g / cm^3
# Si number density = 22.440832 Si / 1000 Ang^3
#
#
#
# Elastic Constant Matrix: (Units=GPa)
#
#
# Indices 1 2 3 4 5 6 
#
# 1 151.1422 30.3279 22.3047 0.0000 -15.5582 0.0000
# 2 30.3279 42.2047 15.3341 0.0000 -6.3154 0.0000
# 3 22.3047 15.3341 89.1713 0.0000 -25.2555 0.0000
# 4 0.0000 0.0000 0.0000 11.9666 0.0000 9.9835
# 5 -15.5582 -6.3154 -25.2555 0.0000 43.1359 0.0000
# 6 0.0000 0.0000 0.0000 9.9835 0.0000 -1.3662
#
#
#
# Elastic Compliance Matrix: (Units=1/GPa)
#
#
# Indices 1 2 3 4 5 6 
#
# 1 0.007932 -0.005223 -0.000590 0.000000 0.001751 0.000000
# 2 -0.005223 0.028782 -0.003576 0.000000 0.000236 0.000000
# 3 -0.000590 -0.003576 0.014108 0.000000 0.007524 0.000000
# 4 0.000000 0.000000 0.000000 0.011776 0.000000 0.086050
# 5 0.001751 0.000236 0.007524 0.000000 0.028253 0.000000
# 6 0.000000 0.000000 0.000000 0.086050 0.000000 -0.103143
#
#
# Mechanical properties :
#
#
# Convention : Reuss Voigt Hill
#
# Bulk Modulus (GPa) = 31.20805 46.49460 38.85133
# Shear Modulus (GPa) = 291.25771 25.05070 158.15421
#
# Velocity S-wave (km/s) = 11.40486 3.34473 8.40411
# Velocity P-wave (km/s) = 13.68813 5.97328 10.56042
#
# Compressibility (1/GPa) = 0.03204301
#
# Stress axis : x y z
#
# Youngs Moduli (GPa) = 126.07718 34.74381 70.88311
#
# Poissons Ratio (x) = 0.18148 0.04182
# Poissons Ratio (y) = 0.65854 0.25348
# Poissons Ratio (z) = 0.07438 0.12424
#
# Static dielectric constant tensor:
#      x y z
#    x 1.826760 0.000000 0.008690 
#    y 0.000000 1.779340 0.000000 
#    z 0.008690 0.000000 1.815200 
# 
# From -- ./inp_files/24362.got.cif
#   From: 2010.05.17/outbox.cif.g08.bks.cpg/sg15_13_cif.got.tgz:24362.got - 2010.06.03 18:47:42.
