data_PCOD9296278
_publ_section_title
;
Structure prediction by ZEFSAII (Michael W. Deem and Ramdas Pophale) SiO2 
 PCOD9296278
Probable space group: C 2/C
;
_chemical_formula_sum "Si O2"
_cell_formula_units_Z 48
_cell_length_a 16.982378
_cell_length_b 7.797572
_cell_length_c 27.305485
_cell_angle_alpha 90.000000
_cell_angle_beta 148.678782
_cell_angle_gamma 90.000000
_cell_volume 1879.635889
_symmetry_space_group_name_H-M "C 2/C"
_symmetry_group_IT_number 15
_symmetry_cell_setting 'monoclinic'
loop_
_space_group_symop_operation_xyz
x,y,z
-x,y,1/2-z
-x,-y,-z
x,-y,1/2+z
1/2+x,1/2+y,z
1/2-x,1/2+y,1/2-z
1/2-x,1/2-y,-z
1/2+x,1/2-y,1/2+z
loop_
_atom_site_type_symbol
_atom_site_label
_atom_site_fract_x
_atom_site_fract_y
_atom_site_fract_z
Si Si1 0.914221 0.663078 0.088235
Si Si2 0.643935 0.438768 0.202884
Si Si3 0.660105 0.804049 0.100857
Si Si4 0.977908 0.175454 0.187929
Si Si5 0.146568 0.525989 0.276798
Si Si6 0.141506 0.381881 0.515177
O O1 0.034352 0.788178 0.125239
O O2 0.996512 0.635519 0.183981
O O3 0.750000 0.750000 0.000000
O O4 0.910522 0.476005 0.061971
O O5 0.750479 0.374568 0.303869
O O6 0.535388 0.577836 0.170676
O O7 0.748881 0.508693 0.216044
O O8 0.746204 0.632469 0.130315
O O9 0.663248 0.953203 0.062473
O O10 0.489098 0.773105 0.028401
O O11 0.799798 0.209638 0.089810
O O12 0.000000 0.066965 0.250000
O O13 0.087208 0.336762 0.254879
#
# Coordination Sequence:
#
# PCOD9296278 Si02
#       6
#     8   8   8   8   8   8
#     4  11  23  40  65 100 131 177 231 287 335 414
#     4  11  22  44  70  97 140 187 231 280 353 421
#     4  10  23  44  70  98 140 186 229 289 357 418
#     4  12  25  44  71 105 141 182 235 288 354 418
#     4  11  26  43  69 101 139 185 232 290 352 418
#     4  11  23  43  73 102 139 184 236 288 354 415
#
# _framework density 25.536863
#
# number of rings (size 3 to 8) (size 9 to 14) (size 15 to 20)
#    0.000    1.000    5.000    2.000    0.000    3.333 
#    0.000    1.667    0.000    0.000    0.000    0.000 
#    0.000    0.000    0.000    0.000    0.000    0.000 
#
# Total GULP energy -134376.604444 kJ/mol
# GULP energy per Si atom -5599.025185 kJ/mol
# Density = 2.547874 g / cm^3
# Si number density = 25.536863 Si / 1000 Ang^3
#
#
#
# Elastic Constant Matrix: (Units=GPa)
#
#
# Indices 1 2 3 4 5 6 
#
# 1 128.7114 26.4528 34.0912 0.0000 39.3161 0.0000
# 2 26.4528 89.3325 32.2814 0.0000 24.0871 -0.0001
# 3 34.0912 32.2814 106.7738 0.0000 38.7749 0.0000
# 4 0.0000 0.0000 0.0000 58.8888 0.0000 13.4499
# 5 39.3161 24.0871 38.7749 0.0000 48.9282 0.0000
# 6 0.0000 -0.0001 0.0000 13.4499 0.0000 21.8226
#
#
#
# Elastic Compliance Matrix: (Units=1/GPa)
#
#
# Indices 1 2 3 4 5 6 
#
# 1 0.010370 -0.000909 -0.000242 0.000000 -0.007694 0.000000
# 2 -0.000909 0.013380 -0.002286 0.000000 -0.004045 0.000000
# 3 -0.000242 -0.002286 0.013556 0.000000 -0.009423 0.000000
# 4 0.000000 0.000000 0.000000 0.019763 0.000000 -0.012181
# 5 -0.007694 -0.004045 -0.009423 0.000000 0.036079 0.000000
# 6 0.000000 0.000000 0.000000 -0.012181 0.000000 0.053331
#
#
# Mechanical properties :
#
#
# Convention : Reuss Voigt Hill
#
# Bulk Modulus (GPa) = 32.86044 56.71871 44.78958
# Shear Modulus (GPa) = 30.58136 41.39408 35.98772
#
# Velocity S-wave (km/s) = 3.46430 4.03048 3.75806
# Velocity P-wave (km/s) = 5.37565 6.62709 6.03390
#
# Compressibility (1/GPa) = 0.03043173
#
# Stress axis : x y z
#
# Youngs Moduli (GPa) = 96.42846 74.73825 73.76793
#
# Poissons Ratio (x) = 0.06792 0.01788
# Poissons Ratio (y) = 0.08763 0.16865
# Poissons Ratio (z) = 0.02338 0.17086
#
# Static dielectric constant tensor:
#      x y z
#    x 2.014040 0.000000 -0.046220 
#    y 0.000000 2.080040 0.000000 
#    z -0.046220 0.000000 2.018620 
# 
# From -- ./inp_files/224515.got.cif
#   From: 2010.05.17/outbox.cif.g08.bks.cpg/sg15_113_cif.got.tgz:224515.got - 2010.06.03 18:47:42.
