data_PCOD9296037
_publ_section_title
;
Structure prediction by ZEFSAII (Michael W. Deem and Ramdas Pophale) SiO2 
 PCOD9296037
Probable space group: C 2/C
;
_chemical_formula_sum "Si O2"
_cell_formula_units_Z 44
_cell_length_a 21.987022
_cell_length_b 4.934201
_cell_length_c 18.469264
_cell_angle_alpha 90.000000
_cell_angle_beta 54.740317
_cell_angle_gamma 90.000000
_cell_volume 1636.109748
_symmetry_space_group_name_H-M "C 2/C"
_symmetry_group_IT_number 15
_symmetry_cell_setting 'monoclinic'
loop_
_space_group_symop_operation_xyz
x,y,z
-x,y,1/2-z
-x,-y,-z
x,-y,1/2+z
1/2+x,1/2+y,z
1/2-x,1/2+y,1/2-z
1/2-x,1/2-y,-z
1/2+x,1/2-y,1/2+z
loop_
_atom_site_type_symbol
_atom_site_label
_atom_site_fract_x
_atom_site_fract_y
_atom_site_fract_z
Si Si1 0.068058 0.602469 0.342031
Si Si2 0.123612 0.827709 0.588376
Si Si3 0.303526 0.261147 0.814645
Si Si4 0.327055 0.524189 0.155701
Si Si5 0.098552 0.365037 0.511605
Si Si6 0.000000 0.546320 0.250000
O O1 0.122279 0.369343 0.273600
O O2 0.987444 0.540754 0.431101
O O3 0.043983 0.724638 0.278950
O O4 0.110717 0.803523 0.365764
O O5 0.178291 0.866971 0.618668
O O6 0.146903 0.608308 0.511530
O O7 0.055593 0.656935 0.670517
O O8 0.104303 0.105985 0.561675
O O9 0.283550 0.462130 0.762855
O O10 0.237455 0.046420 0.857240
O O11 0.372137 0.763436 0.085349
#
# Coordination Sequence:
#
# PCOD9296037 Si02
#       6
#     8   8   8   8   8   4
#     4  10  23  44  66 103 133 186 233 298 346 421
#     4  10  25  45  70 106 139 191 233 293 350 428
#     4  11  26  44  73 100 147 193 240 284 356 436
#     4  12  26  44  71 102 144 187 234 296 358 426
#     4  11  27  45  74 105 143 180 241 300 359 405
#     4   8  20  40  70  94 136 176 244 288 350 412
#
# _framework density 26.893059999999998
#
# number of rings (size 3 to 8) (size 9 to 14) (size 15 to 20)
#    0.000    1.455    1.818    0.545   17.818    2.909 
#    0.000    0.000    0.000    0.000    0.000    0.000 
#    0.000    0.000    0.000    0.000    0.000    0.000 
#
# Total GULP energy -123026.773425 kJ/mol
# GULP energy per Si atom -5592.126065 kJ/mol
# Density = 2.683185 g / cm^3
# Si number density = 26.893060 Si / 1000 Ang^3
#
#
#
# Elastic Constant Matrix: (Units=GPa)
#
#
# Indices 1 2 3 4 5 6 
#
# 1 108.8977 20.5412 45.7247 0.0285 10.1430 -0.0028
# 2 20.5412 101.4894 32.7888 0.2758 6.9928 0.1055
# 3 45.7247 32.7888 108.7204 0.0500 16.1307 0.0476
# 4 0.0285 0.2758 0.0500 63.7504 0.0154 4.0552
# 5 10.1430 6.9928 16.1307 0.0154 62.6844 0.0445
# 6 -0.0028 0.1055 0.0476 4.0552 0.0445 26.1434
#
#
#
# Elastic Compliance Matrix: (Units=1/GPa)
#
#
# Indices 1 2 3 4 5 6 
#
# 1 0.011236 -0.000814 -0.004391 0.000001 -0.000597 0.000013
# 2 -0.000814 0.010985 -0.002920 -0.000043 -0.000342 -0.000032
# 3 -0.004391 -0.002920 0.012239 0.000006 -0.002113 -0.000008
# 4 0.000001 -0.000043 0.000006 0.015843 0.000001 -0.002457
# 5 -0.000597 -0.000342 -0.002113 0.000001 0.016632 -0.000023
# 6 0.000013 -0.000032 -0.000008 -0.002457 -0.000023 0.038632
#
#
# Mechanical properties :
#
#
# Convention : Reuss Voigt Hill
#
# Bulk Modulus (GPa) = 54.91698 57.46856 56.19277
# Shear Modulus (GPa) = 39.09718 45.18584 42.14151
#
# Velocity S-wave (km/s) = 3.81701 4.10348 3.96283
# Velocity P-wave (km/s) = 6.31593 6.62322 6.47140
#
# Compressibility (1/GPa) = 0.01820930
#
# Stress axis : x y z
#
# Youngs Moduli (GPa) = 88.99933 91.03265 81.70692
#
# Poissons Ratio (x) = 0.07412 0.35881
# Poissons Ratio (y) = 0.07247 0.23856
# Poissons Ratio (z) = 0.39083 0.26579
#
# Static dielectric constant tensor:
#      x y z
#    x 2.225270 0.000160 0.053410 
#    y 0.000160 2.190030 -0.000160 
#    z 0.053410 -0.000160 2.167220 
# 
# From -- ./inp_files/217446.got.cif
#   From: 2010.05.17/outbox.cif.g08.bks.cpg/sg15_109_cif.got.tgz:217446.got - 2010.06.03 18:47:42.
