data_PCOD9296499
_publ_section_title
;
Structure prediction by ZEFSAII (Michael W. Deem and Ramdas Pophale) SiO2 
 PCOD9296499
Probable space group: C 2/C
;
_chemical_formula_sum "Si O2"
_cell_formula_units_Z 32
_cell_length_a 7.345091
_cell_length_b 23.868039
_cell_length_c 11.670877
_cell_angle_alpha 90.000000
_cell_angle_beta 44.129547
_cell_angle_gamma 90.000000
_cell_volume 1424.633741
_symmetry_space_group_name_H-M "C 2/C"
_symmetry_group_IT_number 15
_symmetry_cell_setting 'monoclinic'
loop_
_space_group_symop_operation_xyz
x,y,z
-x,y,1/2-z
-x,-y,-z
x,-y,1/2+z
1/2+x,1/2+y,z
1/2-x,1/2+y,1/2-z
1/2-x,1/2-y,-z
1/2+x,1/2-y,1/2+z
loop_
_atom_site_type_symbol
_atom_site_label
_atom_site_fract_x
_atom_site_fract_y
_atom_site_fract_z
Si Si1 0.518625 0.705408 0.611052
Si Si2 0.026289 0.132125 0.065303
Si Si3 0.500000 0.732027 0.250000
Si Si4 0.000000 0.435823 0.250000
Si Si5 0.127993 0.014680 0.314171
O O1 0.500000 0.687258 0.750000
O O2 0.599224 0.654488 0.494166
O O3 0.243511 0.732108 0.689749
O O4 0.750000 0.750000 0.500000
O O5 0.078658 0.187353 0.116359
O O6 0.854827 0.082259 0.196014
O O7 0.294467 0.103392 0.906348
O O8 0.884701 0.477527 0.207275
O O9 0.000000 0.999151 0.250000
O O10 0.000000 0.000000 0.500000
#
# Coordination Sequence:
#
# PCOD9296499 Si02
#       5
#     8   8   4   4   8
#     4  12  27  46  71 106 144 188 238 292 353 427
#     4  11  24  45  70 101 141 189 228 294 359 419
#     4  12  25  48  68 106 146 182 241 292 348 430
#     4  10  25  44  72 102 138 188 235 300 356 426
#     4  10  23  45  66 103 138 179 240 291 354 425
#
# _framework density 22.461915000000001
#
# number of rings (size 3 to 8) (size 9 to 14) (size 15 to 20)
#    0.000    1.000    3.750    1.500    3.500   10.000 
#    0.000    0.000    0.000    0.000    0.000    0.000 
#    0.000    0.000    0.000    0.000    0.000    0.000 
#
# Total GULP energy -89293.656664 kJ/mol
# GULP energy per Si atom -5580.853542 kJ/mol
# Density = 2.241079 g / cm^3
# Si number density = 22.461915 Si / 1000 Ang^3
#
#
#
# Elastic Constant Matrix: (Units=GPa)
#
#
# Indices 1 2 3 4 5 6 
#
# 1 155.8590 51.1115 32.3828 0.0000 28.0118 0.0000
# 2 51.1115 89.9896 11.7360 0.0000 3.2692 0.0000
# 3 32.3828 11.7360 44.5680 0.0000 18.4973 0.0000
# 4 0.0000 0.0000 0.0000 20.5381 0.0000 -18.6073
# 5 28.0118 3.2692 18.4973 0.0000 49.6091 0.0000
# 6 0.0000 0.0000 0.0000 -18.6073 0.0000 7.5663
#
#
#
# Elastic Compliance Matrix: (Units=1/GPa)
#
#
# Indices 1 2 3 4 5 6 
#
# 1 0.009449 -0.004694 -0.004192 0.000000 -0.003463 0.000000
# 2 -0.004694 0.013848 -0.001132 0.000000 0.002160 0.000000
# 3 -0.004192 -0.001132 0.029303 0.000000 -0.008484 0.000000
# 4 0.000000 0.000000 0.000000 -0.039648 0.000000 -0.097505
# 5 -0.003463 0.002160 -0.008484 0.000000 0.025134 0.000000
# 6 0.000000 0.000000 0.000000 -0.097505 0.000000 -0.107622
#
#
# Mechanical properties :
#
#
# Convention : Reuss Voigt Hill
#
# Bulk Modulus (GPa) = 30.71030 53.43081 42.07056
# Shear Modulus (GPa) = -129.37916 28.55511 -50.41202
#
# Velocity S-wave (km/s) = -7.59766 3.56935 -4.74258
# Velocity P-wave (km/s) = 7.95387 6.38952 3.34948
#
# Compressibility (1/GPa) = 0.03256236
#
# Stress axis : x y z
#
# Youngs Moduli (GPa) = 105.83386 72.21410 34.12618
#
# Poissons Ratio (x) = 0.33898 0.14306
# Poissons Ratio (y) = 0.49680 0.03864
# Poissons Ratio (z) = 0.44367 0.08177
#
# Static dielectric constant tensor:
#      x y z
#    x 1.862200 0.000000 0.000390 
#    y 0.000000 1.889090 0.000000 
#    z 0.000390 0.000000 1.993040 
# 
# From -- ./inp_files/72877.got.cif
#   From: 2010.05.17/outbox.cif.g08.bks.cpg/sg15_37_cif.got.tgz:72877.got - 2010.06.03 18:47:42.
