data_PCOD9296458
_publ_section_title
;
Structure prediction by ZEFSAII (Michael W. Deem and Ramdas Pophale) SiO2 
 PCOD9296458
Probable space group: C 2/C
;
_chemical_formula_sum "Si O2"
_cell_formula_units_Z 52
_cell_length_a 14.852425
_cell_length_b 14.318193
_cell_length_c 13.554744
_cell_angle_alpha 90.000000
_cell_angle_beta 113.739904
_cell_angle_gamma 90.000000
_cell_volume 2638.635938
_symmetry_space_group_name_H-M "C 2/C"
_symmetry_group_IT_number 15
_symmetry_cell_setting 'monoclinic'
loop_
_space_group_symop_operation_xyz
x,y,z
-x,y,1/2-z
-x,-y,-z
x,-y,1/2+z
1/2+x,1/2+y,z
1/2-x,1/2+y,1/2-z
1/2-x,1/2-y,-z
1/2+x,1/2-y,1/2+z
loop_
_atom_site_type_symbol
_atom_site_label
_atom_site_fract_x
_atom_site_fract_y
_atom_site_fract_z
Si Si1 0.267420 0.113475 0.819287
Si Si2 0.500000 0.016972 0.750000
Si Si3 0.449573 0.799619 0.328222
Si Si4 0.667174 0.090246 0.442703
Si Si5 0.500233 0.360012 0.986753
Si Si6 0.836504 0.998144 0.891601
Si Si7 0.591473 0.288702 0.356142
O O1 0.332475 0.196200 0.797394
O O2 0.232572 0.037750 0.724744
O O3 0.168552 0.154897 0.824142
O O4 0.328612 0.071780 0.938547
O O5 0.532529 0.089809 0.678897
O O6 0.416408 0.957560 0.660514
O O7 0.500000 0.760583 0.250000
O O8 0.500064 0.741585 0.437219
O O9 0.649262 0.200492 0.425068
O O10 0.768233 0.054139 0.439985
O O11 0.603050 0.414310 0.036631
O O12 0.457530 0.348089 0.077863
O O13 0.421110 0.425553 0.895544
O O14 0.500000 0.255502 0.250000
#
# Coordination Sequence:
#
# PCOD9296458 Si02
#       7
#     8   4   8   8   8   8   8
#     4  12  23  41  69  96 138 172 226 283 334 401
#     4  10  24  44  62  92 130 168 226 262 336 402
#     4  10  23  45  63  90 136 175 215 278 338 400
#     4  12  23  43  68  98 131 178 223 282 326 402
#     4  11  23  45  69  94 140 177 215 285 341 401
#     4  11  24  41  67 103 131 171 230 271 334 403
#     4  12  23  41  71 102 130 177 230 276 342 400
#
# _framework density 19.707152000000001
#
# number of rings (size 3 to 8) (size 9 to 14) (size 15 to 20)
#    0.462    0.308    6.923    1.385    0.000    1.846 
#    2.769    3.077    0.000    0.000    0.000    0.000 
#    0.000    0.000    0.000    0.000    0.000    0.000 
#
# Total GULP energy -144904.579433 kJ/mol
# GULP energy per Si atom -5573.253055 kJ/mol
# Density = 1.966230 g / cm^3
# Si number density = 19.707152 Si / 1000 Ang^3
#
#
#
# Elastic Constant Matrix: (Units=GPa)
#
#
# Indices 1 2 3 4 5 6 
#
# 1 84.8832 -5.7645 28.1557 0.0000 5.5012 0.0000
# 2 -5.7645 38.8731 21.8878 0.0000 18.9051 0.0000
# 3 28.1557 21.8878 103.9432 0.0000 19.9251 0.0000
# 4 0.0000 0.0000 0.0000 39.6552 0.0000 7.3907
# 5 5.5012 18.9051 19.9251 0.0000 28.1676 0.0000
# 6 0.0000 0.0000 0.0000 7.3907 0.0000 27.1824
#
#
#
# Elastic Compliance Matrix: (Units=1/GPa)
#
#
# Indices 1 2 3 4 5 6 
#
# 1 0.013926 0.006451 -0.004372 0.000000 -0.003957 0.000000
# 2 0.006451 0.042393 -0.005760 0.000000 -0.025638 0.000000
# 3 -0.004372 -0.005760 0.012856 0.000000 -0.004375 0.000000
# 4 0.000000 0.000000 0.000000 0.026563 0.000000 -0.007222
# 5 -0.003957 -0.025638 -0.004375 0.000000 0.056577 0.000000
# 6 0.000000 0.000000 0.000000 -0.007222 0.000000 0.038752
#
#
# Mechanical properties :
#
#
# Convention : Reuss Voigt Hill
#
# Bulk Modulus (GPa) = 16.17768 35.13972 25.65870
# Shear Modulus (GPa) = 22.82760 31.22908 27.02834
#
# Velocity S-wave (km/s) = 3.40713 3.98509 3.70739
# Velocity P-wave (km/s) = 4.86877 6.24854 5.60130
#
# Compressibility (1/GPa) = 0.06181355
#
# Stress axis : x y z
#
# Youngs Moduli (GPa) = 71.81002 23.58882 77.78248
#
# Poissons Ratio (x) = -0.15217 0.34007
# Poissons Ratio (y) = -0.46325 0.44800
# Poissons Ratio (z) = 0.31396 0.13586
#
# Static dielectric constant tensor:
#      x y z
#    x 1.746240 0.000000 0.001760 
#    y 0.000000 1.690750 0.000000 
#    z 0.001760 0.000000 1.707720 
# 
# From -- ./inp_files/154048.got.cif
#   From: 2010.05.17/outbox.cif.g08.bks.cpg/sg15_78_cif.got.tgz:154048.got - 2010.06.03 18:47:42.
