data_PCOD9296790
_publ_section_title
;
Structure prediction by ZEFSAII (Michael W. Deem and Ramdas Pophale) SiO2 
 PCOD9296790
Probable space group: C 2/C
;
_chemical_formula_sum "Si O2"
_cell_formula_units_Z 44
_cell_length_a 11.242173
_cell_length_b 13.654492
_cell_length_c 18.439501
_cell_angle_alpha 90.000000
_cell_angle_beta 43.422635
_cell_angle_gamma 90.000000
_cell_volume 1945.666444
_symmetry_space_group_name_H-M "C 2/C"
_symmetry_group_IT_number 15
_symmetry_cell_setting 'monoclinic'
loop_
_space_group_symop_operation_xyz
x,y,z
-x,y,1/2-z
-x,-y,-z
x,-y,1/2+z
1/2+x,1/2+y,z
1/2-x,1/2+y,1/2-z
1/2-x,1/2-y,-z
1/2+x,1/2-y,1/2+z
loop_
_atom_site_type_symbol
_atom_site_label
_atom_site_fract_x
_atom_site_fract_y
_atom_site_fract_z
Si Si1 0.561759 0.274777 0.294168
Si Si2 0.926704 0.637054 0.591853
Si Si3 0.364372 0.043437 0.869255
Si Si4 0.183547 0.240811 0.889598
Si Si5 0.500000 0.622092 0.250000
Si Si6 0.191691 0.957367 0.076509
O O1 0.500000 0.217874 0.250000
O O2 0.758702 0.305678 0.193769
O O3 0.554878 0.239848 0.379066
O O4 0.440524 0.369731 0.352075
O O5 0.851058 0.568467 0.560355
O O6 0.011156 0.581412 0.621480
O O7 0.076833 0.711345 0.501697
O O8 0.500000 0.005010 0.750000
O O9 0.252562 0.132487 0.881723
O O10 0.243300 0.970626 0.969525
O O11 0.348058 0.305554 0.794779
O O12 0.588994 0.553066 0.150347
#
# Coordination Sequence:
#
# PCOD9296790 Si02
#       6
#     8   8   8   8   4   8
#     4  10  23  46  66  96 138 181 217 283 336 409
#     4  11  22  44  69  96 136 180 218 282 336 405
#     4  12  24  42  67 104 135 174 228 285 323 400
#     4  12  25  40  71 100 135 172 233 278 338 389
#     4  12  22  42  70 102 124 182 228 276 336 406
#     4  11  25  43  71  95 138 180 225 267 350 399
#
# _framework density 22.614360000000001
#
# number of rings (size 3 to 8) (size 9 to 14) (size 15 to 20)
#    0.000    0.727    7.273    1.091    2.545    3.636 
#    0.000    2.727    0.000    0.000    0.000    0.000 
#    0.000    0.000    0.000    0.000    0.000    0.000 
#
# Total GULP energy -122760.118382 kJ/mol
# GULP energy per Si atom -5580.005381 kJ/mol
# Density = 2.256289 g / cm^3
# Si number density = 22.614360 Si / 1000 Ang^3
#
#
#
# Elastic Constant Matrix: (Units=GPa)
#
#
# Indices 1 2 3 4 5 6 
#
# 1 88.9457 18.2902 14.2772 0.0000 8.2876 0.0000
# 2 18.2902 58.8574 39.0213 0.0000 4.1017 0.0000
# 3 14.2772 39.0213 138.2108 -0.0001 15.0325 0.0000
# 4 0.0000 0.0000 -0.0001 -20.9629 0.0000 -30.2208
# 5 8.2876 4.1017 15.0325 0.0000 48.5084 0.0000
# 6 0.0000 0.0000 0.0000 -30.2208 0.0000 0.1833
#
#
#
# Elastic Compliance Matrix: (Units=1/GPa)
#
#
# Indices 1 2 3 4 5 6 
#
# 1 0.012159 -0.003629 -0.000040 0.000000 -0.001758 0.000000
# 2 -0.003629 0.021986 -0.005897 0.000000 0.000588 0.000000
# 3 -0.000040 -0.005897 0.009158 0.000000 -0.002333 0.000000
# 4 0.000000 0.000000 0.000000 -0.000200 0.000000 -0.032951
# 5 -0.001758 0.000588 -0.002333 0.000000 0.021588 0.000000
# 6 0.000000 0.000000 0.000000 -0.032951 0.000000 0.022857
#
#
# Mechanical properties :
#
#
# Convention : Reuss Voigt Hill
#
# Bulk Modulus (GPa) = 41.37104 47.68790 44.52947
# Shear Modulus (GPa) = 43.57732 19.84076 31.70904
#
# Velocity S-wave (km/s) = 4.39450 2.96523 3.74861
# Velocity P-wave (km/s) = 6.63948 5.73207 6.20239
#
# Compressibility (1/GPa) = 0.02417150
#
# Stress axis : x y z
#
# Youngs Moduli (GPa) = 82.24082 45.48275 109.19481
#
# Poissons Ratio (x) = 0.16508 0.00438
# Poissons Ratio (y) = 0.29849 0.64387
# Poissons Ratio (z) = 0.00330 0.26819
#
# Static dielectric constant tensor:
#      x y z
#    x 1.957820 0.000000 0.038170 
#    y 0.000000 1.850180 0.000000 
#    z 0.038170 0.000000 1.835170 
# 
# From -- ./inp_files/238619.got.cif
#   From: 2010.05.17/outbox.cif.g08.bks.cpg/sg15_120_cif.got.tgz:238619.got - 2010.06.03 18:47:42.
