data_PCOD9296840
_publ_section_title
;
Structure prediction by ZEFSAII (Michael W. Deem and Ramdas Pophale) SiO2 
 PCOD9296840
Probable space group: C 2/C
;
_chemical_formula_sum "Si O2"
_cell_formula_units_Z 32
_cell_length_a 14.071724
_cell_length_b 5.076777
_cell_length_c 28.807423
_cell_angle_alpha 90.000000
_cell_angle_beta 140.211392
_cell_angle_gamma 90.000000
_cell_volume 1317.014487
_symmetry_space_group_name_H-M "C 2/C"
_symmetry_group_IT_number 15
_symmetry_cell_setting 'monoclinic'
loop_
_space_group_symop_operation_xyz
x,y,z
-x,y,1/2-z
-x,-y,-z
x,-y,1/2+z
1/2+x,1/2+y,z
1/2-x,1/2+y,1/2-z
1/2-x,1/2-y,-z
1/2+x,1/2-y,1/2+z
loop_
_atom_site_type_symbol
_atom_site_label
_atom_site_fract_x
_atom_site_fract_y
_atom_site_fract_z
Si Si1 0.159528 0.933120 0.039230
Si Si2 0.939940 0.366573 0.683422
Si Si3 0.851966 0.277138 0.287185
Si Si4 0.872902 0.011173 0.075859
O O1 0.273000 0.030934 0.121207
O O2 0.234133 0.655075 0.049921
O O3 0.161330 0.072368 0.989331
O O4 0.000000 0.000000 0.000000
O O5 0.000000 0.211551 0.750000
O O6 0.054756 0.605602 0.720601
O O7 0.936613 0.204916 0.634559
O O8 0.743154 0.517429 0.259569
O O9 0.984778 0.211472 0.373284
#
# Coordination Sequence:
#
# PCOD9296840 Si02
#       4
#     8   8   8   8
#     4  10  24  44  71 104 148 202 245 309 376 444
#     4  11  25  44  70 108 150 190 249 309 368 453
#     4  11  23  44  71 104 145 195 241 306 371 431
#     4  10  23  46  69 108 149 192 255 311 362 457
#
# _framework density 24.297381999999999
#
# number of rings (size 3 to 8) (size 9 to 14) (size 15 to 20)
#    0.000    1.500    2.500    0.750    3.500    5.000 
#    4.500    0.000    0.000    0.000    0.000    0.000 
#    0.000    0.000    0.000    0.000    0.000    0.000 
#
# Total GULP energy -89199.814900 kJ/mol
# GULP energy per Si atom -5574.988431 kJ/mol
# Density = 2.424208 g / cm^3
# Si number density = 24.297382 Si / 1000 Ang^3
#
#
#
# Elastic Constant Matrix: (Units=GPa)
#
#
# Indices 1 2 3 4 5 6 
#
# 1 147.3890 38.1327 52.9856 -0.0011 39.0297 0.0007
# 2 38.1327 89.0730 36.7011 -0.0028 12.2328 0.0017
# 3 52.9856 36.7011 182.9245 -0.0009 0.4886 0.0005
# 4 -0.0011 -0.0028 -0.0009 26.8927 0.0003 10.2515
# 5 39.0297 12.2328 0.4886 0.0003 48.8175 -0.0002
# 6 0.0007 0.0017 0.0005 10.2515 -0.0002 19.2842
#
#
#
# Elastic Compliance Matrix: (Units=1/GPa)
#
#
# Indices 1 2 3 4 5 6 
#
# 1 0.010307 -0.002336 -0.002496 0.000000 -0.007630 0.000000
# 2 -0.002336 0.013237 -0.001975 0.000002 -0.001430 -0.000002
# 3 -0.002496 -0.001975 0.006580 0.000000 0.002425 0.000000
# 4 0.000000 0.000002 0.000000 0.046635 -0.000001 -0.024791
# 5 -0.007630 -0.001430 0.002425 -0.000001 0.026919 0.000001
# 6 0.000000 -0.000002 0.000000 -0.024791 0.000001 0.065035
#
#
# Mechanical properties :
#
#
# Convention : Reuss Voigt Hill
#
# Bulk Modulus (GPa) = 60.57595 75.00279 67.78937
# Shear Modulus (GPa) = 26.61961 38.43669 32.52815
#
# Velocity S-wave (km/s) = 3.31354 3.98166 3.66286
# Velocity P-wave (km/s) = 6.29480 7.21622 6.77120
#
# Compressibility (1/GPa) = 0.01650820
#
# Stress axis : x y z
#
# Youngs Moduli (GPa) = 97.01991 75.54551 151.98234
#
# Poissons Ratio (x) = 0.17648 0.37942
# Poissons Ratio (y) = 0.22664 0.30022
# Poissons Ratio (z) = 0.24221 0.14923
#
# Static dielectric constant tensor:
#      x y z
#    x 1.984570 0.000000 0.008350 
#    y 0.000000 2.128740 0.000000 
#    z 0.008350 0.000000 2.010770 
# 
# From -- ./inp_files/271797.got.cif
#   From: 2010.05.17/outbox.cif.g08.bks.cpg/sg15_136_cif.got.tgz:271797.got - 2010.06.03 18:47:42.
