data_PCOD9296380
_publ_section_title
;
Structure prediction by ZEFSAII (Michael W. Deem and Ramdas Pophale) SiO2 
 PCOD9296380
Probable space group: C 2/C
;
_chemical_formula_sum "Si O2"
_cell_formula_units_Z 40
_cell_length_a 14.331195
_cell_length_b 21.371270
_cell_length_c 8.557321
_cell_angle_alpha 90.000000
_cell_angle_beta 40.845338
_cell_angle_gamma 90.000000
_cell_volume 1714.119896
_symmetry_space_group_name_H-M "C 2/C"
_symmetry_group_IT_number 15
_symmetry_cell_setting 'monoclinic'
loop_
_space_group_symop_operation_xyz
x,y,z
-x,y,1/2-z
-x,-y,-z
x,-y,1/2+z
1/2+x,1/2+y,z
1/2-x,1/2+y,1/2-z
1/2-x,1/2-y,-z
1/2+x,1/2-y,1/2+z
loop_
_atom_site_type_symbol
_atom_site_label
_atom_site_fract_x
_atom_site_fract_y
_atom_site_fract_z
Si Si1 0.793261 0.518473 0.250995
Si Si2 0.273204 0.385256 0.323529
Si Si3 0.875342 0.295260 0.788020
Si Si4 0.500000 0.033756 0.750000
Si Si5 0.350877 0.274904 0.008566
Si Si6 0.500000 0.424491 0.250000
O O1 0.766427 0.451311 0.200354
O O2 0.903328 0.504286 0.250255
O O3 0.637358 0.538428 0.510204
O O4 0.876726 0.562326 0.019133
O O5 0.174675 0.364039 0.594534
O O6 0.269548 0.331401 0.198707
O O7 0.432577 0.386191 0.192918
O O8 0.892653 0.278081 0.585100
O O9 0.000000 0.279218 0.750000
O O10 0.750000 0.250000 0.000000
O O11 0.500000 0.298524 0.750000
O O12 0.250000 0.250000 0.000000
#
# Coordination Sequence:
#
# PCOD9296380 Si02
#       6
#     8   8   8   4   8   4
#     4  11  24  48  68 108 141 192 240 309 358 441
#     4  11  26  42  75  98 140 194 241 289 380 433
#     4  10  23  44  72  98 141 188 241 292 373 448
#     4  10  24  44  70  93 155 174 232 298 372 416
#     4  11  25  45  67 103 140 175 238 306 355 424
#     4  12  26  44  80 105 145 194 258 300 354 454
#
# _framework density 23.33559
#
# number of rings (size 3 to 8) (size 9 to 14) (size 15 to 20)
#    0.000    1.200    2.000    3.000   11.200    0.000 
#    5.400    0.000    0.000    0.000    0.000    0.000 
#    0.000    0.000    0.000    0.000    0.000    0.000 
#
# Total GULP energy -111614.922102 kJ/mol
# GULP energy per Si atom -5580.746105 kJ/mol
# Density = 2.328248 g / cm^3
# Si number density = 23.335590 Si / 1000 Ang^3
#
#
#
# Elastic Constant Matrix: (Units=GPa)
#
#
# Indices 1 2 3 4 5 6 
#
# 1 194.0681 26.3805 27.1094 0.0000 -4.2821 0.0000
# 2 26.3805 69.4660 14.0457 0.0000 7.4447 0.0000
# 3 27.1094 14.0457 155.1273 0.0000 6.4450 0.0000
# 4 0.0000 0.0000 0.0000 32.3212 0.0000 5.6961
# 5 -4.2821 7.4447 6.4450 0.0000 49.7104 0.0000
# 6 0.0000 0.0000 0.0000 5.6961 0.0000 25.2401
#
#
#
# Elastic Compliance Matrix: (Units=1/GPa)
#
#
# Indices 1 2 3 4 5 6 
#
# 1 0.005565 -0.002042 -0.000825 0.000000 0.000892 0.000000
# 2 -0.002042 0.015621 -0.000958 0.000000 -0.002391 0.000000
# 3 -0.000825 -0.000958 0.006710 0.000000 -0.000798 0.000000
# 4 0.000000 0.000000 0.000000 0.032221 0.000000 -0.007272
# 5 0.000892 -0.002391 -0.000798 0.000000 0.020655 0.000000
# 6 0.000000 0.000000 0.000000 -0.007272 0.000000 0.041261
#
#
# Mechanical properties :
#
#
# Convention : Reuss Voigt Hill
#
# Bulk Modulus (GPa) = 49.39154 61.52583 55.45869
# Shear Modulus (GPa) = 36.64820 44.86274 40.75547
#
# Velocity S-wave (km/s) = 3.96723 4.38939 4.18364
# Velocity P-wave (km/s) = 6.49592 7.21886 6.86691
#
# Compressibility (1/GPa) = 0.02024638
#
# Stress axis : x y z
#
# Youngs Moduli (GPa) = 179.68327 64.01589 149.02390
#
# Poissons Ratio (x) = 0.13074 0.12290
# Poissons Ratio (y) = 0.36698 0.14278
# Poissons Ratio (z) = 0.14819 0.06134
#
# Static dielectric constant tensor:
#      x y z
#    x 1.851160 0.000000 0.034720 
#    y 0.000000 1.940410 0.000000 
#    z 0.034720 0.000000 1.959670 
# 
# From -- ./inp_files/41987.got.cif
#   From: 2010.05.17/outbox.cif.g08.bks.cpg/sg15_21_cif.got.tgz:41987.got - 2010.06.03 18:47:42.
