data_PCOD9296053
_publ_section_title
;
Structure prediction by ZEFSAII (Michael W. Deem and Ramdas Pophale) SiO2 
 PCOD9296053
Probable space group: C 2/C
;
_chemical_formula_sum "Si O2"
_cell_formula_units_Z 48
_cell_length_a 7.392279
_cell_length_b 11.945181
_cell_length_c 22.922637
_cell_angle_alpha 90.000000
_cell_angle_beta 106.148664
_cell_angle_gamma 90.000000
_cell_volume 1944.252184
_symmetry_space_group_name_H-M "C 2/C"
_symmetry_group_IT_number 15
_symmetry_cell_setting 'monoclinic'
loop_
_space_group_symop_operation_xyz
x,y,z
-x,y,1/2-z
-x,-y,-z
x,-y,1/2+z
1/2+x,1/2+y,z
1/2-x,1/2+y,1/2-z
1/2-x,1/2-y,-z
1/2+x,1/2-y,1/2+z
loop_
_atom_site_type_symbol
_atom_site_label
_atom_site_fract_x
_atom_site_fract_y
_atom_site_fract_z
Si Si1 0.827829 0.339966 0.177851
Si Si2 0.198447 0.112900 0.791947
Si Si3 0.226493 0.488688 0.020049
Si Si4 0.396861 0.712648 0.602594
Si Si5 0.074368 0.903192 0.854056
Si Si6 0.791582 0.539548 0.108239
O O1 0.818905 0.370993 0.245044
O O2 0.609402 0.328208 0.134756
O O3 0.910202 0.219727 0.170125
O O4 0.915051 0.442257 0.148335
O O5 0.231512 0.183945 0.852766
O O6 0.000000 0.159541 0.750000
O O7 0.152468 0.989179 0.812409
O O8 0.303978 0.365529 0.045054
O O9 0.307625 0.573068 0.076061
O O10 0.289457 0.509640 0.959310
O O11 0.000000 0.500000 0.000000
O O12 0.392846 0.846238 0.597949
O O13 0.863762 0.931980 0.856667
#
# Coordination Sequence:
#
# PCOD9296053 Si02
#       6
#     8   8   8   8   8   8
#     4  11  24  43  70  97 133 182 220 277 344 400
#     4   9  19  43  66  91 137 173 214 281 334 392
#     4  11  24  45  69  98 140 181 223 280 342 403
#     4  10  23  44  66  95 136 178 222 278 336 398
#     4  11  24  42  71 100 135 177 229 278 339 401
#     4  12  24  42  70 100 137 171 231 276 338 397
#
# _framework density 24.688154999999998
#
# number of rings (size 3 to 8) (size 9 to 14) (size 15 to 20)
#    0.000    1.333    5.000    2.000    4.667    0.667 
#    0.000    0.000    0.000    0.000    0.000    0.000 
#    0.000    0.000    0.000    0.000    0.000    0.000 
#
# Total GULP energy -134253.910443 kJ/mol
# GULP energy per Si atom -5593.912935 kJ/mol
# Density = 2.463196 g / cm^3
# Si number density = 24.688155 Si / 1000 Ang^3
#
#
#
# Elastic Constant Matrix: (Units=GPa)
#
#
# Indices 1 2 3 4 5 6 
#
# 1 100.7560 16.9549 -0.4325 0.0000 -19.8811 0.0000
# 2 16.9549 154.0484 64.5687 0.0000 -23.1540 0.0000
# 3 -0.4325 64.5687 153.3716 0.0000 -35.1898 0.0000
# 4 0.0000 0.0000 0.0000 27.3680 0.0000 -6.3500
# 5 -19.8811 -23.1540 -35.1898 0.0000 43.1187 0.0000
# 6 0.0000 0.0000 0.0000 -6.3500 0.0000 34.4908
#
#
#
# Elastic Compliance Matrix: (Units=1/GPa)
#
#
# Indices 1 2 3 4 5 6 
#
# 1 0.011346 -0.001125 0.001928 0.000000 0.006201 0.000000
# 2 -0.001125 0.008119 -0.003125 0.000000 0.001291 0.000000
# 3 0.001928 -0.003125 0.009425 0.000000 0.006903 0.000000
# 4 0.000000 0.000000 0.000000 0.038169 0.000000 0.007027
# 5 0.006201 0.001291 0.006903 0.000000 0.032378 0.000000
# 6 0.000000 0.000000 0.000000 0.007027 0.000000 0.030287
#
#
# Mechanical properties :
#
#
# Convention : Reuss Voigt Hill
#
# Bulk Modulus (GPa) = 41.24248 63.37313 52.30781
# Shear Modulus (GPa) = 35.09996 42.80117 38.95057
#
# Velocity S-wave (km/s) = 3.77468 4.16826 3.97634
# Velocity P-wave (km/s) = 5.97823 6.99221 6.50501
#
# Compressibility (1/GPa) = 0.02424684
#
# Stress axis : x y z
#
# Youngs Moduli (GPa) = 88.13549 123.16514 106.10032
#
# Poissons Ratio (x) = 0.13856 -0.20461
# Poissons Ratio (y) = 0.09915 0.33158
# Poissons Ratio (z) = -0.16996 0.38491
#
# Static dielectric constant tensor:
#      x y z
#    x 2.144700 0.000000 0.051020 
#    y 0.000000 1.942140 0.000000 
#    z 0.051020 0.000000 1.938940 
# 
# From -- ./inp_files/263558.got.cif
#   From: 2010.05.17/outbox.cif.g08.bks.cpg/sg15_132_cif.got.tgz:263558.got - 2010.06.03 18:47:42.
