data_PCOD9296036
_publ_section_title
;
Structure prediction by ZEFSAII (Michael W. Deem and Ramdas Pophale) SiO2 
 PCOD9296036
Probable space group: C 2/C
;
_chemical_formula_sum "Si O2"
_cell_formula_units_Z 56
_cell_length_a 19.587049
_cell_length_b 12.881821
_cell_length_c 10.932309
_cell_angle_alpha 90.000000
_cell_angle_beta 58.883696
_cell_angle_gamma 90.000000
_cell_volume 2361.526615
_symmetry_space_group_name_H-M "C 2/C"
_symmetry_group_IT_number 15
_symmetry_cell_setting 'monoclinic'
loop_
_space_group_symop_operation_xyz
x,y,z
-x,y,1/2-z
-x,-y,-z
x,-y,1/2+z
1/2+x,1/2+y,z
1/2-x,1/2+y,1/2-z
1/2-x,1/2-y,-z
1/2+x,1/2-y,1/2+z
loop_
_atom_site_type_symbol
_atom_site_label
_atom_site_fract_x
_atom_site_fract_y
_atom_site_fract_z
Si Si1 0.573418 0.977943 0.091734
Si Si2 0.696736 0.865976 0.121680
Si Si3 0.082261 0.292309 0.617780
Si Si4 0.835580 0.817304 0.671650
Si Si5 0.655479 0.154227 0.302010
Si Si6 0.481262 0.439598 0.642000
Si Si7 0.639391 0.681672 0.995208
O O1 0.500000 0.943628 0.250000
O O2 0.645661 0.959967 0.120538
O O3 0.561343 0.098384 0.069216
O O4 0.598460 0.916314 0.943524
O O5 0.676189 0.798629 0.260139
O O6 0.789168 0.897624 0.045609
O O7 0.671212 0.778758 0.045109
O O8 0.123413 0.207778 0.494808
O O9 0.135567 0.333125 0.679585
O O10 0.000000 0.252902 0.750000
O O11 0.748718 0.869365 0.741092
O O12 0.895574 0.885233 0.699728
O O13 0.643495 0.273209 0.356747
O O14 0.500000 0.501869 0.750000
O O15 0.500000 0.500000 0.500000
O O16 0.549977 0.352570 0.595215
#
# Coordination Sequence:
#
# PCOD9296036 Si02
#       7
#     8   8   8   8   8   8   8
#     4  10  24  37  67 105 133 176 222 290 356 422
#     4   9  19  37  68  94 125 170 227 283 342 421
#     4  11  25  41  67 101 143 180 230 288 371 426
#     4  11  24  45  70  97 136 191 234 286 361 429
#     4  10  23  44  66 102 138 178 236 292 355 435
#     4  12  27  45  69 102 139 189 244 299 353 425
#     4   9  19  40  65  92 126 175 232 279 348 413
#
# _framework density 23.713473
#
# number of rings (size 3 to 8) (size 9 to 14) (size 15 to 20)
#    0.000    1.714    1.429    2.143    8.000    4.000 
#    2.571    0.000    0.000    0.000    0.000    0.000 
#    0.000    0.000    0.000    0.000    0.000    0.000 
#
# Total GULP energy -156035.422344 kJ/mol
# GULP energy per Si atom -5572.693655 kJ/mol
# Density = 2.365950 g / cm^3
# Si number density = 23.713473 Si / 1000 Ang^3
#
#
#
# Elastic Constant Matrix: (Units=GPa)
#
#
# Indices 1 2 3 4 5 6 
#
# 1 148.9801 23.4143 61.7444 0.0000 -12.1419 0.0000
# 2 23.4143 39.0064 27.4295 0.0000 -1.9046 0.0000
# 3 61.7444 27.4295 133.7808 0.0000 0.6126 0.0000
# 4 0.0000 0.0000 0.0000 114.9695 0.0000 -12.3545
# 5 -12.1419 -1.9046 0.6126 0.0000 45.0273 0.0000
# 6 0.0000 0.0000 0.0000 -12.3545 0.0000 14.8900
#
#
#
# Elastic Compliance Matrix: (Units=1/GPa)
#
#
# Indices 1 2 3 4 5 6 
#
# 1 0.008777 -0.002688 -0.003510 0.000000 0.002301 0.000000
# 2 -0.002688 0.030861 -0.005090 0.000000 0.000650 0.000000
# 3 -0.003510 -0.005090 0.010145 0.000000 -0.001300 0.000000
# 4 0.000000 0.000000 0.000000 0.009549 0.000000 0.007923
# 5 0.002301 0.000650 -0.001300 0.000000 0.022874 0.000000
# 6 0.000000 0.000000 0.000000 0.007923 0.000000 0.073733
#
#
# Mechanical properties :
#
#
# Convention : Reuss Voigt Hill
#
# Bulk Modulus (GPa) = 36.75575 60.77154 48.76365
# Shear Modulus (GPa) = 26.65452 48.92264 37.78858
#
# Velocity S-wave (km/s) = 3.35628 4.54703 3.99626
# Velocity P-wave (km/s) = 5.52749 7.29729 6.47316
#
# Compressibility (1/GPa) = 0.02720662
#
# Stress axis : x y z
#
# Youngs Moduli (GPa) = 113.93259 32.40307 98.57397
#
# Poissons Ratio (x) = 0.08709 0.34603
# Poissons Ratio (y) = 0.30622 0.50175
# Poissons Ratio (z) = 0.39995 0.16493
#
# Static dielectric constant tensor:
#      x y z
#    x 1.969020 0.000000 0.021860 
#    y 0.000000 1.998350 0.000000 
#    z 0.021860 0.000000 2.076820 
# 
# From -- ./inp_files/105636.got.cif
#   From: 2010.05.17/outbox.cif.g08.bks.cpg/sg15_53_cif.got.tgz:105636.got - 2010.06.03 18:47:42.
