data_PCOD9296542
_publ_section_title
;
Structure prediction by ZEFSAII (Michael W. Deem and Ramdas Pophale) SiO2 
 PCOD9296542
Probable space group: C 2/C
;
_chemical_formula_sum "Si O2"
_cell_formula_units_Z 36
_cell_length_a 11.716947
_cell_length_b 8.206151
_cell_length_c 16.973562
_cell_angle_alpha 90.000000
_cell_angle_beta 119.368043
_cell_angle_gamma 90.000000
_cell_volume 1422.289856
_symmetry_space_group_name_H-M "C 2/C"
_symmetry_group_IT_number 15
_symmetry_cell_setting 'monoclinic'
loop_
_space_group_symop_operation_xyz
x,y,z
-x,y,1/2-z
-x,-y,-z
x,-y,1/2+z
1/2+x,1/2+y,z
1/2-x,1/2+y,1/2-z
1/2-x,1/2-y,-z
1/2+x,1/2-y,1/2+z
loop_
_atom_site_type_symbol
_atom_site_label
_atom_site_fract_x
_atom_site_fract_y
_atom_site_fract_z
Si Si1 0.820627 0.329171 0.451197
Si Si2 0.197911 0.174520 0.379368
Si Si3 0.568949 0.351158 0.064974
Si Si4 0.735538 0.581206 0.210406
Si Si5 0.000000 0.608107 0.750000
O O1 0.750000 0.250000 0.500000
O O2 0.747457 0.500818 0.423228
O O3 0.793246 0.222909 0.363348
O O4 0.973460 0.304572 0.527653
O O5 0.304238 0.305771 0.442311
O O6 0.223787 0.150684 0.293570
O O7 0.059676 0.267136 0.335860
O O8 0.626214 0.437404 0.162713
O O9 0.500000 0.500000 0.000000
O O10 0.879075 0.502564 0.239991
#
# Coordination Sequence:
#
# PCOD9296542 Si02
#       5
#     8   8   8   8   4
#     4  11  24  40  67 103 135 176 228 290 351 406
#     4  11  23  44  71  96 135 190 226 284 347 422
#     4   9  21  43  62  94 135 175 220 280 347 408
#     4  10  23  45  67  96 138 181 230 286 341 424
#     4  10  24  42  68 100 130 178 240 272 342 418
#
# _framework density 25.311295999999999
#
# number of rings (size 3 to 8) (size 9 to 14) (size 15 to 20)
#    0.000    1.778    0.000    3.333    6.222    0.889 
#   12.000    3.333    0.000    0.000    0.000    0.000 
#    0.000    0.000    0.000    0.000    0.000    0.000 
#
# Total GULP energy -100507.197881 kJ/mol
# GULP energy per Si atom -5583.733216 kJ/mol
# Density = 2.525369 g / cm^3
# Si number density = 25.311296 Si / 1000 Ang^3
#
#
#
# Elastic Constant Matrix: (Units=GPa)
#
#
# Indices 1 2 3 4 5 6 
#
# 1 77.4887 6.8931 34.9826 0.0000 11.8455 0.0000
# 2 6.8931 130.3652 45.3819 0.0000 7.8338 0.0000
# 3 34.9826 45.3819 79.8631 0.0000 26.4909 0.0000
# 4 0.0000 0.0000 0.0000 58.5152 0.0000 6.1805
# 5 11.8455 7.8338 26.4909 0.0000 58.6617 0.0000
# 6 0.0000 0.0000 0.0000 6.1805 0.0000 40.5926
#
#
#
# Elastic Compliance Matrix: (Units=1/GPa)
#
#
# Indices 1 2 3 4 5 6 
#
# 1 0.016517 0.002066 -0.008482 0.000000 0.000219 0.000000
# 2 0.002066 0.009917 -0.007013 0.000000 0.001426 0.000000
# 3 -0.008482 -0.007013 0.022751 0.000000 -0.007625 0.000000
# 4 0.000000 0.000000 0.000000 0.017369 0.000000 -0.002645
# 5 0.000219 0.001426 -0.007625 0.000000 0.020256 0.000000
# 6 0.000000 0.000000 0.000000 -0.002645 0.000000 0.025038
#
#
# Mechanical properties :
#
#
# Convention : Reuss Voigt Hill
#
# Bulk Modulus (GPa) = 44.78768 51.35913 48.07341
# Shear Modulus (GPa) = 34.21191 44.91786 39.56489
#
# Velocity S-wave (km/s) = 3.68046 4.21719 3.95794
# Velocity P-wave (km/s) = 5.98283 6.63686 6.31831
#
# Compressibility (1/GPa) = 0.02232757
#
# Stress axis : x y z
#
# Youngs Moduli (GPa) = 60.54402 100.83395 43.95372
#
# Poissons Ratio (x) = -0.20833 0.37280
# Poissons Ratio (y) = -0.12509 0.30826
# Poissons Ratio (z) = 0.51351 0.70718
#
# Static dielectric constant tensor:
#      x y z
#    x 2.343580 0.000000 0.196610 
#    y 0.000000 2.071700 0.000000 
#    z 0.196610 0.000000 2.248450 
# 
# From -- ./inp_files/150296.got.cif
#   From: 2010.05.17/outbox.cif.g08.bks.cpg/sg15_76_cif.got.tgz:150296.got - 2010.06.03 18:47:42.
