data_PCOD9296513
_publ_section_title
;
Structure prediction by ZEFSAII (Michael W. Deem and Ramdas Pophale) SiO2 
 PCOD9296513
Probable space group: C 2/C
;
_chemical_formula_sum "Si O2"
_cell_formula_units_Z 56
_cell_length_a 23.139755
_cell_length_b 12.418944
_cell_length_c 8.533583
_cell_angle_alpha 90.000000
_cell_angle_beta 74.666653
_cell_angle_gamma 90.000000
_cell_volume 2365.013911
_symmetry_space_group_name_H-M "C 2/C"
_symmetry_group_IT_number 15
_symmetry_cell_setting 'monoclinic'
loop_
_space_group_symop_operation_xyz
x,y,z
-x,y,1/2-z
-x,-y,-z
x,-y,1/2+z
1/2+x,1/2+y,z
1/2-x,1/2+y,1/2-z
1/2-x,1/2-y,-z
1/2+x,1/2-y,1/2+z
loop_
_atom_site_type_symbol
_atom_site_label
_atom_site_fract_x
_atom_site_fract_y
_atom_site_fract_z
Si Si1 0.000000 0.166213 0.750000
Si Si2 0.165038 0.133050 0.344944
Si Si3 0.500000 0.025226 0.250000
Si Si4 0.207690 0.337917 0.441896
Si Si5 0.916672 0.392752 0.547364
Si Si6 0.400615 0.499525 0.364272
Si Si7 0.288982 0.962041 0.743685
Si Si8 0.469085 0.312646 0.938266
O O1 0.008683 0.209405 0.565346
O O2 0.939516 0.097810 0.770317
O O3 0.158501 0.256608 0.403672
O O4 0.120779 0.085901 0.247167
O O5 0.232298 0.110883 0.235834
O O6 0.153571 0.054411 0.501942
O O7 0.547369 0.094026 0.315387
O O8 0.459065 0.953378 0.393208
O O9 0.250000 0.250000 0.500000
O O10 0.196773 0.422700 0.589846
O O11 0.228757 0.414566 0.283837
O O12 0.851263 0.440378 0.611850
O O13 0.913971 0.268697 0.500693
O O14 0.446503 0.565782 0.439279
O O15 0.500000 0.287417 0.750000
#
# Coordination Sequence:
#
# PCOD9296513 Si02
#       8
#     4   8   4   8   8   8   8   8
#     4  12  25  47  72 104 154 198 249 321 398 444
#     4  11  25  44  72 105 149 195 249 314 388 464
#     4  10  23  45  66  96 140 186 247 315 370 458
#     4  10  24  46  72 104 147 195 249 306 380 456
#     4  11  24  44  69 100 141 189 248 310 387 451
#     4  12  24  45  70 104 149 195 252 319 378 470
#     4  11  24  47  72 105 147 192 251 314 375 468
#     4  12  25  45  73 110 148 198 261 316 395 468
#
# _framework density 23.678507
#
# number of rings (size 3 to 8) (size 9 to 14) (size 15 to 20)
#    0.000    0.857    2.857    4.286    2.000    4.571 
#    7.714    4.286    0.000    0.000    0.000    0.000 
#    0.000    0.000    0.000    0.000    0.000    0.000 
#
# Total GULP energy -156200.142045 kJ/mol
# GULP energy per Si atom -5578.576502 kJ/mol
# Density = 2.362461 g / cm^3
# Si number density = 23.678507 Si / 1000 Ang^3
#
#
#
# Elastic Constant Matrix: (Units=GPa)
#
#
# Indices 1 2 3 4 5 6 
#
# 1 91.2512 2.9848 39.2751 0.0000 -5.0411 0.0000
# 2 2.9848 91.0665 37.1957 0.0000 14.1204 0.0000
# 3 39.2751 37.1957 123.1983 0.0000 25.7866 0.0000
# 4 0.0000 0.0000 0.0000 37.7018 0.0000 6.0035
# 5 -5.0411 14.1204 25.7866 0.0000 35.1547 0.0000
# 6 0.0000 0.0000 0.0000 6.0035 0.0000 32.4489
#
#
#
# Elastic Compliance Matrix: (Units=1/GPa)
#
#
# Indices 1 2 3 4 5 6 
#
# 1 0.013821 0.001065 -0.005969 0.000000 0.005933 0.000000
# 2 0.001065 0.012823 -0.003739 0.000000 -0.002255 0.000000
# 3 -0.005969 -0.003739 0.013011 0.000000 -0.008898 0.000000
# 4 0.000000 0.000000 0.000000 0.027329 0.000000 -0.005056
# 5 0.005933 -0.002255 -0.008898 0.000000 0.036729 0.000000
# 6 0.000000 0.000000 0.000000 -0.005056 0.000000 0.031753
#
#
# Mechanical properties :
#
#
# Convention : Reuss Voigt Hill
#
# Bulk Modulus (GPa) = 44.70504 51.60301 48.15403
# Shear Modulus (GPa) = 31.20917 36.13180 33.67048
#
# Velocity S-wave (km/s) = 3.63442 3.91056 3.77501
# Velocity P-wave (km/s) = 6.04425 6.49849 6.27548
#
# Compressibility (1/GPa) = 0.02236884
#
# Stress axis : x y z
#
# Youngs Moduli (GPa) = 72.35393 77.98529 76.85571
#
# Poissons Ratio (x) = -0.08308 0.45879
# Poissons Ratio (y) = -0.07708 0.28737
# Poissons Ratio (z) = 0.43191 0.29159
#
# Static dielectric constant tensor:
#      x y z
#    x 1.956270 0.000000 0.026250 
#    y 0.000000 1.959350 0.000000 
#    z 0.026250 0.000000 2.028660 
# 
# From -- ./inp_files/65481.got.cif
#   From: 2010.05.17/outbox.cif.g08.bks.cpg/sg15_33_cif.got.tgz:65481.got - 2010.06.03 18:47:42.
