data_PCOD9296438
_publ_section_title
;
Structure prediction by ZEFSAII (Michael W. Deem and Ramdas Pophale) SiO2 
 PCOD9296438
Probable space group: C 2/C
;
_chemical_formula_sum "Si O2"
_cell_formula_units_Z 40
_cell_length_a 17.957694
_cell_length_b 5.279916
_cell_length_c 18.301237
_cell_angle_alpha 90.000000
_cell_angle_beta 116.216148
_cell_angle_gamma 90.000000
_cell_volume 1556.737166
_symmetry_space_group_name_H-M "C 2/C"
_symmetry_group_IT_number 15
_symmetry_cell_setting 'monoclinic'
loop_
_space_group_symop_operation_xyz
x,y,z
-x,y,1/2-z
-x,-y,-z
x,-y,1/2+z
1/2+x,1/2+y,z
1/2-x,1/2+y,1/2-z
1/2-x,1/2-y,-z
1/2+x,1/2-y,1/2+z
loop_
_atom_site_type_symbol
_atom_site_label
_atom_site_fract_x
_atom_site_fract_y
_atom_site_fract_z
Si Si1 0.908319 0.719277 0.527359
Si Si2 0.074045 0.439948 0.617888
Si Si3 0.693906 0.896788 0.916916
Si Si4 0.522383 0.606306 0.834628
Si Si5 0.719583 0.310809 0.697312
O O1 0.836468 0.647643 0.553152
O O2 0.977924 0.501429 0.559936
O O3 0.746209 0.097199 0.365865
O O4 0.956390 0.951972 0.583068
O O5 0.113673 0.284778 0.567488
O O6 0.127123 0.693479 0.651828
O O7 0.058115 0.277574 0.683148
O O8 0.607813 0.757683 0.860212
O O9 0.750000 0.750000 0.000000
O O10 0.500000 0.458252 0.750000
O O11 0.732773 0.553265 0.755213
#
# Coordination Sequence:
#
# PCOD9296438 Si02
#       5
#     8   8   8   8   8
#     4  10  23  44  75  99 143 199 259 311 380 468
#     4  10  23  46  69 105 146 197 253 312 383 470
#     4  11  25  48  71 108 149 202 259 315 388 468
#     4  11  25  42  72 107 149 199 256 323 387 463
#     4  12  29  47  77 115 159 199 254 329 400 459
#
# _framework density 25.694766999999999
#
# number of rings (size 3 to 8) (size 9 to 14) (size 15 to 20)
#    0.000    1.200    2.000    1.800    8.400    5.600 
#    0.000    0.000    0.000    0.000    0.000    0.000 
#    0.000    0.000    0.000    0.000    0.000    0.000 
#
# Total GULP energy -111747.951165 kJ/mol
# GULP energy per Si atom -5587.397558 kJ/mol
# Density = 2.563628 g / cm^3
# Si number density = 25.694767 Si / 1000 Ang^3
#
#
#
# Elastic Constant Matrix: (Units=GPa)
#
#
# Indices 1 2 3 4 5 6 
#
# 1 144.9529 66.9104 57.8325 0.0000 2.6432 -0.0001
# 2 66.9104 86.0552 29.1811 -0.0001 12.8009 -0.0002
# 3 57.8325 29.1811 110.3314 0.0000 2.9965 0.0000
# 4 0.0000 -0.0001 0.0000 45.6395 0.0000 15.4794
# 5 2.6432 12.8009 2.9965 0.0000 32.6829 0.0000
# 6 -0.0001 -0.0002 0.0000 15.4794 0.0000 43.6413
#
#
#
# Elastic Compliance Matrix: (Units=1/GPa)
#
#
# Indices 1 2 3 4 5 6 
#
# 1 0.012641 -0.008759 -0.004385 0.000000 0.002811 0.000000
# 2 -0.008759 0.019599 -0.000404 0.000000 -0.006931 0.000000
# 3 -0.004385 -0.000404 0.011484 0.000000 -0.000540 0.000000
# 4 0.000000 0.000000 0.000000 0.024907 0.000000 -0.008835
# 5 0.002811 -0.006931 -0.000540 0.000000 0.033134 0.000000
# 6 0.000000 0.000000 0.000000 -0.008835 0.000000 0.026048
#
#
# Mechanical properties :
#
#
# Convention : Reuss Voigt Hill
#
# Bulk Modulus (GPa) = 60.14732 72.13194 66.13963
# Shear Modulus (GPa) = 31.16200 36.88713 34.02457
#
# Velocity S-wave (km/s) = 3.48627 3.79303 3.64288
# Velocity P-wave (km/s) = 6.29799 6.87868 6.59473
#
# Compressibility (1/GPa) = 0.01662584
#
# Stress axis : x y z
#
# Youngs Moduli (GPa) = 79.11054 51.02266 87.07899
#
# Poissons Ratio (x) = 0.44693 0.38188
# Poissons Ratio (y) = 0.69296 0.03518
# Poissons Ratio (z) = 0.34693 0.02062
#
# Static dielectric constant tensor:
#      x y z
#    x 2.020110 0.000000 -0.016320 
#    y 0.000000 2.043180 0.000000 
#    z -0.016320 0.000000 2.133420 
# 
# From -- ./inp_files/175135.got.cif
#   From: 2010.05.17/outbox.cif.g08.bks.cpg/sg15_88_cif.got.tgz:175135.got - 2010.06.03 18:47:42.
