data_PCOD9296874
_publ_section_title
;
Structure prediction by ZEFSAII (Michael W. Deem and Ramdas Pophale) SiO2 
 PCOD9296874
Probable space group: C 2/C
;
_chemical_formula_sum "Si O2"
_cell_formula_units_Z 36
_cell_length_a 18.936495
_cell_length_b 10.726217
_cell_length_c 13.022254
_cell_angle_alpha 90.000000
_cell_angle_beta 33.548629
_cell_angle_gamma 90.000000
_cell_volume 1461.767220
_symmetry_space_group_name_H-M "C 2/C"
_symmetry_group_IT_number 15
_symmetry_cell_setting 'monoclinic'
loop_
_space_group_symop_operation_xyz
x,y,z
-x,y,1/2-z
-x,-y,-z
x,-y,1/2+z
1/2+x,1/2+y,z
1/2-x,1/2+y,1/2-z
1/2-x,1/2-y,-z
1/2+x,1/2-y,1/2+z
loop_
_atom_site_type_symbol
_atom_site_label
_atom_site_fract_x
_atom_site_fract_y
_atom_site_fract_z
Si Si1 0.750418 0.144577 0.084563
Si Si2 0.165317 0.177831 0.188335
Si Si3 0.872658 0.494540 0.439392
Si Si4 0.500000 0.505236 0.750000
Si Si5 0.986729 0.641301 0.478013
O O1 0.633069 0.187943 0.297836
O O2 0.689267 0.030846 0.093683
O O3 0.750000 0.250000 0.000000
O O4 0.892406 0.093666 0.934370
O O5 0.097937 0.272085 0.347663
O O6 0.250000 0.250000 0.000000
O O7 0.267214 0.087952 0.122283
O O8 0.064568 0.086024 0.255127
O O9 0.917690 0.614051 0.451519
O O10 0.000000 0.422505 0.250000
O O11 0.000000 0.500000 0.500000
#
# Coordination Sequence:
#
# PCOD9296874 Si02
#       5
#     8   8   8   4   8
#     4  10  23  46  71 100 145 187 235 306 358 431
#     4  11  24  45  75 106 151 191 239 311 357 447
#     4   9  21  43  68 103 142 186 241 289 369 432
#     4  10  24  46  72 108 146 196 248 288 380 434
#     4  11  24  44  70 106 142 189 239 295 368 430
#
# _framework density 24.627725000000002
#
# number of rings (size 3 to 8) (size 9 to 14) (size 15 to 20)
#    0.000    1.778    0.000    4.000    9.333    1.778 
#    8.000    2.222    0.000    0.000    0.000    0.000 
#    0.000    0.000    0.000    0.000    0.000    0.000 
#
# Total GULP energy -100504.841517 kJ/mol
# GULP energy per Si atom -5583.602306 kJ/mol
# Density = 2.457167 g / cm^3
# Si number density = 24.627725 Si / 1000 Ang^3
#
#
#
# Elastic Constant Matrix: (Units=GPa)
#
#
# Indices 1 2 3 4 5 6 
#
# 1 91.5410 17.4846 46.3358 0.0000 -18.1757 0.0000
# 2 17.4846 107.5620 82.3093 0.0000 -15.0019 0.0000
# 3 46.3358 82.3093 237.3564 0.0000 -18.6444 0.0000
# 4 0.0000 0.0000 0.0000 61.9837 0.0000 3.7346
# 5 -18.1757 -15.0019 -18.6444 0.0000 37.7176 0.0000
# 6 0.0000 0.0000 0.0000 3.7346 0.0000 35.6759
#
#
#
# Elastic Compliance Matrix: (Units=1/GPa)
#
#
# Indices 1 2 3 4 5 6 
#
# 1 0.013052 0.000340 -0.002249 0.000000 0.005313 0.000000
# 2 0.000340 0.012994 -0.004321 0.000000 0.003196 0.000000
# 3 -0.002249 -0.004321 0.006170 0.000000 0.000248 0.000000
# 4 0.000000 0.000000 0.000000 0.016236 0.000000 -0.001700
# 5 0.005313 0.003196 0.000248 0.000000 0.030467 0.000000
# 6 0.000000 0.000000 0.000000 -0.001700 0.000000 0.028208
#
#
# Mechanical properties :
#
#
# Convention : Reuss Voigt Hill
#
# Bulk Modulus (GPa) = 50.61560 80.96877 65.79219
# Shear Modulus (GPa) = 39.62818 46.43075 43.02946
#
# Velocity S-wave (km/s) = 4.01570 4.34672 4.18448
# Velocity P-wave (km/s) = 6.48830 7.62499 7.07949
#
# Compressibility (1/GPa) = 0.01975675
#
# Stress axis : x y z
#
# Youngs Moduli (GPa) = 76.61493 76.95657 162.07336
#
# Poissons Ratio (x) = -0.02617 0.36443
# Poissons Ratio (y) = -0.02605 0.70039
# Poissons Ratio (z) = 0.17227 0.33256
#
# Static dielectric constant tensor:
#      x y z
#    x 2.115710 0.000000 -0.034690 
#    y 0.000000 2.134140 0.000000 
#    z -0.034690 0.000000 2.061240 
# 
# From -- ./inp_files/167488.got.cif
#   From: 2010.05.17/outbox.cif.g08.bks.cpg/sg15_84_cif.got.tgz:167488.got - 2010.06.03 18:47:42.
