data_PCOD9296268
_publ_section_title
;
Structure prediction by ZEFSAII (Michael W. Deem and Ramdas Pophale) SiO2 
 PCOD9296268
Probable space group: C 2/C
;
_chemical_formula_sum "Si O2"
_cell_formula_units_Z 44
_cell_length_a 11.582630
_cell_length_b 27.186962
_cell_length_c 8.943781
_cell_angle_alpha 90.000000
_cell_angle_beta 46.255305
_cell_angle_gamma 90.000000
_cell_volume 2034.621276
_symmetry_space_group_name_H-M "C 2/C"
_symmetry_group_IT_number 15
_symmetry_cell_setting 'monoclinic'
loop_
_space_group_symop_operation_xyz
x,y,z
-x,y,1/2-z
-x,-y,-z
x,-y,1/2+z
1/2+x,1/2+y,z
1/2-x,1/2+y,1/2-z
1/2-x,1/2-y,-z
1/2+x,1/2-y,1/2+z
loop_
_atom_site_type_symbol
_atom_site_label
_atom_site_fract_x
_atom_site_fract_y
_atom_site_fract_z
Si Si1 0.000000 0.007533 0.750000
Si Si2 0.043542 0.697650 0.383864
Si Si3 0.229412 0.398536 0.810999
Si Si4 0.000000 0.563425 0.750000
Si Si5 0.000000 0.144239 0.250000
Si Si6 0.264485 0.487576 0.204669
Si Si7 0.233836 0.216666 0.866136
O O1 0.103507 0.977825 0.539264
O O2 0.854367 0.030286 0.777028
O O3 0.893608 0.698057 0.636585
O O4 0.000000 0.701811 0.250000
O O5 0.146976 0.647271 0.302644
O O6 0.145045 0.745985 0.334178
O O7 0.401757 0.384582 0.714262
O O8 0.238991 0.453217 0.733678
O O9 0.125862 0.404314 0.052225
O O10 0.900891 0.534010 0.711065
O O11 0.878106 0.174860 0.463850
O O12 0.250000 0.250000 0.000000
#
# Coordination Sequence:
#
# PCOD9296268 Si02
#       7
#     4   8   8   4   4   8   8
#     4  10  23  44  70  92 133 183 240 286 364 419
#     4  12  26  44  71 109 145 180 232 303 356 426
#     4  12  26  43  67 108 138 181 245 290 354 418
#     4  12  26  43  76  96 147 193 244 295 360 428
#     4  12  25  43  74 102 136 184 240 295 338 443
#     4  11  24  46  67 100 134 192 235 300 356 424
#     4  12  22  47  75 100 141 189 234 278 368 436
#
# _framework density 21.625644999999999
#
# number of rings (size 3 to 8) (size 9 to 14) (size 15 to 20)
#    0.000    0.364    5.455    2.727    3.818    0.000 
#    3.273    0.000    0.000    0.000    0.000    0.000 
#    0.000    0.000    0.000    0.000    0.000    0.000 
#
# Total GULP energy -122642.202663 kJ/mol
# GULP energy per Si atom -5574.645576 kJ/mol
# Density = 2.157642 g / cm^3
# Si number density = 21.625645 Si / 1000 Ang^3
#
#
#
# Elastic Constant Matrix: (Units=GPa)
#
#
# Indices 1 2 3 4 5 6 
#
# 1 168.5353 33.9128 17.6933 0.0000 17.2550 0.0000
# 2 33.9128 61.9781 6.5141 0.0000 -4.7941 0.0000
# 3 17.6933 6.5141 93.2852 0.0000 -2.1041 0.0000
# 4 0.0000 0.0000 0.0000 0.1163 0.0000 -16.7893
# 5 17.2550 -4.7941 -2.1041 0.0000 45.9440 0.0000
# 6 0.0000 0.0000 0.0000 -16.7893 0.0000 35.3209
#
#
#
# Elastic Compliance Matrix: (Units=1/GPa)
#
#
# Indices 1 2 3 4 5 6 
#
# 1 0.007198 -0.004063 -0.001153 0.000000 -0.003180 0.000000
# 2 -0.004063 0.018673 -0.000455 0.000000 0.003454 0.000000
# 3 -0.001153 -0.000455 0.010990 0.000000 0.000889 0.000000
# 4 0.000000 0.000000 0.000000 -0.127157 0.000000 -0.060443
# 5 -0.003180 0.003454 0.000889 0.000000 0.023361 0.000000
# 6 0.000000 0.000000 0.000000 -0.060443 0.000000 -0.000419
#
#
# Mechanical properties :
#
#
# Convention : Reuss Voigt Hill
#
# Bulk Modulus (GPa) = 39.18857 48.89321 44.04089
# Shear Modulus (GPa) = -105.25303 33.98814 -35.63244
#
# Velocity S-wave (km/s) = -6.98399 3.96872 -4.06358
# Velocity P-wave (km/s) = 6.84647 6.60749 1.26792
#
# Compressibility (1/GPa) = 0.02551764
#
# Stress axis : x y z
#
# Youngs Moduli (GPa) = 138.93299 53.55323 90.98863
#
# Poissons Ratio (x) = 0.21760 0.10493
# Poissons Ratio (y) = 0.56451 0.04143
# Poissons Ratio (z) = 0.16021 0.02439
#
# Static dielectric constant tensor:
#      x y z
#    x 1.917820 0.000000 -0.031600 
#    y 0.000000 1.869470 0.000000 
#    z -0.031600 0.000000 1.794390 
# 
# From -- ./inp_files/34051.got.cif
#   From: 2010.05.17/outbox.cif.g08.bks.cpg/sg15_18_cif.got.tgz:34051.got - 2010.06.03 18:47:42.
