data_PCOD9296269
_publ_section_title
;
Structure prediction by ZEFSAII (Michael W. Deem and Ramdas Pophale) SiO2 
 PCOD9296269
Probable space group: C 2/C
;
_chemical_formula_sum "Si O2"
_cell_formula_units_Z 32
_cell_length_a 12.376625
_cell_length_b 6.817269
_cell_length_c 15.124336
_cell_angle_alpha 90.000000
_cell_angle_beta 116.386941
_cell_angle_gamma 90.000000
_cell_volume 1143.158315
_symmetry_space_group_name_H-M "C 2/C"
_symmetry_group_IT_number 15
_symmetry_cell_setting 'monoclinic'
loop_
_space_group_symop_operation_xyz
x,y,z
-x,y,1/2-z
-x,-y,-z
x,-y,1/2+z
1/2+x,1/2+y,z
1/2-x,1/2+y,1/2-z
1/2-x,1/2-y,-z
1/2+x,1/2-y,1/2+z
loop_
_atom_site_type_symbol
_atom_site_label
_atom_site_fract_x
_atom_site_fract_y
_atom_site_fract_z
Si Si1 0.170478 0.498874 0.152666
Si Si2 0.140225 0.856547 0.909249
Si Si3 0.564953 0.261750 0.471327
Si Si4 0.384576 0.961981 0.672537
O O1 0.297134 0.543421 0.152241
O O2 0.188820 0.497858 0.265139
O O3 0.068214 0.663194 0.089108
O O4 0.119635 0.305303 0.084820
O O5 0.068546 0.668896 0.848914
O O6 0.074214 0.012173 0.947047
O O7 0.250000 0.750000 0.000000
O O8 0.648890 0.151175 0.427840
O O9 0.500000 0.843710 0.750000
#
# Coordination Sequence:
#
# PCOD9296269 Si02
#       4
#     8   8   8   8
#     4  10  23  44  70  94 137 186 224 288 358 413
#     4  12  25  41  70 102 133 180 237 288 346 423
#     4  10  23  47  64  95 143 176 222 295 348 413
#     4  10  24  45  63  98 134 174 234 282 343 420
#
# _framework density 27.992622999999998
#
# number of rings (size 3 to 8) (size 9 to 14) (size 15 to 20)
#    0.000    1.500    2.500    0.750    3.500    4.000 
#    0.000    0.000    0.000    0.000    0.000    0.000 
#    0.000    0.000    0.000    0.000    0.000    0.000 
#
# Total GULP energy -89531.538684 kJ/mol
# GULP energy per Si atom -5595.721168 kJ/mol
# Density = 2.792891 g / cm^3
# Si number density = 27.992623 Si / 1000 Ang^3
#
#
#
# Elastic Constant Matrix: (Units=GPa)
#
#
# Indices 1 2 3 4 5 6 
#
# 1 121.2645 38.5199 46.6716 0.0000 -52.4494 0.0000
# 2 38.5199 152.6099 32.7531 0.0000 2.8208 0.0000
# 3 46.6716 32.7531 141.9154 0.0000 -33.4096 0.0000
# 4 0.0000 0.0000 0.0000 33.1057 0.0000 -7.1969
# 5 -52.4494 2.8208 -33.4096 0.0000 69.2526 0.0000
# 6 0.0000 0.0000 0.0000 -7.1969 0.0000 50.3061
#
#
#
# Elastic Compliance Matrix: (Units=1/GPa)
#
#
# Indices 1 2 3 4 5 6 
#
# 1 0.014404 -0.003505 -0.001496 0.000000 0.010330 0.000000
# 2 -0.003505 0.007834 -0.001529 0.000000 -0.003712 0.000000
# 3 -0.001496 -0.001529 0.008618 0.000000 0.003087 0.000000
# 4 0.000000 0.000000 0.000000 0.031176 0.000000 0.004460
# 5 0.010330 -0.003712 0.003087 0.000000 0.023904 0.000000
# 6 0.000000 0.000000 0.000000 0.004460 0.000000 0.020516
#
#
# Mechanical properties :
#
#
# Convention : Reuss Voigt Hill
#
# Bulk Modulus (GPa) = 56.19609 72.40875 64.30242
# Shear Modulus (GPa) = 39.85828 50.38922 45.12375
#
# Velocity S-wave (km/s) = 3.77753 4.24735 4.01931
# Velocity P-wave (km/s) = 6.25662 7.06941 6.67539
#
# Compressibility (1/GPa) = 0.01779483
#
# Stress axis : x y z
#
# Youngs Moduli (GPa) = 69.42718 127.64516 116.03548
#
# Poissons Ratio (x) = 0.44745 0.17359
# Poissons Ratio (y) = 0.24337 0.17742
# Poissons Ratio (z) = 0.10387 0.19518
#
# Static dielectric constant tensor:
#      x y z
#    x 2.284040 0.000000 0.055550 
#    y 0.000000 2.215580 0.000000 
#    z 0.055550 0.000000 2.331400 
# 
# From -- ./inp_files/201831.got.cif
#   From: 2010.05.17/outbox.cif.g08.bks.cpg/sg15_101_cif.got.tgz:201831.got - 2010.06.03 18:47:42.
