data_PCOD9296065
_publ_section_title
;
Structure prediction by ZEFSAII (Michael W. Deem and Ramdas Pophale) SiO2 
 PCOD9296065
Probable space group: C 2/C
;
_chemical_formula_sum "Si O2"
_cell_formula_units_Z 40
_cell_length_a 10.614143
_cell_length_b 7.481520
_cell_length_c 29.818110
_cell_angle_alpha 90.000000
_cell_angle_beta 131.545454
_cell_angle_gamma 90.000000
_cell_volume 1772.172397
_symmetry_space_group_name_H-M "C 2/C"
_symmetry_group_IT_number 15
_symmetry_cell_setting 'monoclinic'
loop_
_space_group_symop_operation_xyz
x,y,z
-x,y,1/2-z
-x,-y,-z
x,-y,1/2+z
1/2+x,1/2+y,z
1/2-x,1/2+y,1/2-z
1/2-x,1/2-y,-z
1/2+x,1/2-y,1/2+z
loop_
_atom_site_type_symbol
_atom_site_label
_atom_site_fract_x
_atom_site_fract_y
_atom_site_fract_z
Si Si1 0.574537 0.575018 0.879962
Si Si2 0.415841 0.281047 0.778658
Si Si3 0.970114 0.367690 0.795959
Si Si4 0.550361 0.777030 0.957361
Si Si5 0.131579 0.362170 0.502914
O O1 0.476870 0.427376 0.828581
O O2 0.600517 0.749228 0.855114
O O3 0.478619 0.652692 0.901353
O O4 0.742865 0.478147 0.936262
O O5 0.500000 0.319954 0.750000
O O6 0.213292 0.295018 0.731877
O O7 0.471539 0.079936 0.804483
O O8 0.000000 0.339478 0.750000
O O9 0.478518 0.742328 0.989746
O O10 0.750000 0.750000 0.000000
O O11 0.530881 0.992340 0.949483
O O12 0.250000 0.250000 0.500000
#
# Coordination Sequence:
#
# PCOD9296065 Si02
#       5
#     8   8   8   8   8
#     4  11  24  41  70  97 131 180 215 271 340 390
#     4  11  25  44  65  98 136 171 224 272 324 401
#     4  11  25  44  65  97 135 172 221 273 325 396
#     4   9  22  44  64  97 131 167 223 275 326 392
#     4  10  23  44  66  97 133 171 223 280 327 400
#
# _framework density 22.571165000000001
#
# number of rings (size 3 to 8) (size 9 to 14) (size 15 to 20)
#    0.000    1.600    2.000    0.600    5.600    3.200 
#    7.200    0.000    0.000    0.000    0.000    0.000 
#    0.000    0.000    0.000    0.000    0.000    0.000 
#
# Total GULP energy -111642.119146 kJ/mol
# GULP energy per Si atom -5582.105957 kJ/mol
# Density = 2.251979 g / cm^3
# Si number density = 22.571165 Si / 1000 Ang^3
#
#
#
# Elastic Constant Matrix: (Units=GPa)
#
#
# Indices 1 2 3 4 5 6 
#
# 1 184.8888 62.7301 34.5462 0.0000 -30.8090 0.0000
# 2 62.7301 141.0588 60.0861 0.0000 -23.8204 0.0000
# 3 34.5462 60.0861 71.0459 0.0000 -14.2541 0.0000
# 4 0.0000 0.0000 0.0000 10.8280 0.0000 -4.9441
# 5 -30.8090 -23.8204 -14.2541 0.0000 24.5851 0.0000
# 6 0.0000 0.0000 0.0000 -4.9441 0.0000 26.9957
#
#
#
# Elastic Compliance Matrix: (Units=1/GPa)
#
#
# Indices 1 2 3 4 5 6 
#
# 1 0.007310 -0.001794 -0.000620 0.000000 0.007063 0.000000
# 2 -0.001794 0.012363 -0.008636 0.000000 0.004724 0.000000
# 3 -0.000620 -0.008636 0.022459 0.000000 0.003876 0.000000
# 4 0.000000 0.000000 0.000000 0.100781 0.000000 0.018457
# 5 0.007063 0.004724 0.003876 0.000000 0.056350 0.000000
# 6 0.000000 0.000000 0.000000 0.018457 0.000000 0.040423
#
#
# Mechanical properties :
#
#
# Convention : Reuss Voigt Hill
#
# Bulk Modulus (GPa) = 49.92163 79.07981 64.50072
# Shear Modulus (GPa) = 18.62444 28.45716 23.54080
#
# Velocity S-wave (km/s) = 2.87565 3.55459 3.23299
# Velocity P-wave (km/s) = 5.76118 7.20824 6.52495
#
# Compressibility (1/GPa) = 0.02003140
#
# Stress axis : x y z
#
# Youngs Moduli (GPa) = 136.79574 80.88392 44.52627
#
# Poissons Ratio (x) = 0.14510 0.02762
# Poissons Ratio (y) = 0.24540 0.38454
# Poissons Ratio (z) = 0.08486 0.69853
#
# Static dielectric constant tensor:
#      x y z
#    x 2.000520 0.000000 0.122510 
#    y 0.000000 1.874660 0.000000 
#    z 0.122510 0.000000 2.023000 
# 
# From -- ./inp_files/306568.got.cif
#   From: 2010.05.17/outbox.cif.g08.bks.cpg/sg15_154_cif.got.tgz:306568.got - 2010.06.03 18:47:42.
