data_PCOD9296293
_publ_section_title
;
Structure prediction by ZEFSAII (Michael W. Deem and Ramdas Pophale) SiO2 
 PCOD9296293
Probable space group: C 2/C
;
_chemical_formula_sum "Si O2"
_cell_formula_units_Z 56
_cell_length_a 10.964100
_cell_length_b 18.478070
_cell_length_c 12.033360
_cell_angle_alpha 90.000000
_cell_angle_beta 73.361104
_cell_angle_gamma 90.000000
_cell_volume 2335.824576
_symmetry_space_group_name_H-M "C 2/C"
_symmetry_group_IT_number 15
_symmetry_cell_setting 'monoclinic'
loop_
_space_group_symop_operation_xyz
x,y,z
-x,y,1/2-z
-x,-y,-z
x,-y,1/2+z
1/2+x,1/2+y,z
1/2-x,1/2+y,1/2-z
1/2-x,1/2-y,-z
1/2+x,1/2-y,1/2+z
loop_
_atom_site_type_symbol
_atom_site_label
_atom_site_fract_x
_atom_site_fract_y
_atom_site_fract_z
Si Si1 0.000000 0.557431 0.750000
Si Si2 0.670020 0.417824 0.009271
Si Si3 0.210854 0.784757 0.849424
Si Si4 0.039166 0.718788 0.083399
Si Si5 0.046363 0.581981 0.977207
Si Si6 0.279257 0.457441 0.149790
Si Si7 0.725862 0.714695 0.886045
Si Si8 0.000000 0.066435 0.750000
O O1 0.014202 0.602234 0.859334
O O2 0.134361 0.514656 0.707266
O O3 0.673727 0.364969 0.901699
O O4 0.659992 0.499665 0.968834
O O5 0.804799 0.413961 0.035877
O O6 0.564690 0.396201 0.126500
O O7 0.128475 0.734811 0.952962
O O8 0.194853 0.758274 0.728436
O O9 0.360479 0.776412 0.843106
O O10 0.986267 0.637502 0.079873
O O11 0.920318 0.770001 0.105401
O O12 0.000000 0.500000 0.000000
O O13 0.260192 0.372022 0.130374
O O14 0.376184 0.470527 0.226190
O O15 0.750000 0.750000 0.000000
#
# Coordination Sequence:
#
# PCOD9296293 Si02
#       8
#     4   8   8   8   8   8   8   4
#     4  12  22  42  70 104 140 190 240 312 376 448
#     4  11  25  47  72 112 144 200 256 318 380 456
#     4  10  24  46  73 103 143 188 254 310 369 449
#     4  10  23  44  71 102 138 191 247 305 374 447
#     4  11  22  41  70 104 144 186 248 309 378 447
#     4  12  27  44  74 106 149 197 253 308 387 462
#     4  12  27  44  70 107 151 198 241 311 387 455
#     4  12  26  46  74 108 150 204 248 316 388 454
#
# _framework density 23.974404
#
# number of rings (size 3 to 8) (size 9 to 14) (size 15 to 20)
#    0.000    0.857    2.857    3.429    6.000    2.857 
#    0.000    0.000    0.000    0.000    0.000    0.000 
#    0.000    0.000    0.000    0.000    0.000    0.000 
#
# Total GULP energy -156464.345874 kJ/mol
# GULP energy per Si atom -5588.012353 kJ/mol
# Density = 2.391984 g / cm^3
# Si number density = 23.974404 Si / 1000 Ang^3
#
#
#
# Elastic Constant Matrix: (Units=GPa)
#
#
# Indices 1 2 3 4 5 6 
#
# 1 83.4083 32.8717 44.4521 0.0000 -4.5849 0.0000
# 2 32.8717 126.2630 52.1083 0.0000 -3.0719 0.0000
# 3 44.4521 52.1083 148.9775 0.0000 25.6962 0.0000
# 4 0.0000 0.0000 0.0000 13.2219 0.0000 -1.0084
# 5 -4.5849 -3.0719 25.6962 0.0000 42.1700 0.0000
# 6 0.0000 0.0000 0.0000 -1.0084 0.0000 22.8133
#
#
#
# Elastic Compliance Matrix: (Units=1/GPa)
#
#
# Indices 1 2 3 4 5 6 
#
# 1 0.015518 -0.001997 -0.004691 0.000000 0.004400 0.000000
# 2 -0.001997 0.009856 -0.003283 0.000000 0.002501 0.000000
# 3 -0.004691 -0.003283 0.010492 0.000000 -0.007143 0.000000
# 4 0.000000 0.000000 0.000000 0.075888 0.000000 0.003354
# 5 0.004400 0.002501 -0.007143 0.000000 0.028726 0.000000
# 6 0.000000 0.000000 0.000000 0.003354 0.000000 0.043982
#
#
# Mechanical properties :
#
#
# Convention : Reuss Voigt Hill
#
# Bulk Modulus (GPa) = 62.79528 68.61256 65.70392
# Shear Modulus (GPa) = 23.84228 30.92217 27.38223
#
# Velocity S-wave (km/s) = 3.15697 3.59527 3.38323
# Velocity P-wave (km/s) = 6.28794 6.77613 6.53659
#
# Compressibility (1/GPa) = 0.01592476
#
# Stress axis : x y z
#
# Youngs Moduli (GPa) = 64.44114 101.46596 95.30890
#
# Poissons Ratio (x) = 0.20264 0.44706
# Poissons Ratio (y) = 0.12870 0.31287
# Poissons Ratio (z) = 0.30227 0.33308
#
# Static dielectric constant tensor:
#      x y z
#    x 1.920040 0.000000 -0.038210 
#    y 0.000000 1.988370 0.000000 
#    z -0.038210 0.000000 1.974580 
# 
# From -- ./inp_files/89598.got.cif
#   From: 2010.05.17/outbox.cif.g08.bks.cpg/sg15_45_cif.got.tgz:89598.got - 2010.06.03 18:47:42.
