data_PCOD9296940
_publ_section_title
;
Structure prediction by ZEFSAII (Michael W. Deem and Ramdas Pophale) SiO2 
 PCOD9296940
Probable space group: C 2/C
;
_chemical_formula_sum "Si O2"
_cell_formula_units_Z 44
_cell_length_a 8.811461
_cell_length_b 21.092275
_cell_length_c 11.066469
_cell_angle_alpha 90.000000
_cell_angle_beta 103.565926
_cell_angle_gamma 90.000000
_cell_volume 1999.363051
_symmetry_space_group_name_H-M "C 2/C"
_symmetry_group_IT_number 15
_symmetry_cell_setting 'monoclinic'
loop_
_space_group_symop_operation_xyz
x,y,z
-x,y,1/2-z
-x,-y,-z
x,-y,1/2+z
1/2+x,1/2+y,z
1/2-x,1/2+y,1/2-z
1/2-x,1/2-y,-z
1/2+x,1/2-y,1/2+z
loop_
_atom_site_type_symbol
_atom_site_label
_atom_site_fract_x
_atom_site_fract_y
_atom_site_fract_z
Si Si1 0.784572 0.852659 0.084746
Si Si2 0.498938 0.238779 0.042358
Si Si3 0.205819 0.178951 0.427814
Si Si4 0.821244 0.602108 0.676931
Si Si5 0.000000 0.918971 0.750000
Si Si6 0.332240 0.524389 0.424561
O O1 0.773966 0.880235 0.218650
O O2 0.921366 0.799841 0.092466
O O3 0.631359 0.812281 0.017393
O O4 0.794747 0.913414 0.996896
O O5 0.582275 0.267052 0.938918
O O6 0.651018 0.203835 0.128550
O O7 0.276819 0.151254 0.564517
O O8 0.098841 0.124632 0.355868
O O9 0.786277 0.533798 0.608904
O O10 0.000000 0.605487 0.750000
O O11 0.869177 0.957591 0.794333
O O12 0.500000 0.500000 0.500000
#
# Coordination Sequence:
#
# PCOD9296940 Si02
#       6
#     8   8   8   8   4   8
#     4  11  24  47  74 110 144 185 250 295 359 432
#     4  10  23  46  73 108 142 185 235 298 359 433
#     4  11  24  46  72 109 141 191 233 294 380 415
#     4  12  26  46  76 102 148 190 239 304 360 425
#     4  12  24  46  68 104 146 186 244 292 356 436
#     4  12  25  46  72 105 143 195 244 293 359 428
#
# _framework density 22.007007999999999
#
# number of rings (size 3 to 8) (size 9 to 14) (size 15 to 20)
#    0.000    0.727    5.455    1.091    0.000    7.273 
#    3.273    0.000    0.000    0.000    0.000    0.000 
#    0.000    0.000    0.000    0.000    0.000    0.000 
#
# Total GULP energy -122833.263435 kJ/mol
# GULP energy per Si atom -5583.330156 kJ/mol
# Density = 2.195692 g / cm^3
# Si number density = 22.007008 Si / 1000 Ang^3
#
#
#
# Elastic Constant Matrix: (Units=GPa)
#
#
# Indices 1 2 3 4 5 6 
#
# 1 118.6339 50.9212 23.3950 0.0000 3.6173 0.0000
# 2 50.9212 149.0004 41.8802 0.0000 -17.8040 0.0000
# 3 23.3950 41.8802 72.2746 0.0000 -1.9868 0.0000
# 4 0.0000 0.0000 0.0000 27.4647 0.0000 13.8155
# 5 3.6173 -17.8040 -1.9868 0.0000 24.7043 0.0000
# 6 0.0000 0.0000 0.0000 13.8155 0.0000 49.2987
#
#
#
# Elastic Compliance Matrix: (Units=1/GPa)
#
#
# Indices 1 2 3 4 5 6 
#
# 1 0.010411 -0.003692 -0.001349 0.000000 -0.004294 0.000000
# 2 -0.003692 0.010121 -0.004464 0.000000 0.007476 0.000000
# 3 -0.001349 -0.004464 0.016814 0.000000 -0.001668 0.000000
# 4 0.000000 0.000000 0.000000 0.042385 0.000000 -0.011878
# 5 -0.004294 0.007476 -0.001668 0.000000 0.046361 0.000000
# 6 0.000000 0.000000 0.000000 -0.011878 0.000000 0.023613
#
#
# Mechanical properties :
#
#
# Convention : Reuss Voigt Hill
#
# Bulk Modulus (GPa) = 54.53730 63.58908 59.06319
# Shear Modulus (GPa) = 28.59971 35.20772 31.90371
#
# Velocity S-wave (km/s) = 3.60887 4.00414 3.81163
# Velocity P-wave (km/s) = 6.49622 7.09473 6.80206
#
# Compressibility (1/GPa) = 0.01833607
#
# Stress axis : x y z
#
# Youngs Moduli (GPa) = 96.05378 98.80292 59.47532
#
# Poissons Ratio (x) = 0.36477 0.08021
# Poissons Ratio (y) = 0.35462 0.26551
# Poissons Ratio (z) = 0.12955 0.44108
#
# Static dielectric constant tensor:
#      x y z
#    x 1.842770 0.000000 -0.024040 
#    y 0.000000 2.269550 0.000000 
#    z -0.024040 0.000000 1.795530 
# 
# From -- ./inp_files/78387.got.cif
#   From: 2010.05.17/outbox.cif.g08.bks.cpg/sg15_40_cif.got.tgz:78387.got - 2010.06.03 18:47:42.
