data_PCOD9296976
_publ_section_title
;
Structure prediction by ZEFSAII (Michael W. Deem and Ramdas Pophale) SiO2 
 PCOD9296976
Probable space group: C 2/C
;
_chemical_formula_sum "Si O2"
_cell_formula_units_Z 32
_cell_length_a 13.412117
_cell_length_b 5.124694
_cell_length_c 18.300103
_cell_angle_alpha 90.000000
_cell_angle_beta 76.837277
_cell_angle_gamma 90.000000
_cell_volume 1224.774500
_symmetry_space_group_name_H-M "C 2/C"
_symmetry_group_IT_number 15
_symmetry_cell_setting 'monoclinic'
loop_
_space_group_symop_operation_xyz
x,y,z
-x,y,1/2-z
-x,-y,-z
x,-y,1/2+z
1/2+x,1/2+y,z
1/2-x,1/2+y,1/2-z
1/2-x,1/2-y,-z
1/2+x,1/2-y,1/2+z
loop_
_atom_site_type_symbol
_atom_site_label
_atom_site_fract_x
_atom_site_fract_y
_atom_site_fract_z
Si Si1 0.138499 0.324864 0.107780
Si Si2 0.408248 0.682021 0.164130
Si Si3 0.878743 0.317201 0.759400
Si Si4 0.685933 0.928419 0.456291
O O1 0.158636 0.580549 0.155080
O O2 0.234619 0.129418 0.095096
O O3 0.032180 0.190728 0.151209
O O4 0.121752 0.402608 0.025889
O O5 0.358618 0.438810 0.214484
O O6 0.378547 0.742174 0.085800
O O7 0.363162 0.933825 0.211339
O O8 0.000000 0.297383 0.750000
O O9 0.750000 0.750000 0.500000
#
# Coordination Sequence:
#
# PCOD9296976 Si02
#       4
#     8   8   8   8
#     4  10  25  49  76 113 159 199 261 328 386 473
#     4  11  25  47  79 109 149 207 256 310 397 457
#     4  10  23  46  77 108 146 202 256 313 384 461
#     4  11  27  46  76 114 157 202 259 321 393 464
#
# _framework density 26.127255999999999
#
# number of rings (size 3 to 8) (size 9 to 14) (size 15 to 20)
#    0.000    1.500    0.000    3.000   17.500    1.000 
#    4.500    0.000    0.000    0.000    0.000    0.000 
#    0.000    0.000    0.000    0.000    0.000    0.000 
#
# Total GULP energy -89543.252196 kJ/mol
# GULP energy per Si atom -5596.453262 kJ/mol
# Density = 2.606779 g / cm^3
# Si number density = 26.127256 Si / 1000 Ang^3
#
#
#
# Elastic Constant Matrix: (Units=GPa)
#
#
# Indices 1 2 3 4 5 6 
#
# 1 86.0148 36.5679 53.3322 0.0000 -23.8225 0.0000
# 2 36.5679 221.0455 87.7463 -0.0001 -3.8061 0.0000
# 3 53.3322 87.7463 168.8953 0.0000 3.7721 0.0000
# 4 0.0000 -0.0001 0.0000 66.8994 0.0000 -12.3121
# 5 -23.8225 -3.8061 3.7721 0.0000 54.0739 0.0000
# 6 0.0000 0.0000 0.0000 -12.3121 0.0000 -14.0363
#
#
#
# Elastic Compliance Matrix: (Units=1/GPa)
#
#
# Indices 1 2 3 4 5 6 
#
# 1 0.017432 -0.000617 -0.005363 0.000000 0.008010 0.000000
# 2 -0.000617 0.005741 -0.002795 0.000000 0.000327 0.000000
# 3 -0.005363 -0.002795 0.009138 0.000000 -0.003197 0.000000
# 4 0.000000 0.000000 0.000000 0.012870 0.000000 -0.011289
# 5 0.008010 0.000327 -0.003197 0.000000 0.022268 0.000000
# 6 0.000000 0.000000 0.000000 -0.011289 0.000000 -0.061341
#
#
# Mechanical properties :
#
#
# Convention : Reuss Voigt Hill
#
# Bulk Modulus (GPa) = 67.74675 92.36091 80.05383
# Shear Modulus (GPa) = 174.95637 41.27466 108.11552
#
# Velocity S-wave (km/s) = 8.19198 3.97893 6.43974
# Velocity P-wave (km/s) = 10.74541 7.51906 9.27362
#
# Compressibility (1/GPa) = 0.01476086
#
# Stress axis : x y z
#
# Youngs Moduli (GPa) = 57.36612 174.17766 109.43486
#
# Poissons Ratio (x) = 0.10747 0.58688
# Poissons Ratio (y) = 0.03540 0.30590
# Poissons Ratio (z) = 0.30764 0.48687
#
# Static dielectric constant tensor:
#      x y z
#    x 2.041950 0.000000 -0.030390 
#    y 0.000000 2.096190 0.000000 
#    z -0.030390 0.000000 2.361720 
# 
# From -- ./inp_files/207737.got.cif
#   From: 2010.05.17/outbox.cif.g08.bks.cpg/sg15_104_cif.got.tgz:207737.got - 2010.06.03 18:47:42.
