data_PCOD9296245
_publ_section_title
;
Structure prediction by ZEFSAII (Michael W. Deem and Ramdas Pophale) SiO2 
 PCOD9296245
Probable space group: C 2/C
;
_chemical_formula_sum "Si O2"
_cell_formula_units_Z 40
_cell_length_a 7.436511
_cell_length_b 18.972053
_cell_length_c 11.271409
_cell_angle_alpha 90.000000
_cell_angle_beta 71.581121
_cell_angle_gamma 90.000000
_cell_volume 1508.771949
_symmetry_space_group_name_H-M "C 2/C"
_symmetry_group_IT_number 15
_symmetry_cell_setting 'monoclinic'
loop_
_space_group_symop_operation_xyz
x,y,z
-x,y,1/2-z
-x,-y,-z
x,-y,1/2+z
1/2+x,1/2+y,z
1/2-x,1/2+y,1/2-z
1/2-x,1/2-y,-z
1/2+x,1/2-y,1/2+z
loop_
_atom_site_type_symbol
_atom_site_label
_atom_site_fract_x
_atom_site_fract_y
_atom_site_fract_z
Si Si1 0.704703 0.388082 0.803415
Si Si2 0.818069 0.120037 0.521245
Si Si3 0.284192 0.959795 0.244543
Si Si4 0.408465 0.126837 0.505539
Si Si5 0.092535 0.253435 0.852327
O O1 0.504638 0.376422 0.602513
O O2 0.726157 0.460870 0.728813
O O3 0.835737 0.399198 0.893560
O O4 0.779047 0.318272 0.721657
O O5 0.847802 0.064083 0.619476
O O6 0.617605 0.104328 0.503077
O O7 0.801708 0.194036 0.595971
O O8 0.500000 0.957887 0.250000
O O9 0.279408 0.905515 0.135769
O O10 0.438918 0.210097 0.472785
O O11 0.000000 0.225487 0.750000
#
# Coordination Sequence:
#
# PCOD9296245 Si02
#       5
#     8   8   8   8   8
#     4  11  25  46  72 103 143 185 235 288 351 418
#     4  11  25  43  70 107 139 182 241 284 350 418
#     4  10  23  44  70 102 138 183 234 286 349 415
#     4  10  24  47  70  99 146 182 231 291 350 412
#     4  10  24  43  71 106 140 188 232 287 348 417
#
# _framework density 26.511628000000002
#
# number of rings (size 3 to 8) (size 9 to 14) (size 15 to 20)
#    0.000    1.600    0.000    3.000    5.600    9.600 
#    3.600    6.000    0.000    0.000    0.000    0.000 
#    0.000    0.000    0.000    0.000    0.000    0.000 
#
# Total GULP energy -112048.023707 kJ/mol
# GULP energy per Si atom -5602.401185 kJ/mol
# Density = 2.645129 g / cm^3
# Si number density = 26.511628 Si / 1000 Ang^3
#
#
#
# Elastic Constant Matrix: (Units=GPa)
#
#
# Indices 1 2 3 4 5 6 
#
# 1 137.3574 40.9582 58.6708 0.0000 -2.3419 0.0000
# 2 40.9582 111.1197 53.4493 0.0000 -8.6906 0.0000
# 3 58.6708 53.4493 109.6001 0.0000 -1.3139 0.0000
# 4 0.0000 0.0000 0.0000 35.2820 0.0000 -15.9431
# 5 -2.3419 -8.6906 -1.3139 0.0000 46.0392 0.0000
# 6 0.0000 0.0000 0.0000 -15.9431 0.0000 10.1347
#
#
#
# Elastic Compliance Matrix: (Units=1/GPa)
#
#
# Indices 1 2 3 4 5 6 
#
# 1 0.009601 -0.001384 -0.004463 0.000000 0.000100 0.000000
# 2 -0.001384 0.012155 -0.005162 0.000000 0.002077 0.000000
# 3 -0.004463 -0.005162 0.014021 0.000000 -0.000801 0.000000
# 4 0.000000 0.000000 0.000000 0.098023 0.000000 0.154202
# 5 0.000100 0.002077 -0.000801 0.000000 0.022095 0.000000
# 6 0.000000 0.000000 0.000000 0.154202 0.000000 0.341248
#
#
# Mechanical properties :
#
#
# Convention : Reuss Voigt Hill
#
# Bulk Modulus (GPa) = 72.68325 73.80376 73.24350
# Shear Modulus (GPa) = 9.54657 31.95776 20.75216
#
# Velocity S-wave (km/s) = 1.89966 3.47569 2.80081
# Velocity P-wave (km/s) = 5.68214 6.63370 6.17627
#
# Compressibility (1/GPa) = 0.01375833
#
# Stress axis : x y z
#
# Youngs Moduli (GPa) = 104.15298 82.27242 71.32122
#
# Poissons Ratio (x) = 0.11388 0.31834
# Poissons Ratio (y) = 0.14417 0.36814
# Poissons Ratio (z) = 0.46488 0.42466
#
# Static dielectric constant tensor:
#      x y z
#    x 2.078430 0.000000 0.003530 
#    y 0.000000 2.014580 0.000000 
#    z 0.003530 0.000000 2.133670 
# 
# From -- ./inp_files/86837.got.cif
#   From: 2010.05.17/outbox.cif.g08.bks.cpg/sg15_44_cif.got.tgz:86837.got - 2010.06.03 18:47:42.
