data_PCOD9296485
_publ_section_title
;
Structure prediction by ZEFSAII (Michael W. Deem and Ramdas Pophale) SiO2 
 PCOD9296485
Probable space group: C 2/C
;
_chemical_formula_sum "Si O2"
_cell_formula_units_Z 48
_cell_length_a 10.947077
_cell_length_b 9.048620
_cell_length_c 24.941856
_cell_angle_alpha 90.000000
_cell_angle_beta 106.686396
_cell_angle_gamma 90.000000
_cell_volume 2366.602103
_symmetry_space_group_name_H-M "C 2/C"
_symmetry_group_IT_number 15
_symmetry_cell_setting 'monoclinic'
loop_
_space_group_symop_operation_xyz
x,y,z
-x,y,1/2-z
-x,-y,-z
x,-y,1/2+z
1/2+x,1/2+y,z
1/2-x,1/2+y,1/2-z
1/2-x,1/2-y,-z
1/2+x,1/2-y,1/2+z
loop_
_atom_site_type_symbol
_atom_site_label
_atom_site_fract_x
_atom_site_fract_y
_atom_site_fract_z
Si Si1 0.007402 0.869766 0.544603
Si Si2 0.700875 0.858397 0.907431
Si Si3 0.350875 0.530398 0.601568
Si Si4 0.128728 0.429548 0.494180
Si Si5 0.147157 0.957884 0.273945
Si Si6 0.145804 0.393648 0.776984
O O1 0.151964 0.814789 0.564090
O O2 0.907139 0.741389 0.518478
O O3 0.000000 0.000000 0.500000
O O4 0.973491 0.939414 0.597931
O O5 0.626487 0.704441 0.907074
O O6 0.680095 0.908645 0.843948
O O7 0.663767 0.986929 0.943618
O O8 0.238975 0.467095 0.550253
O O9 0.317432 0.515738 0.659478
O O10 0.000000 0.500000 0.500000
O O11 0.147285 0.781558 0.264533
O O12 0.000000 0.009487 0.250000
O O13 0.249136 0.030067 0.247171
O O14 0.000000 0.447044 0.750000
#
# Coordination Sequence:
#
# PCOD9296485 Si02
#       6
#     8   8   8   8   8   8
#     4  12  24  41  62  93 128 163 209 253 318 383
#     4  11  24  43  63  91 131 165 207 265 313 376
#     4  11  23  42  65  93 129 166 208 263 312 376
#     4  12  24  40  64  95 127 166 207 253 323 380
#     4  10  23  45  65  94 128 166 216 262 314 372
#     4  10  24  42  66  94 124 168 215 263 315 374
#
# _framework density 20.282243999999999
#
# number of rings (size 3 to 8) (size 9 to 14) (size 15 to 20)
#    0.000    1.000    3.333    3.000    2.333    2.000 
#    3.000    0.000    0.000    0.000    0.000    0.000 
#    0.000    0.000    0.000    0.000    0.000    0.000 
#
# Total GULP energy -134171.966750 kJ/mol
# GULP energy per Si atom -5590.498615 kJ/mol
# Density = 2.023608 g / cm^3
# Si number density = 20.282244 Si / 1000 Ang^3
#
#
#
# Elastic Constant Matrix: (Units=GPa)
#
#
# Indices 1 2 3 4 5 6 
#
# 1 121.0236 51.5587 47.8408 0.0000 -16.5540 0.0000
# 2 51.5587 105.7074 60.1618 0.0000 -16.0159 0.0000
# 3 47.8408 60.1618 115.0934 0.0000 -1.2685 0.0000
# 4 0.0000 0.0000 0.0000 23.6441 0.0000 -12.9904
# 5 -16.5540 -16.0159 -1.2685 0.0000 22.1776 0.0000
# 6 0.0000 0.0000 0.0000 -12.9904 0.0000 40.3369
#
#
#
# Elastic Compliance Matrix: (Units=1/GPa)
#
#
# Indices 1 2 3 4 5 6 
#
# 1 0.011655 -0.002830 -0.003294 0.000000 0.006468 0.000000
# 2 -0.002830 0.016404 -0.007296 0.000000 0.009317 0.000000
# 3 -0.003294 -0.007296 0.013795 0.000000 -0.006939 0.000000
# 4 0.000000 0.000000 0.000000 0.051386 0.000000 0.016549
# 5 0.006468 0.009317 -0.006939 0.000000 0.056250 0.000000
# 6 0.000000 0.000000 0.000000 0.016549 0.000000 0.030121
#
#
# Mechanical properties :
#
#
# Convention : Reuss Voigt Hill
#
# Bulk Modulus (GPa) = 66.60174 73.43854 70.02014
# Shear Modulus (GPa) = 23.64554 29.38257 26.51405
#
# Velocity S-wave (km/s) = 3.41812 3.81029 3.61952
# Velocity P-wave (km/s) = 6.96325 7.45953 7.21566
#
# Compressibility (1/GPa) = 0.01501462
#
# Stress axis : x y z
#
# Youngs Moduli (GPa) = 85.79707 60.95913 72.48976
#
# Poissons Ratio (x) = 0.17253 0.23879
# Poissons Ratio (y) = 0.24282 0.52887
# Poissons Ratio (z) = 0.28262 0.44475
#
# Static dielectric constant tensor:
#      x y z
#    x 1.733320 0.000000 0.013940 
#    y 0.000000 1.746160 0.000000 
#    z 0.013940 0.000000 1.699320 
# 
# From -- ./inp_files/267630.got.cif
#   From: 2010.05.17/outbox.cif.g08.bks.cpg/sg15_134_cif.got.tgz:267630.got - 2010.06.03 18:47:42.
