data_PCOD9296842
_publ_section_title
;
Structure prediction by ZEFSAII (Michael W. Deem and Ramdas Pophale) SiO2 
 PCOD9296842
Probable space group: C 2/C
;
_chemical_formula_sum "Si O2"
_cell_formula_units_Z 40
_cell_length_a 18.280646
_cell_length_b 11.050947
_cell_length_c 15.487477
_cell_angle_alpha 90.000000
_cell_angle_beta 146.832494
_cell_angle_gamma 90.000000
_cell_volume 1711.706743
_symmetry_space_group_name_H-M "C 2/C"
_symmetry_group_IT_number 15
_symmetry_cell_setting 'monoclinic'
loop_
_space_group_symop_operation_xyz
x,y,z
-x,y,1/2-z
-x,-y,-z
x,-y,1/2+z
1/2+x,1/2+y,z
1/2-x,1/2+y,1/2-z
1/2-x,1/2-y,-z
1/2+x,1/2-y,1/2+z
loop_
_atom_site_type_symbol
_atom_site_label
_atom_site_fract_x
_atom_site_fract_y
_atom_site_fract_z
Si Si1 0.760218 0.043723 0.206287
Si Si2 0.539004 0.575657 0.389723
Si Si3 0.075268 0.190091 0.915521
Si Si4 0.630606 0.185272 0.936280
Si Si5 0.302522 0.721531 0.743073
O O1 0.725814 0.155068 0.233988
O O2 0.911480 0.057101 0.323016
O O3 0.753454 0.907033 0.234625
O O4 0.676000 0.069987 0.035656
O O5 0.500000 0.588698 0.250000
O O6 0.618291 0.450845 0.468674
O O7 0.596832 0.705882 0.469020
O O8 0.957123 0.215013 0.868004
O O9 0.000000 0.204275 0.750000
O O10 0.205403 0.268516 0.062914
O O11 0.500000 0.157961 0.750000
O O12 0.750000 0.250000 0.000000
#
# Coordination Sequence:
#
# PCOD9296842 Si02
#       5
#     8   8   8   8   8
#     4  11  25  44  64 101 138 169 222 265 334 391
#     4   9  19  40  68  93 130 174 213 261 336 386
#     4  10  23  46  69  94 129 174 222 269 332 396
#     4  11  21  40  69 101 128 172 223 274 315 384
#     4  11  27  44  68  97 134 178 212 275 331 389
#
# _framework density 23.368489
#
# number of rings (size 3 to 8) (size 9 to 14) (size 15 to 20)
#    0.000    1.600    4.000    0.600    5.600    3.200 
#    3.600    0.000    0.000    0.000    0.000    0.000 
#    0.000    0.000    0.000    0.000    0.000    0.000 
#
# Total GULP energy -111661.369822 kJ/mol
# GULP energy per Si atom -5583.068491 kJ/mol
# Density = 2.331530 g / cm^3
# Si number density = 23.368489 Si / 1000 Ang^3
#
#
#
# Elastic Constant Matrix: (Units=GPa)
#
#
# Indices 1 2 3 4 5 6 
#
# 1 39.2355 1.7494 -2.6646 0.0000 -6.8426 0.0000
# 2 1.7494 96.2056 5.7625 0.0000 -8.8057 0.0000
# 3 -2.6646 5.7625 100.2445 0.0000 -7.6766 0.0000
# 4 0.0000 0.0000 0.0000 39.6240 0.0000 -7.7204
# 5 -6.8426 -8.8057 -7.6766 0.0000 28.7333 0.0000
# 6 0.0000 0.0000 0.0000 -7.7204 0.0000 23.5198
#
#
#
# Elastic Compliance Matrix: (Units=1/GPa)
#
#
# Indices 1 2 3 4 5 6 
#
# 1 0.026738 0.000055 0.001221 0.000000 0.006711 0.000000
# 2 0.000055 0.010708 -0.000369 0.000000 0.003196 0.000000
# 3 0.001221 -0.000369 0.010253 0.000000 0.002917 0.000000
# 4 0.000000 0.000000 0.000000 0.026962 0.000000 0.008850
# 5 0.006711 0.003196 0.002917 0.000000 0.038160 0.000000
# 6 0.000000 0.000000 0.000000 0.008850 0.000000 0.045422
#
#
# Mechanical properties :
#
#
# Convention : Reuss Voigt Hill
#
# Bulk Modulus (GPa) = 20.19686 27.26445 23.73066
# Shear Modulus (GPa) = 28.91299 33.76464 31.33881
#
# Velocity S-wave (km/s) = 3.52129 3.80528 3.66604
# Velocity P-wave (km/s) = 5.01938 5.56771 5.30064
#
# Compressibility (1/GPa) = 0.04951265
#
# Stress axis : x y z
#
# Youngs Moduli (GPa) = 37.40004 93.38759 97.53545
#
# Poissons Ratio (x) = -0.00512 -0.11914
# Poissons Ratio (y) = -0.00205 0.03602
# Poissons Ratio (z) = -0.04568 0.03449
#
# Static dielectric constant tensor:
#      x y z
#    x 1.891430 0.000000 -0.081390 
#    y 0.000000 1.908490 0.000000 
#    z -0.081390 0.000000 1.956950 
# 
# From -- ./inp_files/210757.got.cif
#   From: 2010.05.17/outbox.cif.g08.bks.cpg/sg15_106_cif.got.tgz:210757.got - 2010.06.03 18:47:42.
