data_PCOD9296647
_publ_section_title
;
Structure prediction by ZEFSAII (Michael W. Deem and Ramdas Pophale) SiO2 
 PCOD9296647
Probable space group: C 2/C
;
_chemical_formula_sum "Si O2"
_cell_formula_units_Z 56
_cell_length_a 10.322297
_cell_length_b 11.625619
_cell_length_c 21.486326
_cell_angle_alpha 90.000000
_cell_angle_beta 98.024408
_cell_angle_gamma 90.000000
_cell_volume 2553.179397
_symmetry_space_group_name_H-M "C 2/C"
_symmetry_group_IT_number 15
_symmetry_cell_setting 'monoclinic'
loop_
_space_group_symop_operation_xyz
x,y,z
-x,y,1/2-z
-x,-y,-z
x,-y,1/2+z
1/2+x,1/2+y,z
1/2-x,1/2+y,1/2-z
1/2-x,1/2-y,-z
1/2+x,1/2-y,1/2+z
loop_
_atom_site_type_symbol
_atom_site_label
_atom_site_fract_x
_atom_site_fract_y
_atom_site_fract_z
Si Si1 0.377039 0.580377 0.511256
Si Si2 0.685044 0.112188 0.152115
Si Si3 0.876346 0.839647 0.282992
Si Si4 0.445135 0.513799 0.140289
Si Si5 0.601209 0.889013 0.201051
Si Si6 0.521279 0.745779 0.075574
Si Si7 0.133202 0.572067 0.004112
O O1 0.500000 0.500000 0.500000
O O2 0.386791 0.579528 0.587122
O O3 0.391260 0.701826 0.476967
O O4 0.246973 0.509680 0.485438
O O5 0.659599 0.240728 0.170995
O O6 0.830047 0.062506 0.175961
O O7 0.591087 0.023082 0.181334
O O8 0.670593 0.104192 0.076924
O O9 0.745387 0.860084 0.235463
O O10 0.000000 0.800236 0.250000
O O11 0.932472 0.954313 0.319099
O O12 0.484629 0.627403 0.106063
O O13 0.500000 0.860702 0.250000
O O14 0.580388 0.822650 0.134503
O O15 0.399794 0.816351 0.038973
O O16 0.000000 0.500000 0.000000
#
# Coordination Sequence:
#
# PCOD9296647 Si02
#       7
#     8   8   8   8   8   8   8
#     4   9  22  41  69 102 135 177 227 283 356 426
#     4  11  24  47  70 103 143 180 239 298 354 424
#     4  12  26  45  73  99 140 195 244 295 354 425
#     4  10  23  45  71 104 141 181 239 296 357 431
#     4  12  27  45  68 103 141 189 243 288 357 425
#     4  11  24  44  72 104 143 183 232 297 362 425
#     4  11  23  43  70 105 143 177 227 296 365 427
#
# _framework density 21.933439
#
# number of rings (size 3 to 8) (size 9 to 14) (size 15 to 20)
#    0.000    1.143    2.857    2.143    2.000   12.000 
#    0.000    0.000    0.000    0.000    0.000    0.000 
#    0.000    0.000    0.000    0.000    0.000    0.000 
#
# Total GULP energy -156427.928849 kJ/mol
# GULP energy per Si atom -5586.711745 kJ/mol
# Density = 2.188352 g / cm^3
# Si number density = 21.933439 Si / 1000 Ang^3
#
#
#
# Elastic Constant Matrix: (Units=GPa)
#
#
# Indices 1 2 3 4 5 6 
#
# 1 132.7356 29.8155 37.0851 0.0000 13.2839 0.0000
# 2 29.8155 83.8567 37.7484 0.0000 16.8555 0.0000
# 3 37.0851 37.7484 84.7337 0.0000 25.1711 0.0000
# 4 0.0000 0.0000 0.0000 65.7301 0.0000 29.3685
# 5 13.2839 16.8555 25.1711 0.0000 34.6618 0.0000
# 6 0.0000 0.0000 0.0000 29.3685 0.0000 122.6176
#
#
#
# Elastic Compliance Matrix: (Units=1/GPa)
#
#
# Indices 1 2 3 4 5 6 
#
# 1 0.008786 -0.001710 -0.002971 0.000000 -0.000378 0.000000
# 2 -0.001710 0.015515 -0.005249 0.000000 -0.003077 0.000000
# 3 -0.002971 -0.005249 0.018289 0.000000 -0.009590 0.000000
# 4 0.000000 0.000000 0.000000 0.017037 0.000000 -0.004081
# 5 -0.000378 -0.003077 -0.009590 0.000000 0.037456 0.000000
# 6 0.000000 0.000000 0.000000 -0.004081 0.000000 0.009133
#
#
# Mechanical properties :
#
#
# Convention : Reuss Voigt Hill
#
# Bulk Modulus (GPa) = 43.99674 56.73600 50.36637
# Shear Modulus (GPa) = 37.41037 57.71369 47.56203
#
# Velocity S-wave (km/s) = 4.13441 5.13520 4.66174
# Velocity P-wave (km/s) = 6.54934 7.81561 7.21033
#
# Compressibility (1/GPa) = 0.02272896
#
# Stress axis : x y z
#
# Youngs Moduli (GPa) = 113.81899 64.45527 54.67666
#
# Poissons Ratio (x) = 0.11025 0.16245
# Poissons Ratio (y) = 0.19468 0.28699
# Poissons Ratio (z) = 0.33816 0.33832
#
# Static dielectric constant tensor:
#      x y z
#    x 1.840760 0.000000 -0.071240 
#    y 0.000000 1.782680 0.000000 
#    z -0.071240 0.000000 1.905810 
# 
# From -- ./inp_files/237115.got.cif
#   From: 2010.05.17/outbox.cif.g08.bks.cpg/sg15_119_cif.got.tgz:237115.got - 2010.06.03 18:47:42.
