data_PCOD9296417
_publ_section_title
;
Structure prediction by ZEFSAII (Michael W. Deem and Ramdas Pophale) SiO2 
 PCOD9296417
Probable space group: C 2/C
;
_chemical_formula_sum "Si O2"
_cell_formula_units_Z 44
_cell_length_a 28.434251
_cell_length_b 5.171428
_cell_length_c 26.905182
_cell_angle_alpha 90.000000
_cell_angle_beta 29.521733
_cell_angle_gamma 90.000000
_cell_volume 1949.476792
_symmetry_space_group_name_H-M "C 2/C"
_symmetry_group_IT_number 15
_symmetry_cell_setting 'monoclinic'
loop_
_space_group_symop_operation_xyz
x,y,z
-x,y,1/2-z
-x,-y,-z
x,-y,1/2+z
1/2+x,1/2+y,z
1/2-x,1/2+y,1/2-z
1/2-x,1/2-y,-z
1/2+x,1/2-y,1/2+z
loop_
_atom_site_type_symbol
_atom_site_label
_atom_site_fract_x
_atom_site_fract_y
_atom_site_fract_z
Si Si1 0.492038 0.925389 0.648511
Si Si2 0.801097 0.576339 0.586895
Si Si3 0.500000 0.312175 0.250000
Si Si4 0.307077 0.662191 0.181294
Si Si5 0.291545 0.503835 0.934633
Si Si6 0.890839 0.087319 0.198621
O O1 0.593003 0.984254 0.529173
O O2 0.504756 0.857111 0.695040
O O3 0.438681 0.678990 0.672927
O O4 0.431433 0.179191 0.693296
O O5 0.817495 0.805983 0.612168
O O6 0.742391 0.572170 0.589556
O O7 0.723419 0.408244 0.687917
O O8 0.594508 0.486271 0.166263
O O9 0.233764 0.432364 0.260025
O O10 0.399666 0.611663 0.130702
O O11 0.250000 0.750000 0.000000
O O12 0.250000 0.250000 0.000000
#
# Coordination Sequence:
#
# PCOD9296417 Si02
#       6
#     8   8   4   8   8   8
#     4  12  28  44  76 107 142 197 243 298 365 433
#     4  11  26  47  76 106 147 190 244 297 363 433
#     4  12  28  52  74 110 148 192 246 300 364 436
#     4  10  23  44  74 105 145 195 238 299 365 425
#     4  12  29  46  75 108 143 191 244 299 362 431
#     4  11  26  47  71 108 149 187 243 303 359 427
#
# _framework density 22.570159
#
# number of rings (size 3 to 8) (size 9 to 14) (size 15 to 20)
#    0.000    0.727    3.636    2.182    5.091    8.727 
#    0.000    0.000    0.000    0.000    0.000    0.000 
#    0.000    0.000    0.000    0.000    0.000    0.000 
#
# Total GULP energy -122653.086319 kJ/mol
# GULP energy per Si atom -5575.140287 kJ/mol
# Density = 2.251879 g / cm^3
# Si number density = 22.570159 Si / 1000 Ang^3
#
#
#
# Elastic Constant Matrix: (Units=GPa)
#
#
# Indices 1 2 3 4 5 6 
#
# 1 136.4792 23.0755 50.4766 -0.2064 19.4406 0.1741
# 2 23.0755 91.6765 51.0748 -0.1534 -13.2056 -0.0174
# 3 50.4766 51.0748 139.3520 0.0550 -18.0074 0.0347
# 4 -0.2064 -0.1534 0.0550 13.8486 0.0907 -8.8862
# 5 19.4406 -13.2056 -18.0074 0.0907 32.9136 0.0141
# 6 0.1741 -0.0174 0.0347 -8.8862 0.0141 13.2938
#
#
#
# Elastic Compliance Matrix: (Units=1/GPa)
#
#
# Indices 1 2 3 4 5 6 
#
# 1 0.010560 -0.001503 -0.004475 0.000251 -0.009289 0.000049
# 2 -0.001503 0.014195 -0.004098 0.000265 0.004340 0.000221
# 3 -0.004475 -0.004098 0.011221 -0.000338 0.007139 -0.000209
# 4 0.000251 0.000265 -0.000338 0.126463 -0.000611 0.084533
# 5 -0.009289 0.004340 0.007139 -0.000611 0.041518 -0.000344
# 6 0.000049 0.000221 -0.000209 0.084533 -0.000344 0.131730
#
#
# Mechanical properties :
#
#
# Convention : Reuss Voigt Hill
#
# Bulk Modulus (GPa) = 63.18716 68.52907 65.85812
# Shear Modulus (GPa) = 13.84612 28.20324 21.02468
#
# Velocity S-wave (km/s) = 2.47952 3.53878 3.05540
# Velocity P-wave (km/s) = 6.02113 6.86483 6.45677
#
# Compressibility (1/GPa) = 0.01582600
#
# Stress axis : x y z
#
# Youngs Moduli (GPa) = 94.70102 70.44911 89.11474
#
# Poissons Ratio (x) = 0.10585 0.39876
# Poissons Ratio (y) = 0.14229 0.36516
# Poissons Ratio (z) = 0.42375 0.28868
#
# Static dielectric constant tensor:
#      x y z
#    x 1.837980 0.000610 -0.055240 
#    y 0.000610 1.816650 0.000670 
#    z -0.055240 0.000670 1.814150 
# 
# From -- ./inp_files/303908.got.cif
#   From: 2010.05.17/outbox.cif.g08.bks.cpg/sg15_152_cif.got.tgz:303908.got - 2010.06.03 18:47:42.
