data_PCOD9296504
_publ_section_title
;
Structure prediction by ZEFSAII (Michael W. Deem and Ramdas Pophale) SiO2 
 PCOD9296504
Probable space group: C 2/C
;
_chemical_formula_sum "Si O2"
_cell_formula_units_Z 44
_cell_length_a 5.194833
_cell_length_b 24.982518
_cell_length_c 14.411969
_cell_angle_alpha 90.000000
_cell_angle_beta 94.635739
_cell_angle_gamma 90.000000
_cell_volume 1864.266798
_symmetry_space_group_name_H-M "C 2/C"
_symmetry_group_IT_number 15
_symmetry_cell_setting 'monoclinic'
loop_
_space_group_symop_operation_xyz
x,y,z
-x,y,1/2-z
-x,-y,-z
x,-y,1/2+z
1/2+x,1/2+y,z
1/2-x,1/2+y,1/2-z
1/2-x,1/2-y,-z
1/2+x,1/2-y,1/2+z
loop_
_atom_site_type_symbol
_atom_site_label
_atom_site_fract_x
_atom_site_fract_y
_atom_site_fract_z
Si Si1 0.740829 0.748504 0.196399
Si Si2 0.306002 0.437606 0.615725
Si Si3 0.000000 0.972005 0.250000
Si Si4 0.733853 0.093812 0.902432
Si Si5 0.746649 0.839945 0.067139
Si Si6 0.323230 0.869281 0.642789
O O1 0.500000 0.764601 0.250000
O O2 0.719264 0.779592 0.100125
O O3 0.759191 0.684464 0.196238
O O4 0.000000 0.769800 0.250000
O O5 0.329968 0.492361 0.673197
O O6 0.245384 0.438698 0.502547
O O7 0.583704 0.409609 0.636174
O O8 0.090614 0.401153 0.659563
O O9 0.183260 0.939615 0.184980
O O10 0.454486 0.121340 0.885055
O O11 0.961333 0.138279 0.918365
O O12 0.656502 0.845715 0.959980
#
# Coordination Sequence:
#
# PCOD9296504 Si02
#       6
#     8   8   4   8   8   8
#     4  12  25  38  67 104 134 168 218 272 325 404
#     4  10  24  43  67  97 132 174 224 273 328 398
#     4  12  26  42  72  96 136 174 226 282 344 378
#     4  10  24  43  67  97 132 174 224 273 328 398
#     4  10  23  45  66  93 134 176 215 267 330 397
#     4  10  23  45  66  93 134 176 215 267 330 397
#
# _framework density 23.601773999999999
#
# number of rings (size 3 to 8) (size 9 to 14) (size 15 to 20)
#    0.000    1.455    0.000    3.273    7.636    2.909 
#    0.000   12.727    0.000    0.000    0.000    0.000 
#    0.000    0.000    0.000    0.000    0.000    0.000 
#
# Total GULP energy -123091.315346 kJ/mol
# GULP energy per Si atom -5595.059788 kJ/mol
# Density = 2.354806 g / cm^3
# Si number density = 23.601774 Si / 1000 Ang^3
#
#
#
# Elastic Constant Matrix: (Units=GPa)
#
#
# Indices 1 2 3 4 5 6 
#
# 1 104.8601 -2.8901 10.5847 0.0000 -20.6173 0.0000
# 2 -2.8901 34.0411 21.9230 0.0000 -4.7779 0.0000
# 3 10.5847 21.9230 104.5975 0.0000 -22.4934 0.0000
# 4 0.0000 0.0000 0.0000 34.4026 0.0000 8.5938
# 5 -20.6173 -4.7779 -22.4934 0.0000 29.9131 0.0000
# 6 0.0000 0.0000 0.0000 8.5938 0.0000 17.1419
#
#
#
# Elastic Compliance Matrix: (Units=1/GPa)
#
#
# Indices 1 2 3 4 5 6 
#
# 1 0.011177 0.001957 0.000218 0.000000 0.008180 0.000000
# 2 0.001957 0.034303 -0.007061 0.000000 0.001518 0.000000
# 3 0.000218 -0.007061 0.012893 0.000000 0.008717 0.000000
# 4 0.000000 0.000000 0.000000 0.033229 0.000000 -0.016659
# 5 0.008180 0.001518 0.008717 0.000000 0.045866 0.000000
# 6 0.000000 0.000000 0.000000 -0.016659 0.000000 0.066688
#
#
# Mechanical properties :
#
#
# Convention : Reuss Voigt Hill
#
# Bulk Modulus (GPa) = 20.57639 33.63712 27.10675
# Shear Modulus (GPa) = 21.72697 30.55026 26.13861
#
# Velocity S-wave (km/s) = 3.03737 3.60169 3.33150
# Velocity P-wave (km/s) = 4.58671 5.61953 5.12918
#
# Compressibility (1/GPa) = 0.04859939
#
# Stress axis : x y z
#
# Youngs Moduli (GPa) = 89.47144 29.15194 77.56102
#
# Poissons Ratio (x) = -0.05704 -0.01690
# Poissons Ratio (y) = -0.17506 0.54768
# Poissons Ratio (z) = -0.01950 0.20585
#
# Static dielectric constant tensor:
#      x y z
#    x 1.862970 0.000000 0.041100 
#    y 0.000000 1.881900 0.000000 
#    z 0.041100 0.000000 1.939020 
# 
# From -- ./inp_files/129343.got.cif
#   From: 2010.05.17/outbox.cif.g08.bks.cpg/sg15_65_cif.got.tgz:129343.got - 2010.06.03 18:47:42.
