data_PCOD9296637
_publ_section_title
;
Structure prediction by ZEFSAII (Michael W. Deem and Ramdas Pophale) SiO2 
 PCOD9296637
Probable space group: C 2/C
;
_chemical_formula_sum "Si O2"
_cell_formula_units_Z 40
_cell_length_a 5.395938
_cell_length_b 13.705191
_cell_length_c 23.214783
_cell_angle_alpha 90.000000
_cell_angle_beta 69.760801
_cell_angle_gamma 90.000000
_cell_volume 1610.787625
_symmetry_space_group_name_H-M "C 2/C"
_symmetry_group_IT_number 15
_symmetry_cell_setting 'monoclinic'
loop_
_space_group_symop_operation_xyz
x,y,z
-x,y,1/2-z
-x,-y,-z
x,-y,1/2+z
1/2+x,1/2+y,z
1/2-x,1/2+y,1/2-z
1/2-x,1/2-y,-z
1/2+x,1/2-y,1/2+z
loop_
_atom_site_type_symbol
_atom_site_label
_atom_site_fract_x
_atom_site_fract_y
_atom_site_fract_z
Si Si1 0.354267 0.479510 0.924543
Si Si2 0.516293 0.825342 0.913069
Si Si3 0.478808 0.654092 0.516283
Si Si4 0.802336 0.987554 0.711243
Si Si5 0.801509 0.220653 0.713754
O O1 0.095582 0.438187 0.913685
O O2 0.400066 0.590106 0.940442
O O3 0.578341 0.449479 0.859286
O O4 0.331875 0.422215 0.987167
O O5 0.661106 0.747838 0.944933
O O6 0.588392 0.785127 0.846121
O O7 0.217098 0.813374 0.956054
O O8 0.500000 0.958441 0.750000
O O9 0.798360 0.104758 0.701990
O O10 0.000000 0.970125 0.750000
O O11 0.500000 0.248840 0.750000
O O12 0.000000 0.233881 0.750000
#
# Coordination Sequence:
#
# PCOD9296637 Si02
#       5
#     8   8   8   8   8
#     4  11  23  43  68  99 135 182 234 293 354 430
#     4  11  23  43  68  99 135 182 234 293 354 430
#     4  10  24  44  65 100 136 176 236 290 362 416
#     4  10  23  45  71 100 140 187 232 291 357 419
#     4  10  23  45  71 100 140 187 232 291 357 419
#
# _framework density 24.832574999999999
#
# number of rings (size 3 to 8) (size 9 to 14) (size 15 to 20)
#    0.000    1.600    2.000    1.200    5.600    0.800 
#    0.000    0.000    0.000    0.000    0.000    0.000 
#    0.000    0.000    0.000    0.000    0.000    0.000 
#
# Total GULP energy -111763.408612 kJ/mol
# GULP energy per Si atom -5588.170431 kJ/mol
# Density = 2.477606 g / cm^3
# Si number density = 24.832575 Si / 1000 Ang^3
#
#
#
# Elastic Constant Matrix: (Units=GPa)
#
#
# Indices 1 2 3 4 5 6 
#
# 1 96.1301 -0.1400 41.7661 0.0000 -16.9430 0.0000
# 2 -0.1400 104.9881 13.2975 0.0000 1.3573 0.0000
# 3 41.7661 13.2975 153.8347 0.0000 -16.9219 0.0000
# 4 0.0000 0.0000 0.0000 41.6573 0.0000 -5.6356
# 5 -16.9430 1.3573 -16.9219 0.0000 26.2439 0.0000
# 6 0.0000 0.0000 0.0000 -5.6356 0.0000 28.0916
#
#
#
# Elastic Compliance Matrix: (Units=1/GPa)
#
#
# Indices 1 2 3 4 5 6 
#
# 1 0.012741 0.000286 -0.002778 0.000000 0.006420 0.000000
# 2 0.000286 0.009667 -0.001020 0.000000 -0.000973 0.000000
# 3 -0.002778 -0.001020 0.007697 0.000000 0.003223 0.000000
# 4 0.000000 0.000000 0.000000 0.024675 0.000000 0.004950
# 5 0.006420 -0.000973 0.003223 0.000000 0.044377 0.000000
# 6 0.000000 0.000000 0.000000 0.004950 0.000000 0.036591
#
#
# Mechanical properties :
#
#
# Convention : Reuss Voigt Hill
#
# Bulk Modulus (GPa) = 43.32517 51.64447 47.48482
# Shear Modulus (GPa) = 33.22986 39.20053 36.21520
#
# Velocity S-wave (km/s) = 3.66205 3.97746 3.82301
# Velocity P-wave (km/s) = 5.94690 6.47579 6.21697
#
# Compressibility (1/GPa) = 0.02308127
#
# Stress axis : x y z
#
# Youngs Moduli (GPa) = 78.48438 103.44390 129.91501
#
# Poissons Ratio (x) = -0.02957 0.36088
# Poissons Ratio (y) = -0.02243 0.13255
# Poissons Ratio (z) = 0.21801 0.10554
#
# Static dielectric constant tensor:
#      x y z
#    x 2.067140 0.000000 0.092860 
#    y 0.000000 2.048340 0.000000 
#    z 0.092860 0.000000 1.927830 
# 
# From -- ./inp_files/184340.got.cif
#   From: 2010.05.17/outbox.cif.g08.bks.cpg/sg15_93_cif.got.tgz:184340.got - 2010.06.03 18:47:42.
