data_PCOD9296294
_publ_section_title
;
Structure prediction by ZEFSAII (Michael W. Deem and Ramdas Pophale) SiO2 
 PCOD9296294
Probable space group: C 2/C
;
_chemical_formula_sum "Si O2"
_cell_formula_units_Z 48
_cell_length_a 9.566087
_cell_length_b 10.675240
_cell_length_c 18.713674
_cell_angle_alpha 90.000000
_cell_angle_beta 66.849664
_cell_angle_gamma 90.000000
_cell_volume 1757.161382
_symmetry_space_group_name_H-M "C 2/C"
_symmetry_group_IT_number 15
_symmetry_cell_setting 'monoclinic'
loop_
_space_group_symop_operation_xyz
x,y,z
-x,y,1/2-z
-x,-y,-z
x,-y,1/2+z
1/2+x,1/2+y,z
1/2-x,1/2+y,1/2-z
1/2-x,1/2-y,-z
1/2+x,1/2-y,1/2+z
loop_
_atom_site_type_symbol
_atom_site_label
_atom_site_fract_x
_atom_site_fract_y
_atom_site_fract_z
Si Si1 0.653440 0.628473 0.147458
Si Si2 0.197507 0.980832 0.490436
Si Si3 0.908572 0.818896 0.113901
Si Si4 0.718337 0.781648 0.614304
Si Si5 0.723332 0.019934 0.240413
Si Si6 0.988756 0.365729 0.123168
O O1 0.819525 0.693131 0.111528
O O2 0.659814 0.560866 0.221538
O O3 0.540031 0.743496 0.157095
O O4 0.638348 0.539837 0.082035
O O5 0.090058 0.901655 0.458316
O O6 0.363459 0.914455 0.447798
O O7 0.228301 0.120207 0.456674
O O8 0.939710 0.779226 0.376588
O O9 0.797933 0.901590 0.186033
O O10 0.849510 0.679591 0.602195
O O11 0.702473 0.866468 0.689330
O O12 0.573468 0.971170 0.310784
#
# Coordination Sequence:
#
# PCOD9296294 Si02
#       6
#     8   8   8   8   8   8
#     4  11  25  47  72 100 142 186 229 286 348 411
#     4  10  25  49  71  99 141 186 231 285 346 411
#     4  10  23  44  71 102 140 181 230 289 345 407
#     4  11  26  46  72 106 141 181 234 288 344 414
#     4  11  26  43  70 104 141 184 232 285 349 414
#     4  11  25  44  70 101 138 185 232 284 346 409
#
# _framework density 27.316784999999999
#
# number of rings (size 3 to 8) (size 9 to 14) (size 15 to 20)
#    0.000    1.333    0.000    4.000    0.000   27.333 
#    0.000    7.500    0.000    0.000    0.000    0.000 
#    0.000    0.000    0.000    0.000    0.000    0.000 
#
# Total GULP energy -134985.558115 kJ/mol
# GULP energy per Si atom -5624.398255 kJ/mol
# Density = 2.725461 g / cm^3
# Si number density = 27.316785 Si / 1000 Ang^3
#
#
#
# Elastic Constant Matrix: (Units=GPa)
#
#
# Indices 1 2 3 4 5 6 
#
# 1 198.1743 44.5302 30.3728 0.0000 20.2811 0.0000
# 2 44.5302 113.6704 43.8796 0.0000 12.5703 0.0000
# 3 30.3728 43.8796 111.3679 0.0000 23.9168 0.0000
# 4 0.0000 0.0000 0.0000 35.6617 0.0000 0.5818
# 5 20.2811 12.5703 23.9168 0.0000 48.6280 0.0000
# 6 0.0000 0.0000 0.0000 0.5818 0.0000 60.8035
#
#
#
# Elastic Compliance Matrix: (Units=1/GPa)
#
#
# Indices 1 2 3 4 5 6 
#
# 1 0.005709 -0.001874 -0.000460 0.000000 -0.001670 0.000000
# 2 -0.001874 0.011015 -0.003785 0.000000 -0.000204 0.000000
# 3 -0.000460 -0.003785 0.011566 0.000000 -0.004518 0.000000
# 4 0.000000 0.000000 0.000000 0.028046 0.000000 -0.000268
# 5 -0.001670 -0.000204 -0.004518 0.000000 0.023536 0.000000
# 6 0.000000 0.000000 0.000000 -0.000268 0.000000 0.016449
#
#
# Mechanical properties :
#
#
# Convention : Reuss Voigt Hill
#
# Bulk Modulus (GPa) = 62.29674 73.41975 67.85825
# Shear Modulus (GPa) = 43.89444 49.31398 46.60421
#
# Velocity S-wave (km/s) = 4.01292 4.25345 4.13493
# Velocity P-wave (km/s) = 6.65779 7.14548 6.90594
#
# Compressibility (1/GPa) = 0.01605220
#
# Stress axis : x y z
#
# Youngs Moduli (GPa) = 175.17468 90.78302 86.45771
#
# Poissons Ratio (x) = 0.17014 0.03975
# Poissons Ratio (y) = 0.32830 0.32725
# Poissons Ratio (z) = 0.08054 0.34362
#
# Static dielectric constant tensor:
#      x y z
#    x 2.141510 0.000000 -0.024170 
#    y 0.000000 2.065860 0.000000 
#    z -0.024170 0.000000 2.121900 
# 
# From -- ./inp_files/197211.got.cif
#   From: 2010.05.17/outbox.cif.g08.bks.cpg/sg15_99_cif.got.tgz:197211.got - 2010.06.03 18:47:42.
