data_PCOD9296752
_publ_section_title
;
Structure prediction by ZEFSAII (Michael W. Deem and Ramdas Pophale) SiO2 
 PCOD9296752
Probable space group: C 2/C
;
_chemical_formula_sum "Si O2"
_cell_formula_units_Z 28
_cell_length_a 17.154925
_cell_length_b 8.330703
_cell_length_c 10.926582
_cell_angle_alpha 90.000000
_cell_angle_beta 127.414884
_cell_angle_gamma 90.000000
_cell_volume 1240.268613
_symmetry_space_group_name_H-M "C 2/C"
_symmetry_group_IT_number 15
_symmetry_cell_setting 'monoclinic'
loop_
_space_group_symop_operation_xyz
x,y,z
-x,y,1/2-z
-x,-y,-z
x,-y,1/2+z
1/2+x,1/2+y,z
1/2-x,1/2+y,1/2-z
1/2-x,1/2-y,-z
1/2+x,1/2-y,1/2+z
loop_
_atom_site_type_symbol
_atom_site_label
_atom_site_fract_x
_atom_site_fract_y
_atom_site_fract_z
Si Si1 0.611358 0.012110 0.153804
Si Si2 0.726846 0.708207 0.617657
Si Si3 0.446147 0.528724 0.575734
Si Si4 0.500000 0.159304 0.250000
O O1 0.669109 0.150828 0.134247
O O2 0.587634 0.062655 0.271290
O O3 0.675932 0.851957 0.220426
O O4 0.500000 0.000000 0.000000
O O5 0.750000 0.750000 0.500000
O O6 0.657851 0.552227 0.540827
O O7 0.500000 0.457812 0.750000
O O8 0.500000 0.500000 0.500000
O O9 0.451148 0.716901 0.608429
#
# Coordination Sequence:
#
# PCOD9296752 Si02
#       4
#     8   8   8   4
#     4  12  29  49  75 112 156 196 266 323 385 464
#     4  12  29  45  78 110 151 205 256 314 401 460
#     4  10  23  45  77 107 150 201 257 313 381 462
#     4  10  24  46  76 102 154 196 250 318 378 448
#
# _framework density 22.575752999999999
#
# number of rings (size 3 to 8) (size 9 to 14) (size 15 to 20)
#    0.857    0.000    2.857    1.714   16.000    1.143 
#    0.000    0.000    0.000    0.000    0.000    0.000 
#    0.000    0.000    0.000    0.000    0.000    0.000 
#
# Total GULP energy -78193.341094 kJ/mol
# GULP energy per Si atom -5585.238650 kJ/mol
# Density = 2.252437 g / cm^3
# Si number density = 22.575753 Si / 1000 Ang^3
#
#
#
# Elastic Constant Matrix: (Units=GPa)
#
#
# Indices 1 2 3 4 5 6 
#
# 1 178.9194 63.5944 55.4487 0.0000 -6.9501 0.0000
# 2 63.5944 83.7036 40.6399 0.0000 11.7883 0.0000
# 3 55.4487 40.6399 146.8294 0.0000 16.2359 0.0000
# 4 0.0000 0.0000 0.0000 52.1898 0.0000 -0.5355
# 5 -6.9501 11.7883 16.2359 0.0000 45.1745 0.0000
# 6 0.0000 0.0000 0.0000 -0.5355 0.0000 58.8375
#
#
#
# Elastic Compliance Matrix: (Units=1/GPa)
#
#
# Indices 1 2 3 4 5 6 
#
# 1 0.008453 -0.005986 -0.001928 0.000000 0.003556 0.000000
# 2 -0.005986 0.018279 -0.002259 0.000000 -0.004879 0.000000
# 3 -0.001928 -0.002259 0.008468 0.000000 -0.002751 0.000000
# 4 0.000000 0.000000 0.000000 0.019163 0.000000 0.000174
# 5 0.003556 -0.004879 -0.002751 0.000000 0.024945 0.000000
# 6 0.000000 0.000000 0.000000 0.000174 0.000000 0.016998
#
#
# Mechanical properties :
#
#
# Convention : Reuss Voigt Hill
#
# Bulk Modulus (GPa) = 67.32953 80.97980 74.15466
# Shear Modulus (GPa) = 41.11710 47.89166 44.50438
#
# Velocity S-wave (km/s) = 4.27229 4.61084 4.44479
# Velocity P-wave (km/s) = 7.36378 8.01839 7.69804
#
# Compressibility (1/GPa) = 0.01485233
#
# Stress axis : x y z
#
# Youngs Moduli (GPa) = 118.30648 54.70707 118.08807
#
# Poissons Ratio (x) = 0.32750 0.22770
# Poissons Ratio (y) = 0.70824 0.26678
# Poissons Ratio (z) = 0.22813 0.12359
#
# Static dielectric constant tensor:
#      x y z
#    x 1.606770 0.000000 -0.230280 
#    y 0.000000 1.828190 0.000000 
#    z -0.230280 0.000000 1.959650 
# 
# From -- ./inp_files/93620.got.cif
#   From: 2010.05.17/outbox.cif.g08.bks.cpg/sg15_47_cif.got.tgz:93620.got - 2010.06.03 18:47:42.
