data_PCOD9296222
_publ_section_title
;
Structure prediction by ZEFSAII (Michael W. Deem and Ramdas Pophale) SiO2 
 PCOD9296222
Probable space group: C 2/C
;
_chemical_formula_sum "Si O2"
_cell_formula_units_Z 28
_cell_length_a 8.939450
_cell_length_b 28.712111
_cell_length_c 8.887983
_cell_angle_alpha 90.000000
_cell_angle_beta 147.750228
_cell_angle_gamma 90.000000
_cell_volume 1217.317976
_symmetry_space_group_name_H-M "C 2/C"
_symmetry_group_IT_number 15
_symmetry_cell_setting 'monoclinic'
loop_
_space_group_symop_operation_xyz
x,y,z
-x,y,1/2-z
-x,-y,-z
x,-y,1/2+z
1/2+x,1/2+y,z
1/2-x,1/2+y,1/2-z
1/2-x,1/2-y,-z
1/2+x,1/2-y,1/2+z
loop_
_atom_site_type_symbol
_atom_site_label
_atom_site_fract_x
_atom_site_fract_y
_atom_site_fract_z
Si Si1 0.411210 0.778868 0.349260
Si Si2 0.500000 0.011824 0.750000
Si Si3 0.246528 0.562070 0.242915
Si Si4 0.197442 0.122000 0.772657
O O1 0.500000 0.783794 0.250000
O O2 0.689470 0.763270 0.672365
O O3 0.270924 0.826444 0.281022
O O4 0.323729 0.040977 0.479383
O O5 0.288469 0.979317 0.665704
O O6 0.530030 0.590730 0.508608
O O7 0.989015 0.596950 0.055269
O O8 0.000000 0.123101 0.750000
#
# Coordination Sequence:
#
# PCOD9296222 Si02
#       4
#     8   4   8   8
#     4  10  23  44  69  98 135 175 222 275 338 414
#     4  10  24  46  68  96 138 186 232 280 340 392
#     4  11  25  43  68 100 138 181 230 284 332 402
#     4  12  24  43  68 104 139 175 226 282 339 403
#
# _framework density 23.001386
#
# number of rings (size 3 to 8) (size 9 to 14) (size 15 to 20)
#    0.000    1.143    2.857    1.714    2.000    9.143 
#    0.000    0.000    0.000    0.000    0.000    0.000 
#    0.000    0.000    0.000    0.000    0.000    0.000 
#
# Total GULP energy -78483.465442 kJ/mol
# GULP energy per Si atom -5605.961817 kJ/mol
# Density = 2.294903 g / cm^3
# Si number density = 23.001386 Si / 1000 Ang^3
#
#
#
# Elastic Constant Matrix: (Units=GPa)
#
#
# Indices 1 2 3 4 5 6 
#
# 1 72.7902 49.1486 24.8888 0.0000 -9.6539 0.0000
# 2 49.1486 126.9779 30.4986 0.0000 -13.3257 0.0000
# 3 24.8888 30.4986 90.1630 0.0000 1.7843 0.0000
# 4 0.0000 0.0000 0.0000 10.8838 0.0000 -1.5745
# 5 -9.6539 -13.3257 1.7843 0.0000 35.8385 0.0000
# 6 0.0000 0.0000 0.0000 -1.5745 0.0000 -18.9923
#
#
#
# Elastic Compliance Matrix: (Units=1/GPa)
#
#
# Indices 1 2 3 4 5 6 
#
# 1 0.019653 -0.006498 -0.003287 0.000000 0.003041 0.000000
# 2 -0.006498 0.011138 -0.002023 0.000000 0.002492 0.000000
# 3 -0.003287 -0.002023 0.012728 0.000000 -0.002271 0.000000
# 4 0.000000 0.000000 0.000000 0.090791 0.000000 -0.007527
# 5 0.003041 0.002492 -0.002271 0.000000 0.029762 0.000000
# 6 0.000000 0.000000 0.000000 -0.007527 0.000000 -0.052029
#
#
# Mechanical properties :
#
#
# Convention : Reuss Voigt Hill
#
# Bulk Modulus (GPa) = 50.24665 55.44478 52.84571
# Shear Modulus (GPa) = 35.13862 17.90568 26.52215
#
# Velocity S-wave (km/s) = 3.91279 2.79312 3.39937
# Velocity P-wave (km/s) = 6.50428 5.87872 6.19940
#
# Compressibility (1/GPa) = 0.01990183
#
# Stress axis : x y z
#
# Youngs Moduli (GPa) = 50.88239 89.78227 78.56882
#
# Poissons Ratio (x) = 0.58343 0.25827
# Poissons Ratio (y) = 0.33065 0.15895
# Poissons Ratio (z) = 0.16726 0.18164
#
# Static dielectric constant tensor:
#      x y z
#    x 1.872400 0.000000 -0.003380 
#    y 0.000000 1.823470 0.000000 
#    z -0.003380 0.000000 1.824830 
# 
# From -- ./inp_files/24778.got.cif
#   From: 2010.05.17/outbox.cif.g08.bks.cpg/sg15_13_cif.got.tgz:24778.got - 2010.06.03 18:47:42.
