data_PCOD9296574
_publ_section_title
;
Structure prediction by ZEFSAII (Michael W. Deem and Ramdas Pophale) SiO2 
 PCOD9296574
Probable space group: C 2/C
;
_chemical_formula_sum "Si O2"
_cell_formula_units_Z 48
_cell_length_a 20.356926
_cell_length_b 9.087083
_cell_length_c 21.552564
_cell_angle_alpha 90.000000
_cell_angle_beta 150.546818
_cell_angle_gamma 90.000000
_cell_volume 1960.408709
_symmetry_space_group_name_H-M "C 2/C"
_symmetry_group_IT_number 15
_symmetry_cell_setting 'monoclinic'
loop_
_space_group_symop_operation_xyz
x,y,z
-x,y,1/2-z
-x,-y,-z
x,-y,1/2+z
1/2+x,1/2+y,z
1/2-x,1/2+y,1/2-z
1/2-x,1/2-y,-z
1/2+x,1/2-y,1/2+z
loop_
_atom_site_type_symbol
_atom_site_label
_atom_site_fract_x
_atom_site_fract_y
_atom_site_fract_z
Si Si1 0.127097 0.665512 0.434607
Si Si2 0.893661 0.675537 0.606434
Si Si3 0.780014 0.950839 0.802367
Si Si4 0.524974 0.427267 0.204033
Si Si5 0.713292 0.864544 0.139699
Si Si6 0.065615 0.117929 0.471972
O O1 0.250000 0.750000 0.500000
O O2 0.126241 0.498332 0.414206
O O3 0.995722 0.754442 0.308752
O O4 0.122830 0.670842 0.506508
O O5 0.750000 0.750000 0.500000
O O6 0.936580 0.738474 0.573550
O O7 0.000000 0.700350 0.750000
O O8 0.735699 0.793353 0.792638
O O9 0.924533 0.905734 0.890993
O O10 0.682946 0.028754 0.672593
O O11 0.818081 0.078193 0.883740
O O12 0.500000 0.492702 0.250000
O O13 0.670747 0.455490 0.299790
O O14 0.424172 0.490345 0.071292
#
# Coordination Sequence:
#
# PCOD9296574 Si02
#       6
#     8   8   8   8   8   8
#     4  12  25  45  70 106 144 189 247 313 378 442
#     4  12  30  47  76 115 151 195 249 317 379 442
#     4  10  24  44  66 100 138 199 238 298 361 452
#     4  11  21  40  71  98 130 183 239 302 368 435
#     4  11  25  41  72  97 141 188 245 300 372 441
#     4  10  23  45  68  96 145 185 243 292 370 436
#
# _framework density 24.484690000000001
#
# number of rings (size 3 to 8) (size 9 to 14) (size 15 to 20)
#    0.000    1.000    3.333    2.000    7.000    1.333 
#    0.000    1.667    0.000    0.000    0.000    0.000 
#    0.000    0.000    0.000    0.000    0.000    0.000 
#
# Total GULP energy -133955.502964 kJ/mol
# GULP energy per Si atom -5581.479290 kJ/mol
# Density = 2.442896 g / cm^3
# Si number density = 24.484690 Si / 1000 Ang^3
#
#
#
# Elastic Constant Matrix: (Units=GPa)
#
#
# Indices 1 2 3 4 5 6 
#
# 1 97.3889 22.7373 32.0435 0.0000 -25.7897 0.0000
# 2 22.7373 155.7787 16.0880 0.0000 -16.5163 0.0000
# 3 32.0435 16.0880 95.5326 0.0000 -37.7543 0.0000
# 4 0.0000 0.0000 0.0000 22.2773 0.0000 -18.0969
# 5 -25.7897 -16.5163 -37.7543 0.0000 36.3143 0.0000
# 6 0.0000 0.0000 0.0000 -18.0969 0.0000 30.4585
#
#
#
# Elastic Compliance Matrix: (Units=1/GPa)
#
#
# Indices 1 2 3 4 5 6 
#
# 1 0.012861 -0.000964 -0.001214 0.000000 0.007433 0.000000
# 2 -0.000964 0.006818 0.000221 0.000000 0.002646 0.000000
# 3 -0.001214 0.000221 0.017885 0.000000 0.017833 0.000000
# 4 0.000000 0.000000 0.000000 0.086767 0.000000 0.051553
# 5 0.007433 0.002646 0.017833 0.000000 0.052559 0.000000
# 6 0.000000 0.000000 0.000000 0.051553 0.000000 0.063461
#
#
# Mechanical properties :
#
#
# Convention : Reuss Voigt Hill
#
# Bulk Modulus (GPa) = 29.71768 54.49310 42.10539
# Shear Modulus (GPa) = 19.57084 36.33211 27.95147
#
# Velocity S-wave (km/s) = 2.83027 3.85628 3.38241
# Velocity P-wave (km/s) = 4.77956 6.49093 5.69984
#
# Compressibility (1/GPa) = 0.03365001
#
# Stress axis : x y z
#
# Youngs Moduli (GPa) = 77.75497 146.67579 55.91275
#
# Poissons Ratio (x) = 0.14135 0.06787
# Poissons Ratio (y) = 0.07493 -0.01235
# Poissons Ratio (z) = 0.09439 -0.03239
#
# Static dielectric constant tensor:
#      x y z
#    x 2.037480 0.000000 -0.048230 
#    y 0.000000 1.957200 0.000000 
#    z -0.048230 0.000000 1.995640 
# 
# From -- ./inp_files/252020.got.cif
#   From: 2010.05.17/outbox.cif.g08.bks.cpg/sg15_127_cif.got.tgz:252020.got - 2010.06.03 18:47:42.
