data_PCOD9296725
_publ_section_title
;
Structure prediction by ZEFSAII (Michael W. Deem and Ramdas Pophale) SiO2 
 PCOD9296725
Probable space group: C 2/C
;
_chemical_formula_sum "Si O2"
_cell_formula_units_Z 32
_cell_length_a 12.900178
_cell_length_b 9.828884
_cell_length_c 9.543679
_cell_angle_alpha 90.000000
_cell_angle_beta 84.962979
_cell_angle_gamma 90.000000
_cell_volume 1205.411471
_symmetry_space_group_name_H-M "C 2/C"
_symmetry_group_IT_number 15
_symmetry_cell_setting 'monoclinic'
loop_
_space_group_symop_operation_xyz
x,y,z
-x,y,1/2-z
-x,-y,-z
x,-y,1/2+z
1/2+x,1/2+y,z
1/2-x,1/2+y,1/2-z
1/2-x,1/2-y,-z
1/2+x,1/2-y,1/2+z
loop_
_atom_site_type_symbol
_atom_site_label
_atom_site_fract_x
_atom_site_fract_y
_atom_site_fract_z
Si Si1 0.122779 0.986089 0.460500
Si Si2 0.806892 0.852590 0.303233
Si Si3 0.096236 0.305589 0.932343
Si Si4 0.082442 0.394941 0.365181
O O1 0.154156 0.982092 0.294163
O O2 0.149074 0.827689 0.497025
O O3 0.178348 0.101851 0.540601
O O4 0.000000 0.000000 0.500000
O O5 0.880157 0.735428 0.231869
O O6 0.685731 0.827714 0.291967
O O7 0.121266 0.464995 0.933415
O O8 0.981685 0.309420 0.013859
O O9 0.000000 0.423312 0.250000
#
# Coordination Sequence:
#
# PCOD9296725 Si02
#       4
#     8   8   8   8
#     4  10  23  45  74 108 145 189 243 308 360 441
#     4  10  25  45  76 109 147 196 247 300 380 430
#     4   9  26  44  75 103 155 185 254 294 378 441
#     4  11  25  45  75 108 152 196 241 313 366 443
#
# _framework density 26.546952000000001
#
# number of rings (size 3 to 8) (size 9 to 14) (size 15 to 20)
#    1.500    0.500    0.000    0.750   10.500    8.000 
#    0.000    2.500    0.000    0.000    0.000    0.000 
#    0.000    0.000    0.000    0.000    0.000    0.000 
#
# Total GULP energy -89270.197867 kJ/mol
# GULP energy per Si atom -5579.387367 kJ/mol
# Density = 2.648653 g / cm^3
# Si number density = 26.546952 Si / 1000 Ang^3
#
#
#
# Elastic Constant Matrix: (Units=GPa)
#
#
# Indices 1 2 3 4 5 6 
#
# 1 115.9806 16.1439 8.8925 0.0000 -31.2488 0.0000
# 2 16.1439 128.2215 10.5306 0.0000 -3.7870 0.0000
# 3 8.8925 10.5306 66.1064 0.0000 -23.0945 0.0000
# 4 0.0000 0.0000 0.0000 55.4646 0.0000 -4.1956
# 5 -31.2488 -3.7870 -23.0945 0.0000 37.0476 0.0000
# 6 0.0000 0.0000 0.0000 -4.1956 0.0000 29.6102
#
#
#
# Elastic Compliance Matrix: (Units=1/GPa)
#
#
# Indices 1 2 3 4 5 6 
#
# 1 0.011660 -0.001347 0.002600 0.000000 0.011318 0.000000
# 2 -0.001347 0.008058 -0.001549 0.000000 -0.001278 0.000000
# 3 0.002600 -0.001549 0.020116 0.000000 0.014574 0.000000
# 4 0.000000 0.000000 0.000000 0.018225 0.000000 0.002582
# 5 0.011318 -0.001278 0.014574 0.000000 0.045493 0.000000
# 6 0.000000 0.000000 0.000000 0.002582 0.000000 0.034138
#
#
# Mechanical properties :
#
#
# Convention : Reuss Voigt Hill
#
# Bulk Modulus (GPa) = 25.48345 42.38249 33.93297
# Shear Modulus (GPa) = 33.03330 42.74059 37.88694
#
# Velocity S-wave (km/s) = 3.53134 4.01683 3.78189
# Velocity P-wave (km/s) = 5.12322 6.12479 5.64626
#
# Compressibility (1/GPa) = 0.03924116
#
# Stress axis : x y z
#
# Youngs Moduli (GPa) = 85.76568 124.09881 49.71227
#
# Poissons Ratio (x) = 0.16720 -0.12926
# Poissons Ratio (y) = 0.11555 0.07700
# Poissons Ratio (z) = -0.22300 0.19223
#
# Static dielectric constant tensor:
#      x y z
#    x 2.086240 0.000000 0.034700 
#    y 0.000000 2.082640 0.000000 
#    z 0.034700 0.000000 2.061930 
# 
# From -- ./inp_files/84267.got.cif
#   From: 2010.05.17/outbox.cif.g08.bks.cpg/sg15_43_cif.got.tgz:84267.got - 2010.06.03 18:47:42.
