data_PCOD9296507
_publ_section_title
;
Structure prediction by ZEFSAII (Michael W. Deem and Ramdas Pophale) SiO2 
 PCOD9296507
Probable space group: C 2/C
;
_chemical_formula_sum "Si O2"
_cell_formula_units_Z 56
_cell_length_a 6.695326
_cell_length_b 27.015170
_cell_length_c 15.750663
_cell_angle_alpha 90.000000
_cell_angle_beta 122.688059
_cell_angle_gamma 90.000000
_cell_volume 2397.706667
_symmetry_space_group_name_H-M "C 2/C"
_symmetry_group_IT_number 15
_symmetry_cell_setting 'monoclinic'
loop_
_space_group_symop_operation_xyz
x,y,z
-x,y,1/2-z
-x,-y,-z
x,-y,1/2+z
1/2+x,1/2+y,z
1/2-x,1/2+y,1/2-z
1/2-x,1/2-y,-z
1/2+x,1/2-y,1/2+z
loop_
_atom_site_type_symbol
_atom_site_label
_atom_site_fract_x
_atom_site_fract_y
_atom_site_fract_z
Si Si1 0.340442 0.811784 0.934968
Si Si2 0.667834 0.202747 0.869446
Si Si3 0.148401 0.077843 0.854998
Si Si4 0.508877 0.396572 0.874072
Si Si5 0.122728 0.469775 0.453562
Si Si6 0.723244 0.492214 0.675515
Si Si7 0.174933 0.844513 0.506547
O O1 0.194128 0.761936 0.885379
O O2 0.182673 0.858275 0.867511
O O3 0.397384 0.816054 0.049846
O O4 0.592597 0.811282 0.947025
O O5 0.500000 0.190585 0.750000
O O6 0.933632 0.181557 0.920413
O O7 0.000000 0.107252 0.750000
O O8 0.393396 0.060382 0.868878
O O9 0.207959 0.109197 0.951177
O O10 0.972426 0.032100 0.839422
O O11 0.340204 0.439290 0.797401
O O12 0.689523 0.430743 0.969302
O O13 0.362497 0.363527 0.906712
O O14 0.258649 0.506577 0.422348
O O15 0.000000 0.500000 0.500000
O O16 0.000000 0.504193 0.750000
#
# Coordination Sequence:
#
# PCOD9296507 Si02
#       7
#     8   8   8   8   8   8   8
#     4  10  23  45  66  95 131 163 214 268 325 394
#     4  10  24  44  68  96 128 164 207 270 331 395
#     4  12  24  37  60  96 128 168 215 270 319 374
#     4  11  23  40  64  91 123 170 216 259 314 386
#     4  12  22  38  62  84 123 172 213 254 314 370
#     4  12  25  41  58  92 136 170 217 268 309 379
#     4  11  23  40  69  95 122 167 214 266 332 382
#
# _framework density 23.355653
#
# number of rings (size 3 to 8) (size 9 to 14) (size 15 to 20)
#    0.000    0.857    5.714    1.714    2.000    0.571 
#    2.571    0.000    0.000    0.000    0.000    0.000 
#    0.000    0.000    0.000    0.000    0.000    0.000 
#
# Total GULP energy -156336.652333 kJ/mol
# GULP energy per Si atom -5583.451869 kJ/mol
# Density = 2.330249 g / cm^3
# Si number density = 23.355653 Si / 1000 Ang^3
#
#
#
# Elastic Constant Matrix: (Units=GPa)
#
#
# Indices 1 2 3 4 5 6 
#
# 1 115.6893 4.1066 5.2762 0.0000 12.5198 0.0000
# 2 4.1066 69.6723 -25.0650 0.0000 -1.4725 0.0000
# 3 5.2762 -25.0650 34.8862 0.0000 2.1086 0.0000
# 4 0.0000 0.0000 0.0000 16.5494 0.0000 7.6172
# 5 12.5198 -1.4725 2.1086 0.0000 27.2691 0.0000
# 6 0.0000 0.0000 0.0000 7.6172 0.0000 33.5028
#
#
#
# Elastic Compliance Matrix: (Units=1/GPa)
#
#
# Indices 1 2 3 4 5 6 
#
# 1 0.009242 -0.001409 -0.002159 0.000000 -0.004152 0.000000
# 2 -0.001409 0.019571 0.014238 0.000000 0.000603 0.000000
# 3 -0.002159 0.014238 0.039298 0.000000 -0.001279 0.000000
# 4 0.000000 0.000000 0.000000 0.067487 0.000000 -0.015344
# 5 -0.004152 0.000603 -0.001279 0.000000 0.038709 0.000000
# 6 0.000000 0.000000 0.000000 -0.015344 0.000000 0.033337
#
#
# Mechanical properties :
#
#
# Convention : Reuss Voigt Hill
#
# Bulk Modulus (GPa) = 11.17949 20.98705 16.08327
# Shear Modulus (GPa) = 23.13507 31.19293 27.16400
#
# Velocity S-wave (km/s) = 3.15072 3.65850 3.41406
# Velocity P-wave (km/s) = 4.24654 5.18185 4.73733
#
# Compressibility (1/GPa) = 0.08944952
#
# Stress axis : x y z
#
# Youngs Moduli (GPa) = 108.20522 51.09623 25.44649
#
# Poissons Ratio (x) = 0.07201 0.05495
# Poissons Ratio (y) = 0.15249 -0.36231
# Poissons Ratio (z) = 0.23365 -0.72751
#
# Static dielectric constant tensor:
#      x y z
#    x 1.897160 0.000000 -0.041480 
#    y 0.000000 1.934820 0.000000 
#    z -0.041480 0.000000 2.048150 
# 
# From -- ./inp_files/186777.got.cif
#   From: 2010.05.17/outbox.cif.g08.bks.cpg/sg15_94_cif.got.tgz:186777.got - 2010.06.03 18:47:42.
