data_PCOD9296115
_publ_section_title
;
Structure prediction by ZEFSAII (Michael W. Deem and Ramdas Pophale) SiO2 
 PCOD9296115
Probable space group: C 2/C
;
_chemical_formula_sum "Si O2"
_cell_formula_units_Z 64
_cell_length_a 10.997923
_cell_length_b 25.159399
_cell_length_c 11.782757
_cell_angle_alpha 90.000000
_cell_angle_beta 79.107272
_cell_angle_gamma 90.000000
_cell_volume 3201.560384
_symmetry_space_group_name_H-M "C 2/C"
_symmetry_group_IT_number 15
_symmetry_cell_setting 'monoclinic'
loop_
_space_group_symop_operation_xyz
x,y,z
-x,y,1/2-z
-x,-y,-z
x,-y,1/2+z
1/2+x,1/2+y,z
1/2-x,1/2+y,1/2-z
1/2-x,1/2-y,-z
1/2+x,1/2-y,1/2+z
loop_
_atom_site_type_symbol
_atom_site_label
_atom_site_fract_x
_atom_site_fract_y
_atom_site_fract_z
Si Si1 0.522494 0.670502 0.505183
Si Si2 0.890174 0.247086 0.192375
Si Si3 0.287919 0.158449 0.571208
Si Si4 0.562164 0.981795 0.866967
Si Si5 0.479453 0.553862 0.571115
Si Si6 0.012753 0.359906 0.878608
Si Si7 0.789613 0.057949 0.796022
Si Si8 0.668266 0.240802 0.403441
O O1 0.551000 0.696038 0.378480
O O2 0.651914 0.670818 0.549439
O O3 0.479807 0.609622 0.504496
O O4 0.424607 0.708839 0.586030
O O5 0.851404 0.288514 0.103707
O O6 0.765959 0.236530 0.284340
O O7 0.000000 0.270333 0.250000
O O8 0.377052 0.135594 0.458191
O O9 0.275779 0.114693 0.672289
O O10 0.500000 0.992031 0.750000
O O11 0.572837 0.918087 0.872990
O O12 0.692029 0.012167 0.838481
O O13 0.500000 0.000000 0.000000
O O14 0.500000 0.500000 0.500000
O O15 0.352124 0.551710 0.663246
O O16 0.595850 0.557193 0.636527
O O17 0.091278 0.313636 0.923975
O O18 0.000000 0.343745 0.750000
O O19 0.750000 0.250000 0.500000
#
# Coordination Sequence:
#
# PCOD9296115 Si02
#       8
#     8   8   8   8   8   8   8   8
#     4  11  24  43  67  95 130 177 223 275 335 412
#     4  12  24  42  64  95 135 171 217 279 341 404
#     4  11  22  43  68  94 132 175 229 269 340 410
#     4  11  25  45  71 104 142 185 230 288 355 422
#     4  10  24  44  69  96 131 174 229 287 337 406
#     4  11  24  42  69 100 133 178 227 285 345 417
#     4  10  23  44  67  99 130 178 231 275 342 418
#     4  12  25  43  62  97 137 171 224 278 347 411
#
# _framework density 19.990252999999999
#
# number of rings (size 3 to 8) (size 9 to 14) (size 15 to 20)
#    0.000    1.000    3.750    1.875    3.500    4.500 
#    4.500    0.000    0.000    0.000    0.000    0.000 
#    0.000    0.000    0.000    0.000    0.000    0.000 
#
# Total GULP energy -178692.900386 kJ/mol
# GULP energy per Si atom -5584.153137 kJ/mol
# Density = 1.994475 g / cm^3
# Si number density = 19.990253 Si / 1000 Ang^3
#
#
#
# Elastic Constant Matrix: (Units=GPa)
#
#
# Indices 1 2 3 4 5 6 
#
# 1 78.6109 31.8060 21.1389 0.0000 -24.8443 0.0000
# 2 31.8060 117.0286 39.6840 0.0000 -12.5597 0.0000
# 3 21.1389 39.6840 114.8366 0.0000 -31.4203 0.0000
# 4 0.0000 0.0000 0.0000 27.1244 0.0000 -4.1311
# 5 -24.8443 -12.5597 -31.4203 0.0000 42.7928 0.0000
# 6 0.0000 0.0000 0.0000 -4.1311 0.0000 37.3737
#
#
#
# Elastic Compliance Matrix: (Units=1/GPa)
#
#
# Indices 1 2 3 4 5 6 
#
# 1 0.017029 -0.003885 0.000752 0.000000 0.009299 0.000000
# 2 -0.003885 0.010574 -0.003387 0.000000 -0.001639 0.000000
# 3 0.000752 -0.003387 0.011998 0.000000 0.008252 0.000000
# 4 0.000000 0.000000 0.000000 0.037498 0.000000 0.004145
# 5 0.009299 -0.001639 0.008252 0.000000 0.034345 0.000000
# 6 0.000000 0.000000 0.000000 0.004145 0.000000 0.027215
#
#
# Mechanical properties :
#
#
# Convention : Reuss Voigt Hill
#
# Bulk Modulus (GPa) = 37.65082 55.08155 46.36619
# Shear Modulus (GPa) = 31.14236 35.98134 33.56185
#
# Velocity S-wave (km/s) = 3.95128 4.24718 4.10190
# Velocity P-wave (km/s) = 6.30018 7.18786 6.75861
#
# Compressibility (1/GPa) = 0.02655985
#
# Stress axis : x y z
#
# Youngs Moduli (GPa) = 58.72195 94.57580 83.34803
#
# Poissons Ratio (x) = 0.36746 -0.06269
# Poissons Ratio (y) = 0.22815 0.28232
# Poissons Ratio (z) = -0.04416 0.32035
#
# Static dielectric constant tensor:
#      x y z
#    x 1.701640 0.000000 0.001260 
#    y 0.000000 1.705760 0.000000 
#    z 0.001260 0.000000 1.731960 
# 
# From -- ./inp_files/91246.got.cif
#   From: 2010.05.17/outbox.cif.g08.bks.cpg/sg15_46_cif.got.tgz:91246.got - 2010.06.03 18:47:42.
