data_PCOD9296181
_publ_section_title
;
Structure prediction by ZEFSAII (Michael W. Deem and Ramdas Pophale) SiO2 
 PCOD9296181
Probable space group: C 2/C
;
_chemical_formula_sum "Si O2"
_cell_formula_units_Z 32
_cell_length_a 12.387629
_cell_length_b 8.669256
_cell_length_c 11.604660
_cell_angle_alpha 90.000000
_cell_angle_beta 75.121455
_cell_angle_gamma 90.000000
_cell_volume 1204.458522
_symmetry_space_group_name_H-M "C 2/C"
_symmetry_group_IT_number 15
_symmetry_cell_setting 'monoclinic'
loop_
_space_group_symop_operation_xyz
x,y,z
-x,y,1/2-z
-x,-y,-z
x,-y,1/2+z
1/2+x,1/2+y,z
1/2-x,1/2+y,1/2-z
1/2-x,1/2-y,-z
1/2+x,1/2-y,1/2+z
loop_
_atom_site_type_symbol
_atom_site_label
_atom_site_fract_x
_atom_site_fract_y
_atom_site_fract_z
Si Si1 0.468620 0.863176 0.140447
Si Si2 0.396045 0.381754 0.022984
Si Si3 0.763936 0.704453 0.250748
Si Si4 0.271304 0.070842 0.578052
O O1 0.500000 0.954885 0.250000
O O2 0.567884 0.755440 0.071160
O O3 0.366546 0.753403 0.214347
O O4 0.404834 0.917636 0.040309
O O5 0.292866 0.476520 0.999218
O O6 0.500000 0.500000 0.000000
O O7 0.351738 0.297393 0.148482
O O8 0.764314 0.534247 0.198566
O O9 0.787963 0.766146 0.373974
#
# Coordination Sequence:
#
# PCOD9296181 Si02
#       4
#     8   8   8   8
#     4  10  23  44  70  93 139 180 222 283 341 392
#     4  12  24  42  73  97 138 191 216 281 364 386
#     4  10  23  44  69 100 136 177 234 279 332 420
#     4  10  23  45  68 100 143 168 241 281 323 428
#
# _framework density 26.567957
#
# number of rings (size 3 to 8) (size 9 to 14) (size 15 to 20)
#    1.500    0.000    2.500    2.250    0.000    2.000 
#    4.500    0.000    0.000    0.000    0.000    0.000 
#    0.000    0.000    0.000    0.000    0.000    0.000 
#
# Total GULP energy -89137.080715 kJ/mol
# GULP energy per Si atom -5571.067545 kJ/mol
# Density = 2.650749 g / cm^3
# Si number density = 26.567957 Si / 1000 Ang^3
#
#
#
# Elastic Constant Matrix: (Units=GPa)
#
#
# Indices 1 2 3 4 5 6 
#
# 1 105.3986 11.1996 22.5892 0.0000 7.1107 0.0000
# 2 11.1996 76.6173 -3.0099 0.0000 -6.2766 0.0000
# 3 22.5892 -3.0099 88.3941 0.0000 -12.5090 0.0000
# 4 0.0000 0.0000 0.0000 34.8226 0.0000 -8.8032
# 5 7.1107 -6.2766 -12.5090 0.0000 52.8725 0.0000
# 6 0.0000 0.0000 0.0000 -8.8032 0.0000 39.2305
#
#
#
# Elastic Compliance Matrix: (Units=1/GPa)
#
#
# Indices 1 2 3 4 5 6 
#
# 1 0.010504 -0.001850 -0.003081 0.000000 -0.002361 0.000000
# 2 -0.001850 0.013547 0.001238 0.000000 0.002150 0.000000
# 3 -0.003081 0.001238 0.012645 0.000000 0.003553 0.000000
# 4 0.000000 0.000000 0.000000 0.030444 0.000000 0.006832
# 5 -0.002361 0.002150 0.003553 0.000000 0.020327 0.000000
# 6 0.000000 0.000000 0.000000 0.006832 0.000000 0.027023
#
#
# Mechanical properties :
#
#
# Convention : Reuss Voigt Hill
#
# Bulk Modulus (GPa) = 34.11763 36.88529 35.50146
# Shear Modulus (GPa) = 37.98032 41.36054 39.67043
#
# Velocity S-wave (km/s) = 3.78505 3.94989 3.86835
# Velocity P-wave (km/s) = 5.65435 5.89200 5.77440
#
# Compressibility (1/GPa) = 0.02931036
#
# Stress axis : x y z
#
# Youngs Moduli (GPa) = 95.20097 73.81671 79.07992
#
# Poissons Ratio (x) = 0.13656 0.24368
# Poissons Ratio (y) = 0.17612 -0.09792
# Poissons Ratio (z) = 0.29336 -0.09141
#
# Static dielectric constant tensor:
#      x y z
#    x 2.088260 0.000000 0.084850 
#    y 0.000000 2.196560 0.000000 
#    z 0.084850 0.000000 2.130610 
# 
# From -- ./inp_files/84282.got.cif
#   From: 2010.05.17/outbox.cif.g08.bks.cpg/sg15_43_cif.got.tgz:84282.got - 2010.06.03 18:47:42.
