data_PCOD9296686
_publ_section_title
;
Structure prediction by ZEFSAII (Michael W. Deem and Ramdas Pophale) SiO2 
 PCOD9296686
Probable space group: C 2/C
;
_chemical_formula_sum "Si O2"
_cell_formula_units_Z 32
_cell_length_a 14.673616
_cell_length_b 17.166144
_cell_length_c 5.553710
_cell_angle_alpha 90.000000
_cell_angle_beta 115.486122
_cell_angle_gamma 90.000000
_cell_volume 1262.791084
_symmetry_space_group_name_H-M "C 2/C"
_symmetry_group_IT_number 15
_symmetry_cell_setting 'monoclinic'
loop_
_space_group_symop_operation_xyz
x,y,z
-x,y,1/2-z
-x,-y,-z
x,-y,1/2+z
1/2+x,1/2+y,z
1/2-x,1/2+y,1/2-z
1/2-x,1/2-y,-z
1/2+x,1/2-y,1/2+z
loop_
_atom_site_type_symbol
_atom_site_label
_atom_site_fract_x
_atom_site_fract_y
_atom_site_fract_z
Si Si1 0.032760 0.170713 0.537324
Si Si2 0.860554 0.045790 0.346316
Si Si3 0.247128 0.840332 0.074545
Si Si4 0.042100 0.409755 0.047605
O O1 0.150617 0.156034 0.642551
O O2 0.000000 0.208546 0.750000
O O3 0.967404 0.090854 0.462124
O O4 0.000000 0.210204 0.250000
O O5 0.849746 0.004484 0.589307
O O6 0.778607 0.112849 0.200101
O O7 0.340437 0.885830 0.300692
O O8 0.250000 0.750000 0.000000
O O9 0.000000 0.377745 0.250000
O O10 0.000000 0.378211 0.750000
O O11 0.000000 0.500000 0.000000
#
# Coordination Sequence:
#
# PCOD9296686 Si02
#       4
#     8   8   8   8
#     4  10  23  45  72 113 152 193 252 331 404 463
#     4  11  25  45  76 113 149 194 258 331 396 472
#     4  11  27  49  79 117 163 209 266 330 411 473
#     4  10  25  49  75 109 150 213 271 319 382 479
#
# _framework density 25.340691
#
# number of rings (size 3 to 8) (size 9 to 14) (size 15 to 20)
#    0.000    1.500    0.000    3.000    7.000   20.000 
#    0.000   28.750    0.000    0.000    0.000    0.000 
#    0.000    0.000    0.000    0.000    0.000    0.000 
#
# Total GULP energy -89403.935700 kJ/mol
# GULP energy per Si atom -5587.745981 kJ/mol
# Density = 2.528301 g / cm^3
# Si number density = 25.340691 Si / 1000 Ang^3
#
#
#
# Elastic Constant Matrix: (Units=GPa)
#
#
# Indices 1 2 3 4 5 6 
#
# 1 154.9005 40.7046 97.0668 0.0000 32.0883 0.0000
# 2 40.7046 210.3085 82.3845 0.0000 7.3345 0.0000
# 3 97.0668 82.3845 260.2359 0.0000 -11.7555 0.0000
# 4 0.0000 0.0000 0.0000 -72.0690 0.0000 -24.3497
# 5 32.0883 7.3345 -11.7555 0.0000 63.2862 0.0000
# 6 0.0000 0.0000 0.0000 -24.3497 0.0000 -10.8174
#
#
#
# Elastic Compliance Matrix: (Units=1/GPa)
#
#
# Indices 1 2 3 4 5 6 
#
# 1 0.010264 -0.000200 -0.004033 0.000000 -0.005930 0.000000
# 2 -0.000200 0.005490 -0.001702 0.000000 -0.000851 0.000000
# 3 -0.004033 -0.001702 0.006038 0.000000 0.003364 0.000000
# 4 0.000000 0.000000 0.000000 -0.057943 0.000000 0.130428
# 5 -0.005930 -0.000851 0.003364 0.000000 0.019531 0.000000
# 6 0.000000 0.000000 0.000000 0.130428 0.000000 -0.386036
#
#
# Mechanical properties :
#
#
# Convention : Reuss Voigt Hill
#
# Bulk Modulus (GPa) = 100.78546 118.41740 109.60143
# Shear Modulus (GPa) = -12.90393 23.09923 5.09765
#
# Velocity S-wave (km/s) = -2.25903 3.02246 1.41986
# Velocity P-wave (km/s) = 5.74928 7.68192 6.78477
#
# Compressibility (1/GPa) = 0.00992207
#
# Stress axis : x y z
#
# Youngs Moduli (GPa) = 97.42785 182.15048 165.62635
#
# Poissons Ratio (x) = 0.03641 0.66798
# Poissons Ratio (y) = 0.01947 0.28188
# Poissons Ratio (z) = 0.39293 0.31000
#
# Static dielectric constant tensor:
#      x y z
#    x 2.053880 0.000000 0.036560 
#    y 0.000000 2.271830 0.000000 
#    z 0.036560 0.000000 2.023410 
# 
# From -- ./inp_files/6559.got.cif
#   From: 2010.05.17/outbox.cif.g08.bks.cpg/sg15_4_cif.got.tgz:6559.got - 2010.06.03 18:47:42.
