data_PCOD9296690
_publ_section_title
;
Structure prediction by ZEFSAII (Michael W. Deem and Ramdas Pophale) SiO2 
 PCOD9296690
Probable space group: C 2/C
;
_chemical_formula_sum "Si O2"
_cell_formula_units_Z 48
_cell_length_a 15.511924
_cell_length_b 14.358234
_cell_length_c 16.391379
_cell_angle_alpha 90.000000
_cell_angle_beta 142.281722
_cell_angle_gamma 90.000000
_cell_volume 2233.454192
_symmetry_space_group_name_H-M "C 2/C"
_symmetry_group_IT_number 15
_symmetry_cell_setting 'monoclinic'
loop_
_space_group_symop_operation_xyz
x,y,z
-x,y,1/2-z
-x,-y,-z
x,-y,1/2+z
1/2+x,1/2+y,z
1/2-x,1/2+y,1/2-z
1/2-x,1/2-y,-z
1/2+x,1/2-y,1/2+z
loop_
_atom_site_type_symbol
_atom_site_label
_atom_site_fract_x
_atom_site_fract_y
_atom_site_fract_z
Si Si1 0.719420 0.239613 0.809861
Si Si2 0.096624 0.790333 0.393639
Si Si3 0.454322 0.485012 0.093610
Si Si4 0.500000 0.349135 0.750000
Si Si5 0.964809 0.715438 0.977115
Si Si6 0.767795 0.027787 0.801329
Si Si7 0.500000 0.000000 0.000000
O O1 0.622948 0.283818 0.807336
O O2 0.877285 0.275824 0.938964
O O3 0.644826 0.263415 0.667282
O O4 0.726929 0.128042 0.809217
O O5 0.250000 0.750000 0.500000
O O6 0.098080 0.901660 0.388982
O O7 0.000000 0.751333 0.250000
O O8 0.038099 0.764275 0.438229
O O9 0.451468 0.581813 0.140779
O O10 0.613796 0.466708 0.181404
O O11 0.352692 0.481148 0.939229
O O12 0.934622 0.605718 0.961700
O O13 0.629603 0.977670 0.662942
#
# Coordination Sequence:
#
# PCOD9296690 Si02
#       7
#     8   8   8   4   8   8   4
#     4  11  24  43  70 103 138 182 235 289 363 422
#     4  12  27  44  70 106 141 186 245 301 354 429
#     4  11  24  45  71  99 140 188 241 283 361 434
#     4  12  26  42  74 110 146 184 238 314 346 430
#     4  11  24  45  69  97 137 189 230 291 360 435
#     4  10  23  45  72  98 131 193 238 287 353 446
#     4  10  24  38  72  98 132 174 242 288 352 424
#
# _framework density 21.491375000000001
#
# number of rings (size 3 to 8) (size 9 to 14) (size 15 to 20)
#    0.000    1.000    2.500    3.000    9.333    4.000 
#    0.000    1.667    0.000    0.000    0.000    0.000 
#    0.000    0.000    0.000    0.000    0.000    0.000 
#
# Total GULP energy -133652.049618 kJ/mol
# GULP energy per Si atom -5568.835401 kJ/mol
# Density = 2.144246 g / cm^3
# Si number density = 21.491375 Si / 1000 Ang^3
#
#
#
# Elastic Constant Matrix: (Units=GPa)
#
#
# Indices 1 2 3 4 5 6 
#
# 1 71.6788 21.8098 21.3861 0.0000 15.3649 0.0000
# 2 21.8098 79.4541 2.5848 0.0000 2.0188 0.0000
# 3 21.3861 2.5848 141.3843 0.0000 7.3001 0.0000
# 4 0.0000 0.0000 0.0000 31.1538 0.0000 -2.3107
# 5 15.3649 2.0188 7.3001 0.0000 17.5743 0.0000
# 6 0.0000 0.0000 0.0000 -2.3107 0.0000 35.2419
#
#
#
# Elastic Compliance Matrix: (Units=1/GPa)
#
#
# Indices 1 2 3 4 5 6 
#
# 1 0.019365 -0.004855 -0.002039 0.000000 -0.015526 0.000000
# 2 -0.004855 0.013843 0.000352 0.000000 0.002508 0.000000
# 3 -0.002039 0.000352 0.007445 0.000000 -0.001350 0.000000
# 4 0.000000 0.000000 0.000000 0.032256 0.000000 0.002115
# 5 -0.015526 0.002508 -0.001350 0.000000 0.070748 0.000000
# 6 0.000000 0.000000 0.000000 0.002115 0.000000 0.028514
#
#
# Mechanical properties :
#
#
# Convention : Reuss Voigt Hill
#
# Bulk Modulus (GPa) = 36.27248 42.67542 39.47395
# Shear Modulus (GPa) = 25.71451 33.24312 29.47881
#
# Velocity S-wave (km/s) = 3.46280 3.93722 3.70761
# Velocity P-wave (km/s) = 5.73606 6.36938 6.06100
#
# Compressibility (1/GPa) = 0.02756911
#
# Stress axis : x y z
#
# Youngs Moduli (GPa) = 51.64073 72.23711 134.32559
#
# Poissons Ratio (x) = 0.35069 0.27385
# Poissons Ratio (y) = 0.25070 -0.04725
# Poissons Ratio (z) = 0.10528 -0.02541
#
# Static dielectric constant tensor:
#      x y z
#    x 1.610310 0.000000 -0.063040 
#    y 0.000000 1.843770 0.000000 
#    z -0.063040 0.000000 1.810210 
# 
# From -- ./inp_files/205555.got.cif
#   From: 2010.05.17/outbox.cif.g08.bks.cpg/sg15_103_cif.got.tgz:205555.got - 2010.06.03 18:47:42.
