data_PCOD9296792
_publ_section_title
;
Structure prediction by ZEFSAII (Michael W. Deem and Ramdas Pophale) SiO2 
 PCOD9296792
Probable space group: C 2/C
;
_chemical_formula_sum "Si O2"
_cell_formula_units_Z 48
_cell_length_a 16.265712
_cell_length_b 8.549672
_cell_length_c 14.414444
_cell_angle_alpha 90.000000
_cell_angle_beta 89.537079
_cell_angle_gamma 90.000000
_cell_volume 2004.500885
_symmetry_space_group_name_H-M "C 2/C"
_symmetry_group_IT_number 15
_symmetry_cell_setting 'monoclinic'
loop_
_space_group_symop_operation_xyz
x,y,z
-x,y,1/2-z
-x,-y,-z
x,-y,1/2+z
1/2+x,1/2+y,z
1/2-x,1/2+y,1/2-z
1/2-x,1/2-y,-z
1/2+x,1/2-y,1/2+z
loop_
_atom_site_type_symbol
_atom_site_label
_atom_site_fract_x
_atom_site_fract_y
_atom_site_fract_z
Si Si1 0.539508 0.792684 0.159437
Si Si2 0.301565 0.040661 0.774425
Si Si3 0.682240 0.199651 0.076177
Si Si4 0.811202 0.194989 0.581918
Si Si5 0.410238 0.502982 0.457964
Si Si6 0.115938 0.512940 0.912902
O O1 0.500000 0.711777 0.250000
O O2 0.606155 0.912457 0.197411
O O3 0.587121 0.658922 0.103671
O O4 0.465841 0.888853 0.110938
O O5 0.238725 0.157970 0.824903
O O6 0.309830 0.044921 0.662768
O O7 0.287481 0.877567 0.828832
O O8 0.620877 0.346036 0.090598
O O9 0.750000 0.250000 0.000000
O O10 0.637344 0.064134 0.016456
O O11 0.750000 0.250000 0.500000
O O12 0.850097 0.035783 0.544331
O O13 0.882919 0.324615 0.591746
O O14 0.500000 0.500000 0.500000
#
# Coordination Sequence:
#
# PCOD9296792 Si02
#       6
#     8   8   8   8   8   8
#     4  10  23  46  66  97 135 179 227 278 337 405
#     4  11  25  44  70  97 132 181 229 274 336 408
#     4  12  24  43  64 102 136 172 227 280 337 399
#     4  12  23  44  69  94 130 184 221 267 343 401
#     4  12  24  41  68  97 133 177 220 281 341 396
#     4  11  25  44  70  96 135 178 225 278 336 408
#
# _framework density 23.946110000000001
#
# number of rings (size 3 to 8) (size 9 to 14) (size 15 to 20)
#    0.000    0.667    6.667    0.000    4.667    1.333 
#    3.000    0.000    0.000    0.000    0.000    0.000 
#    0.000    0.000    0.000    0.000    0.000    0.000 
#
# Total GULP energy -134100.998125 kJ/mol
# GULP energy per Si atom -5587.541589 kJ/mol
# Density = 2.389161 g / cm^3
# Si number density = 23.946110 Si / 1000 Ang^3
#
#
#
# Elastic Constant Matrix: (Units=GPa)
#
#
# Indices 1 2 3 4 5 6 
#
# 1 56.1355 16.2955 10.1783 0.0000 -15.9694 0.0000
# 2 16.2955 113.6347 25.8947 0.0000 -4.5567 0.0000
# 3 10.1783 25.8947 119.9376 0.0000 -22.5290 0.0000
# 4 0.0000 0.0000 0.0000 29.1587 0.0000 -7.1213
# 5 -15.9694 -4.5567 -22.5290 0.0000 33.1635 0.0000
# 6 0.0000 0.0000 0.0000 -7.1213 0.0000 48.1114
#
#
#
# Elastic Compliance Matrix: (Units=1/GPa)
#
#
# Indices 1 2 3 4 5 6 
#
# 1 0.021476 -0.002832 0.000755 0.000000 0.010465 0.000000
# 2 -0.002832 0.009629 -0.002116 0.000000 -0.001478 0.000000
# 3 0.000755 -0.002116 0.010023 0.000000 0.006882 0.000000
# 4 0.000000 0.000000 0.000000 0.035581 0.000000 0.005267
# 5 0.010465 -0.001478 0.006882 0.000000 0.039665 0.000000
# 6 0.000000 0.000000 0.000000 0.005267 0.000000 0.021565
#
#
# Mechanical properties :
#
#
# Convention : Reuss Voigt Hill
#
# Bulk Modulus (GPa) = 30.54237 43.82719 37.18478
# Shear Modulus (GPa) = 31.79832 37.90934 34.85383
#
# Velocity S-wave (km/s) = 3.64801 3.98315 3.81926
# Velocity P-wave (km/s) = 5.52506 6.28459 5.91702
#
# Compressibility (1/GPa) = 0.03274140
#
# Stress axis : x y z
#
# Youngs Moduli (GPa) = 46.56258 103.85038 99.76863
#
# Poissons Ratio (x) = 0.29411 -0.07529
# Poissons Ratio (y) = 0.13187 0.21114
# Poissons Ratio (z) = -0.03514 0.21978
#
# Static dielectric constant tensor:
#      x y z
#    x 1.888700 0.000000 -0.016440 
#    y 0.000000 1.897200 0.000000 
#    z -0.016440 0.000000 1.938430 
# 
# From -- ./inp_files/159742.got.cif
#   From: 2010.05.17/outbox.cif.g08.bks.cpg/sg15_80_cif.got.tgz:159742.got - 2010.06.03 18:47:42.
