data_PCOD9296901
_publ_section_title
;
Structure prediction by ZEFSAII (Michael W. Deem and Ramdas Pophale) SiO2 
 PCOD9296901
Probable space group: C 2/C
;
_chemical_formula_sum "Si O2"
_cell_formula_units_Z 60
_cell_length_a 12.148832
_cell_length_b 14.190163
_cell_length_c 15.134313
_cell_angle_alpha 90.000000
_cell_angle_beta 90.540085
_cell_angle_gamma 90.000000
_cell_volume 2608.947425
_symmetry_space_group_name_H-M "C 2/C"
_symmetry_group_IT_number 15
_symmetry_cell_setting 'monoclinic'
loop_
_space_group_symop_operation_xyz
x,y,z
-x,y,1/2-z
-x,-y,-z
x,-y,1/2+z
1/2+x,1/2+y,z
1/2-x,1/2+y,1/2-z
1/2-x,1/2-y,-z
1/2+x,1/2-y,1/2+z
loop_
_atom_site_type_symbol
_atom_site_label
_atom_site_fract_x
_atom_site_fract_y
_atom_site_fract_z
Si Si1 0.266681 0.896131 0.159581
Si Si2 0.673499 0.142950 0.558990
Si Si3 0.883280 0.755328 0.770354
Si Si4 0.000000 0.319428 0.750000
Si Si5 0.405283 0.714701 0.578709
Si Si6 0.835841 0.438597 0.964121
Si Si7 0.369020 0.264842 0.450936
Si Si8 0.727878 0.077851 0.221130
O O1 0.359908 0.827449 0.199090
O O2 0.169817 0.821356 0.136481
O O3 0.249800 0.979860 0.229013
O O4 0.293130 0.940538 0.064037
O O5 0.623650 0.205745 0.635768
O O6 0.652858 0.195899 0.467690
O O7 0.805564 0.139914 0.578939
O O8 0.617951 0.040870 0.557096
O O9 0.795031 0.837291 0.763560
O O10 0.000000 0.798360 0.750000
O O11 0.951507 0.251660 0.672609
O O12 0.899347 0.389743 0.772962
O O13 0.515443 0.685158 0.524588
O O14 0.906832 0.344338 0.954303
O O15 0.747420 0.425228 0.883849
O O16 0.250000 0.250000 0.500000
#
# Coordination Sequence:
#
# PCOD9296901 Si02
#       8
#     8   8   8   4   8   8   8   8
#     4  11  25  46  68 106 141 186 248 294 360 439
#     4  11  26  46  67 110 145 185 240 307 366 421
#     4  12  27  45  71 101 149 187 234 302 366 429
#     4  12  22  42  74 102 134 188 246 296 352 438
#     4  11  24  44  72  99 146 188 239 298 362 430
#     4  11  23  43  72  98 142 185 237 302 352 430
#     4  10  23  46  71  98 138 191 239 291 353 433
#     4  12  25  46  70 107 138 185 247 300 361 430
#
# _framework density 22.997781
#
# number of rings (size 3 to 8) (size 9 to 14) (size 15 to 20)
#    0.000    0.800    5.333    0.800    6.533    0.533 
#    2.400    2.667    0.000    0.000    0.000    0.000 
#    0.000    0.000    0.000    0.000    0.000    0.000 
#
# Total GULP energy -167255.822238 kJ/mol
# GULP energy per Si atom -5575.194075 kJ/mol
# Density = 2.294544 g / cm^3
# Si number density = 22.997781 Si / 1000 Ang^3
#
#
#
# Elastic Constant Matrix: (Units=GPa)
#
#
# Indices 1 2 3 4 5 6 
#
# 1 131.5356 16.3158 19.2649 0.0000 -1.4275 0.0000
# 2 16.3158 90.7106 23.4401 0.0000 7.3749 0.0000
# 3 19.2649 23.4401 126.8312 0.0000 12.4267 0.0000
# 4 0.0000 0.0000 0.0000 46.1857 0.0000 1.3956
# 5 -1.4275 7.3749 12.4267 0.0000 25.2825 0.0000
# 6 0.0000 0.0000 0.0000 1.3956 0.0000 8.8805
#
#
#
# Elastic Compliance Matrix: (Units=1/GPa)
#
#
# Indices 1 2 3 4 5 6 
#
# 1 0.007935 -0.001251 -0.001107 0.000000 0.001357 0.000000
# 2 -0.001251 0.011920 -0.001749 0.000000 -0.002688 0.000000
# 3 -0.001107 -0.001749 0.008754 0.000000 -0.003855 0.000000
# 4 0.000000 0.000000 0.000000 0.021755 0.000000 -0.003419
# 5 0.001357 -0.002688 -0.003855 0.000000 0.042308 0.000000
# 6 0.000000 0.000000 0.000000 -0.003419 0.000000 0.113144
#
#
# Mechanical properties :
#
#
# Convention : Reuss Voigt Hill
#
# Bulk Modulus (GPa) = 49.03825 51.90210 50.47018
# Shear Modulus (GPa) = 22.64199 35.40684 29.02441
#
# Velocity S-wave (km/s) = 3.14113 3.92800 3.55639
# Velocity P-wave (km/s) = 5.87579 6.57188 6.23356
#
# Compressibility (1/GPa) = 0.02039224
#
# Stress axis : x y z
#
# Youngs Moduli (GPa) = 126.03052 83.89433 114.23824
#
# Poissons Ratio (x) = 0.10499 0.12645
# Poissons Ratio (y) = 0.15772 0.19986
# Poissons Ratio (z) = 0.13950 0.14677
#
# Static dielectric constant tensor:
#      x y z
#    x 1.903570 0.000000 -0.045500 
#    y 0.000000 1.842300 0.000000 
#    z -0.045500 0.000000 1.949930 
# 
# From -- ./inp_files/197918.got.cif
#   From: 2010.05.17/outbox.cif.g08.bks.cpg/sg15_99_cif.got.tgz:197918.got - 2010.06.03 18:47:42.
