data_PCOD9296146
_publ_section_title
;
Structure prediction by ZEFSAII (Michael W. Deem and Ramdas Pophale) SiO2 
 PCOD9296146
Probable space group: C 2/C
;
_chemical_formula_sum "Si O2"
_cell_formula_units_Z 48
_cell_length_a 26.654075
_cell_length_b 19.360851
_cell_length_c 8.846527
_cell_angle_alpha 90.000000
_cell_angle_beta 149.487036
_cell_angle_gamma 90.000000
_cell_volume 2317.909729
_symmetry_space_group_name_H-M "C 2/C"
_symmetry_group_IT_number 15
_symmetry_cell_setting 'monoclinic'
loop_
_space_group_symop_operation_xyz
x,y,z
-x,y,1/2-z
-x,-y,-z
x,-y,1/2+z
1/2+x,1/2+y,z
1/2-x,1/2+y,1/2-z
1/2-x,1/2-y,-z
1/2+x,1/2-y,1/2+z
loop_
_atom_site_type_symbol
_atom_site_label
_atom_site_fract_x
_atom_site_fract_y
_atom_site_fract_z
Si Si1 0.601327 0.970992 0.682799
Si Si2 0.353039 0.239198 0.855935
Si Si3 0.500000 0.488183 0.250000
Si Si4 0.418852 0.405546 0.753256
Si Si5 0.980264 0.230733 0.949473
Si Si6 0.500000 0.850983 0.250000
Si Si7 0.807733 0.411142 0.284749
O O1 0.581708 0.908078 0.513604
O O2 0.500000 0.000000 0.500000
O O3 0.659915 0.032273 0.753234
O O4 0.664116 0.941079 0.981199
O O5 0.250000 0.250000 0.500000
O O6 0.368772 0.157643 0.912112
O O7 0.436067 0.267086 0.961124
O O8 0.376495 0.267857 0.086560
O O9 0.540091 0.441648 0.488980
O O10 0.578897 0.538763 0.375853
O O11 0.306163 0.388858 0.500834
O O12 0.491557 0.342121 0.901912
O O13 0.998896 0.296698 0.106535
#
# Coordination Sequence:
#
# PCOD9296146 Si02
#       7
#     8   8   4   8   8   4   8
#     4  12  24  42  66  98 139 180 220 283 342 402
#     4  11  23  42  66  95 130 180 228 272 331 414
#     4  10  23  44  68  91 126 174 220 276 342 391
#     4  11  23  44  67  96 128 174 224 278 337 405
#     4  11  24  42  68  94 136 176 220 279 343 406
#     4  12  23  42  64 101 132 178 214 280 356 395
#     4  12  24  41  66  99 132 175 233 275 337 407
#
# _framework density 20.708311999999999
#
# number of rings (size 3 to 8) (size 9 to 14) (size 15 to 20)
#    0.000    0.667    5.000    3.500    2.333    0.000 
#    0.000    5.000    0.000    0.000    0.000    0.000 
#    0.000    0.000    0.000    0.000    0.000    0.000 
#
# Total GULP energy -133756.653326 kJ/mol
# GULP energy per Si atom -5573.193889 kJ/mol
# Density = 2.066118 g / cm^3
# Si number density = 20.708312 Si / 1000 Ang^3
#
#
#
# Elastic Constant Matrix: (Units=GPa)
#
#
# Indices 1 2 3 4 5 6 
#
# 1 43.5837 14.5419 31.5506 0.0000 -19.5079 0.0000
# 2 14.5419 124.9893 41.4807 0.0000 -15.3992 0.0000
# 3 31.5506 41.4807 114.3740 0.0000 -5.9587 0.0000
# 4 0.0000 0.0000 0.0000 262.5039 0.0000 -0.9012
# 5 -19.5079 -15.3992 -5.9587 0.0000 28.2297 0.0000
# 6 0.0000 0.0000 0.0000 -0.9012 0.0000 42.8092
#
#
#
# Elastic Compliance Matrix: (Units=1/GPa)
#
#
# Indices 1 2 3 4 5 6 
#
# 1 0.043156 0.002236 -0.011222 0.000000 0.028674 0.000000
# 2 0.002236 0.009762 -0.003842 0.000000 0.006059 0.000000
# 3 -0.011222 -0.003842 0.012860 0.000000 -0.007136 0.000000
# 4 0.000000 0.000000 0.000000 0.003810 0.000000 0.000080
# 5 0.028674 0.006059 -0.007136 0.000000 0.057038 0.000000
# 6 0.000000 0.000000 0.000000 0.000080 0.000000 0.023361
#
#
# Mechanical properties :
#
#
# Convention : Reuss Voigt Hill
#
# Bulk Modulus (GPa) = 24.92304 50.89926 37.91115
# Shear Modulus (GPa) = 26.45272 79.73347 53.09309
#
# Velocity S-wave (km/s) = 3.57795 6.21182 5.06894
# Velocity P-wave (km/s) = 5.39725 8.72247 7.25299
#
# Compressibility (1/GPa) = 0.04012352
#
# Stress axis : x y z
#
# Youngs Moduli (GPa) = 23.17163 102.43813 77.75848
#
# Poissons Ratio (x) = -0.22905 0.87260
# Poissons Ratio (y) = -0.05181 0.29871
# Poissons Ratio (z) = 0.26003 0.39352
#
# Static dielectric constant tensor:
#      x y z
#    x 2.544150 0.000000 0.340150 
#    y 0.000000 1.751200 0.000000 
#    z 0.340150 0.000000 1.994720 
# 
# From -- ./inp_files/48750.got.cif
#   From: 2010.05.17/outbox.cif.g08.bks.cpg/sg15_25_cif.got.tgz:48750.got - 2010.06.03 18:47:42.
