data_PCOD9296152
_publ_section_title
;
Structure prediction by ZEFSAII (Michael W. Deem and Ramdas Pophale) SiO2 
 PCOD9296152
Probable space group: C 2/C
;
_chemical_formula_sum "Si O2"
_cell_formula_units_Z 48
_cell_length_a 11.465173
_cell_length_b 10.939640
_cell_length_c 17.798040
_cell_angle_alpha 90.000000
_cell_angle_beta 67.094522
_cell_angle_gamma 90.000000
_cell_volume 2056.294566
_symmetry_space_group_name_H-M "C 2/C"
_symmetry_group_IT_number 15
_symmetry_cell_setting 'monoclinic'
loop_
_space_group_symop_operation_xyz
x,y,z
-x,y,1/2-z
-x,-y,-z
x,-y,1/2+z
1/2+x,1/2+y,z
1/2-x,1/2+y,1/2-z
1/2-x,1/2-y,-z
1/2+x,1/2-y,1/2+z
loop_
_atom_site_type_symbol
_atom_site_label
_atom_site_fract_x
_atom_site_fract_y
_atom_site_fract_z
Si Si1 0.466171 0.474055 0.340988
Si Si2 0.371175 0.814461 0.331581
Si Si3 0.981830 0.193223 0.443113
Si Si4 0.896638 0.750430 0.129658
Si Si5 0.256661 0.798943 0.084946
Si Si6 0.082423 0.416381 0.656256
O O1 0.500000 0.526411 0.250000
O O2 0.508760 0.561066 0.399067
O O3 0.544998 0.349099 0.328306
O O4 0.320395 0.425812 0.387064
O O5 0.500000 0.810132 0.250000
O O6 0.388485 0.743270 0.404109
O O7 0.252928 0.751902 0.319966
O O8 0.349160 0.953797 0.364583
O O9 0.102275 0.284394 0.419644
O O10 0.922975 0.196244 0.540193
O O11 0.981219 0.627997 0.118479
O O12 0.180092 0.691793 0.144493
O O13 0.250000 0.750000 0.000000
O O14 0.000000 0.426658 0.750000
#
# Coordination Sequence:
#
# PCOD9296152 Si02
#       6
#     8   8   8   8   8   8
#     4  11  25  44  70 101 135 180 230 285 341 411
#     4  11  27  43  64 101 138 179 224 279 348 411
#     4  12  25  42  68 102 138 176 226 288 338 411
#     4  11  23  44  69  95 136 178 226 281 340 410
#     4  11  22  42  71  99 127 176 231 276 337 406
#     4  10  23  44  68  94 135 180 222 282 338 408
#
# _framework density 23.342960999999999
#
# number of rings (size 3 to 8) (size 9 to 14) (size 15 to 20)
#    0.000    1.000    3.333    4.500    7.000    2.000 
#    3.000    0.000    0.000    0.000    0.000    0.000 
#    0.000    0.000    0.000    0.000    0.000    0.000 
#
# Total GULP energy -133984.076862 kJ/mol
# GULP energy per Si atom -5582.669869 kJ/mol
# Density = 2.328983 g / cm^3
# Si number density = 23.342961 Si / 1000 Ang^3
#
#
#
# Elastic Constant Matrix: (Units=GPa)
#
#
# Indices 1 2 3 4 5 6 
#
# 1 112.9445 -1.1558 6.5384 0.0000 -11.8668 0.0000
# 2 -1.1558 50.3654 16.0198 0.0000 7.6585 0.0000
# 3 6.5384 16.0198 87.8711 0.0000 1.3233 0.0000
# 4 0.0000 0.0000 0.0000 -54.0832 0.0000 -20.9572
# 5 -11.8668 7.6585 1.3233 0.0000 27.6253 0.0000
# 6 0.0000 0.0000 0.0000 -20.9572 0.0000 16.1424
#
#
#
# Elastic Compliance Matrix: (Units=1/GPa)
#
#
# Indices 1 2 3 4 5 6 
#
# 1 0.009324 -0.000178 -0.000723 0.000000 0.004089 0.000000
# 2 -0.000178 0.022005 -0.003908 0.000000 -0.005989 0.000000
# 3 -0.000723 -0.003908 0.012144 0.000000 0.000191 0.000000
# 4 0.000000 0.000000 0.000000 -0.012301 0.000000 -0.015971
# 5 0.004089 -0.005989 0.000191 0.000000 0.039606 0.000000
# 6 0.000000 0.000000 0.000000 -0.015971 0.000000 0.041214
#
#
# Mechanical properties :
#
#
# Convention : Reuss Voigt Hill
#
# Bulk Modulus (GPa) = 29.53868 32.66508 31.10188
# Shear Modulus (GPa) = 37.62395 13.25547 25.43971
#
# Velocity S-wave (km/s) = 4.01907 2.38556 3.30483
# Velocity P-wave (km/s) = 5.84969 4.64885 5.28350
#
# Compressibility (1/GPa) = 0.03385392
#
# Stress axis : x y z
#
# Youngs Moduli (GPa) = 107.25525 45.44490 82.34699
#
# Poissons Ratio (x) = 0.00808 0.05953
# Poissons Ratio (y) = 0.01908 0.32183
# Poissons Ratio (z) = 0.07754 0.17761
#
# Static dielectric constant tensor:
#      x y z
#    x 1.872500 0.000000 0.010200 
#    y 0.000000 2.065740 0.000000 
#    z 0.010200 0.000000 1.877560 
# 
# From -- ./inp_files/196524.got.cif
#   From: 2010.05.17/outbox.cif.g08.bks.cpg/sg15_99_cif.got.tgz:196524.got - 2010.06.03 18:47:42.
