data_PCOD9296554
_publ_section_title
;
Structure prediction by ZEFSAII (Michael W. Deem and Ramdas Pophale) SiO2 
 PCOD9296554
Probable space group: C 2/C
;
_chemical_formula_sum "Si O2"
_cell_formula_units_Z 64
_cell_length_a 13.991609
_cell_length_b 19.964673
_cell_length_c 14.810901
_cell_angle_alpha 90.000000
_cell_angle_beta 40.874110
_cell_angle_gamma 90.000000
_cell_volume 2707.410457
_symmetry_space_group_name_H-M "C 2/C"
_symmetry_group_IT_number 15
_symmetry_cell_setting 'monoclinic'
loop_
_space_group_symop_operation_xyz
x,y,z
-x,y,1/2-z
-x,-y,-z
x,-y,1/2+z
1/2+x,1/2+y,z
1/2-x,1/2+y,1/2-z
1/2-x,1/2-y,-z
1/2+x,1/2-y,1/2+z
loop_
_atom_site_type_symbol
_atom_site_label
_atom_site_fract_x
_atom_site_fract_y
_atom_site_fract_z
Si Si1 0.937524 0.524262 0.193454
Si Si2 0.294106 0.093752 0.561636
Si Si3 0.693422 0.805197 0.288670
Si Si4 0.805339 0.181373 0.505637
Si Si5 0.380583 0.659066 0.160193
Si Si6 0.894486 0.027080 0.240908
Si Si7 0.864463 0.067073 0.013902
Si Si8 0.552993 0.882626 0.108393
O O1 0.767180 0.532942 0.335298
O O2 0.000000 0.522310 0.250000
O O3 0.986089 0.452094 0.121103
O O4 0.032763 0.582776 0.079355
O O5 0.259885 0.152744 0.656815
O O6 0.231849 0.025108 0.646983
O O7 0.206916 0.095483 0.528140
O O8 0.762800 0.824166 0.142184
O O9 0.712188 0.725763 0.284999
O O10 0.522012 0.824876 0.396886
O O11 0.750000 0.250000 0.500000
O O12 0.724661 0.124108 0.504578
O O13 0.977710 0.177637 0.383078
O O14 0.323916 0.594265 0.252934
O O15 0.419703 0.628942 0.034330
O O16 0.000000 0.040602 0.250000
O O17 0.009117 0.986636 0.095180
O O18 0.500000 0.873106 0.250000
#
# Coordination Sequence:
#
# PCOD9296554 Si02
#       8
#     8   8   8   8   8   8   8   8
#     4   9  20  39  69  95 129 177 233 288 347 410
#     4  10  23  45  68 100 142 182 239 292 355 423
#     4  11  25  41  63 100 135 187 231 290 357 428
#     4  11  24  42  64  94 145 185 229 288 356 444
#     4  12  26  40  69 101 139 185 238 287 364 428
#     4  10  24  41  69 101 141 182 232 300 358 419
#     4  10  23  45  68 102 138 182 236 298 351 422
#     4   9  20  37  62  91 131 175 221 280 351 412
#
# _framework density 23.638826000000002
#
# number of rings (size 3 to 8) (size 9 to 14) (size 15 to 20)
#    0.000    1.750    1.250    1.125   12.250    2.000 
#    0.000    0.000    0.000    4.500    0.000    0.000 
#    0.000    0.000    0.000    0.000    0.000    0.000 
#
# Total GULP energy -178763.003075 kJ/mol
# GULP energy per Si atom -5586.343846 kJ/mol
# Density = 2.358502 g / cm^3
# Si number density = 23.638826 Si / 1000 Ang^3
#
#
#
# Elastic Constant Matrix: (Units=GPa)
#
#
# Indices 1 2 3 4 5 6 
#
# 1 76.7190 50.8576 32.9936 -0.0006 17.9867 0.0007
# 2 50.8576 111.9537 22.2250 -0.0006 23.1926 0.0010
# 3 32.9936 22.2250 83.2730 -0.0002 14.6110 0.0015
# 4 -0.0006 -0.0006 -0.0002 27.1705 0.0004 11.1677
# 5 17.9867 23.1926 14.6110 0.0004 44.4348 -0.0010
# 6 0.0007 0.0010 0.0015 11.1677 -0.0010 32.9763
#
#
#
# Elastic Compliance Matrix: (Units=1/GPa)
#
#
# Indices 1 2 3 4 5 6 
#
# 1 0.021538 -0.008078 -0.005930 0.000000 -0.002552 0.000000
# 2 -0.008078 0.013325 0.000309 0.000000 -0.003787 0.000000
# 3 -0.005930 0.000309 0.014733 0.000000 -0.002605 -0.000001
# 4 0.000000 0.000000 0.000000 0.042756 -0.000001 -0.014480
# 5 -0.002552 -0.003787 -0.002605 -0.000001 0.026371 0.000001
# 6 0.000000 0.000000 -0.000001 -0.014480 0.000001 0.035228
#
#
# Mechanical properties :
#
#
# Convention : Reuss Voigt Hill
#
# Bulk Modulus (GPa) = 45.05037 53.78866 49.41951
# Shear Modulus (GPa) = 26.49006 31.97428 29.23217
#
# Velocity S-wave (km/s) = 3.35119 3.68178 3.52037
# Velocity P-wave (km/s) = 5.83722 6.39358 6.12172
#
# Compressibility (1/GPa) = 0.02219738
#
# Stress axis : x y z
#
# Youngs Moduli (GPa) = 46.42891 75.04572 67.87539
#
# Poissons Ratio (x) = 0.60625 0.40249
# Poissons Ratio (y) = 0.37507 -0.02095
# Poissons Ratio (z) = 0.27532 -0.02317
#
# Static dielectric constant tensor:
#      x y z
#    x 1.919990 0.000000 0.005310 
#    y 0.000000 1.921070 0.000000 
#    z 0.005310 0.000000 1.960960 
# 
# From -- ./inp_files/155492.got.cif
#   From: 2010.05.17/outbox.cif.g08.bks.cpg/sg15_78_cif.got.tgz:155492.got - 2010.06.03 18:47:42.
