data_PCOD9296490
_publ_section_title
;
Structure prediction by ZEFSAII (Michael W. Deem and Ramdas Pophale) SiO2 
 PCOD9296490
Probable space group: C 2/C
;
_chemical_formula_sum "Si O2"
_cell_formula_units_Z 60
_cell_length_a 21.848295
_cell_length_b 9.134220
_cell_length_c 21.613375
_cell_angle_alpha 90.000000
_cell_angle_beta 145.379258
_cell_angle_gamma 90.000000
_cell_volume 2450.576537
_symmetry_space_group_name_H-M "C 2/C"
_symmetry_group_IT_number 15
_symmetry_cell_setting 'monoclinic'
loop_
_space_group_symop_operation_xyz
x,y,z
-x,y,1/2-z
-x,-y,-z
x,-y,1/2+z
1/2+x,1/2+y,z
1/2-x,1/2+y,1/2-z
1/2-x,1/2-y,-z
1/2+x,1/2-y,1/2+z
loop_
_atom_site_type_symbol
_atom_site_label
_atom_site_fract_x
_atom_site_fract_y
_atom_site_fract_z
Si Si1 0.615198 0.266306 0.745188
Si Si2 0.064350 0.078289 0.739367
Si Si3 0.500000 0.058981 0.750000
Si Si4 0.681864 0.846280 0.896070
Si Si5 0.316533 0.623303 0.837394
Si Si6 0.970518 0.328286 0.021807
Si Si7 0.124982 0.893417 0.515971
Si Si8 0.163678 0.420413 0.102485
O O1 0.631744 0.428581 0.786324
O O2 0.563094 0.158535 0.753004
O O3 0.720060 0.197717 0.798139
O O4 0.518858 0.275850 0.614184
O O5 0.979715 0.092764 0.613124
O O6 0.000000 0.057275 0.750000
O O7 0.127019 0.230561 0.803135
O O8 0.590886 0.947031 0.850869
O O9 0.770772 0.944788 0.936228
O O10 0.750000 0.750000 0.000000
O O11 0.412660 0.740140 0.918844
O O12 0.364888 0.482468 0.912039
O O13 0.272279 0.583917 0.733094
O O14 0.879294 0.439161 0.969692
O O15 0.074894 0.411403 0.083769
O O16 0.147647 0.724653 0.550181
#
# Coordination Sequence:
#
# PCOD9296490 Si02
#       8
#     8   8   4   8   8   8   8   8
#     4  11  25  42  68 100 133 184 221 281 343 407
#     4  12  25  45  66  99 143 175 229 279 343 409
#     4  12  24  44  72  96 140 178 224 280 338 400
#     4  12  26  44  67 103 137 179 231 281 338 414
#     4  11  23  45  66 101 135 176 239 280 343 419
#     4  10  23  45  65  96 138 171 231 285 337 413
#     4  12  25  45  70 102 137 183 229 287 347 410
#     4  10  25  42  70  96 132 182 229 288 351 398
#
# _framework density 24.484034000000001
#
# number of rings (size 3 to 8) (size 9 to 14) (size 15 to 20)
#    0.000    0.800    5.333    0.800    5.600    2.667 
#    0.000    2.667    0.000    0.000    0.000    0.000 
#    0.000    0.000    0.000    0.000    0.000    0.000 
#
# Total GULP energy -167781.670061 kJ/mol
# GULP energy per Si atom -5592.722335 kJ/mol
# Density = 2.442831 g / cm^3
# Si number density = 24.484034 Si / 1000 Ang^3
#
#
#
# Elastic Constant Matrix: (Units=GPa)
#
#
# Indices 1 2 3 4 5 6 
#
# 1 67.6146 22.2469 22.7166 0.0000 10.0090 0.0000
# 2 22.2469 71.8249 31.3810 0.0000 3.6317 0.0000
# 3 22.7166 31.3810 143.8020 0.0000 -0.3624 0.0000
# 4 0.0000 0.0000 0.0000 32.7807 0.0000 -6.9083
# 5 10.0090 3.6317 -0.3624 0.0000 33.7355 0.0000
# 6 0.0000 0.0000 0.0000 -6.9083 0.0000 35.8363
#
#
#
# Elastic Compliance Matrix: (Units=1/GPa)
#
#
# Indices 1 2 3 4 5 6 
#
# 1 0.017554 -0.004399 -0.001825 0.000000 -0.004754 0.000000
# 2 -0.004399 0.016590 -0.002927 0.000000 -0.000512 0.000000
# 3 -0.001825 -0.002927 0.007883 0.000000 0.000941 0.000000
# 4 0.000000 0.000000 0.000000 0.031798 0.000000 0.006130
# 5 -0.004754 -0.000512 0.000941 0.000000 0.031118 0.000000
# 6 0.000000 0.000000 0.000000 0.006130 0.000000 0.029086
#
#
# Mechanical properties :
#
#
# Convention : Reuss Voigt Hill
#
# Bulk Modulus (GPa) = 42.14900 48.43673 45.29286
# Shear Modulus (GPa) = 31.20319 34.26363 32.73341
#
# Velocity S-wave (km/s) = 3.57379 3.74495 3.66037
# Velocity P-wave (km/s) = 5.85505 6.20689 6.03353
#
# Compressibility (1/GPa) = 0.02372535
#
# Stress axis : x y z
#
# Youngs Moduli (GPa) = 56.96662 60.27735 126.84988
#
# Poissons Ratio (x) = 0.26519 0.23150
# Poissons Ratio (y) = 0.25062 0.37124
# Poissons Ratio (z) = 0.10396 0.17641
#
# Static dielectric constant tensor:
#      x y z
#    x 1.996700 0.000000 0.049700 
#    y 0.000000 1.977680 0.000000 
#    z 0.049700 0.000000 1.929090 
# 
# From -- ./inp_files/283423.got.cif
#   From: 2010.05.17/outbox.cif.g08.bks.cpg/sg15_142_cif.got.tgz:283423.got - 2010.06.03 18:47:42.
