data_PCOD9296274
_publ_section_title
;
Structure prediction by ZEFSAII (Michael W. Deem and Ramdas Pophale) SiO2 
 PCOD9296274
Probable space group: C 2/C
;
_chemical_formula_sum "Si O2"
_cell_formula_units_Z 40
_cell_length_a 13.774635
_cell_length_b 8.086556
_cell_length_c 25.611502
_cell_angle_alpha 90.000000
_cell_angle_beta 146.279177
_cell_angle_gamma 90.000000
_cell_volume 1583.749704
_symmetry_space_group_name_H-M "C 2/C"
_symmetry_group_IT_number 15
_symmetry_cell_setting 'monoclinic'
loop_
_space_group_symop_operation_xyz
x,y,z
-x,y,1/2-z
-x,-y,-z
x,-y,1/2+z
1/2+x,1/2+y,z
1/2-x,1/2+y,1/2-z
1/2-x,1/2-y,-z
1/2+x,1/2-y,1/2+z
loop_
_atom_site_type_symbol
_atom_site_label
_atom_site_fract_x
_atom_site_fract_y
_atom_site_fract_z
Si Si1 0.738883 0.322884 0.437414
Si Si2 0.140959 0.218752 0.743515
Si Si3 0.456494 0.664030 0.449288
Si Si4 0.692966 0.675794 0.281113
Si Si5 0.809386 0.206897 0.096356
O O1 0.750000 0.250000 0.500000
O O2 0.560345 0.249981 0.332332
O O3 0.896736 0.290331 0.468293
O O4 0.710129 0.517105 0.427824
O O5 0.288770 0.331979 0.836429
O O6 0.158625 0.254461 0.689785
O O7 0.181514 0.024871 0.772795
O O8 0.500000 0.500000 0.500000
O O9 0.635085 0.704637 0.498394
O O10 0.510629 0.754122 0.178169
O O11 0.709563 0.718693 0.348997
#
# Coordination Sequence:
#
# PCOD9296274 Si02
#       5
#     8   8   8   8   8
#     4  11  24  45  72  97 130 181 232 280 345 416
#     4  11  25  42  70  98 137 175 230 283 347 413
#     4  12  27  43  66 103 142 176 231 289 346 413
#     4  10  23  44  70  97 133 178 228 281 348 410
#     4  10  23  46  68  95 134 181 227 279 345 415
#
# _framework density 25.256518
#
# number of rings (size 3 to 8) (size 9 to 14) (size 15 to 20)
#    0.000    1.200    2.000    2.400   11.200    2.400 
#    3.600    0.000    0.000    0.000    0.000    0.000 
#    0.000    0.000    0.000    0.000    0.000    0.000 
#
# Total GULP energy -111978.111028 kJ/mol
# GULP energy per Si atom -5598.905551 kJ/mol
# Density = 2.519903 g / cm^3
# Si number density = 25.256518 Si / 1000 Ang^3
#
#
#
# Elastic Constant Matrix: (Units=GPa)
#
#
# Indices 1 2 3 4 5 6 
#
# 1 78.2903 -8.8469 19.4451 0.0000 9.0614 0.0000
# 2 -8.8469 25.3745 30.0585 0.0000 9.9090 0.0000
# 3 19.4451 30.0585 156.5275 0.0001 17.0768 0.0000
# 4 0.0000 0.0000 0.0001 27.5596 0.0000 -3.0211
# 5 9.0614 9.9090 17.0768 0.0000 65.0535 0.0000
# 6 0.0000 0.0000 0.0000 -3.0211 0.0000 45.6512
#
#
#
# Elastic Compliance Matrix: (Units=1/GPa)
#
#
# Indices 1 2 3 4 5 6 
#
# 1 0.015211 0.010707 -0.003641 0.000000 -0.002794 0.000000
# 2 0.010707 0.060429 -0.012115 0.000000 -0.007516 0.000000
# 3 -0.003641 -0.012115 0.009173 0.000000 -0.000056 0.000000
# 4 0.000000 0.000000 0.000000 0.036550 0.000000 0.002419
# 5 -0.002794 -0.007516 -0.000056 0.000000 0.016921 0.000000
# 6 0.000000 0.000000 0.000000 0.002419 0.000000 0.022065
#
#
# Mechanical properties :
#
#
# Convention : Reuss Voigt Hill
#
# Bulk Modulus (GPa) = 13.38395 37.94508 25.66451
# Shear Modulus (GPa) = 25.59503 42.28856 33.94180
#
# Velocity S-wave (km/s) = 3.18685 4.09634 3.66988
# Velocity P-wave (km/s) = 4.34190 6.11799 5.30480
#
# Compressibility (1/GPa) = 0.07471638
#
# Stress axis : x y z
#
# Youngs Moduli (GPa) = 65.74371 16.54844 109.01057
#
# Poissons Ratio (x) = -0.17719 0.39690
# Poissons Ratio (y) = -0.70394 1.32061
# Poissons Ratio (z) = 0.23937 0.20048
#
# Static dielectric constant tensor:
#      x y z
#    x 2.027730 0.000000 0.008480 
#    y 0.000000 1.922070 0.000000 
#    z 0.008480 0.000000 2.111610 
# 
# From -- ./inp_files/150550.got.cif
#   From: 2010.05.17/outbox.cif.g08.bks.cpg/sg15_76_cif.got.tgz:150550.got - 2010.06.03 18:47:42.
