data_PCOD9297122
_publ_section_title
;
Structure prediction by ZEFSAII (Michael W. Deem and Ramdas Pophale) SiO2 
 PCOD9297122
Probable space group: C 2/C
;
_chemical_formula_sum "Si O2"
_cell_formula_units_Z 40
_cell_length_a 5.113377
_cell_length_b 18.255652
_cell_length_c 17.740014
_cell_angle_alpha 90.000000
_cell_angle_beta 72.274483
_cell_angle_gamma 90.000000
_cell_volume 1577.378627
_symmetry_space_group_name_H-M "C 2/C"
_symmetry_group_IT_number 15
_symmetry_cell_setting 'monoclinic'
loop_
_space_group_symop_operation_xyz
x,y,z
-x,y,1/2-z
-x,-y,-z
x,-y,1/2+z
1/2+x,1/2+y,z
1/2-x,1/2+y,1/2-z
1/2-x,1/2-y,-z
1/2+x,1/2-y,1/2+z
loop_
_atom_site_type_symbol
_atom_site_label
_atom_site_fract_x
_atom_site_fract_y
_atom_site_fract_z
Si Si1 0.390531 0.653975 0.678804
Si Si2 0.942462 0.333635 0.039743
Si Si3 0.271392 0.712310 0.379865
Si Si4 0.843140 0.537559 0.895917
Si Si5 0.596806 0.451075 0.656017
O O1 0.500000 0.633374 0.750000
O O2 0.638411 0.648796 0.595673
O O3 0.297278 0.738063 0.685741
O O4 0.158692 0.599947 0.668820
O O5 0.059614 0.268055 0.081612
O O6 0.124079 0.407679 0.035867
O O7 0.993382 0.307935 0.950373
O O8 0.415347 0.636179 0.351774
O O9 0.582699 0.489870 0.893488
O O10 0.098729 0.483730 0.874465
O O11 0.500000 0.467883 0.750000
#
# Coordination Sequence:
#
# PCOD9297122 Si02
#       5
#     8   8   8   8   8
#     4  11  24  43  77 103 142 187 246 285 354 420
#     4  10  23  48  72 102 143 190 240 288 346 436
#     4  10  26  44  70 108 144 188 232 298 359 411
#     4  11  25  46  71 102 138 192 233 290 347 423
#     4  12  27  44  70 103 148 179 238 297 358 409
#
# _framework density 25.358526999999999
#
# number of rings (size 3 to 8) (size 9 to 14) (size 15 to 20)
#    0.000    1.200    2.000    1.800    8.400    3.200 
#    0.000    0.000    0.000    0.000    0.000    0.000 
#    0.000    0.000    0.000    0.000    0.000    0.000 
#
# Total GULP energy -111962.060341 kJ/mol
# GULP energy per Si atom -5598.103017 kJ/mol
# Density = 2.530081 g / cm^3
# Si number density = 25.358527 Si / 1000 Ang^3
#
#
#
# Elastic Constant Matrix: (Units=GPa)
#
#
# Indices 1 2 3 4 5 6 
#
# 1 126.9282 47.1925 12.6987 0.0000 -5.2182 0.0000
# 2 47.1925 217.7263 16.6292 0.0000 11.0417 0.0000
# 3 12.6987 16.6292 56.1706 0.0000 -1.9402 0.0000
# 4 0.0000 0.0000 0.0000 -24.9473 0.0000 -12.5261
# 5 -5.2182 11.0417 -1.9402 0.0000 27.6807 0.0000
# 6 0.0000 0.0000 0.0000 -12.5261 0.0000 23.3433
#
#
#
# Elastic Compliance Matrix: (Units=1/GPa)
#
#
# Indices 1 2 3 4 5 6 
#
# 1 0.008826 -0.001929 -0.001343 0.000000 0.002339 0.000000
# 2 -0.001929 0.005231 -0.001200 0.000000 -0.002535 0.000000
# 3 -0.001343 -0.001200 0.018515 0.000000 0.001523 0.000000
# 4 0.000000 0.000000 0.000000 -0.031577 0.000000 -0.016944
# 5 0.002339 -0.002535 0.001523 0.000000 0.037685 0.000000
# 6 0.000000 0.000000 0.000000 -0.016944 0.000000 0.033747
#
#
# Mechanical properties :
#
#
# Convention : Reuss Voigt Hill
#
# Bulk Modulus (GPa) = 42.32510 61.54065 51.93288
# Shear Modulus (GPa) = 56.02379 26.83567 41.42973
#
# Velocity S-wave (km/s) = 4.70538 3.25661 4.04636
# Velocity P-wave (km/s) = 6.80057 6.20174 6.50805
#
# Compressibility (1/GPa) = 0.02362664
#
# Stress axis : x y z
#
# Youngs Moduli (GPa) = 113.29768 191.15857 54.01158
#
# Poissons Ratio (x) = 0.36877 0.07256
# Poissons Ratio (y) = 0.21857 0.06482
# Poissons Ratio (z) = 0.15221 0.22941
#
# Static dielectric constant tensor:
#      x y z
#    x 1.735720 0.000000 -0.262640 
#    y 0.000000 1.980880 0.000000 
#    z -0.262640 0.000000 1.858130 
# 
# From -- ./inp_files/226726.got.cif
#   From: 2010.05.17/outbox.cif.g08.bks.cpg/sg15_114_cif.got.tgz:226726.got - 2010.06.03 18:47:42.
