data_PCOD9297311
_publ_section_title
;
Structure prediction by ZEFSAII (Michael W. Deem and Ramdas Pophale) SiO2 
 PCOD9297311
Probable space group: C 2/C
;
_chemical_formula_sum "Si O2"
_cell_formula_units_Z 48
_cell_length_a 10.499643
_cell_length_b 22.380277
_cell_length_c 17.472247
_cell_angle_alpha 90.000000
_cell_angle_beta 146.448051
_cell_angle_gamma 90.000000
_cell_volume 2269.198976
_symmetry_space_group_name_H-M "C 2/C"
_symmetry_group_IT_number 15
_symmetry_cell_setting 'monoclinic'
loop_
_space_group_symop_operation_xyz
x,y,z
-x,y,1/2-z
-x,-y,-z
x,-y,1/2+z
1/2+x,1/2+y,z
1/2-x,1/2+y,1/2-z
1/2-x,1/2-y,-z
1/2+x,1/2-y,1/2+z
loop_
_atom_site_type_symbol
_atom_site_label
_atom_site_fract_x
_atom_site_fract_y
_atom_site_fract_z
Si Si1 0.388769 0.612686 0.364863
Si Si2 0.244102 0.812747 0.838724
Si Si3 0.500000 0.039533 0.250000
Si Si4 0.500000 0.574770 0.750000
Si Si5 0.576330 0.126497 0.615377
Si Si6 0.204381 0.700485 0.908751
Si Si7 0.254851 0.020467 0.482674
O O1 0.247284 0.656710 0.238315
O O2 0.211907 0.580428 0.330770
O O3 0.581854 0.656190 0.495160
O O4 0.532065 0.559963 0.394602
O O5 0.207326 0.742376 0.834130
O O6 0.000000 0.838194 0.750000
O O7 0.467566 0.830092 0.997668
O O8 0.603254 0.001550 0.371970
O O9 0.339484 0.612957 0.727369
O O10 0.335341 0.532810 0.615727
O O11 0.489034 0.155203 0.652129
O O12 0.431502 0.065648 0.531132
O O13 0.250000 0.750000 0.000000
#
# Coordination Sequence:
#
# PCOD9297311 Si02
#       7
#     8   8   4   4   8   8   8
#     4  11  24  42  66  94 132 169 215 270 322 383
#     4  11  20  43  69  92 119 166 226 267 312 386
#     4  12  26  42  61  98 141 170 208 270 336 380
#     4  12  24  40  65 100 135 170 214 272 326 380
#     4  11  23  39  66  97 130 165 217 268 321 382
#     4  10  24  38  69  90 122 163 226 258 320 378
#     4  11  23  41  66  93 133 179 222 250 319 398
#
# _framework density 21.152837999999999
#
# number of rings (size 3 to 8) (size 9 to 14) (size 15 to 20)
#    0.000    1.000    3.333    4.500    9.333    0.000 
#    0.000    1.667    0.000    0.000    0.000    0.000 
#    0.000    0.000    0.000    0.000    0.000    0.000 
#
# Total GULP energy -133778.483458 kJ/mol
# GULP energy per Si atom -5574.103477 kJ/mol
# Density = 2.110469 g / cm^3
# Si number density = 21.152838 Si / 1000 Ang^3
#
#
#
# Elastic Constant Matrix: (Units=GPa)
#
#
# Indices 1 2 3 4 5 6 
#
# 1 56.9023 35.2008 18.4468 -0.0015 36.2072 0.0002
# 2 35.2008 102.7916 35.2380 -0.0029 13.3174 0.0039
# 3 18.4468 35.2380 68.6017 0.0111 0.7008 0.0440
# 4 -0.0015 -0.0029 0.0111 45.7601 0.0036 -29.9750
# 5 36.2072 13.3174 0.7008 0.0036 41.3091 0.0079
# 6 0.0002 0.0039 0.0440 -29.9750 0.0079 -37.5816
#
#
#
# Elastic Compliance Matrix: (Units=1/GPa)
#
#
# Indices 1 2 3 4 5 6 
#
# 1 0.055711 -0.009968 -0.009396 -0.000004 -0.045458 -0.000018
# 2 -0.009968 0.014186 -0.004650 0.000000 0.004242 -0.000003
# 3 -0.009396 -0.004650 0.019396 0.000006 0.009406 0.000019
# 4 -0.000004 0.000000 0.000006 0.014354 0.000005 -0.011449
# 5 -0.045458 0.004242 0.009406 0.000005 0.062524 0.000020
# 6 -0.000018 -0.000003 0.000019 -0.011449 0.000020 -0.017477
#
#
# Mechanical properties :
#
#
# Convention : Reuss Voigt Hill
#
# Bulk Modulus (GPa) = 24.23314 45.11853 34.67583
# Shear Modulus (GPa) = 23.75551 19.19151 21.47351
#
# Velocity S-wave (km/s) = 3.35482 3.01537 3.18961
# Velocity P-wave (km/s) = 5.14660 5.78787 5.47663
#
# Compressibility (1/GPa) = 0.04126581
#
# Stress axis : x y z
#
# Youngs Moduli (GPa) = 17.94964 70.49037 51.55720
#
# Poissons Ratio (x) = 0.70263 0.48444
# Poissons Ratio (y) = 0.17892 0.23974
# Poissons Ratio (z) = 0.16866 0.32778
#
# Static dielectric constant tensor:
#      x y z
#    x 1.812220 0.000000 0.061370 
#    y 0.000000 1.758930 0.000010 
#    z 0.061370 0.000010 2.191140 
# 
# From -- ./inp_files/240475.got.cif
#   From: 2010.05.17/outbox.cif.g08.bks.cpg/sg15_121_cif.got.tgz:240475.got - 2010.06.03 18:47:42.
