data_PCOD9297901
_publ_section_title
;
Structure prediction by ZEFSAII (Michael W. Deem and Ramdas Pophale) SiO2 
 PCOD9297901
Probable space group: C 2/C
;
_chemical_formula_sum "Si O2"
_cell_formula_units_Z 48
_cell_length_a 8.938043
_cell_length_b 13.383721
_cell_length_c 25.555511
_cell_angle_alpha 90.000000
_cell_angle_beta 138.374698
_cell_angle_gamma 90.000000
_cell_volume 2030.671234
_symmetry_space_group_name_H-M "C 2/C"
_symmetry_group_IT_number 15
_symmetry_cell_setting 'monoclinic'
loop_
_space_group_symop_operation_xyz
x,y,z
-x,y,1/2-z
-x,-y,-z
x,-y,1/2+z
1/2+x,1/2+y,z
1/2-x,1/2+y,1/2-z
1/2-x,1/2-y,-z
1/2+x,1/2-y,1/2+z
loop_
_atom_site_type_symbol
_atom_site_label
_atom_site_fract_x
_atom_site_fract_y
_atom_site_fract_z
Si Si1 0.566735 0.139147 0.986161
Si Si2 0.281655 0.576178 0.529696
Si Si3 0.736760 0.106563 0.838536
Si Si4 0.069111 0.785411 0.630528
Si Si5 0.774653 0.821434 0.712541
Si Si6 0.804397 0.574281 0.106060
O O1 0.802885 0.190014 0.062469
O O2 0.646698 0.027213 0.995637
O O3 0.388657 0.149547 0.986321
O O4 0.435150 0.182671 0.902195
O O5 0.522790 0.568810 0.620840
O O6 0.325598 0.601369 0.480982
O O7 0.500000 0.078538 0.750000
O O8 0.756351 0.225669 0.834029
O O9 0.713409 0.043402 0.885925
O O10 0.173379 0.782507 0.715182
O O11 0.199099 0.865457 0.627585
O O12 0.557505 0.890131 0.660698
O O13 0.000000 0.874375 0.750000
#
# Coordination Sequence:
#
# PCOD9297901 Si02
#       6
#     8   8   8   8   8   8
#     4  10  24  42  71 102 148 182 240 305 359 439
#     4  11  24  45  69 107 139 191 240 295 370 434
#     4  11  25  43  72 102 142 188 239 299 361 437
#     4  11  23  43  69 104 140 192 242 300 364 435
#     4  11  26  44  70 104 147 191 244 303 370 431
#     4  12  25  45  75 104 143 192 248 298 366 441
#
# _framework density 23.637502999999999
#
# number of rings (size 3 to 8) (size 9 to 14) (size 15 to 20)
#    0.000    1.000    1.667    4.000    4.667    5.333 
#    0.000    0.000    0.000    0.000    0.000    0.000 
#    0.000    0.000    0.000    0.000    0.000    0.000 
#
# Total GULP energy -134059.909933 kJ/mol
# GULP energy per Si atom -5585.829581 kJ/mol
# Density = 2.358370 g / cm^3
# Si number density = 23.637503 Si / 1000 Ang^3
#
#
#
# Elastic Constant Matrix: (Units=GPa)
#
#
# Indices 1 2 3 4 5 6 
#
# 1 154.4830 45.4288 64.5459 0.0000 19.2957 0.0000
# 2 45.4288 59.5386 31.5729 0.0000 -1.6863 0.0000
# 3 64.5459 31.5729 107.9442 0.0000 25.8832 0.0000
# 4 0.0000 0.0000 0.0000 22.9377 0.0000 12.0620
# 5 19.2957 -1.6863 25.8832 0.0000 42.0288 0.0000
# 6 0.0000 0.0000 0.0000 12.0620 0.0000 12.1361
#
#
#
# Elastic Compliance Matrix: (Units=1/GPa)
#
#
# Indices 1 2 3 4 5 6 
#
# 1 0.010035 -0.005767 -0.003700 0.000000 -0.002560 0.000000
# 2 -0.005767 0.024186 -0.005272 0.000000 0.006865 0.000000
# 3 -0.003700 -0.005272 0.014855 0.000000 -0.007662 0.000000
# 4 0.000000 0.000000 0.000000 0.091329 0.000000 -0.090772
# 5 -0.002560 0.006865 -0.007662 0.000000 0.029962 0.000000
# 6 0.000000 0.000000 0.000000 -0.090772 0.000000 0.172616
#
#
# Mechanical properties :
#
#
# Convention : Reuss Voigt Hill
#
# Bulk Modulus (GPa) = 51.02294 67.22903 59.12598
# Shear Modulus (GPa) = 13.19279 27.44838 20.32058
#
# Velocity S-wave (km/s) = 2.36504 3.41137 2.93520
# Velocity P-wave (km/s) = 5.39355 6.63476 6.04609
#
# Compressibility (1/GPa) = 0.01959903
#
# Stress axis : x y z
#
# Youngs Moduli (GPa) = 99.65424 41.34552 67.31592
#
# Poissons Ratio (x) = 0.23845 0.24904
# Poissons Ratio (y) = 0.57473 0.35488
# Poissons Ratio (z) = 0.36868 0.21797
#
# Static dielectric constant tensor:
#      x y z
#    x 1.906850 0.000000 -0.013310 
#    y 0.000000 1.947450 0.000000 
#    z -0.013310 0.000000 1.879940 
# 
# From -- ./inp_files/289102.got.cif
#   From: 2010.05.17/outbox.cif.g08.bks.cpg/sg15_145_cif.got.tgz:289102.got - 2010.06.03 18:47:42.
