data_PCOD9297238
_publ_section_title
;
Structure prediction by ZEFSAII (Michael W. Deem and Ramdas Pophale) SiO2 
 PCOD9297238
Probable space group: C 2/C
;
_chemical_formula_sum "Si O2"
_cell_formula_units_Z 64
_cell_length_a 17.903658
_cell_length_b 10.778459
_cell_length_c 15.491155
_cell_angle_alpha 90.000000
_cell_angle_beta 87.838074
_cell_angle_gamma 90.000000
_cell_volume 2987.259893
_symmetry_space_group_name_H-M "C 2/C"
_symmetry_group_IT_number 15
_symmetry_cell_setting 'monoclinic'
loop_
_space_group_symop_operation_xyz
x,y,z
-x,y,1/2-z
-x,-y,-z
x,-y,1/2+z
1/2+x,1/2+y,z
1/2-x,1/2+y,1/2-z
1/2-x,1/2-y,-z
1/2+x,1/2-y,1/2+z
loop_
_atom_site_type_symbol
_atom_site_label
_atom_site_fract_x
_atom_site_fract_y
_atom_site_fract_z
Si Si1 0.325230 0.728810 0.588844
Si Si2 0.735177 0.956627 0.005826
Si Si3 0.822272 0.511655 0.311182
Si Si4 0.566162 0.151595 0.302464
Si Si5 0.465612 0.085329 0.575710
Si Si6 0.796694 0.685896 0.577322
Si Si7 0.071151 0.275833 0.184776
Si Si8 0.210796 0.168984 0.238599
O O1 0.311620 0.836905 0.520039
O O2 0.310088 0.599037 0.543748
O O3 0.403537 0.754061 0.628788
O O4 0.262358 0.759057 0.665230
O O5 0.692930 0.019884 0.087105
O O6 0.739092 0.048185 0.925740
O O7 0.870776 0.622061 0.270560
O O8 0.872345 0.389864 0.295524
O O9 0.745468 0.535331 0.263152
O O10 0.500000 0.202960 0.250000
O O11 0.546913 0.018939 0.348265
O O12 0.386050 0.153685 0.561801
O O13 0.529332 0.184439 0.599232
O O14 0.500000 0.000000 0.500000
O O15 0.750000 0.750000 0.500000
O O16 0.790251 0.758877 0.668231
O O17 0.128762 0.164398 0.198768
O O18 0.000000 0.265682 0.250000
#
# Coordination Sequence:
#
# PCOD9297238 Si02
#       8
#     8   8   8   8   8   8   8   8
#     4  10  24  37  60  88 127 173 214 261 319 394
#     4  11  22  38  59  89 131 161 218 262 318 385
#     4  11  20  38  59  92 130 162 208 266 323 384
#     4  11  21  35  58  92 125 162 211 268 326 372
#     4  12  24  35  63  92 134 164 206 281 331 377
#     4  12  24  40  60  96 131 167 212 274 336 394
#     4  12  21  40  62  95 130 160 217 273 326 387
#     4  11  24  37  62  92 130 172 206 264 333 396
#
# _framework density 21.424316000000001
#
# number of rings (size 3 to 8) (size 9 to 14) (size 15 to 20)
#    0.000    0.750    7.500    0.750    1.750    0.000 
#    0.000    0.000    0.000    2.250    0.000    7.875 
#    0.000    0.000    0.000    0.000    0.000    0.000 
#
# Total GULP energy -178347.675882 kJ/mol
# GULP energy per Si atom -5573.364871 kJ/mol
# Density = 2.137555 g / cm^3
# Si number density = 21.424316 Si / 1000 Ang^3
#
#
#
# Elastic Constant Matrix: (Units=GPa)
#
#
# Indices 1 2 3 4 5 6 
#
# 1 133.8785 32.0443 42.1723 0.0000 38.8717 0.0000
# 2 32.0443 34.5545 16.9902 0.0000 7.4220 0.0000
# 3 42.1723 16.9902 122.9994 0.0000 9.2375 0.0000
# 4 0.0000 0.0000 0.0000 25.6822 0.0000 9.1947
# 5 38.8717 7.4220 9.2375 0.0000 45.0639 0.0000
# 6 0.0000 0.0000 0.0000 9.1947 0.0000 38.7674
#
#
#
# Elastic Compliance Matrix: (Units=1/GPa)
#
#
# Indices 1 2 3 4 5 6 
#
# 1 0.013114 -0.008897 -0.002567 0.000000 -0.009320 0.000000
# 2 -0.008897 0.037928 -0.002332 0.000000 0.001906 0.000000
# 3 -0.002567 -0.002332 0.009280 0.000000 0.000696 0.000000
# 4 0.000000 0.000000 0.000000 0.042551 0.000000 -0.010092
# 5 -0.009320 0.001906 0.000696 0.000000 0.029774 0.000000
# 6 0.000000 0.000000 0.000000 -0.010092 0.000000 0.028189
#
#
# Mechanical properties :
#
#
# Convention : Reuss Voigt Hill
#
# Bulk Modulus (GPa) = 30.55336 52.64953 41.60145
# Shear Modulus (GPa) = 25.08326 35.25107 30.16716
#
# Velocity S-wave (km/s) = 3.42538 4.06072 3.75651
# Velocity P-wave (km/s) = 5.47141 6.82744 6.18669
#
# Compressibility (1/GPa) = 0.03272963
#
# Stress axis : x y z
#
# Youngs Moduli (GPa) = 76.25536 26.36606 107.75666
#
# Poissons Ratio (x) = 0.23458 0.27665
# Poissons Ratio (y) = 0.67844 0.25126
# Poissons Ratio (z) = 0.19578 0.06148
#
# Static dielectric constant tensor:
#      x y z
#    x 1.896390 0.000000 0.019920 
#    y 0.000000 1.865850 0.000000 
#    z 0.019920 0.000000 1.847070 
# 
# From -- ./inp_files/161351.got.cif
#   From: 2010.05.17/outbox.cif.g08.bks.cpg/sg15_81_cif.got.tgz:161351.got - 2010.06.03 18:47:42.
