data_PCOD9297376
_publ_section_title
;
Structure prediction by ZEFSAII (Michael W. Deem and Ramdas Pophale) SiO2 
 PCOD9297376
Probable space group: C 2/C
;
_chemical_formula_sum "Si O2"
_cell_formula_units_Z 56
_cell_length_a 14.373240
_cell_length_b 20.872004
_cell_length_c 9.306840
_cell_angle_alpha 90.000000
_cell_angle_beta 80.366476
_cell_angle_gamma 90.000000
_cell_volume 2752.663906
_symmetry_space_group_name_H-M "C 2/C"
_symmetry_group_IT_number 15
_symmetry_cell_setting 'monoclinic'
loop_
_space_group_symop_operation_xyz
x,y,z
-x,y,1/2-z
-x,-y,-z
x,-y,1/2+z
1/2+x,1/2+y,z
1/2-x,1/2+y,1/2-z
1/2-x,1/2-y,-z
1/2+x,1/2-y,1/2+z
loop_
_atom_site_type_symbol
_atom_site_label
_atom_site_fract_x
_atom_site_fract_y
_atom_site_fract_z
Si Si1 0.712514 0.590981 0.358189
Si Si2 0.000000 0.282966 0.250000
Si Si3 0.373558 0.416323 0.111763
Si Si4 0.500000 0.746769 0.750000
Si Si5 0.035144 0.175258 0.479850
Si Si6 0.703710 0.170135 0.642587
Si Si7 0.686686 0.795616 0.815083
Si Si8 0.669571 0.509531 0.621908
O O1 0.608408 0.623167 0.401391
O O2 0.778042 0.650870 0.304279
O O3 0.733177 0.554537 0.502448
O O4 0.713648 0.540541 0.225217
O O5 0.981262 0.233276 0.124884
O O6 0.906238 0.325240 0.291629
O O7 0.564054 0.357600 0.456333
O O8 0.264859 0.393232 0.153261
O O9 0.394465 0.445687 0.261367
O O10 0.384359 0.468603 0.984249
O O11 0.563802 0.704969 0.625315
O O12 0.575611 0.785586 0.822401
O O13 0.709553 0.181384 0.470005
O O14 0.755938 0.228987 0.709939
#
# Coordination Sequence:
#
# PCOD9297376 Si02
#       8
#     8   4   8   4   8   8   8   8
#     4  11  23  40  62  91 128 168 215 260 315 380
#     4  12  22  38  66  98 124 170 210 250 332 402
#     4  11  22  42  64  90 131 170 216 263 314 378
#     4  12  24  38  62 102 136 162 208 272 328 372
#     4  12  23  36  61  96 133 168 206 258 319 398
#     4  11  21  42  66  93 127 175 205 263 333 385
#     4  11  22  41  66  93 132 169 206 270 330 375
#     4  10  24  40  62  90 123 178 217 258 310 377
#
# _framework density 20.343928999999999
#
# number of rings (size 3 to 8) (size 9 to 14) (size 15 to 20)
#    0.000    0.857    5.714    2.571    0.000    5.143 
#    0.000    0.000    0.000    5.143    0.000    0.000 
#    0.000    0.000    0.000    0.000    0.000    0.000 
#
# Total GULP energy -156337.617444 kJ/mol
# GULP energy per Si atom -5583.486337 kJ/mol
# Density = 2.029763 g / cm^3
# Si number density = 20.343929 Si / 1000 Ang^3
#
#
#
# Elastic Constant Matrix: (Units=GPa)
#
#
# Indices 1 2 3 4 5 6 
#
# 1 93.1971 38.2741 17.4066 0.0000 -10.5390 0.0000
# 2 38.2741 65.7851 37.7072 0.0000 -5.3357 0.0000
# 3 17.4066 37.7072 118.8609 0.0000 -2.6051 0.0000
# 4 0.0000 0.0000 0.0000 44.5332 0.0000 -18.6662
# 5 -10.5390 -5.3357 -2.6051 0.0000 23.8947 0.0000
# 6 0.0000 0.0000 0.0000 -18.6662 0.0000 -2.2105
#
#
#
# Elastic Compliance Matrix: (Units=1/GPa)
#
#
# Indices 1 2 3 4 5 6 
#
# 1 0.014625 -0.008512 0.000660 0.000000 0.004622 0.000000
# 2 -0.008512 0.023833 -0.006295 0.000000 0.000881 0.000000
# 3 0.000660 -0.006295 0.010314 0.000000 0.000010 0.000000
# 4 0.000000 0.000000 0.000000 0.004947 0.000000 -0.041771
# 5 0.004622 0.000881 0.000010 0.000000 0.044087 0.000000
# 6 0.000000 0.000000 0.000000 -0.041771 0.000000 -0.099657
#
#
# Mechanical properties :
#
#
# Convention : Reuss Voigt Hill
#
# Bulk Modulus (GPa) = 48.83420 51.62431 50.22925
# Shear Modulus (GPa) = 150.29091 25.54049 87.91570
#
# Velocity S-wave (km/s) = 8.60439 3.54706 6.58092
# Velocity P-wave (km/s) = 11.08018 6.49664 9.08231
#
# Compressibility (1/GPa) = 0.02047745
#
# Stress axis : x y z
#
# Youngs Moduli (GPa) = 68.37514 41.95831 96.95807
#
# Poissons Ratio (x) = 0.35717 -0.06399
# Poissons Ratio (y) = 0.58204 0.61034
# Poissons Ratio (z) = -0.04513 0.26412
#
# Static dielectric constant tensor:
#      x y z
#    x 1.695020 0.000000 -0.007910 
#    y 0.000000 1.762110 0.000000 
#    z -0.007910 0.000000 1.742690 
# 
# From -- ./inp_files/41305.got.cif
#   From: 2010.05.17/outbox.cif.g08.bks.cpg/sg15_21_cif.got.tgz:41305.got - 2010.06.03 18:47:42.
