data_PCOD9297874
_publ_section_title
;
Structure prediction by ZEFSAII (Michael W. Deem and Ramdas Pophale) SiO2 
 PCOD9297874
Probable space group: C 2/C
;
_chemical_formula_sum "Si O2"
_cell_formula_units_Z 52
_cell_length_a 17.615621
_cell_length_b 13.052139
_cell_length_c 18.666352
_cell_angle_alpha 90.000000
_cell_angle_beta 31.262655
_cell_angle_gamma 90.000000
_cell_volume 2227.279488
_symmetry_space_group_name_H-M "C 2/C"
_symmetry_group_IT_number 15
_symmetry_cell_setting 'monoclinic'
loop_
_space_group_symop_operation_xyz
x,y,z
-x,y,1/2-z
-x,-y,-z
x,-y,1/2+z
1/2+x,1/2+y,z
1/2-x,1/2+y,1/2-z
1/2-x,1/2-y,-z
1/2+x,1/2-y,1/2+z
loop_
_atom_site_type_symbol
_atom_site_label
_atom_site_fract_x
_atom_site_fract_y
_atom_site_fract_z
Si Si1 0.141988 0.802344 0.531510
Si Si2 0.371718 0.913609 0.094066
Si Si3 0.000000 0.624763 0.250000
Si Si4 0.163573 0.250046 0.255997
Si Si5 0.787973 0.031950 0.050958
Si Si6 0.380398 0.753596 0.955378
Si Si7 0.155833 0.963601 0.841734
O O1 0.250000 0.750000 0.500000
O O2 0.197161 0.769445 0.406956
O O3 0.978544 0.766448 0.677810
O O4 0.145589 0.925948 0.529092
O O5 0.372846 0.842586 0.162682
O O6 0.216680 0.971325 0.226602
O O7 0.367903 0.835371 0.029892
O O8 0.500000 0.000000 0.000000
O O9 0.141072 0.555446 0.125580
O O10 0.980506 0.701697 0.199332
O O11 0.168175 0.151296 0.303587
O O12 0.742451 0.021826 0.170703
O O13 0.886994 0.134565 0.970891
O O14 0.250000 0.750000 0.000000
O O15 0.000000 0.000000 0.000000
#
# Coordination Sequence:
#
# PCOD9297874 Si02
#       7
#     8   8   4   8   8   8   8
#     4  12  28  47  71 106 152 195 249 311 380 461
#     4  12  25  43  77 109 144 195 256 315 374 462
#     4  10  24  42  70 100 146 190 252 308 380 466
#     4  12  25  47  70 107 141 195 249 303 381 451
#     4  11  23  45  70 101 145 198 242 314 381 445
#     4  10  24  44  67 107 142 187 246 307 382 451
#     4  12  24  44  70 106 144 187 248 313 377 443
#
# _framework density 23.346867
#
# number of rings (size 3 to 8) (size 9 to 14) (size 15 to 20)
#    0.000    0.615    4.615    2.308    2.154    6.154 
#    2.769    0.000    0.000    0.000    0.000    0.000 
#    0.000    0.000    0.000    0.000    0.000    0.000 
#
# Total GULP energy -145150.559021 kJ/mol
# GULP energy per Si atom -5582.713809 kJ/mol
# Density = 2.329373 g / cm^3
# Si number density = 23.346867 Si / 1000 Ang^3
#
#
#
# Elastic Constant Matrix: (Units=GPa)
#
#
# Indices 1 2 3 4 5 6 
#
# 1 64.6910 28.8995 -3.4417 -0.0001 8.3981 0.0000
# 2 28.8995 181.3916 50.1573 -0.0001 10.3029 0.0000
# 3 -3.4417 50.1573 100.2453 -0.0002 7.2790 0.0001
# 4 -0.0001 -0.0001 -0.0002 32.1076 0.0001 5.5202
# 5 8.3981 10.3029 7.2790 0.0001 36.8471 -0.0001
# 6 0.0000 0.0000 0.0001 5.5202 -0.0001 45.3839
#
#
#
# Elastic Compliance Matrix: (Units=1/GPa)
#
#
# Indices 1 2 3 4 5 6 
#
# 1 0.017520 -0.003280 0.002502 0.000000 -0.003570 0.000000
# 2 -0.003280 0.007063 -0.003609 0.000000 -0.000514 0.000000
# 3 0.002502 -0.003609 0.012008 0.000000 -0.001933 0.000000
# 4 0.000000 0.000000 0.000000 0.031811 0.000000 -0.003869
# 5 -0.003570 -0.000514 -0.001933 0.000000 0.028479 0.000000
# 6 0.000000 0.000000 0.000000 -0.003869 0.000000 0.022505
#
#
# Mechanical properties :
#
#
# Convention : Reuss Voigt Hill
#
# Bulk Modulus (GPa) = 35.95094 55.28423 45.61758
# Shear Modulus (GPa) = 36.38185 40.91524 38.64855
#
# Velocity S-wave (km/s) = 3.95184 4.19082 4.07308
# Velocity P-wave (km/s) = 6.02119 6.86646 6.45767
#
# Compressibility (1/GPa) = 0.02781569
#
# Stress axis : x y z
#
# Youngs Moduli (GPa) = 57.07708 141.58802 83.28060
#
# Poissons Ratio (x) = 0.46447 -0.20838
# Poissons Ratio (y) = 0.18724 0.30057
# Poissons Ratio (z) = -0.14281 0.51101
#
# Static dielectric constant tensor:
#      x y z
#    x 1.857550 0.000000 -0.016340 
#    y 0.000000 2.006990 0.000000 
#    z -0.016340 0.000000 1.907350 
# 
# From -- ./inp_files/252707.got.cif
#   From: 2010.05.17/outbox.cif.g08.bks.cpg/sg15_127_cif.got.tgz:252707.got - 2010.06.03 18:47:42.
