data_PCOD9297918
_publ_section_title
;
Structure prediction by ZEFSAII (Michael W. Deem and Ramdas Pophale) SiO2 
 PCOD9297918
Probable space group: C 2/C
;
_chemical_formula_sum "Si O2"
_cell_formula_units_Z 40
_cell_length_a 16.732875
_cell_length_b 10.265633
_cell_length_c 9.177777
_cell_angle_alpha 90.000000
_cell_angle_beta 103.375573
_cell_angle_gamma 90.000000
_cell_volume 1533.736181
_symmetry_space_group_name_H-M "C 2/C"
_symmetry_group_IT_number 15
_symmetry_cell_setting 'monoclinic'
loop_
_space_group_symop_operation_xyz
x,y,z
-x,y,1/2-z
-x,-y,-z
x,-y,1/2+z
1/2+x,1/2+y,z
1/2-x,1/2+y,1/2-z
1/2-x,1/2-y,-z
1/2+x,1/2-y,1/2+z
loop_
_atom_site_type_symbol
_atom_site_label
_atom_site_fract_x
_atom_site_fract_y
_atom_site_fract_z
Si Si1 0.852286 0.208615 0.027345
Si Si2 0.244230 0.454404 0.002791
Si Si3 0.723498 0.247810 0.733046
Si Si4 0.443537 0.915304 0.583372
Si Si5 0.009380 0.859201 0.426154
O O1 0.790327 0.276813 0.887586
O O2 0.935552 0.213239 0.976295
O O3 0.855750 0.256276 0.195698
O O4 0.814520 0.063040 0.023646
O O5 0.245819 0.385502 0.161465
O O6 0.268941 0.356171 0.884924
O O7 0.146691 0.479776 0.937657
O O8 0.500000 0.908182 0.750000
O O9 0.424857 0.761101 0.537791
O O10 0.500000 0.000000 0.500000
O O11 0.000000 0.885592 0.250000
O O12 0.000000 0.000000 0.500000
#
# Coordination Sequence:
#
# PCOD9297918 Si02
#       5
#     8   8   8   8   8
#     4  11  25  43  74 105 144 195 245 306 365 452
#     4  11  25  43  74 105 144 195 245 306 365 452
#     4  10  24  42  72 100 146 180 252 290 378 424
#     4  11  28  48  73 105 151 192 248 307 378 442
#     4  11  28  48  73 105 151 192 248 307 378 442
#
# _framework density 26.080106000000001
#
# number of rings (size 3 to 8) (size 9 to 14) (size 15 to 20)
#    0.000    1.200    0.000    3.600   22.400    0.800 
#    0.000    0.000    0.000    0.000    0.000    0.000 
#    0.000    0.000    0.000    0.000    0.000    0.000 
#
# Total GULP energy -111756.532613 kJ/mol
# GULP energy per Si atom -5587.826631 kJ/mol
# Density = 2.602075 g / cm^3
# Si number density = 26.080106 Si / 1000 Ang^3
#
#
#
# Elastic Constant Matrix: (Units=GPa)
#
#
# Indices 1 2 3 4 5 6 
#
# 1 90.4918 2.9522 38.7676 0.0000 -26.7285 0.0000
# 2 2.9522 136.8038 48.2038 0.0000 -10.6327 0.0000
# 3 38.7676 48.2038 196.4836 0.0000 -38.7856 0.0000
# 4 0.0000 0.0000 0.0000 5.5842 0.0000 -31.7579
# 5 -26.7285 -10.6327 -38.7856 0.0000 46.4428 0.0000
# 6 0.0000 0.0000 0.0000 -31.7579 0.0000 35.2916
#
#
#
# Elastic Compliance Matrix: (Units=1/GPa)
#
#
# Indices 1 2 3 4 5 6 
#
# 1 0.013688 0.000779 -0.001558 0.000000 0.006754 0.000000
# 2 0.000779 0.008048 -0.002007 0.000000 0.000615 0.000000
# 3 -0.001558 -0.002007 0.006731 0.000000 0.004265 0.000000
# 4 0.000000 0.000000 0.000000 -0.043490 0.000000 -0.039135
# 5 0.006754 0.000615 0.004265 0.000000 0.029122 0.000000
# 6 0.000000 0.000000 0.000000 -0.039135 0.000000 -0.006881
#
#
# Mechanical properties :
#
#
# Convention : Reuss Voigt Hill
#
# Bulk Modulus (GPa) = 43.67921 67.06960 55.37440
# Shear Modulus (GPa) = 244.84082 39.72075 142.28079
#
# Velocity S-wave (km/s) = 9.69970 3.90683 7.39417
# Velocity P-wave (km/s) = 11.92602 6.79145 9.70447
#
# Compressibility (1/GPa) = 0.02289419
#
# Stress axis : x y z
#
# Youngs Moduli (GPa) = 73.05642 124.25779 148.56195
#
# Poissons Ratio (x) = -0.09676 0.23153
# Poissons Ratio (y) = -0.05689 0.29811
# Poissons Ratio (z) = 0.11386 0.24934
#
# Static dielectric constant tensor:
#      x y z
#    x 2.176110 0.000000 0.022610 
#    y 0.000000 2.246260 0.000000 
#    z 0.022610 0.000000 1.990420 
# 
# From -- ./inp_files/46169.got.cif
#   From: 2010.05.17/outbox.cif.g08.bks.cpg/sg15_24_cif.got.tgz:46169.got - 2010.06.03 18:47:42.
