data_PCOD9297123
_publ_section_title
;
Structure prediction by ZEFSAII (Michael W. Deem and Ramdas Pophale) SiO2 
 PCOD9297123
Probable space group: C 2/C
;
_chemical_formula_sum "Si O2"
_cell_formula_units_Z 40
_cell_length_a 21.762764
_cell_length_b 4.820410
_cell_length_c 17.960571
_cell_angle_alpha 90.000000
_cell_angle_beta 122.765319
_cell_angle_gamma 90.000000
_cell_volume 1584.380915
_symmetry_space_group_name_H-M "C 2/C"
_symmetry_group_IT_number 15
_symmetry_cell_setting 'monoclinic'
loop_
_space_group_symop_operation_xyz
x,y,z
-x,y,1/2-z
-x,-y,-z
x,-y,1/2+z
1/2+x,1/2+y,z
1/2-x,1/2+y,1/2-z
1/2-x,1/2-y,-z
1/2+x,1/2-y,1/2+z
loop_
_atom_site_type_symbol
_atom_site_label
_atom_site_fract_x
_atom_site_fract_y
_atom_site_fract_z
Si Si1 0.394190 0.318608 0.798778
Si Si2 0.797525 0.037236 0.617265
Si Si3 0.072652 0.560243 0.311246
Si Si4 0.145224 0.330950 0.484325
Si Si5 0.069027 0.327086 0.578499
O O1 0.434278 0.187611 0.752738
O O2 0.436180 0.573341 0.866140
O O3 0.318008 0.405811 0.710363
O O4 0.386207 0.068234 0.850750
O O5 0.827071 0.869874 0.563663
O O6 0.711411 0.037171 0.548584
O O7 0.848241 0.307033 0.652073
O O8 0.078552 0.486609 0.401201
O O9 0.000000 0.736366 0.250000
O O10 0.114186 0.201491 0.538767
O O11 0.000000 0.500000 0.500000
#
# Coordination Sequence:
#
# PCOD9297123 Si02
#       5
#     8   8   8   8   8
#     4  11  25  47  69 104 147 193 242 298 371 444
#     4  10  23  48  72 105 146 192 251 299 366 449
#     4  11  23  44  75 107 147 196 249 306 370 447
#     4  10  25  43  74 108 143 196 243 309 367 443
#     4  12  26  46  72 108 150 188 243 307 377 439
#
# _framework density 25.246455999999998
#
# number of rings (size 3 to 8) (size 9 to 14) (size 15 to 20)
#    0.000    1.200    2.000    2.400    2.800    6.400 
#    0.000    0.000    0.000    0.000    0.000    0.000 
#    0.000    0.000    0.000    0.000    0.000    0.000 
#
# Total GULP energy -111660.553373 kJ/mol
# GULP energy per Si atom -5583.027669 kJ/mol
# Density = 2.518899 g / cm^3
# Si number density = 25.246456 Si / 1000 Ang^3
#
#
#
# Elastic Constant Matrix: (Units=GPa)
#
#
# Indices 1 2 3 4 5 6 
#
# 1 81.5476 23.5625 62.1334 -0.0005 -15.5889 0.0006
# 2 23.5625 123.1705 60.5064 0.0002 -6.9803 0.0031
# 3 62.1334 60.5064 203.1023 0.0001 -0.6698 0.0005
# 4 -0.0005 0.0002 0.0001 49.0101 0.0004 -7.6185
# 5 -15.5889 -6.9803 -0.6698 0.0004 44.1246 -0.0003
# 6 0.0006 0.0031 0.0005 -7.6185 -0.0003 16.9272
#
#
#
# Elastic Compliance Matrix: (Units=1/GPa)
#
#
# Indices 1 2 3 4 5 6 
#
# 1 0.017511 -0.000452 -0.005202 0.000000 0.006036 0.000000
# 2 -0.000452 0.009618 -0.002722 0.000000 0.001320 -0.000002
# 3 -0.005202 -0.002722 0.007319 0.000000 -0.002158 0.000000
# 4 0.000000 0.000000 0.000000 0.021939 0.000000 0.009874
# 5 0.006036 0.001320 -0.002158 0.000000 0.024972 0.000000
# 6 0.000000 -0.000002 0.000000 0.009874 0.000000 0.063520
#
#
# Mechanical properties :
#
#
# Convention : Reuss Voigt Hill
#
# Bulk Modulus (GPa) = 56.51740 77.80275 67.16008
# Shear Modulus (GPa) = 29.84522 39.45359 34.64940
#
# Velocity S-wave (km/s) = 3.44198 3.95744 3.70867
# Velocity P-wave (km/s) = 6.18313 7.19485 6.70810
#
# Compressibility (1/GPa) = 0.01769367
#
# Stress axis : x y z
#
# Youngs Moduli (GPa) = 57.10639 103.97653 136.62859
#
# Poissons Ratio (x) = 0.04701 0.71080
# Poissons Ratio (y) = 0.02582 0.37197
# Poissons Ratio (z) = 0.29709 0.28308
#
# Static dielectric constant tensor:
#      x y z
#    x 2.035330 0.000000 0.019590 
#    y 0.000000 2.115530 0.000000 
#    z 0.019590 0.000000 1.989190 
# 
# From -- ./inp_files/256653.got.cif
#   From: 2010.05.17/outbox.cif.g08.bks.cpg/sg15_129_cif.got.tgz:256653.got - 2010.06.03 18:47:42.
