data_PCOD9297673
_publ_section_title
;
Structure prediction by ZEFSAII (Michael W. Deem and Ramdas Pophale) SiO2 
 PCOD9297673
Probable space group: C 2/C
;
_chemical_formula_sum "Si O2"
_cell_formula_units_Z 52
_cell_length_a 8.310471
_cell_length_b 22.821188
_cell_length_c 24.216474
_cell_angle_alpha 90.000000
_cell_angle_beta 145.790423
_cell_angle_gamma 90.000000
_cell_volume 2582.155161
_symmetry_space_group_name_H-M "C 2/C"
_symmetry_group_IT_number 15
_symmetry_cell_setting 'monoclinic'
loop_
_space_group_symop_operation_xyz
x,y,z
-x,y,1/2-z
-x,-y,-z
x,-y,1/2+z
1/2+x,1/2+y,z
1/2-x,1/2+y,1/2-z
1/2-x,1/2-y,-z
1/2+x,1/2-y,1/2+z
loop_
_atom_site_type_symbol
_atom_site_label
_atom_site_fract_x
_atom_site_fract_y
_atom_site_fract_z
Si Si1 0.173096 0.650098 0.653876
Si Si2 0.634796 0.951577 0.209222
Si Si3 0.737598 0.400751 0.943981
Si Si4 0.000000 0.736021 0.250000
Si Si5 0.697872 0.336054 0.754815
Si Si6 0.462754 0.946986 0.893508
Si Si7 0.452697 0.514992 0.903537
O O1 0.500000 0.626228 0.750000
O O2 0.229013 0.719305 0.668969
O O3 0.053168 0.615472 0.672738
O O4 0.983016 0.629815 0.549096
O O5 0.353385 0.981317 0.155202
O O6 0.891312 0.958866 0.325171
O O7 0.667314 0.991785 0.164428
O O8 0.519890 0.354908 0.855228
O O9 0.565334 0.448928 0.929812
O O10 0.868075 0.434807 0.928965
O O11 0.936008 0.701039 0.288616
O O12 0.500000 0.311513 0.750000
O O13 0.842441 0.394526 0.821563
O O14 0.805355 0.950661 0.994274
#
# Coordination Sequence:
#
# PCOD9297673 Si02
#       7
#     8   8   8   4   8   8   8
#     4  10  24  42  63  90 125 174 212 266 332 381
#     4  11  23  37  61  96 136 162 215 256 328 403
#     4  11  22  38  66  93 130 166 215 260 333 393
#     4  10  26  48  70  86 134 178 224 280 318 380
#     4  10  24  44  69  98 125 172 233 271 318 388
#     4  11  22  37  64  98 131 166 203 276 323 391
#     4  11  23  36  59 102 132 173 199 263 335 397
#
# _framework density 20.138217000000001
#
# number of rings (size 3 to 8) (size 9 to 14) (size 15 to 20)
#    0.462    0.923    3.077    1.846    4.308    0.615 
#    2.769    3.077    0.000    0.000    0.000    0.000 
#    0.000    0.000    0.000    0.000    0.000    0.000 
#
# Total GULP energy -144914.635942 kJ/mol
# GULP energy per Si atom -5573.639844 kJ/mol
# Density = 2.009238 g / cm^3
# Si number density = 20.138217 Si / 1000 Ang^3
#
#
#
# Elastic Constant Matrix: (Units=GPa)
#
#
# Indices 1 2 3 4 5 6 
#
# 1 56.6060 37.6119 16.0755 0.0024 0.8175 -0.0034
# 2 37.6119 78.8350 24.9754 0.0006 -1.8056 -0.0008
# 3 16.0755 24.9754 141.9787 0.0052 -14.9356 -0.0040
# 4 0.0024 0.0006 0.0052 22.1468 0.0024 6.5629
# 5 0.8175 -1.8056 -14.9356 0.0024 24.6356 -0.0022
# 6 -0.0034 -0.0008 -0.0040 6.5629 -0.0022 33.5114
#
#
#
# Elastic Compliance Matrix: (Units=1/GPa)
#
#
# Indices 1 2 3 4 5 6 
#
# 1 0.026085 -0.012162 -0.001067 -0.000003 -0.002404 0.000003
# 2 -0.012162 0.019109 -0.001917 0.000002 0.000642 -0.000001
# 3 -0.001067 -0.001917 0.008001 -0.000003 0.004745 0.000002
# 4 -0.000003 0.000002 -0.000003 0.047935 -0.000007 -0.009388
# 5 -0.002404 0.000642 0.004745 -0.000007 0.043595 0.000005
# 6 0.000003 -0.000001 0.000002 -0.009388 0.000005 0.031679
#
#
# Mechanical properties :
#
#
# Convention : Reuss Voigt Hill
#
# Bulk Modulus (GPa) = 43.66279 48.30502 45.98390
# Shear Modulus (GPa) = 23.32850 29.30920 26.31885
#
# Velocity S-wave (km/s) = 3.40725 3.81911 3.61904
# Velocity P-wave (km/s) = 6.09982 6.59441 6.35193
#
# Compressibility (1/GPa) = 0.02290280
#
# Stress axis : x y z
#
# Youngs Moduli (GPa) = 38.33657 52.33089 124.99217
#
# Poissons Ratio (x) = 0.63645 0.13335
# Poissons Ratio (y) = 0.46625 0.23960
# Poissons Ratio (z) = 0.04090 0.10031
#
# Static dielectric constant tensor:
#      x y z
#    x 1.828940 0.000000 0.014070 
#    y 0.000000 1.723410 0.000000 
#    z 0.014070 0.000000 1.714030 
# 
# From -- ./inp_files/290246.got.cif
#   From: 2010.05.17/outbox.cif.g08.bks.cpg/sg15_146_cif.got.tgz:290246.got - 2010.06.03 18:47:42.
