data_PCOD9297933
_publ_section_title
;
Structure prediction by ZEFSAII (Michael W. Deem and Ramdas Pophale) SiO2 
 PCOD9297933
Probable space group: C 2/C
;
_chemical_formula_sum "Si O2"
_cell_formula_units_Z 36
_cell_length_a 5.247111
_cell_length_b 29.538133
_cell_length_c 10.332718
_cell_angle_alpha 90.000000
_cell_angle_beta 99.969604
_cell_angle_gamma 90.000000
_cell_volume 1577.283976
_symmetry_space_group_name_H-M "C 2/C"
_symmetry_group_IT_number 15
_symmetry_cell_setting 'monoclinic'
loop_
_space_group_symop_operation_xyz
x,y,z
-x,y,1/2-z
-x,-y,-z
x,-y,1/2+z
1/2+x,1/2+y,z
1/2-x,1/2+y,1/2-z
1/2-x,1/2-y,-z
1/2+x,1/2-y,1/2+z
loop_
_atom_site_type_symbol
_atom_site_label
_atom_site_fract_x
_atom_site_fract_y
_atom_site_fract_z
Si Si1 0.311043 0.418194 0.379260
Si Si2 0.633767 0.078485 0.445051
Si Si3 0.495642 0.218953 0.494652
Si Si4 0.000000 0.340874 0.250000
Si Si5 0.500000 0.155032 0.250000
Si Si6 0.000000 0.497323 0.250000
O O1 0.594223 0.424363 0.459654
O O2 0.245739 0.373563 0.292213
O O3 0.232405 0.461899 0.288268
O O4 0.102214 0.412382 0.477792
O O5 0.676370 0.118124 0.341574
O O6 0.544332 0.031833 0.371057
O O7 0.250000 0.250000 0.500000
O O8 0.536975 0.188464 0.625004
O O9 0.431293 0.188394 0.362533
O O10 0.750000 0.250000 0.500000
#
# Coordination Sequence:
#
# PCOD9297933 Si02
#       6
#     8   8   8   4   4   4
#     4  11  25  44  72 104 148 188 239 292 351 428
#     4  11  25  44  72 104 148 188 239 292 351 428
#     4  12  28  48  76 105 144 187 240 302 362 432
#     4  11  26  49  74 108 146 190 240 295 366 423
#     4  11  26  49  74 108 146 190 240 295 366 423
#     4  10  24  42  72 108 144 192 238 290 352 416
#
# _framework density 22.824045000000002
#
# number of rings (size 3 to 8) (size 9 to 14) (size 15 to 20)
#    0.000    0.889    2.222    2.667    3.111   12.444 
#    0.000    0.000    0.000    0.000    0.000    0.000 
#    0.000    0.000    0.000    0.000    0.000    0.000 
#
# Total GULP energy -100578.773347 kJ/mol
# GULP energy per Si atom -5587.709630 kJ/mol
# Density = 2.277210 g / cm^3
# Si number density = 22.824045 Si / 1000 Ang^3
#
#
#
# Elastic Constant Matrix: (Units=GPa)
#
#
# Indices 1 2 3 4 5 6 
#
# 1 146.3528 63.6664 89.6029 0.0000 8.3450 0.0000
# 2 63.6664 191.3000 113.3069 0.0000 -7.0113 0.0000
# 3 89.6029 113.3069 207.3714 0.0000 4.1888 0.0000
# 4 0.0000 0.0000 0.0000 61.6426 0.0000 3.1208
# 5 8.3450 -7.0113 4.1888 0.0000 32.7689 0.0000
# 6 0.0000 0.0000 0.0000 3.1208 0.0000 -18.2134
#
#
#
# Elastic Compliance Matrix: (Units=1/GPa)
#
#
# Indices 1 2 3 4 5 6 
#
# 1 0.009600 -0.001255 -0.003416 0.000000 -0.002277 0.000000
# 2 -0.001255 0.008054 -0.003910 0.000000 0.002543 0.000000
# 3 -0.003416 -0.003910 0.008456 0.000000 -0.001047 0.000000
# 4 0.000000 0.000000 0.000000 0.016083 0.000000 0.002756
# 5 -0.002277 0.002543 -0.001047 0.000000 0.031774 0.000000
# 6 0.000000 0.000000 0.000000 0.002756 0.000000 -0.054432
#
#
# Mechanical properties :
#
#
# Convention : Reuss Voigt Hill
#
# Bulk Modulus (GPa) = 111.75947 119.79741 115.77844
# Shear Modulus (GPa) = 126.00767 33.80283 79.90525
#
# Velocity S-wave (km/s) = 7.43829 3.85258 5.92328
# Velocity P-wave (km/s) = 11.08345 8.50830 9.88013
#
# Compressibility (1/GPa) = 0.00894779
#
# Stress axis : x y z
#
# Youngs Moduli (GPa) = 104.16421 124.16196 118.25987
#
# Poissons Ratio (x) = 0.15581 0.40403
# Poissons Ratio (y) = 0.13071 0.46237
# Poissons Ratio (z) = 0.35588 0.48545
#
# Static dielectric constant tensor:
#      x y z
#    x 1.958600 0.000000 -0.050360 
#    y 0.000000 1.862880 0.000000 
#    z -0.050360 0.000000 1.888410 
# 
# From -- ./inp_files/73440.got.cif
#   From: 2010.05.17/outbox.cif.g08.bks.cpg/sg15_37_cif.got.tgz:73440.got - 2010.06.03 18:47:42.
