data_PCOD9297997
_publ_section_title
;
Structure prediction by ZEFSAII (Michael W. Deem and Ramdas Pophale) SiO2 
 PCOD9297997
Probable space group: C 2/C
;
_chemical_formula_sum "Si O2"
_cell_formula_units_Z 56
_cell_length_a 19.340314
_cell_length_b 8.534060
_cell_length_c 26.544434
_cell_angle_alpha 90.000000
_cell_angle_beta 34.187590
_cell_angle_gamma 90.000000
_cell_volume 2461.812532
_symmetry_space_group_name_H-M "C 2/C"
_symmetry_group_IT_number 15
_symmetry_cell_setting 'monoclinic'
loop_
_space_group_symop_operation_xyz
x,y,z
-x,y,1/2-z
-x,-y,-z
x,-y,1/2+z
1/2+x,1/2+y,z
1/2-x,1/2+y,1/2-z
1/2-x,1/2-y,-z
1/2+x,1/2-y,1/2+z
loop_
_atom_site_type_symbol
_atom_site_label
_atom_site_fract_x
_atom_site_fract_y
_atom_site_fract_z
Si Si1 0.491829 0.578180 0.194568
Si Si2 0.374511 0.253339 0.393415
Si Si3 0.206685 0.270825 0.401732
Si Si4 0.458780 0.634065 0.562552
Si Si5 0.267626 0.962673 0.775406
Si Si6 0.299496 0.092060 0.143858
Si Si7 0.499424 0.919249 0.189662
O O1 0.500000 0.573021 0.250000
O O2 0.549273 0.413103 0.141909
O O3 0.347674 0.596085 0.270086
O O4 0.550442 0.747010 0.142608
O O5 0.250000 0.250000 0.500000
O O6 0.327218 0.262634 0.363671
O O7 0.438952 0.084846 0.362734
O O8 0.233564 0.179754 0.333191
O O9 0.168067 0.443569 0.409086
O O10 0.088522 0.201644 0.502234
O O11 0.500000 0.500000 0.500000
O O12 0.358234 0.557220 0.659588
O O13 0.380315 0.761189 0.578669
O O14 0.328667 0.921461 0.685761
O O15 0.362347 0.066563 0.750039
O O16 0.500000 0.918387 0.250000
#
# Coordination Sequence:
#
# PCOD9297997 Si02
#       7
#     8   8   8   8   8   8   8
#     4  11  24  45  73 101 135 188 245 289 345 424
#     4  12  27  45  71 105 146 187 234 296 361 427
#     4  11  24  44  67 102 145 181 231 295 362 422
#     4  10  24  43  63  98 140 180 218 286 362 413
#     4  11  23  42  70 102 134 186 240 291 351 422
#     4  12  23  42  71 103 135 181 242 292 344 429
#     4  11  23  46  73  97 139 187 239 293 350 415
#
# _framework density 22.747468000000001
#
# number of rings (size 3 to 8) (size 9 to 14) (size 15 to 20)
#    0.000    0.857    4.286    2.571    4.000    0.571 
#    0.000    0.000    0.000    0.000    0.000    0.000 
#    0.000    0.000    0.000    0.000    0.000    0.000 
#
# Total GULP energy -156357.781277 kJ/mol
# GULP energy per Si atom -5584.206474 kJ/mol
# Density = 2.269569 g / cm^3
# Si number density = 22.747468 Si / 1000 Ang^3
#
#
#
# Elastic Constant Matrix: (Units=GPa)
#
#
# Indices 1 2 3 4 5 6 
#
# 1 99.3733 19.7989 16.7756 0.0023 -18.8402 -0.0012
# 2 19.7989 200.7523 60.5396 0.0055 -16.1100 0.0017
# 3 16.7756 60.5396 73.5929 0.0012 -18.3155 -0.0001
# 4 0.0023 0.0055 0.0012 35.9739 -0.0003 -22.9410
# 5 -18.8402 -16.1100 -18.3155 -0.0003 32.3783 0.0012
# 6 -0.0012 0.0017 -0.0001 -22.9410 0.0012 14.1435
#
#
#
# Elastic Compliance Matrix: (Units=1/GPa)
#
#
# Indices 1 2 3 4 5 6 
#
# 1 0.011413 -0.000412 -0.000769 0.000008 0.006001 0.000014
# 2 -0.000412 0.006641 -0.005361 0.000040 0.000032 0.000064
# 3 -0.000769 -0.005361 0.020250 -0.000008 0.008339 -0.000012
# 4 0.000008 0.000040 -0.000008 -0.808530 0.000063 -1.311448
# 5 0.006001 0.000032 0.008339 0.000063 0.039110 0.000100
# 6 0.000014 0.000064 -0.000012 -1.311448 0.000100 -2.056485
#
#
# Mechanical properties :
#
#
# Convention : Reuss Voigt Hill
#
# Bulk Modulus (GPa) = 39.65394 63.10520 51.37957
# Shear Modulus (GPa) = -1.80759 34.93943 16.56592
#
# Velocity S-wave (km/s) = -0.89239 3.92340 2.70154
# Velocity P-wave (km/s) = 4.05071 6.95168 5.68921
#
# Compressibility (1/GPa) = 0.02521818
#
# Stress axis : x y z
#
# Youngs Moduli (GPa) = 87.62187 150.57350 49.38378
#
# Poissons Ratio (x) = 0.06205 0.03798
# Poissons Ratio (y) = 0.03611 0.26477
# Poissons Ratio (z) = 0.06739 0.80729
#
# Static dielectric constant tensor:
#      x y z
#    x 1.875100 0.000000 0.003110 
#    y 0.000000 1.944830 0.000000 
#    z 0.003110 0.000000 1.906990 
# 
# From -- ./inp_files/317504.got.cif
#   From: 2010.05.17/outbox.cif.g08.bks.cpg/sg15_159_cif.got.tgz:317504.got - 2010.06.03 18:47:42.
