data_PCOD9297628
_publ_section_title
;
Structure prediction by ZEFSAII (Michael W. Deem and Ramdas Pophale) SiO2 
 PCOD9297628
Probable space group: C 2/C
;
_chemical_formula_sum "Si O2"
_cell_formula_units_Z 40
_cell_length_a 23.223860
_cell_length_b 7.795740
_cell_length_c 9.497067
_cell_angle_alpha 90.000000
_cell_angle_beta 101.799354
_cell_angle_gamma 90.000000
_cell_volume 1683.085335
_symmetry_space_group_name_H-M "C 2/C"
_symmetry_group_IT_number 15
_symmetry_cell_setting 'monoclinic'
loop_
_space_group_symop_operation_xyz
x,y,z
-x,y,1/2-z
-x,-y,-z
x,-y,1/2+z
1/2+x,1/2+y,z
1/2-x,1/2+y,1/2-z
1/2-x,1/2-y,-z
1/2+x,1/2-y,1/2+z
loop_
_atom_site_type_symbol
_atom_site_label
_atom_site_fract_x
_atom_site_fract_y
_atom_site_fract_z
Si Si1 0.170480 0.831303 0.989320
Si Si2 0.117447 0.837262 0.510103
Si Si3 0.463800 0.884180 0.373933
Si Si4 0.776866 0.957847 0.762674
Si Si5 0.351403 0.976604 0.671348
O O1 0.176171 0.830797 0.638619
O O2 0.215928 0.916227 0.898092
O O3 0.153879 0.642242 0.934906
O O4 0.196621 0.864853 0.158099
O O5 0.059355 0.788525 0.565116
O O6 0.117166 0.031857 0.453894
O O7 0.129383 0.693986 0.400249
O O8 0.500000 0.858007 0.250000
O O9 0.403387 0.980735 0.304631
O O10 0.500000 0.000000 0.500000
O O11 0.711643 0.956865 0.788004
#
# Coordination Sequence:
#
# PCOD9297628 Si02
#       5
#     8   8   8   8   8
#     4  10  24  43  67 113 148 183 234 290 381 436
#     4  10  25  45  70 104 149 183 243 305 357 441
#     4  12  26  49  75 105 143 203 257 292 356 431
#     4  10  24  41  70 115 147 177 236 302 376 441
#     4  12  23  44  77 102 151 193 233 306 365 436
#
# _framework density 23.765878000000001
#
# number of rings (size 3 to 8) (size 9 to 14) (size 15 to 20)
#    1.200    0.000    4.000    1.200    5.600    1.600 
#    0.000    1.000    4.400    0.000    0.000    0.000 
#    0.000    0.000    0.000    0.000    0.000    0.000 
#
# Total GULP energy -111855.238442 kJ/mol
# GULP energy per Si atom -5592.761922 kJ/mol
# Density = 2.371179 g / cm^3
# Si number density = 23.765878 Si / 1000 Ang^3
#
#
#
# Elastic Constant Matrix: (Units=GPa)
#
#
# Indices 1 2 3 4 5 6 
#
# 1 116.5723 25.3125 24.8734 0.0000 -13.5139 0.0000
# 2 25.3125 126.0359 31.9708 0.0000 -9.8414 0.0000
# 3 24.8734 31.9708 69.9324 0.0000 -4.5726 0.0000
# 4 0.0000 0.0000 0.0000 43.0872 0.0000 -4.3044
# 5 -13.5139 -9.8414 -4.5726 0.0000 53.4352 0.0000
# 6 0.0000 0.0000 0.0000 -4.3044 0.0000 35.0738
#
#
#
# Elastic Compliance Matrix: (Units=1/GPa)
#
#
# Indices 1 2 3 4 5 6 
#
# 1 0.009642 -0.001067 -0.002811 0.000000 0.002001 0.000000
# 2 -0.001067 0.009185 -0.003748 0.000000 0.001101 0.000000
# 3 -0.002811 -0.003748 0.017016 0.000000 0.000055 0.000000
# 4 0.000000 0.000000 0.000000 0.023497 0.000000 0.002884
# 5 0.002001 0.001101 0.000055 0.000000 0.019428 0.000000
# 6 0.000000 0.000000 0.000000 0.002884 0.000000 0.028865
#
#
# Mechanical properties :
#
#
# Convention : Reuss Voigt Hill
#
# Bulk Modulus (GPa) = 48.56195 52.98378 50.77286
# Shear Modulus (GPa) = 38.53624 41.67816 40.10720
#
# Velocity S-wave (km/s) = 4.03115 4.19226 4.11249
# Velocity P-wave (km/s) = 6.49189 6.76579 6.63025
#
# Compressibility (1/GPa) = 0.02059225
#
# Stress axis : x y z
#
# Youngs Moduli (GPa) = 103.71483 108.87095 58.76791
#
# Poissons Ratio (x) = 0.11619 0.16518
# Poissons Ratio (y) = 0.11068 0.22024
# Poissons Ratio (z) = 0.29151 0.40800
#
# Static dielectric constant tensor:
#      x y z
#    x 1.887580 0.000000 -0.014700 
#    y 0.000000 1.951400 0.000000 
#    z -0.014700 0.000000 1.973720 
# 
# From -- ./inp_files/60092.got.cif
#   From: 2010.05.17/outbox.cif.g08.bks.cpg/sg15_31_cif.got.tgz:60092.got - 2010.06.03 18:47:42.
