data_PCOD9297695
_publ_section_title
;
Structure prediction by ZEFSAII (Michael W. Deem and Ramdas Pophale) SiO2 
 PCOD9297695
Probable space group: C 2/C
;
_chemical_formula_sum "Si O2"
_cell_formula_units_Z 48
_cell_length_a 19.052097
_cell_length_b 19.804976
_cell_length_c 9.082129
_cell_angle_alpha 90.000000
_cell_angle_beta 137.838266
_cell_angle_gamma 90.000000
_cell_volume 2300.240969
_symmetry_space_group_name_H-M "C 2/C"
_symmetry_group_IT_number 15
_symmetry_cell_setting 'monoclinic'
loop_
_space_group_symop_operation_xyz
x,y,z
-x,y,1/2-z
-x,-y,-z
x,-y,1/2+z
1/2+x,1/2+y,z
1/2-x,1/2+y,1/2-z
1/2-x,1/2-y,-z
1/2+x,1/2-y,1/2+z
loop_
_atom_site_type_symbol
_atom_site_label
_atom_site_fract_x
_atom_site_fract_y
_atom_site_fract_z
Si Si1 0.775466 0.323533 0.873888
Si Si2 0.046063 0.635382 0.052947
Si Si3 0.334474 0.811516 0.307736
Si Si4 0.000000 0.470492 0.250000
Si Si5 0.500000 0.475958 0.750000
Si Si6 0.811715 0.432867 0.481404
Si Si7 0.142702 0.045219 0.214323
O O1 0.884723 0.324857 0.957417
O O2 0.706015 0.261623 0.706893
O O3 0.714871 0.394271 0.769804
O O4 0.799953 0.316458 0.084544
O O5 0.130146 0.601442 0.291004
O O6 0.984285 0.577452 0.866238
O O7 0.959682 0.678470 0.003709
O O8 0.288030 0.873282 0.329882
O O9 0.099082 0.516531 0.439829
O O10 0.432587 0.521655 0.534094
O O11 0.423554 0.435818 0.742549
O O12 0.713842 0.480116 0.364828
#
# Coordination Sequence:
#
# PCOD9297695 Si02
#       7
#     8   8   8   4   4   8   8
#     4  11  24  42  67  88 134 179 220 264 323 398
#     4  12  22  42  66 101 130 170 217 274 332 392
#     4  11  24  43  59  99 133 176 215 265 332 391
#     4  12  22  36  72 104 130 164 208 280 342 390
#     4  10  24  42  64  92 130 164 226 268 320 378
#     4  12  24  39  73 101 134 161 217 284 336 385
#     4  11  22  44  65  98 123 173 219 272 321 387
#
# _framework density 20.867377999999999
#
# number of rings (size 3 to 8) (size 9 to 14) (size 15 to 20)
#    0.000    0.667    5.000    2.500    2.333    0.667 
#   15.000    0.000    0.000    0.000    0.000    0.000 
#    0.000    0.000    0.000    0.000    0.000    0.000 
#
# Total GULP energy -134165.560228 kJ/mol
# GULP energy per Si atom -5590.231676 kJ/mol
# Density = 2.081988 g / cm^3
# Si number density = 20.867378 Si / 1000 Ang^3
#
#
#
# Elastic Constant Matrix: (Units=GPa)
#
#
# Indices 1 2 3 4 5 6 
#
# 1 70.9851 32.0786 2.7095 0.0000 4.7710 0.0000
# 2 32.0786 107.1401 29.2104 0.0000 8.3855 0.0000
# 3 2.7095 29.2104 81.3210 0.0000 8.3991 0.0000
# 4 0.0000 0.0000 0.0000 20.6325 0.0000 8.6216
# 5 4.7710 8.3855 8.3991 0.0000 22.5555 0.0000
# 6 0.0000 0.0000 0.0000 8.6216 0.0000 13.1362
#
#
#
# Elastic Compliance Matrix: (Units=1/GPa)
#
#
# Indices 1 2 3 4 5 6 
#
# 1 0.016522 -0.005199 0.001537 0.000000 -0.002134 0.000000
# 2 -0.005199 0.012127 -0.003984 0.000000 -0.001925 0.000000
# 3 0.001537 -0.003984 0.014100 0.000000 -0.004094 0.000000
# 4 0.000000 0.000000 0.000000 0.066783 0.000000 -0.043831
# 5 -0.002134 -0.001925 -0.004094 0.000000 0.047027 0.000000
# 6 0.000000 0.000000 0.000000 -0.043831 0.000000 0.104893
#
#
# Mechanical properties :
#
#
# Convention : Reuss Voigt Hill
#
# Bulk Modulus (GPa) = 36.41991 43.04926 39.73458
# Shear Modulus (GPa) = 17.48897 24.29467 20.89182
#
# Velocity S-wave (km/s) = 2.89814 3.41580 3.16756
# Velocity P-wave (km/s) = 5.35629 6.01927 5.69743
#
# Compressibility (1/GPa) = 0.02745751
#
# Stress axis : x y z
#
# Youngs Moduli (GPa) = 60.52682 82.46069 70.92379
#
# Poissons Ratio (x) = 0.42870 -0.10904
# Poissons Ratio (y) = 0.31467 0.28256
# Poissons Ratio (z) = -0.09305 0.32852
#
# Static dielectric constant tensor:
#      x y z
#    x 1.789120 0.000000 -0.002290 
#    y 0.000000 1.736430 0.000000 
#    z -0.002290 0.000000 1.747970 
# 
# From -- ./inp_files/58014.got.cif
#   From: 2010.05.17/outbox.cif.g08.bks.cpg/sg15_30_cif.got.tgz:58014.got - 2010.06.03 18:47:42.
