data_PCOD9297773
_publ_section_title
;
Structure prediction by ZEFSAII (Michael W. Deem and Ramdas Pophale) SiO2 
 PCOD9297773
Probable space group: C 2/C
;
_chemical_formula_sum "Si O2"
_cell_formula_units_Z 44
_cell_length_a 29.055139
_cell_length_b 11.938587
_cell_length_c 16.431797
_cell_angle_alpha 90.000000
_cell_angle_beta 157.741591
_cell_angle_gamma 90.000000
_cell_volume 2159.002220
_symmetry_space_group_name_H-M "C 2/C"
_symmetry_group_IT_number 15
_symmetry_cell_setting 'monoclinic'
loop_
_space_group_symop_operation_xyz
x,y,z
-x,y,1/2-z
-x,-y,-z
x,-y,1/2+z
1/2+x,1/2+y,z
1/2-x,1/2+y,1/2-z
1/2-x,1/2-y,-z
1/2+x,1/2-y,1/2+z
loop_
_atom_site_type_symbol
_atom_site_label
_atom_site_fract_x
_atom_site_fract_y
_atom_site_fract_z
Si Si1 0.644510 0.745169 0.486184
Si Si2 0.198765 0.016899 0.494325
Si Si3 0.169063 0.313470 0.084848
Si Si4 0.428275 0.009784 0.965915
Si Si5 0.500000 0.617652 0.750000
Si Si6 0.159701 0.481483 0.442186
O O1 0.500000 0.744294 0.250000
O O2 0.686497 0.649232 0.491666
O O3 0.698740 0.709866 0.662308
O O4 0.694996 0.867277 0.545270
O O5 0.293208 0.972092 0.718858
O O6 0.258186 0.998279 0.503481
O O7 0.069043 0.959613 0.297464
O O8 0.091859 0.365658 0.033169
O O9 0.102327 0.201844 0.949571
O O10 0.166840 0.410184 0.012296
O O11 0.500000 0.000000 0.000000
O O12 0.520705 0.959667 0.183418
#
# Coordination Sequence:
#
# PCOD9297773 Si02
#       6
#     8   8   8   8   4   8
#     4  11  24  41  70  94 131 175 218 272 325 386
#     4  10  24  42  66  98 135 169 214 274 334 389
#     4  11  24  41  65  99 132 178 215 266 329 387
#     4   9  19  41  67  95 126 167 219 266 317 390
#     4  12  24  44  64  92 144 166 214 264 338 388
#     4  11  22  44  67  99 128 171 229 265 322 394
#
# _framework density 20.379784000000001
#
# number of rings (size 3 to 8) (size 9 to 14) (size 15 to 20)
#    0.000    1.455    2.727    1.636    7.636    0.727 
#    0.000    5.455    0.000    0.000    0.000    0.000 
#    0.000    0.000    0.000    0.000    0.000    0.000 
#
# Total GULP energy -122662.025822 kJ/mol
# GULP energy per Si atom -5575.546628 kJ/mol
# Density = 2.033340 g / cm^3
# Si number density = 20.379784 Si / 1000 Ang^3
#
#
#
# Elastic Constant Matrix: (Units=GPa)
#
#
# Indices 1 2 3 4 5 6 
#
# 1 95.8508 59.2511 47.5491 0.0000 -1.7963 0.0000
# 2 59.2511 112.4864 44.6795 0.0000 1.0596 0.0000
# 3 47.5491 44.6795 103.6119 0.0000 -5.5269 0.0000
# 4 0.0000 0.0000 0.0000 26.5912 0.0000 -1.8569
# 5 -1.7963 1.0596 -5.5269 0.0000 34.4090 0.0000
# 6 0.0000 0.0000 0.0000 -1.8569 0.0000 10.7852
#
#
#
# Elastic Compliance Matrix: (Units=1/GPa)
#
#
# Indices 1 2 3 4 5 6 
#
# 1 0.017268 -0.007190 -0.004805 0.000000 0.000351 0.000000
# 2 -0.007190 0.013762 -0.002700 0.000000 -0.001233 0.000000
# 3 -0.004805 -0.002700 0.013124 0.000000 0.001940 0.000000
# 4 0.000000 0.000000 0.000000 0.038064 0.000000 0.006553
# 5 0.000351 -0.001233 0.001940 0.000000 0.029430 0.000000
# 6 0.000000 0.000000 0.000000 0.006553 0.000000 0.093848
#
#
# Mechanical properties :
#
#
# Convention : Reuss Voigt Hill
#
# Bulk Modulus (GPa) = 67.73976 68.32319 68.03147
# Shear Modulus (GPa) = 20.84992 25.05503 22.95248
#
# Velocity S-wave (km/s) = 3.20201 3.51009 3.35959
# Velocity P-wave (km/s) = 6.85430 7.07287 6.96444
#
# Compressibility (1/GPa) = 0.01476238
#
# Stress axis : x y z
#
# Youngs Moduli (GPa) = 57.91047 72.66595 76.19358
#
# Poissons Ratio (x) = 0.52250 0.36612
# Poissons Ratio (y) = 0.41640 0.20574
# Poissons Ratio (z) = 0.27827 0.19621
#
# Static dielectric constant tensor:
#      x y z
#    x 1.717590 0.000000 -0.033860 
#    y 0.000000 1.726480 0.000000 
#    z -0.033860 0.000000 1.775580 
# 
# From -- ./inp_files/142293.got.cif
#   From: 2010.05.17/outbox.cif.g08.bks.cpg/sg15_72_cif.got.tgz:142293.got - 2010.06.03 18:47:42.
