data_PCOD9297506
_publ_section_title
;
Structure prediction by ZEFSAII (Michael W. Deem and Ramdas Pophale) SiO2 
 PCOD9297506
Probable space group: C 2/C
;
_chemical_formula_sum "Si O2"
_cell_formula_units_Z 52
_cell_length_a 10.711973
_cell_length_b 19.913419
_cell_length_c 12.200221
_cell_angle_alpha 90.000000
_cell_angle_beta 127.661962
_cell_angle_gamma 90.000000
_cell_volume 2060.178655
_symmetry_space_group_name_H-M "C 2/C"
_symmetry_group_IT_number 15
_symmetry_cell_setting 'monoclinic'
loop_
_space_group_symop_operation_xyz
x,y,z
-x,y,1/2-z
-x,-y,-z
x,-y,1/2+z
1/2+x,1/2+y,z
1/2-x,1/2+y,1/2-z
1/2-x,1/2-y,-z
1/2+x,1/2-y,1/2+z
loop_
_atom_site_type_symbol
_atom_site_label
_atom_site_fract_x
_atom_site_fract_y
_atom_site_fract_z
Si Si1 0.255313 0.672017 0.978878
Si Si2 0.194285 0.803638 0.572269
Si Si3 0.629491 0.684124 0.706068
Si Si4 0.302590 0.391873 0.723793
Si Si5 0.500000 0.083891 0.750000
Si Si6 0.759890 0.456978 0.310381
Si Si7 0.050300 0.597241 0.393693
O O1 0.311994 0.672915 0.885464
O O2 0.091410 0.632524 0.882876
O O3 0.250000 0.750000 0.000000
O O4 0.343544 0.635962 0.126289
O O5 0.263249 0.739098 0.673990
O O6 0.050272 0.792466 0.410510
O O7 0.132484 0.852594 0.636198
O O8 0.330731 0.843940 0.580388
O O9 0.651475 0.608964 0.763646
O O10 0.325768 0.471669 0.742188
O O11 0.112391 0.379229 0.638419
O O12 0.630424 0.050026 0.739499
O O13 0.865079 0.453021 0.477409
O O14 0.000000 0.566845 0.250000
#
# Coordination Sequence:
#
# PCOD9297506 Si02
#       7
#     8   8   8   8   4   8   8
#     4  11  23  40  70 104 150 198 252 312 377 457
#     4  11  27  49  76 110 158 206 260 318 391 465
#     4  11  28  48  76 113 152 206 261 320 390 465
#     4  11  24  47  76 112 151 204 255 323 389 458
#     4  10  24  40  72 108 152 192 258 316 378 456
#     4  11  25  46  76 112 155 198 266 319 389 459
#     4  10  24  44  73 112 151 195 260 312 385 456
#
# _framework density 25.240528999999999
#
# number of rings (size 3 to 8) (size 9 to 14) (size 15 to 20)
#    0.000    1.231    3.077    0.462   11.846    4.923 
#    2.769    1.538    0.000    0.000    0.000    0.000 
#    0.000    0.000    0.000    0.000    0.000    0.000 
#
# Total GULP energy -145447.880112 kJ/mol
# GULP energy per Si atom -5594.149235 kJ/mol
# Density = 2.518308 g / cm^3
# Si number density = 25.240529 Si / 1000 Ang^3
#
#
#
# Elastic Constant Matrix: (Units=GPa)
#
#
# Indices 1 2 3 4 5 6 
#
# 1 81.2719 34.2928 24.0501 0.0000 -5.7651 0.0000
# 2 34.2928 206.8145 71.3657 0.0000 5.2029 0.0000
# 3 24.0501 71.3657 153.9157 0.0000 8.1588 0.0000
# 4 0.0000 0.0000 0.0000 24.8607 0.0000 -13.4919
# 5 -5.7651 5.2029 8.1588 0.0000 60.6305 0.0000
# 6 0.0000 0.0000 0.0000 -13.4919 0.0000 21.0402
#
#
#
# Elastic Compliance Matrix: (Units=1/GPa)
#
#
# Indices 1 2 3 4 5 6 
#
# 1 0.013594 -0.001824 -0.001365 0.000000 0.001633 0.000000
# 2 -0.001824 0.006002 -0.002479 0.000000 -0.000355 0.000000
# 3 -0.001365 -0.002479 0.007912 0.000000 -0.000982 0.000000
# 4 0.000000 0.000000 0.000000 0.061693 0.000000 0.039560
# 5 0.001633 -0.000355 -0.000982 0.000000 0.016811 0.000000
# 6 0.000000 0.000000 0.000000 0.039560 0.000000 0.072896
#
#
# Mechanical properties :
#
#
# Convention : Reuss Voigt Hill
#
# Bulk Modulus (GPa) = 61.83721 77.93549 69.88635
# Shear Modulus (GPa) = 25.55779 42.12585 33.84182
#
# Velocity S-wave (km/s) = 3.18554 4.08974 3.66563
# Velocity P-wave (km/s) = 6.17111 7.29695 6.75752
#
# Compressibility (1/GPa) = 0.01617149
#
# Stress axis : x y z
#
# Youngs Moduli (GPa) = 73.56298 166.60743 126.39238
#
# Poissons Ratio (x) = 0.30392 0.17251
# Poissons Ratio (y) = 0.13419 0.31335
# Poissons Ratio (z) = 0.10040 0.41304
#
# Static dielectric constant tensor:
#      x y z
#    x 2.113860 0.000000 0.155740 
#    y 0.000000 1.715530 0.000000 
#    z 0.155740 0.000000 2.257160 
# 
# From -- ./inp_files/97861.got.cif
#   From: 2010.05.17/outbox.cif.g08.bks.cpg/sg15_49_cif.got.tgz:97861.got - 2010.06.03 18:47:42.
