data_PCOD9297789
_publ_section_title
;
Structure prediction by ZEFSAII (Michael W. Deem and Ramdas Pophale) SiO2 
 PCOD9297789
Probable space group: C 2/C
;
_chemical_formula_sum "Si O2"
_cell_formula_units_Z 56
_cell_length_a 20.286608
_cell_length_b 13.607031
_cell_length_c 17.407969
_cell_angle_alpha 90.000000
_cell_angle_beta 149.019356
_cell_angle_gamma 90.000000
_cell_volume 2473.523168
_symmetry_space_group_name_H-M "C 2/C"
_symmetry_group_IT_number 15
_symmetry_cell_setting 'monoclinic'
loop_
_space_group_symop_operation_xyz
x,y,z
-x,y,1/2-z
-x,-y,-z
x,-y,1/2+z
1/2+x,1/2+y,z
1/2-x,1/2+y,1/2-z
1/2-x,1/2-y,-z
1/2+x,1/2-y,1/2+z
loop_
_atom_site_type_symbol
_atom_site_label
_atom_site_fract_x
_atom_site_fract_y
_atom_site_fract_z
Si Si1 0.526717 0.836031 0.955923
Si Si2 0.506124 0.482973 0.595790
Si Si3 0.053744 0.750199 0.648667
Si Si4 0.303521 0.791109 0.973063
Si Si5 0.366418 0.131105 0.161053
Si Si6 0.910643 0.150236 0.585002
Si Si7 0.724176 0.021854 0.575766
O O1 0.413027 0.888341 0.794392
O O2 0.538119 0.729444 0.925441
O O3 0.515559 0.809425 0.033844
O O4 0.643643 0.909226 0.052927
O O5 0.500000 0.500000 0.500000
O O6 0.522513 0.366588 0.616749
O O7 0.396964 0.542091 0.532556
O O8 0.629068 0.536610 0.755628
O O9 0.205126 0.737959 0.815248
O O10 0.954981 0.720935 0.616221
O O11 0.289329 0.905304 0.937895
O O12 0.250000 0.750000 0.000000
O O13 0.500000 0.163090 0.250000
O O14 0.233039 0.188173 0.040939
O O15 0.317774 0.050791 0.051991
O O16 0.000000 0.142054 0.750000
#
# Coordination Sequence:
#
# PCOD9297789 Si02
#       7
#     8   8   8   8   8   8   8
#     4  11  26  42  73 108 154 177 245 300 385 447
#     4  11  24  43  69 104 144 185 245 294 360 430
#     4  11  27  46  74 108 138 193 241 308 368 434
#     4  11  27  50  76 101 143 192 255 300 362 435
#     4  10  24  42  67 104 148 186 235 288 366 444
#     4  12  24  40  74 104 142 200 237 301 368 443
#     4  10  24  46  69 105 146 190 240 297 362 443
#
# _framework density 22.639771
#
# number of rings (size 3 to 8) (size 9 to 14) (size 15 to 20)
#    0.000    1.143    2.857    1.714    8.000    6.857 
#    0.000    0.000    0.000    0.000    0.000    0.000 
#    0.000    0.000    0.000    0.000    0.000    0.000 
#
# Total GULP energy -155881.161964 kJ/mol
# GULP energy per Si atom -5567.184356 kJ/mol
# Density = 2.258824 g / cm^3
# Si number density = 22.639771 Si / 1000 Ang^3
#
#
#
# Elastic Constant Matrix: (Units=GPa)
#
#
# Indices 1 2 3 4 5 6 
#
# 1 99.2655 28.8351 45.3676 0.0000 -12.0461 0.0000
# 2 28.8351 60.1022 9.1517 0.0000 -5.5170 0.0000
# 3 45.3676 9.1517 100.4634 0.0000 -11.2530 0.0000
# 4 0.0000 0.0000 0.0000 44.6628 0.0000 -4.8784
# 5 -12.0461 -5.5170 -11.2530 0.0000 33.2159 0.0000
# 6 0.0000 0.0000 0.0000 -4.8784 0.0000 30.8609
#
#
#
# Elastic Compliance Matrix: (Units=1/GPa)
#
#
# Indices 1 2 3 4 5 6 
#
# 1 0.014779 -0.005979 -0.005863 0.000000 0.002380 0.000000
# 2 -0.005979 0.019473 0.001087 0.000000 0.001434 0.000000
# 3 -0.005863 0.001087 0.012769 0.000000 0.002380 0.000000
# 4 0.000000 0.000000 0.000000 0.022783 0.000000 0.003602
# 5 0.002380 0.001434 0.002380 0.000000 0.032014 0.000000
# 6 0.000000 0.000000 0.000000 0.003602 0.000000 0.032973
#
#
# Mechanical properties :
#
#
# Convention : Reuss Voigt Hill
#
# Bulk Modulus (GPa) = 39.19871 47.39331 43.29601
# Shear Modulus (GPa) = 30.33878 33.51304 31.92591
#
# Velocity S-wave (km/s) = 3.66466 3.85161 3.75930
# Velocity P-wave (km/s) = 5.93785 6.38427 6.16510
#
# Compressibility (1/GPa) = 0.02551104
#
# Stress axis : x y z
#
# Youngs Moduli (GPa) = 67.66247 51.35270 78.31476
#
# Poissons Ratio (x) = 0.30706 0.45914
# Poissons Ratio (y) = 0.40458 -0.08512
# Poissons Ratio (z) = 0.39669 -0.05582
#
# Static dielectric constant tensor:
#      x y z
#    x 1.856390 0.000000 -0.037150 
#    y 0.000000 1.404540 0.000000 
#    z -0.037150 0.000000 1.707770 
# 
# From -- ./inp_files/215769.got.cif
#   From: 2010.05.17/outbox.cif.g08.bks.cpg/sg15_108_cif.got.tgz:215769.got - 2010.06.03 18:47:42.
