data_PCOD9297584
_publ_section_title
;
Structure prediction by ZEFSAII (Michael W. Deem and Ramdas Pophale) SiO2 
 PCOD9297584
Probable space group: C 2/C
;
_chemical_formula_sum "Si O2"
_cell_formula_units_Z 56
_cell_length_a 6.243490
_cell_length_b 20.665398
_cell_length_c 21.764597
_cell_angle_alpha 90.000000
_cell_angle_beta 116.751785
_cell_angle_gamma 90.000000
_cell_volume 2507.588230
_symmetry_space_group_name_H-M "C 2/C"
_symmetry_group_IT_number 15
_symmetry_cell_setting 'monoclinic'
loop_
_space_group_symop_operation_xyz
x,y,z
-x,y,1/2-z
-x,-y,-z
x,-y,1/2+z
1/2+x,1/2+y,z
1/2-x,1/2+y,1/2-z
1/2-x,1/2-y,-z
1/2+x,1/2-y,1/2+z
loop_
_atom_site_type_symbol
_atom_site_label
_atom_site_fract_x
_atom_site_fract_y
_atom_site_fract_z
Si Si1 0.549510 0.721349 0.147663
Si Si2 0.645980 0.932898 0.026702
Si Si3 0.546462 0.492512 0.627681
Si Si4 0.205439 0.105098 0.325871
Si Si5 0.000000 0.220177 0.750000
Si Si6 0.712786 0.875905 0.905848
Si Si7 0.611726 0.858380 0.144956
Si Si8 0.500000 0.055997 0.750000
O O1 0.358620 0.668874 0.143405
O O2 0.675430 0.690702 0.103623
O O3 0.453076 0.793216 0.125407
O O4 0.764214 0.734429 0.226013
O O5 0.562914 0.897986 0.077834
O O6 0.634971 0.886987 0.965872
O O7 0.924631 0.950383 0.074389
O O8 0.500000 0.000000 0.000000
O O9 0.338173 0.461179 0.642836
O O10 0.618202 0.435071 0.591306
O O11 0.771289 0.514814 0.697403
O O12 0.470986 0.111577 0.336048
O O13 0.000000 0.103339 0.250000
O O14 0.884932 0.171854 0.684038
O O15 0.573892 0.899884 0.201341
#
# Coordination Sequence:
#
# PCOD9297584 Si02
#       8
#     8   8   8   8   4   8   8   4
#     4   9  22  41  65  97 129 175 230 280 345 399
#     4  12  24  45  70  96 145 189 229 275 347 417
#     4  11  25  42  67 103 134 182 230 286 342 414
#     4  11  22  38  69  97 135 178 224 293 337 400
#     4   8  18  43  62  90 139 158 238 282 342 390
#     4  11  23  43  68  98 137 184 225 280 342 415
#     4  10  24  41  67 100 132 182 224 291 335 415
#     4  12  24  41  70 104 137 172 234 288 360 392
#
# _framework density 22.332217
#
# number of rings (size 3 to 8) (size 9 to 14) (size 15 to 20)
#    0.857    0.571    1.429    3.857    3.000    2.857 
#    0.000    0.714    0.000    0.000    0.000    0.000 
#    0.000    0.000    0.000    0.000    0.000    0.000 
#
# Total GULP energy -156172.688225 kJ/mol
# GULP energy per Si atom -5577.596008 kJ/mol
# Density = 2.228139 g / cm^3
# Si number density = 22.332217 Si / 1000 Ang^3
#
#
#
# Elastic Constant Matrix: (Units=GPa)
#
#
# Indices 1 2 3 4 5 6 
#
# 1 21.4752 5.3664 -3.5933 0.0000 -2.9410 0.0000
# 2 5.3664 97.7418 37.3490 0.0000 -10.8032 0.0000
# 3 -3.5933 37.3490 85.4994 0.0000 -15.1950 0.0000
# 4 0.0000 0.0000 0.0000 33.9403 0.0000 5.8652
# 5 -2.9410 -10.8032 -15.1950 0.0000 36.6724 0.0000
# 6 0.0000 0.0000 0.0000 5.8652 0.0000 11.0098
#
#
#
# Elastic Compliance Matrix: (Units=1/GPa)
#
#
# Indices 1 2 3 4 5 6 
#
# 1 0.048959 -0.003931 0.004606 0.000000 0.004677 0.000000
# 2 -0.003931 0.012674 -0.005499 0.000000 0.001140 0.000000
# 3 0.004606 -0.005499 0.015188 0.000000 0.005042 0.000000
# 4 0.000000 0.000000 0.000000 0.032451 0.000000 -0.017287
# 5 0.004677 0.001140 0.005042 0.000000 0.030069 0.000000
# 6 0.000000 0.000000 0.000000 -0.017287 0.000000 0.100037
#
#
# Mechanical properties :
#
#
# Convention : Reuss Voigt Hill
#
# Bulk Modulus (GPa) = 14.88711 31.44010 23.16361
# Shear Modulus (GPa) = 18.42185 27.36413 22.89299
#
# Velocity S-wave (km/s) = 2.87522 3.50426 3.20521
# Velocity P-wave (km/s) = 4.20752 5.52105 4.90842
#
# Compressibility (1/GPa) = 0.06717221
#
# Stress axis : x y z
#
# Youngs Moduli (GPa) = 20.42535 78.90047 65.84176
#
# Poissons Ratio (x) = 0.31017 -0.30327
# Poissons Ratio (y) = 0.08030 0.36207
# Poissons Ratio (z) = -0.09408 0.43389
#
# Static dielectric constant tensor:
#      x y z
#    x 1.852950 0.000000 -0.013430 
#    y 0.000000 1.859940 0.000000 
#    z -0.013430 0.000000 1.937410 
# 
# From -- ./inp_files/261417.got.cif
#   From: 2010.05.17/outbox.cif.g08.bks.cpg/sg15_131_cif.got.tgz:261417.got - 2010.06.03 18:47:42.
