data_PCOD9297228
_publ_section_title
;
Structure prediction by ZEFSAII (Michael W. Deem and Ramdas Pophale) SiO2 
 PCOD9297228
Probable space group: C 2/C
;
_chemical_formula_sum "Si O2"
_cell_formula_units_Z 44
_cell_length_a 12.875453
_cell_length_b 18.306864
_cell_length_c 9.247404
_cell_angle_alpha 90.000000
_cell_angle_beta 76.527008
_cell_angle_gamma 90.000000
_cell_volume 2119.712288
_symmetry_space_group_name_H-M "C 2/C"
_symmetry_group_IT_number 15
_symmetry_cell_setting 'monoclinic'
loop_
_space_group_symop_operation_xyz
x,y,z
-x,y,1/2-z
-x,-y,-z
x,-y,1/2+z
1/2+x,1/2+y,z
1/2-x,1/2+y,1/2-z
1/2-x,1/2-y,-z
1/2+x,1/2-y,1/2+z
loop_
_atom_site_type_symbol
_atom_site_label
_atom_site_fract_x
_atom_site_fract_y
_atom_site_fract_z
Si Si1 0.500000 0.006951 0.250000
Si Si2 0.349816 0.023242 0.539056
Si Si3 0.735552 0.841712 0.348589
Si Si4 0.925751 0.744260 0.400989
Si Si5 0.571439 0.722241 0.084456
Si Si6 0.286445 0.857922 0.488244
O O1 0.412195 0.046555 0.374386
O O2 0.569387 0.966287 0.351137
O O3 0.251452 0.076673 0.594247
O O4 0.318958 0.938427 0.529727
O O5 0.831194 0.787971 0.353738
O O6 0.631715 0.809025 0.464757
O O7 0.722614 0.850963 0.182183
O O8 0.000000 0.712180 0.250000
O O9 0.995731 0.799716 0.476321
O O10 0.500000 0.731830 0.250000
O O11 0.622732 0.798162 0.009920
O O12 0.672197 0.669991 0.083747
#
# Coordination Sequence:
#
# PCOD9297228 Si02
#       6
#     4   8   8   8   8   8
#     4  10  24  36  60  98 122 174 200 254 330 376
#     4  11  24  41  63  94 134 166 214 260 326 374
#     4  11  24  43  64  97 132 166 214 271 310 383
#     4  11  24  42  69  93 127 171 218 262 320 377
#     4  11  24  42  69  93 127 171 214 262 325 376
#     4  11  24  44  64  96 134 166 212 271 313 384
#
# _framework density 20.757534
#
# number of rings (size 3 to 8) (size 9 to 14) (size 15 to 20)
#    0.000    1.091    5.455    0.000    7.636    1.455 
#    0.000    1.818    0.000    0.000    0.000    0.000 
#    0.000    0.000    0.000    0.000    0.000    0.000 
#
# Total GULP energy -122762.246102 kJ/mol
# GULP energy per Si atom -5580.102096 kJ/mol
# Density = 2.071029 g / cm^3
# Si number density = 20.757534 Si / 1000 Ang^3
#
#
#
# Elastic Constant Matrix: (Units=GPa)
#
#
# Indices 1 2 3 4 5 6 
#
# 1 80.7059 29.3287 40.2744 0.0000 -14.7514 0.0000
# 2 29.3287 96.7098 20.7212 0.0000 -11.6250 0.0000
# 3 40.2744 20.7212 118.2449 0.0000 -6.1798 0.0000
# 4 0.0000 0.0000 0.0000 18.6611 0.0000 -4.4473
# 5 -14.7514 -11.6250 -6.1798 0.0000 39.2572 0.0000
# 6 0.0000 0.0000 0.0000 -4.4473 0.0000 4.6850
#
#
#
# Elastic Compliance Matrix: (Units=1/GPa)
#
#
# Indices 1 2 3 4 5 6 
#
# 1 0.016965 -0.003544 -0.004920 0.000000 0.004551 0.000000
# 2 -0.003544 0.011824 -0.000758 0.000000 0.002050 0.000000
# 3 -0.004920 -0.000758 0.010241 0.000000 -0.000461 0.000000
# 4 0.000000 0.000000 0.000000 0.069255 0.000000 0.065742
# 5 0.004551 0.002050 -0.000461 0.000000 0.027718 0.000000
# 6 0.000000 0.000000 0.000000 0.065742 0.000000 0.275854
#
#
# Mechanical properties :
#
#
# Convention : Reuss Voigt Hill
#
# Bulk Modulus (GPa) = 48.57184 52.92326 50.74755
# Shear Modulus (GPa) = 11.43739 26.20973 18.82356
#
# Velocity S-wave (km/s) = 2.34988 3.55725 3.01463
# Velocity P-wave (km/s) = 5.55095 6.51332 6.05129
#
# Compressibility (1/GPa) = 0.02058806
#
# Stress axis : x y z
#
# Youngs Moduli (GPa) = 58.94368 84.57533 97.64348
#
# Poissons Ratio (x) = 0.29972 0.48036
# Poissons Ratio (y) = 0.20889 0.07399
# Poissons Ratio (z) = 0.28998 0.06409
#
# Static dielectric constant tensor:
#      x y z
#    x 1.762680 0.000000 -0.002670 
#    y 0.000000 1.752770 0.000000 
#    z -0.002670 0.000000 1.757970 
# 
# From -- ./inp_files/39052.got.cif
#   From: 2010.05.17/outbox.cif.g08.bks.cpg/sg15_20_cif.got.tgz:39052.got - 2010.06.03 18:47:42.
