data_PCOD9297350
_publ_section_title
;
Structure prediction by ZEFSAII (Michael W. Deem and Ramdas Pophale) SiO2 
 PCOD9297350
Probable space group: C 2/C
;
_chemical_formula_sum "Si O2"
_cell_formula_units_Z 32
_cell_length_a 9.350828
_cell_length_b 5.231916
_cell_length_c 30.372402
_cell_angle_alpha 90.000000
_cell_angle_beta 63.556341
_cell_angle_gamma 90.000000
_cell_volume 1330.435470
_symmetry_space_group_name_H-M "C 2/C"
_symmetry_group_IT_number 15
_symmetry_cell_setting 'monoclinic'
loop_
_space_group_symop_operation_xyz
x,y,z
-x,y,1/2-z
-x,-y,-z
x,-y,1/2+z
1/2+x,1/2+y,z
1/2-x,1/2+y,1/2-z
1/2-x,1/2-y,-z
1/2+x,1/2-y,1/2+z
loop_
_atom_site_type_symbol
_atom_site_label
_atom_site_fract_x
_atom_site_fract_y
_atom_site_fract_z
Si Si1 0.112019 0.252684 0.982046
Si Si2 0.627053 0.297400 0.135358
Si Si3 0.380572 0.559890 0.610118
Si Si4 0.593046 0.806107 0.192231
O O1 0.179399 0.220928 0.923265
O O2 0.250000 0.250000 0.000000
O O3 0.000000 0.500000 0.000000
O O4 0.000000 0.000000 0.000000
O O5 0.560862 0.375395 0.096798
O O6 0.581486 0.523744 0.174444
O O7 0.550211 0.029846 0.163238
O O8 0.815566 0.224664 0.110378
O O9 0.283012 0.639247 0.667433
O O10 0.500000 0.835623 0.250000
#
# Coordination Sequence:
#
# PCOD9297350 Si02
#       4
#     8   8   8   8
#     4  12  28  46  76 106 143 186 239 292 358 420
#     4  10  24  39  70  94 141 175 229 278 351 403
#     4  10  26  43  71  98 142 177 234 285 349 413
#     4  10  24  42  68  99 135 181 226 283 345 412
#
# _framework density 24.052275999999999
#
# number of rings (size 3 to 8) (size 9 to 14) (size 15 to 20)
#    1.500    0.000    0.000    3.000   10.500    2.000 
#    0.000    0.000    0.000    0.000    0.000    0.000 
#    0.000    0.000    0.000    0.000    0.000    0.000 
#
# Total GULP energy -89229.147684 kJ/mol
# GULP energy per Si atom -5576.821730 kJ/mol
# Density = 2.399753 g / cm^3
# Si number density = 24.052276 Si / 1000 Ang^3
#
#
#
# Elastic Constant Matrix: (Units=GPa)
#
#
# Indices 1 2 3 4 5 6 
#
# 1 154.7930 76.2933 8.8830 0.0000 28.5657 0.0000
# 2 76.2933 187.9816 39.1923 -0.0001 2.3159 0.0000
# 3 8.8830 39.1923 94.8295 -0.0001 -10.7583 0.0000
# 4 0.0000 -0.0001 -0.0001 36.0704 0.0000 -0.7704
# 5 28.5657 2.3159 -10.7583 0.0000 26.4097 0.0000
# 6 0.0000 0.0000 0.0000 -0.7704 0.0000 41.6544
#
#
#
# Elastic Compliance Matrix: (Units=1/GPa)
#
#
# Indices 1 2 3 4 5 6 
#
# 1 0.010568 -0.004022 -0.000613 0.000000 -0.011328 0.000000
# 2 -0.004022 0.007414 -0.002378 0.000000 0.002731 0.000000
# 3 -0.000613 -0.002378 0.012250 0.000000 0.005862 0.000000
# 4 0.000000 0.000000 0.000000 0.027735 0.000000 0.000513
# 5 -0.011328 0.002731 0.005862 0.000000 0.052266 0.000000
# 6 0.000000 0.000000 0.000000 0.000513 0.000000 0.024017
#
#
# Mechanical properties :
#
#
# Convention : Reuss Voigt Hill
#
# Bulk Modulus (GPa) = 61.69824 76.26013 68.97919
# Shear Modulus (GPa) = 32.53591 41.70926 37.12259
#
# Velocity S-wave (km/s) = 3.68192 4.16878 3.93289
# Velocity P-wave (km/s) = 6.61686 7.41259 7.02600
#
# Compressibility (1/GPa) = 0.01620792
#
# Stress axis : x y z
#
# Youngs Moduli (GPa) = 94.62448 134.88067 81.63082
#
# Poissons Ratio (x) = 0.54246 0.05003
# Poissons Ratio (y) = 0.38056 0.19408
# Poissons Ratio (z) = 0.05800 0.32068
#
# Static dielectric constant tensor:
#      x y z
#    x 2.038340 0.000000 -0.041930 
#    y 0.000000 1.947330 0.000000 
#    z -0.041930 0.000000 2.010180 
# 
# From -- ./inp_files/306229.got.cif
#   From: 2010.05.17/outbox.cif.g08.bks.cpg/sg15_154_cif.got.tgz:306229.got - 2010.06.03 18:47:42.
