data_PCOD9297472
_publ_section_title
;
Structure prediction by ZEFSAII (Michael W. Deem and Ramdas Pophale) SiO2 
 PCOD9297472
Probable space group: C 2/C
;
_chemical_formula_sum "Si O2"
_cell_formula_units_Z 52
_cell_length_a 9.824352
_cell_length_b 11.335028
_cell_length_c 30.058518
_cell_angle_alpha 90.000000
_cell_angle_beta 44.799501
_cell_angle_gamma 90.000000
_cell_volume 2358.598357
_symmetry_space_group_name_H-M "C 2/C"
_symmetry_group_IT_number 15
_symmetry_cell_setting 'monoclinic'
loop_
_space_group_symop_operation_xyz
x,y,z
-x,y,1/2-z
-x,-y,-z
x,-y,1/2+z
1/2+x,1/2+y,z
1/2-x,1/2+y,1/2-z
1/2-x,1/2-y,-z
1/2+x,1/2-y,1/2+z
loop_
_atom_site_type_symbol
_atom_site_label
_atom_site_fract_x
_atom_site_fract_y
_atom_site_fract_z
Si Si1 0.584059 0.628303 0.580278
Si Si2 0.000000 0.447776 0.750000
Si Si3 0.783075 0.516852 0.615360
Si Si4 0.480311 0.297164 0.806689
Si Si5 0.156367 0.607421 0.063319
Si Si6 0.288539 0.275484 0.303994
Si Si7 0.311277 0.932608 0.362798
O O1 0.728039 0.559837 0.579239
O O2 0.664514 0.626159 0.511350
O O3 0.585850 0.764016 0.596203
O O4 0.373656 0.568749 0.627113
O O5 0.154744 0.355991 0.693235
O O6 0.990814 0.531537 0.709403
O O7 0.607077 0.428159 0.668845
O O8 0.810965 0.632813 0.640205
O O9 0.978650 0.444835 0.576493
O O10 0.500000 0.273539 0.750000
O O11 0.679740 0.263158 0.784565
O O12 0.335544 0.207015 0.865541
O O13 0.207093 0.515765 0.090542
O O14 0.500000 0.332161 0.250000
#
# Coordination Sequence:
#
# PCOD9297472 Si02
#       7
#     8   4   8   8   8   8   8
#     4  11  26  46  72 101 136 185 233 293 343 398
#     4  10  24  40  68  98 134 180 224 272 348 406
#     4  12  24  45  71 101 138 179 234 283 347 412
#     4  12  26  41  68 104 140 181 224 280 348 418
#     4  11  25  47  71 101 137 183 238 287 345 406
#     4  10  25  43  65  97 137 181 218 281 343 408
#     4  12  23  44  70 100 143 181 228 282 347 410
#
# _framework density 22.046993000000001
#
# number of rings (size 3 to 8) (size 9 to 14) (size 15 to 20)
#    0.462    0.308    3.846    3.231    4.308    1.231 
#    0.000    0.769    0.000    0.000    0.000    0.000 
#    0.000    0.000    0.000    0.000    0.000    0.000 
#
# Total GULP energy -144798.239104 kJ/mol
# GULP energy per Si atom -5569.163042 kJ/mol
# Density = 2.199681 g / cm^3
# Si number density = 22.046993 Si / 1000 Ang^3
#
#
#
# Elastic Constant Matrix: (Units=GPa)
#
#
# Indices 1 2 3 4 5 6 
#
# 1 98.1819 22.4768 4.2820 0.0000 11.5446 0.0000
# 2 22.4768 135.9925 27.8836 0.0000 12.0240 0.0000
# 3 4.2820 27.8836 47.9758 0.0000 10.3189 -0.0001
# 4 0.0000 0.0000 0.0000 -61.2599 0.0000 -100.2114
# 5 11.5446 12.0240 10.3189 0.0000 32.4073 0.0001
# 6 0.0000 0.0000 -0.0001 -100.2114 0.0001 -90.3418
#
#
#
# Elastic Compliance Matrix: (Units=1/GPa)
#
#
# Indices 1 2 3 4 5 6 
#
# 1 0.010945 -0.001649 0.000739 0.000000 -0.003522 0.000000
# 2 -0.001649 0.008681 -0.004650 0.000000 -0.001153 0.000000
# 3 0.000739 -0.004650 0.024869 0.000000 -0.006457 0.000000
# 4 0.000000 0.000000 0.000000 0.020040 0.000000 -0.022230
# 5 -0.003522 -0.001153 -0.006457 0.000000 0.034596 0.000000
# 6 0.000000 0.000000 0.000000 -0.022230 0.000000 0.013589
#
#
# Mechanical properties :
#
#
# Convention : Reuss Voigt Hill
#
# Bulk Modulus (GPa) = 29.96277 43.49277 36.72777
# Shear Modulus (GPa) = 37.04633 -8.67168 14.18733
#
# Velocity S-wave (km/s) = 4.10364 -1.98540 2.53949
# Velocity P-wave (km/s) = 6.00608 3.80977 5.02928
#
# Compressibility (1/GPa) = 0.03337475
#
# Stress axis : x y z
#
# Youngs Moduli (GPa) = 91.36900 115.18952 40.21000
#
# Poissons Ratio (x) = 0.18995 -0.02972
# Poissons Ratio (y) = 0.15067 0.18700
# Poissons Ratio (z) = -0.06754 0.53569
#
# Static dielectric constant tensor:
#      x y z
#    x 1.858990 0.000000 -0.054620 
#    y 0.000000 1.858440 0.000000 
#    z -0.054620 0.000000 1.861040 
# 
# From -- ./inp_files/287890.got.cif
#   From: 2010.05.17/outbox.cif.g08.bks.cpg/sg15_144_cif.got.tgz:287890.got - 2010.06.03 18:47:42.
