data_PCOD9297108
_publ_section_title
;
Structure prediction by ZEFSAII (Michael W. Deem and Ramdas Pophale) SiO2 
 PCOD9297108
Probable space group: C 2/C
;
_chemical_formula_sum "Si O2"
_cell_formula_units_Z 56
_cell_length_a 6.245590
_cell_length_b 25.173794
_cell_length_c 15.125522
_cell_angle_alpha 90.000000
_cell_angle_beta 94.521903
_cell_angle_gamma 90.000000
_cell_volume 2370.710732
_symmetry_space_group_name_H-M "C 2/C"
_symmetry_group_IT_number 15
_symmetry_cell_setting 'monoclinic'
loop_
_space_group_symop_operation_xyz
x,y,z
-x,y,1/2-z
-x,-y,-z
x,-y,1/2+z
1/2+x,1/2+y,z
1/2-x,1/2+y,1/2-z
1/2-x,1/2-y,-z
1/2+x,1/2-y,1/2+z
loop_
_atom_site_type_symbol
_atom_site_label
_atom_site_fract_x
_atom_site_fract_y
_atom_site_fract_z
Si Si1 0.335332 0.668733 0.401981
Si Si2 0.198685 0.580337 0.824801
Si Si3 0.573944 0.477900 0.407618
Si Si4 0.401409 0.118182 0.942806
Si Si5 0.000000 0.829695 0.250000
Si Si6 0.500000 0.853569 0.750000
Si Si7 0.658324 0.414514 0.839088
Si Si8 0.618119 0.776016 0.160251
O O1 0.176749 0.647524 0.471870
O O2 0.525013 0.625747 0.397666
O O3 0.422651 0.728641 0.410234
O O4 0.194392 0.674430 0.307283
O O5 0.369581 0.533063 0.838206
O O6 0.334417 0.631259 0.794630
O O7 0.000000 0.572058 0.750000
O O8 0.112333 0.584902 0.923545
O O9 0.500000 0.500000 0.500000
O O10 0.709204 0.423443 0.416392
O O11 0.705286 0.526966 0.373979
O O12 0.451280 0.167022 0.878816
O O13 0.131455 0.790490 0.317455
O O14 0.379959 0.888725 0.818126
O O15 0.500000 0.418179 0.750000
O O16 0.500000 0.765300 0.250000
#
# Coordination Sequence:
#
# PCOD9297108 Si02
#       8
#     8   8   8   8   4   4   8   8
#     4  11  25  45  70 103 144 190 239 303 364 439
#     4  12  25  47  74 105 143 188 241 301 366 440
#     4  12  27  47  72 106 149 191 237 313 369 427
#     4  12  25  44  70 108 144 183 243 304 367 435
#     4  12  21  46  70 106 140 184 241 298 362 438
#     4  10  23  48  68  98 138 196 247 278 358 440
#     4  10  24  45  67  98 141 190 245 293 352 443
#     4  12  23  44  73 104 144 187 238 299 368 441
#
# _framework density 23.621607999999998
#
# number of rings (size 3 to 8) (size 9 to 14) (size 15 to 20)
#    0.000    0.571    5.714    2.143    5.000    2.857 
#    2.571    0.714    0.000    0.000    0.000    0.000 
#    0.000    0.000    0.000    0.000    0.000    0.000 
#
# Total GULP energy -156289.545876 kJ/mol
# GULP energy per Si atom -5581.769496 kJ/mol
# Density = 2.356784 g / cm^3
# Si number density = 23.621608 Si / 1000 Ang^3
#
#
#
# Elastic Constant Matrix: (Units=GPa)
#
#
# Indices 1 2 3 4 5 6 
#
# 1 75.0384 36.1380 31.5325 0.0000 -14.5784 0.0000
# 2 36.1380 118.5058 32.3172 0.0000 -2.6916 0.0000
# 3 31.5325 32.3172 94.0210 0.0000 -38.8560 0.0000
# 4 0.0000 0.0000 0.0000 30.7212 0.0000 2.0778
# 5 -14.5784 -2.6916 -38.8560 0.0000 38.2404 0.0000
# 6 0.0000 0.0000 0.0000 2.0778 0.0000 14.5278
#
#
#
# Elastic Compliance Matrix: (Units=1/GPa)
#
#
# Indices 1 2 3 4 5 6 
#
# 1 0.017324 -0.004412 -0.002918 0.000000 0.003329 0.000000
# 2 -0.004412 0.010901 -0.004561 0.000000 -0.005548 0.000000
# 3 -0.002918 -0.004561 0.021704 0.000000 0.020619 0.000000
# 4 0.000000 0.000000 0.000000 0.032869 0.000000 -0.004701
# 5 0.003329 -0.005548 0.020619 0.000000 0.047980 0.000000
# 6 0.000000 0.000000 0.000000 -0.004701 0.000000 0.069506
#
#
# Mechanical properties :
#
#
# Convention : Reuss Voigt Hill
#
# Bulk Modulus (GPa) = 38.24267 54.17116 46.20691
# Shear Modulus (GPa) = 21.47947 29.20303 25.34125
#
# Velocity S-wave (km/s) = 3.01876 3.51990 3.27892
# Velocity P-wave (km/s) = 5.32685 6.28508 5.82570
#
# Compressibility (1/GPa) = 0.02614880
#
# Stress axis : x y z
#
# Youngs Moduli (GPa) = 57.72335 91.73171 46.07550
#
# Poissons Ratio (x) = 0.40468 0.13445
# Poissons Ratio (y) = 0.25465 0.21013
# Poissons Ratio (z) = 0.16843 0.41834
#
# Static dielectric constant tensor:
#      x y z
#    x 1.926110 0.000000 0.073260 
#    y 0.000000 1.878020 0.000000 
#    z 0.073260 0.000000 1.992170 
# 
# From -- ./inp_files/186156.got.cif
#   From: 2010.05.17/outbox.cif.g08.bks.cpg/sg15_94_cif.got.tgz:186156.got - 2010.06.03 18:47:42.
