data_PCOD9297946
_publ_section_title
;
Structure prediction by ZEFSAII (Michael W. Deem and Ramdas Pophale) SiO2 
 PCOD9297946
Probable space group: C 2/C
;
_chemical_formula_sum "Si O2"
_cell_formula_units_Z 40
_cell_length_a 13.666039
_cell_length_b 14.300122
_cell_length_c 9.221232
_cell_angle_alpha 90.000000
_cell_angle_beta 112.078488
_cell_angle_gamma 90.000000
_cell_volume 1669.922693
_symmetry_space_group_name_H-M "C 2/C"
_symmetry_group_IT_number 15
_symmetry_cell_setting 'monoclinic'
loop_
_space_group_symop_operation_xyz
x,y,z
-x,y,1/2-z
-x,-y,-z
x,-y,1/2+z
1/2+x,1/2+y,z
1/2-x,1/2+y,1/2-z
1/2-x,1/2-y,-z
1/2+x,1/2-y,1/2+z
loop_
_atom_site_type_symbol
_atom_site_label
_atom_site_fract_x
_atom_site_fract_y
_atom_site_fract_z
Si Si1 0.796510 0.603363 0.292196
Si Si2 0.920932 0.771685 0.091229
Si Si3 0.745449 0.317302 0.304881
Si Si4 0.122744 0.441222 0.343060
Si Si5 0.451619 0.416759 0.880971
O O1 0.791099 0.715782 0.275287
O O2 0.859425 0.546009 0.205450
O O3 0.844903 0.572737 0.472624
O O4 0.674084 0.574495 0.206943
O O5 0.853231 0.847373 0.149382
O O6 0.000000 0.728763 0.250000
O O7 0.838942 0.702850 0.970996
O O8 0.975126 0.824377 0.988765
O O9 0.795597 0.379984 0.208616
O O10 0.000000 0.414316 0.250000
O O11 0.500000 0.410234 0.750000
O O12 0.500000 0.500000 0.000000
#
# Coordination Sequence:
#
# PCOD9297946 Si02
#       5
#     8   8   8   8   8
#     4  11  27  48  74 106 152 187 247 308 365 442
#     4  10  24  42  73 101 146 185 237 296 373 432
#     4  10  26  47  72 108 146 194 245 301 368 442
#     4  12  28  48  78 105 145 200 253 300 368 441
#     4  11  24  41  70 108 145 184 234 298 375 438
#
# _framework density 23.953203999999999
#
# number of rings (size 3 to 8) (size 9 to 14) (size 15 to 20)
#    0.000    1.200    0.000    3.000   19.600    4.000 
#    0.000    0.000    0.000    0.000    0.000    0.000 
#    0.000    0.000    0.000    0.000    0.000    0.000 
#
# Total GULP energy -111997.570923 kJ/mol
# GULP energy per Si atom -5599.878546 kJ/mol
# Density = 2.389869 g / cm^3
# Si number density = 23.953204 Si / 1000 Ang^3
#
#
#
# Elastic Constant Matrix: (Units=GPa)
#
#
# Indices 1 2 3 4 5 6 
#
# 1 93.1452 34.7704 38.8391 0.0000 -10.3698 0.0000
# 2 34.7704 108.6684 52.7629 0.0000 -18.2479 0.0000
# 3 38.8391 52.7629 205.6729 0.0000 2.1593 0.0000
# 4 0.0000 0.0000 0.0000 18.7552 0.0000 -11.4950
# 5 -10.3698 -18.2479 2.1593 0.0000 51.8318 0.0000
# 6 0.0000 0.0000 0.0000 -11.4950 0.0000 36.4159
#
#
#
# Elastic Compliance Matrix: (Units=1/GPa)
#
#
# Indices 1 2 3 4 5 6 
#
# 1 0.012719 -0.003009 -0.001646 0.000000 0.001554 0.000000
# 2 -0.003009 0.012036 -0.002559 0.000000 0.003742 0.000000
# 3 -0.001646 -0.002559 0.005845 0.000000 -0.001474 0.000000
# 4 0.000000 0.000000 0.000000 0.066108 0.000000 0.020868
# 5 0.001554 0.003742 -0.001474 0.000000 0.020983 0.000000
# 6 0.000000 0.000000 0.000000 0.020868 0.000000 0.034048
#
#
# Mechanical properties :
#
#
# Convention : Reuss Voigt Hill
#
# Bulk Modulus (GPa) = 61.83885 73.35902 67.59893
# Shear Modulus (GPa) = 29.14490 40.14154 34.64322
#
# Velocity S-wave (km/s) = 3.49197 4.09813 3.80713
# Velocity P-wave (km/s) = 6.49084 7.28597 6.89987
#
# Compressibility (1/GPa) = 0.01617106
#
# Stress axis : x y z
#
# Youngs Moduli (GPa) = 78.62465 83.08479 171.09252
#
# Poissons Ratio (x) = 0.25004 0.28163
# Poissons Ratio (y) = 0.23662 0.43777
# Poissons Ratio (z) = 0.12942 0.21258
#
# Static dielectric constant tensor:
#      x y z
#    x 1.973350 0.000000 -0.016940 
#    y 0.000000 1.955290 0.000000 
#    z -0.016940 0.000000 1.866170 
# 
# From -- ./inp_files/38026.got.cif
#   From: 2010.05.17/outbox.cif.g08.bks.cpg/sg15_20_cif.got.tgz:38026.got - 2010.06.03 18:47:42.
