data_PCOD9297387
_publ_section_title
;
Structure prediction by ZEFSAII (Michael W. Deem and Ramdas Pophale) SiO2 
 PCOD9297387
Probable space group: C 2/C
;
_chemical_formula_sum "Si O2"
_cell_formula_units_Z 48
_cell_length_a 12.054171
_cell_length_b 18.461624
_cell_length_c 11.582809
_cell_angle_alpha 90.000000
_cell_angle_beta 93.442600
_cell_angle_gamma 90.000000
_cell_volume 2572.981915
_symmetry_space_group_name_H-M "C 2/C"
_symmetry_group_IT_number 15
_symmetry_cell_setting 'monoclinic'
loop_
_space_group_symop_operation_xyz
x,y,z
-x,y,1/2-z
-x,-y,-z
x,-y,1/2+z
1/2+x,1/2+y,z
1/2-x,1/2+y,1/2-z
1/2-x,1/2-y,-z
1/2+x,1/2-y,1/2+z
loop_
_atom_site_type_symbol
_atom_site_label
_atom_site_fract_x
_atom_site_fract_y
_atom_site_fract_z
Si Si1 0.195459 0.333748 0.627060
Si Si2 0.962305 0.079754 0.541105
Si Si3 0.441663 0.977696 0.873930
Si Si4 0.877228 0.906441 0.799094
Si Si5 0.182526 0.831342 0.110959
Si Si6 0.223966 0.947387 0.283826
O O1 0.098635 0.393773 0.625874
O O2 0.294136 0.357140 0.720245
O O3 0.161051 0.251078 0.646252
O O4 0.248921 0.334608 0.503093
O O5 0.899054 0.117016 0.430645
O O6 0.878141 0.069722 0.639569
O O7 0.067977 0.126246 0.583475
O O8 0.000000 0.000000 0.500000
O O9 0.500000 0.988870 0.750000
O O10 0.329227 0.024760 0.860521
O O11 0.500000 0.000000 0.000000
O O12 0.000000 0.911298 0.750000
O O13 0.818208 0.985020 0.795712
O O14 0.248733 0.877483 0.209593
#
# Coordination Sequence:
#
# PCOD9297387 Si02
#       6
#     8   8   8   8   8   8
#     4  10  24  40  63  85 131 165 202 249 310 374
#     4  12  20  34  65  96 122 149 202 257 313 355
#     4  11  25  44  65  88 123 174 218 255 307 381
#     4  11  19  36  60  95 121 157 197 252 304 365
#     4  11  21  41  60  96 125 160 197 257 314 366
#     4  11  23  36  65  91 121 153 208 260 306 358
#
# _framework density 18.655397000000001
#
# number of rings (size 3 to 8) (size 9 to 14) (size 15 to 20)
#    0.000    1.000    5.000    2.500    4.667    1.333 
#    3.000    1.667    0.000    0.000    0.000    0.000 
#    0.000    0.000    0.000    0.000    0.000    0.000 
#
# Total GULP energy -133963.127926 kJ/mol
# GULP energy per Si atom -5581.796997 kJ/mol
# Density = 1.861294 g / cm^3
# Si number density = 18.655397 Si / 1000 Ang^3
#
#
#
# Elastic Constant Matrix: (Units=GPa)
#
#
# Indices 1 2 3 4 5 6 
#
# 1 68.0973 40.8620 13.2064 0.0000 17.2809 0.0000
# 2 40.8620 140.8590 34.7799 0.0000 16.5783 0.0000
# 3 13.2064 34.7799 73.9678 0.0000 19.1954 0.0000
# 4 0.0000 0.0000 0.0000 22.8871 0.0000 -3.5629
# 5 17.2809 16.5783 19.1954 0.0000 38.6151 0.0000
# 6 0.0000 0.0000 0.0000 -3.5629 0.0000 23.7274
#
#
#
# Elastic Compliance Matrix: (Units=1/GPa)
#
#
# Indices 1 2 3 4 5 6 
#
# 1 0.019256 -0.004946 0.000658 0.000000 -0.006821 0.000000
# 2 -0.004946 0.009413 -0.003523 0.000000 -0.000077 0.000000
# 3 0.000658 -0.003523 0.016926 0.000000 -0.007196 0.000000
# 4 0.000000 0.000000 0.000000 0.044738 0.000000 0.006718
# 5 -0.006821 -0.000077 -0.007196 0.000000 0.032559 0.000000
# 6 0.000000 0.000000 0.000000 0.006718 0.000000 0.043154
#
#
# Mechanical properties :
#
#
# Convention : Reuss Voigt Hill
#
# Bulk Modulus (GPa) = 33.36400 51.18009 42.27204
# Shear Modulus (GPa) = 26.08800 29.98432 28.03616
#
# Velocity S-wave (km/s) = 3.74360 4.01343 3.88086
# Velocity P-wave (km/s) = 6.05055 6.99792 6.54141
#
# Compressibility (1/GPa) = 0.02997243
#
# Stress axis : x y z
#
# Youngs Moduli (GPa) = 51.93222 106.23764 59.08114
#
# Poissons Ratio (x) = 0.52540 -0.03885
# Poissons Ratio (y) = 0.25683 0.20815
# Poissons Ratio (z) = -0.03415 0.37428
#
# Static dielectric constant tensor:
#      x y z
#    x 1.605850 0.000000 0.053650 
#    y 0.000000 1.650630 0.000000 
#    z 0.053650 0.000000 1.611530 
# 
# From -- ./inp_files/87228.got.cif
#   From: 2010.05.17/outbox.cif.g08.bks.cpg/sg15_44_cif.got.tgz:87228.got - 2010.06.03 18:47:42.
