data_PCOD9297074
_publ_section_title
;
Structure prediction by ZEFSAII (Michael W. Deem and Ramdas Pophale) SiO2 
 PCOD9297074
Probable space group: C 2/C
;
_chemical_formula_sum "Si O2"
_cell_formula_units_Z 56
_cell_length_a 5.480725
_cell_length_b 25.168498
_cell_length_c 18.472101
_cell_angle_alpha 90.000000
_cell_angle_beta 105.165305
_cell_angle_gamma 90.000000
_cell_volume 2459.335092
_symmetry_space_group_name_H-M "C 2/C"
_symmetry_group_IT_number 15
_symmetry_cell_setting 'monoclinic'
loop_
_space_group_symop_operation_xyz
x,y,z
-x,y,1/2-z
-x,-y,-z
x,-y,1/2+z
1/2+x,1/2+y,z
1/2-x,1/2+y,1/2-z
1/2-x,1/2-y,-z
1/2+x,1/2-y,1/2+z
loop_
_atom_site_type_symbol
_atom_site_label
_atom_site_fract_x
_atom_site_fract_y
_atom_site_fract_z
Si Si1 0.147284 0.875663 0.833113
Si Si2 0.495090 0.209706 0.440661
Si Si3 0.304017 0.815366 0.086113
Si Si4 0.000000 0.927138 0.250000
Si Si5 0.406418 0.368143 0.966404
Si Si6 0.000000 0.639963 0.750000
Si Si7 0.380305 0.990307 0.818213
Si Si8 0.222425 0.477288 0.969711
O O1 0.337592 0.831781 0.879211
O O2 0.274885 0.931035 0.820945
O O3 0.000000 0.856707 0.750000
O O4 0.978501 0.885998 0.891173
O O5 0.450741 0.201162 0.523588
O O6 0.387847 0.266939 0.411239
O O7 0.779811 0.189893 0.449714
O O8 0.462880 0.829075 0.170216
O O9 0.134424 0.863387 0.040892
O O10 0.767389 0.892101 0.263195
O O11 0.844657 0.967693 0.185667
O O12 0.222444 0.413798 0.979776
O O13 0.500000 0.997910 0.750000
O O14 0.625386 0.995443 0.885292
O O15 0.500000 0.500000 0.000000
O O16 0.000000 0.500000 0.000000
#
# Coordination Sequence:
#
# PCOD9297074 Si02
#       8
#     8   8   8   4   8   4   8   8
#     4  11  23  41  72 108 147 186 248 308 379 453
#     4  10  23  47  75 108 146 194 250 322 386 442
#     4  10  26  48  75 105 149 197 256 313 385 452
#     4  12  30  48  75 108 157 208 252 316 380 454
#     4  11  24  45  71 109 144 199 244 316 382 448
#     4  12  30  52  77 112 149 208 262 308 378 474
#     4  12  26  48  74 107 153 200 252 309 390 453
#     4  12  29  43  72 108 147 194 253 308 364 452
#
# _framework density 22.770379999999999
#
# number of rings (size 3 to 8) (size 9 to 14) (size 15 to 20)
#    0.000    0.857    2.857    2.143   11.000    0.000 
#    0.000    0.000    0.000    0.000    0.000    0.000 
#    0.000    0.000    0.000    0.000    0.000    0.000 
#
# Total GULP energy -156363.974754 kJ/mol
# GULP energy per Si atom -5584.427670 kJ/mol
# Density = 2.271855 g / cm^3
# Si number density = 22.770380 Si / 1000 Ang^3
#
#
#
# Elastic Constant Matrix: (Units=GPa)
#
#
# Indices 1 2 3 4 5 6 
#
# 1 100.7651 38.4402 42.8237 0.0000 20.6735 0.0000
# 2 38.4402 92.0399 43.6203 0.0000 13.2450 0.0000
# 3 42.8237 43.6203 184.8761 0.0000 28.9986 0.0000
# 4 0.0000 0.0000 0.0000 20.3166 0.0000 14.9488
# 5 20.6735 13.2450 28.9986 0.0000 35.9092 0.0000
# 6 0.0000 0.0000 0.0000 14.9488 0.0000 29.0759
#
#
#
# Elastic Compliance Matrix: (Units=1/GPa)
#
#
# Indices 1 2 3 4 5 6 
#
# 1 0.013062 -0.004138 -0.001270 0.000000 -0.004968 0.000000
# 2 -0.004138 0.013743 -0.002133 0.000000 -0.000964 0.000000
# 3 -0.001270 -0.002133 0.006834 0.000000 -0.004001 0.000000
# 4 0.000000 0.000000 0.000000 0.079170 0.000000 -0.040704
# 5 -0.004968 -0.000964 -0.004001 0.000000 0.034295 0.000000
# 6 0.000000 0.000000 0.000000 -0.040704 0.000000 0.055320
#
#
# Mechanical properties :
#
#
# Convention : Reuss Voigt Hill
#
# Bulk Modulus (GPa) = 53.88966 69.71660 61.80313
# Shear Modulus (GPa) = 22.35228 33.91347 28.13288
#
# Velocity S-wave (km/s) = 3.13651 3.86342 3.51879
# Velocity P-wave (km/s) = 6.06917 7.11232 6.61135
#
# Compressibility (1/GPa) = 0.01855644
#
# Stress axis : x y z
#
# Youngs Moduli (GPa) = 76.55942 72.76566 146.32833
#
# Poissons Ratio (x) = 0.30114 0.18582
# Poissons Ratio (y) = 0.31684 0.31207
# Poissons Ratio (z) = 0.09722 0.15519
#
# Static dielectric constant tensor:
#      x y z
#    x 1.884310 0.000000 0.031160 
#    y 0.000000 1.905290 0.000000 
#    z 0.031160 0.000000 1.807510 
# 
# From -- ./inp_files/186259.got.cif
#   From: 2010.05.17/outbox.cif.g08.bks.cpg/sg15_94_cif.got.tgz:186259.got - 2010.06.03 18:47:42.
