data_PCOD9297724
_publ_section_title
;
Structure prediction by ZEFSAII (Michael W. Deem and Ramdas Pophale) SiO2 
 PCOD9297724
Probable space group: C 2/C
;
_chemical_formula_sum "Si O2"
_cell_formula_units_Z 52
_cell_length_a 15.150660
_cell_length_b 14.321682
_cell_length_c 13.008878
_cell_angle_alpha 90.000000
_cell_angle_beta 66.977067
_cell_angle_gamma 90.000000
_cell_volume 2597.871556
_symmetry_space_group_name_H-M "C 2/C"
_symmetry_group_IT_number 15
_symmetry_cell_setting 'monoclinic'
loop_
_space_group_symop_operation_xyz
x,y,z
-x,y,1/2-z
-x,-y,-z
x,-y,1/2+z
1/2+x,1/2+y,z
1/2-x,1/2+y,1/2-z
1/2-x,1/2-y,-z
1/2+x,1/2-y,1/2+z
loop_
_atom_site_type_symbol
_atom_site_label
_atom_site_fract_x
_atom_site_fract_y
_atom_site_fract_z
Si Si1 0.296313 0.724532 0.588796
Si Si2 0.244875 0.604719 0.111900
Si Si3 0.621634 0.918505 0.864267
Si Si4 0.863408 0.258739 0.177668
Si Si5 0.096390 0.405361 0.507666
Si Si6 0.500000 0.626644 0.250000
Si Si7 0.907562 0.958507 0.983342
O O1 0.250000 0.750000 0.500000
O O2 0.346253 0.817702 0.608896
O O3 0.210561 0.699085 0.705950
O O4 0.371012 0.640237 0.544808
O O5 0.184097 0.562593 0.234662
O O6 0.302381 0.692309 0.130535
O O7 0.321353 0.530862 0.035219
O O8 0.170973 0.631858 0.056710
O O9 0.634973 0.996755 0.945335
O O10 0.507977 0.918456 0.895412
O O11 0.912782 0.336808 0.085680
O O12 0.936606 0.192829 0.205948
O O13 0.435137 0.563049 0.353125
O O14 0.000000 0.000000 0.000000
#
# Coordination Sequence:
#
# PCOD9297724 Si02
#       7
#     8   8   8   8   8   4   8
#     4  11  22  41  68  98 135 181 225 287 341 413
#     4  11  24  43  66  95 139 177 223 284 344 423
#     4  10  24  42  65  97 133 176 229 282 340 412
#     4  11  24  42  70  98 137 175 232 281 352 412
#     4  11  23  42  66  97 132 178 227 280 345 409
#     4  12  24  44  66 104 136 174 234 294 334 422
#     4  12  25  42  70 102 139 178 230 287 356 412
#
# _framework density 20.016386000000001
#
# number of rings (size 3 to 8) (size 9 to 14) (size 15 to 20)
#    0.000    0.923    3.077    3.692    2.154    1.231 
#    2.769    0.000    0.000    0.000    0.000    0.000 
#    0.000    0.000    0.000    0.000    0.000    0.000 
#
# Total GULP energy -145423.660035 kJ/mol
# GULP energy per Si atom -5593.217694 kJ/mol
# Density = 1.997083 g / cm^3
# Si number density = 20.016386 Si / 1000 Ang^3
#
#
#
# Elastic Constant Matrix: (Units=GPa)
#
#
# Indices 1 2 3 4 5 6 
#
# 1 89.9330 11.2507 30.3665 0.0000 6.4770 0.0000
# 2 11.2507 55.3205 27.5045 0.0000 -8.7112 0.0000
# 3 30.3665 27.5045 97.3979 0.0000 -26.7041 0.0000
# 4 0.0000 0.0000 0.0000 38.8263 0.0000 -9.7693
# 5 6.4770 -8.7112 -26.7041 0.0000 42.7829 0.0000
# 6 0.0000 0.0000 0.0000 -9.7693 0.0000 29.1287
#
#
#
# Elastic Compliance Matrix: (Units=1/GPa)
#
#
# Indices 1 2 3 4 5 6 
#
# 1 0.013500 -0.000899 -0.005508 0.000000 -0.005665 0.000000
# 2 -0.000899 0.021106 -0.005386 0.000000 0.001072 0.000000
# 3 -0.005508 -0.005386 0.016207 0.000000 0.009853 0.000000
# 4 0.000000 0.000000 0.000000 0.028130 0.000000 0.009434
# 5 -0.005665 0.001072 0.009853 0.000000 0.030600 0.000000
# 6 0.000000 0.000000 0.000000 0.009434 0.000000 0.037495
#
#
# Mechanical properties :
#
#
# Convention : Reuss Voigt Hill
#
# Bulk Modulus (GPa) = 36.72929 42.32164 39.52546
# Shear Modulus (GPa) = 27.82437 33.71621 30.77029
#
# Velocity S-wave (km/s) = 3.73242 4.10863 3.92504
# Velocity P-wave (km/s) = 6.07981 6.61039 6.35064
#
# Compressibility (1/GPa) = 0.02722623
#
# Stress axis : x y z
#
# Youngs Moduli (GPa) = 74.07558 47.38000 61.70164
#
# Poissons Ratio (x) = 0.04259 0.33987
# Poissons Ratio (y) = 0.06659 0.33233
# Poissons Ratio (z) = 0.40803 0.25519
#
# Static dielectric constant tensor:
#      x y z
#    x 1.693830 0.000000 -0.017800 
#    y 0.000000 1.688010 0.000000 
#    z -0.017800 0.000000 1.704510 
# 
# From -- ./inp_files/96955.got.cif
#   From: 2010.05.17/outbox.cif.g08.bks.cpg/sg15_49_cif.got.tgz:96955.got - 2010.06.03 18:47:42.
