data_PCOD9297496
_publ_section_title
;
Structure prediction by ZEFSAII (Michael W. Deem and Ramdas Pophale) SiO2 
 PCOD9297496
Probable space group: C 2/C
;
_chemical_formula_sum "Si O2"
_cell_formula_units_Z 56
_cell_length_a 17.441446
_cell_length_b 8.480050
_cell_length_c 17.951182
_cell_angle_alpha 90.000000
_cell_angle_beta 109.064436
_cell_angle_gamma 90.000000
_cell_volume 2509.432588
_symmetry_space_group_name_H-M "C 2/C"
_symmetry_group_IT_number 15
_symmetry_cell_setting 'monoclinic'
loop_
_space_group_symop_operation_xyz
x,y,z
-x,y,1/2-z
-x,-y,-z
x,-y,1/2+z
1/2+x,1/2+y,z
1/2-x,1/2+y,1/2-z
1/2-x,1/2-y,-z
1/2+x,1/2-y,1/2+z
loop_
_atom_site_type_symbol
_atom_site_label
_atom_site_fract_x
_atom_site_fract_y
_atom_site_fract_z
Si Si1 0.171676 0.186555 0.369631
Si Si2 0.545494 0.107952 0.196508
Si Si3 0.010747 0.327727 0.968783
Si Si4 0.124242 0.057151 0.741205
Si Si5 0.368097 0.384724 0.898322
Si Si6 0.842969 0.204362 0.964884
Si Si7 0.189338 0.376948 0.224762
O O1 0.139007 0.222816 0.441546
O O2 0.268598 0.182933 0.418034
O O3 0.168317 0.307748 0.299620
O O4 0.127921 0.035168 0.320188
O O5 0.500000 0.025476 0.250000
O O6 0.476638 0.145287 0.114164
O O7 0.585427 0.272116 0.234996
O O8 0.618660 0.002833 0.187496
O O9 0.923113 0.247926 0.946672
O O10 0.000000 0.500000 0.000000
O O11 0.073073 0.215741 0.030347
O O12 0.218933 0.063001 0.746400
O O13 0.085995 0.961916 0.659114
O O14 0.326854 0.523235 0.934296
O O15 0.312026 0.256612 0.839361
#
# Coordination Sequence:
#
# PCOD9297496 Si02
#       7
#     8   8   8   8   8   8   8
#     4  10  24  40  70  97 132 168 228 288 330 398
#     4  12  27  43  67 105 143 174 230 291 339 408
#     4  12  25  44  65  91 135 180 218 271 344 416
#     4  11  23  44  70  99 131 183 228 278 341 419
#     4  11  23  40  72  90 126 183 222 269 339 407
#     4  11  23  45  65 100 130 173 226 282 335 404
#     4  11  22  45  68  98 134 186 225 275 351 408
#
# _framework density 22.315802000000001
#
# number of rings (size 3 to 8) (size 9 to 14) (size 15 to 20)
#    0.000    0.857    4.286    3.000    4.000    0.000 
#    0.000    3.571    0.000    0.000    0.000    0.000 
#    0.000    0.000    0.000    0.000    0.000    0.000 
#
# Total GULP energy -156346.516522 kJ/mol
# GULP energy per Si atom -5583.804162 kJ/mol
# Density = 2.226501 g / cm^3
# Si number density = 22.315802 Si / 1000 Ang^3
#
#
#
# Elastic Constant Matrix: (Units=GPa)
#
#
# Indices 1 2 3 4 5 6 
#
# 1 27.8943 -2.8398 2.1544 0.0000 -2.9503 0.0000
# 2 -2.8398 59.6477 18.4675 0.0000 17.3113 0.0000
# 3 2.1544 18.4675 124.2472 0.0000 -8.2499 0.0000
# 4 0.0000 0.0000 0.0000 23.3208 0.0000 11.8948
# 5 -2.9503 17.3113 -8.2499 0.0000 26.3344 0.0000
# 6 0.0000 0.0000 0.0000 11.8948 0.0000 23.6599
#
#
#
# Elastic Compliance Matrix: (Units=1/GPa)
#
#
# Indices 1 2 3 4 5 6 
#
# 1 0.036335 0.000952 -0.000554 0.000000 0.003271 0.000000
# 2 0.000952 0.022973 -0.004521 0.000000 -0.016411 0.000000
# 3 -0.000554 -0.004521 0.009113 0.000000 0.005765 0.000000
# 4 0.000000 0.000000 0.000000 0.057667 0.000000 -0.028992
# 5 0.003271 -0.016411 0.005765 0.000000 0.050934 0.000000
# 6 0.000000 0.000000 0.000000 -0.028992 0.000000 0.056841
#
#
# Mechanical properties :
#
#
# Convention : Reuss Voigt Hill
#
# Bulk Modulus (GPa) = 16.61814 27.48371 22.05093
# Shear Modulus (GPa) = 19.07177 27.59682 23.33430
#
# Velocity S-wave (km/s) = 2.92658 3.52042 3.23714
# Velocity P-wave (km/s) = 4.34543 5.37280 4.88619
#
# Compressibility (1/GPa) = 0.06017521
#
# Stress axis : x y z
#
# Youngs Moduli (GPa) = 27.52140 43.52917 109.73589
#
# Poissons Ratio (x) = -0.04145 0.06083
# Poissons Ratio (y) = -0.02620 0.49609
# Poissons Ratio (z) = 0.01526 0.19679
#
# Static dielectric constant tensor:
#      x y z
#    x 1.806310 0.000000 0.006620 
#    y 0.000000 1.895080 0.000000 
#    z 0.006620 0.000000 1.877640 
# 
# From -- ./inp_files/209616.got.cif
#   From: 2010.05.17/outbox.cif.g08.bks.cpg/sg15_105_cif.got.tgz:209616.got - 2010.06.03 18:47:42.
