data_PCOD9297674
_publ_section_title
;
Structure prediction by ZEFSAII (Michael W. Deem and Ramdas Pophale) SiO2 
 PCOD9297674
Probable space group: C 2/C
;
_chemical_formula_sum "Si O2"
_cell_formula_units_Z 52
_cell_length_a 32.635484
_cell_length_b 13.393141
_cell_length_c 9.372804
_cell_angle_alpha 90.000000
_cell_angle_beta 142.746424
_cell_angle_gamma 90.000000
_cell_volume 2479.956357
_symmetry_space_group_name_H-M "C 2/C"
_symmetry_group_IT_number 15
_symmetry_cell_setting 'monoclinic'
loop_
_space_group_symop_operation_xyz
x,y,z
-x,y,1/2-z
-x,-y,-z
x,-y,1/2+z
1/2+x,1/2+y,z
1/2-x,1/2+y,1/2-z
1/2-x,1/2-y,-z
1/2+x,1/2-y,1/2+z
loop_
_atom_site_type_symbol
_atom_site_label
_atom_site_fract_x
_atom_site_fract_y
_atom_site_fract_z
Si Si1 0.000000 0.904311 0.750000
Si Si2 0.391118 0.289841 0.906617
Si Si3 0.523433 0.266837 0.085589
Si Si4 0.145607 0.011811 0.693646
Si Si5 0.734146 0.477985 0.681235
Si Si6 0.176670 0.417851 0.316230
Si Si7 0.453575 0.942120 0.982860
O O1 0.993394 0.837633 0.591810
O O2 0.931442 0.966421 0.557498
O O3 0.354275 0.393368 0.767104
O O4 0.343987 0.193643 0.781374
O O5 0.451646 0.256218 0.968155
O O6 0.426137 0.308553 0.156009
O O7 0.556707 0.165716 0.117042
O O8 0.190889 0.036271 0.681207
O O9 0.177699 0.068541 0.918520
O O10 0.781265 0.536056 0.699248
O O11 0.781871 0.414616 0.919418
O O12 0.112527 0.492031 0.164567
O O13 0.500000 0.927520 0.250000
O O14 0.500000 0.000000 0.000000
#
# Coordination Sequence:
#
# PCOD9297674 Si02
#       7
#     4   8   8   8   8   8   8
#     4  12  24  44  70  94 132 162 224 286 338 368
#     4  11  23  40  67  95 131 175 224 263 334 395
#     4  11  23  38  63 107 131 166 215 278 339 388
#     4  11  24  45  68  95 127 175 222 281 321 393
#     4  10  24  42  63  92 129 174 219 259 335 385
#     4  11  23  42  66  95 135 176 211 267 325 402
#     4  12  22  39  65  98 137 170 212 273 322 382
#
# _framework density 20.968109999999999
#
# number of rings (size 3 to 8) (size 9 to 14) (size 15 to 20)
#    0.000    0.923    2.308    5.538    0.000    4.308 
#    0.000    3.077    0.000    8.308    0.000    0.000 
#    0.000    0.000    0.000    0.000    0.000    0.000 
#
# Total GULP energy -145163.922363 kJ/mol
# GULP energy per Si atom -5583.227783 kJ/mol
# Density = 2.092039 g / cm^3
# Si number density = 20.968110 Si / 1000 Ang^3
#
#
#
# Elastic Constant Matrix: (Units=GPa)
#
#
# Indices 1 2 3 4 5 6 
#
# 1 119.4474 24.9314 42.2093 0.0000 -3.9073 0.0000
# 2 24.9314 79.0070 23.7672 0.0000 5.1201 0.0000
# 3 42.2093 23.7672 129.7954 0.0000 -13.0106 0.0000
# 4 0.0000 0.0000 0.0000 -20.7347 0.0000 -1.3166
# 5 -3.9073 5.1201 -13.0106 0.0000 46.3431 0.0000
# 6 0.0000 0.0000 0.0000 -1.3166 0.0000 23.1824
#
#
#
# Elastic Compliance Matrix: (Units=1/GPa)
#
#
# Indices 1 2 3 4 5 6 
#
# 1 0.009832 -0.002297 -0.002745 0.000000 0.000312 0.000000
# 2 -0.002297 0.014160 -0.002081 0.000000 -0.002342 0.000000
# 3 -0.002745 -0.002081 0.009238 0.000000 0.002592 0.000000
# 4 0.000000 0.000000 0.000000 -0.048055 0.000000 -0.002729
# 5 0.000312 -0.002342 0.002592 0.000000 0.022591 0.000000
# 6 0.000000 0.000000 0.000000 -0.002729 0.000000 0.042981
#
#
# Mechanical properties :
#
#
# Convention : Reuss Voigt Hill
#
# Bulk Modulus (GPa) = 52.67719 56.67395 54.67557
# Shear Modulus (GPa) = 70.10682 25.58097 47.84389
#
# Velocity S-wave (km/s) = 5.78857 3.49663 4.78194
# Velocity P-wave (km/s) = 8.35786 6.58705 7.52473
#
# Compressibility (1/GPa) = 0.01898355
#
# Stress axis : x y z
#
# Youngs Moduli (GPa) = 101.71254 70.62357 108.24809
#
# Poissons Ratio (x) = 0.16221 0.29718
# Poissons Ratio (y) = 0.23361 0.22523
# Poissons Ratio (z) = 0.27924 0.14694
#
# Static dielectric constant tensor:
#      x y z
#    x 1.463940 0.000000 2.001910 
#    y 0.000000 1.759420 0.000000 
#    z 2.001910 0.000000 -12.504130 
# 
# From -- ./inp_files/70186.got.cif
#   From: 2010.05.17/outbox.cif.g08.bks.cpg/sg15_36_cif.got.tgz:70186.got - 2010.06.03 18:47:42.
