data_PCOD9297213
_publ_section_title
;
Structure prediction by ZEFSAII (Michael W. Deem and Ramdas Pophale) SiO2 
 PCOD9297213
Probable space group: C 2/C
;
_chemical_formula_sum "Si O2"
_cell_formula_units_Z 36
_cell_length_a 6.955419
_cell_length_b 12.477097
_cell_length_c 24.637426
_cell_angle_alpha 90.000000
_cell_angle_beta 45.262636
_cell_angle_gamma 90.000000
_cell_volume 1518.793860
_symmetry_space_group_name_H-M "C 2/C"
_symmetry_group_IT_number 15
_symmetry_cell_setting 'monoclinic'
loop_
_space_group_symop_operation_xyz
x,y,z
-x,y,1/2-z
-x,-y,-z
x,-y,1/2+z
1/2+x,1/2+y,z
1/2-x,1/2+y,1/2-z
1/2-x,1/2-y,-z
1/2+x,1/2-y,1/2+z
loop_
_atom_site_type_symbol
_atom_site_label
_atom_site_fract_x
_atom_site_fract_y
_atom_site_fract_z
Si Si1 0.500000 0.776970 0.250000
Si Si2 0.812689 0.600553 0.598127
Si Si3 0.327689 0.909692 0.972805
Si Si4 0.069828 0.686259 0.156673
Si Si5 0.691494 0.460065 0.363414
O O1 0.751123 0.709314 0.223068
O O2 0.387134 0.859618 0.317410
O O3 0.934154 0.616823 0.512480
O O4 0.747613 0.711889 0.639978
O O5 0.518137 0.547604 0.645765
O O6 0.007863 0.511576 0.583223
O O7 0.370374 0.819494 0.920061
O O8 0.018200 0.938829 0.046193
O O9 0.168802 0.574761 0.161341
#
# Coordination Sequence:
#
# PCOD9297213 Si02
#       5
#     4   8   8   8   8
#     4  10  24  36  50  80 116 148 182 218 274 328
#     4   8  19  35  56  88 109 133 174 232 279 316
#     4   9  18  38  59  85 112 131 184 240 262 320
#     4  11  20  37  60  78 107 151 183 219 278 318
#     4   9  20  38  55  81 112 140 184 231 263 327
#
# _framework density 23.703019999999999
#
# number of rings (size 3 to 8) (size 9 to 14) (size 15 to 20)
#    1.333    1.333    0.000    1.333    0.000    4.444 
#    0.000    2.222    0.000    0.000    0.000    0.000 
#    0.000    0.000    0.000    0.000    0.000    0.000 
#
# Total GULP energy -100418.964220 kJ/mol
# GULP energy per Si atom -5578.831346 kJ/mol
# Density = 2.364907 g / cm^3
# Si number density = 23.703020 Si / 1000 Ang^3
#
#
#
# Elastic Constant Matrix: (Units=GPa)
#
#
# Indices 1 2 3 4 5 6 
#
# 1 37.5099 34.5201 26.2696 0.0001 -13.8343 0.0000
# 2 34.5201 122.4232 40.8780 0.0003 -29.0664 -0.0002
# 3 26.2696 40.8780 91.6660 0.0001 -35.7846 -0.0004
# 4 0.0001 0.0003 0.0001 39.5307 -0.0003 -15.9587
# 5 -13.8343 -29.0664 -35.7846 -0.0003 36.8025 0.0001
# 6 0.0000 -0.0002 -0.0004 -15.9587 0.0001 34.0634
#
#
#
# Elastic Compliance Matrix: (Units=1/GPa)
#
#
# Indices 1 2 3 4 5 6 
#
# 1 0.040054 -0.008598 -0.007120 0.000000 0.001343 0.000000
# 2 -0.008598 0.012190 -0.000766 0.000000 0.005651 0.000000
# 3 -0.007120 -0.000766 0.019358 0.000000 0.015541 0.000000
# 4 0.000000 0.000000 0.000000 0.031197 0.000000 0.014616
# 5 0.001343 0.005651 0.015541 0.000000 0.047251 0.000000
# 6 0.000000 0.000000 0.000000 0.014616 0.000000 0.036205
#
#
# Mechanical properties :
#
#
# Convention : Reuss Voigt Hill
#
# Bulk Modulus (GPa) = 25.88414 50.54828 38.21621
# Shear Modulus (GPa) = 21.54222 32.07476 26.80849
#
# Velocity S-wave (km/s) = 3.01797 3.68257 3.36671
# Velocity P-wave (km/s) = 4.80500 6.28122 5.59204
#
# Compressibility (1/GPa) = 0.03863369
#
# Stress axis : x y z
#
# Youngs Moduli (GPa) = 24.96628 82.03282 51.65719
#
# Poissons Ratio (x) = 0.70531 0.36782
# Poissons Ratio (y) = 0.21466 0.03959
# Poissons Ratio (z) = 0.17777 0.06286
#
# Static dielectric constant tensor:
#      x y z
#    x 1.953570 0.000000 0.059080 
#    y 0.000000 1.897350 0.000000 
#    z 0.059080 0.000000 1.917650 
# 
# From -- ./inp_files/187437.got.cif
#   From: 2010.05.17/outbox.cif.g08.bks.cpg/sg15_94_cif.got.tgz:187437.got - 2010.06.03 18:47:42.
