data_PCOD9297849
_publ_section_title
;
Structure prediction by ZEFSAII (Michael W. Deem and Ramdas Pophale) SiO2 
 PCOD9297849
Probable space group: C 2/C
;
_chemical_formula_sum "Si O2"
_cell_formula_units_Z 60
_cell_length_a 22.595499
_cell_length_b 8.648705
_cell_length_c 22.162666
_cell_angle_alpha 90.000000
_cell_angle_beta 35.974564
_cell_angle_gamma 90.000000
_cell_volume 2544.182231
_symmetry_space_group_name_H-M "C 2/C"
_symmetry_group_IT_number 15
_symmetry_cell_setting 'monoclinic'
loop_
_space_group_symop_operation_xyz
x,y,z
-x,y,1/2-z
-x,-y,-z
x,-y,1/2+z
1/2+x,1/2+y,z
1/2-x,1/2+y,1/2-z
1/2-x,1/2-y,-z
1/2+x,1/2-y,1/2+z
loop_
_atom_site_type_symbol
_atom_site_label
_atom_site_fract_x
_atom_site_fract_y
_atom_site_fract_z
Si Si1 0.960033 0.269783 0.713452
Si Si2 0.240955 0.817103 0.940484
Si Si3 0.546098 0.419387 0.829420
Si Si4 0.271198 0.164050 0.153462
Si Si5 0.079517 0.388187 0.509526
Si Si6 0.456971 0.327944 0.022424
Si Si7 0.000000 0.713431 0.750000
Si Si8 0.216972 0.354967 0.081148
O O1 0.156858 0.302438 0.680837
O O2 0.005830 0.397049 0.629083
O O3 0.000000 0.262840 0.750000
O O4 0.971708 0.100690 0.671652
O O5 0.216798 0.994070 0.970513
O O6 0.250000 0.750000 0.000000
O O7 0.159209 0.731663 0.969754
O O8 0.661421 0.405217 0.761445
O O9 0.474860 0.331915 0.935989
O O10 0.524848 0.326473 0.785252
O O11 0.235183 0.261881 0.126181
O O12 0.340755 0.284466 0.133924
O O13 0.353115 0.033505 0.066870
O O14 0.021710 0.303990 0.502632
O O15 0.500000 0.500000 0.000000
O O16 0.099948 0.609660 0.664312
O O17 0.250000 0.250000 0.000000
#
# Coordination Sequence:
#
# PCOD9297849 Si02
#       8
#     8   8   8   8   8   8   4   8
#     4  12  25  42  76 103 143 188 243 294 364 430
#     4  12  26  43  70 109 142 186 236 294 361 433
#     4  11  24  45  72 105 142 189 239 299 367 427
#     4  11  26  47  70 104 141 189 239 301 354 431
#     4  12  26  46  74 105 144 190 241 301 359 433
#     4  12  26  46  74 104 142 189 243 295 362 434
#     4  10  24  42  68  98 140 182 232 290 354 420
#     4  11  25  40  66 101 144 182 229 289 357 419
#
# _framework density 23.583216
#
# number of rings (size 3 to 8) (size 9 to 14) (size 15 to 20)
#    0.000    0.533    4.667    2.800    4.667    4.267 
#    0.000    0.000    0.000    0.000    0.000    0.000 
#    0.000    0.000    0.000    0.000    0.000    0.000 
#
# Total GULP energy -167621.636492 kJ/mol
# GULP energy per Si atom -5587.387883 kJ/mol
# Density = 2.352954 g / cm^3
# Si number density = 23.583216 Si / 1000 Ang^3
#
#
#
# Elastic Constant Matrix: (Units=GPa)
#
#
# Indices 1 2 3 4 5 6 
#
# 1 103.7721 16.7445 14.7437 0.0002 -20.8768 -0.0001
# 2 16.7445 90.2389 -1.2677 -0.0001 -1.0915 -0.0003
# 3 14.7437 -1.2677 92.0114 0.0001 -19.3361 -0.0001
# 4 0.0002 -0.0001 0.0001 33.2197 0.0000 1.9449
# 5 -20.8768 -1.0915 -19.3361 0.0000 44.6506 0.0001
# 6 -0.0001 -0.0003 -0.0001 1.9449 0.0001 38.6710
#
#
#
# Elastic Compliance Matrix: (Units=1/GPa)
#
#
# Indices 1 2 3 4 5 6 
#
# 1 0.011031 -0.002000 -0.000794 0.000000 0.004765 0.000000
# 2 -0.002000 0.011452 0.000375 0.000000 -0.000493 0.000000
# 3 -0.000794 0.000375 0.012018 0.000000 0.004843 0.000000
# 4 0.000000 0.000000 0.000000 0.030191 0.000000 -0.001518
# 5 0.004765 -0.000493 0.004843 0.000000 0.026709 0.000000
# 6 0.000000 0.000000 0.000000 -0.001518 0.000000 0.025936
#
#
# Mechanical properties :
#
#
# Convention : Reuss Voigt Hill
#
# Bulk Modulus (GPa) = 33.71289 38.49595 36.10442
# Shear Modulus (GPa) = 37.86065 40.36173 39.11119
#
# Velocity S-wave (km/s) = 4.01110 4.14147 4.07680
# Velocity P-wave (km/s) = 5.98149 6.26322 6.12397
#
# Compressibility (1/GPa) = 0.02966225
#
# Stress axis : x y z
#
# Youngs Moduli (GPa) = 90.65665 87.31970 83.20692
#
# Poissons Ratio (x) = 0.17467 0.06605
# Poissons Ratio (y) = 0.18134 -0.03118
# Poissons Ratio (z) = 0.07196 -0.03272
#
# Static dielectric constant tensor:
#      x y z
#    x 1.868020 0.000000 -0.013890 
#    y 0.000000 1.952650 0.000000 
#    z -0.013890 0.000000 1.951680 
# 
# From -- ./inp_files/279691.got.cif
#   From: 2010.05.17/outbox.cif.g08.bks.cpg/sg15_140_cif.got.tgz:279691.got - 2010.06.03 18:47:42.
