data_PCOD9297774
_publ_section_title
;
Structure prediction by ZEFSAII (Michael W. Deem and Ramdas Pophale) SiO2 
 PCOD9297774
Probable space group: C 2/C
;
_chemical_formula_sum "Si O2"
_cell_formula_units_Z 52
_cell_length_a 10.723256
_cell_length_b 10.991986
_cell_length_c 19.091555
_cell_angle_alpha 90.000000
_cell_angle_beta 105.629454
_cell_angle_gamma 90.000000
_cell_volume 2167.111929
_symmetry_space_group_name_H-M "C 2/C"
_symmetry_group_IT_number 15
_symmetry_cell_setting 'monoclinic'
loop_
_space_group_symop_operation_xyz
x,y,z
-x,y,1/2-z
-x,-y,-z
x,-y,1/2+z
1/2+x,1/2+y,z
1/2-x,1/2+y,1/2-z
1/2-x,1/2-y,-z
1/2+x,1/2-y,1/2+z
loop_
_atom_site_type_symbol
_atom_site_label
_atom_site_fract_x
_atom_site_fract_y
_atom_site_fract_z
Si Si1 0.061120 0.679086 0.012382
Si Si2 0.396208 0.430176 0.779644
Si Si3 0.805837 0.437151 0.505481
Si Si4 0.937120 0.932868 0.556782
Si Si5 0.784724 0.741917 0.327122
Si Si6 0.808689 0.499981 0.653227
Si Si7 0.000000 0.329221 0.750000
O O1 0.133284 0.678285 0.098326
O O2 0.904504 0.668634 0.998484
O O3 0.104711 0.558491 0.978283
O O4 0.100213 0.800508 0.977515
O O5 0.500000 0.501769 0.750000
O O6 0.469238 0.411342 0.863851
O O7 0.343986 0.320318 0.724378
O O8 0.262728 0.487256 0.782782
O O9 0.683260 0.478756 0.440928
O O10 0.756349 0.428390 0.577441
O O11 0.000000 0.000000 0.500000
O O12 0.724418 0.858635 0.358379
O O13 0.889258 0.745028 0.277477
O O14 0.939074 0.425578 0.685663
#
# Coordination Sequence:
#
# PCOD9297774 Si02
#       7
#     8   8   8   8   8   8   4
#     4  11  24  42  73  99 132 187 239 287 348 431
#     4  11  26  44  64 103 139 176 236 285 358 427
#     4  11  23  42  68 100 134 179 236 283 352 412
#     4  12  24  46  69 101 143 183 232 295 352 424
#     4  11  23  43  70  97 136 186 229 299 352 414
#     4  11  23  44  68  96 137 185 221 297 348 416
#     4  10  24  42  66  98 140 172 248 272 358 428
#
# _framework density 23.995069999999998
#
# number of rings (size 3 to 8) (size 9 to 14) (size 15 to 20)
#    0.000    0.923    4.615    1.385    4.308    0.615 
#    5.538    0.000    0.000    0.000    0.000    0.000 
#    0.000    0.000    0.000    0.000    0.000    0.000 
#
# Total GULP energy -144735.804615 kJ/mol
# GULP energy per Si atom -5566.761716 kJ/mol
# Density = 2.394046 g / cm^3
# Si number density = 23.995070 Si / 1000 Ang^3
#
#
#
# Elastic Constant Matrix: (Units=GPa)
#
#
# Indices 1 2 3 4 5 6 
#
# 1 103.6222 14.4412 18.6588 0.0000 -1.6778 0.0000
# 2 14.4412 55.3528 12.4661 0.0000 0.6882 0.0000
# 3 18.6588 12.4661 71.9982 0.0000 8.7906 0.0000
# 4 0.0000 0.0000 0.0000 -15.2347 0.0000 -30.3880
# 5 -1.6778 0.6882 8.7906 0.0000 46.5208 0.0000
# 6 0.0000 0.0000 0.0000 -30.3880 0.0000 2.7962
#
#
#
# Elastic Compliance Matrix: (Units=1/GPa)
#
#
# Indices 1 2 3 4 5 6 
#
# 1 0.010405 -0.002179 -0.002425 0.000000 0.000866 0.000000
# 2 -0.002179 0.019261 -0.002790 0.000000 0.000164 0.000000
# 3 -0.002425 -0.002790 0.015361 0.000000 -0.002949 0.000000
# 4 0.000000 0.000000 0.000000 -0.002895 0.000000 -0.031457
# 5 0.000866 0.000164 -0.002949 0.000000 0.022082 0.000000
# 6 0.000000 0.000000 0.000000 -0.031457 0.000000 0.015770
#
#
# Mechanical properties :
#
#
# Convention : Reuss Voigt Hill
#
# Bulk Modulus (GPa) = 33.07098 35.78950 34.43024
# Shear Modulus (GPa) = 47.68640 19.17693 33.43167
#
# Velocity S-wave (km/s) = 4.46280 2.83009 3.73671
# Velocity P-wave (km/s) = 6.35356 5.06230 5.74433
#
# Compressibility (1/GPa) = 0.03023799
#
# Stress axis : x y z
#
# Youngs Moduli (GPa) = 96.10948 51.91892 65.10087
#
# Poissons Ratio (x) = 0.11314 0.15786
# Poissons Ratio (y) = 0.20944 0.18164
# Poissons Ratio (z) = 0.23305 0.14486
#
# Static dielectric constant tensor:
#      x y z
#    x 2.086090 0.000000 -0.008710 
#    y 0.000000 2.081170 0.000000 
#    z -0.008710 0.000000 1.978510 
# 
# From -- ./inp_files/237204.got.cif
#   From: 2010.05.17/outbox.cif.g08.bks.cpg/sg15_119_cif.got.tgz:237204.got - 2010.06.03 18:47:42.
