data_PCOD9297677
_publ_section_title
;
Structure prediction by ZEFSAII (Michael W. Deem and Ramdas Pophale) SiO2 
 PCOD9297677
Probable space group: C 2/C
;
_chemical_formula_sum "Si O2"
_cell_formula_units_Z 56
_cell_length_a 17.837132
_cell_length_b 13.422391
_cell_length_c 13.241345
_cell_angle_alpha 90.000000
_cell_angle_beta 119.044322
_cell_angle_gamma 90.000000
_cell_volume 2771.531884
_symmetry_space_group_name_H-M "C 2/C"
_symmetry_group_IT_number 15
_symmetry_cell_setting 'monoclinic'
loop_
_space_group_symop_operation_xyz
x,y,z
-x,y,1/2-z
-x,-y,-z
x,-y,1/2+z
1/2+x,1/2+y,z
1/2-x,1/2+y,1/2-z
1/2-x,1/2-y,-z
1/2+x,1/2-y,1/2+z
loop_
_atom_site_type_symbol
_atom_site_label
_atom_site_fract_x
_atom_site_fract_y
_atom_site_fract_z
Si Si1 0.433686 0.209258 0.445637
Si Si2 0.505389 0.628497 0.363371
Si Si3 0.397604 0.277521 0.201851
Si Si4 0.848756 0.022575 0.573893
Si Si5 0.678514 0.627844 0.154703
Si Si6 0.299450 0.948695 0.905060
Si Si7 0.631983 0.828948 0.024596
O O1 0.444666 0.305596 0.522633
O O2 0.390545 0.237362 0.310406
O O3 0.378570 0.126314 0.466952
O O4 0.530799 0.174304 0.485403
O O5 0.500000 0.679946 0.250000
O O6 0.560019 0.529638 0.380146
O O7 0.410913 0.609976 0.344574
O O8 0.500000 0.287012 0.250000
O O9 0.357307 0.386255 0.158208
O O10 0.361823 0.206043 0.088979
O O11 0.824290 0.070427 0.452131
O O12 0.776613 0.945480 0.562467
O O13 0.753372 0.584203 0.271787
O O14 0.678192 0.744659 0.123247
O O15 0.332883 0.061667 0.932020
#
# Coordination Sequence:
#
# PCOD9297677 Si02
#       7
#     8   8   8   8   8   8   8
#     4  10  24  43  65  92 129 177 208 260 319 381
#     4  11  22  44  63  90 132 168 211 256 320 389
#     4   9  20  41  69  92 120 167 220 264 304 373
#     4  11  24  38  66  99 127 164 212 263 324 376
#     4  10  24  42  63  95 128 168 207 271 316 372
#     4  12  25  39  66  98 125 166 215 263 321 378
#     4   9  22  45  65  89 128 170 220 261 310 378
#
# _framework density 20.205431000000001
#
# number of rings (size 3 to 8) (size 9 to 14) (size 15 to 20)
#    0.000    1.714    1.429    2.143    6.000    1.714 
#    5.143    2.143    0.000    0.000    0.000    0.000 
#    0.000    0.000    0.000    0.000    0.000    0.000 
#
# Total GULP energy -156477.269450 kJ/mol
# GULP energy per Si atom -5588.473909 kJ/mol
# Density = 2.015944 g / cm^3
# Si number density = 20.205431 Si / 1000 Ang^3
#
#
#
# Elastic Constant Matrix: (Units=GPa)
#
#
# Indices 1 2 3 4 5 6 
#
# 1 47.0376 23.7682 32.5863 0.0000 1.3343 0.0000
# 2 23.7682 88.3568 45.0112 0.0000 15.3024 0.0000
# 3 32.5863 45.0112 87.5305 0.0000 5.3014 0.0000
# 4 0.0000 0.0000 0.0000 24.5222 0.0000 12.0284
# 5 1.3343 15.3024 5.3014 0.0000 26.9836 0.0000
# 6 0.0000 0.0000 0.0000 12.0284 0.0000 43.0663
#
#
#
# Elastic Compliance Matrix: (Units=1/GPa)
#
#
# Indices 1 2 3 4 5 6 
#
# 1 0.029422 -0.003630 -0.009233 0.000000 0.002418 0.000000
# 2 -0.003630 0.017317 -0.007054 0.000000 -0.008255 0.000000
# 3 -0.009233 -0.007054 0.018439 0.000000 0.000834 0.000000
# 4 0.000000 0.000000 0.000000 0.047253 0.000000 -0.013198
# 5 0.002418 -0.008255 0.000834 0.000000 0.041458 0.000000
# 6 0.000000 0.000000 0.000000 -0.013198 0.000000 0.026906
#
#
# Mechanical properties :
#
#
# Convention : Reuss Voigt Hill
#
# Bulk Modulus (GPa) = 39.45657 47.29516 43.37587
# Shear Modulus (GPa) = 21.82682 27.01835 24.42258
#
# Velocity S-wave (km/s) = 3.29027 3.66072 3.48043
# Velocity P-wave (km/s) = 5.83135 6.42851 6.13720
#
# Compressibility (1/GPa) = 0.02534432
#
# Stress axis : x y z
#
# Youngs Moduli (GPa) = 33.98868 57.74576 54.23334
#
# Poissons Ratio (x) = 0.20959 0.50075
# Poissons Ratio (y) = 0.12336 0.38256
# Poissons Ratio (z) = 0.31382 0.40733
#
# Static dielectric constant tensor:
#      x y z
#    x 1.746530 0.000000 0.013600 
#    y 0.000000 1.688350 0.000000 
#    z 0.013600 0.000000 1.710270 
# 
# From -- ./inp_files/105816.got.cif
#   From: 2010.05.17/outbox.cif.g08.bks.cpg/sg15_53_cif.got.tgz:105816.got - 2010.06.03 18:47:42.
