data_PCOD9297318
_publ_section_title
;
Structure prediction by ZEFSAII (Michael W. Deem and Ramdas Pophale) SiO2 
 PCOD9297318
Probable space group: C 2/C
;
_chemical_formula_sum "Si O2"
_cell_formula_units_Z 48
_cell_length_a 15.343868
_cell_length_b 22.271703
_cell_length_c 8.082666
_cell_angle_alpha 90.000000
_cell_angle_beta 119.200453
_cell_angle_gamma 90.000000
_cell_volume 2411.106931
_symmetry_space_group_name_H-M "C 2/C"
_symmetry_group_IT_number 15
_symmetry_cell_setting 'monoclinic'
loop_
_space_group_symop_operation_xyz
x,y,z
-x,y,1/2-z
-x,-y,-z
x,-y,1/2+z
1/2+x,1/2+y,z
1/2-x,1/2+y,1/2-z
1/2-x,1/2-y,-z
1/2+x,1/2-y,1/2+z
loop_
_atom_site_type_symbol
_atom_site_label
_atom_site_fract_x
_atom_site_fract_y
_atom_site_fract_z
Si Si1 0.198679 0.324495 0.317985
Si Si2 0.101378 0.679758 0.072031
Si Si3 0.071440 0.820295 0.976231
Si Si4 0.573834 0.090078 0.522078
Si Si5 0.299774 0.288148 0.902675
Si Si6 0.000000 0.841447 0.250000
Si Si7 0.500000 0.006722 0.750000
O O1 0.124384 0.334820 0.401797
O O2 0.314022 0.330666 0.469959
O O3 0.170925 0.371885 0.151532
O O4 0.180546 0.257963 0.229691
O O5 0.208542 0.670090 0.258836
O O6 0.071658 0.750586 0.043480
O O7 0.015125 0.639433 0.070964
O O8 0.000000 0.826450 0.750000
O O9 0.046034 0.861996 0.112686
O O10 0.582672 0.041189 0.386833
O O11 0.541646 0.048493 0.646082
O O12 0.250000 0.250000 0.000000
O O13 0.400887 0.312359 0.074597
#
# Coordination Sequence:
#
# PCOD9297318 Si02
#       7
#     8   8   8   8   8   4   4
#     4  11  21  35  55  80 112 155 194 228 294 349
#     4  11  20  36  55  80 116 157 191 227 292 349
#     4  11  22  35  53  82 118 156 191 233 271 356
#     4  11  22  39  61  84 118 153 191 245 299 342
#     4  11  22  33  50  82 113 153 198 224 274 351
#     4  12  20  35  48  70 120 146 192 229 266 322
#     4  10  24  39  56  86 116 146 202 247 290 350
#
# _framework density 19.907869999999999
#
# number of rings (size 3 to 8) (size 9 to 14) (size 15 to 20)
#    0.000    1.000    5.000    6.000    2.333    0.667 
#    0.000    0.000    0.000    0.000    0.000    1.167 
#   10.000    0.167    0.000    0.000    0.000    0.000 
#
# Total GULP energy -133742.151404 kJ/mol
# GULP energy per Si atom -5572.589642 kJ/mol
# Density = 1.986256 g / cm^3
# Si number density = 19.907870 Si / 1000 Ang^3
#
#
#
# Elastic Constant Matrix: (Units=GPa)
#
#
# Indices 1 2 3 4 5 6 
#
# 1 61.2812 2.5287 23.6906 0.0000 10.9977 0.0000
# 2 2.5287 53.2955 16.1754 0.0000 12.6511 0.0000
# 3 23.6906 16.1754 127.6263 0.0000 28.6510 0.0000
# 4 0.0000 0.0000 0.0000 23.5730 0.0000 0.2297
# 5 10.9977 12.6511 28.6510 0.0000 50.6312 0.0000
# 6 0.0000 0.0000 0.0000 0.2297 0.0000 5.4222
#
#
#
# Elastic Compliance Matrix: (Units=1/GPa)
#
#
# Indices 1 2 3 4 5 6 
#
# 1 0.017825 0.000589 -0.002842 0.000000 -0.002411 0.000000
# 2 0.000589 0.020260 -0.001732 0.000000 -0.004210 0.000000
# 3 -0.002842 -0.001732 0.009561 0.000000 -0.004360 0.000000
# 4 0.000000 0.000000 0.000000 0.042439 0.000000 -0.001797
# 5 -0.002411 -0.004210 -0.004360 0.000000 0.023794 0.000000
# 6 0.000000 0.000000 0.000000 -0.001797 0.000000 0.184503
#
#
# Mechanical properties :
#
#
# Convention : Reuss Voigt Hill
#
# Bulk Modulus (GPa) = 25.20363 36.33248 30.76805
# Shear Modulus (GPa) = 15.64561 29.24584 22.44572
#
# Velocity S-wave (km/s) = 2.80643 3.83699 3.36144
# Velocity P-wave (km/s) = 4.81550 6.15791 5.52761
#
# Compressibility (1/GPa) = 0.03967682
#
# Stress axis : x y z
#
# Youngs Moduli (GPa) = 56.09989 49.35726 104.58758
#
# Poissons Ratio (x) = -0.02908 0.29727
# Poissons Ratio (y) = -0.03305 0.18114
# Poissons Ratio (z) = 0.15945 0.08549
#
# Static dielectric constant tensor:
#      x y z
#    x 1.750590 0.000000 -0.032700 
#    y 0.000000 1.694110 0.000000 
#    z -0.032700 0.000000 1.846440 
# 
# From -- ./inp_files/50442.got.cif
#   From: 2010.05.17/outbox.cif.g08.bks.cpg/sg15_26_cif.got.tgz:50442.got - 2010.06.03 18:47:42.
