data_PCOD9297519
_publ_section_title
;
Structure prediction by ZEFSAII (Michael W. Deem and Ramdas Pophale) SiO2 
 PCOD9297519
Probable space group: C 2/C
;
_chemical_formula_sum "Si O2"
_cell_formula_units_Z 52
_cell_length_a 18.353492
_cell_length_b 9.622659
_cell_length_c 16.135513
_cell_angle_alpha 90.000000
_cell_angle_beta 118.483512
_cell_angle_gamma 90.000000
_cell_volume 2504.741544
_symmetry_space_group_name_H-M "C 2/C"
_symmetry_group_IT_number 15
_symmetry_cell_setting 'monoclinic'
loop_
_space_group_symop_operation_xyz
x,y,z
-x,y,1/2-z
-x,-y,-z
x,-y,1/2+z
1/2+x,1/2+y,z
1/2-x,1/2+y,1/2-z
1/2-x,1/2-y,-z
1/2+x,1/2-y,1/2+z
loop_
_atom_site_type_symbol
_atom_site_label
_atom_site_fract_x
_atom_site_fract_y
_atom_site_fract_z
Si Si1 0.291254 0.373404 0.969656
Si Si2 0.733103 0.509576 0.309823
Si Si3 0.911055 0.878462 0.176317
Si Si4 0.339697 0.766116 0.323165
Si Si5 0.500000 0.893108 0.750000
Si Si6 0.805091 0.612344 0.519888
Si Si7 0.504160 0.078789 0.911471
O O1 0.318108 0.304314 0.899261
O O2 0.250000 0.250000 0.000000
O O3 0.371022 0.421778 0.067353
O O4 0.227468 0.501561 0.929942
O O5 0.654236 0.415719 0.288966
O O6 0.697671 0.655227 0.260030
O O7 0.793658 0.414380 0.288842
O O8 0.780970 0.539553 0.420498
O O9 0.927190 0.713609 0.185048
O O10 0.000000 0.940785 0.250000
O O11 0.437011 0.798375 0.374397
O O12 0.480142 0.978437 0.821664
O O13 0.750000 0.750000 0.500000
O O14 0.903687 0.630127 0.564561
O O15 0.500000 0.000000 0.000000
#
# Coordination Sequence:
#
# PCOD9297519 Si02
#       7
#     8   8   8   8   4   8   8
#     4  11  20  46  69  96 135 191 226 286 357 427
#     4  11  26  43  66 101 141 183 230 293 356 427
#     4   9  21  40  69  93 133 180 237 269 350 421
#     4  12  27  43  72 103 148 180 244 296 358 429
#     4  10  24  40  76  98 142 190 230 294 358 420
#     4  11  26  46  74  98 142 182 242 295 358 421
#     4  12  25  47  72 108 140 188 247 291 350 436
#
# _framework density 20.760625000000001
#
# number of rings (size 3 to 8) (size 9 to 14) (size 15 to 20)
#    0.462    0.615    4.615    1.846    6.462    2.462 
#    0.000    1.538    0.000    0.000    0.000    0.000 
#    0.000    0.000    0.000    0.000    0.000    0.000 
#
# Total GULP energy -145067.828613 kJ/mol
# GULP energy per Si atom -5579.531870 kJ/mol
# Density = 2.071337 g / cm^3
# Si number density = 20.760625 Si / 1000 Ang^3
#
#
#
# Elastic Constant Matrix: (Units=GPa)
#
#
# Indices 1 2 3 4 5 6 
#
# 1 142.0311 50.3057 23.3492 0.0000 28.7026 0.0000
# 2 50.3057 99.9660 -2.6322 0.0000 0.0422 0.0000
# 3 23.3492 -2.6322 56.1822 0.0000 0.2280 0.0000
# 4 0.0000 0.0000 0.0000 30.9830 0.0000 -12.4080
# 5 28.7026 0.0422 0.2280 0.0000 37.3054 0.0000
# 6 0.0000 0.0000 0.0000 -12.4080 0.0000 21.8018
#
#
#
# Elastic Compliance Matrix: (Units=1/GPa)
#
#
# Indices 1 2 3 4 5 6 
#
# 1 0.011909 -0.006126 -0.005199 0.000000 -0.009124 0.000000
# 2 -0.006126 0.013167 0.003144 0.000000 0.004679 0.000000
# 3 -0.005199 0.003144 0.020092 0.000000 0.003874 0.000000
# 4 0.000000 0.000000 0.000000 0.041804 0.000000 0.023792
# 5 -0.009124 0.004679 0.003874 0.000000 0.033797 0.000000
# 6 0.000000 0.000000 0.000000 0.023792 0.000000 0.059409
#
#
# Mechanical properties :
#
#
# Convention : Reuss Voigt Hill
#
# Bulk Modulus (GPa) = 34.71663 48.91387 41.81525
# Shear Modulus (GPa) = 24.25517 33.16179 28.70848
#
# Velocity S-wave (km/s) = 3.42179 4.00101 3.72268
# Velocity P-wave (km/s) = 5.68948 6.70493 6.21797
#
# Compressibility (1/GPa) = 0.02880464
#
# Stress axis : x y z
#
# Youngs Moduli (GPa) = 83.96952 75.94739 49.77192
#
# Poissons Ratio (x) = 0.46526 0.25878
# Poissons Ratio (y) = 0.51440 -0.15648
# Poissons Ratio (z) = 0.43659 -0.23877
#
# Static dielectric constant tensor:
#      x y z
#    x 1.786640 0.000000 0.025880 
#    y 0.000000 1.745100 0.000000 
#    z 0.025880 0.000000 1.797050 
# 
# From -- ./inp_files/209251.got.cif
#   From: 2010.05.17/outbox.cif.g08.bks.cpg/sg15_105_cif.got.tgz:209251.got - 2010.06.03 18:47:42.
