data_PCOD9297415
_publ_section_title
;
Structure prediction by ZEFSAII (Michael W. Deem and Ramdas Pophale) SiO2 
 PCOD9297415
Probable space group: C 2/C
;
_chemical_formula_sum "Si O2"
_cell_formula_units_Z 44
_cell_length_a 10.796008
_cell_length_b 13.485250
_cell_length_c 15.079577
_cell_angle_alpha 90.000000
_cell_angle_beta 63.318089
_cell_angle_gamma 90.000000
_cell_volume 1961.608486
_symmetry_space_group_name_H-M "C 2/C"
_symmetry_group_IT_number 15
_symmetry_cell_setting 'monoclinic'
loop_
_space_group_symop_operation_xyz
x,y,z
-x,y,1/2-z
-x,-y,-z
x,-y,1/2+z
1/2+x,1/2+y,z
1/2-x,1/2+y,1/2-z
1/2-x,1/2-y,-z
1/2+x,1/2-y,1/2+z
loop_
_atom_site_type_symbol
_atom_site_label
_atom_site_fract_x
_atom_site_fract_y
_atom_site_fract_z
Si Si1 0.350610 0.542482 0.025533
Si Si2 0.332245 0.821885 0.787962
Si Si3 0.000000 0.569924 0.750000
Si Si4 0.150235 0.887418 0.159066
Si Si5 0.869794 0.556408 0.125915
Si Si6 0.668608 0.146384 0.540789
O O1 0.254301 0.596640 0.128889
O O2 0.274523 0.444188 0.016907
O O3 0.500000 0.500000 0.000000
O O4 0.366783 0.619851 0.940621
O O5 0.500000 0.816628 0.750000
O O6 0.282220 0.712772 0.827513
O O7 0.310896 0.846586 0.692857
O O8 0.049434 0.496974 0.816385
O O9 0.094743 0.642418 0.660215
O O10 0.000000 0.904017 0.250000
O O11 0.250342 0.978014 0.146426
O O12 0.923913 0.603372 0.014535
O O13 0.750000 0.250000 0.500000
#
# Coordination Sequence:
#
# PCOD9297415 Si02
#       6
#     8   8   4   8   8   8
#     4  11  23  44  69 101 142 181 234 297 362 423
#     4  11  22  41  70  98 137 187 237 286 351 428
#     4  12  24  48  72  98 148 192 234 298 354 424
#     4  10  24  40  65 101 139 185 236 291 355 424
#     4  11  23  43  70 101 143 181 244 288 357 419
#     4  11  27  46  71 107 142 188 238 298 358 429
#
# _framework density 22.430571
#
# number of rings (size 3 to 8) (size 9 to 14) (size 15 to 20)
#    0.000    1.091    2.727    2.182    2.545    4.364 
#    6.545    0.000    0.000    0.000    0.000    0.000 
#    0.000    0.000    0.000    0.000    0.000    0.000 
#
# Total GULP energy -122475.401942 kJ/mol
# GULP energy per Si atom -5567.063725 kJ/mol
# Density = 2.237952 g / cm^3
# Si number density = 22.430571 Si / 1000 Ang^3
#
#
#
# Elastic Constant Matrix: (Units=GPa)
#
#
# Indices 1 2 3 4 5 6 
#
# 1 61.9881 16.9315 44.2855 0.0000 5.2786 0.0000
# 2 16.9315 119.7141 50.1678 0.0000 1.6949 0.0000
# 3 44.2855 50.1678 160.8854 0.0000 11.6724 0.0000
# 4 0.0000 0.0000 0.0000 -2.8148 0.0000 5.8991
# 5 5.2786 1.6949 11.6724 0.0000 30.0331 0.0000
# 6 0.0000 0.0000 0.0000 5.8991 0.0000 31.5603
#
#
#
# Elastic Compliance Matrix: (Units=1/GPa)
#
#
# Indices 1 2 3 4 5 6 
#
# 1 0.020182 -0.000633 -0.005251 0.000000 -0.001471 0.000000
# 2 -0.000633 0.009641 -0.002882 0.000000 0.000687 0.000000
# 3 -0.005251 -0.002882 0.008727 0.000000 -0.002306 0.000000
# 4 0.000000 0.000000 0.000000 -0.255268 0.000000 0.047714
# 5 -0.001471 0.000687 -0.002306 0.000000 0.034413 0.000000
# 6 0.000000 0.000000 0.000000 0.047714 0.000000 0.022767
#
#
# Mechanical properties :
#
#
# Convention : Reuss Voigt Hill
#
# Bulk Modulus (GPa) = 47.57934 62.81746 55.19840
# Shear Modulus (GPa) = -37.03669 27.16924 -4.93373
#
# Velocity S-wave (km/s) = -4.06787 3.48409 -1.48470
# Velocity P-wave (km/s) = 0.89751 6.65216 4.66078
#
# Compressibility (1/GPa) = 0.02101753
#
# Stress axis : x y z
#
# Youngs Moduli (GPa) = 49.54953 103.72701 114.58695
#
# Poissons Ratio (x) = 0.06565 0.60172
# Poissons Ratio (y) = 0.03136 0.33022
# Poissons Ratio (z) = 0.26020 0.29892
#
# Static dielectric constant tensor:
#      x y z
#    x 1.960070 0.000000 -0.029370 
#    y 0.000000 1.853660 0.000000 
#    z -0.029370 0.000000 2.017720 
# 
# From -- ./inp_files/143348.got.cif
#   From: 2010.05.17/outbox.cif.g08.bks.cpg/sg15_72_cif.got.tgz:143348.got - 2010.06.03 18:47:42.
