data_PCOD9297058
_publ_section_title
;
Structure prediction by ZEFSAII (Michael W. Deem and Ramdas Pophale) SiO2 
 PCOD9297058
Probable space group: C 2/C
;
_chemical_formula_sum "Si O2"
_cell_formula_units_Z 48
_cell_length_a 12.628502
_cell_length_b 26.566211
_cell_length_c 9.007618
_cell_angle_alpha 90.000000
_cell_angle_beta 51.688108
_cell_angle_gamma 90.000000
_cell_volume 2371.188772
_symmetry_space_group_name_H-M "C 2/C"
_symmetry_group_IT_number 15
_symmetry_cell_setting 'monoclinic'
loop_
_space_group_symop_operation_xyz
x,y,z
-x,y,1/2-z
-x,-y,-z
x,-y,1/2+z
1/2+x,1/2+y,z
1/2-x,1/2+y,1/2-z
1/2-x,1/2-y,-z
1/2+x,1/2-y,1/2+z
loop_
_atom_site_type_symbol
_atom_site_label
_atom_site_fract_x
_atom_site_fract_y
_atom_site_fract_z
Si Si1 0.967058 0.655732 0.622902
Si Si2 0.356705 0.983555 0.910296
Si Si3 0.847755 0.296610 0.942545
Si Si4 0.211694 0.387659 0.716908
Si Si5 0.985578 0.056776 0.084076
Si Si6 0.767989 0.564556 0.793398
O O1 0.880621 0.688765 0.583300
O O2 0.872332 0.607971 0.736728
O O3 0.000000 0.681549 0.750000
O O4 0.105252 0.634894 0.427859
O O5 0.500000 0.007956 0.750000
O O6 0.356062 0.934498 0.808281
O O7 0.255573 0.025038 0.938354
O O8 0.322564 0.966614 0.104657
O O9 0.781262 0.343952 0.913442
O O10 0.000000 0.287863 0.750000
O O11 0.750000 0.250000 0.000000
O O12 0.350535 0.412024 0.657302
O O13 0.000000 0.056379 0.250000
O O14 0.117158 0.084201 0.899885
O O15 0.000000 0.000000 0.000000
#
# Coordination Sequence:
#
# PCOD9297058 Si02
#       6
#     8   8   8   8   8   8
#     4  11  23  42  67  99 129 169 220 271 324 396
#     4  12  22  37  58  92 127 175 226 268 315 384
#     4  10  23  47  73  98 126 167 218 280 342 400
#     4  11  23  44  63  89 138 169 215 280 326 394
#     4  12  26  40  56  89 134 182 226 273 325 389
#     4  12  24  36  60  90 130 178 227 261 321 384
#
# _framework density 20.243012
#
# number of rings (size 3 to 8) (size 9 to 14) (size 15 to 20)
#    0.000    0.667    5.000    3.500    2.333    1.333 
#    0.000    4.167    0.000    0.000    0.000    0.000 
#    0.000    0.000    0.000    0.000    0.000    0.000 
#
# Total GULP energy -133977.637969 kJ/mol
# GULP energy per Si atom -5582.401582 kJ/mol
# Density = 2.019694 g / cm^3
# Si number density = 20.243012 Si / 1000 Ang^3
#
#
#
# Elastic Constant Matrix: (Units=GPa)
#
#
# Indices 1 2 3 4 5 6 
#
# 1 162.8019 61.3419 61.6774 0.0000 3.2724 0.0000
# 2 61.3419 77.9020 24.0268 0.0000 11.1618 0.0000
# 3 61.6774 24.0268 76.4891 0.0000 7.6616 0.0000
# 4 0.0000 0.0000 0.0000 14.1914 0.0000 -4.5120
# 5 3.2724 11.1618 7.6616 0.0000 47.2152 0.0000
# 6 0.0000 0.0000 0.0000 -4.5120 0.0000 45.1010
#
#
#
# Elastic Compliance Matrix: (Units=1/GPa)
#
#
# Indices 1 2 3 4 5 6 
#
# 1 0.011550 -0.007148 -0.007276 0.000000 0.002070 0.000000
# 2 -0.007148 0.018978 0.000205 0.000000 -0.004024 0.000000
# 3 -0.007276 0.000205 0.019142 0.000000 -0.002650 0.000000
# 4 0.000000 0.000000 0.000000 0.072780 0.000000 0.007281
# 5 0.002070 -0.004024 -0.002650 0.000000 0.022418 0.000000
# 6 0.000000 0.000000 0.000000 0.007281 0.000000 0.022901
#
#
# Mechanical properties :
#
#
# Convention : Reuss Voigt Hill
#
# Bulk Modulus (GPa) = 47.09489 67.92057 57.50773
# Shear Modulus (GPa) = 24.59624 32.64467 28.62046
#
# Velocity S-wave (km/s) = 3.48954 4.02012 3.76419
# Velocity P-wave (km/s) = 6.28897 7.42792 6.88204
#
# Compressibility (1/GPa) = 0.02123373
#
# Stress axis : x y z
#
# Youngs Moduli (GPa) = 86.57705 52.69219 52.24198
#
# Poissons Ratio (x) = 0.37662 0.38010
# Poissons Ratio (y) = 0.61882 -0.01072
# Poissons Ratio (z) = 0.62992 -0.01081
#
# Static dielectric constant tensor:
#      x y z
#    x 1.878200 0.000000 -0.031410 
#    y 0.000000 1.688280 0.000000 
#    z -0.031410 0.000000 1.798990 
# 
# From -- ./inp_files/33402.got.cif
#   From: 2010.05.17/outbox.cif.g08.bks.cpg/sg15_17_cif.got.tgz:33402.got - 2010.06.03 18:47:42.
