data_PCOD9297978
_publ_section_title
;
Structure prediction by ZEFSAII (Michael W. Deem and Ramdas Pophale) SiO2 
 PCOD9297978
Probable space group: C 2/C
;
_chemical_formula_sum "Si O2"
_cell_formula_units_Z 44
_cell_length_a 19.143366
_cell_length_b 12.765048
_cell_length_c 9.302633
_cell_angle_alpha 90.000000
_cell_angle_beta 91.063111
_cell_angle_gamma 90.000000
_cell_volume 2272.855779
_symmetry_space_group_name_H-M "C 2/C"
_symmetry_group_IT_number 15
_symmetry_cell_setting 'monoclinic'
loop_
_space_group_symop_operation_xyz
x,y,z
-x,y,1/2-z
-x,-y,-z
x,-y,1/2+z
1/2+x,1/2+y,z
1/2-x,1/2+y,1/2-z
1/2-x,1/2-y,-z
1/2+x,1/2-y,1/2+z
loop_
_atom_site_type_symbol
_atom_site_label
_atom_site_fract_x
_atom_site_fract_y
_atom_site_fract_z
Si Si1 0.821477 0.206483 0.929285
Si Si2 0.604237 0.518860 0.008753
Si Si3 0.418655 0.902619 0.919205
Si Si4 0.080210 0.607003 0.421822
Si Si5 0.315413 0.705912 0.585992
Si Si6 0.500000 0.512751 0.250000
O O1 0.862684 0.098592 0.976046
O O2 0.875882 0.300184 0.955998
O O3 0.807207 0.198274 0.757501
O O4 0.750000 0.250000 0.000000
O O5 0.561321 0.556138 0.148350
O O6 0.667922 0.593657 0.978033
O O7 0.549324 0.537488 0.875248
O O8 0.416856 0.916564 0.747654
O O9 0.499394 0.884644 0.963981
O O10 0.390322 0.007251 0.992562
O O11 0.121072 0.714401 0.443765
O O12 0.250000 0.750000 0.500000
#
# Coordination Sequence:
#
# PCOD9297978 Si02
#       6
#     8   8   8   8   8   4
#     4  11  26  43  65  93 135 177 218 274 329 398
#     4  11  24  46  68 104 131 174 226 278 349 394
#     4   9  20  40  63  89 120 162 210 260 314 373
#     4   9  20  40  63  89 120 162 210 260 314 373
#     4  11  26  43  65  93 135 177 218 274 329 398
#     4  10  24  42  76  98 134 166 220 296 332 414
#
# _framework density 19.358905
#
# number of rings (size 3 to 8) (size 9 to 14) (size 15 to 20)
#    0.000    1.818    1.818    0.000   10.182    1.455 
#    0.000    0.000    0.000    0.000    0.000    0.000 
#    0.000    0.000    0.000    0.000    0.000    0.000 
#
# Total GULP energy -122491.287129 kJ/mol
# GULP energy per Si atom -5567.785779 kJ/mol
# Density = 1.931484 g / cm^3
# Si number density = 19.358905 Si / 1000 Ang^3
#
#
#
# Elastic Constant Matrix: (Units=GPa)
#
#
# Indices 1 2 3 4 5 6 
#
# 1 82.5873 48.0917 36.1574 0.0000 -14.0108 0.0000
# 2 48.0917 132.3950 42.1784 0.0000 -13.2463 0.0000
# 3 36.1574 42.1784 66.5852 0.0000 -4.5123 0.0000
# 4 0.0000 0.0000 0.0000 18.2730 0.0000 -6.0438
# 5 -14.0108 -13.2463 -4.5123 0.0000 35.6427 0.0000
# 6 0.0000 0.0000 0.0000 -6.0438 0.0000 19.3038
#
#
#
# Elastic Compliance Matrix: (Units=1/GPa)
#
#
# Indices 1 2 3 4 5 6 
#
# 1 0.018334 -0.003893 -0.007161 0.000000 0.004854 0.000000
# 2 -0.003893 0.010571 -0.004458 0.000000 0.001834 0.000000
# 3 -0.007161 -0.004458 0.021613 0.000000 -0.001735 0.000000
# 4 0.000000 0.000000 0.000000 0.061047 0.000000 0.019113
# 5 0.004854 0.001834 -0.001735 0.000000 0.030426 0.000000
# 6 0.000000 0.000000 0.000000 0.019113 0.000000 0.057787
#
#
# Mechanical properties :
#
#
# Convention : Reuss Voigt Hill
#
# Bulk Modulus (GPa) = 51.29632 59.38028 55.33830
# Shear Modulus (GPa) = 21.07041 24.98657 23.02849
#
# Velocity S-wave (km/s) = 3.30268 3.59653 3.45273
# Velocity P-wave (km/s) = 6.41083 6.92724 6.67403
#
# Compressibility (1/GPa) = 0.01949458
#
# Stress axis : x y z
#
# Youngs Moduli (GPa) = 54.54453 94.59956 46.26799
#
# Poissons Ratio (x) = 0.36824 0.33132
# Poissons Ratio (y) = 0.21232 0.20626
# Poissons Ratio (z) = 0.39059 0.42173
#
# Static dielectric constant tensor:
#      x y z
#    x 1.688810 0.000000 -0.011870 
#    y 0.000000 1.665740 0.000000 
#    z -0.011870 0.000000 1.678010 
# 
# From -- ./inp_files/54459.got.cif
#   From: 2010.05.17/outbox.cif.g08.bks.cpg/sg15_28_cif.got.tgz:54459.got - 2010.06.03 18:47:42.
