data_PCOD9297364
_publ_section_title
;
Structure prediction by ZEFSAII (Michael W. Deem and Ramdas Pophale) SiO2 
 PCOD9297364
Probable space group: C 2/C
;
_chemical_formula_sum "Si O2"
_cell_formula_units_Z 64
_cell_length_a 18.774406
_cell_length_b 20.458688
_cell_length_c 11.998562
_cell_angle_alpha 90.000000
_cell_angle_beta 46.206354
_cell_angle_gamma 90.000000
_cell_volume 3326.689846
_symmetry_space_group_name_H-M "C 2/C"
_symmetry_group_IT_number 15
_symmetry_cell_setting 'monoclinic'
loop_
_space_group_symop_operation_xyz
x,y,z
-x,y,1/2-z
-x,-y,-z
x,-y,1/2+z
1/2+x,1/2+y,z
1/2-x,1/2+y,1/2-z
1/2-x,1/2-y,-z
1/2+x,1/2-y,1/2+z
loop_
_atom_site_type_symbol
_atom_site_label
_atom_site_fract_x
_atom_site_fract_y
_atom_site_fract_z
Si Si1 0.800420 0.371175 0.053447
Si Si2 0.331208 0.895439 0.759168
Si Si3 0.617520 0.698511 0.853804
Si Si4 0.994068 0.313325 0.885323
Si Si5 0.586469 0.145002 0.729885
Si Si6 0.389662 0.968552 0.123573
Si Si7 0.726792 0.193256 0.379251
Si Si8 0.953385 0.210574 0.181754
O O1 0.692524 0.350499 0.213780
O O2 0.846315 0.437920 0.055761
O O3 0.800548 0.376363 0.918578
O O4 0.875568 0.315432 0.023072
O O5 0.445192 0.871052 0.621747
O O6 0.277068 0.856234 0.720471
O O7 0.325284 0.971533 0.740026
O O8 0.562171 0.750047 0.831787
O O9 0.678900 0.740615 0.879669
O O10 0.521705 0.672014 0.021540
O O11 0.000000 0.331057 0.750000
O O12 0.500000 0.113788 0.750000
O O13 0.620698 0.091558 0.779389
O O14 0.665320 0.170124 0.553834
O O15 0.540393 0.209824 0.839289
O O16 0.500000 0.000000 0.000000
O O17 0.838913 0.198386 0.294963
O O18 0.000000 0.197172 0.250000
#
# Coordination Sequence:
#
# PCOD9297364 Si02
#       8
#     8   8   8   8   8   8   8   8
#     4  11  24  40  61  94 132 164 209 259 314 376
#     4  10  24  40  58  92 125 169 212 250 309 376
#     4  11  21  37  61  91 127 166 206 257 318 374
#     4   9  19  36  57  87 127 162 202 249 306 374
#     4  11  22  36  63 100 132 166 204 254 321 380
#     4  12  24  37  64  90 132 171 206 258 313 371
#     4  11  22  40  63  91 133 165 207 258 319 379
#     4  11  23  38  61  95 129 159 203 260 317 387
#
# _framework density 19.238343
#
# number of rings (size 3 to 8) (size 9 to 14) (size 15 to 20)
#    0.000    1.250    3.750    3.375    5.250    5.500 
#    0.000    0.000    0.000    0.750    3.250    0.000 
#    0.000    0.000    0.000    0.000    0.000    0.000 
#
# Total GULP energy -178363.233583 kJ/mol
# GULP energy per Si atom -5573.851049 kJ/mol
# Density = 1.919456 g / cm^3
# Si number density = 19.238343 Si / 1000 Ang^3
#
#
#
# Elastic Constant Matrix: (Units=GPa)
#
#
# Indices 1 2 3 4 5 6 
#
# 1 100.9925 25.5346 32.3480 0.0000 -3.1335 0.0000
# 2 25.5346 54.9463 38.1994 0.0000 6.1712 0.0000
# 3 32.3480 38.1994 111.5065 0.0000 -4.8355 0.0000
# 4 0.0000 0.0000 0.0000 23.1801 0.0000 1.2348
# 5 -3.1335 6.1712 -4.8355 0.0000 33.5560 0.0000
# 6 0.0000 0.0000 0.0000 1.2348 0.0000 16.8768
#
#
#
# Elastic Compliance Matrix: (Units=1/GPa)
#
#
# Indices 1 2 3 4 5 6 
#
# 1 0.011628 -0.004317 -0.001824 0.000000 0.001617 0.000000
# 2 -0.004317 0.026589 -0.008137 0.000000 -0.006466 0.000000
# 3 -0.001824 -0.008137 0.012420 0.000000 0.003116 0.000000
# 4 0.000000 0.000000 0.000000 0.043309 0.000000 -0.003169
# 5 0.001617 -0.006466 0.003116 0.000000 0.031590 0.000000
# 6 0.000000 0.000000 0.000000 -0.003169 0.000000 0.059485
#
#
# Mechanical properties :
#
#
# Convention : Reuss Voigt Hill
#
# Bulk Modulus (GPa) = 45.28884 51.06770 48.17827
# Shear Modulus (GPa) = 22.63101 26.14681 24.38891
#
# Velocity S-wave (km/s) = 3.43352 3.69060 3.56437
# Velocity P-wave (km/s) = 6.26983 6.69052 6.48359
#
# Compressibility (1/GPa) = 0.02208049
#
# Stress axis : x y z
#
# Youngs Moduli (GPa) = 86.00173 37.61005 80.51655
#
# Poissons Ratio (x) = 0.16236 0.14688
# Poissons Ratio (y) = 0.37127 0.65513
# Poissons Ratio (z) = 0.15688 0.30602
#
# Static dielectric constant tensor:
#      x y z
#    x 1.690190 0.000000 0.015610 
#    y 0.000000 1.692630 0.000000 
#    z 0.015610 0.000000 1.760490 
# 
# From -- ./inp_files/107508.got.cif
#   From: 2010.05.17/outbox.cif.g08.bks.cpg/sg15_54_cif.got.tgz:107508.got - 2010.06.03 18:47:42.
