data_PCOD9297359
_publ_section_title
;
Structure prediction by ZEFSAII (Michael W. Deem and Ramdas Pophale) SiO2 
 PCOD9297359
Probable space group: C 2/C
;
_chemical_formula_sum "Si O2"
_cell_formula_units_Z 44
_cell_length_a 9.544516
_cell_length_b 21.322903
_cell_length_c 11.696560
_cell_angle_alpha 90.000000
_cell_angle_beta 52.109800
_cell_angle_gamma 90.000000
_cell_volume 1878.622398
_symmetry_space_group_name_H-M "C 2/C"
_symmetry_group_IT_number 15
_symmetry_cell_setting 'monoclinic'
loop_
_space_group_symop_operation_xyz
x,y,z
-x,y,1/2-z
-x,-y,-z
x,-y,1/2+z
1/2+x,1/2+y,z
1/2-x,1/2+y,1/2-z
1/2-x,1/2-y,-z
1/2+x,1/2-y,1/2+z
loop_
_atom_site_type_symbol
_atom_site_label
_atom_site_fract_x
_atom_site_fract_y
_atom_site_fract_z
Si Si1 0.031366 0.981757 0.853668
Si Si2 0.131113 0.151430 0.088274
Si Si3 0.035468 0.339275 0.364055
Si Si4 0.616144 0.718259 0.454485
Si Si5 0.586559 0.015659 0.833823
Si Si6 0.000000 0.275876 0.750000
O O1 0.000000 0.020328 0.750000
O O2 0.905086 0.922266 0.901233
O O3 0.240722 0.972523 0.751029
O O4 0.000000 0.000000 0.000000
O O5 0.000000 0.177327 0.250000
O O6 0.050043 0.181478 0.015508
O O7 0.334841 0.161248 0.013825
O O8 0.000000 0.323820 0.250000
O O9 0.135598 0.284903 0.379648
O O10 0.118789 0.408760 0.324795
O O11 0.810676 0.686794 0.335321
O O12 0.555306 0.734206 0.613016
O O13 0.500000 0.007189 0.750000
O O14 0.500000 0.000000 0.000000
#
# Coordination Sequence:
#
# PCOD9297359 Si02
#       6
#     8   8   8   8   8   4
#     4  11  23  43  63  95 129 170 220 270 319 384
#     4  11  22  40  68  94 123 163 216 268 314 380
#     4  11  22  40  68  94 123 163 216 268 314 380
#     4  11  22  43  62  93 130 165 210 254 334 367
#     4  11  23  43  63  95 129 170 220 270 319 384
#     4  10  24  40  56  88 144 162 200 260 296 412
#
# _framework density 23.421417999999999
#
# number of rings (size 3 to 8) (size 9 to 14) (size 15 to 20)
#    0.000    1.091    0.000    8.727    0.000    0.000 
#   19.636    0.000    0.000    0.000    0.000    0.000 
#    0.000    0.000    0.000    0.000    0.000    0.000 
#
# Total GULP energy -122626.614102 kJ/mol
# GULP energy per Si atom -5573.937005 kJ/mol
# Density = 2.336811 g / cm^3
# Si number density = 23.421418 Si / 1000 Ang^3
#
#
#
# Elastic Constant Matrix: (Units=GPa)
#
#
# Indices 1 2 3 4 5 6 
#
# 1 93.4391 17.8185 21.8455 0.0000 19.0561 0.0000
# 2 17.8185 46.3073 4.1100 0.0000 11.2595 0.0000
# 3 21.8455 4.1100 143.1140 0.0000 29.6658 0.0000
# 4 0.0000 0.0000 0.0000 -1.3606 0.0000 -8.4902
# 5 19.0561 11.2595 29.6658 0.0000 68.4951 0.0000
# 6 0.0000 0.0000 0.0000 -8.4902 0.0000 -2.9046
#
#
#
# Elastic Compliance Matrix: (Units=1/GPa)
#
#
# Indices 1 2 3 4 5 6 
#
# 1 0.012223 -0.004060 -0.001299 0.000000 -0.002170 0.000000
# 2 -0.004060 0.023845 0.000564 0.000000 -0.003034 0.000000
# 3 -0.001299 0.000564 0.007816 0.000000 -0.003116 0.000000
# 4 0.000000 0.000000 0.000000 0.042632 0.000000 -0.124615
# 5 -0.002170 -0.003034 -0.003116 0.000000 0.017052 0.000000
# 6 0.000000 0.000000 0.000000 -0.124615 0.000000 0.019970
#
#
# Mechanical properties :
#
#
# Convention : Reuss Voigt Hill
#
# Bulk Modulus (GPa) = 29.16099 41.15649 35.15874
# Shear Modulus (GPa) = 34.58815 28.78510 31.68662
#
# Velocity S-wave (km/s) = 3.84705 3.50952 3.68216
# Velocity P-wave (km/s) = 5.67544 5.83375 5.75514
#
# Compressibility (1/GPa) = 0.03429239
#
# Stress axis : x y z
#
# Youngs Moduli (GPa) = 81.81434 41.93762 127.95066
#
# Poissons Ratio (x) = 0.17027 0.16624
# Poissons Ratio (y) = 0.33218 -0.07216
# Poissons Ratio (z) = 0.10630 -0.02365
#
# Static dielectric constant tensor:
#      x y z
#    x 1.975980 0.000000 0.047830 
#    y 0.000000 1.868060 0.000000 
#    z 0.047830 0.000000 1.981710 
# 
# From -- ./inp_files/33997.got.cif
#   From: 2010.05.17/outbox.cif.g08.bks.cpg/sg15_17_cif.got.tgz:33997.got - 2010.06.03 18:47:42.
