data_PCOD9297742
_publ_section_title
;
Structure prediction by ZEFSAII (Michael W. Deem and Ramdas Pophale) SiO2 
 PCOD9297742
Probable space group: C 2/C
;
_chemical_formula_sum "Si O2"
_cell_formula_units_Z 36
_cell_length_a 7.503639
_cell_length_b 11.567480
_cell_length_c 23.841050
_cell_angle_alpha 90.000000
_cell_angle_beta 139.116883
_cell_angle_gamma 90.000000
_cell_volume 1354.433553
_symmetry_space_group_name_H-M "C 2/C"
_symmetry_group_IT_number 15
_symmetry_cell_setting 'monoclinic'
loop_
_space_group_symop_operation_xyz
x,y,z
-x,y,1/2-z
-x,-y,-z
x,-y,1/2+z
1/2+x,1/2+y,z
1/2-x,1/2+y,1/2-z
1/2-x,1/2-y,-z
1/2+x,1/2-y,1/2+z
loop_
_atom_site_type_symbol
_atom_site_label
_atom_site_fract_x
_atom_site_fract_y
_atom_site_fract_z
Si Si1 0.500000 0.105685 0.250000
Si Si2 0.306263 0.226058 0.652219
Si Si3 0.672123 0.395107 0.015183
Si Si4 0.102653 0.029271 0.378076
Si Si5 0.823122 0.223606 0.614140
O O1 0.778983 0.034628 0.314693
O O2 0.510406 0.191151 0.305734
O O3 0.500000 0.197204 0.750000
O O4 0.340166 0.360213 0.645977
O O5 0.366472 0.150054 0.611210
O O6 0.993602 0.212489 0.597263
O O7 0.748948 0.444808 0.972527
O O8 0.468503 0.285444 0.958315
O O9 0.500000 0.500000 0.000000
O O10 0.178425 0.909133 0.367556
#
# Coordination Sequence:
#
# PCOD9297742 Si02
#       5
#     4   8   8   8   8
#     4  10  24  42  66 106 144 178 236 290 348 408
#     4  12  25  46  72 104 138 183 235 289 347 411
#     4  11  25  49  72 102 145 187 230 288 350 415
#     4  11  25  44  71 104 140 191 231 290 348 415
#     4  11  25  45  71 104 141 185 235 286 348 414
#
# _framework density 26.579378999999999
#
# number of rings (size 3 to 8) (size 9 to 14) (size 15 to 20)
#    0.000    0.889    4.444    1.333    3.111    0.889 
#    8.000    0.000    0.000    0.000    0.000    0.000 
#    0.000    0.000    0.000    0.000    0.000    0.000 
#
# Total GULP energy -100967.015851 kJ/mol
# GULP energy per Si atom -5609.278658 kJ/mol
# Density = 2.651888 g / cm^3
# Si number density = 26.579379 Si / 1000 Ang^3
#
#
#
# Elastic Constant Matrix: (Units=GPa)
#
#
# Indices 1 2 3 4 5 6 
#
# 1 92.6962 20.6072 25.2633 0.0000 -1.9934 0.0000
# 2 20.6072 187.5600 33.2642 0.0000 -3.2807 0.0000
# 3 25.2633 33.2642 143.6078 0.0000 -20.0483 0.0000
# 4 0.0000 0.0000 0.0000 22.5878 0.0000 -0.1322
# 5 -1.9934 -3.2807 -20.0483 0.0000 46.7751 0.0000
# 6 0.0000 0.0000 0.0000 -0.1322 0.0000 51.9455
#
#
#
# Elastic Compliance Matrix: (Units=1/GPa)
#
#
# Indices 1 2 3 4 5 6 
#
# 1 0.011495 -0.000940 -0.001856 0.000000 -0.000372 0.000000
# 2 -0.000940 0.005638 -0.001160 0.000000 -0.000142 0.000000
# 3 -0.001856 -0.001160 0.008016 0.000000 0.003275 0.000000
# 4 0.000000 0.000000 0.000000 0.044272 0.000000 0.000113
# 5 -0.000372 -0.000142 0.003275 0.000000 0.022757 0.000000
# 6 0.000000 0.000000 0.000000 0.000113 0.000000 0.019251
#
#
# Mechanical properties :
#
#
# Convention : Reuss Voigt Hill
#
# Bulk Modulus (GPa) = 58.02050 64.68147 61.35099
# Shear Modulus (GPa) = 39.97170 47.24363 43.60766
#
# Velocity S-wave (km/s) = 3.88217 4.22056 4.05490
# Velocity P-wave (km/s) = 6.47854 6.93822 6.71232
#
# Compressibility (1/GPa) = 0.01723529
#
# Stress axis : x y z
#
# Youngs Moduli (GPa) = 86.99539 177.36001 124.75065
#
# Poissons Ratio (x) = 0.16676 0.23157
# Poissons Ratio (y) = 0.08180 0.14476
# Poissons Ratio (z) = 0.16149 0.20581
#
# Static dielectric constant tensor:
#      x y z
#    x 2.171680 0.000000 0.044090 
#    y 0.000000 2.044300 0.000000 
#    z 0.044090 0.000000 2.100710 
# 
# From -- ./inp_files/187597.got.cif
#   From: 2010.05.17/outbox.cif.g08.bks.cpg/sg15_94_cif.got.tgz:187597.got - 2010.06.03 18:47:42.
