data_PCOD9297117
_publ_section_title
;
Structure prediction by ZEFSAII (Michael W. Deem and Ramdas Pophale) SiO2 
 PCOD9297117
Probable space group: C 2/C
;
_chemical_formula_sum "Si O2"
_cell_formula_units_Z 48
_cell_length_a 11.637389
_cell_length_b 22.373384
_cell_length_c 11.862396
_cell_angle_alpha 90.000000
_cell_angle_beta 46.636661
_cell_angle_gamma 90.000000
_cell_volume 2245.445481
_symmetry_space_group_name_H-M "C 2/C"
_symmetry_group_IT_number 15
_symmetry_cell_setting 'monoclinic'
loop_
_space_group_symop_operation_xyz
x,y,z
-x,y,1/2-z
-x,-y,-z
x,-y,1/2+z
1/2+x,1/2+y,z
1/2-x,1/2+y,1/2-z
1/2-x,1/2-y,-z
1/2+x,1/2-y,1/2+z
loop_
_atom_site_type_symbol
_atom_site_label
_atom_site_fract_x
_atom_site_fract_y
_atom_site_fract_z
Si Si1 0.682672 0.311573 0.590906
Si Si2 0.213458 0.153243 0.309078
Si Si3 0.537803 0.567530 0.944203
Si Si4 0.000000 0.856016 0.250000
Si Si5 0.171923 0.289856 0.413871
Si Si6 0.500000 0.162905 0.250000
Si Si7 0.344874 0.122169 0.783690
O O1 0.500000 0.305351 0.750000
O O2 0.750000 0.250000 0.500000
O O3 0.769121 0.333628 0.645178
O O4 0.726317 0.353332 0.458583
O O5 0.169291 0.219331 0.387240
O O6 0.352197 0.128714 0.295454
O O7 0.068832 0.107893 0.399965
O O8 0.478836 0.599302 0.868993
O O9 0.729106 0.572892 0.808912
O O10 0.500000 0.500000 0.000000
O O11 0.847403 0.814899 0.325828
O O12 0.124955 0.327679 0.333172
O O13 0.066931 0.301619 0.595800
O O14 0.500000 0.105395 0.750000
#
# Coordination Sequence:
#
# PCOD9297117 Si02
#       7
#     8   8   8   4   8   4   8
#     4  12  24  40  66 103 147 184 225 286 360 439
#     4  12  25  40  67 103 139 186 224 289 357 425
#     4  11  26  47  70  98 140 193 242 287 354 433
#     4  10  23  48  70  98 142 188 227 302 364 421
#     4  11  24  40  68 103 144 175 224 295 362 426
#     4  12  25  38  66 104 136 170 231 286 354 429
#     4  11  24  45  68 101 140 182 235 294 355 418
#
# _framework density 21.376605000000001
#
# number of rings (size 3 to 8) (size 9 to 14) (size 15 to 20)
#    0.000    0.667    5.000    2.500    7.000    1.333 
#    1.500    0.000    0.000    5.000    0.000    0.000 
#    0.000    0.000    0.000    0.000    0.000    0.000 
#
# Total GULP energy -133914.112746 kJ/mol
# GULP energy per Si atom -5579.754698 kJ/mol
# Density = 2.132795 g / cm^3
# Si number density = 21.376605 Si / 1000 Ang^3
#
#
#
# Elastic Constant Matrix: (Units=GPa)
#
#
# Indices 1 2 3 4 5 6 
#
# 1 129.9345 34.7940 29.7731 0.0000 -17.7206 0.0000
# 2 34.7940 110.8612 30.2650 0.0000 -15.5432 0.0000
# 3 29.7731 30.2650 139.6403 0.0000 0.7563 0.0000
# 4 0.0000 0.0000 0.0000 18.0916 0.0000 3.2350
# 5 -17.7206 -15.5432 0.7563 0.0000 48.5010 0.0000
# 6 0.0000 0.0000 0.0000 3.2350 0.0000 2.3867
#
#
#
# Elastic Compliance Matrix: (Units=1/GPa)
#
#
# Indices 1 2 3 4 5 6 
#
# 1 0.008939 -0.002032 -0.001480 0.000000 0.002638 0.000000
# 2 -0.002032 0.010541 -0.001866 0.000000 0.002665 0.000000
# 3 -0.001480 -0.001866 0.007888 0.000000 -0.001262 0.000000
# 4 0.000000 0.000000 0.000000 0.072957 0.000000 -0.098888
# 5 0.002638 0.002665 -0.001262 0.000000 0.022456 0.000000
# 6 0.000000 0.000000 0.000000 -0.098888 0.000000 0.553015
#
#
# Mechanical properties :
#
#
# Convention : Reuss Voigt Hill
#
# Bulk Modulus (GPa) = 60.19300 63.34446 61.76873
# Shear Modulus (GPa) = 7.22451 32.83612 20.03032
#
# Velocity S-wave (km/s) = 1.84037 3.92353 3.06440
# Velocity P-wave (km/s) = 5.72149 7.08678 6.44041
#
# Compressibility (1/GPa) = 0.01661323
#
# Stress axis : x y z
#
# Youngs Moduli (GPa) = 111.86793 94.86828 126.77460
#
# Poissons Ratio (x) = 0.19274 0.18761
# Poissons Ratio (y) = 0.22728 0.23654
# Poissons Ratio (z) = 0.16555 0.17701
#
# Static dielectric constant tensor:
#      x y z
#    x 2.000970 0.000000 -0.076290 
#    y 0.000000 1.561660 0.000000 
#    z -0.076290 0.000000 1.846870 
# 
# From -- ./inp_files/89451.got.cif
#   From: 2010.05.17/outbox.cif.g08.bks.cpg/sg15_45_cif.got.tgz:89451.got - 2010.06.03 18:47:42.
