data_PCOD9297994
_publ_section_title
;
Structure prediction by ZEFSAII (Michael W. Deem and Ramdas Pophale) SiO2 
 PCOD9297994
Probable space group: C 2/C
;
_chemical_formula_sum "Si O2"
_cell_formula_units_Z 28
_cell_length_a 7.403505
_cell_length_b 19.723275
_cell_length_c 7.733197
_cell_angle_alpha 90.000000
_cell_angle_beta 109.468435
_cell_angle_gamma 90.000000
_cell_volume 1064.649566
_symmetry_space_group_name_H-M "C 2/C"
_symmetry_group_IT_number 15
_symmetry_cell_setting 'monoclinic'
loop_
_space_group_symop_operation_xyz
x,y,z
-x,y,1/2-z
-x,-y,-z
x,-y,1/2+z
1/2+x,1/2+y,z
1/2-x,1/2+y,1/2-z
1/2-x,1/2-y,-z
1/2+x,1/2-y,1/2+z
loop_
_atom_site_type_symbol
_atom_site_label
_atom_site_fract_x
_atom_site_fract_y
_atom_site_fract_z
Si Si1 0.750876 0.127656 0.005893
Si Si2 0.223964 0.306638 0.844615
Si Si3 0.800200 0.400221 0.369134
Si Si4 0.000000 0.983589 0.750000
O O1 0.790742 0.183542 0.167180
O O2 0.902456 0.068353 0.085450
O O3 0.752679 0.150711 0.806686
O O4 0.532115 0.098134 0.954587
O O5 0.000000 0.306256 0.750000
O O6 0.250000 0.250000 0.000000
O O7 0.272145 0.374203 0.969873
O O8 0.684270 0.467410 0.281964
#
# Coordination Sequence:
#
# PCOD9297994 Si02
#       4
#     8   8   8   4
#     4  10  24  43  63 101 138 176 220 280 337 395
#     4  10  24  44  68  93 132 177 227 280 336 393
#     4  10  24  43  64  98 142 176 219 279 338 399
#     4  12  24  40  72 104 138 182 224 270 340 414
#
# _framework density 26.299734999999998
#
# number of rings (size 3 to 8) (size 9 to 14) (size 15 to 20)
#    0.000    1.714    0.000    1.714   10.000    1.143 
#    0.000    2.857    0.000    0.000    0.000    0.000 
#    0.000    0.000    0.000    0.000    0.000    0.000 
#
# Total GULP energy -78007.625296 kJ/mol
# GULP energy per Si atom -5571.973235 kJ/mol
# Density = 2.623988 g / cm^3
# Si number density = 26.299735 Si / 1000 Ang^3
#
#
#
# Elastic Constant Matrix: (Units=GPa)
#
#
# Indices 1 2 3 4 5 6 
#
# 1 95.1499 34.8202 68.3178 0.0000 28.3866 0.0000
# 2 34.8202 86.4205 70.7803 0.0000 15.7149 0.0000
# 3 68.3178 70.7803 244.9227 0.0000 -2.9936 0.0000
# 4 0.0000 0.0000 0.0000 12.4835 0.0000 1.7019
# 5 28.3866 15.7149 -2.9936 0.0000 47.9749 0.0000
# 6 0.0000 0.0000 0.0000 1.7019 0.0000 2.6636
#
#
#
# Elastic Compliance Matrix: (Units=1/GPa)
#
#
# Indices 1 2 3 4 5 6 
#
# 1 0.017280 -0.001426 -0.004531 0.000000 -0.010040 0.000000
# 2 -0.001426 0.016720 -0.004494 0.000000 -0.004914 0.000000
# 3 -0.004531 -0.004494 0.006701 0.000000 0.004571 0.000000
# 4 0.000000 0.000000 0.000000 0.087749 0.000000 -0.056067
# 5 -0.010040 -0.004914 0.004571 0.000000 0.028680 0.000000
# 6 0.000000 0.000000 0.000000 -0.056067 0.000000 0.411257
#
#
# Mechanical properties :
#
#
# Convention : Reuss Voigt Hill
#
# Bulk Modulus (GPa) = 50.50571 86.03664 68.27118
# Shear Modulus (GPa) = 8.39083 29.46272 18.92678
#
# Velocity S-wave (km/s) = 1.78812 3.35067 2.68555
# Velocity P-wave (km/s) = 4.84858 6.91044 5.96921
#
# Compressibility (1/GPa) = 0.01979974
#
# Stress axis : x y z
#
# Youngs Moduli (GPa) = 57.87092 59.80746 149.22371
#
# Poissons Ratio (x) = 0.08528 0.67607
# Poissons Ratio (y) = 0.08252 0.67066
# Poissons Ratio (z) = 0.26219 0.26879
#
# Static dielectric constant tensor:
#      x y z
#    x 1.738210 0.000000 0.316690 
#    y 0.000000 2.038210 0.000000 
#    z 0.316690 0.000000 1.567030 
# 
# From -- ./inp_files/22487.got.cif
#   From: 2010.05.17/outbox.cif.g08.bks.cpg/sg15_12_cif.got.tgz:22487.got - 2010.06.03 18:47:42.
