data_PCOD9297771
_publ_section_title
;
Structure prediction by ZEFSAII (Michael W. Deem and Ramdas Pophale) SiO2 
 PCOD9297771
Probable space group: C 2/C
;
_chemical_formula_sum "Si O2"
_cell_formula_units_Z 40
_cell_length_a 12.228967
_cell_length_b 18.083208
_cell_length_c 8.807422
_cell_angle_alpha 90.000000
_cell_angle_beta 115.980210
_cell_angle_gamma 90.000000
_cell_volume 1750.843685
_symmetry_space_group_name_H-M "C 2/C"
_symmetry_group_IT_number 15
_symmetry_cell_setting 'monoclinic'
loop_
_space_group_symop_operation_xyz
x,y,z
-x,y,1/2-z
-x,-y,-z
x,-y,1/2+z
1/2+x,1/2+y,z
1/2-x,1/2+y,1/2-z
1/2-x,1/2-y,-z
1/2+x,1/2-y,1/2+z
loop_
_atom_site_type_symbol
_atom_site_label
_atom_site_fract_x
_atom_site_fract_y
_atom_site_fract_z
Si Si1 0.669028 0.646781 0.242013
Si Si2 0.751071 0.015704 0.391861
Si Si3 0.272679 0.204212 0.857843
Si Si4 0.405856 0.386150 0.460399
Si Si5 0.892823 0.559443 0.914279
O O1 0.760553 0.589307 0.216890
O O2 0.703708 0.731329 0.247058
O O3 0.650150 0.630825 0.406965
O O4 0.546045 0.634199 0.068384
O O5 0.718176 0.035423 0.542015
O O6 0.874795 0.973189 0.430138
O O7 0.651142 0.955512 0.282007
O O8 0.159774 0.157505 0.717377
O O9 0.388249 0.147625 0.939802
O O10 0.250000 0.250000 0.000000
O O11 0.000000 0.500000 0.000000
#
# Coordination Sequence:
#
# PCOD9297771 Si02
#       5
#     8   8   8   8   8
#     4  11  22  43  68  97 133 177 223 282 352 409
#     4  11  21  43  67  95 134 171 230 279 336 414
#     4  11  24  44  66  98 139 173 230 290 342 413
#     4  10  24  42  66  98 132 180 220 280 348 414
#     4  11  24  43  66  97 132 182 227 278 347 412
#
# _framework density 22.846129000000001
#
# number of rings (size 3 to 8) (size 9 to 14) (size 15 to 20)
#    0.000    1.200    4.000    1.800    0.000    2.400 
#   18.000    0.000    0.000    0.000    0.000    0.000 
#    0.000    0.000    0.000    0.000    0.000    0.000 
#
# Total GULP energy -111436.738871 kJ/mol
# GULP energy per Si atom -5571.836944 kJ/mol
# Density = 2.279413 g / cm^3
# Si number density = 22.846129 Si / 1000 Ang^3
#
#
#
# Elastic Constant Matrix: (Units=GPa)
#
#
# Indices 1 2 3 4 5 6 
#
# 1 33.5183 24.6316 11.5285 0.0000 5.8370 0.0000
# 2 24.6316 157.2213 23.0169 0.0000 -2.0839 0.0000
# 3 11.5285 23.0169 99.0318 0.0000 -0.3704 0.0000
# 4 0.0000 0.0000 0.0000 38.4935 0.0000 -5.9653
# 5 5.8370 -2.0839 -0.3704 0.0000 29.6594 0.0000
# 6 0.0000 0.0000 0.0000 -5.9653 0.0000 39.2444
#
#
#
# Elastic Compliance Matrix: (Units=1/GPa)
#
#
# Indices 1 2 3 4 5 6 
#
# 1 0.036076 -0.005313 -0.002993 0.000000 -0.007511 0.000000
# 2 -0.005313 0.007373 -0.001089 0.000000 0.001550 0.000000
# 3 -0.002993 -0.001089 0.010702 0.000000 0.000646 0.000000
# 4 0.000000 0.000000 0.000000 0.026605 0.000000 0.004044
# 5 -0.007511 0.001550 0.000646 0.000000 0.035311 0.000000
# 6 0.000000 0.000000 0.000000 0.004044 0.000000 0.026096
#
#
# Mechanical properties :
#
#
# Convention : Reuss Voigt Hill
#
# Bulk Modulus (GPa) = 28.28060 45.34729 36.81394
# Shear Modulus (GPa) = 28.94502 36.85243 32.89872
#
# Velocity S-wave (km/s) = 3.56329 4.02066 3.79887
# Velocity P-wave (km/s) = 5.41618 6.43789 5.94901
#
# Compressibility (1/GPa) = 0.03535993
#
# Stress axis : x y z
#
# Youngs Moduli (GPa) = 27.71893 135.63148 93.44263
#
# Poissons Ratio (x) = 0.72067 0.27966
# Poissons Ratio (y) = 0.14728 0.10178
# Poissons Ratio (z) = 0.08296 0.14774
#
# Static dielectric constant tensor:
#      x y z
#    x 1.898570 0.000000 0.046460 
#    y 0.000000 1.893940 0.000000 
#    z 0.046460 0.000000 1.840760 
# 
# From -- ./inp_files/38931.got.cif
#   From: 2010.05.17/outbox.cif.g08.bks.cpg/sg15_20_cif.got.tgz:38931.got - 2010.06.03 18:47:42.
