data_PCOD9297053
_publ_section_title
;
Structure prediction by ZEFSAII (Michael W. Deem and Ramdas Pophale) SiO2 
 PCOD9297053
Probable space group: C 2/C
;
_chemical_formula_sum "Si O2"
_cell_formula_units_Z 40
_cell_length_a 15.737042
_cell_length_b 15.380719
_cell_length_c 14.251787
_cell_angle_alpha 90.000000
_cell_angle_beta 30.434449
_cell_angle_gamma 90.000000
_cell_volume 1747.403978
_symmetry_space_group_name_H-M "C 2/C"
_symmetry_group_IT_number 15
_symmetry_cell_setting 'monoclinic'
loop_
_space_group_symop_operation_xyz
x,y,z
-x,y,1/2-z
-x,-y,-z
x,-y,1/2+z
1/2+x,1/2+y,z
1/2-x,1/2+y,1/2-z
1/2-x,1/2-y,-z
1/2+x,1/2-y,1/2+z
loop_
_atom_site_type_symbol
_atom_site_label
_atom_site_fract_x
_atom_site_fract_y
_atom_site_fract_z
Si Si1 0.732436 0.623083 0.835301
Si Si2 0.917911 0.296065 0.564026
Si Si3 0.332516 0.176964 0.357009
Si Si4 0.194335 0.999241 0.038172
Si Si5 0.317759 0.019544 0.124964
O O1 0.606009 0.702949 0.960086
O O2 0.694668 0.544193 0.799310
O O3 0.898558 0.669590 0.636839
O O4 0.755157 0.576473 0.913074
O O5 0.885724 0.286758 0.705546
O O6 0.797110 0.376662 0.650732
O O7 0.500000 0.148421 0.250000
O O8 0.250000 0.250000 0.500000
O O9 0.216694 0.092014 0.462562
O O10 0.000000 0.011849 0.250000
O O11 0.300647 0.995672 0.032750
O O12 0.500000 0.000000 0.000000
#
# Coordination Sequence:
#
# PCOD9297053 Si02
#       5
#     8   8   8   8   8
#     4  11  26  48  72 106 152 194 254 312 373 456
#     4  11  24  44  73 104 143 203 240 303 380 451
#     4  12  24  45  77 112 149 191 256 314 375 445
#     4  12  28  46  73 113 151 196 250 316 379 447
#     4  10  23  47  73 103 145 197 244 302 376 449
#
# _framework density 22.891100999999999
#
# number of rings (size 3 to 8) (size 9 to 14) (size 15 to 20)
#    0.000    0.800    2.000    5.400    5.600    3.200 
#    0.000    0.000    0.000    0.000    0.000    0.000 
#    0.000    0.000    0.000    0.000    0.000    0.000 
#
# Total GULP energy -111859.254620 kJ/mol
# GULP energy per Si atom -5592.962731 kJ/mol
# Density = 2.283900 g / cm^3
# Si number density = 22.891101 Si / 1000 Ang^3
#
#
#
# Elastic Constant Matrix: (Units=GPa)
#
#
# Indices 1 2 3 4 5 6 
#
# 1 100.3445 38.2744 34.9693 0.0008 26.0387 -0.0003
# 2 38.2744 98.4632 30.2072 -0.0056 3.8432 0.0044
# 3 34.9693 30.2072 111.9219 0.0003 5.8729 0.0006
# 4 0.0008 -0.0056 0.0003 42.9274 0.0007 7.7607
# 5 26.0387 3.8432 5.8729 0.0007 21.1482 -0.0007
# 6 -0.0003 0.0044 0.0006 7.7607 -0.0007 34.5616
#
#
#
# Elastic Compliance Matrix: (Units=1/GPa)
#
#
# Indices 1 2 3 4 5 6 
#
# 1 0.018629 -0.005422 -0.003253 -0.000001 -0.021049 0.000001
# 2 -0.005422 0.012681 -0.001987 0.000002 0.004923 -0.000002
# 3 -0.003253 -0.001987 0.010410 0.000000 0.001475 0.000000
# 4 -0.000001 0.000002 0.000000 0.024281 0.000000 -0.005452
# 5 -0.021049 0.004923 0.001475 0.000000 0.071897 0.000001
# 6 0.000001 -0.000002 0.000000 -0.005452 0.000001 0.030158
#
#
# Mechanical properties :
#
#
# Convention : Reuss Voigt Hill
#
# Bulk Modulus (GPa) = 49.02655 57.51461 53.27058
# Shear Modulus (GPa) = 25.48692 33.54601 29.51647
#
# Velocity S-wave (km/s) = 3.34038 3.83229 3.59476
# Velocity P-wave (km/s) = 6.02838 6.69042 6.36801
#
# Compressibility (1/GPa) = 0.02039711
#
# Stress axis : x y z
#
# Youngs Moduli (GPa) = 53.67866 78.85744 96.06212
#
# Poissons Ratio (x) = 0.42757 0.31247
# Poissons Ratio (y) = 0.29105 0.19086
# Poissons Ratio (z) = 0.17460 0.15667
#
# Static dielectric constant tensor:
#      x y z
#    x 1.887950 0.000000 -0.043180 
#    y 0.000000 1.876330 0.000000 
#    z -0.043180 0.000000 1.925200 
# 
# From -- ./inp_files/46920.got.cif
#   From: 2010.05.17/outbox.cif.g08.bks.cpg/sg15_24_cif.got.tgz:46920.got - 2010.06.03 18:47:42.
