data_PCOD9297328
_publ_section_title
;
Structure prediction by ZEFSAII (Michael W. Deem and Ramdas Pophale) SiO2 
 PCOD9297328
Probable space group: C 2/C
;
_chemical_formula_sum "Si O2"
_cell_formula_units_Z 48
_cell_length_a 15.616207
_cell_length_b 8.451565
_cell_length_c 24.390839
_cell_angle_alpha 90.000000
_cell_angle_beta 38.621751
_cell_angle_gamma 90.000000
_cell_volume 2009.308695
_symmetry_space_group_name_H-M "C 2/C"
_symmetry_group_IT_number 15
_symmetry_cell_setting 'monoclinic'
loop_
_space_group_symop_operation_xyz
x,y,z
-x,y,1/2-z
-x,-y,-z
x,-y,1/2+z
1/2+x,1/2+y,z
1/2-x,1/2+y,1/2-z
1/2-x,1/2-y,-z
1/2+x,1/2-y,1/2+z
loop_
_atom_site_type_symbol
_atom_site_label
_atom_site_fract_x
_atom_site_fract_y
_atom_site_fract_z
Si Si1 0.317570 0.988634 0.277362
Si Si2 0.940434 0.923272 0.153127
Si Si3 0.341880 0.305520 0.314961
Si Si4 0.677879 0.908320 0.944989
Si Si5 0.041393 0.791701 0.670657
Si Si6 0.531444 0.112741 0.401361
O O1 0.164704 0.930141 0.344335
O O2 0.437114 0.857382 0.223313
O O3 0.305387 0.121066 0.330231
O O4 0.357467 0.076252 0.200740
O O5 0.844244 0.877598 0.252884
O O6 0.035670 0.774669 0.088678
O O7 0.008945 0.086920 0.137510
O O8 0.500000 0.301159 0.250000
O O9 0.254107 0.423158 0.395538
O O10 0.793212 0.782848 0.905879
O O11 0.599181 0.869229 0.927707
O O12 0.566329 0.959421 0.045510
O O13 0.000000 0.869950 0.750000
#
# Coordination Sequence:
#
# PCOD9297328 Si02
#       6
#     8   8   8   8   8   8
#     4  11  23  37  63  92 118 154 215 250 297 362
#     4  11  20  38  62  89 117 156 209 242 300 363
#     4  11  20  38  60  87 115 157 202 248 296 365
#     4  11  21  42  63  86 131 160 201 249 321 349
#     4  12  21  38  65  89 120 164 202 254 302 360
#     4  10  24  39  63  91 120 167 199 253 305 369
#
# _framework density 23.888812999999999
#
# number of rings (size 3 to 8) (size 9 to 14) (size 15 to 20)
#    0.000    1.000    5.000    3.500    0.000    1.333 
#    0.000    0.833    3.667    0.000    0.000    0.000 
#    0.000    0.000    0.000    0.000    0.000    0.000 
#
# Total GULP energy -133829.923681 kJ/mol
# GULP energy per Si atom -5576.246820 kJ/mol
# Density = 2.383444 g / cm^3
# Si number density = 23.888813 Si / 1000 Ang^3
#
#
#
# Elastic Constant Matrix: (Units=GPa)
#
#
# Indices 1 2 3 4 5 6 
#
# 1 71.6787 27.9650 -12.4354 0.0000 -18.9760 0.0000
# 2 27.9650 75.5344 -22.6091 0.0000 1.9720 0.0001
# 3 -12.4354 -22.6091 26.2858 0.0000 6.3169 0.0000
# 4 0.0000 0.0000 0.0000 49.4384 0.0000 20.9202
# 5 -18.9760 1.9720 6.3169 0.0000 23.5418 0.0000
# 6 0.0000 0.0001 0.0000 20.9202 0.0000 61.9612
#
#
#
# Elastic Compliance Matrix: (Units=1/GPa)
#
#
# Indices 1 2 3 4 5 6 
#
# 1 0.022410 -0.009468 -0.002216 0.000000 0.019452 0.000000
# 2 -0.009468 0.022658 0.018492 0.000000 -0.014492 0.000000
# 3 -0.002216 0.018492 0.057403 0.000000 -0.018738 0.000000
# 4 0.000000 0.000000 0.000000 0.023599 0.000000 -0.007968
# 5 0.019452 -0.014492 -0.018738 0.000000 0.064399 0.000000
# 6 0.000000 0.000000 0.000000 -0.007968 0.000000 0.018829
#
#
# Mechanical properties :
#
#
# Convention : Reuss Voigt Hill
#
# Bulk Modulus (GPa) = 8.61437 17.70446 13.15941
# Shear Modulus (GPa) = 21.33302 39.02682 30.17992
#
# Velocity S-wave (km/s) = 2.99157 4.04627 3.55822
# Velocity P-wave (km/s) = 3.94291 5.40898 4.73305
#
# Compressibility (1/GPa) = 0.11608511
#
# Stress axis : x y z
#
# Youngs Moduli (GPa) = 44.62268 44.13507 17.42070
#
# Poissons Ratio (x) = 0.41788 0.03861
# Poissons Ratio (y) = 0.42249 -0.32214
# Poissons Ratio (z) = 0.09890 -0.81614
#
# Static dielectric constant tensor:
#      x y z
#    x 1.278160 0.000000 -0.100890 
#    y 0.000000 2.035950 0.000000 
#    z -0.100890 0.000000 1.892040 
# 
# From -- ./inp_files/247276.got.cif
#   From: 2010.05.17/outbox.cif.g08.bks.cpg/sg15_124_cif.got.tgz:247276.got - 2010.06.03 18:47:42.
