data_PCOD9297438
_publ_section_title
;
Structure prediction by ZEFSAII (Michael W. Deem and Ramdas Pophale) SiO2 
 PCOD9297438
Probable space group: C 2/C
;
_chemical_formula_sum "Si O2"
_cell_formula_units_Z 56
_cell_length_a 22.222872
_cell_length_b 7.403443
_cell_length_c 15.866979
_cell_angle_alpha 90.000000
_cell_angle_beta 52.208384
_cell_angle_gamma 90.000000
_cell_volume 2062.955001
_symmetry_space_group_name_H-M "C 2/C"
_symmetry_group_IT_number 15
_symmetry_cell_setting 'monoclinic'
loop_
_space_group_symop_operation_xyz
x,y,z
-x,y,1/2-z
-x,-y,-z
x,-y,1/2+z
1/2+x,1/2+y,z
1/2-x,1/2+y,1/2-z
1/2-x,1/2-y,-z
1/2+x,1/2-y,1/2+z
loop_
_atom_site_type_symbol
_atom_site_label
_atom_site_fract_x
_atom_site_fract_y
_atom_site_fract_z
Si Si1 0.482883 0.817405 0.106469
Si Si2 0.888817 0.051795 0.286466
Si Si3 0.652495 0.720130 0.010780
Si Si4 0.551353 0.829135 0.786780
Si Si5 0.819440 0.389347 0.940929
Si Si6 0.255571 0.869239 0.701268
Si Si7 0.358143 0.198465 0.586303
O O1 0.436076 0.732358 0.225127
O O2 0.569729 0.761782 0.042077
O O3 0.433514 0.744949 0.070739
O O4 0.473670 0.033628 0.119679
O O5 0.862903 0.067806 0.405936
O O6 0.812320 0.046011 0.296851
O O7 0.943044 0.886818 0.212041
O O8 0.685311 0.898041 0.031905
O O9 0.711136 0.702323 0.882860
O O10 0.500000 0.875180 0.750000
O O11 0.636723 0.875165 0.683786
O O12 0.750000 0.250000 0.000000
O O13 0.868312 0.314835 0.978564
O O14 0.213426 0.816809 0.822411
O O15 0.326327 0.004291 0.645207
#
# Coordination Sequence:
#
# PCOD9297438 Si02
#       7
#     8   8   8   8   8   8   8
#     4  11  23  44  71  96 145 177 227 288 350 415
#     4  11  23  41  68 102 136 179 234 281 344 418
#     4  11  21  44  67 101 136 186 227 288 349 412
#     4  12  22  40  70 101 132 180 223 287 346 407
#     4  11  24  41  67 100 134 176 237 277 338 411
#     4  10  24  40  66  96 135 183 229 283 352 401
#     4  10  25  43  63  99 136 182 227 287 342 413
#
# _framework density 27.145527000000001
#
# number of rings (size 3 to 8) (size 9 to 14) (size 15 to 20)
#    0.000    1.143    2.857    3.429    4.000    3.429 
#    0.000    0.000    0.000    4.286    0.000    0.000 
#    0.000    0.000    0.000    0.000    0.000    0.000 
#
# Total GULP energy -156792.915982 kJ/mol
# GULP energy per Si atom -5599.746999 kJ/mol
# Density = 2.708374 g / cm^3
# Si number density = 27.145527 Si / 1000 Ang^3
#
#
#
# Elastic Constant Matrix: (Units=GPa)
#
#
# Indices 1 2 3 4 5 6 
#
# 1 147.2027 11.7714 -12.2149 -0.0001 -15.7262 -0.0001
# 2 11.7714 113.2148 26.2164 0.0002 0.7828 0.0007
# 3 -12.2149 26.2164 47.5841 0.0000 -9.5518 0.0002
# 4 -0.0001 0.0002 0.0000 32.9348 0.0002 -6.4395
# 5 -15.7262 0.7828 -9.5518 0.0002 29.3351 0.0000
# 6 -0.0001 0.0007 0.0002 -6.4395 0.0000 26.6822
#
#
#
# Elastic Compliance Matrix: (Units=1/GPa)
#
#
# Indices 1 2 3 4 5 6 
#
# 1 0.007886 -0.001822 0.004158 0.000000 0.005630 0.000000
# 2 -0.001822 0.010684 -0.007069 0.000000 -0.003563 0.000000
# 3 0.004158 -0.007069 0.028313 0.000000 0.011637 0.000000
# 4 0.000000 0.000000 0.000000 0.031867 0.000000 0.007691
# 5 0.005630 -0.003563 0.011637 0.000000 0.040991 0.000000
# 6 0.000000 0.000000 0.000000 0.007691 0.000000 0.039334
#
#
# Mechanical properties :
#
#
# Convention : Reuss Voigt Hill
#
# Bulk Modulus (GPa) = 26.72578 39.94970 33.33774
# Shear Modulus (GPa) = 27.62234 36.60565 32.11400
#
# Velocity S-wave (km/s) = 3.19339 3.67617 3.44325
# Velocity P-wave (km/s) = 4.84394 5.72432 5.30243
#
# Compressibility (1/GPa) = 0.03741706
#
# Stress axis : x y z
#
# Youngs Moduli (GPa) = 126.81500 93.59997 35.31894
#
# Poissons Ratio (x) = 0.17051 -0.14685
# Poissons Ratio (y) = 0.23101 0.24967
# Poissons Ratio (z) = -0.52729 0.66167
#
# Static dielectric constant tensor:
#      x y z
#    x 2.073950 0.000000 -0.013220 
#    y 0.000000 2.190760 0.000000 
#    z -0.013220 0.000000 2.092390 
# 
# From -- ./inp_files/213783.got.cif
#   From: 2010.05.17/outbox.cif.g08.bks.cpg/sg15_107_cif.got.tgz:213783.got - 2010.06.03 18:47:42.
