data_PCOD9297140
_publ_section_title
;
Structure prediction by ZEFSAII (Michael W. Deem and Ramdas Pophale) SiO2 
 PCOD9297140
Probable space group: C 2/C
;
_chemical_formula_sum "Si O2"
_cell_formula_units_Z 32
_cell_length_a 14.708103
_cell_length_b 4.978159
_cell_length_c 16.263807
_cell_angle_alpha 90.000000
_cell_angle_beta 90.298673
_cell_angle_gamma 90.000000
_cell_volume 1190.807983
_symmetry_space_group_name_H-M "C 2/C"
_symmetry_group_IT_number 15
_symmetry_cell_setting 'monoclinic'
loop_
_space_group_symop_operation_xyz
x,y,z
-x,y,1/2-z
-x,-y,-z
x,-y,1/2+z
1/2+x,1/2+y,z
1/2-x,1/2+y,1/2-z
1/2-x,1/2-y,-z
1/2+x,1/2-y,1/2+z
loop_
_atom_site_type_symbol
_atom_site_label
_atom_site_fract_x
_atom_site_fract_y
_atom_site_fract_z
Si Si1 0.768292 0.587416 0.582895
Si Si2 0.572947 0.354064 0.164094
Si Si3 0.203081 0.194338 0.790743
Si Si4 0.479053 0.863481 0.089239
O O1 0.750000 0.750000 0.500000
O O2 0.673907 0.655300 0.626235
O O3 0.780285 0.270367 0.613113
O O4 0.871891 0.671201 0.602654
O O5 0.523122 0.074945 0.151607
O O6 0.603169 0.400040 0.259571
O O7 0.526358 0.583272 0.109366
O O8 0.273103 0.977269 0.754551
O O9 0.500000 0.000000 0.000000
#
# Coordination Sequence:
#
# PCOD9297140 Si02
#       4
#     8   8   8   8
#     4  11  25  47  79 110 150 200 250 313 383 440
#     4  11  25  48  71 105 157 189 252 315 368 458
#     4  10  23  48  75 106 148 205 252 307 382 449
#     4  12  26  45  75 113 145 193 250 312 379 443
#
# _framework density 26.872512
#
# number of rings (size 3 to 8) (size 9 to 14) (size 15 to 20)
#    0.000    1.000    2.500    3.750    0.000    8.000 
#    0.000    7.500    0.000    0.000    0.000    0.000 
#    0.000    0.000    0.000    0.000    0.000    0.000 
#
# Total GULP energy -89247.215426 kJ/mol
# GULP energy per Si atom -5577.950964 kJ/mol
# Density = 2.681135 g / cm^3
# Si number density = 26.872512 Si / 1000 Ang^3
#
#
#
# Elastic Constant Matrix: (Units=GPa)
#
#
# Indices 1 2 3 4 5 6 
#
# 1 188.5605 42.2938 29.4179 0.0000 39.7662 0.0000
# 2 42.2938 132.4055 48.4883 0.0000 23.2623 0.0000
# 3 29.4179 48.4883 39.8923 0.0000 10.8880 0.0000
# 4 0.0000 0.0000 0.0000 58.9873 0.0000 16.7069
# 5 39.7662 23.2623 10.8880 0.0000 50.0241 0.0000
# 6 0.0000 0.0000 0.0000 16.7069 0.0000 18.6424
#
#
#
# Elastic Compliance Matrix: (Units=1/GPa)
#
#
# Indices 1 2 3 4 5 6 
#
# 1 0.006875 0.000022 -0.003829 0.000000 -0.004642 0.000000
# 2 0.000022 0.014019 -0.016236 0.000000 -0.003003 0.000000
# 3 -0.003829 -0.016236 0.047560 0.000000 0.000243 0.000000
# 4 0.000000 0.000000 0.000000 0.022720 0.000000 -0.020361
# 5 -0.004642 -0.003003 0.000243 0.000000 0.025024 0.000000
# 6 0.000000 0.000000 0.000000 -0.020361 0.000000 0.071888
#
#
# Mechanical properties :
#
#
# Convention : Reuss Voigt Hill
#
# Bulk Modulus (GPa) = 35.25332 66.80647 51.02989
# Shear Modulus (GPa) = 21.04125 41.57467 31.30796
#
# Velocity S-wave (km/s) = 2.80125 3.93760 3.41699
# Velocity P-wave (km/s) = 4.85900 6.75184 5.88206
#
# Compressibility (1/GPa) = 0.02836613
#
# Stress axis : x y z
#
# Youngs Moduli (GPa) = 145.45934 71.33145 21.02595
#
# Poissons Ratio (x) = -0.00156 0.08052
# Poissons Ratio (y) = -0.00318 0.34139
# Poissons Ratio (z) = 0.55702 1.15817
#
# Static dielectric constant tensor:
#      x y z
#    x 2.059150 0.000000 -0.040180 
#    y 0.000000 1.957990 0.000000 
#    z -0.040180 0.000000 2.461310 
# 
# From -- ./inp_files/241272.got.cif
#   From: 2010.05.17/outbox.cif.g08.bks.cpg/sg15_121_cif.got.tgz:241272.got - 2010.06.03 18:47:42.
