data_PCOD9297175
_publ_section_title
;
Structure prediction by ZEFSAII (Michael W. Deem and Ramdas Pophale) SiO2 
 PCOD9297175
Probable space group: C 2/C
;
_chemical_formula_sum "Si O2"
_cell_formula_units_Z 48
_cell_length_a 26.164491
_cell_length_b 13.124027
_cell_length_c 19.753889
_cell_angle_alpha 90.000000
_cell_angle_beta 20.204354
_cell_angle_gamma 90.000000
_cell_volume 2342.696433
_symmetry_space_group_name_H-M "C 2/C"
_symmetry_group_IT_number 15
_symmetry_cell_setting 'monoclinic'
loop_
_space_group_symop_operation_xyz
x,y,z
-x,y,1/2-z
-x,-y,-z
x,-y,1/2+z
1/2+x,1/2+y,z
1/2-x,1/2+y,1/2-z
1/2-x,1/2-y,-z
1/2+x,1/2-y,1/2+z
loop_
_atom_site_type_symbol
_atom_site_label
_atom_site_fract_x
_atom_site_fract_y
_atom_site_fract_z
Si Si1 0.018974 0.273749 0.481182
Si Si2 0.000000 0.392242 0.250000
Si Si3 0.725716 0.543706 0.018851
Si Si4 0.229055 0.438266 0.191947
Si Si5 0.000000 0.121244 0.750000
Si Si6 0.490489 0.288299 0.657591
Si Si7 0.185163 0.166958 0.395316
O O1 0.088415 0.386721 0.401381
O O2 0.089500 0.206432 0.451940
O O3 0.062988 0.235581 0.351612
O O4 0.842734 0.277765 0.702750
O O5 0.855641 0.458353 0.412184
O O6 0.977972 0.315073 0.340628
O O7 0.608076 0.452204 0.159702
O O8 0.631826 0.646009 0.150241
O O9 0.796535 0.547016 0.856343
O O10 0.279991 0.546897 0.156286
O O11 0.364049 0.358066 0.028988
O O12 0.097751 0.180847 0.574406
#
# Coordination Sequence:
#
# PCOD9297175 Si02
#       7
#     8   4   8   8   4   8   8
#     4  12  25  42  65 103 132 169 215 269 328 388
#     4  12  21  30  62 107 136 164 204 261 328 403
#     4  11  20  37  64  97 130 171 209 255 325 391
#     4  11  21  43  66  95 137 174 207 264 324 390
#     4  10  23  50  68  81 124 180 224 271 316 377
#     4  12  20  36  64  98 139 169 206 256 329 398
#     4  11  26  46  69  89 127 173 223 274 329 374
#
# _framework density 20.48921
#
# number of rings (size 3 to 8) (size 9 to 14) (size 15 to 20)
#    0.000    0.667    8.333    2.000    0.000    1.333 
#    0.000    3.333    0.000    0.000    0.000    0.000 
#    0.000    0.000    0.000    0.000    0.000    0.000 
#
# Total GULP energy -134189.390213 kJ/mol
# GULP energy per Si atom -5591.224592 kJ/mol
# Density = 2.044258 g / cm^3
# Si number density = 20.489210 Si / 1000 Ang^3
#
#
#
# Elastic Constant Matrix: (Units=GPa)
#
#
# Indices 1 2 3 4 5 6 
#
# 1 131.5560 54.1706 48.4050 0.0001 -11.4701 -0.0001
# 2 54.1706 46.1472 20.7095 0.0001 2.3574 -0.0001
# 3 48.4050 20.7095 71.2015 0.0005 -15.3231 -0.0005
# 4 0.0001 0.0001 0.0005 15.4002 -0.0003 6.1579
# 5 -11.4701 2.3574 -15.3231 -0.0003 42.6051 0.0003
# 6 -0.0001 -0.0001 -0.0005 6.1579 0.0003 23.3929
#
#
#
# Elastic Compliance Matrix: (Units=1/GPa)
#
#
# Indices 1 2 3 4 5 6 
#
# 1 0.017553 -0.018154 -0.005875 0.000000 0.003617 0.000000
# 2 -0.018154 0.044454 -0.002351 0.000000 -0.008193 0.000000
# 3 -0.005875 -0.002351 0.019955 -0.000001 0.005725 0.000000
# 4 0.000000 0.000000 -0.000001 0.072573 0.000000 -0.019104
# 5 0.003617 -0.008193 0.005725 0.000000 0.026958 0.000000
# 6 0.000000 0.000000 0.000000 -0.019104 0.000000 0.047777
#
#
# Mechanical properties :
#
#
# Convention : Reuss Voigt Hill
#
# Bulk Modulus (GPa) = 34.24434 55.05277 44.64855
# Shear Modulus (GPa) = 17.13721 24.65427 20.89574
#
# Velocity S-wave (km/s) = 2.89520 3.47260 3.19696
# Velocity P-wave (km/s) = 5.28449 6.55790 5.95533
#
# Compressibility (1/GPa) = 0.02920191
#
# Stress axis : x y z
#
# Youngs Moduli (GPa) = 56.96902 22.49541 50.11401
#
# Poissons Ratio (x) = 0.40837 0.29441
# Poissons Ratio (y) = 1.03420 0.11783
# Poissons Ratio (z) = 0.33468 0.05289
#
# Static dielectric constant tensor:
#      x y z
#    x 1.709920 0.000000 -0.004460 
#    y 0.000000 1.731260 0.000000 
#    z -0.004460 0.000000 1.772930 
# 
# From -- ./inp_files/69858.got.cif
#   From: 2010.05.17/outbox.cif.g08.bks.cpg/sg15_35_cif.got.tgz:69858.got - 2010.06.03 18:47:42.
