data_PCOD9297253
_publ_section_title
;
Structure prediction by ZEFSAII (Michael W. Deem and Ramdas Pophale) SiO2 
 PCOD9297253
Probable space group: C 2/C
;
_chemical_formula_sum "Si O2"
_cell_formula_units_Z 52
_cell_length_a 28.798898
_cell_length_b 12.384151
_cell_length_c 8.327958
_cell_angle_alpha 90.000000
_cell_angle_beta 67.045408
_cell_angle_gamma 90.000000
_cell_volume 2734.970555
_symmetry_space_group_name_H-M "C 2/C"
_symmetry_group_IT_number 15
_symmetry_cell_setting 'monoclinic'
loop_
_space_group_symop_operation_xyz
x,y,z
-x,y,1/2-z
-x,-y,-z
x,-y,1/2+z
1/2+x,1/2+y,z
1/2-x,1/2+y,1/2-z
1/2-x,1/2-y,-z
1/2+x,1/2-y,1/2+z
loop_
_atom_site_type_symbol
_atom_site_label
_atom_site_fract_x
_atom_site_fract_y
_atom_site_fract_z
Si Si1 0.500000 0.071709 0.750000
Si Si2 0.278708 0.567718 0.513389
Si Si3 0.663148 0.054171 0.634385
Si Si4 0.062982 0.603824 0.964956
Si Si5 0.675807 0.238413 0.351108
Si Si6 0.865996 0.309943 0.909666
Si Si7 0.216018 0.844903 0.854914
O O1 0.528589 0.132086 0.857009
O O2 0.538274 0.993870 0.599596
O O3 0.218828 0.567197 0.635845
O O4 0.310365 0.651166 0.577519
O O5 0.294719 0.444574 0.513354
O O6 0.282912 0.607586 0.325939
O O7 0.616491 0.072568 0.814703
O O8 0.662022 0.144098 0.495723
O O9 0.654639 0.932264 0.585198
O O10 0.079882 0.688815 0.077061
O O11 0.634728 0.241145 0.266915
O O12 0.728422 0.203574 0.195461
O O13 0.826678 0.243319 0.068265
#
# Coordination Sequence:
#
# PCOD9297253 Si02
#       7
#     4   8   8   8   8   8   8
#     4  10  24  38  58  84 116 150 176 244 312 368
#     4  11  23  38  52  80 121 164 208 241 271 318
#     4  11  22  36  57  82 117 163 197 237 284 345
#     4  11  22  38  57  83 116 152 189 235 300 365
#     4  11  23  34  55  80 114 160 208 240 275 327
#     4  12  22  35  57  82 112 156 197 237 290 343
#     4  11  23  35  53  78 117 160 208 245 276 321
#
# _framework density 19.013002
#
# number of rings (size 3 to 8) (size 9 to 14) (size 15 to 20)
#    0.000    0.923    3.077    6.000    6.462    0.000 
#    0.000    0.000    0.000    0.000    0.000    0.000 
#    0.000   33.231    0.000    0.154    0.000    0.000 
#
# Total GULP energy -145255.332977 kJ/mol
# GULP energy per Si atom -5586.743576 kJ/mol
# Density = 1.896973 g / cm^3
# Si number density = 19.013002 Si / 1000 Ang^3
#
#
#
# Elastic Constant Matrix: (Units=GPa)
#
#
# Indices 1 2 3 4 5 6 
#
# 1 115.8717 9.0772 19.5607 0.0000 32.1208 0.0000
# 2 9.0772 41.5734 -1.6766 0.0000 -3.0054 0.0000
# 3 19.5607 -1.6766 49.8025 0.0000 -0.3524 0.0000
# 4 0.0000 0.0000 0.0000 22.7186 0.0000 7.6026
# 5 32.1208 -3.0054 -0.3524 0.0000 36.4950 0.0000
# 6 0.0000 0.0000 0.0000 7.6026 0.0000 24.5052
#
#
#
# Elastic Compliance Matrix: (Units=1/GPa)
#
#
# Indices 1 2 3 4 5 6 
#
# 1 0.013168 -0.003957 -0.005390 0.000000 -0.011967 0.000000
# 2 -0.003957 0.025422 0.002450 0.000000 0.005600 0.000000
# 3 -0.005390 0.002450 0.022315 0.000000 0.005161 0.000000
# 4 0.000000 0.000000 0.000000 0.049116 0.000000 -0.015238
# 5 -0.011967 0.005600 0.005161 0.000000 0.038445 0.000000
# 6 0.000000 0.000000 0.000000 -0.015238 0.000000 0.045535
#
#
# Mechanical properties :
#
#
# Convention : Reuss Voigt Hill
#
# Bulk Modulus (GPa) = 21.22710 29.01890 25.12300
# Shear Modulus (GPa) = 22.37153 28.76286 25.56720
#
# Velocity S-wave (km/s) = 3.43395 3.89369 3.67102
# Velocity P-wave (km/s) = 5.18762 5.95905 5.58666
#
# Compressibility (1/GPa) = 0.04710958
#
# Stress axis : x y z
#
# Youngs Moduli (GPa) = 75.94417 39.33670 44.81255
#
# Poissons Ratio (x) = 0.15567 0.24152
# Poissons Ratio (y) = 0.30055 -0.10978
# Poissons Ratio (z) = 0.40931 -0.09637
#
# Static dielectric constant tensor:
#      x y z
#    x 1.727530 0.000000 0.064850 
#    y 0.000000 1.649820 0.000000 
#    z 0.064850 0.000000 1.715870 
# 
# From -- ./inp_files/69013.got.cif
#   From: 2010.05.17/outbox.cif.g08.bks.cpg/sg15_35_cif.got.tgz:69013.got - 2010.06.03 18:47:42.
