data_PCOD9297010
_publ_section_title
;
Structure prediction by ZEFSAII (Michael W. Deem and Ramdas Pophale) SiO2 
 PCOD9297010
Probable space group: C 2/C
;
_chemical_formula_sum "Si O2"
_cell_formula_units_Z 60
_cell_length_a 7.773787
_cell_length_b 12.369649
_cell_length_c 26.406642
_cell_angle_alpha 90.000000
_cell_angle_beta 102.377370
_cell_angle_gamma 90.000000
_cell_volume 2480.217287
_symmetry_space_group_name_H-M "C 2/C"
_symmetry_group_IT_number 15
_symmetry_cell_setting 'monoclinic'
loop_
_space_group_symop_operation_xyz
x,y,z
-x,y,1/2-z
-x,-y,-z
x,-y,1/2+z
1/2+x,1/2+y,z
1/2-x,1/2+y,1/2-z
1/2-x,1/2-y,-z
1/2+x,1/2-y,1/2+z
loop_
_atom_site_type_symbol
_atom_site_label
_atom_site_fract_x
_atom_site_fract_y
_atom_site_fract_z
Si Si1 0.699075 0.387752 0.099557
Si Si2 0.500000 0.317236 0.750000
Si Si3 0.538880 0.395698 0.641835
Si Si4 0.854123 0.761319 0.304206
Si Si5 0.148972 0.847152 0.467662
Si Si6 0.243059 0.174671 0.855485
Si Si7 0.885729 0.513580 0.041923
Si Si8 0.848514 0.561205 0.363684
O O1 0.635479 0.503722 0.120035
O O2 0.720099 0.312317 0.148564
O O3 0.556876 0.339597 0.052285
O O4 0.863292 0.407600 0.074079
O O5 0.522600 0.393544 0.702258
O O6 0.323122 0.242216 0.740636
O O7 0.640376 0.283510 0.637587
O O8 0.330581 0.407549 0.617168
O O9 0.880769 0.635056 0.317211
O O10 0.053464 0.808709 0.314099
O O11 0.250000 0.750000 0.500000
O O12 0.206826 0.851780 0.412618
O O13 0.203002 0.944659 0.508080
O O14 0.329147 0.062023 0.843777
O O15 0.990936 0.586981 0.088229
O O16 0.000000 0.500000 0.000000
#
# Coordination Sequence:
#
# PCOD9297010 Si02
#       8
#     8   4   8   8   8   8   8   8
#     4  11  23  45  71  97 145 199 222 295 373 412
#     4  10  26  44  72 110 130 166 248 296 340 456
#     4  11  23  48  73  98 138 182 230 292 366 421
#     4  10  23  47  69 102 138 176 234 289 361 426
#     4  11  22  41  64 102 137 183 249 281 329 426
#     4  11  23  45  71  97 142 195 217 289 365 407
#     4  12  23  37  63 102 140 181 246 283 329 421
#     4  11  23  43  67 101 142 182 229 290 353 408
#
# _framework density 24.191427999999998
#
# number of rings (size 3 to 8) (size 9 to 14) (size 15 to 20)
#    0.000    1.067    4.000    3.600    3.733    1.600 
#    4.800    2.000    0.000    0.000    0.000    0.000 
#    0.000    0.000    0.000    0.000    0.000    0.000 
#
# Total GULP energy -167309.153961 kJ/mol
# GULP energy per Si atom -5576.971799 kJ/mol
# Density = 2.413637 g / cm^3
# Si number density = 24.191428 Si / 1000 Ang^3
#
#
#
# Elastic Constant Matrix: (Units=GPa)
#
#
# Indices 1 2 3 4 5 6 
#
# 1 75.7454 12.4982 31.2202 0.0000 15.5076 0.0000
# 2 12.4982 109.0109 4.2392 0.0000 5.2812 0.0000
# 3 31.2202 4.2392 73.7193 0.0000 28.6597 0.0000
# 4 0.0000 0.0000 0.0000 31.0987 0.0000 2.1634
# 5 15.5076 5.2812 28.6597 0.0000 42.6855 0.0000
# 6 0.0000 0.0000 0.0000 2.1634 0.0000 40.1173
#
#
#
# Elastic Compliance Matrix: (Units=1/GPa)
#
#
# Indices 1 2 3 4 5 6 
#
# 1 0.016345 -0.001556 -0.006223 0.000000 -0.001567 0.000000
# 2 -0.001556 0.009378 0.000475 0.000000 -0.000914 0.000000
# 3 -0.006223 0.000475 0.020728 0.000000 -0.011715 0.000000
# 4 0.000000 0.000000 0.000000 0.032277 0.000000 -0.001741
# 5 -0.001567 -0.000914 -0.011715 0.000000 0.031975 0.000000
# 6 0.000000 0.000000 0.000000 -0.001741 0.000000 0.025021
#
#
# Mechanical properties :
#
#
# Convention : Reuss Voigt Hill
#
# Bulk Modulus (GPa) = 31.40586 39.37676 35.39131
# Shear Modulus (GPa) = 31.06657 36.81484 33.94070
#
# Velocity S-wave (km/s) = 3.58746 3.90527 3.74973
# Velocity P-wave (km/s) = 5.49274 6.05371 5.78003
#
# Compressibility (1/GPa) = 0.03184119
#
# Stress axis : x y z
#
# Youngs Moduli (GPa) = 61.18160 106.63714 48.24508
#
# Poissons Ratio (x) = 0.16593 0.30024
# Poissons Ratio (y) = 0.09520 -0.02292
# Poissons Ratio (z) = 0.38075 -0.05065
#
# Static dielectric constant tensor:
#      x y z
#    x 2.052210 0.000000 0.017410 
#    y 0.000000 1.984540 0.000000 
#    z 0.017410 0.000000 1.877320 
# 
# From -- ./inp_files/307516.got.cif
#   From: 2010.05.17/outbox.cif.g08.bks.cpg/sg15_154_cif.got.tgz:307516.got - 2010.06.03 18:47:42.
