data_PCOD9297912
_publ_section_title
;
Structure prediction by ZEFSAII (Michael W. Deem and Ramdas Pophale) SiO2 
 PCOD9297912
Probable space group: C 2/C
;
_chemical_formula_sum "Si O2"
_cell_formula_units_Z 60
_cell_length_a 8.675555
_cell_length_b 23.441191
_cell_length_c 21.070686
_cell_angle_alpha 90.000000
_cell_angle_beta 40.825703
_cell_angle_gamma 90.000000
_cell_volume 2801.393044
_symmetry_space_group_name_H-M "C 2/C"
_symmetry_group_IT_number 15
_symmetry_cell_setting 'monoclinic'
loop_
_space_group_symop_operation_xyz
x,y,z
-x,y,1/2-z
-x,-y,-z
x,-y,1/2+z
1/2+x,1/2+y,z
1/2-x,1/2+y,1/2-z
1/2-x,1/2-y,-z
1/2+x,1/2-y,1/2+z
loop_
_atom_site_type_symbol
_atom_site_label
_atom_site_fract_x
_atom_site_fract_y
_atom_site_fract_z
Si Si1 0.000000 0.915824 0.250000
Si Si2 0.737677 0.980218 0.762278
Si Si3 0.370313 0.663868 0.906629
Si Si4 0.098960 0.295108 0.610676
Si Si5 0.616148 0.354459 0.776985
Si Si6 0.253169 0.998494 0.389574
Si Si7 0.203337 0.370512 0.143176
Si Si8 0.594538 0.695112 0.032907
O O1 0.833163 0.961660 0.264765
O O2 0.866030 0.873800 0.342906
O O3 0.763989 0.983770 0.677971
O O4 0.459649 0.968891 0.861970
O O5 0.868344 0.922025 0.737118
O O6 0.469187 0.728098 0.865852
O O7 0.555961 0.630223 0.892225
O O8 0.153334 0.679771 0.022392
O O9 0.343304 0.297103 0.574558
O O10 0.879375 0.330277 0.705339
O O11 0.500000 0.328289 0.750000
O O12 0.462440 0.338487 0.885518
O O13 0.353206 0.934864 0.356182
O O14 0.000000 0.000000 0.500000
O O15 0.000000 0.345071 0.250000
O O16 0.243930 0.338820 0.065884
O O17 0.750000 0.750000 0.000000
#
# Coordination Sequence:
#
# PCOD9297912 Si02
#       8
#     4   8   8   8   8   8   8   8
#     4  12  22  46  70 108 148 190 242 304 366 428
#     4  11  25  45  68 104 140 185 244 291 360 444
#     4  10  24  42  71  99 142 182 236 304 361 431
#     4  10  26  48  69 104 141 193 239 299 371 429
#     4  12  28  48  71 103 148 193 235 305 368 441
#     4  11  23  43  71  97 133 184 233 290 351 422
#     4  11  22  44  68 103 133 178 233 289 350 426
#     4  11  28  45  73 105 139 186 246 293 368 445
#
# _framework density 21.417915000000001
#
# number of rings (size 3 to 8) (size 9 to 14) (size 15 to 20)
#    0.000    1.067    3.333    1.200   16.800    1.067 
#    2.400    1.333    0.000    0.000    0.000    0.000 
#    0.000    0.000    0.000    0.000    0.000    0.000 
#
# Total GULP energy -167383.998173 kJ/mol
# GULP energy per Si atom -5579.466606 kJ/mol
# Density = 2.136917 g / cm^3
# Si number density = 21.417915 Si / 1000 Ang^3
#
#
#
# Elastic Constant Matrix: (Units=GPa)
#
#
# Indices 1 2 3 4 5 6 
#
# 1 97.5937 37.6548 51.4779 0.0000 7.6922 0.0000
# 2 37.6548 106.6429 48.4463 0.0000 5.6890 0.0000
# 3 51.4779 48.4463 162.0406 -0.0001 8.4459 0.0001
# 4 0.0000 0.0000 -0.0001 36.4693 0.0001 2.4492
# 5 7.6922 5.6890 8.4459 0.0001 25.7382 0.0000
# 6 0.0000 0.0000 0.0001 2.4492 0.0000 21.6836
#
#
#
# Elastic Compliance Matrix: (Units=1/GPa)
#
#
# Indices 1 2 3 4 5 6 
#
# 1 0.013307 -0.003138 -0.003173 0.000000 -0.002242 0.000000
# 2 -0.003138 0.011638 -0.002439 0.000000 -0.000834 0.000000
# 3 -0.003173 -0.002439 0.007967 0.000000 -0.001127 0.000000
# 4 0.000000 0.000000 0.000000 0.027630 0.000000 -0.003121
# 5 -0.002242 -0.000834 -0.001127 0.000000 0.040077 0.000000
# 6 0.000000 0.000000 0.000000 -0.003121 0.000000 0.046470
#
#
# Mechanical properties :
#
#
# Convention : Reuss Voigt Hill
#
# Bulk Modulus (GPa) = 64.87935 71.27058 68.07497
# Shear Modulus (GPa) = 29.45921 32.02477 30.74199
#
# Velocity S-wave (km/s) = 3.71273 3.87102 3.79270
# Velocity P-wave (km/s) = 6.98119 7.30261 7.14371
#
# Compressibility (1/GPa) = 0.01541322
#
# Stress axis : x y z
#
# Youngs Moduli (GPa) = 75.14601 85.92863 125.51594
#
# Poissons Ratio (x) = 0.26963 0.39820
# Poissons Ratio (y) = 0.23580 0.30614
# Poissons Ratio (z) = 0.23840 0.20958
#
# Static dielectric constant tensor:
#      x y z
#    x 1.829440 0.000000 0.005530 
#    y 0.000000 1.699540 0.000000 
#    z 0.005530 0.000000 1.861210 
# 
# From -- ./inp_files/234569.got.cif
#   From: 2010.05.17/outbox.cif.g08.bks.cpg/sg15_118_cif.got.tgz:234569.got - 2010.06.03 18:47:42.
