data_PCOD9297337
_publ_section_title
;
Structure prediction by ZEFSAII (Michael W. Deem and Ramdas Pophale) SiO2 
 PCOD9297337
Probable space group: C 2/C
;
_chemical_formula_sum "Si O2"
_cell_formula_units_Z 44
_cell_length_a 6.600789
_cell_length_b 26.312534
_cell_length_c 13.736091
_cell_angle_alpha 90.000000
_cell_angle_beta 58.967607
_cell_angle_gamma 90.000000
_cell_volume 2044.276577
_symmetry_space_group_name_H-M "C 2/C"
_symmetry_group_IT_number 15
_symmetry_cell_setting 'monoclinic'
loop_
_space_group_symop_operation_xyz
x,y,z
-x,y,1/2-z
-x,-y,-z
x,-y,1/2+z
1/2+x,1/2+y,z
1/2-x,1/2+y,1/2-z
1/2-x,1/2-y,-z
1/2+x,1/2-y,1/2+z
loop_
_atom_site_type_symbol
_atom_site_label
_atom_site_fract_x
_atom_site_fract_y
_atom_site_fract_z
Si Si1 0.715076 0.360095 0.568852
Si Si2 0.116396 0.445063 0.475791
Si Si3 0.513502 0.208991 0.362356
Si Si4 0.227058 0.612154 0.125641
Si Si5 0.000000 0.892408 0.250000
Si Si6 0.272098 0.314007 0.150012
O O1 0.454479 0.382141 0.634872
O O2 0.745400 0.334162 0.455604
O O3 0.902205 0.405105 0.528572
O O4 0.770854 0.320148 0.639474
O O5 0.246897 0.433634 0.545547
O O6 0.299350 0.427971 0.347465
O O7 0.000000 0.500000 0.500000
O O8 0.500000 0.216117 0.250000
O O9 0.310135 0.165600 0.424576
O O10 0.550394 0.265616 0.392295
O O11 0.000000 0.605773 0.250000
O O12 0.121889 0.856114 0.301652
O O13 0.000000 0.300897 0.250000
#
# Coordination Sequence:
#
# PCOD9297337 Si02
#       6
#     8   8   8   8   4   8
#     4  11  24  45  69 103 143 189 243 293 359 437
#     4  11  26  48  74 105 137 186 242 307 368 421
#     4  10  24  39  66 102 144 190 236 287 355 426
#     4  10  24  44  66 101 147 189 236 293 351 435
#     4  12  24  48  72 108 148 180 242 306 354 438
#     4  12  24  42  71 105 144 191 238 294 359 432
#
# _framework density 21.523506999999999
#
# number of rings (size 3 to 8) (size 9 to 14) (size 15 to 20)
#    0.000    1.091    4.545    0.545    5.091    6.545 
#    3.273    0.000    0.000    0.000    0.000    0.000 
#    0.000    0.000    0.000    0.000    0.000    0.000 
#
# Total GULP energy -122816.770909 kJ/mol
# GULP energy per Si atom -5582.580496 kJ/mol
# Density = 2.147452 g / cm^3
# Si number density = 21.523507 Si / 1000 Ang^3
#
#
#
# Elastic Constant Matrix: (Units=GPa)
#
#
# Indices 1 2 3 4 5 6 
#
# 1 122.0126 33.5371 32.5310 0.0000 13.3266 0.0000
# 2 33.5371 146.8250 38.1038 0.0000 8.7079 0.0000
# 3 32.5310 38.1038 83.3531 0.0000 -5.2138 0.0000
# 4 0.0000 0.0000 0.0000 19.2191 0.0000 2.7688
# 5 13.3266 8.7079 -5.2138 0.0000 46.8853 0.0000
# 6 0.0000 0.0000 0.0000 2.7688 0.0000 15.6875
#
#
#
# Elastic Compliance Matrix: (Units=1/GPa)
#
#
# Indices 1 2 3 4 5 6 
#
# 1 0.009759 -0.001155 -0.003465 0.000000 -0.002945 0.000000
# 2 -0.001155 0.008025 -0.003314 0.000000 -0.001531 0.000000
# 3 -0.003465 -0.003314 0.015069 0.000000 0.003276 0.000000
# 4 0.000000 0.000000 0.000000 0.053389 0.000000 -0.009423
# 5 -0.002945 -0.001531 0.003276 0.000000 0.022814 0.000000
# 6 0.000000 0.000000 0.000000 -0.009423 0.000000 0.065408
#
#
# Mechanical properties :
#
#
# Convention : Reuss Voigt Hill
#
# Bulk Modulus (GPa) = 58.87167 62.28164 60.57665
# Shear Modulus (GPa) = 25.51102 32.89298 29.20200
#
# Velocity S-wave (km/s) = 3.44650 3.91351 3.68740
# Velocity P-wave (km/s) = 6.57643 7.02994 6.80697
#
# Compressibility (1/GPa) = 0.01698610
#
# Stress axis : x y z
#
# Youngs Moduli (GPa) = 102.47164 124.60393 66.36121
#
# Poissons Ratio (x) = 0.14395 0.22992
# Poissons Ratio (y) = 0.11838 0.21989
# Poissons Ratio (z) = 0.35504 0.41289
#
# Static dielectric constant tensor:
#      x y z
#    x 1.801590 0.000000 -0.015280 
#    y 0.000000 1.781520 0.000000 
#    z -0.015280 0.000000 1.813430 
# 
# From -- ./inp_files/129964.got.cif
#   From: 2010.05.17/outbox.cif.g08.bks.cpg/sg15_65_cif.got.tgz:129964.got - 2010.06.03 18:47:42.
