data_PCOD9297547
_publ_section_title
;
Structure prediction by ZEFSAII (Michael W. Deem and Ramdas Pophale) SiO2 
 PCOD9297547
Probable space group: C 2/C
;
_chemical_formula_sum "Si O2"
_cell_formula_units_Z 52
_cell_length_a 14.683968
_cell_length_b 6.330597
_cell_length_c 29.040468
_cell_angle_alpha 90.000000
_cell_angle_beta 114.578963
_cell_angle_gamma 90.000000
_cell_volume 2454.942660
_symmetry_space_group_name_H-M "C 2/C"
_symmetry_group_IT_number 15
_symmetry_cell_setting 'monoclinic'
loop_
_space_group_symop_operation_xyz
x,y,z
-x,y,1/2-z
-x,-y,-z
x,-y,1/2+z
1/2+x,1/2+y,z
1/2-x,1/2+y,1/2-z
1/2-x,1/2-y,-z
1/2+x,1/2-y,1/2+z
loop_
_atom_site_type_symbol
_atom_site_label
_atom_site_fract_x
_atom_site_fract_y
_atom_site_fract_z
Si Si1 0.771848 0.493071 0.558569
Si Si2 0.399677 0.810565 0.508255
Si Si3 0.000000 0.058254 0.750000
Si Si4 0.814456 0.530170 0.321796
Si Si5 0.341908 0.183103 0.171075
Si Si6 0.647402 0.805172 0.254160
Si Si7 0.377026 0.172907 0.432849
O O1 0.680373 0.374787 0.513744
O O2 0.863508 0.468990 0.541742
O O3 0.809203 0.378513 0.612959
O O4 0.718185 0.708984 0.564241
O O5 0.512574 0.727182 0.537727
O O6 0.390287 0.946848 0.459875
O O7 0.052677 0.197983 0.800084
O O8 0.080620 0.898605 0.747050
O O9 0.740129 0.348123 0.326051
O O10 0.758160 0.705451 0.278944
O O11 0.883652 0.412955 0.299864
O O12 0.859021 0.643858 0.375156
O O13 0.353237 0.973484 0.204671
#
# Coordination Sequence:
#
# PCOD9297547 Si02
#       7
#     8   8   4   8   8   8   8
#     4  11  22  43  67  90 129 172 211 272 331 385
#     4  10  24  41  63  97 126 166 221 267 321 396
#     4  10  26  40  62  96 130 166 218 272 322 390
#     4  11  22  39  66  92 125 171 215 260 332 384
#     4  11  22  42  62  92 130 166 215 268 329 392
#     4  11  22  42  64  92 128 170 211 269 316 395
#     4  11  22  42  65  94 129 168 216 269 327 391
#
# _framework density 21.181757000000001
#
# number of rings (size 3 to 8) (size 9 to 14) (size 15 to 20)
#    0.000    1.231    4.615    1.385    0.000    2.462 
#    2.769    1.538    0.000    0.000    0.000    0.000 
#    0.000    0.000    0.000    0.000    0.000    0.000 
#
# Total GULP energy -145057.236184 kJ/mol
# GULP energy per Si atom -5579.124469 kJ/mol
# Density = 2.113355 g / cm^3
# Si number density = 21.181757 Si / 1000 Ang^3
#
#
#
# Elastic Constant Matrix: (Units=GPa)
#
#
# Indices 1 2 3 4 5 6 
#
# 1 35.5073 -1.0704 8.8267 0.0000 5.9745 0.0000
# 2 -1.0704 52.5927 5.6967 0.0000 10.7609 0.0000
# 3 8.8267 5.6967 80.9649 0.0000 -4.1795 0.0000
# 4 0.0000 0.0000 0.0000 30.5843 0.0000 -1.9187
# 5 5.9745 10.7609 -4.1795 0.0000 27.4517 0.0000
# 6 0.0000 0.0000 0.0000 -1.9187 0.0000 18.9882
#
#
#
# Elastic Compliance Matrix: (Units=1/GPa)
#
#
# Indices 1 2 3 4 5 6 
#
# 1 0.030638 0.002763 -0.003966 0.000000 -0.008355 0.000000
# 2 0.002763 0.021211 -0.002272 0.000000 -0.009262 0.000000
# 3 -0.003966 -0.002272 0.013137 0.000000 0.003754 0.000000
# 4 0.000000 0.000000 0.000000 0.032905 0.000000 0.003325
# 5 -0.008355 -0.009262 0.003754 0.000000 0.042448 0.000000
# 6 0.000000 0.000000 0.000000 0.003325 0.000000 0.053000
#
#
# Mechanical properties :
#
#
# Convention : Reuss Voigt Hill
#
# Bulk Modulus (GPa) = 17.23052 21.77456 19.50254
# Shear Modulus (GPa) = 22.76502 25.77897 24.27199
#
# Velocity S-wave (km/s) = 3.28189 3.49239 3.38877
# Velocity P-wave (km/s) = 4.74482 5.15408 4.95368
#
# Compressibility (1/GPa) = 0.05803656
#
# Stress axis : x y z
#
# Youngs Moduli (GPa) = 32.63913 47.14455 76.12097
#
# Poissons Ratio (x) = -0.13024 0.30188
# Poissons Ratio (y) = -0.09017 0.17293
# Poissons Ratio (z) = 0.12944 0.10710
#
# Static dielectric constant tensor:
#      x y z
#    x 1.880950 0.000000 0.032820 
#    y 0.000000 1.769290 0.000000 
#    z 0.032820 0.000000 1.723910 
# 
# From -- ./inp_files/312410.got.cif
#   From: 2010.05.17/outbox.cif.g08.bks.cpg/sg15_157_cif.got.tgz:312410.got - 2010.06.03 18:47:42.
