data_PCOD9297515
_publ_section_title
;
Structure prediction by ZEFSAII (Michael W. Deem and Ramdas Pophale) SiO2 
 PCOD9297515
Probable space group: C 2/C
;
_chemical_formula_sum "Si O2"
_cell_formula_units_Z 56
_cell_length_a 14.682928
_cell_length_b 16.226883
_cell_length_c 20.034821
_cell_angle_alpha 90.000000
_cell_angle_beta 150.492241
_cell_angle_gamma 90.000000
_cell_volume 2351.126508
_symmetry_space_group_name_H-M "C 2/C"
_symmetry_group_IT_number 15
_symmetry_cell_setting 'monoclinic'
loop_
_space_group_symop_operation_xyz
x,y,z
-x,y,1/2-z
-x,-y,-z
x,-y,1/2+z
1/2+x,1/2+y,z
1/2-x,1/2+y,1/2-z
1/2-x,1/2-y,-z
1/2+x,1/2-y,1/2+z
loop_
_atom_site_type_symbol
_atom_site_label
_atom_site_fract_x
_atom_site_fract_y
_atom_site_fract_z
Si Si1 0.641272 0.016435 0.031099
Si Si2 0.500000 0.862470 0.250000
Si Si3 0.830274 0.140386 0.514753
Si Si4 0.965065 0.304495 0.084057
Si Si5 0.000000 0.918482 0.250000
Si Si6 0.303876 0.503161 0.411852
Si Si7 0.881041 0.760404 0.385237
Si Si8 0.460046 0.121822 0.332763
O O1 0.622702 0.109428 0.995538
O O2 0.563866 0.958838 0.924266
O O3 0.500000 0.000000 0.000000
O O4 0.839621 0.978972 0.174193
O O5 0.426532 0.806500 0.140609
O O6 0.666912 0.924431 0.331238
O O7 0.845076 0.041911 0.509459
O O8 0.619037 0.167070 0.391977
O O9 0.929218 0.142769 0.648456
O O10 0.948067 0.189060 0.535665
O O11 0.189124 0.298090 0.234024
O O12 0.904548 0.247682 0.981060
O O13 0.500000 0.500000 0.500000
O O14 0.197645 0.580901 0.311424
O O15 0.894784 0.672965 0.355218
#
# Coordination Sequence:
#
# PCOD9297515 Si02
#       8
#     8   4   8   8   4   8   8   8
#     4  11  21  44  75 106 143 187 247 312 366 444
#     4  12  24  50  74 106 150 198 262 326 360 440
#     4  11  23  43  69 111 155 193 245 305 390 455
#     4  12  27  48  75 105 154 196 260 311 374 449
#     4  10  24  40  74 114 142 194 248 312 382 440
#     4  12  24  43  76 110 147 198 253 316 373 438
#     4  12  27  46  74 114 153 209 242 308 389 463
#     4  11  23  45  73 109 151 193 247 311 374 450
#
# _framework density 23.818370000000002
#
# number of rings (size 3 to 8) (size 9 to 14) (size 15 to 20)
#    0.000    0.571    4.286    3.857    4.000    0.571 
#    2.571    2.143    0.000    0.000    0.000    0.000 
#    0.000    0.000    0.000    0.000    0.000    0.000 
#
# Total GULP energy -156151.415706 kJ/mol
# GULP energy per Si atom -5576.836275 kJ/mol
# Density = 2.376416 g / cm^3
# Si number density = 23.818370 Si / 1000 Ang^3
#
#
#
# Elastic Constant Matrix: (Units=GPa)
#
#
# Indices 1 2 3 4 5 6 
#
# 1 152.8574 29.5635 38.2448 0.0058 11.7762 -0.0013
# 2 29.5635 74.2899 33.7017 -0.0005 2.2402 -0.0021
# 3 38.2448 33.7017 122.8754 0.0039 6.6134 -0.0048
# 4 0.0058 -0.0005 0.0039 3.9641 0.0014 1.1974
# 5 11.7762 2.2402 6.6134 0.0014 50.6332 -0.0003
# 6 -0.0013 -0.0021 -0.0048 1.1974 -0.0003 32.8628
#
#
#
# Elastic Compliance Matrix: (Units=1/GPa)
#
#
# Indices 1 2 3 4 5 6 
#
# 1 0.007489 -0.002187 -0.001654 -0.000009 -0.001429 0.000000
# 2 -0.002187 0.016013 -0.003727 0.000009 0.000287 0.000000
# 3 -0.001654 -0.003727 0.009714 -0.000008 -0.000719 0.000001
# 4 -0.000009 0.000009 -0.000008 0.255072 -0.000005 -0.009294
# 5 -0.001429 0.000287 -0.000719 -0.000005 0.020163 0.000000
# 6 0.000000 0.000000 0.000001 -0.009294 0.000000 0.030768
#
#
# Mechanical properties :
#
#
# Convention : Reuss Voigt Hill
#
# Bulk Modulus (GPa) = 55.30808 61.44920 58.37864
# Shear Modulus (GPa) = 13.87417 34.05952 23.96685
#
# Velocity S-wave (km/s) = 2.41612 3.78559 3.17556
# Velocity P-wave (km/s) = 5.57267 6.70542 6.16512
#
# Compressibility (1/GPa) = 0.01808054
#
# Stress axis : x y z
#
# Youngs Moduli (GPa) = 133.53015 62.44930 102.94318
#
# Poissons Ratio (x) = 0.13656 0.17030
# Poissons Ratio (y) = 0.29198 0.38365
# Poissons Ratio (z) = 0.22089 0.23274
#
# Static dielectric constant tensor:
#      x y z
#    x 1.984700 0.000010 0.004480 
#    y 0.000010 1.858130 -0.000010 
#    z 0.004480 -0.000010 2.303700 
# 
# From -- ./inp_files/245205.got.cif
#   From: 2010.05.17/outbox.cif.g08.bks.cpg/sg15_123_cif.got.tgz:245205.got - 2010.06.03 18:47:42.
