data_PCOD9297660
_publ_section_title
;
Structure prediction by ZEFSAII (Michael W. Deem and Ramdas Pophale) SiO2 
 PCOD9297660
Probable space group: C 2/C
;
_chemical_formula_sum "Si O2"
_cell_formula_units_Z 48
_cell_length_a 6.506500
_cell_length_b 26.029228
_cell_length_c 14.220064
_cell_angle_alpha 90.000000
_cell_angle_beta 94.685604
_cell_angle_gamma 90.000000
_cell_volume 2400.249595
_symmetry_space_group_name_H-M "C 2/C"
_symmetry_group_IT_number 15
_symmetry_cell_setting 'monoclinic'
loop_
_space_group_symop_operation_xyz
x,y,z
-x,y,1/2-z
-x,-y,-z
x,-y,1/2+z
1/2+x,1/2+y,z
1/2-x,1/2+y,1/2-z
1/2-x,1/2-y,-z
1/2+x,1/2-y,1/2+z
loop_
_atom_site_type_symbol
_atom_site_label
_atom_site_fract_x
_atom_site_fract_y
_atom_site_fract_z
Si Si1 0.987788 0.585899 0.990457
Si Si2 0.500000 0.299614 0.250000
Si Si3 0.169634 0.243643 0.104480
Si Si4 0.129724 0.669746 0.848835
Si Si5 0.500000 0.445003 0.750000
Si Si6 0.312266 0.136488 0.171964
Si Si7 0.185626 0.999618 0.933742
O O1 0.153555 0.543377 0.025940
O O2 0.911295 0.614687 0.080539
O O3 0.083634 0.626990 0.923708
O O4 0.799644 0.554315 0.937372
O O5 0.336290 0.267945 0.182427
O O6 0.635962 0.328936 0.177528
O O7 0.168656 0.184412 0.136163
O O8 0.959330 0.275778 0.114570
O O9 0.250000 0.250000 0.000000
O O10 0.000000 0.658445 0.750000
O O11 0.326201 0.407906 0.787290
O O12 0.600841 0.481021 0.831593
O O13 0.500000 0.150694 0.250000
O O14 0.000000 0.000000 0.000000
#
# Coordination Sequence:
#
# PCOD9297660 Si02
#       7
#     8   4   8   8   4   8   8
#     4  11  24  46  71  96 136 177 232 281 345 406
#     4  10  24  42  61  96 144 170 229 274 328 400
#     4  11  23  41  69  98 134 178 225 276 340 410
#     4  10  24  44  65  99 136 181 224 276 333 413
#     4  12  26  42  73 100 138 176 227 286 356 400
#     4  12  24  43  70 104 135 178 224 287 342 409
#     4  11  25  44  69 102 132 175 232 288 341 414
#
# _framework density 19.997921000000002
#
# number of rings (size 3 to 8) (size 9 to 14) (size 15 to 20)
#    0.000    1.000    5.833    0.000    3.500    6.000 
#    0.000    0.833    0.000    0.000    0.000    0.000 
#    0.000    0.000    0.000    0.000    0.000    0.000 
#
# Total GULP energy -134141.333653 kJ/mol
# GULP energy per Si atom -5589.222236 kJ/mol
# Density = 1.995240 g / cm^3
# Si number density = 19.997921 Si / 1000 Ang^3
#
#
#
# Elastic Constant Matrix: (Units=GPa)
#
#
# Indices 1 2 3 4 5 6 
#
# 1 94.9592 47.6728 41.1129 0.0000 -24.3940 0.0000
# 2 47.6728 118.1538 64.9896 0.0000 -12.4349 0.0000
# 3 41.1129 64.9896 142.9551 0.0000 -20.8749 0.0000
# 4 0.0000 0.0000 0.0000 32.4268 0.0000 9.2163
# 5 -24.3940 -12.4349 -20.8749 0.0000 40.4570 0.0000
# 6 0.0000 0.0000 0.0000 9.2163 0.0000 -14.5463
#
#
#
# Elastic Compliance Matrix: (Units=1/GPa)
#
#
# Indices 1 2 3 4 5 6 
#
# 1 0.015263 -0.004755 -0.001187 0.000000 0.007129 0.000000
# 2 -0.004755 0.012797 -0.004644 0.000000 -0.001330 0.000000
# 3 -0.001187 -0.004644 0.009879 0.000000 0.002954 0.000000
# 4 0.000000 0.000000 0.000000 0.026133 0.000000 0.016557
# 5 0.007129 -0.001330 0.002954 0.000000 0.030132 0.000000
# 6 0.000000 0.000000 0.000000 0.016557 0.000000 -0.058256
#
#
# Mechanical properties :
#
#
# Convention : Reuss Voigt Hill
#
# Bulk Modulus (GPa) = 59.64210 73.73541 66.68875
# Shear Modulus (GPa) = 79.73167 25.15369 52.44268
#
# Velocity S-wave (km/s) = 6.32112 3.55042 5.12650
# Velocity P-wave (km/s) = 9.11944 7.33204 8.27415
#
# Compressibility (1/GPa) = 0.01676668
#
# Stress axis : x y z
#
# Youngs Moduli (GPa) = 65.51584 78.14447 101.22198
#
# Poissons Ratio (x) = 0.37161 0.12012
# Poissons Ratio (y) = 0.31156 0.47010
# Poissons Ratio (z) = 0.07775 0.36292
#
# Static dielectric constant tensor:
#      x y z
#    x 1.719770 0.000000 0.000640 
#    y 0.000000 1.694960 0.000000 
#    z 0.000640 0.000000 1.658340 
# 
# From -- ./inp_files/130096.got.cif
#   From: 2010.05.17/outbox.cif.g08.bks.cpg/sg15_66_cif.got.tgz:130096.got - 2010.06.03 18:47:42.
