data_PCOD9297579
_publ_section_title
;
Structure prediction by ZEFSAII (Michael W. Deem and Ramdas Pophale) SiO2 
 PCOD9297579
Probable space group: C 2/C
;
_chemical_formula_sum "Si O2"
_cell_formula_units_Z 36
_cell_length_a 19.892505
_cell_length_b 7.175753
_cell_length_c 9.699609
_cell_angle_alpha 90.000000
_cell_angle_beta 112.740369
_cell_angle_gamma 90.000000
_cell_volume 1276.930809
_symmetry_space_group_name_H-M "C 2/C"
_symmetry_group_IT_number 15
_symmetry_cell_setting 'monoclinic'
loop_
_space_group_symop_operation_xyz
x,y,z
-x,y,1/2-z
-x,-y,-z
x,-y,1/2+z
1/2+x,1/2+y,z
1/2-x,1/2+y,1/2-z
1/2-x,1/2-y,-z
1/2+x,1/2-y,1/2+z
loop_
_atom_site_type_symbol
_atom_site_label
_atom_site_fract_x
_atom_site_fract_y
_atom_site_fract_z
Si Si1 0.000000 0.505718 0.250000
Si Si2 0.845349 0.112518 0.502807
Si Si3 0.490420 0.274249 0.998357
Si Si4 0.335706 0.212493 0.539949
Si Si5 0.184624 0.606403 0.283457
O O1 0.987559 0.348967 0.116781
O O2 0.026097 0.670550 0.158840
O O3 0.903817 0.230713 0.465600
O O4 0.823654 0.216184 0.624993
O O5 0.772655 0.076378 0.355440
O O6 0.873365 0.911327 0.571969
O O7 0.662028 0.131990 0.110629
O O8 0.500000 0.500000 0.000000
O O9 0.250000 0.250000 0.500000
O O10 0.356654 0.057919 0.667264
#
# Coordination Sequence:
#
# PCOD9297579 Si02
#       5
#     4   8   8   8   8
#     4  10  26  50  76 108 142 186 252 310 370 436
#     4  10  25  42  71  99 141 186 232 288 358 428
#     4  11  25  51  75 107 144 192 248 310 372 438
#     4  10  24  41  66  96 142 183 232 284 351 432
#     4  10  24  44  64 102 141 186 231 286 356 431
#
# _framework density 28.192599999999999
#
# number of rings (size 3 to 8) (size 9 to 14) (size 15 to 20)
#    0.000    1.778    0.000    0.667   18.667    8.889 
#    4.000    0.000    0.000    0.000    0.000    0.000 
#    0.000    0.000    0.000    0.000    0.000    0.000 
#
# Total GULP energy -100739.560061 kJ/mol
# GULP energy per Si atom -5596.642226 kJ/mol
# Density = 2.812843 g / cm^3
# Si number density = 28.192600 Si / 1000 Ang^3
#
#
#
# Elastic Constant Matrix: (Units=GPa)
#
#
# Indices 1 2 3 4 5 6 
#
# 1 127.3292 46.7145 62.4323 0.0000 -29.3490 0.0000
# 2 46.7145 212.5159 68.6944 0.0000 -4.8799 0.0000
# 3 62.4323 68.6944 198.2798 0.0000 -41.7576 0.0000
# 4 0.0000 0.0000 0.0000 44.1411 0.0000 -6.6981
# 5 -29.3490 -4.8799 -41.7576 0.0000 49.1402 0.0000
# 6 0.0000 0.0000 0.0000 -6.6981 0.0000 64.2717
#
#
#
# Elastic Compliance Matrix: (Units=1/GPa)
#
#
# Indices 1 2 3 4 5 6 
#
# 1 0.010344 -0.001605 -0.001746 0.000000 0.004535 0.000000
# 2 -0.001605 0.005613 -0.001856 0.000000 -0.001978 0.000000
# 3 -0.001746 -0.001856 0.007281 0.000000 0.004960 0.000000
# 4 0.000000 0.000000 0.000000 0.023019 0.000000 0.002399
# 5 0.004535 -0.001978 0.004960 0.000000 0.027077 0.000000
# 6 0.000000 0.000000 0.000000 0.002399 0.000000 0.015809
#
#
# Mechanical properties :
#
#
# Convention : Reuss Voigt Hill
#
# Bulk Modulus (GPa) = 77.98107 99.31193 88.64650
# Shear Modulus (GPa) = 48.15580 55.52952 51.84266
#
# Velocity S-wave (km/s) = 4.13740 4.44289 4.29286
# Velocity P-wave (km/s) = 7.10945 7.84995 7.48886
#
# Compressibility (1/GPa) = 0.01282362
#
# Stress axis : x y z
#
# Youngs Moduli (GPa) = 96.67526 178.16298 137.35287
#
# Poissons Ratio (x) = 0.28601 0.23978
# Poissons Ratio (y) = 0.15520 0.25489
# Poissons Ratio (z) = 0.16877 0.33063
#
# Static dielectric constant tensor:
#      x y z
#    x 3.047440 0.000000 0.226130 
#    y 0.000000 2.196320 0.000000 
#    z 0.226130 0.000000 2.123750 
# 
# From -- ./inp_files/158499.got.cif
#   From: 2010.05.17/outbox.cif.g08.bks.cpg/sg15_80_cif.got.tgz:158499.got - 2010.06.03 18:47:42.
