data_PCOD9297770
_publ_section_title
;
Structure prediction by ZEFSAII (Michael W. Deem and Ramdas Pophale) SiO2 
 PCOD9297770
Probable space group: C 2/C
;
_chemical_formula_sum "Si O2"
_cell_formula_units_Z 40
_cell_length_a 18.642454
_cell_length_b 8.497608
_cell_length_c 16.305393
_cell_angle_alpha 90.000000
_cell_angle_beta 38.904178
_cell_angle_gamma 90.000000
_cell_volume 1622.199951
_symmetry_space_group_name_H-M "C 2/C"
_symmetry_group_IT_number 15
_symmetry_cell_setting 'monoclinic'
loop_
_space_group_symop_operation_xyz
x,y,z
-x,y,1/2-z
-x,-y,-z
x,-y,1/2+z
1/2+x,1/2+y,z
1/2-x,1/2+y,1/2-z
1/2-x,1/2-y,-z
1/2+x,1/2-y,1/2+z
loop_
_atom_site_type_symbol
_atom_site_label
_atom_site_fract_x
_atom_site_fract_y
_atom_site_fract_z
Si Si1 0.251688 0.935901 0.019713
Si Si2 0.953183 0.366160 0.940509
Si Si3 0.924216 0.149356 0.234465
Si Si4 0.836215 0.445715 0.217393
Si Si5 0.380562 0.489610 0.518997
O O1 0.208963 0.017322 0.975393
O O2 0.250000 0.750000 0.000000
O O3 0.379796 0.959177 0.937532
O O4 0.160646 0.005480 0.165984
O O5 0.891598 0.412616 0.080035
O O6 0.933498 0.180390 0.954068
O O7 0.084786 0.412871 0.819111
O O8 0.000000 0.179983 0.250000
O O9 0.856145 0.294181 0.256847
O O10 0.016378 0.108147 0.081972
O O11 0.703580 0.492626 0.329953
#
# Coordination Sequence:
#
# PCOD9297770 Si02
#       5
#     8   8   8   8   8
#     4   9  21  43  69  92 125 173 220 272 325 404
#     4  10  25  43  63  97 134 174 225 270 337 400
#     4  10  24  42  66  98 131 168 226 279 336 389
#     4  11  26  41  66 100 135 174 221 280 334 391
#     4  10  24  43  68  92 130 177 221 269 334 402
#
# _framework density 24.657872000000001
#
# number of rings (size 3 to 8) (size 9 to 14) (size 15 to 20)
#    0.000    2.000    0.000    0.000   14.000    4.000 
#    0.000    0.000    0.000    0.000    0.000    0.000 
#    0.000    0.000    0.000    0.000    0.000    0.000 
#
# Total GULP energy -111798.716466 kJ/mol
# GULP energy per Si atom -5589.935823 kJ/mol
# Density = 2.460175 g / cm^3
# Si number density = 24.657872 Si / 1000 Ang^3
#
#
#
# Elastic Constant Matrix: (Units=GPa)
#
#
# Indices 1 2 3 4 5 6 
#
# 1 68.8752 23.4087 1.7365 0.0000 -8.0838 0.0000
# 2 23.4087 98.3282 66.1656 -0.0001 -17.7153 0.0001
# 3 1.7365 66.1656 141.2212 0.0000 -15.7251 0.0000
# 4 0.0000 -0.0001 0.0000 44.5823 0.0000 1.5088
# 5 -8.0838 -17.7153 -15.7251 0.0000 22.3960 0.0000
# 6 0.0000 0.0001 0.0000 1.5088 0.0000 -13.1670
#
#
#
# Elastic Compliance Matrix: (Units=1/GPa)
#
#
# Indices 1 2 3 4 5 6 
#
# 1 0.016598 -0.004979 0.002557 0.000000 0.003848 0.000000
# 2 -0.004979 0.017586 -0.007409 0.000000 0.006911 0.000000
# 3 0.002557 -0.007409 0.010817 0.000000 0.002658 0.000000
# 4 0.000000 0.000000 0.000000 0.022344 0.000000 0.002560
# 5 0.003848 0.006911 0.002658 0.000000 0.053373 0.000000
# 6 0.000000 0.000000 0.000000 0.002560 0.000000 -0.075654
#
#
# Mechanical properties :
#
#
# Convention : Reuss Voigt Hill
#
# Bulk Modulus (GPa) = 39.46292 54.56066 47.01179
# Shear Modulus (GPa) = 68.33309 25.23651 46.78480
#
# Velocity S-wave (km/s) = 5.26998 3.20264 4.36059
# Velocity P-wave (km/s) = 7.28486 5.98757 6.66784
#
# Compressibility (1/GPa) = 0.02534024
#
# Stress axis : x y z
#
# Youngs Moduli (GPa) = 60.24676 56.86403 92.44990
#
# Poissons Ratio (x) = 0.28312 -0.23641
# Poissons Ratio (y) = 0.29996 0.68492
# Poissons Ratio (z) = -0.15406 0.42128
#
# Static dielectric constant tensor:
#      x y z
#    x 2.020700 0.000000 0.064950 
#    y 0.000000 1.925910 0.000000 
#    z 0.064950 0.000000 1.974710 
# 
# From -- ./inp_files/251429.got.cif
#   From: 2010.05.17/outbox.cif.g08.bks.cpg/sg15_126_cif.got.tgz:251429.got - 2010.06.03 18:47:42.
