data_PCOD9297326
_publ_section_title
;
Structure prediction by ZEFSAII (Michael W. Deem and Ramdas Pophale) SiO2 
 PCOD9297326
Probable space group: C 2/C
;
_chemical_formula_sum "Si O2"
_cell_formula_units_Z 64
_cell_length_a 13.308175
_cell_length_b 19.039090
_cell_length_c 11.372325
_cell_angle_alpha 90.000000
_cell_angle_beta 89.865080
_cell_angle_gamma 90.000000
_cell_volume 2881.461017
_symmetry_space_group_name_H-M "C 2/C"
_symmetry_group_IT_number 15
_symmetry_cell_setting 'monoclinic'
loop_
_space_group_symop_operation_xyz
x,y,z
-x,y,1/2-z
-x,-y,-z
x,-y,1/2+z
1/2+x,1/2+y,z
1/2-x,1/2+y,1/2-z
1/2-x,1/2-y,-z
1/2+x,1/2-y,1/2+z
loop_
_atom_site_type_symbol
_atom_site_label
_atom_site_fract_x
_atom_site_fract_y
_atom_site_fract_z
Si Si1 0.856216 0.577496 0.839277
Si Si2 0.869898 0.068221 0.572517
Si Si3 0.050412 0.637482 0.435412
Si Si4 0.679091 0.344698 0.936447
Si Si5 0.492743 0.564508 0.124754
Si Si6 0.357399 0.916179 0.797869
Si Si7 0.283844 0.201341 0.677100
Si Si8 0.092310 0.778093 0.338678
O O1 0.747130 0.567587 0.900487
O O2 0.878015 0.499411 0.794204
O O3 0.844196 0.639469 0.743111
O O4 0.932450 0.601177 0.940477
O O5 0.905885 0.144350 0.611261
O O6 0.900912 0.054896 0.437600
O O7 0.933178 0.008479 0.639007
O O8 0.126927 0.610401 0.334489
O O9 0.075023 0.720080 0.438866
O O10 0.941824 0.620285 0.380612
O O11 0.578021 0.387788 0.955198
O O12 0.752390 0.392214 0.854874
O O13 0.660464 0.270459 0.871520
O O14 0.730955 0.330565 0.061308
O O15 0.500000 0.599853 0.250000
O O16 0.196266 0.228530 0.765703
O O17 0.000000 0.768196 0.250000
#
# Coordination Sequence:
#
# PCOD9297326 Si02
#       8
#     8   8   8   8   8   8   8   8
#     4  11  25  42  69  98 132 169 224 283 323 396
#     4  10  24  39  62  96 129 170 214 267 328 388
#     4  11  24  42  70  96 128 170 230 270 337 395
#     4  11  22  44  66  94 138 174 217 265 336 401
#     4  11  24  40  63  97 128 169 216 267 326 391
#     4  11  23  44  67  96 129 180 213 280 337 399
#     4  10  24  41  66  97 130 182 220 266 335 398
#     4  11  19  40  64  92 129 174 218 270 319 399
#
# _framework density 22.210954000000001
#
# number of rings (size 3 to 8) (size 9 to 14) (size 15 to 20)
#    0.000    1.250    3.750    1.500    3.500    7.000 
#    0.000    0.000    0.000    0.000    0.000    0.000 
#    0.000    0.000    0.000    0.000    0.000    0.000 
#
# Total GULP energy -178925.689316 kJ/mol
# GULP energy per Si atom -5591.427791 kJ/mol
# Density = 2.216040 g / cm^3
# Si number density = 22.210954 Si / 1000 Ang^3
#
#
#
# Elastic Constant Matrix: (Units=GPa)
#
#
# Indices 1 2 3 4 5 6 
#
# 1 37.0260 10.1836 5.4363 0.0000 -15.3729 0.0000
# 2 10.1836 139.6547 10.0549 0.0000 14.3809 0.0000
# 3 5.4363 10.0549 54.3028 0.0000 8.4425 0.0000
# 4 0.0000 0.0000 0.0000 -199.2355 0.0000 1091.5334
# 5 -15.3729 14.3809 8.4425 0.0000 23.0102 0.0000
# 6 0.0000 0.0000 0.0000 1091.5334 0.0000-5495.9117
#
#
#
# Elastic Compliance Matrix: (Units=1/GPa)
#
#
# Indices 1 2 3 4 5 6 
#
# 1 0.046174 -0.006651 -0.009367 0.000000 0.038442 0.000000
# 2 -0.006651 0.008637 0.000633 0.000000 -0.010074 0.000000
# 3 -0.009367 0.000633 0.021497 0.000000 -0.014541 0.000000
# 4 0.000000 0.000000 0.000000 0.056973 0.000000 0.011315
# 5 0.038442 -0.010074 -0.014541 0.000000 0.080773 0.000000
# 6 0.000000 0.000000 0.000000 0.011315 0.000000 0.002065
#
#
# Mechanical properties :
#
#
# Convention : Reuss Voigt Hill
#
# Bulk Modulus (GPa) = 21.96081 31.37034 26.66558
# Shear Modulus (GPa) = 19.07892 -1120.74015 -550.83062
#
# Velocity S-wave (km/s) = 2.93403 -22.48743 -15.76509
# Velocity P-wave (km/s) = 4.62459 25.69224 17.87043
#
# Compressibility (1/GPa) = 0.04553566
#
# Stress axis : x y z
#
# Youngs Moduli (GPa) = 21.65744 115.77674 46.51908
#
# Poissons Ratio (x) = 0.77004 0.43577
# Poissons Ratio (y) = 0.14405 -0.02943
# Poissons Ratio (z) = 0.20288 -0.07325
#
# Static dielectric constant tensor:
#      x y z
#    x 1.831670 0.000000 -0.013630 
#    y 0.000000 1.817490 0.000000 
#    z -0.013630 0.000000 1.827080 
# 
# From -- ./inp_files/98777.got.cif
#   From: 2010.05.17/outbox.cif.g08.bks.cpg/sg15_50_cif.got.tgz:98777.got - 2010.06.03 18:47:42.
