data_PCOD9297320
_publ_section_title
;
Structure prediction by ZEFSAII (Michael W. Deem and Ramdas Pophale) SiO2 
 PCOD9297320
Probable space group: C 2/C
;
_chemical_formula_sum "Si O2"
_cell_formula_units_Z 44
_cell_length_a 14.970187
_cell_length_b 23.024703
_cell_length_c 13.262932
_cell_angle_alpha 90.000000
_cell_angle_beta 28.017524
_cell_angle_gamma 90.000000
_cell_volume 2147.433977
_symmetry_space_group_name_H-M "C 2/C"
_symmetry_group_IT_number 15
_symmetry_cell_setting 'monoclinic'
loop_
_space_group_symop_operation_xyz
x,y,z
-x,y,1/2-z
-x,-y,-z
x,-y,1/2+z
1/2+x,1/2+y,z
1/2-x,1/2+y,1/2-z
1/2-x,1/2-y,-z
1/2+x,1/2-y,1/2+z
loop_
_atom_site_type_symbol
_atom_site_label
_atom_site_fract_x
_atom_site_fract_y
_atom_site_fract_z
Si Si1 0.381481 0.008258 0.776394
Si Si2 0.328571 0.384137 0.769913
Si Si3 0.937142 0.285845 0.416487
Si Si4 0.000000 0.022418 0.250000
Si Si5 0.795363 0.821887 0.170233
Si Si6 0.458244 0.911415 0.012067
O O1 0.500000 0.036865 0.750000
O O2 0.508374 0.954084 0.614077
O O3 0.365641 0.050984 0.696030
O O4 0.171029 0.990685 0.022055
O O5 0.390392 0.436776 0.779029
O O6 0.521154 0.360366 0.530357
O O7 0.169049 0.398052 0.845418
O O8 0.230385 0.331891 0.929609
O O9 0.877426 0.243346 0.568251
O O10 0.000000 0.255434 0.250000
O O11 0.126375 0.320968 0.256698
O O12 0.672410 0.854921 0.379119
#
# Coordination Sequence:
#
# PCOD9297320 Si02
#       6
#     8   8   8   4   8   8
#     4  11  23  41  59  84 112 152 199 242 289 337
#     4  11  22  34  52  83 120 155 191 224 278 345
#     4  11  22  31  49  82 123 156 188 224 276 351
#     4  12  22  34  60  84 114 164 194 228 286 342
#     4  11  21  34  52  79 116 157 186 228 276 337
#     4  10  24  39  57  83 119 150 194 246 281 336
#
# _framework density 20.489571000000002
#
# number of rings (size 3 to 8) (size 9 to 14) (size 15 to 20)
#    0.000    1.091    5.455    1.636    3.818    2.182 
#    0.000    0.000    0.000    0.000    0.000    5.091 
#    0.000    0.182    0.000    0.000    0.000    0.000 
#
# Total GULP energy -122501.149244 kJ/mol
# GULP energy per Si atom -5568.234057 kJ/mol
# Density = 2.044294 g / cm^3
# Si number density = 20.489571 Si / 1000 Ang^3
#
#
#
# Elastic Constant Matrix: (Units=GPa)
#
#
# Indices 1 2 3 4 5 6 
#
# 1 26.5987 -4.3275 26.3405 0.0045 -13.6115 -0.0202
# 2 -4.3275 55.4086 27.1544 -0.2501 5.5115 0.0509
# 3 26.3405 27.1544 122.5683 -0.7462 -26.6565 0.2038
# 4 0.0045 -0.2501 -0.7462 -40.1846 0.1623 8.9310
# 5 -13.6115 5.5115 -26.6565 0.1623 31.0039 -0.0377
# 6 -0.0202 0.0509 0.2038 8.9310 -0.0377 18.4284
#
#
#
# Elastic Compliance Matrix: (Units=1/GPa)
#
#
# Indices 1 2 3 4 5 6 
#
# 1 0.057174 0.008524 -0.011125 0.000234 0.014019 0.000078
# 2 0.008524 0.023884 -0.008896 -0.000009 -0.008152 0.000029
# 3 -0.011125 -0.008896 0.014516 -0.000187 0.009178 -0.000039
# 4 0.000234 -0.000009 -0.000187 -0.022461 0.000074 0.010888
# 5 0.014019 -0.008152 0.009178 0.000074 0.047749 -0.000002
# 6 0.000078 0.000029 -0.000039 0.010888 -0.000002 0.048988
#
#
# Mechanical properties :
#
#
# Convention : Reuss Voigt Hill
#
# Bulk Modulus (GPa) = 13.77812 33.65673 23.71742
# Shear Modulus (GPa) = 23.03750 12.21009 17.62379
#
# Velocity S-wave (km/s) = 3.35677 2.44379 2.93599
# Velocity P-wave (km/s) = 4.66508 4.94214 4.80561
#
# Compressibility (1/GPa) = 0.07257886
#
# Stress axis : x y z
#
# Youngs Moduli (GPa) = 17.49042 41.86857 68.89138
#
# Poissons Ratio (x) = -0.35689 0.76643
# Poissons Ratio (y) = -0.14909 0.61289
# Poissons Ratio (z) = 0.19458 0.37248
#
# Static dielectric constant tensor:
#      x y z
#    x 1.732520 -0.000030 0.024550 
#    y -0.000030 1.826920 0.000090 
#    z 0.024550 0.000090 1.789600 
# 
# From -- ./inp_files/101052.got.cif
#   From: 2010.05.17/outbox.cif.g08.bks.cpg/sg15_51_cif.got.tgz:101052.got - 2010.06.03 18:47:42.
