data_PCOD9297885
_publ_section_title
;
Structure prediction by ZEFSAII (Michael W. Deem and Ramdas Pophale) SiO2 
 PCOD9297885
Probable space group: C 2/C
;
_chemical_formula_sum "Si O2"
_cell_formula_units_Z 60
_cell_length_a 18.992935
_cell_length_b 6.145785
_cell_length_c 24.752375
_cell_angle_alpha 90.000000
_cell_angle_beta 58.435437
_cell_angle_gamma 90.000000
_cell_volume 2461.794723
_symmetry_space_group_name_H-M "C 2/C"
_symmetry_group_IT_number 15
_symmetry_cell_setting 'monoclinic'
loop_
_space_group_symop_operation_xyz
x,y,z
-x,y,1/2-z
-x,-y,-z
x,-y,1/2+z
1/2+x,1/2+y,z
1/2-x,1/2+y,1/2-z
1/2-x,1/2-y,-z
1/2+x,1/2-y,1/2+z
loop_
_atom_site_type_symbol
_atom_site_label
_atom_site_fract_x
_atom_site_fract_y
_atom_site_fract_z
Si Si1 0.162171 0.191947 0.597841
Si Si2 0.973742 0.299385 0.676378
Si Si3 0.000000 0.604408 0.750000
Si Si4 0.955223 0.167208 0.165894
Si Si5 0.224675 0.323391 0.242479
Si Si6 0.211050 0.936586 0.478360
Si Si7 0.712989 0.121771 0.389964
Si Si8 0.043848 0.564927 0.926609
O O1 0.069066 0.241297 0.650698
O O2 0.215863 0.411495 0.573705
O O3 0.159114 0.091455 0.538329
O O4 0.213689 0.020098 0.612861
O O5 0.942915 0.433986 0.740423
O O6 0.975955 0.406230 0.616172
O O7 0.927807 0.075485 0.688709
O O8 0.016974 0.754704 0.690001
O O9 0.870864 0.297737 0.205320
O O10 0.982534 0.210573 0.093254
O O11 0.242464 0.584349 0.245551
O O12 0.248575 0.270437 0.171704
O O13 0.250000 0.750000 0.500000
O O14 0.171000 0.794535 0.447595
O O15 0.641396 0.958410 0.399661
O O16 0.000000 0.500000 0.000000
#
# Coordination Sequence:
#
# PCOD9297885 Si02
#       8
#     8   8   4   8   8   8   8   8
#     4  10  24  42  70 105 135 185 245 310 368 460
#     4  11  26  45  71 101 146 188 245 301 388 443
#     4  10  26  44  70 100 144 184 248 308 372 458
#     4  11  26  48  71 106 147 196 251 311 382 453
#     4  12  28  49  77 108 154 194 254 314 379 459
#     4   9  22  41  66  99 142 172 240 299 378 437
#     4  11  25  43  72 103 138 194 243 309 379 443
#     4  11  27  47  70 104 148 191 246 306 382 459
#
# _framework density 24.372461000000001
#
# number of rings (size 3 to 8) (size 9 to 14) (size 15 to 20)
#    0.000    1.333    1.333    1.200   16.800    3.733 
#    0.000    0.000    0.000    0.000    0.000    0.000 
#    0.000    0.000    0.000    0.000    0.000    0.000 
#
# Total GULP energy -167025.594749 kJ/mol
# GULP energy per Si atom -5567.519825 kJ/mol
# Density = 2.431699 g / cm^3
# Si number density = 24.372461 Si / 1000 Ang^3
#
#
#
# Elastic Constant Matrix: (Units=GPa)
#
#
# Indices 1 2 3 4 5 6 
#
# 1 86.0676 16.3915 27.4725 -0.0076 11.2404 0.0179
# 2 16.3915 105.4805 0.0950 -0.0193 26.4549 0.0425
# 3 27.4725 0.0950 93.7779 -0.0019 29.1153 0.0099
# 4 -0.0076 -0.0193 -0.0019 14.8115 -0.0017 -5.1579
# 5 11.2404 26.4549 29.1153 -0.0017 40.9758 -0.0001
# 6 0.0179 0.0425 0.0099 -5.1579 -0.0001 35.7553
#
#
#
# Elastic Compliance Matrix: (Units=1/GPa)
#
#
# Indices 1 2 3 4 5 6 
#
# 1 0.013262 -0.002240 -0.004109 0.000003 0.000727 -0.000002
# 2 -0.002240 0.012338 0.003754 0.000010 -0.010019 -0.000013
# 3 -0.004109 0.003754 0.015738 0.000001 -0.012479 -0.000007
# 4 0.000003 0.000010 0.000001 0.071086 -0.000005 0.010254
# 5 0.000727 -0.010019 -0.012479 -0.000005 0.039540 0.000014
# 6 -0.000002 -0.000013 -0.000007 0.010254 0.000014 0.029447
#
#
# Mechanical properties :
#
#
# Convention : Reuss Voigt Hill
#
# Bulk Modulus (GPa) = 27.66327 41.47157 34.56742
# Shear Modulus (GPa) = 25.17009 34.39967 29.78488
#
# Velocity S-wave (km/s) = 3.21709 3.76096 3.49961
# Velocity P-wave (km/s) = 5.01741 5.99270 5.52661
#
# Compressibility (1/GPa) = 0.03614901
#
# Stress axis : x y z
#
# Youngs Moduli (GPa) = 75.40474 81.05177 63.54170
#
# Poissons Ratio (x) = 0.18152 0.26107
# Poissons Ratio (y) = 0.16888 -0.23854
# Poissons Ratio (z) = 0.30981 -0.30428
#
# Static dielectric constant tensor:
#      x y z
#    x 1.967410 0.000000 0.009250 
#    y 0.000000 2.151860 -0.000010 
#    z 0.009250 -0.000010 2.070790 
# 
# From -- ./inp_files/300104.got.cif
#   From: 2010.05.17/outbox.cif.g08.bks.cpg/sg15_151_cif.got.tgz:300104.got - 2010.06.03 18:47:42.
