data_PCOD9297179
_publ_section_title
;
Structure prediction by ZEFSAII (Michael W. Deem and Ramdas Pophale) SiO2 
 PCOD9297179
Probable space group: C 2/C
;
_chemical_formula_sum "Si O2"
_cell_formula_units_Z 48
_cell_length_a 20.469206
_cell_length_b 10.459810
_cell_length_c 10.095429
_cell_angle_alpha 90.000000
_cell_angle_beta 117.766850
_cell_angle_gamma 90.000000
_cell_volume 1912.579754
_symmetry_space_group_name_H-M "C 2/C"
_symmetry_group_IT_number 15
_symmetry_cell_setting 'monoclinic'
loop_
_space_group_symop_operation_xyz
x,y,z
-x,y,1/2-z
-x,-y,-z
x,-y,1/2+z
1/2+x,1/2+y,z
1/2-x,1/2+y,1/2-z
1/2-x,1/2-y,-z
1/2+x,1/2-y,1/2+z
loop_
_atom_site_type_symbol
_atom_site_label
_atom_site_fract_x
_atom_site_fract_y
_atom_site_fract_z
Si Si1 0.753477 0.575331 0.279927
Si Si2 0.663909 0.266897 0.529251
Si Si3 0.836302 0.510115 0.606971
Si Si4 0.000000 0.832702 0.750000
Si Si5 0.498559 0.752649 0.960465
Si Si6 0.000000 0.476516 0.750000
Si Si7 0.885257 0.045019 0.733218
O O1 0.731153 0.708967 0.191480
O O2 0.789050 0.590630 0.457621
O O3 0.806753 0.500444 0.228464
O O4 0.675333 0.503264 0.220604
O O5 0.667235 0.133448 0.456878
O O6 0.584734 0.277173 0.523813
O O7 0.661757 0.381024 0.421610
O O8 0.921844 0.546563 0.678805
O O9 0.984227 0.754399 0.601969
O O10 0.068767 0.927163 0.783059
O O11 0.490615 0.882893 0.869621
O O12 0.445532 0.645718 0.845320
#
# Coordination Sequence:
#
# PCOD9297179 Si02
#       7
#     8   8   8   4   8   4   8
#     4  12  25  39  66 104 134 179 216 277 341 401
#     4  11  21  43  68  95 139 184 220 263 338 418
#     4  11  26  47  70  95 129 180 236 275 335 399
#     4  12  21  30  58 109 144 158 216 287 342 395
#     4  11  20  36  64 101 129 182 218 270 336 395
#     4  10  23  50  74  83 122 194 242 259 326 413
#     4  12  20  35  65  99 143 174 215 269 341 414
#
# _framework density 25.096993999999999
#
# number of rings (size 3 to 8) (size 9 to 14) (size 15 to 20)
#    0.000    0.667    8.333    2.000    0.000    0.667 
#    0.000    4.167    0.000    0.000    0.000    0.000 
#    0.000    0.000    0.000    0.000    0.000    0.000 
#
# Total GULP energy -134533.875530 kJ/mol
# GULP energy per Si atom -5605.578147 kJ/mol
# Density = 2.503987 g / cm^3
# Si number density = 25.096994 Si / 1000 Ang^3
#
#
#
# Elastic Constant Matrix: (Units=GPa)
#
#
# Indices 1 2 3 4 5 6 
#
# 1 176.7856 29.1310 20.4650 0.0000 -10.3565 0.0000
# 2 29.1310 44.2742 7.4979 0.0000 -8.9151 0.0000
# 3 20.4650 7.4979 94.0750 0.0000 -8.7049 0.0000
# 4 0.0000 0.0000 0.0000 4.4465 0.0000 -9.1812
# 5 -10.3565 -8.9151 -8.7049 0.0000 48.1391 0.0000
# 6 0.0000 0.0000 0.0000 -9.1812 0.0000 21.3033
#
#
#
# Elastic Compliance Matrix: (Units=1/GPa)
#
#
# Indices 1 2 3 4 5 6 
#
# 1 0.006461 -0.003981 -0.001045 0.000000 0.000464 0.000000
# 2 -0.003981 0.026122 -0.000862 0.000000 0.003825 0.000000
# 3 -0.001045 -0.000862 0.011076 0.000000 0.001618 0.000000
# 4 0.000000 0.000000 0.000000 2.042108 0.000000 0.880094
# 5 0.000464 0.003825 0.001618 0.000000 0.021874 0.000000
# 6 0.000000 0.000000 0.000000 0.880094 0.000000 0.426238
#
#
# Mechanical properties :
#
#
# Convention : Reuss Voigt Hill
#
# Bulk Modulus (GPa) = 31.36520 47.70250 39.53385
# Shear Modulus (GPa) = 1.95597 31.98052 16.96824
#
# Velocity S-wave (km/s) = 0.88377 3.57357 2.60303
# Velocity P-wave (km/s) = 3.68322 6.00631 4.98206
#
# Compressibility (1/GPa) = 0.03188247
#
# Stress axis : x y z
#
# Youngs Moduli (GPa) = 154.78309 38.28215 90.28807
#
# Poissons Ratio (x) = 0.15238 0.09438
# Poissons Ratio (y) = 0.61612 0.07783
# Poissons Ratio (z) = 0.16179 0.03300
#
# Static dielectric constant tensor:
#      x y z
#    x 1.984500 0.000000 0.029840 
#    y 0.000000 2.008940 0.000000 
#    z 0.029840 0.000000 2.059820 
# 
# From -- ./inp_files/55461.got.cif
#   From: 2010.05.17/outbox.cif.g08.bks.cpg/sg15_28_cif.got.tgz:55461.got - 2010.06.03 18:47:42.
