data_PCOD9297648
_publ_section_title
;
Structure prediction by ZEFSAII (Michael W. Deem and Ramdas Pophale) SiO2 
 PCOD9297648
Probable space group: C 2/C
;
_chemical_formula_sum "Si O2"
_cell_formula_units_Z 44
_cell_length_a 11.979604
_cell_length_b 24.689002
_cell_length_c 9.006775
_cell_angle_alpha 90.000000
_cell_angle_beta 122.181233
_cell_angle_gamma 90.000000
_cell_volume 2254.625280
_symmetry_space_group_name_H-M "C 2/C"
_symmetry_group_IT_number 15
_symmetry_cell_setting 'monoclinic'
loop_
_space_group_symop_operation_xyz
x,y,z
-x,y,1/2-z
-x,-y,-z
x,-y,1/2+z
1/2+x,1/2+y,z
1/2-x,1/2+y,1/2-z
1/2-x,1/2-y,-z
1/2+x,1/2-y,1/2+z
loop_
_atom_site_type_symbol
_atom_site_label
_atom_site_fract_x
_atom_site_fract_y
_atom_site_fract_z
Si Si1 0.197577 0.840050 0.783165
Si Si2 0.084550 0.040241 0.663779
Si Si3 0.817453 0.457875 0.868174
Si Si4 0.500000 0.993439 0.250000
Si Si5 0.599704 0.657678 0.540683
Si Si6 0.146220 0.745815 0.292954
O O1 0.241517 0.902027 0.794279
O O2 0.301612 0.800126 0.781934
O O3 0.054789 0.833224 0.605519
O O4 0.177938 0.830439 0.944553
O O5 0.116773 0.095222 0.599807
O O6 0.000000 0.053665 0.750000
O O7 0.214097 0.007227 0.802648
O O8 0.000000 0.000000 0.500000
O O9 0.913057 0.470134 0.798265
O O10 0.904404 0.458243 0.078612
O O11 0.640962 0.697670 0.700571
O O12 0.250000 0.750000 0.500000
O O13 0.000000 0.733873 0.250000
#
# Coordination Sequence:
#
# PCOD9297648 Si02
#       6
#     8   8   8   4   8   8
#     4  11  24  44  71  95 139 172 227 283 349 414
#     4  12  23  39  72 104 133 170 224 287 349 397
#     4  11  23  42  63  95 133 179 222 275 339 406
#     4  10  24  42  58  90 140 180 224 264 336 426
#     4  11  24  45  69 103 134 177 227 286 348 414
#     4  12  26  48  71 100 134 180 233 286 343 407
#
# _framework density 19.515439000000001
#
# number of rings (size 3 to 8) (size 9 to 14) (size 15 to 20)
#    0.000    0.727    3.636    4.364    1.273    0.000 
#    6.545    0.000    0.000    0.000    0.000    0.000 
#    0.000    0.000    0.000    0.000    0.000    0.000 
#
# Total GULP energy -123119.486126 kJ/mol
# GULP energy per Si atom -5596.340278 kJ/mol
# Density = 1.947102 g / cm^3
# Si number density = 19.515439 Si / 1000 Ang^3
#
#
#
# Elastic Constant Matrix: (Units=GPa)
#
#
# Indices 1 2 3 4 5 6 
#
# 1 138.2937 59.8477 56.9096 0.0000 -4.1675 0.0000
# 2 59.8477 125.1366 53.7272 0.0000 -8.2020 0.0000
# 3 56.9096 53.7272 134.9793 0.0000 -5.3812 0.0000
# 4 0.0000 0.0000 0.0000 40.0036 0.0000 6.7027
# 5 -4.1675 -8.2020 -5.3812 0.0000 27.7541 0.0000
# 6 0.0000 0.0000 0.0000 6.7027 0.0000 31.7587
#
#
#
# Elastic Compliance Matrix: (Units=1/GPa)
#
#
# Indices 1 2 3 4 5 6 
#
# 1 0.009905 -0.003557 -0.002764 0.000000 -0.000100 0.000000
# 2 -0.003557 0.011041 -0.002808 0.000000 0.002184 0.000000
# 3 -0.002764 -0.002808 0.009717 0.000000 0.000639 0.000000
# 4 0.000000 0.000000 0.000000 0.025914 0.000000 -0.005469
# 5 -0.000100 0.002184 0.000639 0.000000 0.036785 0.000000
# 6 0.000000 0.000000 0.000000 -0.005469 0.000000 0.032642
#
#
# Mechanical properties :
#
#
# Convention : Reuss Voigt Hill
#
# Bulk Modulus (GPa) = 80.61383 82.15319 81.38351
# Shear Modulus (GPa) = 33.69331 35.09828 34.39579
#
# Velocity S-wave (km/s) = 4.15962 4.24546 4.20276
# Velocity P-wave (km/s) = 8.02915 8.13755 8.08354
#
# Compressibility (1/GPa) = 0.01240482
#
# Stress axis : x y z
#
# Youngs Moduli (GPa) = 100.96207 90.57017 102.90987
#
# Poissons Ratio (x) = 0.32213 0.28447
# Poissons Ratio (y) = 0.35909 0.28899
# Poissons Ratio (z) = 0.27908 0.25434
#
# Static dielectric constant tensor:
#      x y z
#    x 1.678320 0.000000 -0.005070 
#    y 0.000000 1.638550 0.000000 
#    z -0.005070 0.000000 1.675160 
# 
# From -- ./inp_files/32461.got.cif
#   From: 2010.05.17/outbox.cif.g08.bks.cpg/sg15_17_cif.got.tgz:32461.got - 2010.06.03 18:47:42.
