data_PCOD9297530
_publ_section_title
;
Structure prediction by ZEFSAII (Michael W. Deem and Ramdas Pophale) SiO2 
 PCOD9297530
Probable space group: C 2/C
;
_chemical_formula_sum "Si O2"
_cell_formula_units_Z 44
_cell_length_a 6.099136
_cell_length_b 13.544046
_cell_length_c 24.335653
_cell_angle_alpha 90.000000
_cell_angle_beta 71.763009
_cell_angle_gamma 90.000000
_cell_volume 1909.318072
_symmetry_space_group_name_H-M "C 2/C"
_symmetry_group_IT_number 15
_symmetry_cell_setting 'monoclinic'
loop_
_space_group_symop_operation_xyz
x,y,z
-x,y,1/2-z
-x,-y,-z
x,-y,1/2+z
1/2+x,1/2+y,z
1/2-x,1/2+y,1/2-z
1/2-x,1/2-y,-z
1/2+x,1/2-y,1/2+z
loop_
_atom_site_type_symbol
_atom_site_label
_atom_site_fract_x
_atom_site_fract_y
_atom_site_fract_z
Si Si1 0.608784 0.011820 0.354792
Si Si2 0.000000 0.988136 0.250000
Si Si3 0.984349 0.171242 0.018243
Si Si4 0.243779 0.990015 0.043694
Si Si5 0.501270 0.222632 0.410854
Si Si6 0.803642 0.360169 0.308487
O O1 0.797795 0.046221 0.295871
O O2 0.737198 0.957873 0.394846
O O3 0.512424 0.108520 0.391659
O O4 0.429763 0.938776 0.339393
O O5 0.871998 0.919835 0.216065
O O6 0.778542 0.231797 0.063509
O O7 0.113300 0.094758 0.048140
O O8 0.093202 0.246468 0.964763
O O9 0.881231 0.091345 0.982821
O O10 0.500000 0.000000 0.000000
O O11 0.657350 0.283091 0.355805
O O12 0.000000 0.321095 0.250000
#
# Coordination Sequence:
#
# PCOD9297530 Si02
#       6
#     8   4   8   8   8   8
#     4  11  24  42  71  96 133 179 232 281 350 423
#     4  10  24  48  68  92 128 180 220 292 352 408
#     4  10  24  41  62 101 143 176 229 276 351 419
#     4  11  21  42  68  94 138 187 217 280 348 413
#     4  11  23  43  65 102 136 177 225 289 336 428
#     4  10  24  49  68  97 137 180 231 294 362 415
#
# _framework density 23.044875999999999
#
# number of rings (size 3 to 8) (size 9 to 14) (size 15 to 20)
#    0.000    1.455    1.818    2.182    6.364    0.727 
#   18.000    0.000    0.000    0.000    0.000    0.000 
#    0.000    0.000    0.000    0.000    0.000    0.000 
#
# Total GULP energy -122827.771345 kJ/mol
# GULP energy per Si atom -5583.080516 kJ/mol
# Density = 2.299242 g / cm^3
# Si number density = 23.044876 Si / 1000 Ang^3
#
#
#
# Elastic Constant Matrix: (Units=GPa)
#
#
# Indices 1 2 3 4 5 6 
#
# 1 72.9601 37.9891 49.9060 0.0000 17.0491 0.0000
# 2 37.9891 112.6438 46.7967 0.0000 -7.6509 0.0000
# 3 49.9060 46.7967 153.7696 0.0000 -11.4617 0.0000
# 4 0.0000 0.0000 0.0000 40.0373 0.0000 -7.0609
# 5 17.0491 -7.6509 -11.4617 0.0000 54.8079 0.0000
# 6 0.0000 0.0000 0.0000 -7.0609 0.0000 36.3975
#
#
#
# Elastic Compliance Matrix: (Units=1/GPa)
#
#
# Indices 1 2 3 4 5 6 
#
# 1 0.023421 -0.005827 -0.006533 0.000000 -0.009465 0.000000
# 2 -0.005827 0.011646 -0.001419 0.000000 0.003142 0.000000
# 3 -0.006533 -0.001419 0.009338 0.000000 0.003787 0.000000
# 4 0.000000 0.000000 0.000000 0.025862 0.000000 0.005017
# 5 -0.009465 0.003142 0.003787 0.000000 0.022421 0.000000
# 6 0.000000 0.000000 0.000000 0.005017 0.000000 0.028448
#
#
# Mechanical properties :
#
#
# Convention : Reuss Voigt Hill
#
# Bulk Modulus (GPa) = 59.36317 67.63969 63.50143
# Shear Modulus (GPa) = 32.40264 39.89398 36.14831
#
# Velocity S-wave (km/s) = 3.75382 4.16521 3.96486
# Velocity P-wave (km/s) = 6.67862 7.24893 6.96961
#
# Compressibility (1/GPa) = 0.01684546
#
# Stress axis : x y z
#
# Youngs Moduli (GPa) = 42.69631 85.86932 107.09303
#
# Poissons Ratio (x) = 0.50040 0.69969
# Poissons Ratio (y) = 0.24881 0.15192
# Poissons Ratio (z) = 0.27895 0.12182
#
# Static dielectric constant tensor:
#      x y z
#    x 1.959740 0.000000 -0.024650 
#    y 0.000000 1.888250 0.000000 
#    z -0.024650 0.000000 1.914780 
# 
# From -- ./inp_files/260376.got.cif
#   From: 2010.05.17/outbox.cif.g08.bks.cpg/sg15_131_cif.got.tgz:260376.got - 2010.06.03 18:47:42.
