data_PCOD9297566
_publ_section_title
;
Structure prediction by ZEFSAII (Michael W. Deem and Ramdas Pophale) SiO2 
 PCOD9297566
Probable space group: C 2/C
;
_chemical_formula_sum "Si O2"
_cell_formula_units_Z 40
_cell_length_a 19.593059
_cell_length_b 5.014673
_cell_length_c 17.674722
_cell_angle_alpha 90.000000
_cell_angle_beta 65.492015
_cell_angle_gamma 90.000000
_cell_volume 1580.129849
_symmetry_space_group_name_H-M "C 2/C"
_symmetry_group_IT_number 15
_symmetry_cell_setting 'monoclinic'
loop_
_space_group_symop_operation_xyz
x,y,z
-x,y,1/2-z
-x,-y,-z
x,-y,1/2+z
1/2+x,1/2+y,z
1/2-x,1/2+y,1/2-z
1/2-x,1/2-y,-z
1/2+x,1/2-y,1/2+z
loop_
_atom_site_type_symbol
_atom_site_label
_atom_site_fract_x
_atom_site_fract_y
_atom_site_fract_z
Si Si1 0.079650 0.620848 0.705242
Si Si2 0.860614 0.894288 0.384891
Si Si3 0.919452 0.556244 0.138162
Si Si4 0.937486 0.800386 0.491000
Si Si5 0.704476 0.566889 0.743849
O O1 0.132972 0.417512 0.637538
O O2 0.099356 0.639760 0.784004
O O3 0.000000 0.480016 0.750000
O O4 0.072527 0.902602 0.668787
O O5 0.869143 0.915546 0.471716
O O6 0.804358 0.988396 0.343108
O O7 0.871028 0.815794 0.181657
O O8 0.007128 0.631842 0.089344
O O9 0.904454 0.402400 0.067513
O O10 0.000000 0.000000 0.500000
O O11 0.741215 0.321203 0.769904
#
# Coordination Sequence:
#
# PCOD9297566 Si02
#       5
#     8   8   8   8   8
#     4  11  20  36  63  97 132 166 220 263 335 400
#     4  11  24  40  67  98 130 176 220 278 330 396
#     4  10  24  41  65 100 137 174 213 282 342 402
#     4  11  24  41  67 106 142 166 208 282 369 405
#     4  11  25  46  69  93 130 184 245 275 308 386
#
# _framework density 25.314374999999998
#
# number of rings (size 3 to 8) (size 9 to 14) (size 15 to 20)
#    0.000    1.200    2.000    4.200   14.000    0.000 
#    0.000    2.000    0.000    0.000    0.000    0.000 
#    0.000    0.000    0.000    0.000    0.000    0.000 
#
# Total GULP energy -111441.242470 kJ/mol
# GULP energy per Si atom -5572.062123 kJ/mol
# Density = 2.525676 g / cm^3
# Si number density = 25.314375 Si / 1000 Ang^3
#
#
#
# Elastic Constant Matrix: (Units=GPa)
#
#
# Indices 1 2 3 4 5 6 
#
# 1 64.3519 -8.0479 17.6103 0.0008 31.0668 -0.0056
# 2 -8.0479 93.3834 21.7148 0.0037 12.5866 0.0020
# 3 17.6103 21.7148 79.9601 0.0027 35.3782 0.0008
# 4 0.0008 0.0037 0.0027 31.1571 -0.0010 3.8619
# 5 31.0668 12.5866 35.3782 -0.0010 50.5426 -0.0017
# 6 -0.0056 0.0020 0.0008 3.8619 -0.0017 42.2255
#
#
#
# Elastic Compliance Matrix: (Units=1/GPa)
#
#
# Indices 1 2 3 4 5 6 
#
# 1 0.023569 0.004003 0.000830 -0.000002 -0.016065 0.000002
# 2 0.004003 0.012144 -0.002539 -0.000001 -0.003708 0.000000
# 3 0.000830 -0.002539 0.018773 -0.000002 -0.013018 0.000000
# 4 -0.000002 -0.000001 -0.000002 0.032463 0.000003 -0.002969
# 5 -0.016065 -0.003708 -0.013018 0.000003 0.039695 0.000000
# 6 0.000002 0.000000 0.000000 -0.002969 0.000000 0.023954
#
#
# Mechanical properties :
#
#
# Convention : Reuss Voigt Hill
#
# Bulk Modulus (GPa) = 16.92808 33.36108 25.14458
# Shear Modulus (GPa) = 30.17489 38.54626 34.36058
#
# Velocity S-wave (km/s) = 3.45629 3.90642 3.68823
# Velocity P-wave (km/s) = 4.75706 5.79259 5.30017
#
# Compressibility (1/GPa) = 0.05907345
#
# Stress axis : x y z
#
# Youngs Moduli (GPa) = 42.42941 82.34701 53.26827
#
# Poissons Ratio (x) = -0.32967 -0.04420
# Poissons Ratio (y) = -0.16986 0.13526
# Poissons Ratio (z) = -0.03521 0.20909
#
# Static dielectric constant tensor:
#      x y z
#    x 2.206150 0.000000 0.055480 
#    y 0.000000 2.026750 0.000000 
#    z 0.055480 0.000000 2.012780 
# 
# From -- ./inp_files/212597.got.cif
#   From: 2010.05.17/outbox.cif.g08.bks.cpg/sg15_107_cif.got.tgz:212597.got - 2010.06.03 18:47:42.
