data_PCOD9297512
_publ_section_title
;
Structure prediction by ZEFSAII (Michael W. Deem and Ramdas Pophale) SiO2 
 PCOD9297512
Probable space group: C 2/C
;
_chemical_formula_sum "Si O2"
_cell_formula_units_Z 40
_cell_length_a 19.195903
_cell_length_b 8.893371
_cell_length_c 24.115662
_cell_angle_alpha 90.000000
_cell_angle_beta 25.142023
_cell_angle_gamma 90.000000
_cell_volume 1749.135909
_symmetry_space_group_name_H-M "C 2/C"
_symmetry_group_IT_number 15
_symmetry_cell_setting 'monoclinic'
loop_
_space_group_symop_operation_xyz
x,y,z
-x,y,1/2-z
-x,-y,-z
x,-y,1/2+z
1/2+x,1/2+y,z
1/2-x,1/2+y,1/2-z
1/2-x,1/2-y,-z
1/2+x,1/2-y,1/2+z
loop_
_atom_site_type_symbol
_atom_site_label
_atom_site_fract_x
_atom_site_fract_y
_atom_site_fract_z
Si Si1 0.152562 0.707280 0.377770
Si Si2 0.691591 0.140964 0.837283
Si Si3 0.809738 0.792667 0.375079
Si Si4 0.727302 0.001112 0.535009
Si Si5 0.505428 0.719207 0.308174
O O1 0.187501 0.805313 0.298078
O O2 0.151309 0.534187 0.358490
O O3 0.311695 0.727305 0.301479
O O4 0.982742 0.729098 0.533306
O O5 0.768589 0.162999 0.842474
O O6 0.773645 0.618662 0.414830
O O7 0.000000 0.810794 0.250000
O O8 0.722722 0.899616 0.482666
O O9 0.578967 0.117973 0.635213
O O10 0.887451 0.105870 0.425916
O O11 0.500000 0.657047 0.250000
#
# Coordination Sequence:
#
# PCOD9297512 Si02
#       5
#     8   8   8   8   8
#     4  11  28  47  73 107 149 191 237 300 365 430
#     4  11  28  48  72 107 148 192 240 297 363 432
#     4  11  24  45  70 102 136 187 238 296 350 424
#     4  10  24  40  73  99 137 178 247 289 357 415
#     4  11  24  44  69 104 137 185 237 296 352 424
#
# _framework density 22.868435000000002
#
# number of rings (size 3 to 8) (size 9 to 14) (size 15 to 20)
#    0.000    1.200    0.000    3.600   19.600    2.400 
#    0.000    0.000    0.000    0.000    0.000    0.000 
#    0.000    0.000    0.000    0.000    0.000    0.000 
#
# Total GULP energy -111989.397026 kJ/mol
# GULP energy per Si atom -5599.469851 kJ/mol
# Density = 2.281639 g / cm^3
# Si number density = 22.868435 Si / 1000 Ang^3
#
#
#
# Elastic Constant Matrix: (Units=GPa)
#
#
# Indices 1 2 3 4 5 6 
#
# 1 49.7031 -31.8791 -18.2238 -0.0011 -12.3284 0.0000
# 2 -31.8791 87.5722 8.1962 -0.0033 13.1621 -0.0003
# 3 -18.2238 8.1962 63.8960 -0.0088 -18.4664 -0.0005
# 4 -0.0011 -0.0033 -0.0088 33.4305 0.0011 6.6189
# 5 -12.3284 13.1621 -18.4664 0.0011 37.2218 0.0002
# 6 0.0000 -0.0003 -0.0005 6.6189 0.0002 19.5660
#
#
#
# Elastic Compliance Matrix: (Units=1/GPa)
#
#
# Indices 1 2 3 4 5 6 
#
# 1 0.034216 0.009088 0.012771 0.000005 0.014455 -0.000001
# 2 0.009088 0.015079 -0.000016 0.000002 -0.002330 0.000000
# 3 0.012771 -0.000016 0.023953 0.000007 0.016119 -0.000002
# 4 0.000005 0.000002 0.000007 0.032060 0.000003 -0.010845
# 5 0.014455 -0.002330 0.016119 0.000003 0.040475 -0.000001
# 6 -0.000001 0.000000 -0.000002 -0.010845 -0.000001 0.054778
#
#
# Mechanical properties :
#
#
# Convention : Reuss Voigt Hill
#
# Bulk Modulus (GPa) = 8.55175 13.03976 10.79575
# Shear Modulus (GPa) = 25.52927 34.24886 29.88906
#
# Velocity S-wave (km/s) = 3.34481 3.87414 3.61917
# Velocity P-wave (km/s) = 4.32027 5.07212 4.71122
#
# Compressibility (1/GPa) = 0.11693516
#
# Stress axis : x y z
#
# Youngs Moduli (GPa) = 29.22576 66.31693 41.74781
#
# Poissons Ratio (x) = -0.60269 -0.53315
# Poissons Ratio (y) = -0.26560 0.00065
# Poissons Ratio (z) = -0.37324 0.00104
#
# Static dielectric constant tensor:
#      x y z
#    x 1.817480 0.000000 0.027710 
#    y 0.000000 1.871260 0.000000 
#    z 0.027710 0.000000 1.916770 
# 
# From -- ./inp_files/276730.got.cif
#   From: 2010.05.17/outbox.cif.g08.bks.cpg/sg15_139_cif.got.tgz:276730.got - 2010.06.03 18:47:42.
