data_PCOD9297189
_publ_section_title
;
Structure prediction by ZEFSAII (Michael W. Deem and Ramdas Pophale) SiO2 
 PCOD9297189
Probable space group: C 2/C
;
_chemical_formula_sum "Si O2"
_cell_formula_units_Z 48
_cell_length_a 13.701561
_cell_length_b 4.808694
_cell_length_c 27.632581
_cell_angle_alpha 90.000000
_cell_angle_beta 105.740916
_cell_angle_gamma 90.000000
_cell_volume 1752.340890
_symmetry_space_group_name_H-M "C 2/C"
_symmetry_group_IT_number 15
_symmetry_cell_setting 'monoclinic'
loop_
_space_group_symop_operation_xyz
x,y,z
-x,y,1/2-z
-x,-y,-z
x,-y,1/2+z
1/2+x,1/2+y,z
1/2-x,1/2+y,1/2-z
1/2-x,1/2-y,-z
1/2+x,1/2-y,1/2+z
loop_
_atom_site_type_symbol
_atom_site_label
_atom_site_fract_x
_atom_site_fract_y
_atom_site_fract_z
Si Si1 0.209293 0.075498 0.215539
Si Si2 0.204727 0.703867 0.867329
Si Si3 0.435910 0.818393 0.596712
Si Si4 0.001867 0.398589 0.195362
Si Si5 0.377037 0.009821 0.443956
Si Si6 0.842981 0.032529 0.504444
O O1 0.283771 0.307111 0.248759
O O2 0.101418 0.222586 0.199637
O O3 0.241086 0.977626 0.166661
O O4 0.164208 0.505025 0.905116
O O5 0.282887 0.936969 0.894994
O O6 0.098796 0.787812 0.828184
O O7 0.520300 0.921584 0.570382
O O8 0.397410 0.544374 0.564174
O O9 0.491427 0.851365 0.655580
O O10 0.000000 0.494834 0.250000
O O11 0.346565 0.225148 0.483083
O O12 0.395031 0.706825 0.468073
O O13 0.750000 0.250000 0.500000
#
# Coordination Sequence:
#
# PCOD9297189 Si02
#       6
#     8   8   8   8   8   8
#     4  12  27  52  79 108 155 205 256 318 384 455
#     4  10  26  49  78 114 154 203 254 321 384 453
#     4  10  25  47  78 111 153 201 256 309 386 451
#     4  10  23  51  76 117 151 203 257 316 384 460
#     4  12  27  49  77 110 153 200 255 313 383 453
#     4  12  25  50  76 110 154 202 250 317 379 456
#
# _framework density 27.391932000000001
#
# number of rings (size 3 to 8) (size 9 to 14) (size 15 to 20)
#    1.000    0.000    3.333    1.500    4.667    0.000 
#    9.000    0.000    0.000    0.000    0.000    0.000 
#    0.000    0.000    0.000    0.000    0.000    0.000 
#
# Total GULP energy -134370.137727 kJ/mol
# GULP energy per Si atom -5598.755739 kJ/mol
# Density = 2.732959 g / cm^3
# Si number density = 27.391932 Si / 1000 Ang^3
#
#
#
# Elastic Constant Matrix: (Units=GPa)
#
#
# Indices 1 2 3 4 5 6 
#
# 1 128.1743 26.1853 40.8008 0.0000 -16.0232 0.0000
# 2 26.1853 162.5163 70.4161 0.0000 -7.5142 0.0001
# 3 40.8008 70.4161 174.9203 0.0000 7.7616 0.0000
# 4 0.0000 0.0000 0.0000 33.2109 0.0000 -4.6556
# 5 -16.0232 -7.5142 7.7616 0.0000 52.6804 0.0000
# 6 0.0000 0.0001 0.0000 -4.6556 0.0000 36.9045
#
#
#
# Elastic Compliance Matrix: (Units=1/GPa)
#
#
# Indices 1 2 3 4 5 6 
#
# 1 0.008905 -0.000414 -0.002041 0.000000 0.002950 0.000000
# 2 -0.000414 0.007595 -0.003023 0.000000 0.001403 0.000000
# 3 -0.002041 -0.003023 0.007506 0.000000 -0.002158 0.000000
# 4 0.000000 0.000000 0.000000 0.030653 0.000000 0.003867
# 5 0.002950 0.001403 -0.002158 0.000000 0.020398 0.000000
# 6 0.000000 0.000000 0.000000 0.003867 0.000000 0.027585
#
#
# Mechanical properties :
#
#
# Convention : Reuss Voigt Hill
#
# Bulk Modulus (GPa) = 76.63538 82.26838 79.45188
# Shear Modulus (GPa) = 42.39196 46.43975 44.41585
#
# Velocity S-wave (km/s) = 3.93823 4.12197 4.03115
# Velocity P-wave (km/s) = 6.97980 7.26314 7.12288
#
# Compressibility (1/GPa) = 0.01304880
#
# Stress axis : x y z
#
# Youngs Moduli (GPa) = 112.29534 131.67253 133.23107
#
# Poissons Ratio (x) = 0.05450 0.27198
# Poissons Ratio (y) = 0.04648 0.40276
# Poissons Ratio (z) = 0.22924 0.39805
#
# Static dielectric constant tensor:
#      x y z
#    x 2.215470 0.000000 0.040800 
#    y 0.000000 2.109910 0.000000 
#    z 0.040800 0.000000 2.169660 
# 
# From -- ./inp_files/312130.got.cif
#   From: 2010.05.17/outbox.cif.g08.bks.cpg/sg15_157_cif.got.tgz:312130.got - 2010.06.03 18:47:42.
