data_PCOD9297447
_publ_section_title
;
Structure prediction by ZEFSAII (Michael W. Deem and Ramdas Pophale) SiO2 
 PCOD9297447
Probable space group: C 2/C
;
_chemical_formula_sum "Si O2"
_cell_formula_units_Z 36
_cell_length_a 7.316233
_cell_length_b 11.100364
_cell_length_c 20.267015
_cell_angle_alpha 90.000000
_cell_angle_beta 113.803257
_cell_angle_gamma 90.000000
_cell_volume 1505.932820
_symmetry_space_group_name_H-M "C 2/C"
_symmetry_group_IT_number 15
_symmetry_cell_setting 'monoclinic'
loop_
_space_group_symop_operation_xyz
x,y,z
-x,y,1/2-z
-x,-y,-z
x,-y,1/2+z
1/2+x,1/2+y,z
1/2-x,1/2+y,1/2-z
1/2-x,1/2-y,-z
1/2+x,1/2-y,1/2+z
loop_
_atom_site_type_symbol
_atom_site_label
_atom_site_fract_x
_atom_site_fract_y
_atom_site_fract_z
Si Si1 0.260819 0.304122 0.117528
Si Si2 0.371366 0.114723 0.499083
Si Si3 0.500000 0.521724 0.750000
Si Si4 0.210285 0.546679 0.315454
Si Si5 0.899625 0.846146 0.431346
O O1 0.299165 0.165457 0.141106
O O2 0.350120 0.390702 0.187301
O O3 0.380108 0.340781 0.068021
O O4 0.026831 0.321564 0.072040
O O5 0.162632 0.097891 0.506579
O O6 0.346137 0.205404 0.434513
O O7 0.500000 0.000000 0.500000
O O8 0.621950 0.441613 0.716399
O O9 0.271088 0.426308 0.363071
O O10 0.000000 0.531033 0.250000
#
# Coordination Sequence:
#
# PCOD9297447 Si02
#       5
#     8   8   4   8   8
#     4  11  23  43  65  95 130 172 221 272 331 395
#     4  11  24  42  65  97 135 171 223 275 328 398
#     4  10  24  42  64 100 126 176 224 266 342 394
#     4  11  23  43  66  92 135 172 221 281 327 396
#     4  10  24  40  67  97 128 176 220 269 338 388
#
# _framework density 23.905449000000001
#
# number of rings (size 3 to 8) (size 9 to 14) (size 15 to 20)
#    0.000    1.333    1.111    3.333    0.000   10.667 
#    2.000    0.000    0.000    0.000    0.000    0.000 
#    0.000    0.000    0.000    0.000    0.000    0.000 
#
# Total GULP energy -100653.895213 kJ/mol
# GULP energy per Si atom -5591.883067 kJ/mol
# Density = 2.385104 g / cm^3
# Si number density = 23.905449 Si / 1000 Ang^3
#
#
#
# Elastic Constant Matrix: (Units=GPa)
#
#
# Indices 1 2 3 4 5 6 
#
# 1 142.1132 50.4071 27.6908 0.0000 -24.3823 0.0000
# 2 50.4071 122.9222 29.7619 0.0000 -2.7079 0.0000
# 3 27.6908 29.7619 60.2224 0.0000 9.6698 0.0000
# 4 0.0000 0.0000 0.0000 3.3164 0.0000 -11.0300
# 5 -24.3823 -2.7079 9.6698 0.0000 50.0627 0.0000
# 6 0.0000 0.0000 0.0000 -11.0300 0.0000 41.7581
#
#
#
# Elastic Compliance Matrix: (Units=1/GPa)
#
#
# Indices 1 2 3 4 5 6 
#
# 1 0.009754 -0.002940 -0.003890 0.000000 0.005343 0.000000
# 2 -0.002940 0.010227 -0.003675 0.000000 -0.000169 0.000000
# 3 -0.003890 -0.003675 0.021204 0.000000 -0.006189 0.000000
# 4 0.000000 0.000000 0.000000 2.481741 0.000000 0.655527
# 5 0.005343 -0.000169 -0.006189 0.000000 0.023763 0.000000
# 6 0.000000 0.000000 0.000000 0.655527 0.000000 0.197098
#
#
# Mechanical properties :
#
#
# Convention : Reuss Voigt Hill
#
# Bulk Modulus (GPa) = 49.56788 60.10859 54.83823
# Shear Modulus (GPa) = 1.80406 33.52064 17.66235
#
# Velocity S-wave (km/s) = 0.86966 3.74868 2.72111
# Velocity P-wave (km/s) = 4.66780 6.62840 5.73254
#
# Compressibility (1/GPa) = 0.02017435
#
# Stress axis : x y z
#
# Youngs Moduli (GPa) = 102.51963 97.77950 47.16171
#
# Poissons Ratio (x) = 0.28751 0.18345
# Poissons Ratio (y) = 0.30145 0.17332
# Poissons Ratio (z) = 0.39878 0.35934
#
# Static dielectric constant tensor:
#      x y z
#    x 1.896970 0.000000 -0.061200 
#    y 0.000000 1.938760 0.000000 
#    z -0.061200 0.000000 1.943930 
# 
# From -- ./inp_files/263644.got.cif
#   From: 2010.05.17/outbox.cif.g08.bks.cpg/sg15_132_cif.got.tgz:263644.got - 2010.06.03 18:47:42.
