data_PCOD9297492
_publ_section_title
;
Structure prediction by ZEFSAII (Michael W. Deem and Ramdas Pophale) SiO2 
 PCOD9297492
Probable space group: C 2/C
;
_chemical_formula_sum "Si O2"
_cell_formula_units_Z 48
_cell_length_a 23.303427
_cell_length_b 4.939163
_cell_length_c 21.790448
_cell_angle_alpha 90.000000
_cell_angle_beta 131.310737
_cell_angle_gamma 90.000000
_cell_volume 1883.911315
_symmetry_space_group_name_H-M "C 2/C"
_symmetry_group_IT_number 15
_symmetry_cell_setting 'monoclinic'
loop_
_space_group_symop_operation_xyz
x,y,z
-x,y,1/2-z
-x,-y,-z
x,-y,1/2+z
1/2+x,1/2+y,z
1/2-x,1/2+y,1/2-z
1/2-x,1/2-y,-z
1/2+x,1/2-y,1/2+z
loop_
_atom_site_type_symbol
_atom_site_label
_atom_site_fract_x
_atom_site_fract_y
_atom_site_fract_z
Si Si1 0.420512 0.524088 0.290026
Si Si2 0.250000 0.750000 0.500000
Si Si3 0.343801 0.074993 0.950883
Si Si4 0.500000 0.874388 0.750000
Si Si5 0.644211 0.790370 0.372799
Si Si6 0.584297 0.432122 0.947074
Si Si7 0.795447 0.894442 0.795605
O O1 0.456592 0.296747 0.271069
O O2 0.497564 0.649219 0.372797
O O3 0.365271 0.471813 0.307580
O O4 0.369384 0.687406 0.205024
O O5 0.277863 0.902798 0.455304
O O6 0.290813 0.996157 0.569499
O O7 0.318272 0.215903 0.870518
O O8 0.411333 0.268009 0.023875
O O9 0.375445 0.772240 0.977502
O O10 0.435311 0.050082 0.672438
O O11 0.637163 0.558494 0.421176
O O12 0.756994 0.654604 0.727608
#
# Coordination Sequence:
#
# PCOD9297492 Si02
#       7
#     8   4   8   4   8   8   8
#     4  12  25  42  78 102 148 192 245 310 363 444
#     4  10  24  40  70  94 148 188 234 308 350 430
#     4  11  26  45  67 106 143 188 248 293 371 435
#     4  12  22  44  72 114 138 188 252 310 362 434
#     4  11  23  41  69 110 142 186 250 300 373 428
#     4  11  23  44  71 104 141 183 240 310 361 424
#     4  12  30  50  72 105 149 200 246 294 372 451
#
# _framework density 25.478907
#
# number of rings (size 3 to 8) (size 9 to 14) (size 15 to 20)
#    0.000    0.667    3.333    4.000    4.667    4.000 
#    0.000    0.000    0.000    0.000    0.000    0.000 
#    0.000    0.000    0.000    0.000    0.000    0.000 
#
# Total GULP energy -133948.364026 kJ/mol
# GULP energy per Si atom -5581.181834 kJ/mol
# Density = 2.542092 g / cm^3
# Si number density = 25.478907 Si / 1000 Ang^3
#
#
#
# Elastic Constant Matrix: (Units=GPa)
#
#
# Indices 1 2 3 4 5 6 
#
# 1 105.2917 -11.3114 13.9216 0.0014 -12.8475 -0.0136
# 2 -11.3114 55.8446 -7.0279 0.0111 -7.6815 0.0048
# 3 13.9216 -7.0279 99.4711 0.0025 8.1847 0.0065
# 4 0.0014 0.0111 0.0025 34.6942 0.0005 1.1193
# 5 -12.8475 -7.6815 8.1847 0.0005 28.7951 -0.0107
# 6 -0.0136 0.0048 0.0065 1.1193 -0.0107 22.9667
#
#
#
# Elastic Compliance Matrix: (Units=1/GPa)
#
#
# Indices 1 2 3 4 5 6 
#
# 1 0.010777 0.002790 -0.001810 -0.000002 0.006067 0.000009
# 2 0.002790 0.019395 0.000463 -0.000006 0.006287 0.000001
# 3 -0.001810 0.000463 0.010644 -0.000001 -0.003710 -0.000006
# 4 -0.000002 -0.000006 -0.000001 0.028869 -0.000003 -0.001407
# 5 0.006067 0.006287 -0.003710 -0.000003 0.040167 0.000022
# 6 0.000009 0.000001 -0.000006 -0.001407 0.000022 0.043610
#
#
# Mechanical properties :
#
#
# Convention : Reuss Voigt Hill
#
# Bulk Modulus (GPa) = 22.88353 27.97467 25.42910
# Shear Modulus (GPa) = 30.27653 34.95954 32.61803
#
# Velocity S-wave (km/s) = 3.45091 3.70820 3.58187
# Velocity P-wave (km/s) = 4.98791 5.41643 5.20658
#
# Compressibility (1/GPa) = 0.04369955
#
# Stress axis : x y z
#
# Youngs Moduli (GPa) = 92.79226 51.56007 93.94534
#
# Poissons Ratio (x) = -0.14383 0.17008
# Poissons Ratio (y) = -0.25885 -0.04346
# Poissons Ratio (z) = 0.16799 -0.02385
#
# Static dielectric constant tensor:
#      x y z
#    x 1.873170 0.000000 -0.106630 
#    y 0.000000 2.387130 -0.000020 
#    z -0.106630 -0.000020 2.008570 
# 
# From -- ./inp_files/280944.got.cif
#   From: 2010.05.17/outbox.cif.g08.bks.cpg/sg15_141_cif.got.tgz:280944.got - 2010.06.03 18:47:42.
