data_PCOD9297125
_publ_section_title
;
Structure prediction by ZEFSAII (Michael W. Deem and Ramdas Pophale) SiO2 
 PCOD9297125
Probable space group: C 2/C
;
_chemical_formula_sum "Si O2"
_cell_formula_units_Z 56
_cell_length_a 9.057892
_cell_length_b 22.401532
_cell_length_c 17.666054
_cell_angle_alpha 90.000000
_cell_angle_beta 136.465573
_cell_angle_gamma 90.000000
_cell_volume 2469.058820
_symmetry_space_group_name_H-M "C 2/C"
_symmetry_group_IT_number 15
_symmetry_cell_setting 'monoclinic'
loop_
_space_group_symop_operation_xyz
x,y,z
-x,y,1/2-z
-x,-y,-z
x,-y,1/2+z
1/2+x,1/2+y,z
1/2-x,1/2+y,1/2-z
1/2-x,1/2-y,-z
1/2+x,1/2-y,1/2+z
loop_
_atom_site_type_symbol
_atom_site_label
_atom_site_fract_x
_atom_site_fract_y
_atom_site_fract_z
Si Si1 0.200602 0.660438 0.210963
Si Si2 0.500000 0.861478 0.250000
Si Si3 0.498763 0.955426 0.608232
Si Si4 0.000000 0.253750 0.750000
Si Si5 0.257837 0.443762 0.131991
Si Si6 0.827798 0.851210 0.581129
Si Si7 0.098692 0.321035 0.134645
Si Si8 0.807803 0.048090 0.947641
O O1 0.039805 0.707490 0.188879
O O2 0.432479 0.673234 0.332036
O O3 0.246905 0.649386 0.138600
O O4 0.103833 0.596290 0.195158
O O5 0.604250 0.818622 0.226302
O O6 0.294853 0.901422 0.146085
O O7 0.309157 0.934464 0.480391
O O8 0.673667 0.990853 0.623413
O O9 0.392861 0.004870 0.619322
O O10 0.787035 0.213877 0.663937
O O11 0.500000 0.438826 0.250000
O O12 0.132385 0.391108 0.127567
O O13 0.646147 0.810472 0.477032
O O14 0.843977 0.914128 0.539735
O O15 0.000000 0.000000 0.000000
#
# Coordination Sequence:
#
# PCOD9297125 Si02
#       8
#     8   4   8   4   8   8   8   8
#     4  11  26  46  71 109 147 192 235 299 376 433
#     4  10  24  45  66  98 143 186 234 298 362 418
#     4  11  23  39  68 105 148 184 233 292 373 448
#     4  12  30  47  76 106 137 190 258 318 352 424
#     4  11  22  39  71 105 138 187 239 301 362 430
#     4  10  23  48  72  99 149 192 238 290 374 439
#     4  11  23  49  72 103 138 187 257 299 354 428
#     4  11  25  38  67 109 145 193 233 287 362 441
#
# _framework density 22.680707999999999
#
# number of rings (size 3 to 8) (size 9 to 14) (size 15 to 20)
#    0.000    1.143    5.000    0.857   10.000    2.286 
#    0.000    1.429    0.000    0.000    0.000    0.000 
#    0.000    0.000    0.000    0.000    0.000    0.000 
#
# Total GULP energy -156061.295593 kJ/mol
# GULP energy per Si atom -5573.617700 kJ/mol
# Density = 2.262909 g / cm^3
# Si number density = 22.680708 Si / 1000 Ang^3
#
#
#
# Elastic Constant Matrix: (Units=GPa)
#
#
# Indices 1 2 3 4 5 6 
#
# 1 120.7292 63.3016 54.2703 -0.0001 8.9900 0.0000
# 2 63.3016 95.6867 33.0647 -0.0001 14.3261 0.0000
# 3 54.2703 33.0647 95.6808 -0.0002 23.1887 0.0000
# 4 -0.0001 -0.0001 -0.0002 1.1495 -0.0001 5.0899
# 5 8.9900 14.3261 23.1887 -0.0001 31.9596 0.0000
# 6 0.0000 0.0000 0.0000 5.0899 0.0000 50.6887
#
#
#
# Elastic Compliance Matrix: (Units=1/GPa)
#
#
# Indices 1 2 3 4 5 6 
#
# 1 0.015571 -0.008571 -0.006964 -0.000002 0.004515 0.000000
# 2 -0.008571 0.016802 0.000359 0.000001 -0.005381 0.000000
# 3 -0.006964 0.000359 0.016795 0.000003 -0.010388 0.000000
# 4 -0.000002 0.000001 0.000003 1.566494 0.000003 -0.157300
# 5 0.004515 -0.005381 -0.010388 0.000003 0.039969 0.000000
# 6 0.000000 0.000000 0.000000 -0.157300 0.000000 0.035524
#
#
# Mechanical properties :
#
#
# Convention : Reuss Voigt Hill
#
# Bulk Modulus (GPa) = 53.14448 68.15221 60.64834
# Shear Modulus (GPa) = 2.89389 27.52354 15.20872
#
# Velocity S-wave (km/s) = 1.13079 3.48734 2.59232
# Velocity P-wave (km/s) = 5.01870 6.80655 5.97982
#
# Compressibility (1/GPa) = 0.01881663
#
# Stress axis : x y z
#
# Youngs Moduli (GPa) = 64.22092 59.51580 59.54098
#
# Poissons Ratio (x) = 0.51008 0.41467
# Poissons Ratio (y) = 0.55041 -0.02138
# Poissons Ratio (z) = 0.44727 -0.02137
#
# Static dielectric constant tensor:
#      x y z
#    x 1.893530 0.000000 -0.056390 
#    y 0.000000 1.882300 0.000000 
#    z -0.056390 0.000000 1.909240 
# 
# From -- ./inp_files/193361.got.cif
#   From: 2010.05.17/outbox.cif.g08.bks.cpg/sg15_97_cif.got.tgz:193361.got - 2010.06.03 18:47:42.
