data_PCOD9297220
_publ_section_title
;
Structure prediction by ZEFSAII (Michael W. Deem and Ramdas Pophale) SiO2 
 PCOD9297220
Probable space group: C 2/C
;
_chemical_formula_sum "Si O2"
_cell_formula_units_Z 44
_cell_length_a 13.439194
_cell_length_b 18.370623
_cell_length_c 8.999029
_cell_angle_alpha 90.000000
_cell_angle_beta 110.841886
_cell_angle_gamma 90.000000
_cell_volume 2076.360008
_symmetry_space_group_name_H-M "C 2/C"
_symmetry_group_IT_number 15
_symmetry_cell_setting 'monoclinic'
loop_
_space_group_symop_operation_xyz
x,y,z
-x,y,1/2-z
-x,-y,-z
x,-y,1/2+z
1/2+x,1/2+y,z
1/2-x,1/2+y,1/2-z
1/2-x,1/2-y,-z
1/2+x,1/2-y,1/2+z
loop_
_atom_site_type_symbol
_atom_site_label
_atom_site_fract_x
_atom_site_fract_y
_atom_site_fract_z
Si Si1 0.000000 0.491630 0.250000
Si Si2 0.255411 0.671821 0.320672
Si Si3 0.729968 0.107385 0.625168
Si Si4 0.447326 0.219856 0.879618
Si Si5 0.904523 0.794278 0.303692
Si Si6 0.853168 0.447077 0.919397
O O1 0.087267 0.446990 0.390720
O O2 0.058100 0.542546 0.161348
O O3 0.267664 0.625727 0.477435
O O4 0.358909 0.716422 0.328945
O O5 0.165805 0.731875 0.312392
O O6 0.215202 0.621740 0.164723
O O7 0.618455 0.149594 0.596638
O O8 0.819404 0.141356 0.781778
O O9 0.713073 0.021770 0.626026
O O10 0.500000 0.205637 0.750000
O O11 0.540199 0.252016 0.032587
O O12 0.000000 0.820241 0.250000
#
# Coordination Sequence:
#
# PCOD9297220 Si02
#       6
#     4   8   8   8   8   8
#     4  10  24  36  58  98 124 170 194 258 328 366
#     4  11  23  43  66  94 129 168 212 262 310 385
#     4  11  23  42  65  96 128 169 211 260 312 385
#     4  11  25  42  67  97 127 161 216 269 314 364
#     4  11  21  40  72  89 121 173 216 252 313 380
#     4  11  24  39  62  95 133 160 216 255 319 377
#
# _framework density 21.190930000000002
#
# number of rings (size 3 to 8) (size 9 to 14) (size 15 to 20)
#    0.000    1.091    5.455    1.091    7.636    4.364 
#    0.000    1.818    0.000    0.000    0.000    0.000 
#    0.000    0.000    0.000    0.000    0.000    0.000 
#
# Total GULP energy -123041.656313 kJ/mol
# GULP energy per Si atom -5592.802560 kJ/mol
# Density = 2.114270 g / cm^3
# Si number density = 21.190930 Si / 1000 Ang^3
#
#
#
# Elastic Constant Matrix: (Units=GPa)
#
#
# Indices 1 2 3 4 5 6 
#
# 1 87.4644 37.6208 25.9887 0.0000 9.0777 0.0000
# 2 37.6208 109.9559 15.2770 0.0000 16.8052 0.0000
# 3 25.9887 15.2770 86.1718 0.0000 12.6370 0.0000
# 4 0.0000 0.0000 0.0000 34.8103 0.0000 12.9172
# 5 9.0777 16.8052 12.6370 0.0000 38.4891 0.0000
# 6 0.0000 0.0000 0.0000 12.9172 0.0000 23.8628
#
#
#
# Elastic Compliance Matrix: (Units=1/GPa)
#
#
# Indices 1 2 3 4 5 6 
#
# 1 0.014400 -0.004388 -0.003517 0.000000 -0.000325 0.000000
# 2 -0.004388 0.011194 -0.000101 0.000000 -0.003819 0.000000
# 3 -0.003517 -0.000101 0.013190 0.000000 -0.003457 0.000000
# 4 0.000000 0.000000 0.000000 0.035948 0.000000 -0.019459
# 5 -0.000325 -0.003819 -0.003457 0.000000 0.028861 0.000000
# 6 0.000000 0.000000 0.000000 -0.019459 0.000000 0.052439
#
#
# Mechanical properties :
#
#
# Convention : Reuss Voigt Hill
#
# Bulk Modulus (GPa) = 43.91555 49.04055 46.47805
# Shear Modulus (GPa) = 27.83425 33.07949 30.45687
#
# Velocity S-wave (km/s) = 3.62815 3.95526 3.79523
# Velocity P-wave (km/s) = 6.19032 6.63711 6.41761
#
# Compressibility (1/GPa) = 0.02277098
#
# Stress axis : x y z
#
# Youngs Moduli (GPa) = 69.44640 89.33561 75.81312
#
# Poissons Ratio (x) = 0.39204 0.26664
# Poissons Ratio (y) = 0.30476 0.00765
# Poissons Ratio (z) = 0.24425 0.00901
#
# Static dielectric constant tensor:
#      x y z
#    x 1.760400 0.000000 0.029000 
#    y 0.000000 1.755120 0.000000 
#    z 0.029000 0.000000 1.810200 
# 
# From -- ./inp_files/39319.got.cif
#   From: 2010.05.17/outbox.cif.g08.bks.cpg/sg15_20_cif.got.tgz:39319.got - 2010.06.03 18:47:42.
