data_PCOD9297900
_publ_section_title
;
Structure prediction by ZEFSAII (Michael W. Deem and Ramdas Pophale) SiO2 
 PCOD9297900
Probable space group: C 2/C
;
_chemical_formula_sum "Si O2"
_cell_formula_units_Z 52
_cell_length_a 6.697728
_cell_length_b 18.643231
_cell_length_c 27.182020
_cell_angle_alpha 90.000000
_cell_angle_beta 46.974753
_cell_angle_gamma 90.000000
_cell_volume 2481.300400
_symmetry_space_group_name_H-M "C 2/C"
_symmetry_group_IT_number 15
_symmetry_cell_setting 'monoclinic'
loop_
_space_group_symop_operation_xyz
x,y,z
-x,y,1/2-z
-x,-y,-z
x,-y,1/2+z
1/2+x,1/2+y,z
1/2-x,1/2+y,1/2-z
1/2-x,1/2-y,-z
1/2+x,1/2-y,1/2+z
loop_
_atom_site_type_symbol
_atom_site_label
_atom_site_fract_x
_atom_site_fract_y
_atom_site_fract_z
Si Si1 0.314878 0.709755 0.414292
Si Si2 0.040738 0.941307 0.848355
Si Si3 0.855046 0.701785 0.562723
Si Si4 0.500000 0.474931 0.750000
Si Si5 0.043229 0.462687 0.440077
Si Si6 0.792046 0.681919 0.831508
Si Si7 0.593628 0.027176 0.641924
O O1 0.383647 0.626700 0.395722
O O2 0.513705 0.741348 0.422394
O O3 0.371903 0.755454 0.356031
O O4 0.002275 0.717878 0.485655
O O5 0.074078 0.926788 0.784911
O O6 0.282447 0.966160 0.843395
O O7 0.849829 0.011352 0.878285
O O8 0.967906 0.622481 0.556252
O O9 0.529649 0.697313 0.623789
O O10 0.767556 0.523891 0.701436
O O11 0.000000 0.500000 0.500000
O O12 0.858693 0.486608 0.424466
O O13 0.809592 0.604896 0.856165
O O14 0.000000 0.680198 0.750000
#
# Coordination Sequence:
#
# PCOD9297900 Si02
#       7
#     8   8   8   4   8   8   8
#     4  11  26  46  69 102 143 183 227 295 352 412
#     4  11  23  43  69 102 134 181 230 286 346 406
#     4  11  24  48  70  99 142 182 235 288 350 417
#     4  10  24  42  70  96 144 178 238 284 342 408
#     4  11  22  43  70 103 136 179 235 285 339 422
#     4  12  26  44  74 103 138 187 235 283 356 426
#     4  11  24  43  71 101 139 185 235 290 344 412
#
# _framework density 20.956755000000001
#
# number of rings (size 3 to 8) (size 9 to 14) (size 15 to 20)
#    0.000    0.923    4.615    1.846    3.231    3.692 
#    8.308    0.000    0.000    0.000    0.000    0.000 
#    0.000    0.000    0.000    0.000    0.000    0.000 
#
# Total GULP energy -144944.318098 kJ/mol
# GULP energy per Si atom -5574.781465 kJ/mol
# Density = 2.090906 g / cm^3
# Si number density = 20.956755 Si / 1000 Ang^3
#
#
#
# Elastic Constant Matrix: (Units=GPa)
#
#
# Indices 1 2 3 4 5 6 
#
# 1 130.8172 30.7669 67.4964 0.0013 7.2545 -0.0012
# 2 30.7669 75.9312 20.2594 0.0003 9.0982 -0.0004
# 3 67.4964 20.2594 109.0658 0.0018 8.9477 -0.0016
# 4 0.0013 0.0003 0.0018 24.9844 -0.0010 3.3427
# 5 7.2545 9.0982 8.9477 -0.0010 40.8727 0.0009
# 6 -0.0012 -0.0004 -0.0016 3.3427 0.0009 22.6883
#
#
#
# Elastic Compliance Matrix: (Units=1/GPa)
#
#
# Indices 1 2 3 4 5 6 
#
# 1 0.011843 -0.002996 -0.006776 0.000000 0.000048 0.000000
# 2 -0.002996 0.014884 -0.000695 0.000000 -0.002629 0.000000
# 3 -0.006776 -0.000695 0.013625 -0.000001 -0.001625 0.000001
# 4 0.000000 0.000000 -0.000001 0.040830 0.000001 -0.006016
# 5 0.000048 -0.002629 -0.001625 0.000001 0.025399 -0.000001
# 6 0.000000 0.000000 0.000001 -0.006016 -0.000001 0.044962
#
#
# Mechanical properties :
#
#
# Convention : Reuss Voigt Hill
#
# Bulk Modulus (GPa) = 51.50178 61.42884 56.46531
# Shear Modulus (GPa) = 27.94092 30.86186 29.40139
#
# Velocity S-wave (km/s) = 3.65535 3.84167 3.74967
# Velocity P-wave (km/s) = 6.51491 7.00384 6.76379
#
# Compressibility (1/GPa) = 0.01941680
#
# Stress axis : x y z
#
# Youngs Moduli (GPa) = 84.44117 67.18465 73.39583
#
# Poissons Ratio (x) = 0.20131 0.49735
# Poissons Ratio (y) = 0.25302 0.05100
# Poissons Ratio (z) = 0.57220 0.04668
#
# Static dielectric constant tensor:
#      x y z
#    x 1.822740 0.000000 0.135800 
#    y 0.000000 1.710090 0.000000 
#    z 0.135800 0.000000 2.029110 
# 
# From -- ./inp_files/286476.got.cif
#   From: 2010.05.17/outbox.cif.g08.bks.cpg/sg15_144_cif.got.tgz:286476.got - 2010.06.03 18:47:42.
