data_PCOD9297026
_publ_section_title
;
Structure prediction by ZEFSAII (Michael W. Deem and Ramdas Pophale) SiO2 
 PCOD9297026
Probable space group: C 2/C
;
_chemical_formula_sum "Si O2"
_cell_formula_units_Z 36
_cell_length_a 8.766297
_cell_length_b 10.865466
_cell_length_c 16.589079
_cell_angle_alpha 90.000000
_cell_angle_beta 115.400648
_cell_angle_gamma 90.000000
_cell_volume 1427.359792
_symmetry_space_group_name_H-M "C 2/C"
_symmetry_group_IT_number 15
_symmetry_cell_setting 'monoclinic'
loop_
_space_group_symop_operation_xyz
x,y,z
-x,y,1/2-z
-x,-y,-z
x,-y,1/2+z
1/2+x,1/2+y,z
1/2-x,1/2+y,1/2-z
1/2-x,1/2-y,-z
1/2+x,1/2-y,1/2+z
loop_
_atom_site_type_symbol
_atom_site_label
_atom_site_fract_x
_atom_site_fract_y
_atom_site_fract_z
Si Si1 0.708569 0.320652 0.574531
Si Si2 0.500000 0.755819 0.250000
Si Si3 0.179347 0.935696 0.361343
Si Si4 0.867023 0.142882 0.055351
Si Si5 0.722476 0.536411 0.700723
O O1 0.750000 0.250000 0.500000
O O2 0.513766 0.360072 0.523491
O O3 0.771208 0.437398 0.642483
O O4 0.748559 0.199258 0.636403
O O5 0.465778 0.676596 0.161214
O O6 0.661390 0.845593 0.285813
O O7 0.234435 0.017796 0.450595
O O8 0.247321 0.009982 0.298431
O O9 0.977197 0.927182 0.333965
O O10 0.750000 0.250000 0.000000
#
# Coordination Sequence:
#
# PCOD9297026 Si02
#       5
#     8   4   8   8   8
#     4  11  25  44  68 108 142 190 248 302 378 442
#     4  12  24  46  70 108 140 192 254 292 376 442
#     4  10  23  47  70  96 148 192 243 304 365 440
#     4  11  26  44  72 102 147 192 240 312 372 435
#     4  10  24  43  71  99 142 193 243 300 359 441
#
# _framework density 25.221392000000002
#
# number of rings (size 3 to 8) (size 9 to 14) (size 15 to 20)
#    0.000    1.333    2.222    2.667    6.222    6.222 
#    0.000    0.000    0.000    0.000    0.000    0.000 
#    0.000    0.000    0.000    0.000    0.000    0.000 
#
# Total GULP energy -100217.485691 kJ/mol
# GULP energy per Si atom -5567.638094 kJ/mol
# Density = 2.516399 g / cm^3
# Si number density = 25.221392 Si / 1000 Ang^3
#
#
#
# Elastic Constant Matrix: (Units=GPa)
#
#
# Indices 1 2 3 4 5 6 
#
# 1 66.7856 38.0019 23.4192 0.0000 -30.8151 0.0000
# 2 38.0019 122.0349 24.4810 0.0000 -6.1062 0.0000
# 3 23.4192 24.4810 104.7687 0.0000 -41.5730 0.0000
# 4 0.0000 0.0000 0.0000 55.1291 0.0000 -9.1500
# 5 -30.8151 -6.1062 -41.5730 0.0000 45.3767 0.0000
# 6 0.0000 0.0000 0.0000 -9.1500 0.0000 45.4270
#
#
#
# Elastic Compliance Matrix: (Units=1/GPa)
#
#
# Indices 1 2 3 4 5 6 
#
# 1 0.028730 -0.008733 0.004547 0.000000 0.022501 0.000000
# 2 -0.008733 0.011285 -0.003827 0.000000 -0.007918 0.000000
# 3 0.004547 -0.003827 0.016409 0.000000 0.017607 0.000000
# 4 0.000000 0.000000 0.000000 0.018767 0.000000 0.003780
# 5 0.022501 -0.007918 0.017607 0.000000 0.052384 0.000000
# 6 0.000000 0.000000 0.000000 0.003780 0.000000 0.022775
#
#
# Mechanical properties :
#
#
# Convention : Reuss Voigt Hill
#
# Bulk Modulus (GPa) = 24.75285 51.71038 38.23161
# Shear Modulus (GPa) = 27.80238 43.03235 35.41737
#
# Velocity S-wave (km/s) = 3.32374 4.13508 3.75141
# Velocity P-wave (km/s) = 4.95633 6.58374 5.82713
#
# Compressibility (1/GPa) = 0.04039939
#
# Stress axis : x y z
#
# Youngs Moduli (GPa) = 34.80673 88.61071 60.94221
#
# Poissons Ratio (x) = 0.77383 -0.27712
# Poissons Ratio (y) = 0.30396 0.23321
# Poissons Ratio (z) = -0.15827 0.33909
#
# Static dielectric constant tensor:
#      x y z
#    x 2.017920 0.000000 -0.047220 
#    y 0.000000 2.045100 0.000000 
#    z -0.047220 0.000000 2.298900 
# 
# From -- ./inp_files/188024.got.cif
#   From: 2010.05.17/outbox.cif.g08.bks.cpg/sg15_95_cif.got.tgz:188024.got - 2010.06.03 18:47:42.
