data_PCOD9297630
_publ_section_title
;
Structure prediction by ZEFSAII (Michael W. Deem and Ramdas Pophale) SiO2 
 PCOD9297630
Probable space group: C 2/C
;
_chemical_formula_sum "Si O2"
_cell_formula_units_Z 40
_cell_length_a 25.804440
_cell_length_b 12.298908
_cell_length_c 11.098702
_cell_angle_alpha 90.000000
_cell_angle_beta 148.361154
_cell_angle_gamma 90.000000
_cell_volume 1847.698228
_symmetry_space_group_name_H-M "C 2/C"
_symmetry_group_IT_number 15
_symmetry_cell_setting 'monoclinic'
loop_
_space_group_symop_operation_xyz
x,y,z
-x,y,1/2-z
-x,-y,-z
x,-y,1/2+z
1/2+x,1/2+y,z
1/2-x,1/2+y,1/2-z
1/2-x,1/2-y,-z
1/2+x,1/2-y,1/2+z
loop_
_atom_site_type_symbol
_atom_site_label
_atom_site_fract_x
_atom_site_fract_y
_atom_site_fract_z
Si Si1 0.800623 0.719611 0.975551
Si Si2 0.062518 0.079195 0.761061
Si Si3 0.058060 0.517006 0.244921
Si Si4 0.688888 0.814033 0.537908
Si Si5 0.865029 0.886124 0.731677
O O1 0.719397 0.740992 0.712006
O O2 0.750000 0.750000 0.000000
O O3 0.883733 0.808317 0.106675
O O4 0.853661 0.604095 0.094740
O O5 0.000000 0.034540 0.750000
O O6 0.977298 0.108109 0.497426
O O7 0.140745 0.991900 0.865244
O O8 0.103920 0.402847 0.379392
O O9 0.000000 0.557290 0.250000
O O10 0.000000 0.500000 0.000000
O O11 0.784281 0.881188 0.677629
O O12 0.653329 0.726359 0.371095
#
# Coordination Sequence:
#
# PCOD9297630 Si02
#       5
#     8   8   8   8   8
#     4  12  26  43  73 100 140 182 238 285 352 418
#     4  11  22  42  67 101 136 176 227 281 344 407
#     4  12  28  47  73 104 148 190 236 293 362 427
#     4  11  25  44  69 100 140 179 235 282 347 414
#     4  10  24  41  70  97 138 177 224 284 344 405
#
# _framework density 21.648558000000001
#
# number of rings (size 3 to 8) (size 9 to 14) (size 15 to 20)
#    0.000    0.800    2.000    4.200    8.400    4.000 
#    0.000    0.000    0.000    0.000    0.000    0.000 
#    0.000    0.000    0.000    0.000    0.000    0.000 
#
# Total GULP energy -111626.172963 kJ/mol
# GULP energy per Si atom -5581.308648 kJ/mol
# Density = 2.159929 g / cm^3
# Si number density = 21.648558 Si / 1000 Ang^3
#
#
#
# Elastic Constant Matrix: (Units=GPa)
#
#
# Indices 1 2 3 4 5 6 
#
# 1 117.4475 17.0301 29.3637 0.0000 -5.2719 0.0000
# 2 17.0301 98.8733 40.7740 0.0000 -2.2135 0.0000
# 3 29.3637 40.7740 80.0690 0.0000 -4.8375 0.0000
# 4 0.0000 0.0000 0.0000 42.8194 0.0000 8.7299
# 5 -5.2719 -2.2135 -4.8375 0.0000 21.5799 0.0000
# 6 0.0000 0.0000 0.0000 8.7299 0.0000 25.3054
#
#
#
# Elastic Compliance Matrix: (Units=1/GPa)
#
#
# Indices 1 2 3 4 5 6 
#
# 1 0.009430 -0.000256 -0.003234 0.000000 0.001552 0.000000
# 2 -0.000256 0.012810 -0.006441 0.000000 -0.000192 0.000000
# 3 -0.003234 -0.006441 0.017099 0.000000 0.002382 0.000000
# 4 0.000000 0.000000 0.000000 0.025121 0.000000 -0.008666
# 5 0.001552 -0.000192 0.002382 0.000000 0.047233 0.000000
# 6 0.000000 0.000000 0.000000 -0.008666 0.000000 0.042507
#
#
# Mechanical properties :
#
#
# Convention : Reuss Voigt Hill
#
# Bulk Modulus (GPa) = 51.34267 52.30282 51.82274
# Shear Modulus (GPa) = 27.69255 31.88908 29.79081
#
# Velocity S-wave (km/s) = 3.58045 3.84218 3.71362
# Velocity P-wave (km/s) = 6.39224 6.62537 6.50985
#
# Compressibility (1/GPa) = 0.01947698
#
# Stress axis : x y z
#
# Youngs Moduli (GPa) = 106.04670 78.06457 58.48203
#
# Poissons Ratio (x) = 0.01996 0.18914
# Poissons Ratio (y) = 0.02712 0.37669
# Poissons Ratio (z) = 0.34297 0.50282
#
# Static dielectric constant tensor:
#      x y z
#    x 1.859510 0.000000 -0.036350 
#    y 0.000000 1.797470 0.000000 
#    z -0.036350 0.000000 1.758230 
# 
# From -- ./inp_files/122838.got.cif
#   From: 2010.05.17/outbox.cif.g08.bks.cpg/sg15_62_cif.got.tgz:122838.got - 2010.06.03 18:47:42.
