data_PCOD9297712
_publ_section_title
;
Structure prediction by ZEFSAII (Michael W. Deem and Ramdas Pophale) SiO2 
 PCOD9297712
Probable space group: C 2/C
;
_chemical_formula_sum "Si O2"
_cell_formula_units_Z 52
_cell_length_a 18.061368
_cell_length_b 26.759089
_cell_length_c 8.801906
_cell_angle_alpha 90.000000
_cell_angle_beta 30.721588
_cell_angle_gamma 90.000000
_cell_volume 2173.233650
_symmetry_space_group_name_H-M "C 2/C"
_symmetry_group_IT_number 15
_symmetry_cell_setting 'monoclinic'
loop_
_space_group_symop_operation_xyz
x,y,z
-x,y,1/2-z
-x,-y,-z
x,-y,1/2+z
1/2+x,1/2+y,z
1/2-x,1/2+y,1/2-z
1/2-x,1/2-y,-z
1/2+x,1/2-y,1/2+z
loop_
_atom_site_type_symbol
_atom_site_label
_atom_site_fract_x
_atom_site_fract_y
_atom_site_fract_z
Si Si1 0.000000 0.287890 0.250000
Si Si2 0.241342 0.513926 0.768145
Si Si3 0.617075 0.566196 0.264522
Si Si4 0.645762 0.308790 0.408221
Si Si5 0.385547 0.372076 0.317095
Si Si6 0.388420 0.065852 0.213879
Si Si7 0.147721 0.639771 0.727569
O O1 0.873739 0.250165 0.530147
O O2 0.936237 0.321104 0.228514
O O3 0.339954 0.543229 0.473358
O O4 0.339382 0.474779 0.688226
O O5 0.161691 0.547608 0.032585
O O6 0.126960 0.480726 0.873400
O O7 0.457388 0.585061 0.582793
O O8 0.718202 0.615134 0.097828
O O9 0.500000 0.329508 0.750000
O O10 0.636492 0.324360 0.250428
O O11 0.783869 0.333133 0.246412
O O12 0.500000 0.364698 0.250000
O O13 0.230418 0.393966 0.634921
O O14 0.459642 0.093860 0.550562
#
# Coordination Sequence:
#
# PCOD9297712 Si02
#       7
#     4   8   8   8   8   8   8
#     4  10  24  46  84 112 142 182 240 294 374 454
#     4  10  24  42  65 108 148 191 253 294 357 413
#     4  11  23  42  69  99 144 198 239 297 354 427
#     4  10  24  46  78 109 137 187 234 302 362 446
#     4  12  25  46  72 105 150 197 245 300 367 427
#     4  11  26  42  72 108 148 197 243 305 353 431
#     4  12  24  46  79 107 147 189 242 291 377 440
#
# _framework density 23.927477
#
# number of rings (size 3 to 8) (size 9 to 14) (size 15 to 20)
#    0.462    0.615    3.077    2.308    0.000    9.846 
#    0.000    0.769    3.385    0.000    0.000    0.000 
#    0.000    0.000    0.000    0.000    0.000    0.000 
#
# Total GULP energy -145755.924291 kJ/mol
# GULP energy per Si atom -5605.997088 kJ/mol
# Density = 2.387302 g / cm^3
# Si number density = 23.927477 Si / 1000 Ang^3
#
#
#
# Elastic Constant Matrix: (Units=GPa)
#
#
# Indices 1 2 3 4 5 6 
#
# 1 166.2154 56.2714 41.2937 0.0000 7.7484 0.0000
# 2 56.2714 110.1890 17.2661 0.0000 2.7754 0.0000
# 3 41.2937 17.2661 68.9947 0.0000 -12.9032 0.0000
# 4 0.0000 0.0000 0.0000 25.5469 0.0000 0.4672
# 5 7.7484 2.7754 -12.9032 0.0000 46.8814 0.0000
# 6 0.0000 0.0000 0.0000 0.4672 0.0000 47.8987
#
#
#
# Elastic Compliance Matrix: (Units=1/GPa)
#
#
# Indices 1 2 3 4 5 6 
#
# 1 0.008488 -0.003543 -0.004656 0.000000 -0.002475 0.000000
# 2 -0.003543 0.010997 -0.000679 0.000000 -0.000252 0.000000
# 3 -0.004656 -0.000679 0.018557 0.000000 0.005917 0.000000
# 4 0.000000 0.000000 0.000000 0.039151 0.000000 -0.000382
# 5 -0.002475 -0.000252 0.005917 0.000000 0.023383 0.000000
# 6 0.000000 0.000000 0.000000 -0.000382 0.000000 0.020881
#
#
# Mechanical properties :
#
#
# Convention : Reuss Voigt Hill
#
# Bulk Modulus (GPa) = 49.29391 63.89572 56.59482
# Shear Modulus (GPa) = 34.25250 39.43660 36.84455
#
# Velocity S-wave (km/s) = 3.78764 4.06417 3.92834
# Velocity P-wave (km/s) = 6.30669 6.98464 6.65431
#
# Compressibility (1/GPa) = 0.02028648
#
# Stress axis : x y z
#
# Youngs Moduli (GPa) = 117.81704 90.93220 53.88747
#
# Poissons Ratio (x) = 0.32214 0.25091
# Poissons Ratio (y) = 0.41738 0.03659
# Poissons Ratio (z) = 0.54858 0.06175
#
# Static dielectric constant tensor:
#      x y z
#    x 1.920300 0.000000 -0.008180 
#    y 0.000000 1.903190 0.000000 
#    z -0.008180 0.000000 1.883920 
# 
# From -- ./inp_files/43393.got.cif
#   From: 2010.05.17/outbox.cif.g08.bks.cpg/sg15_22_cif.got.tgz:43393.got - 2010.06.03 18:47:42.
