data_PCOD9297825
_publ_section_title
;
Structure prediction by ZEFSAII (Michael W. Deem and Ramdas Pophale) SiO2 
 PCOD9297825
Probable space group: C 2/C
;
_chemical_formula_sum "Si O2"
_cell_formula_units_Z 44
_cell_length_a 22.179742
_cell_length_b 8.806412
_cell_length_c 13.916911
_cell_angle_alpha 90.000000
_cell_angle_beta 135.448070
_cell_angle_gamma 90.000000
_cell_volume 1907.042318
_symmetry_space_group_name_H-M "C 2/C"
_symmetry_group_IT_number 15
_symmetry_cell_setting 'monoclinic'
loop_
_space_group_symop_operation_xyz
x,y,z
-x,y,1/2-z
-x,-y,-z
x,-y,1/2+z
1/2+x,1/2+y,z
1/2-x,1/2+y,1/2-z
1/2-x,1/2-y,-z
1/2+x,1/2-y,1/2+z
loop_
_atom_site_type_symbol
_atom_site_label
_atom_site_fract_x
_atom_site_fract_y
_atom_site_fract_z
Si Si1 0.290945 0.461520 0.917183
Si Si2 0.007015 0.060533 0.898602
Si Si3 0.221056 0.715669 0.182821
Si Si4 0.837167 0.894712 0.651282
Si Si5 0.000000 0.331086 0.750000
Si Si6 0.904927 0.624318 0.611561
O O1 0.238491 0.323691 0.812450
O O2 0.262796 0.611018 0.826379
O O3 0.393297 0.455395 0.015594
O O4 0.284047 0.493862 0.021743
O O5 0.932646 0.960093 0.766611
O O6 0.987929 0.227898 0.831541
O O7 0.000000 0.000000 0.000000
O O8 0.291865 0.623160 0.201558
O O9 0.129378 0.664174 0.034018
O O10 0.844816 0.729807 0.609322
O O11 0.918591 0.444555 0.642386
O O12 0.000000 0.677709 0.750000
#
# Coordination Sequence:
#
# PCOD9297825 Si02
#       6
#     8   8   8   8   4   8
#     4  11  23  41  64  92 133 166 210 263 320 376
#     4  12  23  42  66  95 126 173 211 262 321 391
#     4  11  24  40  65  99 125 171 214 262 322 381
#     4  11  21  44  68  89 130 171 212 259 329 380
#     4  10  24  42  68  90 126 164 218 262 310 376
#     4   9  21  41  67  90 123 167 210 264 315 370
#
# _framework density 23.072379000000002
#
# number of rings (size 3 to 8) (size 9 to 14) (size 15 to 20)
#    0.545    0.727    3.636    4.364    2.545    0.000 
#    6.545    2.727    0.000    0.000    0.000    0.000 
#    0.000    0.000    0.000    0.000    0.000    0.000 
#
# Total GULP energy -122649.508836 kJ/mol
# GULP energy per Si atom -5574.977674 kJ/mol
# Density = 2.301987 g / cm^3
# Si number density = 23.072379 Si / 1000 Ang^3
#
#
#
# Elastic Constant Matrix: (Units=GPa)
#
#
# Indices 1 2 3 4 5 6 
#
# 1 39.4145 -2.4449 9.8811 0.0000 4.5380 0.0000
# 2 -2.4449 70.1825 14.5393 0.0000 -17.0361 0.0000
# 3 9.8811 14.5393 109.6961 0.0000 -1.1877 0.0000
# 4 0.0000 0.0000 0.0000 47.8778 0.0000 2.1139
# 5 4.5380 -17.0361 -1.1877 0.0000 43.3947 0.0000
# 6 0.0000 0.0000 0.0000 2.1139 0.0000 23.8545
#
#
#
# Elastic Compliance Matrix: (Units=1/GPa)
#
#
# Indices 1 2 3 4 5 6 
#
# 1 0.026340 0.000831 -0.002510 0.000000 -0.002497 0.000000
# 2 0.000831 0.016237 -0.002160 0.000000 0.006228 0.000000
# 3 -0.002510 -0.002160 0.009625 0.000000 -0.000322 0.000000
# 4 0.000000 0.000000 0.000000 0.020969 0.000000 -0.001858
# 5 -0.002497 0.006228 -0.000322 0.000000 0.025742 0.000000
# 6 0.000000 0.000000 0.000000 -0.001858 0.000000 0.042086
#
#
# Mechanical properties :
#
#
# Convention : Reuss Voigt Hill
#
# Bulk Modulus (GPa) = 22.45904 29.24936 25.85420
# Shear Modulus (GPa) = 30.57831 36.17990 33.37910
#
# Velocity S-wave (km/s) = 3.64445 3.96423 3.80769
# Velocity P-wave (km/s) = 5.24067 5.80157 5.52824
#
# Compressibility (1/GPa) = 0.04452550
#
# Stress axis : x y z
#
# Youngs Moduli (GPa) = 37.96564 61.58871 103.89707
#
# Poissons Ratio (x) = -0.05121 0.26076
# Poissons Ratio (y) = -0.03157 0.22437
# Poissons Ratio (z) = 0.09529 0.13300
#
# Static dielectric constant tensor:
#      x y z
#    x 1.863160 0.000000 0.004000 
#    y 0.000000 1.892460 0.000000 
#    z 0.004000 0.000000 1.907150 
# 
# From -- ./inp_files/176758.got.cif
#   From: 2010.05.17/outbox.cif.g08.bks.cpg/sg15_89_cif.got.tgz:176758.got - 2010.06.03 18:47:42.
