data_PCOD9297708
_publ_section_title
;
Structure prediction by ZEFSAII (Michael W. Deem and Ramdas Pophale) SiO2 
 PCOD9297708
Probable space group: C 2/C
;
_chemical_formula_sum "Si O2"
_cell_formula_units_Z 44
_cell_length_a 6.451326
_cell_length_b 13.493685
_cell_length_c 25.619239
_cell_angle_alpha 90.000000
_cell_angle_beta 63.538164
_cell_angle_gamma 90.000000
_cell_volume 1996.554056
_symmetry_space_group_name_H-M "C 2/C"
_symmetry_group_IT_number 15
_symmetry_cell_setting 'monoclinic'
loop_
_space_group_symop_operation_xyz
x,y,z
-x,y,1/2-z
-x,-y,-z
x,-y,1/2+z
1/2+x,1/2+y,z
1/2-x,1/2+y,1/2-z
1/2-x,1/2-y,-z
1/2+x,1/2-y,1/2+z
loop_
_atom_site_type_symbol
_atom_site_label
_atom_site_fract_x
_atom_site_fract_y
_atom_site_fract_z
Si Si1 0.354466 0.812393 0.658513
Si Si2 0.015744 0.247161 0.957229
Si Si3 0.176311 0.493555 0.592804
Si Si4 0.500000 0.271814 0.250000
Si Si5 0.985835 0.659971 0.690607
Si Si6 0.816805 0.088572 0.477868
O O1 0.481190 0.735886 0.605252
O O2 0.475914 0.915238 0.630325
O O3 0.409314 0.791956 0.712116
O O4 0.093350 0.772280 0.677460
O O5 0.112316 0.161931 0.982934
O O6 0.168519 0.343791 0.955441
O O7 0.750000 0.250000 0.000000
O O8 0.115580 0.587674 0.635992
O O9 0.175559 0.511120 0.529849
O O10 0.441748 0.454332 0.572301
O O11 0.716970 0.335626 0.206550
O O12 0.000000 0.627465 0.750000
#
# Coordination Sequence:
#
# PCOD9297708 Si02
#       6
#     8   8   8   4   8   8
#     4  11  24  43  69  97 133 180 224 274 344 401
#     4  11  22  42  66  96 141 184 216 273 349 409
#     4  11  23  43  69 105 135 178 221 289 343 416
#     4  10  26  48  70  92 132 182 228 282 338 406
#     4  10  24  49  65  95 137 178 226 287 347 402
#     4  10  24  42  65 104 142 171 227 280 344 421
#
# _framework density 22.037969
#
# number of rings (size 3 to 8) (size 9 to 14) (size 15 to 20)
#    0.000    1.455    3.636    0.000    6.364    0.727 
#   11.455    0.000    0.000    0.000    0.000    0.000 
#    0.000    0.000    0.000    0.000    0.000    0.000 
#
# Total GULP energy -122538.073086 kJ/mol
# GULP energy per Si atom -5569.912413 kJ/mol
# Density = 2.198781 g / cm^3
# Si number density = 22.037969 Si / 1000 Ang^3
#
#
#
# Elastic Constant Matrix: (Units=GPa)
#
#
# Indices 1 2 3 4 5 6 
#
# 1 79.7054 46.2137 42.1092 0.0000 -18.0087 0.0000
# 2 46.2137 101.9443 36.6093 0.0000 -19.3793 0.0000
# 3 42.1092 36.6093 127.7967 0.0000 -19.8586 0.0000
# 4 0.0000 0.0000 0.0000 45.8611 0.0000 -15.2988
# 5 -18.0087 -19.3793 -19.8586 0.0000 40.2051 0.0000
# 6 0.0000 0.0000 0.0000 -15.2988 0.0000 37.8378
#
#
#
# Elastic Compliance Matrix: (Units=1/GPa)
#
#
# Indices 1 2 3 4 5 6 
#
# 1 0.019258 -0.006669 -0.003893 0.000000 0.003489 0.000000
# 2 -0.006669 0.013882 -0.001304 0.000000 0.003060 0.000000
# 3 -0.003893 -0.001304 0.009870 0.000000 0.002503 0.000000
# 4 0.000000 0.000000 0.000000 0.025205 0.000000 0.010191
# 5 0.003489 0.003060 0.002503 0.000000 0.029146 0.000000
# 6 0.000000 0.000000 0.000000 0.010191 0.000000 0.030549
#
#
# Mechanical properties :
#
#
# Convention : Reuss Voigt Hill
#
# Bulk Modulus (GPa) = 51.87005 62.14563 57.00784
# Shear Modulus (GPa) = 31.63198 37.08175 34.35687
#
# Velocity S-wave (km/s) = 3.79270 4.10644 3.95268
# Velocity P-wave (km/s) = 6.53966 7.12351 6.83782
#
# Compressibility (1/GPa) = 0.01927895
#
# Stress axis : x y z
#
# Youngs Moduli (GPa) = 51.92724 72.03371 101.31584
#
# Poissons Ratio (x) = 0.48038 0.39442
# Poissons Ratio (y) = 0.34629 0.13211
# Poissons Ratio (z) = 0.20215 0.09392
#
# Static dielectric constant tensor:
#      x y z
#    x 1.838140 0.000000 -0.041130 
#    y 0.000000 1.948120 0.000000 
#    z -0.041130 0.000000 1.860610 
# 
# From -- ./inp_files/285405.got.cif
#   From: 2010.05.17/outbox.cif.g08.bks.cpg/sg15_143_cif.got.tgz:285405.got - 2010.06.03 18:47:42.
