data_PCOD9297217
_publ_section_title
;
Structure prediction by ZEFSAII (Michael W. Deem and Ramdas Pophale) SiO2 
 PCOD9297217
Probable space group: C 2/C
;
_chemical_formula_sum "Si O2"
_cell_formula_units_Z 52
_cell_length_a 21.474642
_cell_length_b 14.809956
_cell_length_c 8.872502
_cell_angle_alpha 90.000000
_cell_angle_beta 61.517526
_cell_angle_gamma 90.000000
_cell_volume 2480.255460
_symmetry_space_group_name_H-M "C 2/C"
_symmetry_group_IT_number 15
_symmetry_cell_setting 'monoclinic'
loop_
_space_group_symop_operation_xyz
x,y,z
-x,y,1/2-z
-x,-y,-z
x,-y,1/2+z
1/2+x,1/2+y,z
1/2-x,1/2+y,1/2-z
1/2-x,1/2-y,-z
1/2+x,1/2-y,1/2+z
loop_
_atom_site_type_symbol
_atom_site_label
_atom_site_fract_x
_atom_site_fract_y
_atom_site_fract_z
Si Si1 0.694030 0.620577 0.732844
Si Si2 0.944274 0.785688 0.205153
Si Si3 0.578919 0.186111 0.974767
Si Si4 0.738925 0.443471 0.848103
Si Si5 0.403041 0.973216 0.603248
Si Si6 0.500000 0.975669 0.250000
Si Si7 0.213516 0.234929 0.202135
O O1 0.613586 0.656571 0.813537
O O2 0.706547 0.539253 0.835616
O O3 0.717189 0.584931 0.541313
O O4 0.743550 0.703015 0.728505
O O5 0.904683 0.722001 0.374186
O O6 0.000000 0.839674 0.250000
O O7 0.998900 0.723677 0.048197
O O8 0.592982 0.080138 0.942017
O O9 0.632794 0.232492 0.798446
O O10 0.823879 0.448450 0.733011
O O11 0.715219 0.366990 0.758206
O O12 0.454272 0.966166 0.686699
O O13 0.440668 0.925715 0.417484
O O14 0.250000 0.250000 0.000000
#
# Coordination Sequence:
#
# PCOD9297217 Si02
#       7
#     8   8   8   8   8   4   8
#     4  12  24  46  70 104 140 187 234 294 355 415
#     4   8  20  42  71  97 131 190 236 282 345 415
#     4   9  20  43  67  95 135 175 236 279 347 408
#     4  12  25  40  73 103 139 181 240 294 354 416
#     4  11  22  40  62  98 135 179 223 287 339 429
#     4  10  24  36  56  92 136 176 222 270 356 408
#     4  12  26  44  68 104 141 184 237 294 354 420
#
# _framework density 20.965582999999999
#
# number of rings (size 3 to 8) (size 9 to 14) (size 15 to 20)
#    0.923    0.308    3.077    3.231    2.154    2.462 
#    0.000    3.077    0.000    0.000    0.000    0.000 
#    0.000    0.000    0.000    0.000    0.000    0.000 
#
# Total GULP energy -145117.175536 kJ/mol
# GULP energy per Si atom -5581.429828 kJ/mol
# Density = 2.091786 g / cm^3
# Si number density = 20.965583 Si / 1000 Ang^3
#
#
#
# Elastic Constant Matrix: (Units=GPa)
#
#
# Indices 1 2 3 4 5 6 
#
# 1 76.0197 22.4939 34.5554 0.0000 -13.3870 0.0000
# 2 22.4939 62.6734 0.3274 0.0000 -10.9737 0.0000
# 3 34.5554 0.3274 121.9714 0.0000 -23.5921 0.0000
# 4 0.0000 0.0000 0.0000 27.3271 0.0000 2.8715
# 5 -13.3870 -10.9737 -23.5921 0.0000 33.9632 0.0000
# 6 0.0000 0.0000 0.0000 2.8715 0.0000 32.8664
#
#
#
# Elastic Compliance Matrix: (Units=1/GPa)
#
#
# Indices 1 2 3 4 5 6 
#
# 1 0.017260 -0.005863 -0.004534 0.000000 0.001760 0.000000
# 2 -0.005863 0.019050 0.002719 0.000000 0.005733 0.000000
# 3 -0.004534 0.002719 0.010744 0.000000 0.006554 0.000000
# 4 0.000000 0.000000 0.000000 0.036933 0.000000 -0.003227
# 5 0.001760 0.005733 0.006554 0.000000 0.036542 0.000000
# 6 0.000000 0.000000 0.000000 -0.003227 0.000000 0.030708
#
#
# Mechanical properties :
#
#
# Convention : Reuss Voigt Hill
#
# Bulk Modulus (GPa) = 31.54881 41.71309 36.63095
# Shear Modulus (GPa) = 28.22338 32.38385 30.30362
#
# Velocity S-wave (km/s) = 3.67301 3.93443 3.80596
# Velocity P-wave (km/s) = 5.75053 6.37015 6.06825
#
# Compressibility (1/GPa) = 0.03169692
#
# Stress axis : x y z
#
# Youngs Moduli (GPa) = 57.93726 52.49479 93.07910
#
# Poissons Ratio (x) = 0.30778 0.42200
# Poissons Ratio (y) = 0.33968 -0.25305
# Poissons Ratio (z) = 0.26268 -0.14272
#
# Static dielectric constant tensor:
#      x y z
#    x 1.782800 0.000000 0.006530 
#    y 0.000000 1.757490 0.000000 
#    z 0.006530 0.000000 1.800780 
# 
# From -- ./inp_files/61427.got.cif
#   From: 2010.05.17/outbox.cif.g08.bks.cpg/sg15_31_cif.got.tgz:61427.got - 2010.06.03 18:47:42.
