data_PCOD9297587
_publ_section_title
;
Structure prediction by ZEFSAII (Michael W. Deem and Ramdas Pophale) SiO2 
 PCOD9297587
Probable space group: C 2/C
;
_chemical_formula_sum "Si O2"
_cell_formula_units_Z 40
_cell_length_a 24.281872
_cell_length_b 13.796657
_cell_length_c 7.460420
_cell_angle_alpha 90.000000
_cell_angle_beta 143.363929
_cell_angle_gamma 90.000000
_cell_volume 1491.410895
_symmetry_space_group_name_H-M "C 2/C"
_symmetry_group_IT_number 15
_symmetry_cell_setting 'monoclinic'
loop_
_space_group_symop_operation_xyz
x,y,z
-x,y,1/2-z
-x,-y,-z
x,-y,1/2+z
1/2+x,1/2+y,z
1/2-x,1/2+y,1/2-z
1/2-x,1/2-y,-z
1/2+x,1/2-y,1/2+z
loop_
_atom_site_type_symbol
_atom_site_label
_atom_site_fract_x
_atom_site_fract_y
_atom_site_fract_z
Si Si1 0.364028 0.586417 0.453949
Si Si2 0.072577 0.585943 0.672122
Si Si3 0.500000 0.241929 0.250000
Si Si4 0.781583 0.478114 0.229157
Si Si5 0.799880 0.851952 0.152577
Si Si6 0.500000 0.580554 0.250000
O O1 0.414541 0.686709 0.562488
O O2 0.298393 0.587612 0.458262
O O3 0.438670 0.502696 0.692039
O O4 0.305334 0.565304 0.126661
O O5 0.017989 0.683335 0.480304
O O6 0.138935 0.581730 0.672814
O O7 0.000000 0.500000 0.500000
O O8 0.140726 0.566404 0.014132
O O9 0.755378 0.581660 0.848408
O O10 0.911245 0.852303 0.471795
O O11 0.750000 0.750000 0.000000
#
# Coordination Sequence:
#
# PCOD9297587 Si02
#       6
#     8   8   4   8   8   4
#     4   9  24  42  63  99 134 180 233 287 355 415
#     4  12  23  43  71  98 139 190 234 295 359 423
#     4  11  24  40  67 100 138 180 239 288 354 427
#     4  10  24  43  66 101 136 181 242 284 362 420
#     4  10  24  41  67 102 134 180 238 285 346 421
#     4  11  20  46  71  92 142 188 229 290 356 421
#
# _framework density 26.820240999999999
#
# number of rings (size 3 to 8) (size 9 to 14) (size 15 to 20)
#    1.200    0.400    2.000    1.800    2.800    4.000 
#    0.000    0.000    0.000    0.000    0.000    0.000 
#    0.000    0.000    0.000    0.000    0.000    0.000 
#
# Total GULP energy -111359.677704 kJ/mol
# GULP energy per Si atom -5567.983885 kJ/mol
# Density = 2.675920 g / cm^3
# Si number density = 26.820241 Si / 1000 Ang^3
#
#
#
# Elastic Constant Matrix: (Units=GPa)
#
#
# Indices 1 2 3 4 5 6 
#
# 1 145.4604 59.0189 35.0574 0.0000 14.2822 0.0000
# 2 59.0189 221.7677 113.2691 0.0000 5.7388 0.0000
# 3 35.0574 113.2691 246.0457 0.0000 23.4019 0.0000
# 4 0.0000 0.0000 0.0000 63.5280 0.0000 3.9777
# 5 14.2822 5.7388 23.4019 0.0000 63.7371 0.0000
# 6 0.0000 0.0000 0.0000 3.9777 0.0000 52.4604
#
#
#
# Elastic Compliance Matrix: (Units=1/GPa)
#
#
# Indices 1 2 3 4 5 6 
#
# 1 0.007862 -0.002034 -0.000035 0.000000 -0.001566 0.000000
# 2 -0.002034 0.006436 -0.002758 0.000000 0.000889 0.000000
# 3 -0.000035 -0.002758 0.005507 0.000000 -0.001766 0.000000
# 4 0.000000 0.000000 0.000000 0.015816 0.000000 -0.001199
# 5 -0.001566 0.000889 -0.001766 0.000000 0.016609 0.000000
# 6 0.000000 0.000000 0.000000 -0.001199 0.000000 0.019153
#
#
# Mechanical properties :
#
#
# Convention : Reuss Voigt Hill
#
# Bulk Modulus (GPa) = 98.50464 114.21826 106.36145
# Shear Modulus (GPa) = 59.22805 63.00698 61.11751
#
# Velocity S-wave (km/s) = 4.70439 4.85215 4.77884
# Velocity P-wave (km/s) = 8.14345 8.60640 8.37813
#
# Compressibility (1/GPa) = 0.01015181
#
# Stress axis : x y z
#
# Youngs Moduli (GPa) = 127.19166 155.37658 181.59766
#
# Poissons Ratio (x) = 0.31603 0.00634
# Poissons Ratio (y) = 0.25871 0.50077
# Poissons Ratio (z) = 0.00444 0.42846
#
# Static dielectric constant tensor:
#      x y z
#    x 2.201850 0.000000 -0.054520 
#    y 0.000000 2.142610 0.000000 
#    z -0.054520 0.000000 2.235990 
# 
# From -- ./inp_files/70059.got.cif
#   From: 2010.05.17/outbox.cif.g08.bks.cpg/sg15_36_cif.got.tgz:70059.got - 2010.06.03 18:47:42.
