data_PCOD9297155
_publ_section_title
;
Structure prediction by ZEFSAII (Michael W. Deem and Ramdas Pophale) SiO2 
 PCOD9297155
Probable space group: C 2/C
;
_chemical_formula_sum "Si O2"
_cell_formula_units_Z 36
_cell_length_a 7.128065
_cell_length_b 20.732881
_cell_length_c 11.745372
_cell_angle_alpha 90.000000
_cell_angle_beta 86.024699
_cell_angle_gamma 90.000000
_cell_volume 1731.617329
_symmetry_space_group_name_H-M "C 2/C"
_symmetry_group_IT_number 15
_symmetry_cell_setting 'monoclinic'
loop_
_space_group_symop_operation_xyz
x,y,z
-x,y,1/2-z
-x,-y,-z
x,-y,1/2+z
1/2+x,1/2+y,z
1/2-x,1/2+y,1/2-z
1/2-x,1/2-y,-z
1/2+x,1/2-y,1/2+z
loop_
_atom_site_type_symbol
_atom_site_label
_atom_site_fract_x
_atom_site_fract_y
_atom_site_fract_z
Si Si1 0.000000 0.460498 0.250000
Si Si2 0.000000 0.871534 0.750000
Si Si3 0.639358 0.084746 0.148116
Si Si4 0.820450 0.644072 0.604107
Si Si5 0.349441 0.749154 0.376963
Si Si6 0.500000 0.298508 0.250000
O O1 0.078111 0.509857 0.151210
O O2 0.142530 0.413644 0.308322
O O3 0.840856 0.912845 0.698393
O O4 0.924381 0.821592 0.846783
O O5 0.500000 0.115489 0.250000
O O6 0.645090 0.119813 0.026557
O O7 0.606769 0.665586 0.640683
O O8 0.977573 0.699608 0.624035
O O9 0.250000 0.750000 0.500000
O O10 0.181330 0.763573 0.295396
#
# Coordination Sequence:
#
# PCOD9297155 Si02
#       6
#     4   4   8   8   8   4
#     4  10  23  49  70 100 136 182 244 290 340 406
#     4  12  23  45  60 110 132 172 236 262 368 408
#     4  10  26  42  72  97 140 181 229 294 337 412
#     4  12  23  49  69 106 136 188 235 284 358 410
#     4  12  26  41  72 100 142 178 229 290 344 426
#     4  12  24  42  70 104 140 184 216 294 342 426
#
# _framework density 20.789814
#
# number of rings (size 3 to 8) (size 9 to 14) (size 15 to 20)
#    0.667    0.000    4.444    3.333    4.667    2.667 
#    0.000    2.222    0.000    0.000    0.000    0.000 
#    0.000    0.000    0.000    0.000    0.000    0.000 
#
# Total GULP energy -100352.101519 kJ/mol
# GULP energy per Si atom -5575.116751 kJ/mol
# Density = 2.074250 g / cm^3
# Si number density = 20.789814 Si / 1000 Ang^3
#
#
#
# Elastic Constant Matrix: (Units=GPa)
#
#
# Indices 1 2 3 4 5 6 
#
# 1 113.9256 16.8039 5.4588 0.0000 -7.1129 0.0000
# 2 16.8039 42.2103 -28.2709 0.0000 -8.6121 0.0000
# 3 5.4588 -28.2709 91.1703 0.0000 -19.9382 0.0000
# 4 0.0000 0.0000 0.0000 28.8168 0.0000 -8.6419
# 5 -7.1129 -8.6121 -19.9382 0.0000 43.3728 0.0000
# 6 0.0000 0.0000 0.0000 -8.6419 0.0000 28.8743
#
#
#
# Elastic Compliance Matrix: (Units=1/GPa)
#
#
# Indices 1 2 3 4 5 6 
#
# 1 0.009689 -0.005657 -0.002482 0.000000 -0.000675 0.000000
# 2 -0.005657 0.039232 0.015570 0.000000 0.014020 0.000000
# 3 -0.002482 0.015570 0.018380 0.000000 0.011134 0.000000
# 4 0.000000 0.000000 0.000000 0.038124 0.000000 0.011410
# 5 -0.000675 0.014020 0.011134 0.000000 0.030847 0.000000
# 6 0.000000 0.000000 0.000000 0.011410 0.000000 0.038048
#
#
# Mechanical properties :
#
#
# Convention : Reuss Voigt Hill
#
# Bulk Modulus (GPa) = 12.17111 26.14330 19.15721
# Shear Modulus (GPa) = 26.76005 37.10039 31.93022
#
# Velocity S-wave (km/s) = 3.59161 4.22897 3.92326
# Velocity P-wave (km/s) = 4.80277 6.03721 5.45502
#
# Compressibility (1/GPa) = 0.08216175
#
# Stress axis : x y z
#
# Youngs Moduli (GPa) = 103.21113 25.48957 54.40675
#
# Poissons Ratio (x) = 0.14420 0.13504
# Poissons Ratio (y) = 0.58390 -0.84712
# Poissons Ratio (z) = 0.25618 -0.39687
#
# Static dielectric constant tensor:
#      x y z
#    x 1.713970 0.000000 -0.019100 
#    y 0.000000 1.754120 0.000000 
#    z -0.019100 0.000000 1.774440 
# 
# From -- ./inp_files/72519.got.cif
#   From: 2010.05.17/outbox.cif.g08.bks.cpg/sg15_37_cif.got.tgz:72519.got - 2010.06.03 18:47:42.
