data_PCOD9297730
_publ_section_title
;
Structure prediction by ZEFSAII (Michael W. Deem and Ramdas Pophale) SiO2 
 PCOD9297730
Probable space group: C 2/C
;
_chemical_formula_sum "Si O2"
_cell_formula_units_Z 56
_cell_length_a 19.977910
_cell_length_b 11.759854
_cell_length_c 20.077060
_cell_angle_alpha 90.000000
_cell_angle_beta 34.012267
_cell_angle_gamma 90.000000
_cell_volume 2638.466415
_symmetry_space_group_name_H-M "C 2/C"
_symmetry_group_IT_number 15
_symmetry_cell_setting 'monoclinic'
loop_
_space_group_symop_operation_xyz
x,y,z
-x,y,1/2-z
-x,-y,-z
x,-y,1/2+z
1/2+x,1/2+y,z
1/2-x,1/2+y,1/2-z
1/2-x,1/2-y,-z
1/2+x,1/2-y,1/2+z
loop_
_atom_site_type_symbol
_atom_site_label
_atom_site_fract_x
_atom_site_fract_y
_atom_site_fract_z
Si Si1 0.000000 0.000000 0.500000
Si Si2 0.929112 0.136026 0.166610
Si Si3 0.838234 0.582432 0.150295
Si Si4 0.523941 0.282349 0.391420
Si Si5 0.500000 0.997284 0.750000
Si Si6 0.894213 0.948607 0.288736
Si Si7 0.477702 0.098491 0.620242
Si Si8 0.328949 0.150161 0.463525
O O1 0.968492 0.069189 0.457482
O O2 0.026437 0.125142 0.515347
O O3 0.804589 0.089839 0.236939
O O4 0.942737 0.269406 0.150801
O O5 0.921675 0.077557 0.244547
O O6 0.889419 0.694940 0.142911
O O7 0.878990 0.476245 0.162115
O O8 0.904842 0.579050 0.023390
O O9 0.596730 0.360752 0.279880
O O10 0.425901 0.204989 0.433927
O O11 0.610894 0.913830 0.647541
O O12 0.491267 0.061034 0.686180
O O13 0.763374 0.935236 0.426040
O O14 0.000000 0.910737 0.250000
O O15 0.250000 0.250000 0.500000
#
# Coordination Sequence:
#
# PCOD9297730 Si02
#       8
#     4   8   8   8   4   8   8   8
#     4  10  24  42  66 100 136 174 230 286 354 412
#     4  11  26  43  69  99 137 187 229 288 358 419
#     4  11  25  46  73  99 138 184 239 294 350 416
#     4  11  23  43  70 102 137 178 236 290 348 417
#     4  12  26  48  68 110 134 196 238 280 360 422
#     4  11  25  45  66 103 141 184 228 293 351 418
#     4  11  26  47  69  99 144 180 235 293 346 430
#     4  12  24  44  71 100 141 181 237 287 345 414
#
# _framework density 21.224450000000001
#
# number of rings (size 3 to 8) (size 9 to 14) (size 15 to 20)
#    0.000    0.857    4.286    1.714    9.000    0.000 
#    2.571    1.429    0.000    0.000    0.000    0.000 
#    0.000    0.000    0.000    0.000    0.000    0.000 
#
# Total GULP energy -155874.824493 kJ/mol
# GULP energy per Si atom -5566.958018 kJ/mol
# Density = 2.117614 g / cm^3
# Si number density = 21.224450 Si / 1000 Ang^3
#
#
#
# Elastic Constant Matrix: (Units=GPa)
#
#
# Indices 1 2 3 4 5 6 
#
# 1 66.0663 22.0573 -0.6942 0.0000 15.3618 0.0000
# 2 22.0573 149.9897 18.2165 0.0000 20.9125 0.0000
# 3 -0.6942 18.2165 67.4200 0.0000 25.5714 0.0000
# 4 0.0000 0.0000 0.0000 16.1597 0.0000 11.2874
# 5 15.3618 20.9125 25.5714 0.0000 29.5668 0.0000
# 6 0.0000 0.0000 0.0000 11.2874 0.0000 42.7537
#
#
#
# Elastic Compliance Matrix: (Units=1/GPa)
#
#
# Indices 1 2 3 4 5 6 
#
# 1 0.018926 -0.001572 0.005845 0.000000 -0.013776 0.000000
# 2 -0.001572 0.007527 -0.000507 0.000000 -0.004069 0.000000
# 3 0.005845 -0.000507 0.023878 0.000000 -0.023330 0.000000
# 4 0.000000 0.000000 0.000000 0.075874 0.000000 -0.020032
# 5 -0.013776 -0.004069 -0.023330 0.000000 0.064034 0.000000
# 6 0.000000 0.000000 0.000000 -0.020032 0.000000 0.028678
#
#
# Mechanical properties :
#
#
# Convention : Reuss Voigt Hill
#
# Bulk Modulus (GPa) = 17.28241 40.29282 28.78761
# Shear Modulus (GPa) = 21.67563 33.95580 27.81571
#
# Velocity S-wave (km/s) = 3.19918 4.00414 3.62408
# Velocity P-wave (km/s) = 4.66976 6.35633 5.57717
#
# Compressibility (1/GPa) = 0.05786230
#
# Stress axis : x y z
#
# Youngs Moduli (GPa) = 52.83771 132.85178 41.87945
#
# Poissons Ratio (x) = 0.20889 -0.24477
# Poissons Ratio (y) = 0.08308 0.02122
# Poissons Ratio (z) = -0.30882 0.06733
#
# Static dielectric constant tensor:
#      x y z
#    x 1.778770 0.000000 0.013860 
#    y 0.000000 1.769700 0.000000 
#    z 0.013860 0.000000 1.738480 
# 
# From -- ./inp_files/252365.got.cif
#   From: 2010.05.17/outbox.cif.g08.bks.cpg/sg15_127_cif.got.tgz:252365.got - 2010.06.03 18:47:42.
