data_PCOD9297313
_publ_section_title
;
Structure prediction by ZEFSAII (Michael W. Deem and Ramdas Pophale) SiO2 
 PCOD9297313
Probable space group: C 2/C
;
_chemical_formula_sum "Si O2"
_cell_formula_units_Z 44
_cell_length_a 14.991586
_cell_length_b 14.676749
_cell_length_c 12.890437
_cell_angle_alpha 90.000000
_cell_angle_beta 131.250521
_cell_angle_gamma 90.000000
_cell_volume 2132.391493
_symmetry_space_group_name_H-M "C 2/C"
_symmetry_group_IT_number 15
_symmetry_cell_setting 'monoclinic'
loop_
_space_group_symop_operation_xyz
x,y,z
-x,y,1/2-z
-x,-y,-z
x,-y,1/2+z
1/2+x,1/2+y,z
1/2-x,1/2+y,1/2-z
1/2-x,1/2-y,-z
1/2+x,1/2-y,1/2+z
loop_
_atom_site_type_symbol
_atom_site_label
_atom_site_fract_x
_atom_site_fract_y
_atom_site_fract_z
Si Si1 0.705550 0.520725 0.912515
Si Si2 0.910354 0.583712 0.919542
Si Si3 0.786358 0.359233 0.117624
Si Si4 0.000000 0.228416 0.250000
Si Si5 0.506536 0.437778 0.404482
Si Si6 0.452451 0.275207 0.495327
O O1 0.814660 0.571323 0.939428
O O2 0.596642 0.523077 0.748250
O O3 0.638419 0.564410 0.959085
O O4 0.743006 0.423188 0.989976
O O5 0.839947 0.583267 0.755387
O O6 0.000000 0.500000 0.000000
O O7 0.988776 0.676488 0.975698
O O8 0.685999 0.294041 0.089308
O O9 0.888702 0.294892 0.153771
O O10 0.990092 0.182207 0.354227
O O11 0.500000 0.500000 0.500000
O O12 0.478018 0.335569 0.415362
#
# Coordination Sequence:
#
# PCOD9297313 Si02
#       6
#     8   8   8   4   8   8
#     4  11  22  42  70  95 143 178 228 280 348 415
#     4  11  25  47  71 101 142 182 230 293 352 421
#     4  11  22  45  66 105 134 181 238 284 346 418
#     4  10  24  38  70  96 134 178 234 282 350 390
#     4  11  23  41  66 103 137 182 230 286 349 416
#     4  11  23  43  66 103 140 174 239 283 348 410
#
# _framework density 20.634108999999999
#
# number of rings (size 3 to 8) (size 9 to 14) (size 15 to 20)
#    0.000    1.091    3.636    2.727    2.545    0.727 
#    9.818    3.636    0.000    0.000    0.000    0.000 
#    0.000    0.000    0.000    0.000    0.000    0.000 
#
# Total GULP energy -122661.083034 kJ/mol
# GULP energy per Si atom -5575.503774 kJ/mol
# Density = 2.058714 g / cm^3
# Si number density = 20.634109 Si / 1000 Ang^3
#
#
#
# Elastic Constant Matrix: (Units=GPa)
#
#
# Indices 1 2 3 4 5 6 
#
# 1 151.3537 50.5148 37.8054 0.0000 7.4406 0.0000
# 2 50.5148 98.4699 49.7116 0.0000 8.3075 0.0000
# 3 37.8054 49.7116 94.8775 0.0000 3.3149 0.0000
# 4 0.0000 0.0000 0.0000 54.7999 0.0000 58.6780
# 5 7.4406 8.3075 3.3149 0.0000 32.8713 0.0000
# 6 0.0000 0.0000 0.0000 58.6780 0.0000 188.8240
#
#
#
# Elastic Compliance Matrix: (Units=1/GPa)
#
#
# Indices 1 2 3 4 5 6 
#
# 1 0.008135 -0.003373 -0.001445 0.000000 -0.000843 0.000000
# 2 -0.003373 0.015462 -0.006671 0.000000 -0.002471 0.000000
# 3 -0.001445 -0.006671 0.014592 0.000000 0.000541 0.000000
# 4 0.000000 0.000000 0.000000 0.027348 0.000000 -0.008499
# 5 -0.000843 -0.002471 0.000541 0.000000 0.031183 0.000000
# 6 0.000000 0.000000 0.000000 -0.008499 0.000000 0.007937
#
#
# Mechanical properties :
#
#
# Convention : Reuss Voigt Hill
#
# Bulk Modulus (GPa) = 65.73911 68.97386 67.35648
# Shear Modulus (GPa) = 37.67759 69.07698 53.37729
#
# Velocity S-wave (km/s) = 4.27779 5.79222 5.09162
# Velocity P-wave (km/s) = 7.50519 8.84492 8.20246
#
# Compressibility (1/GPa) = 0.01521165
#
# Stress axis : x y z
#
# Youngs Moduli (GPa) = 122.92479 64.67510 68.53009
#
# Poissons Ratio (x) = 0.21813 0.09902
# Poissons Ratio (y) = 0.41458 0.45717
# Poissons Ratio (z) = 0.17762 0.43146
#
# Static dielectric constant tensor:
#      x y z
#    x 1.814050 0.000000 -0.020710 
#    y 0.000000 1.751120 0.000000 
#    z -0.020710 0.000000 1.801140 
# 
# From -- ./inp_files/161121.got.cif
#   From: 2010.05.17/outbox.cif.g08.bks.cpg/sg15_81_cif.got.tgz:161121.got - 2010.06.03 18:47:42.
