data_PCOD9297048
_publ_section_title
;
Structure prediction by ZEFSAII (Michael W. Deem and Ramdas Pophale) SiO2 
 PCOD9297048
Probable space group: C 2/C
;
_chemical_formula_sum "Si O2"
_cell_formula_units_Z 28
_cell_length_a 21.878469
_cell_length_b 7.010390
_cell_length_c 10.057171
_cell_angle_alpha 90.000000
_cell_angle_beta 47.648486
_cell_angle_gamma 90.000000
_cell_volume 1139.972781
_symmetry_space_group_name_H-M "C 2/C"
_symmetry_group_IT_number 15
_symmetry_cell_setting 'monoclinic'
loop_
_space_group_symop_operation_xyz
x,y,z
-x,y,1/2-z
-x,-y,-z
x,-y,1/2+z
1/2+x,1/2+y,z
1/2-x,1/2+y,1/2-z
1/2-x,1/2-y,-z
1/2+x,1/2-y,1/2+z
loop_
_atom_site_type_symbol
_atom_site_label
_atom_site_fract_x
_atom_site_fract_y
_atom_site_fract_z
Si Si1 0.500000 0.393823 0.750000
Si Si2 0.917484 0.400778 0.172060
Si Si3 0.653913 0.392148 0.912258
Si Si4 0.754478 0.482136 0.515157
O O1 0.552934 0.265555 0.772821
O O2 0.565179 0.514249 0.570375
O O3 0.868163 0.310902 0.120099
O O4 0.851431 0.524635 0.351255
O O5 0.000000 0.500000 0.000000
O O6 0.707729 0.506253 0.723106
O O7 0.705106 0.409644 0.972321
O O8 0.750000 0.250000 0.500000
#
# Coordination Sequence:
#
# PCOD9297048 Si02
#       4
#     4   8   8   8
#     4  12  24  48  72 108 150 192 254 298 368 446
#     4  11  27  46  73 111 151 188 246 314 366 437
#     4  11  23  48  76 101 150 200 242 300 370 444
#     4  10  23  47  72 107 145 191 248 300 361 445
#
# _framework density 24.561992
#
# number of rings (size 3 to 8) (size 9 to 14) (size 15 to 20)
#    0.000    1.143    5.714    0.857    4.000    1.143 
#    5.143    7.143    0.000    0.000    0.000    0.000 
#    0.000    0.000    0.000    0.000    0.000    0.000 
#
# Total GULP energy -78422.028595 kJ/mol
# GULP energy per Si atom -5601.573471 kJ/mol
# Density = 2.450609 g / cm^3
# Si number density = 24.561992 Si / 1000 Ang^3
#
#
#
# Elastic Constant Matrix: (Units=GPa)
#
#
# Indices 1 2 3 4 5 6 
#
# 1 127.5504 18.1236 82.1589 0.0000 -9.5508 0.0000
# 2 18.1236 60.2079 50.9965 0.0000 -2.7586 0.0000
# 3 82.1589 50.9965 268.6853 0.0000 -29.9163 0.0000
# 4 0.0000 0.0000 0.0000 45.1539 0.0000 -8.3624
# 5 -9.5508 -2.7586 -29.9163 0.0000 61.2590 0.0000
# 6 0.0000 0.0000 0.0000 -8.3624 0.0000 43.9291
#
#
#
# Elastic Compliance Matrix: (Units=1/GPa)
#
#
# Indices 1 2 3 4 5 6 
#
# 1 0.009776 -0.000495 -0.002885 0.000000 0.000093 0.000000
# 2 -0.000495 0.019874 -0.003733 0.000000 -0.001005 0.000000
# 3 -0.002885 -0.003733 0.005545 0.000000 0.002090 0.000000
# 4 0.000000 0.000000 0.000000 0.022956 0.000000 0.004370
# 5 0.000093 -0.001005 0.002090 0.000000 0.017314 0.000000
# 6 0.000000 0.000000 0.000000 0.004370 0.000000 0.023596
#
#
# Mechanical properties :
#
#
# Convention : Reuss Voigt Hill
#
# Bulk Modulus (GPa) = 47.68803 84.33350 66.01076
# Shear Modulus (GPa) = 41.57157 50.41272 45.99215
#
# Velocity S-wave (km/s) = 4.11848 4.53533 4.33193
# Velocity P-wave (km/s) = 6.48640 7.86353 7.20793
#
# Compressibility (1/GPa) = 0.02096962
#
# Stress axis : x y z
#
# Youngs Moduli (GPa) = 102.29586 50.31809 180.33760
#
# Poissons Ratio (x) = 0.02490 0.52026
# Poissons Ratio (y) = 0.05062 0.67313
# Poissons Ratio (z) = 0.29512 0.18782
#
# Static dielectric constant tensor:
#      x y z
#    x 1.952260 0.000000 0.001830 
#    y 0.000000 2.065710 0.000000 
#    z 0.001830 0.000000 1.999150 
# 
# From -- ./inp_files/45402.got.cif
#   From: 2010.05.17/outbox.cif.g08.bks.cpg/sg15_23_cif.got.tgz:45402.got - 2010.06.03 18:47:42.
