data_PCOD9297741
_publ_section_title
;
Structure prediction by ZEFSAII (Michael W. Deem and Ramdas Pophale) SiO2 
 PCOD9297741
Probable space group: C 2/C
;
_chemical_formula_sum "Si O2"
_cell_formula_units_Z 28
_cell_length_a 12.648461
_cell_length_b 7.050514
_cell_length_c 15.724050
_cell_angle_alpha 90.000000
_cell_angle_beta 66.975226
_cell_angle_gamma 90.000000
_cell_volume 1290.533275
_symmetry_space_group_name_H-M "C 2/C"
_symmetry_group_IT_number 15
_symmetry_cell_setting 'monoclinic'
loop_
_space_group_symop_operation_xyz
x,y,z
-x,y,1/2-z
-x,-y,-z
x,-y,1/2+z
1/2+x,1/2+y,z
1/2-x,1/2+y,1/2-z
1/2-x,1/2-y,-z
1/2+x,1/2-y,1/2+z
loop_
_atom_site_type_symbol
_atom_site_label
_atom_site_fract_x
_atom_site_fract_y
_atom_site_fract_z
Si Si1 0.000000 0.921954 0.750000
Si Si2 0.241974 0.760003 0.644960
Si Si3 0.310139 0.951757 0.974632
Si Si4 0.474790 0.214233 0.164623
O O1 0.883251 0.806623 0.778905
O O2 0.014346 0.066471 0.665652
O O3 0.232728 0.564510 0.595591
O O4 0.342062 0.771169 0.682816
O O5 0.278258 0.917953 0.564176
O O6 0.445446 0.903709 0.923524
O O7 0.250000 0.750000 0.000000
O O8 0.500000 0.131234 0.250000
#
# Coordination Sequence:
#
# PCOD9297741 Si02
#       4
#     4   8   8   8
#     4  10  24  42  66 104 128 176 226 264 338 394
#     4  11  25  44  70  97 137 177 221 278 330 392
#     4  11  23  47  68 100 132 177 226 271 333 392
#     4  10  24  42  67 101 134 175 221 275 329 396
#
# _framework density 21.696458
#
# number of rings (size 3 to 8) (size 9 to 14) (size 15 to 20)
#    0.857    0.571    2.857    0.857    6.000    1.143 
#    5.143    0.000    0.000    0.000    0.000    0.000 
#    0.000    0.000    0.000    0.000    0.000    0.000 
#
# Total GULP energy -78168.635935 kJ/mol
# GULP energy per Si atom -5583.473995 kJ/mol
# Density = 2.164708 g / cm^3
# Si number density = 21.696458 Si / 1000 Ang^3
#
#
#
# Elastic Constant Matrix: (Units=GPa)
#
#
# Indices 1 2 3 4 5 6 
#
# 1 197.6168 42.2560 42.0106 0.0000 -16.6853 0.0000
# 2 42.2560 121.9504 30.3188 0.0000 -7.5919 0.0000
# 3 42.0106 30.3188 51.7769 0.0000 -13.7355 0.0000
# 4 0.0000 0.0000 0.0000 18.8466 0.0000 -11.4873
# 5 -16.6853 -7.5919 -13.7355 0.0000 37.3876 0.0000
# 6 0.0000 0.0000 0.0000 -11.4873 0.0000 6.0391
#
#
#
# Elastic Compliance Matrix: (Units=1/GPa)
#
#
# Indices 1 2 3 4 5 6 
#
# 1 0.006266 -0.001066 -0.004183 0.000000 0.001043 0.000000
# 2 -0.001066 0.009779 -0.004942 0.000000 -0.000306 0.000000
# 3 -0.004183 -0.004942 0.027522 0.000000 0.007241 0.000000
# 4 0.000000 0.000000 0.000000 -0.332893 0.000000 -0.633214
# 5 0.001043 -0.000306 0.007241 0.000000 0.029810 0.000000
# 6 0.000000 0.000000 0.000000 -0.633214 0.000000 -1.038882
#
#
# Mechanical properties :
#
#
# Convention : Reuss Voigt Hill
#
# Bulk Modulus (GPa) = 43.13218 66.72386 54.92802
# Shear Modulus (GPa) = -3.93612 29.57190 12.81789
#
# Velocity S-wave (km/s) = -1.34837 3.69587 2.43324
# Velocity P-wave (km/s) = 4.18316 7.00233 5.76765
#
# Compressibility (1/GPa) = 0.02318455
#
# Stress axis : x y z
#
# Youngs Moduli (GPa) = 159.60351 102.25762 36.33408
#
# Poissons Ratio (x) = 0.10903 0.15197
# Poissons Ratio (y) = 0.17017 0.17958
# Poissons Ratio (z) = 0.66757 0.50540
#
# Static dielectric constant tensor:
#      x y z
#    x 1.770260 0.000000 -0.008180 
#    y 0.000000 1.800860 0.000000 
#    z -0.008180 0.000000 1.809700 
# 
# From -- ./inp_files/235086.got.cif
#   From: 2010.05.17/outbox.cif.g08.bks.cpg/sg15_118_cif.got.tgz:235086.got - 2010.06.03 18:47:42.
