data_PCOD9297050
_publ_section_title
;
Structure prediction by ZEFSAII (Michael W. Deem and Ramdas Pophale) SiO2 
 PCOD9297050
Probable space group: C 2/C
;
_chemical_formula_sum "Si O2"
_cell_formula_units_Z 64
_cell_length_a 17.833515
_cell_length_b 22.400791
_cell_length_c 14.628221
_cell_angle_alpha 90.000000
_cell_angle_beta 152.972105
_cell_angle_gamma 90.000000
_cell_volume 2655.542821
_symmetry_space_group_name_H-M "C 2/C"
_symmetry_group_IT_number 15
_symmetry_cell_setting 'monoclinic'
loop_
_space_group_symop_operation_xyz
x,y,z
-x,y,1/2-z
-x,-y,-z
x,-y,1/2+z
1/2+x,1/2+y,z
1/2-x,1/2+y,1/2-z
1/2-x,1/2-y,-z
1/2+x,1/2-y,1/2+z
loop_
_atom_site_type_symbol
_atom_site_label
_atom_site_fract_x
_atom_site_fract_y
_atom_site_fract_z
Si Si1 0.443538 0.873453 0.444941
Si Si2 0.040411 0.460233 0.388463
Si Si3 0.191309 0.309408 0.486015
Si Si4 0.886816 0.172796 0.549577
Si Si5 0.650516 0.230174 0.144128
Si Si6 0.915655 0.867176 0.411061
Si Si7 0.871784 0.412930 0.686867
Si Si8 0.111338 0.927974 0.786420
O O1 0.482885 0.916111 0.403828
O O2 0.472802 0.803607 0.460359
O O3 0.270937 0.890066 0.302085
O O4 0.587306 0.887098 0.670626
O O5 0.238987 0.468256 0.594208
O O6 0.000000 0.429752 0.250000
O O7 0.921986 0.518058 0.256381
O O8 0.250000 0.250000 0.500000
O O9 0.214641 0.301068 0.621007
O O10 0.301689 0.367166 0.581474
O O11 0.000000 0.312572 0.250000
O O12 0.764204 0.217317 0.358042
O O13 0.800379 0.119605 0.514753
O O14 0.000000 0.204817 0.750000
O O15 0.986764 0.140242 0.576877
O O16 0.612316 0.299072 0.086219
O O17 0.001505 0.907122 0.581395
O O18 0.000000 0.391498 0.750000
O O19 0.000000 0.952543 0.750000
#
# Coordination Sequence:
#
# PCOD9297050 Si02
#       8
#     8   8   8   8   8   8   8   8
#     4  11  23  40  67  94 134 184 226 283 348 423
#     4  11  23  44  67  94 134 182 227 291 356 425
#     4  12  24  38  63  95 143 198 232 269 332 421
#     4  11  24  46  72 100 134 176 244 312 353 411
#     4  11  24  42  64  98 144 192 231 275 346 425
#     4  12  24  41  64  99 142 180 233 287 341 417
#     4  10  23  47  72  93 124 176 234 289 377 429
#     4  12  24  40  62 103 145 183 235 280 342 415
#
# _framework density 24.100535000000001
#
# number of rings (size 3 to 8) (size 9 to 14) (size 15 to 20)
#    0.000    0.750    2.500    5.625    3.500    0.500 
#    0.000   13.125    0.000    0.000    0.000    0.000 
#    0.000    0.000    0.000    0.000    0.000    0.000 
#
# Total GULP energy -178570.559352 kJ/mol
# GULP energy per Si atom -5580.329980 kJ/mol
# Density = 2.404568 g / cm^3
# Si number density = 24.100535 Si / 1000 Ang^3
#
#
#
# Elastic Constant Matrix: (Units=GPa)
#
#
# Indices 1 2 3 4 5 6 
#
# 1 80.2931 -10.9894 -5.2617 0.0000 2.9496 0.0000
# 2 -10.9894 49.1923 -13.8678 0.0000 8.7956 0.0000
# 3 -5.2617 -13.8678 94.1789 0.0000 -3.5436 0.0000
# 4 0.0000 0.0000 0.0000 11.8900 0.0000 7.4427
# 5 2.9496 8.7956 -3.5436 0.0000 45.4176 0.0000
# 6 0.0000 0.0000 0.0000 7.4427 0.0000 32.9438
#
#
#
# Elastic Compliance Matrix: (Units=1/GPa)
#
#
# Indices 1 2 3 4 5 6 
#
# 1 0.013066 0.003512 0.001193 0.000000 -0.001436 0.000000
# 2 0.003512 0.022855 0.003396 0.000000 -0.004389 0.000000
# 3 0.001193 0.003396 0.011190 0.000000 0.000138 0.000000
# 4 0.000000 0.000000 0.000000 0.097957 0.000000 -0.022131
# 5 -0.001436 -0.004389 0.000138 0.000000 0.022972 0.000000
# 6 0.000000 0.000000 0.000000 -0.022131 0.000000 0.035355
#
#
# Mechanical properties :
#
#
# Convention : Reuss Voigt Hill
#
# Bulk Modulus (GPa) = 15.79422 18.15848 16.97635
# Shear Modulus (GPa) = 24.00424 34.96916 29.48670
#
# Velocity S-wave (km/s) = 3.15938 3.81329 3.50163
# Velocity P-wave (km/s) = 4.45832 5.19029 4.83817
#
# Compressibility (1/GPa) = 0.06331431
#
# Stress axis : x y z
#
# Youngs Moduli (GPa) = 76.53480 43.75366 89.36493
#
# Poissons Ratio (x) = -0.15366 -0.10662
# Poissons Ratio (y) = -0.26878 -0.30353
# Poissons Ratio (z) = -0.09131 -0.14861
#
# Static dielectric constant tensor:
#      x y z
#    x 1.934060 0.000000 0.078290 
#    y 0.000000 2.023460 0.000000 
#    z 0.078290 0.000000 2.019210 
# 
# From -- ./inp_files/164278.got.cif
#   From: 2010.05.17/outbox.cif.g08.bks.cpg/sg15_83_cif.got.tgz:164278.got - 2010.06.03 18:47:42.
