data_PCOD9297797
_publ_section_title
;
Structure prediction by ZEFSAII (Michael W. Deem and Ramdas Pophale) SiO2 
 PCOD9297797
Probable space group: C 2/C
;
_chemical_formula_sum "Si O2"
_cell_formula_units_Z 56
_cell_length_a 9.127730
_cell_length_b 24.414575
_cell_length_c 12.474950
_cell_angle_alpha 90.000000
_cell_angle_beta 111.924134
_cell_angle_gamma 90.000000
_cell_volume 2578.983254
_symmetry_space_group_name_H-M "C 2/C"
_symmetry_group_IT_number 15
_symmetry_cell_setting 'monoclinic'
loop_
_space_group_symop_operation_xyz
x,y,z
-x,y,1/2-z
-x,-y,-z
x,-y,1/2+z
1/2+x,1/2+y,z
1/2-x,1/2+y,1/2-z
1/2-x,1/2-y,-z
1/2+x,1/2-y,1/2+z
loop_
_atom_site_type_symbol
_atom_site_label
_atom_site_fract_x
_atom_site_fract_y
_atom_site_fract_z
Si Si1 0.459835 0.576588 0.575118
Si Si2 0.273190 0.675938 0.549677
Si Si3 0.730936 0.881099 0.436509
Si Si4 0.500000 0.797018 0.250000
Si Si5 0.500000 0.067262 0.250000
Si Si6 0.224048 0.995180 0.135156
Si Si7 0.242826 0.227529 0.179639
Si Si8 0.567689 0.845287 0.599132
O O1 0.344406 0.617855 0.603144
O O2 0.584431 0.615876 0.544915
O O3 0.358516 0.537291 0.469880
O O4 0.585359 0.535041 0.662920
O O5 0.334033 0.723719 0.642729
O O6 0.305903 0.688630 0.433290
O O7 0.082742 0.678630 0.504348
O O8 0.629459 0.837598 0.340060
O O9 0.687116 0.944633 0.399564
O O10 0.694727 0.866531 0.548906
O O11 0.598220 0.756217 0.200627
O O12 0.513451 0.106177 0.355682
O O13 0.349782 0.030094 0.231888
O O14 0.348609 0.194866 0.293766
#
# Coordination Sequence:
#
# PCOD9297797 Si02
#       8
#     8   8   8   4   4   8   8   8
#     4   9  20  42  71  95 133 176 217 280 341 397
#     4  11  22  47  69  96 139 179 229 283 337 418
#     4  10  24  42  67  98 138 172 228 278 348 404
#     4  12  25  42  64 100 134 182 225 288 342 404
#     4  12  21  42  72  98 138 176 233 268 338 418
#     4   9  20  41  68  96 135 173 217 286 332 403
#     4  11  26  40  69  99 135 179 236 276 343 396
#     4  12  23  43  69 102 129 184 231 280 339 409
#
# _framework density 21.713984
#
# number of rings (size 3 to 8) (size 9 to 14) (size 15 to 20)
#    0.857    0.571    4.286    0.429    2.000    4.571 
#    0.000    0.000    6.286    0.000    0.000    0.000 
#    0.000    0.000    0.000    0.000    0.000    0.000 
#
# Total GULP energy -156056.042863 kJ/mol
# GULP energy per Si atom -5573.430102 kJ/mol
# Density = 2.166456 g / cm^3
# Si number density = 21.713984 Si / 1000 Ang^3
#
#
#
# Elastic Constant Matrix: (Units=GPa)
#
#
# Indices 1 2 3 4 5 6 
#
# 1 79.3972 37.0230 27.0977 0.0000 4.8542 0.0000
# 2 37.0230 101.3716 28.3890 0.0000 18.0278 0.0000
# 3 27.0977 28.3890 48.3065 0.0000 -0.7403 0.0000
# 4 0.0000 0.0000 0.0000 19.4127 0.0000 7.6192
# 5 4.8542 18.0278 -0.7403 0.0000 22.8799 0.0000
# 6 0.0000 0.0000 0.0000 7.6192 0.0000 48.8664
#
#
#
# Elastic Compliance Matrix: (Units=1/GPa)
#
#
# Indices 1 2 3 4 5 6 
#
# 1 0.016973 -0.004097 -0.007123 0.000000 -0.000603 0.000000
# 2 -0.004097 0.015319 -0.006880 0.000000 -0.011424 0.000000
# 3 -0.007123 -0.006880 0.028860 0.000000 0.007866 0.000000
# 4 0.000000 0.000000 0.000000 0.054870 0.000000 -0.008555
# 5 -0.000603 -0.011424 0.007866 0.000000 0.053090 0.000000
# 6 0.000000 0.000000 0.000000 -0.008555 0.000000 0.021798
#
#
# Mechanical properties :
#
#
# Convention : Reuss Voigt Hill
#
# Bulk Modulus (GPa) = 40.07385 46.01052 43.04219
# Shear Modulus (GPa) = 21.23790 27.33618 24.28704
#
# Velocity S-wave (km/s) = 3.13081 3.55198 3.34802
# Velocity P-wave (km/s) = 5.61825 6.16907 5.90009
#
# Compressibility (1/GPa) = 0.02495393
#
# Stress axis : x y z
#
# Youngs Moduli (GPa) = 58.91668 65.27718 34.64962
#
# Poissons Ratio (x) = 0.26744 0.24680
# Poissons Ratio (y) = 0.24138 0.23838
# Poissons Ratio (z) = 0.41964 0.44909
#
# Static dielectric constant tensor:
#      x y z
#    x 1.802300 0.000000 -0.008660 
#    y 0.000000 1.798350 0.000000 
#    z -0.008660 0.000000 1.780250 
# 
# From -- ./inp_files/81466.got.cif
#   From: 2010.05.17/outbox.cif.g08.bks.cpg/sg15_41_cif.got.tgz:81466.got - 2010.06.03 18:47:42.
