data_PCOD9297878
_publ_section_title
;
Structure prediction by ZEFSAII (Michael W. Deem and Ramdas Pophale) SiO2 
 PCOD9297878
Probable space group: C 2/C
;
_chemical_formula_sum "Si O2"
_cell_formula_units_Z 40
_cell_length_a 20.449390
_cell_length_b 7.038631
_cell_length_c 18.372173
_cell_angle_alpha 90.000000
_cell_angle_beta 137.922003
_cell_angle_gamma 90.000000
_cell_volume 1772.130422
_symmetry_space_group_name_H-M "C 2/C"
_symmetry_group_IT_number 15
_symmetry_cell_setting 'monoclinic'
loop_
_space_group_symop_operation_xyz
x,y,z
-x,y,1/2-z
-x,-y,-z
x,-y,1/2+z
1/2+x,1/2+y,z
1/2-x,1/2+y,1/2-z
1/2-x,1/2-y,-z
1/2+x,1/2-y,1/2+z
loop_
_atom_site_type_symbol
_atom_site_label
_atom_site_fract_x
_atom_site_fract_y
_atom_site_fract_z
Si Si1 0.375345 0.712036 0.085334
Si Si2 0.415687 0.641522 0.288451
Si Si3 0.202758 0.435029 0.924939
Si Si4 0.112606 0.549767 0.613720
Si Si5 0.697743 0.732550 0.774642
O O1 0.384607 0.658878 0.178369
O O2 0.467946 0.637423 0.119091
O O3 0.369136 0.942267 0.082671
O O4 0.283921 0.597824 0.978768
O O5 0.390164 0.819434 0.316910
O O6 0.366726 0.455626 0.279982
O O7 0.165152 0.353735 0.818101
O O8 0.250000 0.250000 0.000000
O O9 0.188323 0.669449 0.625495
O O10 0.170901 0.358025 0.682432
O O11 0.000000 0.500000 0.500000
#
# Coordination Sequence:
#
# PCOD9297878 Si02
#       5
#     8   8   8   8   8
#     4  10  24  42  70 103 141 179 235 296 367 425
#     4  11  24  46  66 103 143 185 235 298 351 432
#     4  11  23  42  72 106 137 184 233 302 364 428
#     4  12  29  47  73 104 144 200 240 296 358 428
#     4  12  26  48  72 104 149 185 247 297 353 438
#
# _framework density 22.571701999999998
#
# number of rings (size 3 to 8) (size 9 to 14) (size 15 to 20)
#    0.000    0.800    6.000    0.000    5.600    2.400 
#    0.000    0.000    0.000    0.000    0.000    0.000 
#    0.000    0.000    0.000    0.000    0.000    0.000 
#
# Total GULP energy -111660.084586 kJ/mol
# GULP energy per Si atom -5583.004229 kJ/mol
# Density = 2.252033 g / cm^3
# Si number density = 22.571702 Si / 1000 Ang^3
#
#
#
# Elastic Constant Matrix: (Units=GPa)
#
#
# Indices 1 2 3 4 5 6 
#
# 1 75.2500 29.5227 10.4786 0.0000 25.3125 0.0000
# 2 29.5227 142.5948 38.8660 0.0000 6.5374 0.0000
# 3 10.4786 38.8660 53.9664 0.0000 23.7001 0.0000
# 4 0.0000 0.0000 0.0000 39.2103 0.0000 1.8001
# 5 25.3125 6.5374 23.7001 0.0000 36.4210 0.0000
# 6 0.0000 0.0000 0.0000 1.8001 0.0000 29.5392
#
#
#
# Elastic Compliance Matrix: (Units=1/GPa)
#
#
# Indices 1 2 3 4 5 6 
#
# 1 0.020673 -0.005688 0.008322 0.000000 -0.018762 0.000000
# 2 -0.005688 0.010628 -0.010428 0.000000 0.008832 0.000000
# 3 0.008322 -0.010428 0.036603 0.000000 -0.027730 0.000000
# 4 0.000000 0.000000 0.000000 0.025575 0.000000 -0.001558
# 5 -0.018762 0.008832 -0.027730 0.000000 0.056956 0.000000
# 6 0.000000 0.000000 0.000000 -0.001558 0.000000 0.033948
#
#
# Mechanical properties :
#
#
# Convention : Reuss Voigt Hill
#
# Bulk Modulus (GPa) = 19.11491 47.72732 33.42111
# Shear Modulus (GPa) = 22.99803 33.89703 28.44753
#
# Velocity S-wave (km/s) = 3.19546 3.87944 3.55395
# Velocity P-wave (km/s) = 4.70123 6.42320 5.62846
#
# Compressibility (1/GPa) = 0.05231519
#
# Stress axis : x y z
#
# Youngs Moduli (GPa) = 48.37210 94.09069 27.32046
#
# Poissons Ratio (x) = 0.53522 -0.22737
# Poissons Ratio (y) = 0.27516 0.28490
# Poissons Ratio (z) = -0.40257 0.98120
#
# Static dielectric constant tensor:
#      x y z
#    x 1.912630 0.000000 0.030670 
#    y 0.000000 1.828080 0.000000 
#    z 0.030670 0.000000 1.875250 
# 
# From -- ./inp_files/251144.got.cif
#   From: 2010.05.17/outbox.cif.g08.bks.cpg/sg15_126_cif.got.tgz:251144.got - 2010.06.03 18:47:42.
