data_PCOD9297923
_publ_section_title
;
Structure prediction by ZEFSAII (Michael W. Deem and Ramdas Pophale) SiO2 
 PCOD9297923
Probable space group: C 2/C
;
_chemical_formula_sum "Si O2"
_cell_formula_units_Z 52
_cell_length_a 18.238390
_cell_length_b 16.441892
_cell_length_c 9.593026
_cell_angle_alpha 90.000000
_cell_angle_beta 127.052090
_cell_angle_gamma 90.000000
_cell_volume 2295.856376
_symmetry_space_group_name_H-M "C 2/C"
_symmetry_group_IT_number 15
_symmetry_cell_setting 'monoclinic'
loop_
_space_group_symop_operation_xyz
x,y,z
-x,y,1/2-z
-x,-y,-z
x,-y,1/2+z
1/2+x,1/2+y,z
1/2-x,1/2+y,1/2-z
1/2-x,1/2-y,-z
1/2+x,1/2-y,1/2+z
loop_
_atom_site_type_symbol
_atom_site_label
_atom_site_fract_x
_atom_site_fract_y
_atom_site_fract_z
Si Si1 0.544031 0.712832 0.440410
Si Si2 0.025211 0.917621 0.116846
Si Si3 0.734491 0.330608 0.071236
Si Si4 0.238612 0.135686 0.877663
Si Si5 0.864048 0.646526 0.269656
Si Si6 0.819575 0.456412 0.962656
Si Si7 0.000000 0.466313 0.750000
O O1 0.500000 0.749307 0.250000
O O2 0.483627 0.655631 0.472699
O O3 0.625290 0.657109 0.466040
O O4 0.589700 0.783089 0.586007
O O5 0.129367 0.880524 0.253811
O O6 0.000000 0.929410 0.250000
O O7 0.000000 0.000000 0.000000
O O8 0.767951 0.321287 0.267780
O O9 0.784289 0.404354 0.052081
O O10 0.750000 0.250000 0.000000
O O11 0.294887 0.173771 0.069552
O O12 0.273761 0.043322 0.909044
O O13 0.802972 0.592759 0.303544
O O14 0.942549 0.591423 0.287856
O O15 0.927346 0.475426 0.092765
#
# Coordination Sequence:
#
# PCOD9297923 Si02
#       7
#     8   8   8   8   8   8   4
#     4  11  27  47  69 105 145 192 245 298 371 438
#     4  11  27  46  73 104 142 193 247 304 356 432
#     4  11  24  46  68 102 140 189 235 298 361 433
#     4  10  25  44  73 103 144 184 246 293 369 439
#     4  11  24  44  71 107 142 186 231 304 371 440
#     4  11  23  43  73 101 140 186 237 295 360 441
#     4  10  24  42  72 102 146 178 238 292 376 442
#
# _framework density 22.649501000000001
#
# number of rings (size 3 to 8) (size 9 to 14) (size 15 to 20)
#    0.000    1.231    1.538    2.769   10.769    6.154 
#    0.000    0.000    0.000    0.000    0.000    0.000 
#    0.000    0.000    0.000    0.000    0.000    0.000 
#
# Total GULP energy -145119.937967 kJ/mol
# GULP energy per Si atom -5581.536076 kJ/mol
# Density = 2.259795 g / cm^3
# Si number density = 22.649501 Si / 1000 Ang^3
#
#
#
# Elastic Constant Matrix: (Units=GPa)
#
#
# Indices 1 2 3 4 5 6 
#
# 1 81.3070 11.0808 46.7005 0.0000 -26.3351 0.0000
# 2 11.0808 99.2482 59.5717 0.0000 -20.8008 0.0000
# 3 46.7005 59.5717 194.5595 0.0000 -40.1992 0.0000
# 4 0.0000 0.0000 0.0000 44.7923 0.0000 -7.6067
# 5 -26.3351 -20.8008 -40.1992 0.0000 39.2475 0.0000
# 6 0.0000 0.0000 0.0000 -7.6067 0.0000 39.3003
#
#
#
# Elastic Compliance Matrix: (Units=1/GPa)
#
#
# Indices 1 2 3 4 5 6 
#
# 1 0.016577 0.001643 -0.002542 0.000000 0.009390 0.000000
# 2 0.001643 0.012873 -0.003423 0.000000 0.004419 0.000000
# 3 -0.002542 -0.003423 0.007700 0.000000 0.004367 0.000000
# 4 0.000000 0.000000 0.000000 0.023084 0.000000 0.004468
# 5 0.009390 0.004419 0.004367 0.000000 0.038596 0.000000
# 6 0.000000 0.000000 0.000000 0.004468 0.000000 0.026310
#
#
# Mechanical properties :
#
#
# Convention : Reuss Voigt Hill
#
# Bulk Modulus (GPa) = 35.07959 67.75784 51.41872
# Shear Modulus (GPa) = 34.89549 41.85214 38.37381
#
# Velocity S-wave (km/s) = 3.92940 4.30329 4.12059
# Velocity P-wave (km/s) = 6.00904 7.39404 6.73722
#
# Compressibility (1/GPa) = 0.02850660
#
# Stress axis : x y z
#
# Youngs Moduli (GPa) = 60.32619 77.68202 129.86436
#
# Poissons Ratio (x) = -0.12763 0.33009
# Poissons Ratio (y) = -0.09911 0.44450
# Poissons Ratio (z) = 0.15334 0.26589
#
# Static dielectric constant tensor:
#      x y z
#    x 1.862280 0.000000 0.032810 
#    y 0.000000 1.831830 0.000000 
#    z 0.032810 0.000000 1.963280 
# 
# From -- ./inp_files/49233.got.cif
#   From: 2010.05.17/outbox.cif.g08.bks.cpg/sg15_25_cif.got.tgz:49233.got - 2010.06.03 18:47:42.
