data_PCOD9297876
_publ_section_title
;
Structure prediction by ZEFSAII (Michael W. Deem and Ramdas Pophale) SiO2 
 PCOD9297876
Probable space group: C 2/C
;
_chemical_formula_sum "Si O2"
_cell_formula_units_Z 40
_cell_length_a 18.476230
_cell_length_b 5.211426
_cell_length_c 20.084998
_cell_angle_alpha 90.000000
_cell_angle_beta 56.956124
_cell_angle_gamma 90.000000
_cell_volume 1621.126753
_symmetry_space_group_name_H-M "C 2/C"
_symmetry_group_IT_number 15
_symmetry_cell_setting 'monoclinic'
loop_
_space_group_symop_operation_xyz
x,y,z
-x,y,1/2-z
-x,-y,-z
x,-y,1/2+z
1/2+x,1/2+y,z
1/2-x,1/2+y,1/2-z
1/2-x,1/2-y,-z
1/2+x,1/2-y,1/2+z
loop_
_atom_site_type_symbol
_atom_site_label
_atom_site_fract_x
_atom_site_fract_y
_atom_site_fract_z
Si Si1 0.300270 0.609528 0.244512
Si Si2 0.056670 0.088940 0.909774
Si Si3 0.292561 0.833278 0.583643
Si Si4 0.940296 0.045428 0.845131
Si Si5 0.335472 0.979909 0.425578
O O1 0.259557 0.335447 0.250718
O O2 0.386668 0.624519 0.158207
O O3 0.291769 0.623881 0.327900
O O4 0.126616 0.277460 0.908996
O O5 0.995562 0.166192 0.879360
O O6 0.000000 0.000000 0.000000
O O7 0.320711 0.025855 0.511740
O O8 0.257695 0.592411 0.558602
O O9 0.872445 0.275305 0.869498
O O10 0.000000 0.012795 0.750000
O O11 0.898552 0.771258 0.887276
#
# Coordination Sequence:
#
# PCOD9297876 Si02
#       5
#     8   8   8   8   8
#     4  10  24  42  70 102 141 184 237 291 349 422
#     4  11  24  46  75 109 142 187 240 301 355 418
#     4  10  24  46  73 103 142 191 243 289 351 439
#     4  12  27  47  71 107 148 183 235 303 364 417
#     4  11  26  45  72 102 143 194 234 289 361 429
#
# _framework density 24.674194
#
# number of rings (size 3 to 8) (size 9 to 14) (size 15 to 20)
#    0.000    1.200    2.000    1.800    2.800   16.800 
#    0.000    0.000    0.000    0.000    0.000    0.000 
#    0.000    0.000    0.000    0.000    0.000    0.000 
#
# Total GULP energy -111659.245016 kJ/mol
# GULP energy per Si atom -5582.962251 kJ/mol
# Density = 2.461803 g / cm^3
# Si number density = 24.674194 Si / 1000 Ang^3
#
#
#
# Elastic Constant Matrix: (Units=GPa)
#
#
# Indices 1 2 3 4 5 6 
#
# 1 97.7011 24.7323 9.4512 -0.0088 15.2907 0.0321
# 2 24.7323 103.8870 24.7816 -0.0553 2.9235 -0.0225
# 3 9.4512 24.7816 239.2096 -0.0035 3.4482 0.0062
# 4 -0.0088 -0.0553 -0.0035 34.1074 0.0085 -13.5875
# 5 15.2907 2.9235 3.4482 0.0085 44.8363 -0.0055
# 6 0.0321 -0.0225 0.0062 -13.5875 -0.0055 16.1410
#
#
#
# Elastic Compliance Matrix: (Units=1/GPa)
#
#
# Indices 1 2 3 4 5 6 
#
# 1 0.011491 -0.002599 -0.000131 -0.000017 -0.003739 -0.000042
# 2 -0.002599 0.010472 -0.000986 0.000036 0.000279 0.000051
# 3 -0.000131 -0.000986 0.004291 -0.000003 -0.000221 -0.000006
# 4 -0.000017 0.000036 -0.000003 0.044113 0.000000 0.037134
# 5 -0.003739 0.000279 -0.000221 0.000000 0.023577 0.000016
# 6 -0.000042 0.000051 -0.000006 0.037134 0.000016 0.093214
#
#
# Mechanical properties :
#
#
# Convention : Reuss Voigt Hill
#
# Bulk Modulus (GPa) = 53.13058 62.08089 57.60574
# Shear Modulus (GPa) = 24.89240 44.47245 34.68242
#
# Velocity S-wave (km/s) = 3.17968 4.25006 3.75322
# Velocity P-wave (km/s) = 5.92115 7.02132 6.49457
#
# Compressibility (1/GPa) = 0.01882155
#
# Stress axis : x y z
#
# Youngs Moduli (GPa) = 87.02327 95.49206 233.04804
#
# Poissons Ratio (x) = 0.24821 0.03049
# Poissons Ratio (y) = 0.22620 0.22984
# Poissons Ratio (z) = 0.01139 0.09418
#
# Static dielectric constant tensor:
#      x y z
#    x 2.129640 -0.000030 -0.020490 
#    y -0.000030 1.921150 0.000020 
#    z -0.020490 0.000020 2.057380 
# 
# From -- ./inp_files/251010.got.cif
#   From: 2010.05.17/outbox.cif.g08.bks.cpg/sg15_126_cif.got.tgz:251010.got - 2010.06.03 18:47:42.
