data_PCOD9297989
_publ_section_title
;
Structure prediction by ZEFSAII (Michael W. Deem and Ramdas Pophale) SiO2 
 PCOD9297989
Probable space group: C 2/C
;
_chemical_formula_sum "Si O2"
_cell_formula_units_Z 48
_cell_length_a 19.826059
_cell_length_b 14.872259
_cell_length_c 11.619269
_cell_angle_alpha 90.000000
_cell_angle_beta 43.992950
_cell_angle_gamma 90.000000
_cell_volume 2379.622520
_symmetry_space_group_name_H-M "C 2/C"
_symmetry_group_IT_number 15
_symmetry_cell_setting 'monoclinic'
loop_
_space_group_symop_operation_xyz
x,y,z
-x,y,1/2-z
-x,-y,-z
x,-y,1/2+z
1/2+x,1/2+y,z
1/2-x,1/2+y,1/2-z
1/2-x,1/2-y,-z
1/2+x,1/2-y,1/2+z
loop_
_atom_site_type_symbol
_atom_site_label
_atom_site_fract_x
_atom_site_fract_y
_atom_site_fract_z
Si Si1 0.755299 0.188720 0.377899
Si Si2 0.282293 0.851905 0.990958
Si Si3 0.500000 0.472031 0.250000
Si Si4 0.000000 0.690366 0.250000
Si Si5 0.796048 0.968083 0.974515
Si Si6 0.660741 0.341279 0.367478
Si Si7 0.459064 0.666394 0.997970
O O1 0.750000 0.250000 0.500000
O O2 0.740749 0.087671 0.442896
O O3 0.682488 0.238723 0.380326
O O4 0.859967 0.187731 0.186271
O O5 0.223063 0.866450 0.180270
O O6 0.246766 0.932966 0.954184
O O7 0.250000 0.750000 0.000000
O O8 0.397421 0.858659 0.864071
O O9 0.589918 0.523257 0.196009
O O10 0.545872 0.413569 0.089823
O O11 0.010967 0.751225 0.122215
O O12 0.801068 0.907043 0.080903
O O13 0.548064 0.351488 0.475035
#
# Coordination Sequence:
#
# PCOD9297989 Si02
#       7
#     8   8   4   4   8   8   8
#     4  10  24  43  62  92 135 172 210 263 323 389
#     4  12  23  43  65  95 130 171 218 262 321 387
#     4  11  22  36  64 103 130 154 210 285 330 381
#     4  11  22  40  66  97 126 166 222 265 306 389
#     4  11  25  40  62 100 131 162 215 265 330 380
#     4  11  23  41  68  93 129 174 209 270 325 383
#     4  11  21  39  68  97 126 165 214 269 329 378
#
# _framework density 20.171268000000001
#
# number of rings (size 3 to 8) (size 9 to 14) (size 15 to 20)
#    0.000    1.000    5.000    2.000    2.333    3.333 
#    0.000    4.167    0.000    0.000    0.000    0.000 
#    0.000    0.000    0.000    0.000    0.000    0.000 
#
# Total GULP energy -133945.016904 kJ/mol
# GULP energy per Si atom -5581.042371 kJ/mol
# Density = 2.012536 g / cm^3
# Si number density = 20.171268 Si / 1000 Ang^3
#
#
#
# Elastic Constant Matrix: (Units=GPa)
#
#
# Indices 1 2 3 4 5 6 
#
# 1 89.8082 40.1543 8.3166 0.0000 -10.9716 0.0000
# 2 40.1543 105.1927 15.9168 0.0000 -3.8290 0.0000
# 3 8.3166 15.9168 101.6515 0.0000 0.6376 0.0000
# 4 0.0000 0.0000 0.0000 18.4442 0.0000 -5.3930
# 5 -10.9716 -3.8290 0.6376 0.0000 30.4383 0.0000
# 6 0.0000 0.0000 0.0000 -5.3930 0.0000 34.2053
#
#
#
# Elastic Compliance Matrix: (Units=1/GPa)
#
#
# Indices 1 2 3 4 5 6 
#
# 1 0.014000 -0.005128 -0.000370 0.000000 0.004409 0.000000
# 2 -0.005128 0.011663 -0.001405 0.000000 -0.000352 0.000000
# 3 -0.000370 -0.001405 0.010091 0.000000 -0.000522 0.000000
# 4 0.000000 0.000000 0.000000 0.056838 0.000000 0.008961
# 5 0.004409 -0.000352 -0.000522 0.000000 0.034409 0.000000
# 6 0.000000 0.000000 0.000000 0.008961 0.000000 0.030648
#
#
# Mechanical properties :
#
#
# Convention : Reuss Voigt Hill
#
# Bulk Modulus (GPa) = 45.55823 47.26976 46.41399
# Shear Modulus (GPa) = 27.96856 32.10187 30.03522
#
# Velocity S-wave (km/s) = 3.72769 3.99364 3.86296
# Velocity P-wave (km/s) = 6.41578 6.68959 6.55412
#
# Compressibility (1/GPa) = 0.02194993
#
# Stress axis : x y z
#
# Youngs Moduli (GPa) = 71.42610 85.73772 99.09802
#
# Poissons Ratio (x) = 0.43964 0.03668
# Poissons Ratio (y) = 0.36626 0.13919
# Poissons Ratio (z) = 0.02644 0.12042
#
# Static dielectric constant tensor:
#      x y z
#    x 1.019810 0.000000 1.659320 
#    y 0.000000 1.778020 0.000000 
#    z 1.659320 0.000000 -1.891950 
# 
# From -- ./inp_files/112950.got.cif
#   From: 2010.05.17/outbox.cif.g08.bks.cpg/sg15_57_cif.got.tgz:112950.got - 2010.06.03 18:47:42.
