data_PCOD9297292
_publ_section_title
;
Structure prediction by ZEFSAII (Michael W. Deem and Ramdas Pophale) SiO2 
 PCOD9297292
Probable space group: C 2/C
;
_chemical_formula_sum "Si O2"
_cell_formula_units_Z 56
_cell_length_a 22.755828
_cell_length_b 16.628559
_cell_length_c 8.642158
_cell_angle_alpha 90.000000
_cell_angle_beta 117.551352
_cell_angle_gamma 90.000000
_cell_volume 2899.315893
_symmetry_space_group_name_H-M "C 2/C"
_symmetry_group_IT_number 15
_symmetry_cell_setting 'monoclinic'
loop_
_space_group_symop_operation_xyz
x,y,z
-x,y,1/2-z
-x,-y,-z
x,-y,1/2+z
1/2+x,1/2+y,z
1/2-x,1/2+y,1/2-z
1/2-x,1/2-y,-z
1/2+x,1/2-y,1/2+z
loop_
_atom_site_type_symbol
_atom_site_label
_atom_site_fract_x
_atom_site_fract_y
_atom_site_fract_z
Si Si1 0.820416 0.592706 0.368866
Si Si2 0.325987 0.252386 0.542980
Si Si3 0.261614 0.477852 0.009390
Si Si4 0.536438 0.751403 0.128600
Si Si5 0.659349 0.584187 0.616264
Si Si6 0.974934 0.581379 0.544243
Si Si7 0.515562 0.587957 0.587645
O O1 0.827482 0.686396 0.411233
O O2 0.781602 0.549753 0.464665
O O3 0.782061 0.570099 0.166738
O O4 0.896434 0.568927 0.448394
O O5 0.250000 0.250000 0.500000
O O6 0.385169 0.235443 0.738307
O O7 0.338504 0.338964 0.488792
O O8 0.323960 0.512104 0.985013
O O9 0.285218 0.425517 0.183677
O O10 0.500000 0.741771 0.250000
O O11 0.502911 0.832317 0.014096
O O12 0.522680 0.666863 0.025480
O O13 0.591811 0.593300 0.628688
O O14 0.000000 0.583674 0.750000
O O15 0.000000 0.500000 0.500000
O O16 0.500000 0.585787 0.750000
O O17 0.500000 0.500000 0.500000
#
# Coordination Sequence:
#
# PCOD9297292 Si02
#       7
#     8   8   8   8   8   8   8
#     4  11  21  41  62  96 128 175 220 269 331 396
#     4  12  24  41  70  94 132 177 218 274 345 389
#     4  10  24  38  65  94 137 165 223 276 318 407
#     4  11  23  44  66  95 135 175 227 280 326 410
#     4  11  23  43  63  96 131 175 220 273 331 401
#     4  11  22  39  67  94 131 176 221 272 335 390
#     4  12  26  42  70  98 133 178 226 278 341 397
#
# _framework density 19.314902
#
# number of rings (size 3 to 8) (size 9 to 14) (size 15 to 20)
#    0.000    0.857    5.714    2.143    2.000    2.286 
#    0.000    2.857    0.000    0.000    0.000    0.000 
#    0.000    0.000    0.000    0.000    0.000    0.000 
#
# Total GULP energy -156045.554568 kJ/mol
# GULP energy per Si atom -5573.055520 kJ/mol
# Density = 1.927094 g / cm^3
# Si number density = 19.314902 Si / 1000 Ang^3
#
#
#
# Elastic Constant Matrix: (Units=GPa)
#
#
# Indices 1 2 3 4 5 6 
#
# 1 115.9897 3.9679 10.5202 0.0000 13.3289 0.0000
# 2 3.9679 97.3203 26.3981 0.0000 -0.6941 0.0000
# 3 10.5202 26.3981 60.9631 0.0000 -0.5418 0.0000
# 4 0.0000 0.0000 0.0000 39.0991 0.0000 -1.7283
# 5 13.3289 -0.6941 -0.5418 0.0000 29.1039 0.0000
# 6 0.0000 0.0000 0.0000 -1.7283 0.0000 27.7943
#
#
#
# Elastic Compliance Matrix: (Units=1/GPa)
#
#
# Indices 1 2 3 4 5 6 
#
# 1 0.009261 0.000040 -0.001654 0.000000 -0.004271 0.000000
# 2 0.000040 0.011644 -0.005048 0.000000 0.000165 0.000000
# 3 -0.001654 -0.005048 0.018883 0.000000 0.000988 0.000000
# 4 0.000000 0.000000 0.000000 0.025647 0.000000 0.001595
# 5 -0.004271 0.000165 0.000988 0.000000 0.036338 0.000000
# 6 0.000000 0.000000 0.000000 0.001595 0.000000 0.036078
#
#
# Mechanical properties :
#
#
# Convention : Reuss Voigt Hill
#
# Bulk Modulus (GPa) = 37.78334 39.56061 38.67198
# Shear Modulus (GPa) = 31.25116 34.75858 33.00487
#
# Velocity S-wave (km/s) = 4.02678 4.24674 4.13822
# Velocity P-wave (km/s) = 6.42060 6.67628 6.54969
#
# Compressibility (1/GPa) = 0.02646669
#
# Stress axis : x y z
#
# Youngs Moduli (GPa) = 107.98140 85.88089 52.95713
#
# Poissons Ratio (x) = -0.00348 0.08757
# Poissons Ratio (y) = -0.00437 0.26731
# Poissons Ratio (z) = 0.17856 0.43349
#
# Static dielectric constant tensor:
#      x y z
#    x 3.119360 0.000000 0.157880 
#    y 0.000000 1.461870 0.000000 
#    z 0.157880 0.000000 1.675970 
# 
# From -- ./inp_files/61995.got.cif
#   From: 2010.05.17/outbox.cif.g08.bks.cpg/sg15_31_cif.got.tgz:61995.got - 2010.06.03 18:47:42.
