data_PCOD9297707
_publ_section_title
;
Structure prediction by ZEFSAII (Michael W. Deem and Ramdas Pophale) SiO2 
 PCOD9297707
Probable space group: C 2/C
;
_chemical_formula_sum "Si O2"
_cell_formula_units_Z 40
_cell_length_a 7.941462
_cell_length_b 10.292694
_cell_length_c 20.491478
_cell_angle_alpha 90.000000
_cell_angle_beta 105.123380
_cell_angle_gamma 90.000000
_cell_volume 1616.943776
_symmetry_space_group_name_H-M "C 2/C"
_symmetry_group_IT_number 15
_symmetry_cell_setting 'monoclinic'
loop_
_space_group_symop_operation_xyz
x,y,z
-x,y,1/2-z
-x,-y,-z
x,-y,1/2+z
1/2+x,1/2+y,z
1/2-x,1/2+y,1/2-z
1/2-x,1/2-y,-z
1/2+x,1/2-y,1/2+z
loop_
_atom_site_type_symbol
_atom_site_label
_atom_site_fract_x
_atom_site_fract_y
_atom_site_fract_z
Si Si1 0.685683 0.004863 0.321677
Si Si2 0.762738 0.759260 0.610641
Si Si3 0.628094 0.749278 0.891727
Si Si4 0.037815 0.894082 0.557920
Si Si5 0.315347 0.485259 0.197268
O O1 0.649290 0.876664 0.360225
O O2 0.685268 0.969440 0.245781
O O3 0.592505 0.137601 0.333727
O O4 0.883157 0.042143 0.367364
O O5 0.553315 0.739401 0.587531
O O6 0.865291 0.816633 0.559452
O O7 0.793646 0.869492 0.668466
O O8 0.796199 0.807787 0.945039
O O9 0.694515 0.620629 0.861289
O O10 0.000000 0.000000 0.500000
O O11 0.500000 0.462900 0.250000
#
# Coordination Sequence:
#
# PCOD9297707 Si02
#       5
#     8   8   8   8   8
#     4  10  24  42  65 104 131 176 227 270 339 413
#     4  12  23  43  70  97 135 178 219 283 342 391
#     4  10  25  43  66 104 130 176 228 271 340 406
#     4  10  25  47  67  98 138 179 233 279 328 402
#     4  12  21  43  67 101 144 165 220 288 339 407
#
# _framework density 24.738028
#
# number of rings (size 3 to 8) (size 9 to 14) (size 15 to 20)
#    1.200    0.000    4.000    1.200    2.800    1.600 
#    0.000    4.000    0.000    0.000    0.000    0.000 
#    0.000    0.000    0.000    0.000    0.000    0.000 
#
# Total GULP energy -111747.901528 kJ/mol
# GULP energy per Si atom -5587.395076 kJ/mol
# Density = 2.468172 g / cm^3
# Si number density = 24.738028 Si / 1000 Ang^3
#
#
#
# Elastic Constant Matrix: (Units=GPa)
#
#
# Indices 1 2 3 4 5 6 
#
# 1 114.7987 9.8789 33.6290 0.0000 -18.8586 0.0000
# 2 9.8789 129.5038 17.5997 0.0000 -12.1724 0.0000
# 3 33.6290 17.5997 68.1584 0.0000 -10.6168 0.0000
# 4 0.0000 0.0000 0.0000 65.7948 0.0000 -2.1041
# 5 -18.8586 -12.1724 -10.6168 0.0000 53.7727 0.0000
# 6 0.0000 0.0000 0.0000 -2.1041 0.0000 35.6176
#
#
#
# Elastic Compliance Matrix: (Units=1/GPa)
#
#
# Indices 1 2 3 4 5 6 
#
# 1 0.010567 0.000109 -0.004809 0.000000 0.002781 0.000000
# 2 0.000109 0.008115 -0.001916 0.000000 0.001497 0.000000
# 3 -0.004809 -0.001916 0.017755 0.000000 0.001385 0.000000
# 4 0.000000 0.000000 0.000000 0.015228 0.000000 0.000900
# 5 0.002781 0.001497 0.001385 0.000000 0.020185 0.000000
# 6 0.000000 0.000000 0.000000 0.000900 0.000000 0.028129
#
#
# Mechanical properties :
#
#
# Convention : Reuss Voigt Hill
#
# Bulk Modulus (GPa) = 43.09411 48.29734 45.69572
# Shear Modulus (GPa) = 41.34149 47.79389 44.56769
#
# Velocity S-wave (km/s) = 4.09243 4.40022 4.24911
# Velocity P-wave (km/s) = 6.30783 6.73660 6.52574
#
# Compressibility (1/GPa) = 0.02320503
#
# Stress axis : x y z
#
# Youngs Moduli (GPa) = 94.63386 123.23563 56.32294
#
# Poissons Ratio (x) = -0.01341 0.27083
# Poissons Ratio (y) = -0.01030 0.10791
# Poissons Ratio (z) = 0.45506 0.23610
#
# Static dielectric constant tensor:
#      x y z
#    x 2.092840 0.000000 -0.016450 
#    y 0.000000 1.909510 0.000000 
#    z -0.016450 0.000000 2.002620 
# 
# From -- ./inp_files/229899.got.cif
#   From: 2010.05.17/outbox.cif.g08.bks.cpg/sg15_115_cif.got.tgz:229899.got - 2010.06.03 18:47:42.
