data_PCOD9297316
_publ_section_title
;
Structure prediction by ZEFSAII (Michael W. Deem and Ramdas Pophale) SiO2 
 PCOD9297316
Probable space group: C 2/C
;
_chemical_formula_sum "Si O2"
_cell_formula_units_Z 60
_cell_length_a 24.118999
_cell_length_b 11.667891
_cell_length_c 17.410483
_cell_angle_alpha 90.000000
_cell_angle_beta 33.836350
_cell_angle_gamma 90.000000
_cell_volume 2728.220050
_symmetry_space_group_name_H-M "C 2/C"
_symmetry_group_IT_number 15
_symmetry_cell_setting 'monoclinic'
loop_
_space_group_symop_operation_xyz
x,y,z
-x,y,1/2-z
-x,-y,-z
x,-y,1/2+z
1/2+x,1/2+y,z
1/2-x,1/2+y,1/2-z
1/2-x,1/2-y,-z
1/2+x,1/2-y,1/2+z
loop_
_atom_site_type_symbol
_atom_site_label
_atom_site_fract_x
_atom_site_fract_y
_atom_site_fract_z
Si Si1 0.088572 0.032390 0.268209
Si Si2 0.080265 0.636735 0.597779
Si Si3 0.761925 0.298366 0.335652
Si Si4 0.338224 0.648425 0.700140
Si Si5 0.213759 0.797634 0.961298
Si Si6 0.500000 0.357208 0.250000
Si Si7 0.519027 0.243629 0.919862
Si Si8 0.783022 0.465859 0.445434
O O1 0.022487 0.142356 0.362167
O O2 0.128565 0.968971 0.298250
O O3 0.033791 0.938016 0.280743
O O4 0.184300 0.061730 0.107374
O O5 0.177507 0.709369 0.460654
O O6 0.127622 0.532373 0.594254
O O7 0.000000 0.689212 0.750000
O O8 0.018805 0.636043 0.588170
O O9 0.709211 0.369765 0.328978
O O10 0.868112 0.258021 0.179906
O O11 0.797609 0.362445 0.370574
O O12 0.261015 0.720002 0.840930
O O13 0.435811 0.727876 0.578096
O O14 0.256930 0.926896 0.920036
O O15 0.250000 0.750000 0.000000
O O16 0.094787 0.792852 0.106029
#
# Coordination Sequence:
#
# PCOD9297316 Si02
#       8
#     8   8   8   8   8   4   8   8
#     4  11  23  43  71 102 130 178 235 282 334 395
#     4  11  21  39  66 104 134 172 226 279 348 398
#     4  11  24  40  66 101 141 176 216 291 346 402
#     4  11  26  43  65 101 137 181 224 276 343 398
#     4  11  24  48  66  98 135 181 234 272 330 409
#     4  10  24  38  76  96 126 174 240 280 324 386
#     4  11  24  41  69 100 140 174 221 281 354 406
#     4  11  22  42  70  96 134 177 229 283 330 398
#
# _framework density 21.992360999999999
#
# number of rings (size 3 to 8) (size 9 to 14) (size 15 to 20)
#    0.000    1.067    5.333    1.600   10.267    1.067 
#    1.200    2.000    0.000    0.000    0.000    0.000 
#    0.000    0.000    0.000    0.000    0.000    0.000 
#
# Total GULP energy -167228.945729 kJ/mol
# GULP energy per Si atom -5574.298191 kJ/mol
# Density = 2.194231 g / cm^3
# Si number density = 21.992361 Si / 1000 Ang^3
#
#
#
# Elastic Constant Matrix: (Units=GPa)
#
#
# Indices 1 2 3 4 5 6 
#
# 1 67.4954 5.5765 34.8365 0.0000 -8.6074 0.0000
# 2 5.5765 18.0017 4.6144 0.0000 -5.0445 0.0000
# 3 34.8365 4.6144 110.5249 0.0000 -30.2303 0.0000
# 4 0.0000 0.0000 0.0000 39.7998 0.0000 -26.1653
# 5 -8.6074 -5.0445 -30.2303 0.0000 36.7537 0.0000
# 6 0.0000 0.0000 0.0000 -26.1653 0.0000 35.3345
#
#
#
# Elastic Compliance Matrix: (Units=1/GPa)
#
#
# Indices 1 2 3 4 5 6 
#
# 1 0.018036 -0.004423 -0.005820 0.000000 -0.001170 0.000000
# 2 -0.004423 0.058865 0.001113 0.000000 0.007959 0.000000
# 3 -0.005820 0.001113 0.013554 0.000000 0.009938 0.000000
# 4 0.000000 0.000000 0.000000 0.048961 0.000000 0.036256
# 5 -0.001170 0.007959 0.009938 0.000000 0.036201 0.000000
# 6 0.000000 0.000000 0.000000 0.036256 0.000000 0.055149
#
#
# Mechanical properties :
#
#
# Convention : Reuss Voigt Hill
#
# Bulk Modulus (GPa) = 13.85128 31.78632 22.81880
# Shear Modulus (GPa) = 18.30893 32.44392 25.37642
#
# Velocity S-wave (km/s) = 2.88846 3.84505 3.40056
# Velocity P-wave (km/s) = 4.17566 5.84784 5.08101
#
# Compressibility (1/GPa) = 0.07219551
#
# Stress axis : x y z
#
# Youngs Moduli (GPa) = 55.44460 16.98793 73.77923
#
# Poissons Ratio (x) = 0.07514 0.42941
# Poissons Ratio (y) = 0.24524 -0.08215
# Poissons Ratio (z) = 0.32270 -0.01892
#
# Static dielectric constant tensor:
#      x y z
#    x 1.800410 0.000000 -0.020530 
#    y 0.000000 1.927420 0.000000 
#    z -0.020530 0.000000 1.801910 
# 
# From -- ./inp_files/219595.got.cif
#   From: 2010.05.17/outbox.cif.g08.bks.cpg/sg15_110_cif.got.tgz:219595.got - 2010.06.03 18:47:42.
