data_PCOD9297631
_publ_section_title
;
Structure prediction by ZEFSAII (Michael W. Deem and Ramdas Pophale) SiO2 
 PCOD9297631
Probable space group: C 2/C
;
_chemical_formula_sum "Si O2"
_cell_formula_units_Z 44
_cell_length_a 8.991460
_cell_length_b 13.606886
_cell_length_c 20.970007
_cell_angle_alpha 90.000000
_cell_angle_beta 143.033766
_cell_angle_gamma 90.000000
_cell_volume 1542.803831
_symmetry_space_group_name_H-M "C 2/C"
_symmetry_group_IT_number 15
_symmetry_cell_setting 'monoclinic'
loop_
_space_group_symop_operation_xyz
x,y,z
-x,y,1/2-z
-x,-y,-z
x,-y,1/2+z
1/2+x,1/2+y,z
1/2-x,1/2+y,1/2-z
1/2-x,1/2-y,-z
1/2+x,1/2-y,1/2+z
loop_
_atom_site_type_symbol
_atom_site_label
_atom_site_fract_x
_atom_site_fract_y
_atom_site_fract_z
Si Si1 0.451418 0.001307 0.594735
Si Si2 0.806169 0.921796 0.109664
Si Si3 0.226923 0.677549 0.915431
Si Si4 0.684045 0.711294 0.688757
Si Si5 0.000000 0.401619 0.750000
Si Si6 0.535294 0.630496 0.156692
O O1 0.367327 0.922830 0.512392
O O2 0.227327 0.081566 0.526847
O O3 0.561234 0.157374 0.703865
O O4 0.483388 0.959198 0.676868
O O5 0.658489 0.940601 0.123858
O O6 0.969616 0.020536 0.154084
O O7 0.969273 0.824057 0.161341
O O8 0.384699 0.678389 0.905588
O O9 0.190586 0.790834 0.923279
O O10 0.788125 0.821687 0.726334
O O11 0.267852 0.351102 0.833194
#
# Coordination Sequence:
#
# PCOD9297631 Si02
#       6
#     8   8   8   8   4   8
#     4  11  26  44  70 106 140 191 230 299 357 425
#     4  11  25  46  70 102 150 180 237 298 359 409
#     4   9  20  39  66 101 136 178 236 279 353 416
#     4   9  21  41  70 102 134 186 233 291 342 424
#     4  12  26  42  70 110 132 194 244 274 364 432
#     4  10  24  41  71 102 138 187 233 292 345 430
#
# _framework density 28.519504999999999
#
# number of rings (size 3 to 8) (size 9 to 14) (size 15 to 20)
#    1.091    0.727    0.000    3.273    7.636    5.818 
#    0.000    0.909    0.000    0.000    0.000    0.000 
#    0.000    0.000    0.000    0.000    0.000    0.000 
#
# Total GULP energy -122775.184507 kJ/mol
# GULP energy per Si atom -5580.690205 kJ/mol
# Density = 2.845459 g / cm^3
# Si number density = 28.519505 Si / 1000 Ang^3
#
#
#
# Elastic Constant Matrix: (Units=GPa)
#
#
# Indices 1 2 3 4 5 6 
#
# 1 214.7365 31.0506 30.4186 0.0000 -11.1436 0.0000
# 2 31.0506 51.1313 1.2348 0.0000 -5.5234 0.0000
# 3 30.4186 1.2348 59.3234 0.0001 -20.5427 0.0000
# 4 0.0000 0.0000 0.0001 44.9792 0.0000 8.6115
# 5 -11.1436 -5.5234 -20.5427 0.0000 55.1886 0.0000
# 6 0.0000 0.0000 0.0000 8.6115 0.0000 58.7169
#
#
#
# Elastic Compliance Matrix: (Units=1/GPa)
#
#
# Indices 1 2 3 4 5 6 
#
# 1 0.005528 -0.003318 -0.002863 0.000000 -0.000282 0.000000
# 2 -0.003318 0.021768 0.002033 0.000000 0.002265 0.000000
# 3 -0.002863 0.002033 0.020839 0.000000 0.007382 0.000000
# 4 0.000000 0.000000 0.000000 0.022875 0.000000 -0.003355
# 5 -0.000282 0.002265 0.007382 0.000000 0.021037 0.000000
# 6 0.000000 0.000000 0.000000 -0.003355 0.000000 0.017523
#
#
# Mechanical properties :
#
#
# Convention : Reuss Voigt Hill
#
# Bulk Modulus (GPa) = 25.10164 50.06657 37.58410
# Shear Modulus (GPa) = 38.12581 49.27611 43.70096
#
# Velocity S-wave (km/s) = 3.66024 4.16120 3.91873
# Velocity P-wave (km/s) = 5.16564 6.37814 5.80364
#
# Compressibility (1/GPa) = 0.03983804
#
# Stress axis : x y z
#
# Youngs Moduli (GPa) = 180.91156 45.93892 47.98786
#
# Poissons Ratio (x) = 0.15243 0.13738
# Poissons Ratio (y) = 0.60027 -0.09754
# Poissons Ratio (z) = 0.51790 -0.09338
#
# Static dielectric constant tensor:
#      x y z
#    x 2.156130 0.000000 -0.032400 
#    y 0.000000 2.261270 0.000000 
#    z -0.032400 0.000000 2.728970 
# 
# From -- ./inp_files/288154.got.cif
#   From: 2010.05.17/outbox.cif.g08.bks.cpg/sg15_145_cif.got.tgz:288154.got - 2010.06.03 18:47:42.
