data_PCOD9297019
_publ_section_title
;
Structure prediction by ZEFSAII (Michael W. Deem and Ramdas Pophale) SiO2 
 PCOD9297019
Probable space group: C 2/C
;
_chemical_formula_sum "Si O2"
_cell_formula_units_Z 48
_cell_length_a 25.475668
_cell_length_b 5.145598
_cell_length_c 18.346531
_cell_angle_alpha 90.000000
_cell_angle_beta 120.912420
_cell_angle_gamma 90.000000
_cell_volume 2063.379811
_symmetry_space_group_name_H-M "C 2/C"
_symmetry_group_IT_number 15
_symmetry_cell_setting 'monoclinic'
loop_
_space_group_symop_operation_xyz
x,y,z
-x,y,1/2-z
-x,-y,-z
x,-y,1/2+z
1/2+x,1/2+y,z
1/2-x,1/2+y,1/2-z
1/2-x,1/2-y,-z
1/2+x,1/2-y,1/2+z
loop_
_atom_site_type_symbol
_atom_site_label
_atom_site_fract_x
_atom_site_fract_y
_atom_site_fract_z
Si Si1 0.487637 0.763505 0.917109
Si Si2 0.987117 0.259200 0.155747
Si Si3 0.104598 0.920057 0.569613
Si Si4 0.263087 0.550610 0.575167
Si Si5 0.848575 0.775439 0.526987
Si Si6 0.215543 0.015863 0.248873
O O1 0.498671 0.516936 0.871283
O O2 0.433386 0.673488 0.930992
O O3 0.477201 0.014602 0.860951
O O4 0.550245 0.776870 0.009294
O O5 0.915459 0.323207 0.094227
O O6 0.000000 0.251082 0.250000
O O7 0.140812 0.990136 0.521897
O O8 0.153153 0.877581 0.667998
O O9 0.250000 0.750000 0.500000
O O10 0.196983 0.425477 0.542615
O O11 0.312267 0.358165 0.573450
O O12 0.289508 0.608214 0.673811
O O13 0.241759 0.773064 0.221052
#
# Coordination Sequence:
#
# PCOD9297019 Si02
#       6
#     8   8   8   8   8   8
#     4  10  25  43  72 100 134 190 225 287 347 410
#     4  11  25  44  69 103 140 177 234 284 346 410
#     4  10  23  47  70 100 141 179 236 283 347 415
#     4  11  25  44  69 101 138 187 230 282 357 412
#     4  10  24  44  66  98 139 183 224 289 347 415
#     4  12  27  44  72 105 139 184 236 291 345 418
#
# _framework density 23.262805
#
# number of rings (size 3 to 8) (size 9 to 14) (size 15 to 20)
#    0.000    1.333    1.667    1.500   11.667    8.667 
#    0.000    0.000    0.000    0.000    0.000    0.000 
#    0.000    0.000    0.000    0.000    0.000    0.000 
#
# Total GULP energy -134159.459630 kJ/mol
# GULP energy per Si atom -5589.977485 kJ/mol
# Density = 2.320986 g / cm^3
# Si number density = 23.262805 Si / 1000 Ang^3
#
#
#
# Elastic Constant Matrix: (Units=GPa)
#
#
# Indices 1 2 3 4 5 6 
#
# 1 74.3544 5.4427 21.8820 -0.0002 1.4596 0.0004
# 2 5.4427 81.3328 13.4466 -0.0004 -12.7063 0.0003
# 3 21.8820 13.4466 151.9462 -0.0001 -18.9884 0.0003
# 4 -0.0002 -0.0004 -0.0001 25.0848 0.0000 -8.5822
# 5 1.4596 -12.7063 -18.9884 0.0000 27.6627 -0.0001
# 6 0.0004 0.0003 0.0003 -8.5822 -0.0001 12.2051
#
#
#
# Elastic Compliance Matrix: (Units=1/GPa)
#
#
# Indices 1 2 3 4 5 6 
#
# 1 0.014259 -0.001010 -0.002315 0.000000 -0.002805 0.000000
# 2 -0.001010 0.013345 -0.000288 0.000000 0.005986 0.000000
# 3 -0.002315 -0.000288 0.007590 0.000000 0.005200 0.000000
# 4 0.000000 0.000000 0.000000 0.052493 0.000000 0.036912
# 5 -0.002805 0.005986 0.005200 0.000000 0.042617 0.000000
# 6 0.000000 0.000000 0.000000 0.036912 0.000000 0.107888
#
#
# Mechanical properties :
#
#
# Convention : Reuss Voigt Hill
#
# Bulk Modulus (GPa) = 35.75185 43.24179 39.49682
# Shear Modulus (GPa) = 19.62783 30.78133 25.20458
#
# Velocity S-wave (km/s) = 2.90788 3.64153 3.29518
# Velocity P-wave (km/s) = 5.16492 6.02575 5.61186
#
# Compressibility (1/GPa) = 0.02797058
#
# Stress axis : x y z
#
# Youngs Moduli (GPa) = 70.12982 74.93208 131.75416
#
# Poissons Ratio (x) = 0.07566 0.30497
# Poissons Ratio (y) = 0.07081 0.03789
# Poissons Ratio (z) = 0.16233 0.02155
#
# Static dielectric constant tensor:
#      x y z
#    x 1.876790 0.000000 0.001460 
#    y 0.000000 1.925590 0.000000 
#    z 0.001460 0.000000 1.883950 
# 
# From -- ./inp_files/221016.got.cif
#   From: 2010.05.17/outbox.cif.g08.bks.cpg/sg15_111_cif.got.tgz:221016.got - 2010.06.03 18:47:42.
