data_PCOD9297503
_publ_section_title
;
Structure prediction by ZEFSAII (Michael W. Deem and Ramdas Pophale) SiO2 
 PCOD9297503
Probable space group: C 2/C
;
_chemical_formula_sum "Si O2"
_cell_formula_units_Z 36
_cell_length_a 18.145209
_cell_length_b 4.822252
_cell_length_c 17.021251
_cell_angle_alpha 90.000000
_cell_angle_beta 115.939215
_cell_angle_gamma 90.000000
_cell_volume 1339.331109
_symmetry_space_group_name_H-M "C 2/C"
_symmetry_group_IT_number 15
_symmetry_cell_setting 'monoclinic'
loop_
_space_group_symop_operation_xyz
x,y,z
-x,y,1/2-z
-x,-y,-z
x,-y,1/2+z
1/2+x,1/2+y,z
1/2-x,1/2+y,1/2-z
1/2-x,1/2-y,-z
1/2+x,1/2-y,1/2+z
loop_
_atom_site_type_symbol
_atom_site_label
_atom_site_fract_x
_atom_site_fract_y
_atom_site_fract_z
Si Si1 0.617615 0.041278 0.180443
Si Si2 0.000000 0.442192 0.750000
Si Si3 0.632306 0.786436 0.929351
Si Si4 0.269537 0.577333 0.666539
Si Si5 0.143656 0.208017 0.543733
O O1 0.560455 0.898706 0.218524
O O2 0.658691 0.296768 0.247039
O O3 0.584006 0.179871 0.084770
O O4 0.688741 0.841060 0.179963
O O5 0.053255 0.267680 0.836489
O O6 0.706555 0.700695 0.907006
O O7 0.626904 0.590396 0.002240
O O8 0.637448 0.095168 0.964996
O O9 0.234173 0.272217 0.624178
#
# Coordination Sequence:
#
# PCOD9297503 Si02
#       5
#     8   4   8   8   8
#     4   9  22  39  69 100 140 179 227 278 345 404
#     4  10  24  46  66 100 142 190 222 286 344 418
#     4  11  23  44  68  99 138 175 231 278 349 392
#     4   9  21  39  66 102 132 179 216 286 328 416
#     4  10  24  40  72 101 132 177 229 288 326 413
#
# _framework density 26.879086999999998
#
# number of rings (size 3 to 8) (size 9 to 14) (size 15 to 20)
#    1.333    0.889    0.000    1.333    3.111    6.222 
#    0.000    2.222    0.000    0.000    0.000    0.000 
#    0.000    0.000    0.000    0.000    0.000    0.000 
#
# Total GULP energy -100363.906528 kJ/mol
# GULP energy per Si atom -5575.772585 kJ/mol
# Density = 2.681791 g / cm^3
# Si number density = 26.879087 Si / 1000 Ang^3
#
#
#
# Elastic Constant Matrix: (Units=GPa)
#
#
# Indices 1 2 3 4 5 6 
#
# 1 125.8711 8.6461 39.0768 0.0001 -40.5898 -0.0001
# 2 8.6461 68.7665 21.3533 0.0000 7.0672 -0.0001
# 3 39.0768 21.3533 162.9744 0.0000 -11.2825 -0.0001
# 4 0.0001 0.0000 0.0000 12.1333 -0.0001 -11.2816
# 5 -40.5898 7.0672 -11.2825 -0.0001 56.2875 0.0001
# 6 -0.0001 -0.0001 -0.0001 -11.2816 0.0001 23.7098
#
#
#
# Elastic Compliance Matrix: (Units=1/GPa)
#
#
# Indices 1 2 3 4 5 6 
#
# 1 0.011200 -0.001621 -0.001926 0.000000 0.007894 0.000000
# 2 -0.001621 0.015702 -0.001913 0.000000 -0.003524 0.000000
# 3 -0.001926 -0.001913 0.006864 0.000000 0.000227 0.000000
# 4 0.000000 0.000000 0.000000 0.147813 0.000000 0.070332
# 5 0.007894 -0.003524 0.000227 0.000000 0.023946 0.000000
# 6 0.000000 0.000000 0.000000 0.070332 0.000000 0.075642
#
#
# Mechanical properties :
#
#
# Convention : Reuss Voigt Hill
#
# Bulk Modulus (GPa) = 43.77297 55.08494 49.42895
# Shear Modulus (GPa) = 16.68324 37.66185 27.17254
#
# Velocity S-wave (km/s) = 2.49404 3.74727 3.18294
# Velocity P-wave (km/s) = 4.96127 6.26584 5.65132
#
# Compressibility (1/GPa) = 0.02284515
#
# Stress axis : x y z
#
# Youngs Moduli (GPa) = 89.28961 63.68695 145.68483
#
# Poissons Ratio (x) = 0.10325 0.28066
# Poissons Ratio (y) = 0.14475 0.27863
# Poissons Ratio (z) = 0.17201 0.12180
#
# Static dielectric constant tensor:
#      x y z
#    x 2.237370 0.000000 0.069470 
#    y 0.000000 2.084980 0.000000 
#    z 0.069470 0.000000 2.168390 
# 
# From -- ./inp_files/208171.got.cif
#   From: 2010.05.17/outbox.cif.g08.bks.cpg/sg15_105_cif.got.tgz:208171.got - 2010.06.03 18:47:42.
