data_PCOD9297090
_publ_section_title
;
Structure prediction by ZEFSAII (Michael W. Deem and Ramdas Pophale) SiO2 
 PCOD9297090
Probable space group: C 2/C
;
_chemical_formula_sum "Si O2"
_cell_formula_units_Z 36
_cell_length_a 16.345246
_cell_length_b 10.342418
_cell_length_c 9.483786
_cell_angle_alpha 90.000000
_cell_angle_beta 53.297681
_cell_angle_gamma 90.000000
_cell_volume 1285.390394
_symmetry_space_group_name_H-M "C 2/C"
_symmetry_group_IT_number 15
_symmetry_cell_setting 'monoclinic'
loop_
_space_group_symop_operation_xyz
x,y,z
-x,y,1/2-z
-x,-y,-z
x,-y,1/2+z
1/2+x,1/2+y,z
1/2-x,1/2+y,1/2-z
1/2-x,1/2-y,-z
1/2+x,1/2-y,1/2+z
loop_
_atom_site_type_symbol
_atom_site_label
_atom_site_fract_x
_atom_site_fract_y
_atom_site_fract_z
Si Si1 0.789372 0.996871 0.334009
Si Si2 0.500000 0.423361 0.250000
Si Si3 0.705433 0.258491 0.386702
Si Si4 0.399584 0.011230 0.761576
Si Si5 0.002340 0.723478 0.997669
O O1 0.759100 0.125402 0.278507
O O2 0.568829 0.118082 0.350492
O O3 0.899582 0.997433 0.296770
O O4 0.698915 0.989158 0.542344
O O5 0.528530 0.331961 0.085972
O O6 0.750000 0.250000 0.500000
O O7 0.713353 0.374499 0.266380
O O8 0.581225 0.264071 0.531785
O O9 0.500000 0.031909 0.750000
O O10 0.404885 0.138547 0.657411
#
# Coordination Sequence:
#
# PCOD9297090 Si02
#       5
#     8   4   8   8   8
#     4  11  27  54  88 124 175 233 291 360 441 528
#     4  10  24  52  84 122 178 230 276 368 460 516
#     4  11  27  52  83 126 169 230 290 364 430 528
#     4  11  22  45  81 123 160 222 305 349 407 516
#     4  10  23  47  79 124 166 225 290 355 426 529
#
# _framework density 28.007055999999999
#
# number of rings (size 3 to 8) (size 9 to 14) (size 15 to 20)
#    0.000    1.333    3.333    0.000    3.111    3.556 
#    8.000    8.889    0.000    0.000    5.778    0.000 
#    0.000    0.000    0.000    0.000    0.000    0.000 
#
# Total GULP energy -100743.909272 kJ/mol
# GULP energy per Si atom -5596.883848 kJ/mol
# Density = 2.794331 g / cm^3
# Si number density = 28.007056 Si / 1000 Ang^3
#
#
#
# Elastic Constant Matrix: (Units=GPa)
#
#
# Indices 1 2 3 4 5 6 
#
# 1 236.6154 46.9706 41.5189 0.0000 -31.1989 0.0000
# 2 46.9706 177.2892 71.0610 0.0000 2.3914 0.0000
# 3 41.5189 71.0610 187.5849 0.0000 -25.6476 0.0000
# 4 0.0000 0.0000 0.0000 66.0607 0.0000 22.9140
# 5 -31.1989 2.3914 -25.6476 0.0000 42.2832 0.0000
# 6 0.0000 0.0000 0.0000 22.9140 0.0000 44.6601
#
#
#
# Elastic Compliance Matrix: (Units=1/GPa)
#
#
# Indices 1 2 3 4 5 6 
#
# 1 0.004997 -0.001337 -0.000093 0.000000 0.003706 0.000000
# 2 -0.001337 0.007179 -0.002851 0.000000 -0.003121 0.000000
# 3 -0.000093 -0.002851 0.007027 0.000000 0.004355 0.000000
# 4 0.000000 0.000000 0.000000 0.018415 0.000000 -0.009448
# 5 0.003706 -0.003121 0.004355 0.000000 0.029203 0.000000
# 6 0.000000 0.000000 0.000000 -0.009448 0.000000 0.027239
#
#
# Mechanical properties :
#
#
# Convention : Reuss Voigt Hill
#
# Bulk Modulus (GPa) = 93.96259 102.28783 98.12521
# Shear Modulus (GPa) = 47.09581 60.06338 53.57960
#
# Velocity S-wave (km/s) = 4.10514 4.63599 4.37862
# Velocity P-wave (km/s) = 7.48946 8.07824 7.78942
#
# Compressibility (1/GPa) = 0.01064253
#
# Stress axis : x y z
#
# Youngs Moduli (GPa) = 200.13887 139.28990 142.31298
#
# Poissons Ratio (x) = 0.18616 0.01322
# Poissons Ratio (y) = 0.26749 0.40568
# Poissons Ratio (z) = 0.01859 0.39706
#
# Static dielectric constant tensor:
#      x y z
#    x 1.131660 0.000000 0.323570 
#    y 0.000000 2.655260 0.000000 
#    z 0.323570 0.000000 2.044630 
# 
# From -- ./inp_files/85359.got.cif
#   From: 2010.05.17/outbox.cif.g08.bks.cpg/sg15_43_cif.got.tgz:85359.got - 2010.06.03 18:47:42.
