data_PCOD9297608
_publ_section_title
;
Structure prediction by ZEFSAII (Michael W. Deem and Ramdas Pophale) SiO2 
 PCOD9297608
Probable space group: C 2/C
;
_chemical_formula_sum "Si O2"
_cell_formula_units_Z 32
_cell_length_a 21.972484
_cell_length_b 7.472241
_cell_length_c 11.468808
_cell_angle_alpha 90.000000
_cell_angle_beta 46.706312
_cell_angle_gamma 90.000000
_cell_volume 1370.532017
_symmetry_space_group_name_H-M "C 2/C"
_symmetry_group_IT_number 15
_symmetry_cell_setting 'monoclinic'
loop_
_space_group_symop_operation_xyz
x,y,z
-x,y,1/2-z
-x,-y,-z
x,-y,1/2+z
1/2+x,1/2+y,z
1/2-x,1/2+y,1/2-z
1/2-x,1/2-y,-z
1/2+x,1/2-y,1/2+z
loop_
_atom_site_type_symbol
_atom_site_label
_atom_site_fract_x
_atom_site_fract_y
_atom_site_fract_z
Si Si1 0.673577 0.632298 0.240748
Si Si2 0.054484 0.705156 0.082181
Si Si3 0.064493 0.163178 0.928038
Si Si4 0.131158 0.662991 0.563835
O O1 0.632512 0.701266 0.415395
O O2 0.647373 0.423906 0.263051
O O3 0.634506 0.751705 0.187706
O O4 0.772534 0.652335 0.104662
O O5 0.089525 0.530308 0.100363
O O6 0.000000 0.812313 0.250000
O O7 0.982701 0.680037 0.077965
O O8 0.083112 0.213263 0.035148
O O9 0.000000 0.000000 0.000000
#
# Coordination Sequence:
#
# PCOD9297608 Si02
#       4
#     8   8   8   8
#     4  10  25  46  69  99 138 183 221 280 339 406
#     4  11  26  42  69 104 135 176 226 281 336 398
#     4  10  24  41  68  97 134 177 225 277 333 398
#     4  11  24  45  70  99 140 178 228 277 339 403
#
# _framework density 23.348599
#
# number of rings (size 3 to 8) (size 9 to 14) (size 15 to 20)
#    0.000    1.500    0.000    2.250   17.500    0.000 
#    0.000    2.500    0.000    0.000    0.000    0.000 
#    0.000    0.000    0.000    0.000    0.000    0.000 
#
# Total GULP energy -89336.450213 kJ/mol
# GULP energy per Si atom -5583.528138 kJ/mol
# Density = 2.329546 g / cm^3
# Si number density = 23.348599 Si / 1000 Ang^3
#
#
#
# Elastic Constant Matrix: (Units=GPa)
#
#
# Indices 1 2 3 4 5 6 
#
# 1 110.3586 20.2942 30.3107 0.0000 -6.1859 0.0000
# 2 20.2942 64.7943 18.5276 0.0000 -2.5325 0.0000
# 3 30.3107 18.5276 154.1476 0.0000 -4.5305 0.0000
# 4 0.0000 0.0000 0.0000 51.7586 0.0000 8.0002
# 5 -6.1859 -2.5325 -4.5305 0.0000 23.5593 0.0000
# 6 0.0000 0.0000 0.0000 8.0002 0.0000 55.8400
#
#
#
# Elastic Compliance Matrix: (Units=1/GPa)
#
#
# Indices 1 2 3 4 5 6 
#
# 1 0.010102 -0.002623 -0.001610 0.000000 0.002061 0.000000
# 2 -0.002623 0.016707 -0.001468 0.000000 0.000825 0.000000
# 3 -0.001610 -0.001468 0.007003 0.000000 0.000766 0.000000
# 4 0.000000 0.000000 0.000000 0.019758 0.000000 -0.002831
# 5 0.002061 0.000825 0.000766 0.000000 0.043223 0.000000
# 6 0.000000 0.000000 0.000000 -0.002831 0.000000 0.018314
#
#
# Mechanical properties :
#
#
# Convention : Reuss Voigt Hill
#
# Bulk Modulus (GPa) = 44.62571 51.95171 48.28871
# Shear Modulus (GPa) = 37.31934 43.57612 40.44773
#
# Velocity S-wave (km/s) = 4.00228 4.32479 4.16666
# Velocity P-wave (km/s) = 6.36490 6.87293 6.62379
#
# Compressibility (1/GPa) = 0.02240861
#
# Stress axis : x y z
#
# Youngs Moduli (GPa) = 98.99490 59.85518 142.79729
#
# Poissons Ratio (x) = 0.15699 0.22997
# Poissons Ratio (y) = 0.25965 0.20964
# Poissons Ratio (z) = 0.15943 0.08787
#
# Static dielectric constant tensor:
#      x y z
#    x 1.916330 0.000000 0.004570 
#    y 0.000000 1.965430 0.000000 
#    z 0.004570 0.000000 1.926230 
# 
# From -- ./inp_files/102145.got.cif
#   From: 2010.05.17/outbox.cif.g08.bks.cpg/sg15_52_cif.got.tgz:102145.got - 2010.06.03 18:47:42.
