data_PCOD9297834
_publ_section_title
;
Structure prediction by ZEFSAII (Michael W. Deem and Ramdas Pophale) SiO2 
 PCOD9297834
Probable space group: C 2/C
;
_chemical_formula_sum "Si O2"
_cell_formula_units_Z 36
_cell_length_a 13.992902
_cell_length_b 16.531249
_cell_length_c 9.176111
_cell_angle_alpha 90.000000
_cell_angle_beta 134.251190
_cell_angle_gamma 90.000000
_cell_volume 1520.405601
_symmetry_space_group_name_H-M "C 2/C"
_symmetry_group_IT_number 15
_symmetry_cell_setting 'monoclinic'
loop_
_space_group_symop_operation_xyz
x,y,z
-x,y,1/2-z
-x,-y,-z
x,-y,1/2+z
1/2+x,1/2+y,z
1/2-x,1/2+y,1/2-z
1/2-x,1/2-y,-z
1/2+x,1/2-y,1/2+z
loop_
_atom_site_type_symbol
_atom_site_label
_atom_site_fract_x
_atom_site_fract_y
_atom_site_fract_z
Si Si1 0.975618 0.404229 0.988728
Si Si2 0.500000 0.806416 0.750000
Si Si3 0.776630 0.103655 0.810774
Si Si4 0.214706 0.937484 0.854032
Si Si5 0.525065 0.654834 0.930392
O O1 0.123733 0.370057 0.168788
O O2 0.860783 0.397424 0.984973
O O3 0.000000 0.500000 0.000000
O O4 0.926009 0.364931 0.784033
O O5 0.580727 0.740440 0.931357
O O6 0.882749 0.166460 0.859078
O O7 0.777143 0.028977 0.696936
O O8 0.822388 0.071356 0.017264
O O9 0.115618 0.891736 0.639691
O O10 0.500000 0.609152 0.750000
#
# Coordination Sequence:
#
# PCOD9297834 Si02
#       5
#     8   4   8   8   8
#     4  10  25  40  71  98 129 176 228 283 335 411
#     4  10  26  46  72  96 144 180 230 270 364 402
#     4  11  23  41  68 102 139 178 229 280 334 399
#     4  11  23  41  68 102 139 178 229 280 334 399
#     4  10  24  42  68  95 135 186 223 270 339 410
#
# _framework density 23.677892
#
# number of rings (size 3 to 8) (size 9 to 14) (size 15 to 20)
#    0.667    0.889    0.000    3.333   15.556    3.556 
#    0.000    6.667    0.000    0.000    0.000    0.000 
#    0.000    0.000    0.000    0.000    0.000    0.000 
#
# Total GULP energy -100414.567693 kJ/mol
# GULP energy per Si atom -5578.587094 kJ/mol
# Density = 2.362400 g / cm^3
# Si number density = 23.677892 Si / 1000 Ang^3
#
#
#
# Elastic Constant Matrix: (Units=GPa)
#
#
# Indices 1 2 3 4 5 6 
#
# 1 136.9157 10.6202 42.7504 0.0000 -17.3250 0.0000
# 2 10.6202 47.7719 18.3852 0.0000 -10.4310 0.0000
# 3 42.7504 18.3852 107.1874 0.0000 -8.6920 0.0000
# 4 0.0000 0.0000 0.0000 21.9976 0.0000 -16.7901
# 5 -17.3250 -10.4310 -8.6920 0.0000 53.6583 0.0000
# 6 0.0000 0.0000 0.0000 -16.7901 0.0000 22.0261
#
#
#
# Elastic Compliance Matrix: (Units=1/GPa)
#
#
# Indices 1 2 3 4 5 6 
#
# 1 0.008605 -0.000189 -0.003219 0.000000 0.002220 0.000000
# 2 -0.000189 0.023201 -0.003590 0.000000 0.003868 0.000000
# 3 -0.003219 -0.003590 0.011236 0.000000 0.000083 0.000000
# 4 0.000000 0.000000 0.000000 0.108711 0.000000 0.082869
# 5 0.002220 0.003868 0.000083 0.000000 0.020118 0.000000
# 6 0.000000 0.000000 0.000000 0.082869 0.000000 0.108570
#
#
# Mechanical properties :
#
#
# Convention : Reuss Voigt Hill
#
# Bulk Modulus (GPa) = 34.43089 48.37631 41.40360
# Shear Modulus (GPa) = 16.44085 34.21100 25.32592
#
# Velocity S-wave (km/s) = 2.63792 3.80524 3.27403
# Velocity P-wave (km/s) = 4.88376 6.30728 5.64061
#
# Compressibility (1/GPa) = 0.02904368
#
# Stress axis : x y z
#
# Youngs Moduli (GPa) = 116.21758 43.10127 88.99948
#
# Poissons Ratio (x) = 0.00815 0.28652
# Poissons Ratio (y) = 0.02199 0.31955
# Poissons Ratio (z) = 0.37415 0.15475
#
# Static dielectric constant tensor:
#      x y z
#    x 1.894350 0.000000 0.012560 
#    y 0.000000 1.911800 0.000000 
#    z 0.012560 0.000000 2.006130 
# 
# From -- ./inp_files/41321.got.cif
#   From: 2010.05.17/outbox.cif.g08.bks.cpg/sg15_21_cif.got.tgz:41321.got - 2010.06.03 18:47:42.
