data_PCOD9297222
_publ_section_title
;
Structure prediction by ZEFSAII (Michael W. Deem and Ramdas Pophale) SiO2 
 PCOD9297222
Probable space group: C 2/C
;
_chemical_formula_sum "Si O2"
_cell_formula_units_Z 44
_cell_length_a 14.302564
_cell_length_b 14.088296
_cell_length_c 9.017389
_cell_angle_alpha 90.000000
_cell_angle_beta 72.933470
_cell_angle_gamma 90.000000
_cell_volume 1736.980694
_symmetry_space_group_name_H-M "C 2/C"
_symmetry_group_IT_number 15
_symmetry_cell_setting 'monoclinic'
loop_
_space_group_symop_operation_xyz
x,y,z
-x,y,1/2-z
-x,-y,-z
x,-y,1/2+z
1/2+x,1/2+y,z
1/2-x,1/2+y,1/2-z
1/2-x,1/2-y,-z
1/2+x,1/2-y,1/2+z
loop_
_atom_site_type_symbol
_atom_site_label
_atom_site_fract_x
_atom_site_fract_y
_atom_site_fract_z
Si Si1 0.500000 0.457921 0.750000
Si Si2 0.384609 0.414118 0.536399
Si Si3 0.672474 0.928244 0.687237
Si Si4 0.790767 0.766005 0.146098
Si Si5 0.381775 0.110386 0.625731
Si Si6 0.996297 0.744439 0.420168
O O1 0.427873 0.400416 0.680336
O O2 0.556440 0.522911 0.606981
O O3 0.282422 0.464114 0.606874
O O4 0.398471 0.309375 0.463947
O O5 0.691450 0.835247 0.779488
O O6 0.637735 0.907538 0.538513
O O7 0.611931 0.010319 0.794956
O O8 0.710058 0.830432 0.265886
O O9 0.903815 0.803622 0.096313
O O10 0.750000 0.750000 0.000000
O O11 0.480753 0.171806 0.562771
O O12 0.000000 0.705468 0.250000
#
# Coordination Sequence:
#
# PCOD9297222 Si02
#       6
#     4   8   8   8   8   8
#     4  10  24  36  60 106 142 182 236 306 370 442
#     4  11  23  40  67 103 142 188 239 304 375 432
#     4  12  25  47  76 107 152 200 248 310 380 445
#     4  12  28  48  75 113 150 197 254 310 377 450
#     4  12  27  50  77 110 152 197 254 312 376 453
#     4  12  25  48  76 107 149 200 249 308 381 446
#
# _framework density 25.331312
#
# number of rings (size 3 to 8) (size 9 to 14) (size 15 to 20)
#    0.000    0.364    4.545    3.818    7.636    1.455 
#    0.000    0.000    0.000    0.000    0.000    0.000 
#    0.000    0.000    0.000    0.000    0.000    0.000 
#
# Total GULP energy -123056.359811 kJ/mol
# GULP energy per Si atom -5593.470901 kJ/mol
# Density = 2.527366 g / cm^3
# Si number density = 25.331312 Si / 1000 Ang^3
#
#
#
# Elastic Constant Matrix: (Units=GPa)
#
#
# Indices 1 2 3 4 5 6 
#
# 1 70.8189 -11.6313 32.8615 0.0000 -0.4816 0.0000
# 2 -11.6313 104.1824 59.7495 0.0000 -5.0392 0.0000
# 3 32.8615 59.7495 163.0530 0.0000 17.6136 0.0000
# 4 0.0000 0.0000 0.0000 59.5551 0.0000 -7.1118
# 5 -0.4816 -5.0392 17.6136 0.0000 35.4843 0.0000
# 6 0.0000 0.0000 0.0000 -7.1118 0.0000 21.2317
#
#
#
# Elastic Compliance Matrix: (Units=1/GPa)
#
#
# Indices 1 2 3 4 5 6 
#
# 1 0.017953 0.005740 -0.006167 0.000000 0.004120 0.000000
# 2 0.005740 0.014598 -0.007120 0.000000 0.005685 0.000000
# 3 -0.006167 -0.007120 0.010676 0.000000 -0.006394 0.000000
# 4 0.000000 0.000000 0.000000 0.017491 0.000000 0.005859
# 5 0.004120 0.005685 -0.006394 0.000000 0.032219 0.000000
# 6 0.000000 0.000000 0.000000 0.005859 0.000000 0.049062
#
#
# Mechanical properties :
#
#
# Convention : Reuss Voigt Hill
#
# Bulk Modulus (GPa) = 35.54558 55.55709 45.55133
# Shear Modulus (GPa) = 30.03562 40.39252 35.21407
#
# Velocity S-wave (km/s) = 3.44715 3.99754 3.73250
# Velocity P-wave (km/s) = 5.46869 6.57928 6.04952
#
# Compressibility (1/GPa) = 0.02813290
#
# Stress axis : x y z
#
# Youngs Moduli (GPa) = 55.70156 68.50253 93.67048
#
# Poissons Ratio (x) = -0.39322 0.57764
# Poissons Ratio (y) = -0.31974 0.66697
# Poissons Ratio (z) = 0.34350 0.48776
#
# Static dielectric constant tensor:
#      x y z
#    x 2.160320 0.000000 -0.058870 
#    y 0.000000 2.063220 0.000000 
#    z -0.058870 0.000000 1.972910 
# 
# From -- ./inp_files/46997.got.cif
#   From: 2010.05.17/outbox.cif.g08.bks.cpg/sg15_24_cif.got.tgz:46997.got - 2010.06.03 18:47:42.
