data_PCOD9297452
_publ_section_title
;
Structure prediction by ZEFSAII (Michael W. Deem and Ramdas Pophale) SiO2 
 PCOD9297452
Probable space group: C 2/C
;
_chemical_formula_sum "Si O2"
_cell_formula_units_Z 36
_cell_length_a 13.902794
_cell_length_b 21.722811
_cell_length_c 9.048212
_cell_angle_alpha 90.000000
_cell_angle_beta 143.425360
_cell_angle_gamma 90.000000
_cell_volume 1628.290986
_symmetry_space_group_name_H-M "C 2/C"
_symmetry_group_IT_number 15
_symmetry_cell_setting 'monoclinic'
loop_
_space_group_symop_operation_xyz
x,y,z
-x,y,1/2-z
-x,-y,-z
x,-y,1/2+z
1/2+x,1/2+y,z
1/2-x,1/2+y,1/2-z
1/2-x,1/2-y,-z
1/2+x,1/2-y,1/2+z
loop_
_atom_site_type_symbol
_atom_site_label
_atom_site_fract_x
_atom_site_fract_y
_atom_site_fract_z
Si Si1 0.189486 0.318545 0.956690
Si Si2 0.500000 0.767178 0.250000
Si Si3 0.261876 0.165825 0.654161
Si Si4 0.817825 0.933041 0.962237
Si Si5 0.806111 0.451194 0.018505
O O1 0.000000 0.316423 0.750000
O O2 0.250000 0.250000 0.000000
O O3 0.252165 0.345240 0.189769
O O4 0.245987 0.365280 0.901241
O O5 0.567456 0.808270 0.198526
O O6 0.640138 0.721497 0.473373
O O7 0.232843 0.103783 0.527457
O O8 0.000000 0.934148 0.250000
O O9 0.784020 0.949073 0.750003
O O10 0.722180 0.983575 0.939134
O O11 0.000000 0.441876 0.250000
#
# Coordination Sequence:
#
# PCOD9297452 Si02
#       5
#     8   4   8   8   8
#     4  12  26  44  70 102 145 182 228 284 351 414
#     4  10  24  40  68 100 138 176 228 276 344 402
#     4  11  24  42  70  99 138 180 230 279 344 411
#     4  12  28  46  71 104 139 184 235 288 353 413
#     4  12  25  47  73  99 140 184 238 288 349 415
#
# _framework density 22.109071
#
# number of rings (size 3 to 8) (size 9 to 14) (size 15 to 20)
#    0.000    0.444    1.111    6.667   10.889    0.000 
#    0.000    0.000    0.000    0.000    0.000    0.000 
#    0.000    0.000    0.000    0.000    0.000    0.000 
#
# Total GULP energy -100740.320340 kJ/mol
# GULP energy per Si atom -5596.684463 kJ/mol
# Density = 2.205875 g / cm^3
# Si number density = 22.109071 Si / 1000 Ang^3
#
#
#
# Elastic Constant Matrix: (Units=GPa)
#
#
# Indices 1 2 3 4 5 6 
#
# 1 51.1076 19.2483 24.2556 0.0000 -12.6343 0.0000
# 2 19.2483 132.9462 13.3089 0.0000 -14.4730 0.0000
# 3 24.2556 13.3089 109.2726 0.0000 -17.1790 0.0000
# 4 0.0000 0.0000 0.0000 27.5991 0.0000 -9.9930
# 5 -12.6343 -14.4730 -17.1790 0.0000 48.3562 0.0000
# 6 0.0000 0.0000 0.0000 -9.9930 0.0000 147.1529
#
#
#
# Elastic Compliance Matrix: (Units=1/GPa)
#
#
# Indices 1 2 3 4 5 6 
#
# 1 0.023524 -0.002556 -0.004305 0.000000 0.003852 0.000000
# 2 -0.002556 0.008092 -0.000151 0.000000 0.001701 0.000000
# 3 -0.004305 -0.000151 0.010530 0.000000 0.002571 0.000000
# 4 0.000000 0.000000 0.000000 0.037146 0.000000 0.002523
# 5 0.003852 0.001701 0.002571 0.000000 0.023109 0.000000
# 6 0.000000 0.000000 0.000000 0.002523 0.000000 0.006967
#
#
# Mechanical properties :
#
#
# Convention : Reuss Voigt Hill
#
# Bulk Modulus (GPa) = 35.55795 45.21688 40.38741
# Shear Modulus (GPa) = 37.66036 60.38919 49.02478
#
# Velocity S-wave (km/s) = 4.13169 5.23197 4.71404
# Velocity P-wave (km/s) = 6.23531 7.54945 6.92363
#
# Compressibility (1/GPa) = 0.02812311
#
# Stress axis : x y z
#
# Youngs Moduli (GPa) = 42.50891 123.57740 94.97084
#
# Poissons Ratio (x) = 0.31582 0.40884
# Poissons Ratio (y) = 0.10864 0.01434
# Poissons Ratio (z) = 0.18300 0.01865
#
# Static dielectric constant tensor:
#      x y z
#    x 1.784360 0.000000 0.061980 
#    y 0.000000 1.754270 0.000000 
#    z 0.061980 0.000000 1.665010 
# 
# From -- ./inp_files/32353.got.cif
#   From: 2010.05.17/outbox.cif.g08.bks.cpg/sg15_17_cif.got.tgz:32353.got - 2010.06.03 18:47:42.
