data_PCOD9297211
_publ_section_title
;
Structure prediction by ZEFSAII (Michael W. Deem and Ramdas Pophale) SiO2 
 PCOD9297211
Probable space group: C 2/C
;
_chemical_formula_sum "Si O2"
_cell_formula_units_Z 36
_cell_length_a 16.812632
_cell_length_b 13.279325
_cell_length_c 18.182002
_cell_angle_alpha 90.000000
_cell_angle_beta 153.764229
_cell_angle_gamma 90.000000
_cell_volume 1794.487625
_symmetry_space_group_name_H-M "C 2/C"
_symmetry_group_IT_number 15
_symmetry_cell_setting 'monoclinic'
loop_
_space_group_symop_operation_xyz
x,y,z
-x,y,1/2-z
-x,-y,-z
x,-y,1/2+z
1/2+x,1/2+y,z
1/2-x,1/2+y,1/2-z
1/2-x,1/2-y,-z
1/2+x,1/2-y,1/2+z
loop_
_atom_site_type_symbol
_atom_site_label
_atom_site_fract_x
_atom_site_fract_y
_atom_site_fract_z
Si Si1 0.500000 0.191581 0.250000
Si Si2 0.930499 0.078202 0.269621
Si Si3 0.900364 0.136165 0.553299
Si Si4 0.063127 0.607650 0.027165
Si Si5 0.115262 0.807979 0.626705
O O1 0.685098 0.130881 0.390835
O O2 0.530510 0.267153 0.343987
O O3 0.713958 0.089356 0.090281
O O4 0.988791 0.138049 0.391916
O O5 0.000000 0.118093 0.250000
O O6 0.996826 0.963762 0.335099
O O7 0.932529 0.153462 0.493537
O O8 0.181012 0.658938 0.189164
O O9 0.000000 0.500000 0.000000
O O10 0.911024 0.688898 0.885120
#
# Coordination Sequence:
#
# PCOD9297211 Si02
#       5
#     4   8   8   8   8
#     4  10  24  34  72  96 142 162 220 284 348 394
#     4  10  24  41  65  92 134 173 224 270 323 395
#     4  11  21  42  62 103 130 173 213 281 340 400
#     4  10  25  42  69  98 131 177 221 276 325 403
#     4  10  24  41  68  93 133 175 222 269 333 397
#
# _framework density 20.061436
#
# number of rings (size 3 to 8) (size 9 to 14) (size 15 to 20)
#    1.333    0.444    1.111    2.000    6.222    2.667 
#    0.000    0.000    0.000    0.000    0.000    0.000 
#    0.000    0.000    0.000    0.000    0.000    0.000 
#
# Total GULP energy -100320.929422 kJ/mol
# GULP energy per Si atom -5573.384968 kJ/mol
# Density = 2.001578 g / cm^3
# Si number density = 20.061436 Si / 1000 Ang^3
#
#
#
# Elastic Constant Matrix: (Units=GPa)
#
#
# Indices 1 2 3 4 5 6 
#
# 1 154.3186 34.9907 20.4354 0.0000 -15.6162 0.0001
# 2 34.9907 124.8083 33.2362 0.0005 8.6576 0.0002
# 3 20.4354 33.2362 62.1126 0.0001 5.4582 0.0002
# 4 0.0000 0.0005 0.0001 38.1487 0.0002 8.5770
# 5 -15.6162 8.6576 5.4582 0.0002 12.5315 0.0001
# 6 0.0001 0.0002 0.0002 8.5770 0.0001 27.5365
#
#
#
# Elastic Compliance Matrix: (Units=1/GPa)
#
#
# Indices 1 2 3 4 5 6 
#
# 1 0.008896 -0.002759 -0.002695 0.000000 0.014166 0.000000
# 2 -0.002759 0.010444 -0.003894 0.000000 -0.008958 0.000000
# 3 -0.002695 -0.003894 0.019890 0.000000 -0.009332 0.000000
# 4 0.000000 0.000000 0.000000 0.028187 0.000000 -0.008780
# 5 0.014166 -0.008958 -0.009332 0.000000 0.107705 0.000000
# 6 0.000000 0.000000 0.000000 -0.008780 0.000000 0.039050
#
#
# Mechanical properties :
#
#
# Convention : Reuss Voigt Hill
#
# Bulk Modulus (GPa) = 48.69925 57.61824 53.15875
# Shear Modulus (GPa) = 20.85823 32.48183 26.67003
#
# Velocity S-wave (km/s) = 3.22796 4.02819 3.65007
# Velocity P-wave (km/s) = 6.18229 7.10059 6.65729
#
# Compressibility (1/GPa) = 0.02053420
#
# Stress axis : x y z
#
# Youngs Moduli (GPa) = 112.40818 95.74849 50.27605
#
# Poissons Ratio (x) = 0.26417 0.13552
# Poissons Ratio (y) = 0.31013 0.19576
# Poissons Ratio (z) = 0.30299 0.37282
#
# Static dielectric constant tensor:
#      x y z
#    x 1.659760 0.000000 -0.058280 
#    y 0.000000 1.684010 0.000000 
#    z -0.058280 0.000000 1.724580 
# 
# From -- ./inp_files/60440.got.cif
#   From: 2010.05.17/outbox.cif.g08.bks.cpg/sg15_31_cif.got.tgz:60440.got - 2010.06.03 18:47:42.
