data_PCOD9297645
_publ_section_title
;
Structure prediction by ZEFSAII (Michael W. Deem and Ramdas Pophale) SiO2 
 PCOD9297645
Probable space group: C 2/C
;
_chemical_formula_sum "Si O2"
_cell_formula_units_Z 44
_cell_length_a 10.398037
_cell_length_b 22.348216
_cell_length_c 8.708859
_cell_angle_alpha 90.000000
_cell_angle_beta 69.847189
_cell_angle_gamma 90.000000
_cell_volume 1899.844089
_symmetry_space_group_name_H-M "C 2/C"
_symmetry_group_IT_number 15
_symmetry_cell_setting 'monoclinic'
loop_
_space_group_symop_operation_xyz
x,y,z
-x,y,1/2-z
-x,-y,-z
x,-y,1/2+z
1/2+x,1/2+y,z
1/2-x,1/2+y,1/2-z
1/2-x,1/2-y,-z
1/2+x,1/2-y,1/2+z
loop_
_atom_site_type_symbol
_atom_site_label
_atom_site_fract_x
_atom_site_fract_y
_atom_site_fract_z
Si Si1 0.715219 0.301407 0.718127
Si Si2 0.843981 0.066744 0.364510
Si Si3 0.537764 0.269558 0.487610
Si Si4 0.000000 0.500317 0.250000
Si Si5 0.665412 0.948956 0.439440
Si Si6 0.382523 0.607712 0.694415
O O1 0.706542 0.373393 0.702498
O O2 0.627462 0.278783 0.606142
O O3 0.874060 0.281442 0.636777
O O4 0.622172 0.273103 0.894320
O O5 0.842939 0.076542 0.549919
O O6 0.000000 0.060065 0.250000
O O7 0.759427 0.007057 0.367848
O O8 0.562724 0.328628 0.378409
O O9 0.042005 0.457199 0.371298
O O10 0.886190 0.543325 0.368459
O O11 0.750308 0.891488 0.357385
O O12 0.500000 0.578145 0.750000
#
# Coordination Sequence:
#
# PCOD9297645 Si02
#       6
#     8   8   8   4   8   8
#     4   9  17  36  62  86 119 156 211 253 303 369
#     4  11  21  39  65  92 121 161 213 257 304 368
#     4   9  18  37  58  90 117 159 204 260 303 365
#     4  10  24  42  56  84 138 158 204 252 300 382
#     4  11  23  41  62  90 125 169 201 255 314 372
#     4  11  23  39  63  94 125 158 209 264 306 365
#
# _framework density 23.159797000000001
#
# number of rings (size 3 to 8) (size 9 to 14) (size 15 to 20)
#    0.000    1.818    5.455    0.545    2.545    1.455 
#    6.545    0.909    2.000    0.000    0.000    0.000 
#    0.000    0.000    0.000    0.000    0.000    0.000 
#
# Total GULP energy -122681.115831 kJ/mol
# GULP energy per Si atom -5576.414356 kJ/mol
# Density = 2.310708 g / cm^3
# Si number density = 23.159797 Si / 1000 Ang^3
#
#
#
# Elastic Constant Matrix: (Units=GPa)
#
#
# Indices 1 2 3 4 5 6 
#
# 1 40.6485 13.7076 26.3074 0.0000 2.4384 0.0000
# 2 13.7076 66.9851 29.3590 0.0000 -17.2488 0.0000
# 3 26.3074 29.3590 126.0600 0.0000 -40.6008 0.0000
# 4 0.0000 0.0000 0.0000 0.3795 0.0000 3.1748
# 5 2.4384 -17.2488 -40.6008 0.0000 39.1481 0.0000
# 6 0.0000 0.0000 0.0000 3.1748 0.0000 -8.4112
#
#
#
# Elastic Compliance Matrix: (Units=1/GPa)
#
#
# Indices 1 2 3 4 5 6 
#
# 1 0.035016 -0.006566 -0.011130 0.000000 -0.016617 0.000000
# 2 -0.006566 0.018527 -0.000276 0.000000 0.008286 0.000000
# 3 -0.011130 -0.000276 0.015772 0.000000 0.016929 0.000000
# 4 0.000000 0.000000 0.000000 0.633781 0.000000 0.239217
# 5 -0.016617 0.008286 0.016929 0.000000 0.047787 0.000000
# 6 0.000000 0.000000 0.000000 0.239217 0.000000 -0.028598
#
#
# Mechanical properties :
#
#
# Convention : Reuss Voigt Hill
#
# Bulk Modulus (GPa) = 29.96683 41.38241 35.67462
# Shear Modulus (GPa) = 6.49896 17.17793 11.83845
#
# Velocity S-wave (km/s) = 1.67697 2.72640 2.26335
# Velocity P-wave (km/s) = 4.08863 5.27428 4.71884
#
# Compressibility (1/GPa) = 0.03337023
#
# Stress axis : x y z
#
# Youngs Moduli (GPa) = 28.55863 53.97554 63.40273
#
# Poissons Ratio (x) = 0.35442 0.70568
# Poissons Ratio (y) = 0.18752 0.01749
# Poissons Ratio (z) = 0.31786 0.01489
#
# Static dielectric constant tensor:
#      x y z
#    x 1.944250 0.000000 -0.033770 
#    y 0.000000 1.880120 0.000000 
#    z -0.033770 0.000000 1.938720 
# 
# From -- ./inp_files/32460.got.cif
#   From: 2010.05.17/outbox.cif.g08.bks.cpg/sg15_17_cif.got.tgz:32460.got - 2010.06.03 18:47:42.
