data_PCOD9297922
_publ_section_title
;
Structure prediction by ZEFSAII (Michael W. Deem and Ramdas Pophale) SiO2 
 PCOD9297922
Probable space group: C 2/C
;
_chemical_formula_sum "Si O2"
_cell_formula_units_Z 40
_cell_length_a 9.163229
_cell_length_b 17.957495
_cell_length_c 14.318122
_cell_angle_alpha 90.000000
_cell_angle_beta 54.571066
_cell_angle_gamma 90.000000
_cell_volume 1919.774031
_symmetry_space_group_name_H-M "C 2/C"
_symmetry_group_IT_number 15
_symmetry_cell_setting 'monoclinic'
loop_
_space_group_symop_operation_xyz
x,y,z
-x,y,1/2-z
-x,-y,-z
x,-y,1/2+z
1/2+x,1/2+y,z
1/2-x,1/2+y,1/2-z
1/2-x,1/2-y,-z
1/2+x,1/2-y,1/2+z
loop_
_atom_site_type_symbol
_atom_site_label
_atom_site_fract_x
_atom_site_fract_y
_atom_site_fract_z
Si Si1 0.121361 0.011058 0.862423
Si Si2 0.032020 0.145467 0.342130
Si Si3 0.175081 0.273791 0.428125
Si Si4 0.500000 0.623126 0.750000
Si Si5 0.154692 0.670675 0.518837
Si Si6 0.000000 0.410020 0.250000
O O1 0.025387 0.070634 0.830501
O O2 0.320410 0.041772 0.806741
O O3 0.139079 0.931259 0.804914
O O4 0.000000 0.000000 0.000000
O O5 0.119790 0.204534 0.381020
O O6 0.000000 0.177173 0.250000
O O7 0.829142 0.120690 0.443979
O O8 0.250000 0.250000 0.500000
O O9 0.326468 0.324798 0.325448
O O10 0.987905 0.318562 0.510334
O O11 0.250000 0.750000 0.500000
O O12 0.036776 0.642518 0.648004
#
# Coordination Sequence:
#
# PCOD9297922 Si02
#       6
#     8   8   8   4   8   4
#     4  12  25  48  72 106 148 197 250 311 380 462
#     4  11  25  47  71 103 150 191 248 311 377 458
#     4  11  26  43  72 110 142 191 248 315 371 450
#     4  12  26  45  73 106 152 188 246 312 380 441
#     4  10  24  42  72 102 140 189 249 298 381 445
#     4  12  24  47  75 104 140 202 242 308 380 455
#
# _framework density 20.835785000000001
#
# number of rings (size 3 to 8) (size 9 to 14) (size 15 to 20)
#    0.000    0.800    5.000    1.200   11.200    0.800 
#    3.600    3.000    0.000    0.000    0.000    0.000 
#    0.000    0.000    0.000    0.000    0.000    0.000 
#
# Total GULP energy -111635.642306 kJ/mol
# GULP energy per Si atom -5581.782115 kJ/mol
# Density = 2.078836 g / cm^3
# Si number density = 20.835785 Si / 1000 Ang^3
#
#
#
# Elastic Constant Matrix: (Units=GPa)
#
#
# Indices 1 2 3 4 5 6 
#
# 1 193.7289 72.8602 68.3116 0.0000 -0.6424 0.0000
# 2 72.8602 107.9895 39.4791 0.0000 2.6370 0.0000
# 3 68.3116 39.4791 113.4739 0.0000 6.0020 0.0000
# 4 0.0000 0.0000 0.0000 36.5950 0.0000 0.4187
# 5 -0.6424 2.6370 6.0020 0.0000 44.7957 0.0000
# 6 0.0000 0.0000 0.0000 0.4187 0.0000 44.0560
#
#
#
# Elastic Compliance Matrix: (Units=1/GPa)
#
#
# Indices 1 2 3 4 5 6 
#
# 1 0.007901 -0.004120 -0.003366 0.000000 0.000807 0.000000
# 2 -0.004120 0.012759 -0.001930 0.000000 -0.000552 0.000000
# 3 -0.003366 -0.001930 0.011589 0.000000 -0.001487 0.000000
# 4 0.000000 0.000000 0.000000 0.027329 0.000000 -0.000260
# 5 0.000807 -0.000552 -0.001487 0.000000 0.022567 0.000000
# 6 0.000000 0.000000 0.000000 -0.000260 0.000000 0.022701
#
#
# Mechanical properties :
#
#
# Convention : Reuss Voigt Hill
#
# Bulk Modulus (GPa) = 74.52637 86.27714 80.40176
# Shear Modulus (GPa) = 39.01744 40.72543 39.87144
#
# Velocity S-wave (km/s) = 4.33207 4.42587 4.37922
# Velocity P-wave (km/s) = 7.80183 8.22288 8.01512
#
# Compressibility (1/GPa) = 0.01341807
#
# Stress axis : x y z
#
# Youngs Moduli (GPa) = 126.57019 78.37762 86.29119
#
# Poissons Ratio (x) = 0.32291 0.29042
# Poissons Ratio (y) = 0.52146 0.16650
# Poissons Ratio (z) = 0.42598 0.15123
#
# Static dielectric constant tensor:
#      x y z
#    x 1.750700 0.000000 -0.004870 
#    y 0.000000 1.795570 0.000000 
#    z -0.004870 0.000000 1.833900 
# 
# From -- ./inp_files/134236.got.cif
#   From: 2010.05.17/outbox.cif.g08.bks.cpg/sg15_68_cif.got.tgz:134236.got - 2010.06.03 18:47:42.
