data_PCOD9297737
_publ_section_title
;
Structure prediction by ZEFSAII (Michael W. Deem and Ramdas Pophale) SiO2 
 PCOD9297737
Probable space group: C 2/C
;
_chemical_formula_sum "Si O2"
_cell_formula_units_Z 36
_cell_length_a 18.464067
_cell_length_b 11.328245
_cell_length_c 8.227830
_cell_angle_alpha 90.000000
_cell_angle_beta 71.116675
_cell_angle_gamma 90.000000
_cell_volume 1628.354227
_symmetry_space_group_name_H-M "C 2/C"
_symmetry_group_IT_number 15
_symmetry_cell_setting 'monoclinic'
loop_
_space_group_symop_operation_xyz
x,y,z
-x,y,1/2-z
-x,-y,-z
x,-y,1/2+z
1/2+x,1/2+y,z
1/2-x,1/2+y,1/2-z
1/2-x,1/2-y,-z
1/2+x,1/2-y,1/2+z
loop_
_atom_site_type_symbol
_atom_site_label
_atom_site_fract_x
_atom_site_fract_y
_atom_site_fract_z
Si Si1 0.000000 0.951772 0.250000
Si Si2 0.063681 0.401993 0.414282
Si Si3 0.243567 0.141892 0.131512
Si Si4 0.922714 0.850019 0.592816
Si Si5 0.327186 0.050112 0.378416
O O1 0.938732 0.875384 0.392822
O O2 0.043920 0.038426 0.337905
O O3 0.033396 0.271933 0.401523
O O4 0.115100 0.450596 0.231254
O O5 0.123082 0.385661 0.520799
O O6 0.000000 0.500000 0.500000
O O7 0.163131 0.157155 0.280139
O O8 0.302591 0.127657 0.240748
O O9 0.250000 0.250000 0.000000
O O10 0.258119 0.021640 0.015995
#
# Coordination Sequence:
#
# PCOD9297737 Si02
#       5
#     4   8   8   8   8
#     4  10  26  44  66  96 128 190 228 278 346 410
#     4  11  24  41  68 103 136 180 225 292 351 411
#     4  11  22  45  68  98 133 179 223 285 344 410
#     4  11  24  46  67  96 138 178 234 284 342 418
#     4  10  24  42  66 102 134 177 235 277 356 406
#
# _framework density 22.108211000000001
#
# number of rings (size 3 to 8) (size 9 to 14) (size 15 to 20)
#    0.000    1.333    2.222    2.000    6.222    0.889 
#    8.000    0.000    0.000    0.000    0.000    0.000 
#    0.000    0.000    0.000    0.000    0.000    0.000 
#
# Total GULP energy -100479.494729 kJ/mol
# GULP energy per Si atom -5582.194152 kJ/mol
# Density = 2.205789 g / cm^3
# Si number density = 22.108211 Si / 1000 Ang^3
#
#
#
# Elastic Constant Matrix: (Units=GPa)
#
#
# Indices 1 2 3 4 5 6 
#
# 1 49.6090 34.3011 42.3918 0.0000 -2.0612 0.0000
# 2 34.3011 115.9825 55.4127 0.0000 -14.9639 0.0000
# 3 42.3918 55.4127 156.7616 0.0000 -14.8594 0.0000
# 4 0.0000 0.0000 0.0000 30.3816 0.0000 -22.5856
# 5 -2.0612 -14.9639 -14.8594 0.0000 52.1310 0.0000
# 6 0.0000 0.0000 0.0000 -22.5856 0.0000 -53.5224
#
#
#
# Elastic Compliance Matrix: (Units=1/GPa)
#
#
# Indices 1 2 3 4 5 6 
#
# 1 0.029439 -0.006132 -0.006012 0.000000 -0.002310 0.000000
# 2 -0.006132 0.011855 -0.002295 0.000000 0.002506 0.000000
# 3 -0.006012 -0.002295 0.008974 0.000000 0.001661 0.000000
# 4 0.000000 0.000000 0.000000 0.025055 0.000000 -0.010573
# 5 -0.002310 0.002506 0.001661 0.000000 0.020284 0.000000
# 6 0.000000 0.000000 0.000000 -0.010573 0.000000 -0.014222
#
#
# Mechanical properties :
#
#
# Convention : Reuss Voigt Hill
#
# Bulk Modulus (GPa) = 46.75149 65.17381 55.96265
# Shear Modulus (GPa) = 42.59191 18.48122 30.53656
#
# Velocity S-wave (km/s) = 4.39398 2.89441 3.72052
# Velocity P-wave (km/s) = 6.85093 6.38072 6.62000
#
# Compressibility (1/GPa) = 0.02138969
#
# Stress axis : x y z
#
# Youngs Moduli (GPa) = 33.96835 84.35082 111.43701
#
# Poissons Ratio (x) = 0.51723 0.67001
# Poissons Ratio (y) = 0.20829 0.25573
# Poissons Ratio (z) = 0.20423 0.19357
#
# Static dielectric constant tensor:
#      x y z
#    x 1.836580 0.000000 0.043600 
#    y 0.000000 1.838030 0.000000 
#    z 0.043600 0.000000 1.851200 
# 
# From -- ./inp_files/45995.got.cif
#   From: 2010.05.17/outbox.cif.g08.bks.cpg/sg15_23_cif.got.tgz:45995.got - 2010.06.03 18:47:42.
