data_PCOD9297964
_publ_section_title
;
Structure prediction by ZEFSAII (Michael W. Deem and Ramdas Pophale) SiO2 
 PCOD9297964
Probable space group: C 2/C
;
_chemical_formula_sum "Si O2"
_cell_formula_units_Z 52
_cell_length_a 11.501271
_cell_length_b 27.886553
_cell_length_c 10.423924
_cell_angle_alpha 90.000000
_cell_angle_beta 127.366368
_cell_angle_gamma 90.000000
_cell_volume 2657.136860
_symmetry_space_group_name_H-M "C 2/C"
_symmetry_group_IT_number 15
_symmetry_cell_setting 'monoclinic'
loop_
_space_group_symop_operation_xyz
x,y,z
-x,y,1/2-z
-x,-y,-z
x,-y,1/2+z
1/2+x,1/2+y,z
1/2-x,1/2+y,1/2-z
1/2-x,1/2-y,-z
1/2+x,1/2-y,1/2+z
loop_
_atom_site_type_symbol
_atom_site_label
_atom_site_fract_x
_atom_site_fract_y
_atom_site_fract_z
Si Si1 0.360214 0.121856 0.247726
Si Si2 0.184704 0.001310 0.477651
Si Si3 0.000000 0.248627 0.250000
Si Si4 0.300333 0.189192 0.435848
Si Si5 0.348930 0.016430 0.338420
Si Si6 0.942501 0.899500 0.072632
Si Si7 0.114791 0.887296 0.939129
O O1 0.500000 0.118798 0.250000
O O2 0.353957 0.166341 0.339133
O O3 0.346795 0.074063 0.327246
O O4 0.218057 0.120431 0.063090
O O5 0.233516 0.994960 0.362774
O O6 0.132788 0.055595 0.447051
O O7 0.314473 0.999075 0.670083
O O8 0.078639 0.957763 0.446704
O O9 0.147143 0.218400 0.311801
O O10 0.070533 0.280375 0.411543
O O11 0.253379 0.145611 0.500091
O O12 0.500000 0.000000 0.500000
O O13 0.000000 0.887187 0.250000
O O14 0.046306 0.878901 0.032141
O O15 0.000000 0.875951 0.750000
#
# Coordination Sequence:
#
# PCOD9297964 Si02
#       7
#     8   8   4   8   8   8   8
#     4  11  23  42  63  89 131 172 213 262 323 379
#     4  11  21  34  52  87 123 169 224 261 299 353
#     4  10  24  42  74  96 126 144 214 278 334 406
#     4  11  22  45  67  99 121 167 206 272 334 390
#     4  11  21  36  53  83 132 180 217 258 302 362
#     4  11  22  36  57  91 131 173 218 262 301 355
#     4  12  20  38  63  88 126 164 217 260 316 381
#
# _framework density 19.569935000000001
#
# number of rings (size 3 to 8) (size 9 to 14) (size 15 to 20)
#    0.000    0.923    3.846    5.077    0.000    2.462 
#    0.000    0.769    0.000    3.692    0.000    0.000 
#    0.000    0.000    0.000    0.000    0.000    0.000 
#
# Total GULP energy -145112.905409 kJ/mol
# GULP energy per Si atom -5581.265593 kJ/mol
# Density = 1.952539 g / cm^3
# Si number density = 19.569935 Si / 1000 Ang^3
#
#
#
# Elastic Constant Matrix: (Units=GPa)
#
#
# Indices 1 2 3 4 5 6 
#
# 1 79.1630 13.7770 39.2323 0.0000 -16.3497 0.0000
# 2 13.7770 65.5889 42.0794 0.0000 -2.0298 0.0000
# 3 39.2323 42.0794 148.5052 0.0000 -0.0184 0.0000
# 4 0.0000 0.0000 0.0000 56.2239 0.0000 -15.8448
# 5 -16.3497 -2.0298 -0.0184 0.0000 35.0033 0.0000
# 6 0.0000 0.0000 0.0000 -15.8448 0.0000 14.4114
#
#
#
# Elastic Compliance Matrix: (Units=1/GPa)
#
#
# Indices 1 2 3 4 5 6 
#
# 1 0.016364 -0.000524 -0.004173 0.000000 0.007611 0.000000
# 2 -0.000524 0.018691 -0.005158 0.000000 0.000836 0.000000
# 3 -0.004173 -0.005158 0.009298 0.000000 -0.002244 0.000000
# 4 0.000000 0.000000 0.000000 0.025771 0.000000 0.028334
# 5 0.007611 0.000836 -0.002244 0.000000 0.032171 0.000000
# 6 0.000000 0.000000 0.000000 0.028334 0.000000 0.100543
#
#
# Mechanical properties :
#
#
# Convention : Reuss Voigt Hill
#
# Bulk Modulus (GPa) = 40.58129 53.71494 47.14811
# Shear Modulus (GPa) = 21.66738 34.33895 28.00316
#
# Velocity S-wave (km/s) = 3.33104 4.19343 3.78686
# Velocity P-wave (km/s) = 5.96456 7.13819 6.57760
#
# Compressibility (1/GPa) = 0.02464190
#
# Stress axis : x y z
#
# Youngs Moduli (GPa) = 61.11142 53.50037 107.55572
#
# Poissons Ratio (x) = 0.02804 0.44888
# Poissons Ratio (y) = 0.03203 0.55474
# Poissons Ratio (z) = 0.25505 0.27594
#
# Static dielectric constant tensor:
#      x y z
#    x 1.683620 0.000000 0.017690 
#    y 0.000000 1.724250 0.000000 
#    z 0.017690 0.000000 1.661910 
# 
# From -- ./inp_files/35098.got.cif
#   From: 2010.05.17/outbox.cif.g08.bks.cpg/sg15_18_cif.got.tgz:35098.got - 2010.06.03 18:47:42.
