data_PCOD9297248
_publ_section_title
;
Structure prediction by ZEFSAII (Michael W. Deem and Ramdas Pophale) SiO2 
 PCOD9297248
Probable space group: C 2/C
;
_chemical_formula_sum "Si O2"
_cell_formula_units_Z 44
_cell_length_a 24.180166
_cell_length_b 12.295113
_cell_length_c 23.424622
_cell_angle_alpha 90.000000
_cell_angle_beta 20.019608
_cell_angle_gamma 90.000000
_cell_volume 2384.098575
_symmetry_space_group_name_H-M "C 2/C"
_symmetry_group_IT_number 15
_symmetry_cell_setting 'monoclinic'
loop_
_space_group_symop_operation_xyz
x,y,z
-x,y,1/2-z
-x,-y,-z
x,-y,1/2+z
1/2+x,1/2+y,z
1/2-x,1/2+y,1/2-z
1/2-x,1/2-y,-z
1/2+x,1/2-y,1/2+z
loop_
_atom_site_type_symbol
_atom_site_label
_atom_site_fract_x
_atom_site_fract_y
_atom_site_fract_z
Si Si1 0.500000 0.720165 0.750000
Si Si2 0.298249 0.318144 0.156587
Si Si3 0.231282 0.821557 0.934273
Si Si4 0.842007 0.905238 0.712725
Si Si5 0.345659 0.034985 0.220594
Si Si6 0.706458 0.875827 0.371301
O O1 0.373306 0.796548 0.840722
O O2 0.581121 0.652796 0.620511
O O3 0.262643 0.198966 0.167348
O O4 0.165352 0.405067 0.264645
O O5 0.275669 0.316489 0.247563
O O6 0.474198 0.365294 0.971229
O O7 0.277788 0.910896 0.843366
O O8 0.201591 0.710364 0.927108
O O9 0.771789 0.936502 0.718318
O O10 0.813908 0.015619 0.775561
O O11 0.524777 0.080923 0.036060
#
# Coordination Sequence:
#
# PCOD9297248 Si02
#       6
#     4   8   8   8   8   8
#     4  10  24  38  56  82 110 142 196 234 282 328
#     4  11  22  34  52  82 114 152 186 216 268 352
#     4  11  22  38  58  84 112 146 184 237 284 322
#     4  11  22  34  52  82 114 152 186 216 268 352
#     4  11  21  34  56  79 115 149 182 226 279 327
#     4  11  21  34  56  79 115 149 182 226 279 327
#
# _framework density 18.455611999999999
#
# number of rings (size 3 to 8) (size 9 to 14) (size 15 to 20)
#    0.000    1.091    3.636    6.545    5.091    0.000 
#    0.000    0.000    0.000    0.000    0.000    7.636 
#    0.000    0.000    0.000    0.000    0.000    0.000 
#
# Total GULP energy -122866.263049 kJ/mol
# GULP energy per Si atom -5584.830139 kJ/mol
# Density = 1.841361 g / cm^3
# Si number density = 18.455612 Si / 1000 Ang^3
#
#
#
# Elastic Constant Matrix: (Units=GPa)
#
#
# Indices 1 2 3 4 5 6 
#
# 1 52.5419 12.4263 12.2569 -0.0003 6.9689 -0.0001
# 2 12.4263 81.3315 1.2957 0.0022 8.9518 0.0005
# 3 12.2569 1.2957 91.8948 0.0027 14.9196 0.0000
# 4 -0.0003 0.0022 0.0027 25.8386 0.0008 3.0090
# 5 6.9689 8.9518 14.9196 0.0008 32.8591 -0.0007
# 6 -0.0001 0.0005 0.0000 3.0090 -0.0007 5.7033
#
#
#
# Elastic Compliance Matrix: (Units=1/GPa)
#
#
# Indices 1 2 3 4 5 6 
#
# 1 0.020574 -0.002826 -0.002290 0.000001 -0.002554 0.000000
# 2 -0.002826 0.013078 0.000727 -0.000001 -0.003294 -0.000001
# 3 -0.002290 0.000727 0.012016 -0.000001 -0.005168 0.000000
# 4 0.000001 -0.000001 -0.000001 0.041235 -0.000001 -0.021755
# 5 -0.002554 -0.003294 -0.005168 -0.000001 0.034219 0.000005
# 6 0.000000 -0.000001 0.000000 -0.021755 0.000005 0.186815
#
#
# Mechanical properties :
#
#
# Convention : Reuss Voigt Hill
#
# Bulk Modulus (GPa) = 27.10640 30.85842 28.98241
# Shear Modulus (GPa) = 15.19707 26.19950 20.69829
#
# Velocity S-wave (km/s) = 2.87268 3.77184 3.35254
# Velocity P-wave (km/s) = 5.07171 5.97710 5.54292
#
# Compressibility (1/GPa) = 0.03689165
#
# Stress axis : x y z
#
# Youngs Moduli (GPa) = 48.60605 76.46402 83.22046
#
# Poissons Ratio (x) = 0.21607 0.19054
# Poissons Ratio (y) = 0.13735 -0.06052
# Poissons Ratio (z) = 0.11129 -0.05561
#
# Static dielectric constant tensor:
#      x y z
#    x 1.606420 0.000000 -0.003670 
#    y 0.000000 1.664020 0.000000 
#    z -0.003670 0.000000 1.721890 
# 
# From -- ./inp_files/60480.got.cif
#   From: 2010.05.17/outbox.cif.g08.bks.cpg/sg15_31_cif.got.tgz:60480.got - 2010.06.03 18:47:42.
