data_PCOD9297802
_publ_section_title
;
Structure prediction by ZEFSAII (Michael W. Deem and Ramdas Pophale) SiO2 
 PCOD9297802
Probable space group: C 2/C
;
_chemical_formula_sum "Si O2"
_cell_formula_units_Z 40
_cell_length_a 20.596182
_cell_length_b 5.222826
_cell_length_c 13.769499
_cell_angle_alpha 90.000000
_cell_angle_beta 109.001864
_cell_angle_gamma 90.000000
_cell_volume 1400.475828
_symmetry_space_group_name_H-M "C 2/C"
_symmetry_group_IT_number 15
_symmetry_cell_setting 'monoclinic'
loop_
_space_group_symop_operation_xyz
x,y,z
-x,y,1/2-z
-x,-y,-z
x,-y,1/2+z
1/2+x,1/2+y,z
1/2-x,1/2+y,1/2-z
1/2-x,1/2-y,-z
1/2+x,1/2-y,1/2+z
loop_
_atom_site_type_symbol
_atom_site_label
_atom_site_fract_x
_atom_site_fract_y
_atom_site_fract_z
Si Si1 0.407509 0.132710 0.189796
Si Si2 0.175278 0.554585 0.006209
Si Si3 0.221090 0.918350 0.787722
Si Si4 0.446636 0.635477 0.096190
Si Si5 0.406169 0.195999 0.862415
O O1 0.359066 0.628778 0.269263
O O2 0.409717 0.072476 0.304472
O O3 0.445760 0.888903 0.162423
O O4 0.332700 0.076852 0.103424
O O5 0.249957 0.588858 0.088697
O O6 0.134642 0.364382 0.059889
O O7 0.126420 0.806873 0.991429
O O8 0.242700 0.181882 0.748725
O O9 0.520426 0.677243 0.081546
O O10 0.439690 0.381627 0.156434
#
# Coordination Sequence:
#
# PCOD9297802 Si02
#       5
#     8   8   8   8   8
#     4  10  25  42  68 101 137 170 232 280 329 409
#     4   9  24  45  67 101 138 174 230 280 332 408
#     4  10  24  42  68 100 137 180 232 275 331 414
#     4  10  24  44  65 102 137 170 230 283 328 404
#     4  11  23  45  73  99 136 192 216 280 355 389
#
# _framework density 28.561717999999999
#
# number of rings (size 3 to 8) (size 9 to 14) (size 15 to 20)
#    1.200    0.800    0.000    1.200    5.600   11.200 
#    0.000    1.000    0.000    0.000    0.000    0.000 
#    0.000    0.000    0.000    0.000    0.000    0.000 
#
# Total GULP energy -111962.388908 kJ/mol
# GULP energy per Si atom -5598.119445 kJ/mol
# Density = 2.849671 g / cm^3
# Si number density = 28.561718 Si / 1000 Ang^3
#
#
#
# Elastic Constant Matrix: (Units=GPa)
#
#
# Indices 1 2 3 4 5 6 
#
# 1 127.6253 43.4975 20.3278 0.0000 23.7561 0.0000
# 2 43.4975 194.9908 22.8526 0.0000 8.2589 0.0000
# 3 20.3278 22.8526 128.0237 0.0000 24.6570 0.0000
# 4 0.0000 0.0000 0.0000 32.3541 0.0000 -18.8821
# 5 23.7561 8.2589 24.6570 0.0000 43.9029 0.0000
# 6 0.0000 0.0000 0.0000 -18.8821 0.0000 18.8866
#
#
#
# Elastic Compliance Matrix: (Units=1/GPa)
#
#
# Indices 1 2 3 4 5 6 
#
# 1 0.009363 -0.001863 -0.000276 0.000000 -0.004561 0.000000
# 2 -0.001863 0.005619 -0.000782 0.000000 0.000391 0.000000
# 3 -0.000276 -0.000782 0.008900 0.000000 -0.004702 0.000000
# 4 0.000000 0.000000 0.000000 0.074203 0.000000 0.074185
# 5 -0.004561 0.000391 -0.004702 0.000000 0.027813 0.000000
# 6 0.000000 0.000000 0.000000 0.074185 0.000000 0.127115
#
#
# Mechanical properties :
#
#
# Convention : Reuss Voigt Hill
#
# Bulk Modulus (GPa) = 55.43200 69.33285 62.38242
# Shear Modulus (GPa) = 18.87722 43.29286 31.08504
#
# Velocity S-wave (km/s) = 2.57364 3.89751 3.30259
# Velocity P-wave (km/s) = 5.31803 6.67694 6.03585
#
# Compressibility (1/GPa) = 0.01804012
#
# Stress axis : x y z
#
# Youngs Moduli (GPa) = 106.79874 177.95985 112.35813
#
# Poissons Ratio (x) = 0.33158 0.03097
# Poissons Ratio (y) = 0.19899 0.08791
# Poissons Ratio (z) = 0.02944 0.13924
#
# Static dielectric constant tensor:
#      x y z
#    x 2.297380 0.000000 0.038850 
#    y 0.000000 2.197290 0.000000 
#    z 0.038850 0.000000 2.388070 
# 
# From -- ./inp_files/170610.got.cif
#   From: 2010.05.17/outbox.cif.g08.bks.cpg/sg15_86_cif.got.tgz:170610.got - 2010.06.03 18:47:42.
