data_PCOD9297407
_publ_section_title
;
Structure prediction by ZEFSAII (Michael W. Deem and Ramdas Pophale) SiO2 
 PCOD9297407
Probable space group: C 2/C
;
_chemical_formula_sum "Si O2"
_cell_formula_units_Z 28
_cell_length_a 5.037952
_cell_length_b 9.101921
_cell_length_c 33.210552
_cell_angle_alpha 90.000000
_cell_angle_beta 127.747378
_cell_angle_gamma 90.000000
_cell_volume 1204.161066
_symmetry_space_group_name_H-M "C 2/C"
_symmetry_group_IT_number 15
_symmetry_cell_setting 'monoclinic'
loop_
_space_group_symop_operation_xyz
x,y,z
-x,y,1/2-z
-x,-y,-z
x,-y,1/2+z
1/2+x,1/2+y,z
1/2-x,1/2+y,1/2-z
1/2-x,1/2-y,-z
1/2+x,1/2-y,1/2+z
loop_
_atom_site_type_symbol
_atom_site_label
_atom_site_fract_x
_atom_site_fract_y
_atom_site_fract_z
Si Si1 0.355456 0.668269 0.297021
Si Si2 0.489829 0.685485 0.094738
Si Si3 0.000000 0.950032 0.250000
Si Si4 0.659215 0.017006 0.443172
O O1 0.405716 0.672810 0.348953
O O2 0.593377 0.558636 0.295230
O O3 0.000000 0.602583 0.250000
O O4 0.309663 0.833788 0.276398
O O5 0.740469 0.604681 0.087762
O O6 0.468590 0.854964 0.079917
O O7 0.125248 0.607007 0.059278
O O8 0.000000 0.000000 0.500000
#
# Coordination Sequence:
#
# PCOD9297407 Si02
#       4
#     8   8   4   8
#     4  10  26  40  66  95 137 172 224 271 335 406
#     4  12  26  43  74 100 137 181 228 278 353 404
#     4  10  24  40  64  90 138 172 224 266 334 384
#     4  12  26  48  71 103 137 179 233 290 340 404
#
# _framework density 23.252703
#
# number of rings (size 3 to 8) (size 9 to 14) (size 15 to 20)
#    0.857    0.000    0.000    6.000   10.000    0.000 
#    0.000    0.000    0.000    0.000    0.000    0.000 
#    0.000    0.000    0.000    0.000    0.000    0.000 
#
# Total GULP energy -78246.299860 kJ/mol
# GULP energy per Si atom -5589.021419 kJ/mol
# Density = 2.319978 g / cm^3
# Si number density = 23.252703 Si / 1000 Ang^3
#
#
#
# Elastic Constant Matrix: (Units=GPa)
#
#
# Indices 1 2 3 4 5 6 
#
# 1 67.4110 36.1436 -31.0823 0.0000 -9.1947 0.0000
# 2 36.1436 197.9770 8.1910 0.0000 -27.7066 0.0000
# 3 -31.0823 8.1910 80.8350 0.0000 -3.7944 0.0000
# 4 0.0000 0.0000 0.0000 20.0555 0.0000 -10.8336
# 5 -9.1947 -27.7066 -3.7944 0.0000 36.3511 0.0000
# 6 0.0000 0.0000 0.0000 -10.8336 0.0000 1.8739
#
#
#
# Elastic Compliance Matrix: (Units=1/GPa)
#
#
# Indices 1 2 3 4 5 6 
#
# 1 0.021372 -0.003783 0.008763 0.000000 0.003437 0.000000
# 2 -0.003783 0.006335 -0.001924 0.000000 0.003671 0.000000
# 3 0.008763 -0.001924 0.016049 0.000000 0.002425 0.000000
# 4 0.000000 0.000000 0.000000 -0.023487 0.000000 -0.135786
# 5 0.003437 0.003671 0.002425 0.000000 0.031430 0.000000
# 6 0.000000 0.000000 0.000000 -0.135786 0.000000 -0.251373
#
#
# Mechanical properties :
#
#
# Convention : Reuss Voigt Hill
#
# Bulk Modulus (GPa) = 20.05385 41.41420 30.73402
# Shear Modulus (GPa) = -26.43230 33.85417 3.71093
#
# Velocity S-wave (km/s) = -3.37522 3.81980 1.26467
# Velocity P-wave (km/s) = 2.55860 6.10767 3.92156
#
# Compressibility (1/GPa) = 0.04986573
#
# Stress axis : x y z
#
# Youngs Moduli (GPa) = 46.79038 157.85010 62.30912
#
# Poissons Ratio (x) = 0.59720 -0.54598
# Poissons Ratio (y) = 0.17702 0.11991
# Poissons Ratio (z) = -0.41000 0.30376
#
# Static dielectric constant tensor:
#      x y z
#    x 2.567250 0.000000 0.046370 
#    y 0.000000 1.814660 0.000000 
#    z 0.046370 0.000000 1.881990 
# 
# From -- ./inp_files/259636.got.cif
#   From: 2010.05.17/outbox.cif.g08.bks.cpg/sg15_130_cif.got.tgz:259636.got - 2010.06.03 18:47:42.
