data_PCOD9297450
_publ_section_title
;
Structure prediction by ZEFSAII (Michael W. Deem and Ramdas Pophale) SiO2 
 PCOD9297450
Probable space group: C 2/C
;
_chemical_formula_sum "Si O2"
_cell_formula_units_Z 56
_cell_length_a 8.947623
_cell_length_b 20.879974
_cell_length_c 17.693200
_cell_angle_alpha 90.000000
_cell_angle_beta 52.619115
_cell_angle_gamma 90.000000
_cell_volume 2626.648649
_symmetry_space_group_name_H-M "C 2/C"
_symmetry_group_IT_number 15
_symmetry_cell_setting 'monoclinic'
loop_
_space_group_symop_operation_xyz
x,y,z
-x,y,1/2-z
-x,-y,-z
x,-y,1/2+z
1/2+x,1/2+y,z
1/2-x,1/2+y,1/2-z
1/2-x,1/2-y,-z
1/2+x,1/2-y,1/2+z
loop_
_atom_site_type_symbol
_atom_site_label
_atom_site_fract_x
_atom_site_fract_y
_atom_site_fract_z
Si Si1 0.106693 0.788392 0.989887
Si Si2 0.307999 0.841437 0.344410
Si Si3 0.897584 0.304664 0.473505
Si Si4 0.278243 0.529740 0.883030
Si Si5 0.655756 0.904639 0.646921
Si Si6 0.039110 0.590799 0.449944
Si Si7 0.817235 0.973236 0.189562
O O1 0.193944 0.853646 0.929955
O O2 0.080847 0.737966 0.929195
O O3 0.250000 0.750000 0.000000
O O4 0.898369 0.805601 0.089727
O O5 0.500000 0.810207 0.250000
O O6 0.369978 0.852051 0.412376
O O7 0.275813 0.908967 0.313211
O O8 0.750000 0.250000 0.500000
O O9 0.865832 0.341789 0.561907
O O10 0.457904 0.533622 0.881602
O O11 0.297563 0.523277 0.786860
O O12 0.172885 0.464816 0.937421
O O13 0.146780 0.589713 0.941366
O O14 0.500000 0.873893 0.750000
O O15 0.535015 0.924104 0.610345
O O16 0.743521 0.965147 0.665417
#
# Coordination Sequence:
#
# PCOD9297450 Si02
#       7
#     8   8   8   8   8   8   8
#     4  11  25  47  69 101 138 182 245 288 339 418
#     4  11  25  45  73 101 138 182 229 293 354 414
#     4  10  24  44  67  95 135 179 231 283 339 419
#     4  10  24  40  67  99 138 174 221 289 351 423
#     4  12  25  43  69 102 142 181 227 293 353 417
#     4  11  22  42  68  97 134 183 222 283 361 404
#     4  11  24  43  64 106 136 172 232 285 351 427
#
# _framework density 21.319942000000001
#
# number of rings (size 3 to 8) (size 9 to 14) (size 15 to 20)
#    0.000    1.143    2.857    2.143    8.000    2.286 
#    0.000    0.000    0.000    0.000    0.000    0.000 
#    0.000    0.000    0.000    0.000    0.000    0.000 
#
# Total GULP energy -155894.917404 kJ/mol
# GULP energy per Si atom -5567.675622 kJ/mol
# Density = 2.127142 g / cm^3
# Si number density = 21.319942 Si / 1000 Ang^3
#
#
#
# Elastic Constant Matrix: (Units=GPa)
#
#
# Indices 1 2 3 4 5 6 
#
# 1 156.2093 42.4519 42.9904 0.0000 6.0829 0.0000
# 2 42.4519 90.5136 24.6940 0.0000 -2.2968 0.0000
# 3 42.9904 24.6940 67.3764 0.0000 -11.5714 0.0000
# 4 0.0000 0.0000 0.0000 10.3129 0.0000 -4.3040
# 5 6.0829 -2.2968 -11.5714 0.0000 40.5853 0.0000
# 6 0.0000 0.0000 0.0000 -4.3040 0.0000 34.5497
#
#
#
# Elastic Compliance Matrix: (Units=1/GPa)
#
#
# Indices 1 2 3 4 5 6 
#
# 1 0.008638 -0.002762 -0.004993 0.000000 -0.002875 0.000000
# 2 -0.002762 0.013174 -0.003014 0.000000 0.000300 0.000000
# 3 -0.004993 -0.003014 0.020222 0.000000 0.006343 0.000000
# 4 0.000000 0.000000 0.000000 0.102284 0.000000 0.012742
# 5 -0.002875 0.000300 0.006343 0.000000 0.026896 0.000000
# 6 0.000000 0.000000 0.000000 0.012742 0.000000 0.030531
#
#
# Mechanical properties :
#
#
# Convention : Reuss Voigt Hill
#
# Bulk Modulus (GPa) = 48.79269 59.37467 54.08368
# Shear Modulus (GPa) = 21.72815 30.68712 26.20763
#
# Velocity S-wave (km/s) = 3.19587 3.79801 3.50988
# Velocity P-wave (km/s) = 6.04597 6.86607 6.46903
#
# Compressibility (1/GPa) = 0.02049487
#
# Stress axis : x y z
#
# Youngs Moduli (GPa) = 115.76137 75.90980 49.45074
#
# Poissons Ratio (x) = 0.20968 0.24692
# Poissons Ratio (y) = 0.31976 0.14905
# Poissons Ratio (z) = 0.57802 0.22881
#
# Static dielectric constant tensor:
#      x y z
#    x 1.790230 0.000000 -0.028000 
#    y 0.000000 1.801630 0.000000 
#    z -0.028000 0.000000 1.884840 
# 
# From -- ./inp_files/192007.got.cif
#   From: 2010.05.17/outbox.cif.g08.bks.cpg/sg15_97_cif.got.tgz:192007.got - 2010.06.03 18:47:42.
