data_PCOD9297740
_publ_section_title
;
Structure prediction by ZEFSAII (Michael W. Deem and Ramdas Pophale) SiO2 
 PCOD9297740
Probable space group: C 2/C
;
_chemical_formula_sum "Si O2"
_cell_formula_units_Z 44
_cell_length_a 17.711183
_cell_length_b 11.755605
_cell_length_c 22.928996
_cell_angle_alpha 90.000000
_cell_angle_beta 156.879105
_cell_angle_gamma 90.000000
_cell_volume 1874.597883
_symmetry_space_group_name_H-M "C 2/C"
_symmetry_group_IT_number 15
_symmetry_cell_setting 'monoclinic'
loop_
_space_group_symop_operation_xyz
x,y,z
-x,y,1/2-z
-x,-y,-z
x,-y,1/2+z
1/2+x,1/2+y,z
1/2-x,1/2+y,1/2-z
1/2-x,1/2-y,-z
1/2+x,1/2-y,1/2+z
loop_
_atom_site_type_symbol
_atom_site_label
_atom_site_fract_x
_atom_site_fract_y
_atom_site_fract_z
Si Si1 0.000000 0.724597 0.250000
Si Si2 0.980957 0.494346 0.890688
Si Si3 0.357423 0.600691 0.915388
Si Si4 0.891171 0.155680 0.074630
Si Si5 0.829250 0.339923 0.881077
Si Si6 0.293318 0.399995 0.031108
O O1 0.963115 0.813673 0.170392
O O2 0.181989 0.642454 0.393581
O O3 0.851937 0.555885 0.751163
O O4 0.845304 0.422864 0.837430
O O5 0.076282 0.591817 0.998438
O O6 0.132933 0.409781 0.968481
O O7 0.417601 0.718357 0.926837
O O8 0.500000 0.500000 0.000000
O O9 0.362125 0.638343 0.985429
O O10 0.110825 0.186782 0.241797
O O11 0.862910 0.028678 0.078353
O O12 0.750000 0.250000 0.000000
#
# Coordination Sequence:
#
# PCOD9297740 Si02
#       6
#     4   8   8   8   8   8
#     4  10  24  42  66 102 140 188 236 296 376 448
#     4  11  25  44  71 102 145 192 243 308 375 448
#     4  12  25  45  72 107 143 192 246 308 376 453
#     4  12  26  48  78 107 150 197 257 317 377 451
#     4  11  25  46  69 107 144 195 246 310 379 445
#     4  11  23  44  69 103 142 189 247 303 375 444
#
# _framework density 23.471700999999999
#
# number of rings (size 3 to 8) (size 9 to 14) (size 15 to 20)
#    0.000    0.727    1.818    5.455    0.000    8.000 
#    3.273    0.909    0.000    0.000    0.000    0.000 
#    0.000    0.000    0.000    0.000    0.000    0.000 
#
# Total GULP energy -123023.553420 kJ/mol
# GULP energy per Si atom -5591.979701 kJ/mol
# Density = 2.341828 g / cm^3
# Si number density = 23.471701 Si / 1000 Ang^3
#
#
#
# Elastic Constant Matrix: (Units=GPa)
#
#
# Indices 1 2 3 4 5 6 
#
# 1 45.4422 36.1490 32.5976 0.0035 6.9917 0.0022
# 2 36.1490 195.8915 53.2010 -0.0056 6.0821 -0.0075
# 3 32.5976 53.2010 114.3136 -0.0079 -10.4346 -0.0076
# 4 0.0035 -0.0056 -0.0079 37.5422 -0.0015 1.1662
# 5 6.9917 6.0821 -10.4346 -0.0015 30.2087 -0.0008
# 6 0.0022 -0.0075 -0.0076 1.1662 -0.0008 30.8611
#
#
#
# Elastic Compliance Matrix: (Units=1/GPa)
#
#
# Indices 1 2 3 4 5 6 
#
# 1 0.032290 -0.003335 -0.008546 -0.000006 -0.009754 -0.000005
# 2 -0.003335 0.006331 -0.002108 0.000001 -0.001231 0.000001
# 3 -0.008546 -0.002108 0.012788 0.000003 0.006820 0.000003
# 4 -0.000006 0.000001 0.000003 0.026668 0.000004 -0.001008
# 5 -0.009754 -0.001231 0.006820 0.000004 0.037964 0.000003
# 6 -0.000005 0.000001 0.000003 -0.001008 0.000003 0.032441
#
#
# Mechanical properties :
#
#
# Convention : Reuss Voigt Hill
#
# Bulk Modulus (GPa) = 42.67704 66.61584 54.64644
# Shear Modulus (GPa) = 27.13398 35.30237 31.21818
#
# Velocity S-wave (km/s) = 3.40373 3.88240 3.65092
# Velocity P-wave (km/s) = 5.80250 6.96709 6.41129
#
# Compressibility (1/GPa) = 0.02343180
#
# Stress axis : x y z
#
# Youngs Moduli (GPa) = 30.96929 157.95496 78.19628
#
# Poissons Ratio (x) = 0.52675 0.66828
# Poissons Ratio (y) = 0.10328 0.16482
# Poissons Ratio (z) = 0.26467 0.33293
#
# Static dielectric constant tensor:
#      x y z
#    x 1.615450 0.000030 0.253540 
#    y 0.000030 1.979240 -0.000030 
#    z 0.253540 -0.000030 1.670420 
# 
# From -- ./inp_files/300891.got.cif
#   From: 2010.05.17/outbox.cif.g08.bks.cpg/sg15_151_cif.got.tgz:300891.got - 2010.06.03 18:47:42.
