data_PCOD9297750
_publ_section_title
;
Structure prediction by ZEFSAII (Michael W. Deem and Ramdas Pophale) SiO2 
 PCOD9297750
Probable space group: C 2/C
;
_chemical_formula_sum "Si O2"
_cell_formula_units_Z 44
_cell_length_a 10.610626
_cell_length_b 26.071803
_cell_length_c 9.601456
_cell_angle_alpha 90.000000
_cell_angle_beta 54.195852
_cell_angle_gamma 90.000000
_cell_volume 2154.177668
_symmetry_space_group_name_H-M "C 2/C"
_symmetry_group_IT_number 15
_symmetry_cell_setting 'monoclinic'
loop_
_space_group_symop_operation_xyz
x,y,z
-x,y,1/2-z
-x,-y,-z
x,-y,1/2+z
1/2+x,1/2+y,z
1/2-x,1/2+y,1/2-z
1/2-x,1/2-y,-z
1/2+x,1/2-y,1/2+z
loop_
_atom_site_type_symbol
_atom_site_label
_atom_site_fract_x
_atom_site_fract_y
_atom_site_fract_z
Si Si1 0.500000 0.237472 0.750000
Si Si2 0.676721 0.611295 0.652679
Si Si3 0.175593 0.301257 0.612165
Si Si4 0.113552 0.999315 0.059361
Si Si5 0.784141 0.684407 0.096291
Si Si6 0.313009 0.906905 0.372240
O O1 0.350167 0.272948 0.829256
O O2 0.553628 0.204962 0.579080
O O3 0.500000 0.632015 0.750000
O O4 0.792414 0.651821 0.510772
O O5 0.667228 0.556841 0.577330
O O6 0.732203 0.604100 0.775449
O O7 0.250000 0.250000 0.500000
O O8 0.218873 0.323049 0.736901
O O9 0.000000 0.286493 0.750000
O O10 0.258727 0.036119 0.945409
O O11 0.000000 0.021374 0.250000
O O12 0.000000 0.000000 0.000000
O O13 0.751587 0.634215 0.024962
O O14 0.500000 0.903754 0.250000
#
# Coordination Sequence:
#
# PCOD9297750 Si02
#       6
#     4   8   8   8   8   8
#     4  10  24  42  66  92 140 180 240 280 336 414
#     4  11  26  47  70 102 145 185 239 294 357 428
#     4  12  27  44  69 103 145 189 236 292 358 423
#     4  11  24  48  73 101 138 189 238 290 361 434
#     4  11  25  42  69  99 136 188 237 285 350 415
#     4  12  26  44  72 105 142 182 237 299 352 420
#
# _framework density 20.425426999999999
#
# number of rings (size 3 to 8) (size 9 to 14) (size 15 to 20)
#    0.000    0.727    4.545    2.727   11.455    1.455 
#    0.000    0.000    0.000    0.000    0.000    0.000 
#    0.000    0.000    0.000    0.000    0.000    0.000 
#
# Total GULP energy -122725.377048 kJ/mol
# GULP energy per Si atom -5578.426229 kJ/mol
# Density = 2.037894 g / cm^3
# Si number density = 20.425427 Si / 1000 Ang^3
#
#
#
# Elastic Constant Matrix: (Units=GPa)
#
#
# Indices 1 2 3 4 5 6 
#
# 1 93.7989 26.4641 42.5524 0.0000 10.8597 0.0000
# 2 26.4641 107.6189 51.4367 0.0000 3.8601 0.0000
# 3 42.5524 51.4367 124.1595 0.0000 7.4622 0.0000
# 4 0.0000 0.0000 0.0000 -93.4079 0.0000 32.6946
# 5 10.8597 3.8601 7.4622 0.0000 53.8723 0.0000
# 6 0.0000 0.0000 0.0000 32.6946 0.0000 14.9497
#
#
#
# Elastic Compliance Matrix: (Units=1/GPa)
#
#
# Indices 1 2 3 4 5 6 
#
# 1 0.012979 -0.001311 -0.003785 0.000000 -0.001998 0.000000
# 2 -0.001311 0.011720 -0.004408 0.000000 0.000035 0.000000
# 3 -0.003785 -0.004408 0.011206 0.000000 -0.000473 0.000000
# 4 0.000000 0.000000 0.000000 -0.006064 0.000000 0.013262
# 5 -0.001998 0.000035 -0.000473 0.000000 0.019028 0.000000
# 6 0.000000 0.000000 0.000000 0.013262 0.000000 0.037888
#
#
# Mechanical properties :
#
#
# Convention : Reuss Voigt Hill
#
# Bulk Modulus (GPa) = 59.18205 62.94265 61.06235
# Shear Modulus (GPa) = 44.88362 8.75776 26.82069
#
# Velocity S-wave (km/s) = 4.69277 2.07292 3.62761
# Velocity P-wave (km/s) = 7.64201 6.05079 6.89247
#
# Compressibility (1/GPa) = 0.01689702
#
# Stress axis : x y z
#
# Youngs Moduli (GPa) = 77.04468 85.32383 89.23704
#
# Poissons Ratio (x) = 0.11185 0.33778
# Poissons Ratio (y) = 0.10100 0.39337
# Poissons Ratio (z) = 0.29163 0.37612
#
# Static dielectric constant tensor:
#      x y z
#    x 1.655620 0.000000 -0.067880 
#    y 0.000000 1.710520 0.000000 
#    z -0.067880 0.000000 1.650830 
# 
# From -- ./inp_files/34010.got.cif
#   From: 2010.05.17/outbox.cif.g08.bks.cpg/sg15_18_cif.got.tgz:34010.got - 2010.06.03 18:47:42.
