data_PCOD9297776
_publ_section_title
;
Structure prediction by ZEFSAII (Michael W. Deem and Ramdas Pophale) SiO2 
 PCOD9297776
Probable space group: C 2/C
;
_chemical_formula_sum "Si O2"
_cell_formula_units_Z 36
_cell_length_a 27.815130
_cell_length_b 6.285107
_cell_length_c 28.412244
_cell_angle_alpha 90.000000
_cell_angle_beta 160.607304
_cell_angle_gamma 90.000000
_cell_volume 1649.266632
_symmetry_space_group_name_H-M "C 2/C"
_symmetry_group_IT_number 15
_symmetry_cell_setting 'monoclinic'
loop_
_space_group_symop_operation_xyz
x,y,z
-x,y,1/2-z
-x,-y,-z
x,-y,1/2+z
1/2+x,1/2+y,z
1/2-x,1/2+y,1/2-z
1/2-x,1/2-y,-z
1/2+x,1/2-y,1/2+z
loop_
_atom_site_type_symbol
_atom_site_label
_atom_site_fract_x
_atom_site_fract_y
_atom_site_fract_z
Si Si1 0.724411 0.650307 0.118812
Si Si2 0.458642 0.084617 0.398521
Si Si3 0.725451 0.450899 0.512123
Si Si4 0.000000 0.757803 0.750000
Si Si5 0.080626 0.812500 0.047318
O O1 0.886629 0.683536 0.286065
O O2 0.705781 0.635949 0.046447
O O3 0.687528 0.426713 0.110356
O O4 0.621097 0.825004 0.046752
O O5 0.372840 0.164446 0.365747
O O6 0.475108 0.833874 0.419070
O O7 0.750000 0.250000 0.500000
O O8 0.868422 0.603725 0.645306
O O9 0.585965 0.588258 0.366013
O O10 0.000000 0.000000 0.000000
#
# Coordination Sequence:
#
# PCOD9297776 Si02
#       5
#     8   8   8   4   8
#     4  11  26  40  72  99 133 182 225 284 344 413
#     4  10  24  42  66  99 138 178 228 271 344 405
#     4  11  26  47  74 101 142 178 237 293 357 416
#     4  10  26  48  72 102 134 182 230 296 354 418
#     4   9  22  42  63  96 139 178 220 279 329 406
#
# _framework density 21.827884999999998
#
# number of rings (size 3 to 8) (size 9 to 14) (size 15 to 20)
#    0.000    1.778    0.000    0.667   18.667    3.556 
#    0.000    0.000    0.000    0.000    0.000    0.000 
#    0.000    0.000    0.000    0.000    0.000    0.000 
#
# Total GULP energy -100387.672190 kJ/mol
# GULP energy per Si atom -5577.092899 kJ/mol
# Density = 2.177820 g / cm^3
# Si number density = 21.827885 Si / 1000 Ang^3
#
#
#
# Elastic Constant Matrix: (Units=GPa)
#
#
# Indices 1 2 3 4 5 6 
#
# 1 99.9365 23.8855 22.0940 -0.0008 -20.3231 -0.0007
# 2 23.8855 89.3211 30.2382 -0.0024 2.6773 -0.0023
# 3 22.0940 30.2382 116.6351 -0.0035 -6.5393 -0.0023
# 4 -0.0008 -0.0024 -0.0035 25.0865 -0.0006 -1.9874
# 5 -20.3231 2.6773 -6.5393 -0.0006 24.5841 -0.0005
# 6 -0.0007 -0.0023 -0.0023 -1.9874 -0.0005 22.5963
#
#
#
# Elastic Compliance Matrix: (Units=1/GPa)
#
#
# Indices 1 2 3 4 5 6 
#
# 1 0.013346 -0.003573 -0.000976 0.000000 0.011162 0.000000
# 2 -0.003573 0.013349 -0.003077 0.000001 -0.005226 0.000001
# 3 -0.000976 -0.003077 0.009674 0.000001 0.002102 0.000001
# 4 0.000000 0.000001 0.000001 0.040142 0.000002 0.003531
# 5 0.011162 -0.005226 0.002102 0.000002 0.051033 0.000001
# 6 0.000000 0.000001 0.000001 0.003531 0.000001 0.044566
#
#
# Mechanical properties :
#
#
# Convention : Reuss Voigt Hill
#
# Bulk Modulus (GPa) = 47.35409 50.92534 49.13971
# Shear Modulus (GPa) = 25.72003 29.76504 27.74254
#
# Velocity S-wave (km/s) = 3.43638 3.69674 3.56893
# Velocity P-wave (km/s) = 6.12261 6.44998 6.28842
#
# Compressibility (1/GPa) = 0.02111750
#
# Stress axis : x y z
#
# Youngs Moduli (GPa) = 74.92811 74.90984 103.36784
#
# Poissons Ratio (x) = 0.26766 0.10088
# Poissons Ratio (y) = 0.26773 0.31807
# Poissons Ratio (z) = 0.07313 0.23050
#
# Static dielectric constant tensor:
#      x y z
#    x 1.824770 0.000000 0.085660 
#    y 0.000000 1.827040 0.000010 
#    z 0.085660 0.000010 2.106740 
# 
# From -- ./inp_files/319888.got.cif
#   From: 2010.05.17/outbox.cif.g08.bks.cpg/sg15_160_cif.got.tgz:319888.got - 2010.06.03 18:47:42.
