data_PCOD9297850
_publ_section_title
;
Structure prediction by ZEFSAII (Michael W. Deem and Ramdas Pophale) SiO2 
 PCOD9297850
Probable space group: C 2/C
;
_chemical_formula_sum "Si O2"
_cell_formula_units_Z 64
_cell_length_a 15.276013
_cell_length_b 22.937718
_cell_length_c 15.140800
_cell_angle_alpha 90.000000
_cell_angle_beta 37.986022
_cell_angle_gamma 90.000000
_cell_volume 3265.242076
_symmetry_space_group_name_H-M "C 2/C"
_symmetry_group_IT_number 15
_symmetry_cell_setting 'monoclinic'
loop_
_space_group_symop_operation_xyz
x,y,z
-x,y,1/2-z
-x,-y,-z
x,-y,1/2+z
1/2+x,1/2+y,z
1/2-x,1/2+y,1/2-z
1/2-x,1/2-y,-z
1/2+x,1/2-y,1/2+z
loop_
_atom_site_type_symbol
_atom_site_label
_atom_site_fract_x
_atom_site_fract_y
_atom_site_fract_z
Si Si1 0.448853 0.885356 0.196367
Si Si2 0.644768 0.145592 0.091849
Si Si3 0.462004 0.193321 0.508787
Si Si4 0.748589 0.300226 0.826301
Si Si5 0.154421 0.074486 0.342612
Si Si6 0.872790 0.525351 0.042925
Si Si7 0.165179 0.043775 0.948288
Si Si8 0.164296 0.041473 0.603699
O O1 0.500000 0.859452 0.250000
O O2 0.289019 0.910439 0.330591
O O3 0.461665 0.844266 0.099440
O O4 0.549515 0.941570 0.098510
O O5 0.500000 0.120754 0.250000
O O6 0.611472 0.161634 0.017341
O O7 0.688886 0.197912 0.123015
O O8 0.763889 0.096491 0.998273
O O9 0.368867 0.251320 0.595144
O O10 0.620201 0.206538 0.346136
O O11 0.681266 0.364052 0.866970
O O12 0.273028 0.071070 0.172368
O O13 0.991373 0.069675 0.442169
O O14 0.180617 0.015149 0.377391
O O15 0.764235 0.473412 0.106630
O O16 0.000000 0.500000 0.000000
O O17 0.171841 0.017388 0.040774
O O18 0.000000 0.053721 0.750000
#
# Coordination Sequence:
#
# PCOD9297850 Si02
#       8
#     8   8   8   8   8   8   8   8
#     4  12  25  42  68  97 131 178 226 275 333 406
#     4  10  24  42  68  99 134 173 221 273 340 409
#     4  11  26  45  69  97 129 177 231 281 335 397
#     4  11  24  45  70  96 131 175 225 282 337 400
#     4  11  23  41  64  96 135 171 217 272 342 393
#     4  12  23  38  64  95 135 176 215 271 332 406
#     4  11  24  39  63  98 135 174 215 269 337 405
#     4  12  24  38  61 101 138 175 218 270 335 411
#
# _framework density 19.600384999999999
#
# number of rings (size 3 to 8) (size 9 to 14) (size 15 to 20)
#    0.000    0.750    6.250    1.125    5.250    1.000 
#    0.000    0.625    2.750    0.000    0.000    0.000 
#    0.000    0.000    0.000    0.000    0.000    0.000 
#
# Total GULP energy -178630.620744 kJ/mol
# GULP energy per Si atom -5582.206898 kJ/mol
# Density = 1.955577 g / cm^3
# Si number density = 19.600385 Si / 1000 Ang^3
#
#
#
# Elastic Constant Matrix: (Units=GPa)
#
#
# Indices 1 2 3 4 5 6 
#
# 1 117.2388 49.5008 79.6473 0.0028 -10.8244 0.0119
# 2 49.5008 83.7668 66.4415 0.0037 -7.0366 0.0108
# 3 79.6473 66.4415 120.9495 0.0046 -17.3779 0.0321
# 4 0.0028 0.0037 0.0046 26.6496 -0.0040 4.2444
# 5 -10.8244 -7.0366 -17.3779 -0.0040 37.3543 -0.0002
# 6 0.0119 0.0108 0.0321 4.2444 -0.0002 -8.6728
#
#
#
# Elastic Compliance Matrix: (Units=1/GPa)
#
#
# Indices 1 2 3 4 5 6 
#
# 1 0.015604 -0.001890 -0.009257 0.000002 -0.000141 -0.000014
# 2 -0.001890 0.021466 -0.010765 0.000001 -0.001512 -0.000015
# 3 -0.009257 -0.010765 0.021005 -0.000008 0.005061 0.000048
# 4 0.000002 0.000001 -0.000008 0.034811 0.000001 0.017036
# 5 -0.000141 -0.001512 0.005061 0.000001 0.028800 0.000017
# 6 -0.000014 -0.000015 0.000048 0.017036 0.000017 -0.106965
#
#
# Mechanical properties :
#
#
# Convention : Reuss Voigt Hill
#
# Bulk Modulus (GPa) = 70.17353 79.23713 74.70533
# Shear Modulus (GPa) = 78.99777 19.49057 49.24417
#
# Velocity S-wave (km/s) = 6.35545 3.15683 5.01783
# Velocity P-wave (km/s) = 9.47288 7.33495 8.47163
#
# Compressibility (1/GPa) = 0.01425039
#
# Stress axis : x y z
#
# Youngs Moduli (GPa) = 64.08784 46.58552 47.60878
#
# Poissons Ratio (x) = 0.08804 0.44073
# Poissons Ratio (y) = 0.12112 0.51249
# Poissons Ratio (z) = 0.59328 0.50147
#
# Static dielectric constant tensor:
#      x y z
#    x 5.764690 0.000030 1.120050 
#    y 0.000030 1.672370 0.000010 
#    z 1.120050 0.000010 1.989520 
# 
# From -- ./inp_files/156795.got.cif
#   From: 2010.05.17/outbox.cif.g08.bks.cpg/sg15_79_cif.got.tgz:156795.got - 2010.06.03 18:47:42.
