data_PCOD9297917
_publ_section_title
;
Structure prediction by ZEFSAII (Michael W. Deem and Ramdas Pophale) SiO2 
 PCOD9297917
Probable space group: C 2/C
;
_chemical_formula_sum "Si O2"
_cell_formula_units_Z 56
_cell_length_a 29.264443
_cell_length_b 8.171430
_cell_length_c 12.325688
_cell_angle_alpha 90.000000
_cell_angle_beta 118.813389
_cell_angle_gamma 90.000000
_cell_volume 2582.556380
_symmetry_space_group_name_H-M "C 2/C"
_symmetry_group_IT_number 15
_symmetry_cell_setting 'monoclinic'
loop_
_space_group_symop_operation_xyz
x,y,z
-x,y,1/2-z
-x,-y,-z
x,-y,1/2+z
1/2+x,1/2+y,z
1/2-x,1/2+y,1/2-z
1/2-x,1/2-y,-z
1/2+x,1/2-y,1/2+z
loop_
_atom_site_type_symbol
_atom_site_label
_atom_site_fract_x
_atom_site_fract_y
_atom_site_fract_z
Si Si1 0.500000 0.337873 0.750000
Si Si2 0.254718 0.720625 0.833956
Si Si3 0.638111 0.778072 0.133677
Si Si4 0.729355 0.137692 0.378085
Si Si5 0.574232 0.093086 0.747648
Si Si6 0.000000 0.324887 0.750000
Si Si7 0.043193 0.068548 0.964093
Si Si8 0.166250 0.473360 0.474059
O O1 0.528654 0.225341 0.696484
O O2 0.542334 0.442643 0.862721
O O3 0.192625 0.759716 0.757085
O O4 0.274996 0.753469 0.734479
O O5 0.259790 0.530734 0.877841
O O6 0.286251 0.853517 0.940612
O O7 0.601705 0.894221 0.164486
O O8 0.655756 0.886990 0.050987
O O9 0.600979 0.621147 0.069278
O O10 0.750000 0.250000 0.500000
O O11 0.677754 0.065763 0.374307
O O12 0.547495 0.928925 0.756738
O O13 0.615819 0.133281 0.889649
O O14 0.979659 0.226109 0.623409
O O15 0.000000 0.000000 0.000000
#
# Coordination Sequence:
#
# PCOD9297917 Si02
#       8
#     4   8   8   8   8   4   8   8
#     4  10  24  44  66 104 138 176 230 300 358 422
#     4  12  25  45  71 109 146 193 249 294 364 439
#     4  12  24  43  73 102 139 192 242 285 368 432
#     4  12  24  45  70 100 147 193 242 307 353 420
#     4  11  23  43  71 101 134 186 240 288 363 431
#     4  10  24  42  72 100 138 180 232 300 366 422
#     4  11  23  45  69 103 140 175 233 298 356 432
#     4  12  24  46  71 103 148 191 241 298 362 437
#
# _framework density 21.68394
#
# number of rings (size 3 to 8) (size 9 to 14) (size 15 to 20)
#    0.000    0.571    7.143    0.429    0.000    2.857 
#    0.000    2.857    0.000    0.000    0.000    0.000 
#    0.000    0.000    0.000    0.000    0.000    0.000 
#
# Total GULP energy -156131.753230 kJ/mol
# GULP energy per Si atom -5576.134044 kJ/mol
# Density = 2.163459 g / cm^3
# Si number density = 21.683940 Si / 1000 Ang^3
#
#
#
# Elastic Constant Matrix: (Units=GPa)
#
#
# Indices 1 2 3 4 5 6 
#
# 1 107.1559 44.3763 28.5818 0.0000 -11.6297 0.0000
# 2 44.3763 102.1218 38.0477 0.0000 0.0514 0.0000
# 3 28.5818 38.0477 67.6173 0.0000 8.5375 0.0000
# 4 0.0000 0.0000 0.0000 36.8436 0.0000 0.2360
# 5 -11.6297 0.0514 8.5375 0.0000 48.1946 0.0000
# 6 0.0000 0.0000 0.0000 0.2360 0.0000 19.2658
#
#
#
# Elastic Compliance Matrix: (Units=1/GPa)
#
#
# Indices 1 2 3 4 5 6 
#
# 1 0.012312 -0.004106 -0.003344 0.000000 0.003568 0.000000
# 2 -0.004106 0.013833 -0.006057 0.000000 0.000067 0.000000
# 3 -0.003344 -0.006057 0.020163 0.000000 -0.004372 0.000000
# 4 0.000000 0.000000 0.000000 0.027144 0.000000 -0.000332
# 5 0.003568 0.000067 -0.004372 0.000000 0.022385 0.000000
# 6 0.000000 0.000000 0.000000 -0.000332 0.000000 0.051909
#
#
# Mechanical properties :
#
#
# Convention : Reuss Voigt Hill
#
# Bulk Modulus (GPa) = 51.82977 55.43406 53.63192
# Shear Modulus (GPa) = 27.59530 31.92010 29.75770
#
# Velocity S-wave (km/s) = 3.57124 3.84091 3.70853
# Velocity P-wave (km/s) = 6.39995 6.72980 6.56694
#
# Compressibility (1/GPa) = 0.01929393
#
# Stress axis : x y z
#
# Youngs Moduli (GPa) = 81.22314 72.29162 49.59617
#
# Poissons Ratio (x) = 0.29681 0.16587
# Poissons Ratio (y) = 0.33348 0.30039
# Poissons Ratio (z) = 0.27164 0.43785
#
# Static dielectric constant tensor:
#      x y z
#    x 2.217200 0.000000 -0.322990 
#    y 0.000000 1.832460 0.000000 
#    z -0.322990 0.000000 2.120500 
# 
# From -- ./inp_files/126003.got.cif
#   From: 2010.05.17/outbox.cif.g08.bks.cpg/sg15_64_cif.got.tgz:126003.got - 2010.06.03 18:47:42.
