data_PCOD9297960
_publ_section_title
;
Structure prediction by ZEFSAII (Michael W. Deem and Ramdas Pophale) SiO2 
 PCOD9297960
Probable space group: C 2/C
;
_chemical_formula_sum "Si O2"
_cell_formula_units_Z 48
_cell_length_a 16.996763
_cell_length_b 23.683588
_cell_length_c 8.382034
_cell_angle_alpha 90.000000
_cell_angle_beta 144.763200
_cell_angle_gamma 90.000000
_cell_volume 1946.733968
_symmetry_space_group_name_H-M "C 2/C"
_symmetry_group_IT_number 15
_symmetry_cell_setting 'monoclinic'
loop_
_space_group_symop_operation_xyz
x,y,z
-x,y,1/2-z
-x,-y,-z
x,-y,1/2+z
1/2+x,1/2+y,z
1/2-x,1/2+y,1/2-z
1/2-x,1/2-y,-z
1/2+x,1/2-y,1/2+z
loop_
_atom_site_type_symbol
_atom_site_label
_atom_site_fract_x
_atom_site_fract_y
_atom_site_fract_z
Si Si1 0.384958 0.253887 0.829926
Si Si2 0.500000 0.816717 0.250000
Si Si3 0.500000 0.995563 0.750000
Si Si4 0.000000 0.934671 0.750000
Si Si5 0.704880 0.985184 0.327473
Si Si6 0.827886 0.379560 0.737261
Si Si7 0.500000 0.171973 0.250000
Si Si8 0.959909 0.131672 0.851818
O O1 0.250000 0.250000 0.500000
O O2 0.490259 0.224651 0.883584
O O3 0.386017 0.214177 0.986809
O O4 0.438432 0.315747 0.959667
O O5 0.625614 0.856206 0.513155
O O6 0.400669 0.029587 0.705239
O O7 0.381807 0.962100 0.463766
O O8 0.962902 0.901260 0.524943
O O9 0.860801 0.966555 0.574246
O O10 0.698324 0.053321 0.303590
O O11 0.943476 0.364502 0.801361
O O12 0.693304 0.350727 0.443284
O O13 0.000000 0.100534 0.750000
#
# Coordination Sequence:
#
# PCOD9297960 Si02
#       8
#     8   4   4   4   8   8   4   8
#     4  11  24  46  74 110 153 201 257 335 409 487
#     4  10  24  42  74 111 152 203 261 330 405 488
#     4  10  24  46  78 103 154 213 282 334 408 468
#     4  12  31  50  85 121 170 222 283 340 416 494
#     4  11  25  50  76 115 159 223 273 346 408 484
#     4  11  25  45  74 110 160 204 269 326 408 483
#     4  10  25  44  75 115 148 206 262 328 407 494
#     4  12  28  50  80 115 160 214 270 336 410 491
#
# _framework density 24.656682
#
# number of rings (size 3 to 8) (size 9 to 14) (size 15 to 20)
#    0.000    1.000    0.833    3.500    8.167    4.000 
#    6.000    0.000    0.000    0.000    0.000    0.000 
#    0.000    0.000    0.000    0.000    0.000    0.000 
#
# Total GULP energy -133968.428441 kJ/mol
# GULP energy per Si atom -5582.017852 kJ/mol
# Density = 2.460056 g / cm^3
# Si number density = 24.656682 Si / 1000 Ang^3
#
#
#
# Elastic Constant Matrix: (Units=GPa)
#
#
# Indices 1 2 3 4 5 6 
#
# 1 102.5977 29.8714 30.9256 0.0000 -5.4316 0.0000
# 2 29.8714 85.2949 48.8208 0.0000 5.4694 0.0000
# 3 30.9256 48.8208 198.6568 0.0000 5.3949 0.0000
# 4 0.0000 0.0000 0.0000 23.1676 0.0000 -0.2211
# 5 -5.4316 5.4694 5.3949 0.0000 53.7926 0.0000
# 6 0.0000 0.0000 0.0000 -0.2211 0.0000 28.3724
#
#
#
# Elastic Compliance Matrix: (Units=1/GPa)
#
#
# Indices 1 2 3 4 5 6 
#
# 1 0.011117 -0.003466 -0.000921 0.000000 0.001567 0.000000
# 2 -0.003466 0.014784 -0.003052 0.000000 -0.001547 0.000000
# 3 -0.000921 -0.003052 0.005937 0.000000 -0.000378 0.000000
# 4 0.000000 0.000000 0.000000 0.043167 0.000000 0.000336
# 5 0.001567 -0.001547 -0.000378 0.000000 0.018943 0.000000
# 6 0.000000 0.000000 0.000000 0.000336 0.000000 0.035248
#
#
# Mechanical properties :
#
#
# Convention : Reuss Voigt Hill
#
# Bulk Modulus (GPa) = 58.96382 67.30942 63.13662
# Shear Modulus (GPa) = 33.39384 39.52862 36.46123
#
# Velocity S-wave (km/s) = 3.68415 4.00829 3.84963
# Velocity P-wave (km/s) = 6.48561 6.98425 6.73954
#
# Compressibility (1/GPa) = 0.01695955
#
# Stress axis : x y z
#
# Youngs Moduli (GPa) = 89.95447 67.64127 168.42317
#
# Poissons Ratio (x) = 0.23447 0.15516
# Poissons Ratio (y) = 0.31182 0.51395
# Poissons Ratio (z) = 0.08287 0.20641
#
# Static dielectric constant tensor:
#      x y z
#    x 2.063550 0.000000 -0.039070 
#    y 0.000000 2.049850 0.000000 
#    z -0.039070 0.000000 2.025480 
# 
# From -- ./inp_files/52919.got.cif
#   From: 2010.05.17/outbox.cif.g08.bks.cpg/sg15_27_cif.got.tgz:52919.got - 2010.06.03 18:47:42.
