data_PCOD9297208
_publ_section_title
;
Structure prediction by ZEFSAII (Michael W. Deem and Ramdas Pophale) SiO2 
 PCOD9297208
Probable space group: C 2/C
;
_chemical_formula_sum "Si O2"
_cell_formula_units_Z 56
_cell_length_a 16.547956
_cell_length_b 9.175075
_cell_length_c 21.968134
_cell_angle_alpha 90.000000
_cell_angle_beta 143.291983
_cell_angle_gamma 90.000000
_cell_volume 1993.689526
_symmetry_space_group_name_H-M "C 2/C"
_symmetry_group_IT_number 15
_symmetry_cell_setting 'monoclinic'
loop_
_space_group_symop_operation_xyz
x,y,z
-x,y,1/2-z
-x,-y,-z
x,-y,1/2+z
1/2+x,1/2+y,z
1/2-x,1/2+y,1/2-z
1/2-x,1/2-y,-z
1/2+x,1/2-y,1/2+z
loop_
_atom_site_type_symbol
_atom_site_label
_atom_site_fract_x
_atom_site_fract_y
_atom_site_fract_z
Si Si1 0.636640 0.755338 0.575588
Si Si2 0.173254 0.435105 0.351209
Si Si3 0.445302 0.937475 0.084927
Si Si4 0.547618 0.571849 0.880419
Si Si5 0.000000 0.697052 0.250000
Si Si6 0.500000 0.665064 0.250000
Si Si7 0.851975 0.731058 0.963621
Si Si8 0.261811 0.954323 0.297514
O O1 0.687279 0.592355 0.596740
O O2 0.626927 0.820848 0.501769
O O3 0.485311 0.740296 0.506254
O O4 0.702256 0.882685 0.657197
O O5 0.121492 0.424598 0.389219
O O6 0.111361 0.276928 0.292354
O O7 0.108697 0.584129 0.288850
O O8 0.607627 0.921856 0.167263
O O9 0.395041 0.094569 0.031643
O O10 0.555957 0.701824 0.836192
O O11 0.556150 0.432388 0.840059
O O12 0.657077 0.627416 0.996630
O O13 0.395630 0.558775 0.816963
O O14 0.760369 0.653736 0.856139
#
# Coordination Sequence:
#
# PCOD9297208 Si02
#       8
#     8   8   8   8   4   4   8   8
#     4   9  18  35  60  89 118 152 199 249 304 363
#     4  11  19  38  54  88 119 159 186 251 301 352
#     4   9  18  35  60  89 118 152 199 249 304 363
#     4  11  20  42  58  83 118 164 192 249 300 352
#     4  10  24  34  56  86 120 148 214 236 286 374
#     4  10  24  34  56  86 120 148 214 236 286 374
#     4   9  19  37  61  89 118 155 202 246 297 364
#     4   9  19  37  61  89 118 155 202 246 297 364
#
# _framework density 28.088626999999999
#
# number of rings (size 3 to 8) (size 9 to 14) (size 15 to 20)
#    0.000    2.286    2.857    2.143    0.000    2.286 
#    0.000    5.714    0.000    3.429    0.000    0.000 
#    0.000    0.000    0.000    0.000    0.000    0.000 
#
# Total GULP energy -156367.850230 kJ/mol
# GULP energy per Si atom -5584.566080 kJ/mol
# Density = 2.802470 g / cm^3
# Si number density = 28.088627 Si / 1000 Ang^3
#
#
#
# Elastic Constant Matrix: (Units=GPa)
#
#
# Indices 1 2 3 4 5 6 
#
# 1 136.9501 46.2842 27.6105 0.0000 -7.5134 0.0000
# 2 46.2842 127.5905 7.7739 0.0000 -10.6410 0.0000
# 3 27.6105 7.7739 64.5920 0.0000 -5.9910 0.0000
# 4 0.0000 0.0000 0.0000 44.7480 0.0000 -3.9414
# 5 -7.5134 -10.6410 -5.9910 0.0000 43.4097 0.0000
# 6 0.0000 0.0000 0.0000 -3.9414 0.0000 55.1869
#
#
#
# Elastic Compliance Matrix: (Units=1/GPa)
#
#
# Indices 1 2 3 4 5 6 
#
# 1 0.009049 -0.003043 -0.003470 0.000000 0.000341 0.000000
# 2 -0.003043 0.009064 0.000372 0.000000 0.001747 0.000000
# 3 -0.003470 0.000372 0.017092 0.000000 0.001849 0.000000
# 4 0.000000 0.000000 0.000000 0.022489 0.000000 0.001606
# 5 0.000341 0.001747 0.001849 0.000000 0.023779 0.000000
# 6 0.000000 0.000000 0.000000 0.001606 0.000000 0.018235
#
#
# Mechanical properties :
#
#
# Convention : Reuss Voigt Hill
#
# Bulk Modulus (GPa) = 43.62457 54.71889 49.17173
# Shear Modulus (GPa) = 41.79554 45.16653 43.48104
#
# Velocity S-wave (km/s) = 3.86163 4.01434 3.93872
# Velocity P-wave (km/s) = 5.95379 6.40388 6.18293
#
# Compressibility (1/GPa) = 0.02292286
#
# Stress axis : x y z
#
# Youngs Moduli (GPa) = 110.51539 110.32310 58.50728
#
# Poissons Ratio (x) = 0.33566 0.20302
# Poissons Ratio (y) = 0.33624 -0.02174
# Poissons Ratio (z) = 0.38349 -0.04100
#
# Static dielectric constant tensor:
#      x y z
#    x 2.499230 0.000000 0.375620 
#    y 0.000000 2.219830 0.000000 
#    z 0.375620 0.000000 2.735510 
# 
# From -- ./inp_files/298206.got.cif
#   From: 2010.05.17/outbox.cif.g08.bks.cpg/sg15_150_cif.got.tgz:298206.got - 2010.06.03 18:47:42.
