data_PCOD9297565
_publ_section_title
;
Structure prediction by ZEFSAII (Michael W. Deem and Ramdas Pophale) SiO2 
 PCOD9297565
Probable space group: C 2/C
;
_chemical_formula_sum "Si O2"
_cell_formula_units_Z 52
_cell_length_a 9.844596
_cell_length_b 24.912744
_cell_length_c 15.441791
_cell_angle_alpha 90.000000
_cell_angle_beta 144.601159
_cell_angle_gamma 90.000000
_cell_volume 2193.785619
_symmetry_space_group_name_H-M "C 2/C"
_symmetry_group_IT_number 15
_symmetry_cell_setting 'monoclinic'
loop_
_space_group_symop_operation_xyz
x,y,z
-x,y,1/2-z
-x,-y,-z
x,-y,1/2+z
1/2+x,1/2+y,z
1/2-x,1/2+y,1/2-z
1/2-x,1/2-y,-z
1/2+x,1/2-y,1/2+z
loop_
_atom_site_type_symbol
_atom_site_label
_atom_site_fract_x
_atom_site_fract_y
_atom_site_fract_z
Si Si1 0.229105 0.924186 0.310969
Si Si2 0.220246 0.123576 0.193856
Si Si3 0.500000 0.364342 0.750000
Si Si4 0.079506 0.828153 0.115754
Si Si5 0.230627 0.504020 0.318862
Si Si6 0.863906 0.329422 0.495526
Si Si7 0.331887 0.765945 0.947759
O O1 0.285135 0.976931 0.284801
O O2 0.371391 0.888759 0.455005
O O3 0.000000 0.935888 0.250000
O O4 0.204124 0.879574 0.221795
O O5 0.428420 0.164476 0.326803
O O6 0.063163 0.106740 0.195335
O O7 0.308586 0.067429 0.205708
O O8 0.053842 0.152416 0.039456
O O9 0.709930 0.323060 0.873112
O O10 0.878794 0.816819 0.082812
O O11 0.230849 0.778588 0.157526
O O12 0.500000 0.500000 0.500000
O O13 0.000000 0.481537 0.250000
O O14 0.907339 0.283557 0.445992
O O15 0.250000 0.750000 0.000000
#
# Coordination Sequence:
#
# PCOD9297565 Si02
#       7
#     8   8   4   8   8   8   8
#     4  10  25  45  67 103 144 180 238 297 360 422
#     4  11  23  43  71  95 141 180 241 287 360 430
#     4  10  24  42  60 106 132 180 232 296 352 424
#     4  11  21  42  68  92 136 185 230 290 346 435
#     4  12  27  47  76 108 140 189 247 297 369 433
#     4  10  24  41  64  99 134 185 231 289 351 427
#     4  11  23  39  63  95 137 177 234 286 358 417
#
# _framework density 23.703319
#
# number of rings (size 3 to 8) (size 9 to 14) (size 15 to 20)
#    0.000    1.231    3.077    1.846    5.385    4.308 
#    0.000    3.077    0.000    0.000    0.000    0.000 
#    0.000    0.000    0.000    0.000    0.000    0.000 
#
# Total GULP energy -144907.404386 kJ/mol
# GULP energy per Si atom -5573.361707 kJ/mol
# Density = 2.364937 g / cm^3
# Si number density = 23.703319 Si / 1000 Ang^3
#
#
#
# Elastic Constant Matrix: (Units=GPa)
#
#
# Indices 1 2 3 4 5 6 
#
# 1 151.0366 34.8370 23.8320 0.0000 -3.8210 0.0000
# 2 34.8370 58.9550 -9.7660 0.0000 3.5950 0.0000
# 3 23.8320 -9.7660 63.6240 0.0000 -9.5596 0.0001
# 4 0.0000 0.0000 0.0000 30.4728 0.0000 -9.3352
# 5 -3.8210 3.5950 -9.5596 0.0000 22.3075 0.0000
# 6 0.0000 0.0000 0.0001 -9.3352 0.0000 54.3774
#
#
#
# Elastic Compliance Matrix: (Units=1/GPa)
#
#
# Indices 1 2 3 4 5 6 
#
# 1 0.008607 -0.005792 -0.004009 0.000000 0.000690 0.000000
# 2 -0.005792 0.021369 0.005112 0.000000 -0.002245 0.000000
# 3 -0.004009 0.005112 0.019000 0.000000 0.006632 0.000000
# 4 0.000000 0.000000 0.000000 0.034638 0.000000 0.005946
# 5 0.000690 -0.002245 0.006632 0.000000 0.048150 0.000000
# 6 0.000000 0.000000 0.000000 0.005946 0.000000 0.019411
#
#
# Mechanical properties :
#
#
# Convention : Reuss Voigt Hill
#
# Bulk Modulus (GPa) = 25.25434 41.26906 33.26170
# Shear Modulus (GPa) = 28.77666 36.41238 32.59452
#
# Velocity S-wave (km/s) = 3.48808 3.92366 3.71226
# Velocity P-wave (km/s) = 5.18650 6.16240 5.69539
#
# Compressibility (1/GPa) = 0.03959716
#
# Stress axis : x y z
#
# Youngs Moduli (GPa) = 116.18474 46.79784 52.63065
#
# Poissons Ratio (x) = 0.27106 0.21102
# Poissons Ratio (y) = 0.67296 -0.26906
# Poissons Ratio (z) = 0.46584 -0.23924
#
# Static dielectric constant tensor:
#      x y z
#    x 2.132300 0.000000 0.027640 
#    y 0.000000 1.951510 0.000000 
#    z 0.027640 0.000000 1.974760 
# 
# From -- ./inp_files/138752.got.cif
#   From: 2010.05.17/outbox.cif.g08.bks.cpg/sg15_70_cif.got.tgz:138752.got - 2010.06.03 18:47:42.
