data_PCOD9297176
_publ_section_title
;
Structure prediction by ZEFSAII (Michael W. Deem and Ramdas Pophale) SiO2 
 PCOD9297176
Probable space group: C 2/C
;
_chemical_formula_sum "Si O2"
_cell_formula_units_Z 44
_cell_length_a 9.861715
_cell_length_b 10.463925
_cell_length_c 17.233239
_cell_angle_alpha 90.000000
_cell_angle_beta 101.542279
_cell_angle_gamma 90.000000
_cell_volume 1742.373913
_symmetry_space_group_name_H-M "C 2/C"
_symmetry_group_IT_number 15
_symmetry_cell_setting 'monoclinic'
loop_
_space_group_symop_operation_xyz
x,y,z
-x,y,1/2-z
-x,-y,-z
x,-y,1/2+z
1/2+x,1/2+y,z
1/2-x,1/2+y,1/2-z
1/2-x,1/2-y,-z
1/2+x,1/2-y,1/2+z
loop_
_atom_site_type_symbol
_atom_site_label
_atom_site_fract_x
_atom_site_fract_y
_atom_site_fract_z
Si Si1 0.688309 0.930643 0.892488
Si Si2 0.000000 0.579518 0.750000
Si Si3 0.215722 0.657338 0.654697
Si Si4 0.776874 0.063561 0.049319
Si Si5 0.000000 0.818123 0.250000
Si Si6 0.500000 0.500000 0.000000
Si Si7 0.042060 0.726785 0.083176
O O1 0.616295 0.001283 0.812318
O O2 0.755845 0.798685 0.873634
O O3 0.453887 0.758029 0.822650
O O4 0.565163 0.889361 0.935889
O O5 0.913382 0.655404 0.803512
O O6 0.207103 0.549668 0.588841
O O7 0.357812 0.613864 0.713474
O O8 0.685656 0.185085 0.060394
O O9 0.940427 0.071619 0.075972
O O10 0.790800 0.015580 0.958385
O O11 0.518637 0.645071 0.959532
#
# Coordination Sequence:
#
# PCOD9297176 Si02
#       7
#     8   4   8   8   4   4   8
#     4  11  24  47  73 102 149 187 244 323 365 449
#     4  12  27  46  79 110 146 209 248 305 400 458
#     4  11  25  45  76 108 147 197 253 307 392 447
#     4  12  25  44  75 104 143 196 250 306 376 451
#     4  10  23  50  71 100 158 191 240 325 370 446
#     4  12  26  44  64 110 144 190 244 306 370 452
#     4  11  24  45  74 101 146 197 244 304 389 444
#
# _framework density 25.252901999999999
#
# number of rings (size 3 to 8) (size 9 to 14) (size 15 to 20)
#    0.000    0.727    5.455    3.818    2.545    0.000 
#    3.273    0.909    0.000    0.000    0.000    0.000 
#    0.000    0.000    0.000    0.000    0.000    0.000 
#
# Total GULP energy -122573.296883 kJ/mol
# GULP energy per Si atom -5571.513495 kJ/mol
# Density = 2.519543 g / cm^3
# Si number density = 25.252902 Si / 1000 Ang^3
#
#
#
# Elastic Constant Matrix: (Units=GPa)
#
#
# Indices 1 2 3 4 5 6 
#
# 1 94.5051 45.3226 57.5154 0.0000 -30.8916 0.0000
# 2 45.3226 93.0900 49.9820 0.0000 -8.1173 0.0000
# 3 57.5154 49.9820 143.4147 0.0000 -18.6762 0.0000
# 4 0.0000 0.0000 0.0000 27.5323 0.0000 -14.6583
# 5 -30.8916 -8.1173 -18.6762 0.0000 77.9801 0.0000
# 6 0.0000 0.0000 0.0000 -14.6583 0.0000 47.9135
#
#
#
# Elastic Compliance Matrix: (Units=1/GPa)
#
#
# Indices 1 2 3 4 5 6 
#
# 1 0.017834 -0.005843 -0.004413 0.000000 0.005400 0.000000
# 2 -0.005843 0.015135 -0.003125 0.000000 -0.001488 0.000000
# 3 -0.004413 -0.003125 0.009870 0.000000 0.000290 0.000000
# 4 0.000000 0.000000 0.000000 0.043388 0.000000 0.013274
# 5 0.005400 -0.001488 0.000290 0.000000 0.014878 0.000000
# 6 0.000000 0.000000 0.000000 0.013274 0.000000 0.024932
#
#
# Mechanical properties :
#
#
# Convention : Reuss Voigt Hill
#
# Bulk Modulus (GPa) = 62.19983 70.73885 66.46934
# Shear Modulus (GPa) = 31.61406 42.56450 37.08928
#
# Velocity S-wave (km/s) = 3.54206 4.10997 3.83654
# Velocity P-wave (km/s) = 6.43525 7.11305 6.78262
#
# Compressibility (1/GPa) = 0.01607721
#
# Stress axis : x y z
#
# Youngs Moduli (GPa) = 56.07206 66.07070 101.32174
#
# Poissons Ratio (x) = 0.38603 0.44711
# Poissons Ratio (y) = 0.32761 0.31667
# Poissons Ratio (z) = 0.24743 0.20650
#
# Static dielectric constant tensor:
#      x y z
#    x -2.043730 0.000000 0.086700 
#    y 0.000000 1.894190 0.000000 
#    z 0.086700 0.000000 2.030070 
# 
# From -- ./inp_files/291755.got.cif
#   From: 2010.05.17/outbox.cif.g08.bks.cpg/sg15_146_cif.got.tgz:291755.got - 2010.06.03 18:47:42.
