data_PCOD9297300
_publ_section_title
;
Structure prediction by ZEFSAII (Michael W. Deem and Ramdas Pophale) SiO2 
 PCOD9297300
Probable space group: C 2/C
;
_chemical_formula_sum "Si O2"
_cell_formula_units_Z 52
_cell_length_a 9.001468
_cell_length_b 15.935041
_cell_length_c 15.457948
_cell_angle_alpha 90.000000
_cell_angle_beta 74.724107
_cell_angle_gamma 90.000000
_cell_volume 2138.929164
_symmetry_space_group_name_H-M "C 2/C"
_symmetry_group_IT_number 15
_symmetry_cell_setting 'monoclinic'
loop_
_space_group_symop_operation_xyz
x,y,z
-x,y,1/2-z
-x,-y,-z
x,-y,1/2+z
1/2+x,1/2+y,z
1/2-x,1/2+y,1/2-z
1/2-x,1/2-y,-z
1/2+x,1/2-y,1/2+z
loop_
_atom_site_type_symbol
_atom_site_label
_atom_site_fract_x
_atom_site_fract_y
_atom_site_fract_z
Si Si1 0.947330 0.345342 0.381896
Si Si2 0.097051 0.195517 0.901182
Si Si3 0.500000 0.996766 0.250000
Si Si4 0.000000 0.788478 0.750000
Si Si5 0.196572 0.064635 0.236184
Si Si6 0.000000 0.913819 0.250000
Si Si7 0.091887 0.920407 0.949117
Si Si8 0.125635 0.673235 0.029087
O O1 0.775369 0.307900 0.400476
O O2 0.936874 0.432348 0.331736
O O3 0.051217 0.275986 0.315984
O O4 0.032010 0.355484 0.459049
O O5 0.059993 0.138879 0.822411
O O6 0.011069 0.155809 0.998359
O O7 0.010982 0.283072 0.895504
O O8 0.373197 0.053535 0.225745
O O9 0.862393 0.850599 0.797725
O O10 0.115186 0.070408 0.343329
O O11 0.136436 0.978320 0.203026
O O12 0.265535 0.901952 0.955539
O O13 0.000000 0.000000 0.000000
O O14 0.250000 0.750000 0.000000
#
# Coordination Sequence:
#
# PCOD9297300 Si02
#       8
#     8   8   4   4   8   4   8   8
#     4  11  23  45  67 102 136 186 230 295 342 418
#     4  11  23  42  71 101 135 182 235 286 351 416
#     4  11  24  41  71  97 142 176 242 275 348 419
#     4  10  24  40  68  91 141 174 232 290 350 396
#     4  11  24  43  65 102 133 183 227 285 345 416
#     4  11  22  41  71  96 129 188 222 283 354 415
#     4  11  22  43  66  99 141 182 227 284 350 418
#     4  10  24  38  66  97 134 176 228 281 343 413
#
# _framework density 24.311232
#
# number of rings (size 3 to 8) (size 9 to 14) (size 15 to 20)
#    0.000    1.231    3.077    2.308    4.308    2.462 
#    0.000    4.615    0.000    0.000    0.000    0.000 
#    0.000    0.000    0.000    0.000    0.000    0.000 
#
# Total GULP energy -145247.988085 kJ/mol
# GULP energy per Si atom -5586.461080 kJ/mol
# Density = 2.425590 g / cm^3
# Si number density = 24.311232 Si / 1000 Ang^3
#
#
#
# Elastic Constant Matrix: (Units=GPa)
#
#
# Indices 1 2 3 4 5 6 
#
# 1 183.4417 48.3878 16.2364 0.0000 17.9008 0.0000
# 2 48.3878 109.8978 25.8802 0.0000 3.7397 0.0000
# 3 16.2364 25.8802 55.3394 0.0000 17.5508 0.0000
# 4 0.0000 0.0000 0.0000 26.9275 0.0000 -6.0261
# 5 17.9008 3.7397 17.5508 0.0000 41.2393 0.0000
# 6 0.0000 0.0000 0.0000 -6.0261 0.0000 42.1810
#
#
#
# Elastic Compliance Matrix: (Units=1/GPa)
#
#
# Indices 1 2 3 4 5 6 
#
# 1 0.006425 -0.002801 0.000265 0.000000 -0.002648 0.000000
# 2 -0.002801 0.011506 -0.005333 0.000000 0.002442 0.000000
# 3 0.000265 -0.005333 0.023548 0.000000 -0.009653 0.000000
# 4 0.000000 0.000000 0.000000 0.038363 0.000000 0.005481
# 5 -0.002648 0.002442 -0.009653 0.000000 0.029285 0.000000
# 6 0.000000 0.000000 0.000000 0.005481 0.000000 0.024490
#
#
# Mechanical properties :
#
#
# Convention : Reuss Voigt Hill
#
# Bulk Modulus (GPa) = 38.85164 58.85417 48.85291
# Shear Modulus (GPa) = 31.65812 39.28120 35.46966
#
# Velocity S-wave (km/s) = 3.61252 4.02402 3.82381
# Velocity P-wave (km/s) = 5.78066 6.77137 6.29553
#
# Compressibility (1/GPa) = 0.02573894
#
# Stress axis : x y z
#
# Youngs Moduli (GPa) = 155.63831 86.91411 42.46569
#
# Poissons Ratio (x) = 0.24346 -0.01123
# Poissons Ratio (y) = 0.43597 0.22649
# Poissons Ratio (z) = -0.04118 0.46356
#
# Static dielectric constant tensor:
#      x y z
#    x 1.953290 0.000000 -0.029090 
#    y 0.000000 2.013050 0.000000 
#    z -0.029090 0.000000 1.992690 
# 
# From -- ./inp_files/190417.got.cif
#   From: 2010.05.17/outbox.cif.g08.bks.cpg/sg15_96_cif.got.tgz:190417.got - 2010.06.03 18:47:42.
