data_PCOD9297321
_publ_section_title
;
Structure prediction by ZEFSAII (Michael W. Deem and Ramdas Pophale) SiO2 
 PCOD9297321
Probable space group: C 2/C
;
_chemical_formula_sum "Si O2"
_cell_formula_units_Z 56
_cell_length_a 22.135285
_cell_length_b 12.711052
_cell_length_c 21.815524
_cell_angle_alpha 90.000000
_cell_angle_beta 24.167751
_cell_angle_gamma 90.000000
_cell_volume 2512.987129
_symmetry_space_group_name_H-M "C 2/C"
_symmetry_group_IT_number 15
_symmetry_cell_setting 'monoclinic'
loop_
_space_group_symop_operation_xyz
x,y,z
-x,y,1/2-z
-x,-y,-z
x,-y,1/2+z
1/2+x,1/2+y,z
1/2-x,1/2+y,1/2-z
1/2-x,1/2-y,-z
1/2+x,1/2-y,1/2+z
loop_
_atom_site_type_symbol
_atom_site_label
_atom_site_fract_x
_atom_site_fract_y
_atom_site_fract_z
Si Si1 0.494880 0.554501 0.642606
Si Si2 0.503724 0.718899 0.544640
Si Si3 0.836275 0.864400 0.960959
Si Si4 0.677849 0.132969 0.817107
Si Si5 0.956447 0.668513 0.691849
Si Si6 0.255997 0.930785 0.582705
Si Si7 0.829135 0.923070 0.706458
O O1 0.528814 0.670876 0.588972
O O2 0.608118 0.481225 0.572974
O O3 0.468421 0.489686 0.603666
O O4 0.609669 0.656423 0.399286
O O5 0.560310 0.835689 0.478718
O O6 0.334986 0.692237 0.683458
O O7 0.427105 0.927192 0.409976
O O8 0.820264 0.869262 0.902566
O O9 0.945657 0.773652 0.885309
O O10 0.163841 0.038188 0.677477
O O11 0.717827 0.009895 0.783638
O O12 0.608448 0.162931 0.816350
O O13 0.822360 0.653672 0.862195
O O14 0.763362 0.878610 0.831638
#
# Coordination Sequence:
#
# PCOD9297321 Si02
#       7
#     8   8   8   8   8   8   8
#     4   9  20  40  60  81 118 166 213 253 312 366
#     4  11  22  42  61  93 124 167 213 264 315 389
#     4  12  23  41  60  91 127 175 208 263 315 389
#     4  11  23  40  65  93 130 167 209 264 324 375
#     4  12  24  37  60  94 131 167 212 254 322 390
#     4  10  24  39  58  87 125 169 216 251 306 380
#     4   9  21  41  62  88 127 166 211 256 319 375
#
# _framework density 22.284237999999998
#
# number of rings (size 3 to 8) (size 9 to 14) (size 15 to 20)
#    0.857    0.571    0.000    7.286    4.000    1.714 
#    2.571    0.000    0.000    0.857    0.000    0.000 
#    0.000    0.000    0.000    0.000    0.000    0.000 
#
# Total GULP energy -156274.473465 kJ/mol
# GULP energy per Si atom -5581.231195 kJ/mol
# Density = 2.223352 g / cm^3
# Si number density = 22.284238 Si / 1000 Ang^3
#
#
#
# Elastic Constant Matrix: (Units=GPa)
#
#
# Indices 1 2 3 4 5 6 
#
# 1 105.3112 35.5014 46.5413 -0.0008 1.4165 0.0002
# 2 35.5014 38.2490 39.0778 -0.0025 -2.6500 0.0009
# 3 46.5413 39.0778 139.8626 -0.0030 1.9540 0.0011
# 4 -0.0008 -0.0025 -0.0030 37.4365 0.0011 6.0799
# 5 1.4165 -2.6500 1.9540 0.0011 29.8360 -0.0002
# 6 0.0002 0.0009 0.0011 6.0799 -0.0002 32.6953
#
#
#
# Elastic Compliance Matrix: (Units=1/GPa)
#
#
# Indices 1 2 3 4 5 6 
#
# 1 0.014102 -0.011799 -0.001373 -0.000001 -0.001627 0.000000
# 2 -0.011799 0.046925 -0.009259 0.000002 0.005334 -0.000001
# 3 -0.001373 -0.009259 0.010214 0.000000 -0.001426 0.000000
# 4 -0.000001 0.000002 0.000000 0.027544 -0.000001 -0.005122
# 5 -0.001627 0.005334 -0.001426 -0.000001 0.034161 0.000000
# 6 0.000000 -0.000001 0.000000 -0.005122 0.000000 0.031538
#
#
# Mechanical properties :
#
#
# Convention : Reuss Voigt Hill
#
# Bulk Modulus (GPa) = 37.90986 58.40711 48.15848
# Shear Modulus (GPa) = 22.92121 30.81370 26.86746
#
# Velocity S-wave (km/s) = 3.21063 3.72258 3.47604
# Velocity P-wave (km/s) = 5.54915 6.68908 6.14560
#
# Compressibility (1/GPa) = 0.02637836
#
# Stress axis : x y z
#
# Youngs Moduli (GPa) = 70.91244 21.31061 97.90619
#
# Poissons Ratio (x) = 0.25143 0.13446
# Poissons Ratio (y) = 0.83666 0.90654
# Poissons Ratio (z) = 0.09739 0.19732
#
# Static dielectric constant tensor:
#      x y z
#    x 1.850970 0.000000 -0.009410 
#    y 0.000000 1.952660 0.000000 
#    z -0.009410 0.000000 1.869060 
# 
# From -- ./inp_files/279766.got.cif
#   From: 2010.05.17/outbox.cif.g08.bks.cpg/sg15_140_cif.got.tgz:279766.got - 2010.06.03 18:47:42.
