data_PCOD9297279
_publ_section_title
;
Structure prediction by ZEFSAII (Michael W. Deem and Ramdas Pophale) SiO2 
 PCOD9297279
Probable space group: C 2/C
;
_chemical_formula_sum "Si O2"
_cell_formula_units_Z 52
_cell_length_a 13.402333
_cell_length_b 31.714134
_cell_length_c 8.688419
_cell_angle_alpha 90.000000
_cell_angle_beta 47.309665
_cell_angle_gamma 90.000000
_cell_volume 2714.428964
_symmetry_space_group_name_H-M "C 2/C"
_symmetry_group_IT_number 15
_symmetry_cell_setting 'monoclinic'
loop_
_space_group_symop_operation_xyz
x,y,z
-x,y,1/2-z
-x,-y,-z
x,-y,1/2+z
1/2+x,1/2+y,z
1/2-x,1/2+y,1/2-z
1/2-x,1/2-y,-z
1/2+x,1/2-y,1/2+z
loop_
_atom_site_type_symbol
_atom_site_label
_atom_site_fract_x
_atom_site_fract_y
_atom_site_fract_z
Si Si1 0.030789 0.954918 0.037356
Si Si2 0.897017 0.871947 0.211087
Si Si3 0.649979 0.945142 0.819944
Si Si4 0.361291 0.857517 0.817842
Si Si5 0.000000 0.491691 0.250000
Si Si6 0.958091 0.786700 0.971353
Si Si7 0.738012 0.271165 0.843672
O O1 0.000000 0.958365 0.250000
O O2 0.937957 0.915400 0.084742
O O3 0.187522 0.944566 0.843884
O O4 0.000000 0.000000 0.000000
O O5 0.747149 0.872608 0.440175
O O6 0.000000 0.867164 0.250000
O O7 0.915734 0.832228 0.081612
O O8 0.606006 0.897988 0.820937
O O9 0.600057 0.977634 0.740507
O O10 0.583591 0.962855 0.044488
O O11 0.500000 0.842186 0.750000
O O12 0.290193 0.819100 0.804088
O O13 0.085514 0.771437 0.940612
O O14 0.000000 0.788778 0.750000
O O15 0.834472 0.755007 0.130028
O O16 0.750000 0.250000 0.000000
#
# Coordination Sequence:
#
# PCOD9297279 Si02
#       7
#     8   8   8   8   4   8   8
#     4  11  22  37  64  92 124 165 221 272 321 392
#     4  11  21  43  66  91 126 179 222 266 330 399
#     4  11  21  41  61  92 127 171 216 266 325 398
#     4  12  23  40  69  96 124 168 231 271 313 401
#     4  10  24  38  64  88 134 174 204 268 342 380
#     4  12  25  43  66 100 139 171 212 283 336 385
#     4  12  23  44  71  96 126 178 226 258 327 406
#
# _framework density 19.156884999999999
#
# number of rings (size 3 to 8) (size 9 to 14) (size 15 to 20)
#    0.000    0.615    6.923    2.769    0.000    0.615 
#    1.385    3.077    0.000    0.000    0.000    0.000 
#    0.000    0.000    0.000    0.000    0.000    0.000 
#
# Total GULP energy -145365.334365 kJ/mol
# GULP energy per Si atom -5590.974399 kJ/mol
# Density = 1.911328 g / cm^3
# Si number density = 19.156885 Si / 1000 Ang^3
#
#
#
# Elastic Constant Matrix: (Units=GPa)
#
#
# Indices 1 2 3 4 5 6 
#
# 1 35.5468 0.2996 11.9084 0.0000 -7.2697 0.0000
# 2 0.2996 134.5212 48.9394 0.0000 9.1901 0.0000
# 3 11.9084 48.9394 99.5201 0.0000 4.2318 0.0000
# 4 0.0000 0.0000 0.0000 40.4120 0.0000 -1.2881
# 5 -7.2697 9.1901 4.2318 0.0000 38.9002 0.0000
# 6 0.0000 0.0000 0.0000 -1.2881 0.0000 24.3645
#
#
#
# Elastic Compliance Matrix: (Units=1/GPa)
#
#
# Indices 1 2 3 4 5 6 
#
# 1 0.030860 0.001167 -0.004521 0.000000 0.005983 0.000000
# 2 0.001167 0.009206 -0.004605 0.000000 -0.001456 0.000000
# 3 -0.004521 -0.004605 0.012903 0.000000 -0.001161 0.000000
# 4 0.000000 0.000000 0.000000 0.024787 0.000000 0.001310
# 5 0.005983 -0.001456 -0.001161 0.000000 0.027295 0.000000
# 6 0.000000 0.000000 0.000000 0.001310 0.000000 0.041113
#
#
# Mechanical properties :
#
#
# Convention : Reuss Voigt Hill
#
# Bulk Modulus (GPa) = 26.98910 43.54253 35.26581
# Shear Modulus (GPa) = 28.66449 34.63137 31.64793
#
# Velocity S-wave (km/s) = 3.87240 4.25641 4.06894
# Velocity P-wave (km/s) = 5.84064 6.85090 6.36584
#
# Compressibility (1/GPa) = 0.03705199
#
# Stress axis : x y z
#
# Youngs Moduli (GPa) = 32.40402 108.62630 77.50142
#
# Poissons Ratio (x) = -0.12680 0.35039
# Poissons Ratio (y) = -0.03783 0.35688
# Poissons Ratio (z) = 0.14650 0.50020
#
# Static dielectric constant tensor:
#      x y z
#    x 1.701850 0.000000 -0.027310 
#    y 0.000000 1.681280 0.000000 
#    z -0.027310 0.000000 1.647540 
# 
# From -- ./inp_files/44763.got.cif
#   From: 2010.05.17/outbox.cif.g08.bks.cpg/sg15_23_cif.got.tgz:44763.got - 2010.06.03 18:47:42.
