data_PCOD9297225
_publ_section_title
;
Structure prediction by ZEFSAII (Michael W. Deem and Ramdas Pophale) SiO2 
 PCOD9297225
Probable space group: C 2/C
;
_chemical_formula_sum "Si O2"
_cell_formula_units_Z 60
_cell_length_a 21.056033
_cell_length_b 10.473604
_cell_length_c 19.120576
_cell_angle_alpha 90.000000
_cell_angle_beta 141.924040
_cell_angle_gamma 90.000000
_cell_volume 2600.468479
_symmetry_space_group_name_H-M "C 2/C"
_symmetry_group_IT_number 15
_symmetry_cell_setting 'monoclinic'
loop_
_space_group_symop_operation_xyz
x,y,z
-x,y,1/2-z
-x,-y,-z
x,-y,1/2+z
1/2+x,1/2+y,z
1/2-x,1/2+y,1/2-z
1/2-x,1/2-y,-z
1/2+x,1/2-y,1/2+z
loop_
_atom_site_type_symbol
_atom_site_label
_atom_site_fract_x
_atom_site_fract_y
_atom_site_fract_z
Si Si1 0.823839 0.226060 0.931968
Si Si2 0.177943 0.880681 0.350066
Si Si3 0.476090 0.826142 0.440110
Si Si4 0.843142 0.887244 0.759065
Si Si5 0.094933 0.293669 0.969942
Si Si6 0.783483 0.513663 0.731904
Si Si7 0.500000 0.806201 0.750000
Si Si8 0.680953 0.471700 0.506308
O O1 0.716317 0.298375 0.848663
O O2 0.796585 0.134553 0.841651
O O3 0.853581 0.118749 0.014375
O O4 0.910528 0.329826 0.992621
O O5 0.286257 0.832369 0.413136
O O6 0.207970 0.942746 0.450604
O O7 0.092978 0.776899 0.296911
O O8 0.129533 0.983701 0.256284
O O9 0.432502 0.692203 0.372471
O O10 0.471840 0.819223 0.519826
O O11 0.395049 0.932762 0.346248
O O12 0.762169 0.919431 0.750624
O O13 0.102754 0.141281 0.960789
O O14 0.051837 0.365419 0.863972
O O15 0.772716 0.462781 0.643313
#
# Coordination Sequence:
#
# PCOD9297225 Si02
#       8
#     8   8   8   8   8   8   4   8
#     4   9  23  38  58  94 119 159 207 250 316 362
#     4  11  24  41  62  91 125 166 207 257 314 367
#     4  11  21  38  64  92 124 160 205 261 309 376
#     4  11  22  39  64  89 122 158 214 256 311 374
#     4  11  22  40  60  92 127 155 206 261 308 368
#     4   9  20  38  59  91 120 165 200 257 314 355
#     4  10  24  36  60  92 116 168 204 250 308 372
#     4   9  20  39  59  81 125 157 201 254 305 361
#
# _framework density 23.072766999999999
#
# number of rings (size 3 to 8) (size 9 to 14) (size 15 to 20)
#    0.800    1.067    2.667    1.600    5.600    2.133 
#    2.400    0.000    0.000    0.000    0.000    0.000 
#    0.000    0.000    0.000    0.000    0.000    0.000 
#
# Total GULP energy -167397.509547 kJ/mol
# GULP energy per Si atom -5579.916985 kJ/mol
# Density = 2.302025 g / cm^3
# Si number density = 23.072767 Si / 1000 Ang^3
#
#
#
# Elastic Constant Matrix: (Units=GPa)
#
#
# Indices 1 2 3 4 5 6 
#
# 1 44.8046 7.6278 4.6801 0.0000 -8.9911 0.0000
# 2 7.6278 35.0702 5.6694 0.0000 -5.0169 0.0000
# 3 4.6801 5.6694 68.3393 0.0000 -8.1743 0.0000
# 4 0.0000 0.0000 0.0000 31.5619 0.0000 -1.3454
# 5 -8.9911 -5.0169 -8.1743 0.0000 27.4527 0.0000
# 6 0.0000 0.0000 0.0000 -1.3454 0.0000 19.3920
#
#
#
# Elastic Compliance Matrix: (Units=1/GPa)
#
#
# Indices 1 2 3 4 5 6 
#
# 1 0.024518 -0.004238 -0.000477 0.000000 0.007114 0.000000
# 2 -0.004238 0.030241 -0.001787 0.000000 0.003606 0.000000
# 3 -0.000477 -0.001787 0.015301 0.000000 0.004073 0.000000
# 4 0.000000 0.000000 0.000000 0.031778 0.000000 0.002205
# 5 0.007114 0.003606 0.004073 0.000000 0.040628 0.000000
# 6 0.000000 0.000000 0.000000 0.002205 0.000000 0.051721
#
#
# Mechanical properties :
#
#
# Convention : Reuss Voigt Hill
#
# Bulk Modulus (GPa) = 17.52660 20.46319 18.99489
# Shear Modulus (GPa) = 22.10350 24.36377 23.23363
#
# Velocity S-wave (km/s) = 3.09850 3.25307 3.17673
# Velocity P-wave (km/s) = 4.51815 4.79564 4.65896
#
# Compressibility (1/GPa) = 0.05705614
#
# Stress axis : x y z
#
# Youngs Moduli (GPa) = 40.78650 33.06790 65.35523
#
# Poissons Ratio (x) = 0.14014 0.03115
# Poissons Ratio (y) = 0.17285 0.11680
# Poissons Ratio (z) = 0.01944 0.05910
#
# Static dielectric constant tensor:
#      x y z
#    x 1.806110 0.000000 -0.002740 
#    y 0.000000 1.951400 0.000000 
#    z -0.002740 0.000000 1.887570 
# 
# From -- ./inp_files/255560.got.cif
#   From: 2010.05.17/outbox.cif.g08.bks.cpg/sg15_128_cif.got.tgz:255560.got - 2010.06.03 18:47:42.
