data_PCOD9297093
_publ_section_title
;
Structure prediction by ZEFSAII (Michael W. Deem and Ramdas Pophale) SiO2 
 PCOD9297093
Probable space group: C 2/C
;
_chemical_formula_sum "Si O2"
_cell_formula_units_Z 44
_cell_length_a 10.264176
_cell_length_b 18.739434
_cell_length_c 8.607175
_cell_angle_alpha 90.000000
_cell_angle_beta 105.454533
_cell_angle_gamma 90.000000
_cell_volume 1595.684908
_symmetry_space_group_name_H-M "C 2/C"
_symmetry_group_IT_number 15
_symmetry_cell_setting 'monoclinic'
loop_
_space_group_symop_operation_xyz
x,y,z
-x,y,1/2-z
-x,-y,-z
x,-y,1/2+z
1/2+x,1/2+y,z
1/2-x,1/2+y,1/2-z
1/2-x,1/2-y,-z
1/2+x,1/2-y,1/2+z
loop_
_atom_site_type_symbol
_atom_site_label
_atom_site_fract_x
_atom_site_fract_y
_atom_site_fract_z
Si Si1 0.160961 0.300945 0.177939
Si Si2 0.788537 0.479250 0.493116
Si Si3 0.603086 0.538093 0.662550
Si Si4 0.119727 0.642657 0.984135
Si Si5 0.932717 0.816776 0.075744
Si Si6 0.500000 0.115360 0.250000
O O1 0.191842 0.308932 0.372743
O O2 0.279771 0.320945 0.095576
O O3 0.091543 0.227448 0.089903
O O4 0.036077 0.353649 0.113815
O O5 0.652601 0.481791 0.553451
O O6 0.740006 0.454120 0.308742
O O7 0.824497 0.562911 0.500634
O O8 0.904234 0.436486 0.617948
O O9 0.500000 0.502563 0.750000
O O10 0.467081 0.613881 0.905956
O O11 0.102552 0.656651 0.164267
O O12 0.000000 0.780882 0.250000
#
# Coordination Sequence:
#
# PCOD9297093 Si02
#       6
#     8   8   8   8   8   4
#     4  10  24  46  78 111 152 202 274 324 390 467
#     4  12  25  46  71 118 158 208 262 318 399 477
#     4  11  25  44  75 107 162 207 255 318 397 482
#     4  11  24  44  77 113 153 201 263 329 386 470
#     4  10  23  47  80 109 151 211 256 335 394 466
#     4  12  26  40  76 110 162 210 254 332 392 462
#
# _framework density 27.574363999999999
#
# number of rings (size 3 to 8) (size 9 to 14) (size 15 to 20)
#    0.000    1.091    1.818    4.364   11.455    0.000 
#    0.000    8.182   20.000    0.000    0.000    0.000 
#    0.000    0.000    0.000    0.000    0.000    0.000 
#
# Total GULP energy -122616.371628 kJ/mol
# GULP energy per Si atom -5573.471438 kJ/mol
# Density = 2.751160 g / cm^3
# Si number density = 27.574364 Si / 1000 Ang^3
#
#
#
# Elastic Constant Matrix: (Units=GPa)
#
#
# Indices 1 2 3 4 5 6 
#
# 1 120.3101 33.4386 29.3884 0.0000 -5.9770 0.0000
# 2 33.4386 115.5005 95.2373 0.0000 8.8464 0.0000
# 3 29.3884 95.2373 187.9552 0.0000 -6.8954 0.0000
# 4 0.0000 0.0000 0.0000 44.4490 0.0000 9.0716
# 5 -5.9770 8.8464 -6.8954 0.0000 62.2266 0.0000
# 6 0.0000 0.0000 0.0000 9.0716 0.0000 19.4142
#
#
#
# Elastic Compliance Matrix: (Units=1/GPa)
#
#
# Indices 1 2 3 4 5 6 
#
# 1 0.009137 -0.002753 0.000013 0.000000 0.001271 0.000000
# 2 -0.002753 0.016265 -0.007938 0.000000 -0.003456 0.000000
# 3 0.000013 -0.007938 0.009420 0.000000 0.002174 0.000000
# 4 0.000000 0.000000 0.000000 0.024869 0.000000 -0.011621
# 5 0.001271 -0.003456 0.002174 0.000000 0.016925 0.000000
# 6 0.000000 0.000000 0.000000 -0.011621 0.000000 0.056939
#
#
# Mechanical properties :
#
#
# Convention : Reuss Voigt Hill
#
# Bulk Modulus (GPa) = 74.26052 82.21049 78.23550
# Shear Modulus (GPa) = 31.36770 42.93140 37.14955
#
# Velocity S-wave (km/s) = 3.37644 3.95008 3.67447
# Velocity P-wave (km/s) = 6.49538 7.11920 6.81443
#
# Compressibility (1/GPa) = 0.01346611
#
# Stress axis : x y z
#
# Youngs Moduli (GPa) = 109.44462 61.48147 106.15464
#
# Poissons Ratio (x) = 0.16928 -0.00139
# Poissons Ratio (y) = 0.30134 0.84264
# Poissons Ratio (z) = -0.00143 0.48803
#
# Static dielectric constant tensor:
#      x y z
#    x 1.830500 0.000000 -3.956340 
#    y 0.000000 2.264930 0.000000 
#    z -3.956340 0.000000 -33.028280 
# 
# From -- ./inp_files/32224.got.cif
#   From: 2010.05.17/outbox.cif.g08.bks.cpg/sg15_17_cif.got.tgz:32224.got - 2010.06.03 18:47:42.
