data_PCOD9297149
_publ_section_title
;
Structure prediction by ZEFSAII (Michael W. Deem and Ramdas Pophale) SiO2 
 PCOD9297149
Probable space group: C 2/C
;
_chemical_formula_sum "Si O2"
_cell_formula_units_Z 24
_cell_length_a 10.344976
_cell_length_b 10.229617
_cell_length_c 10.012136
_cell_angle_alpha 90.000000
_cell_angle_beta 120.043541
_cell_angle_gamma 90.000000
_cell_volume 917.181994
_symmetry_space_group_name_H-M "C 2/C"
_symmetry_group_IT_number 15
_symmetry_cell_setting 'monoclinic'
loop_
_space_group_symop_operation_xyz
x,y,z
-x,y,1/2-z
-x,-y,-z
x,-y,1/2+z
1/2+x,1/2+y,z
1/2-x,1/2+y,1/2-z
1/2-x,1/2-y,-z
1/2+x,1/2-y,1/2+z
loop_
_atom_site_type_symbol
_atom_site_label
_atom_site_fract_x
_atom_site_fract_y
_atom_site_fract_z
Si Si1 0.864342 0.900395 0.442505
Si Si2 0.322870 0.750001 0.680276
Si Si3 0.364342 0.900395 0.942506
O O1 0.789483 0.871379 0.259697
O O2 0.918816 0.750000 0.505823
O O3 0.710517 0.128619 0.240303
O O4 0.000000 0.000000 0.500000
O O5 0.500000 0.750000 0.750000
O O6 0.250000 0.750000 0.500000
O O7 0.250000 0.063122 0.500000
O O8 0.500000 0.000000 0.000000
#
# Coordination Sequence:
#
# PCOD9297149 Si02
#       3
#     8   8   8
#     4   9  21  46  82 114 159 211 274 334 410 488
#     4  10  23  48  79 114 165 214 265 340 419 488
#     4   9  21  46  82 114 159 211 274 334 410 488
#
# _framework density 26.167107999999999
#
# number of rings (size 3 to 8) (size 9 to 14) (size 15 to 20)
#    2.000    0.667    0.000    0.000    0.000    4.000 
#    0.000   23.333    0.000    2.000    0.000    0.000 
#    0.000    0.000    0.000    0.000    0.000    0.000 
#
# Total GULP energy -67217.388035 kJ/mol
# GULP energy per Si atom -5601.449003 kJ/mol
# Density = 2.610755 g / cm^3
# Si number density = 26.167108 Si / 1000 Ang^3
#
#
#
# Elastic Constant Matrix: (Units=GPa)
#
#
# Indices 1 2 3 4 5 6 
#
# 1 292.3549 116.3988 132.4002 0.0000 -35.9369 0.0000
# 2 116.3988 205.1298 73.0496 0.0000 -1.5556 0.0000
# 3 132.4002 73.0496 262.3968 0.0000 -43.6424 0.0000
# 4 0.0000 0.0000 0.0000 29.2986 0.0000 11.9643
# 5 -35.9369 -1.5556 -43.6424 0.0000 57.0646 0.0000
# 6 0.0000 0.0000 0.0000 11.9643 0.0000 72.6749
#
#
#
# Elastic Compliance Matrix: (Units=1/GPa)
#
#
# Indices 1 2 3 4 5 6 
#
# 1 0.005424 -0.002451 -0.001716 0.000000 0.002037 0.000000
# 2 -0.002451 0.006586 -0.000944 0.000000 -0.002086 0.000000
# 3 -0.001716 -0.000944 0.005448 0.000000 0.003061 0.000000
# 4 0.000000 0.000000 0.000000 0.036591 0.000000 -0.006024
# 5 0.002037 -0.002086 0.003061 0.000000 0.021091 0.000000
# 6 0.000000 0.000000 0.000000 -0.006024 0.000000 0.014752
#
#
# Mechanical properties :
#
#
# Convention : Reuss Voigt Hill
#
# Bulk Modulus (GPa) = 138.16944 155.95322 147.06133
# Shear Modulus (GPa) = 48.76854 61.00981 54.88918
#
# Velocity S-wave (km/s) = 4.32178 4.83385 4.58497
# Velocity P-wave (km/s) = 8.82163 9.53326 9.18434
#
# Compressibility (1/GPa) = 0.00723749
#
# Stress axis : x y z
#
# Youngs Moduli (GPa) = 184.37441 151.83435 183.53981
#
# Poissons Ratio (x) = 0.37219 0.31487
# Poissons Ratio (y) = 0.45195 0.17319
# Poissons Ratio (z) = 0.31630 0.14327
#
# Static dielectric constant tensor:
#      x y z
#    x -50.339780 0.000000 3.492240 
#    y 0.000000 2.260320 0.000000 
#    z 3.492240 0.000000 1.834990 
# 
# From -- ./inp_files/102310.got.cif
#   From: 2010.05.17/outbox.cif.g08.bks.cpg/sg15_52_cif.got.tgz:102310.got - 2010.06.03 18:47:42.
