data_PCOD9297479
_publ_section_title
;
Structure prediction by ZEFSAII (Michael W. Deem and Ramdas Pophale) SiO2 
 PCOD9297479
Probable space group: C 2/C
;
_chemical_formula_sum "Si O2"
_cell_formula_units_Z 36
_cell_length_a 22.092120
_cell_length_b 9.042059
_cell_length_c 18.841079
_cell_angle_alpha 90.000000
_cell_angle_beta 24.764437
_cell_angle_gamma 90.000000
_cell_volume 1576.554513
_symmetry_space_group_name_H-M "C 2/C"
_symmetry_group_IT_number 15
_symmetry_cell_setting 'monoclinic'
loop_
_space_group_symop_operation_xyz
x,y,z
-x,y,1/2-z
-x,-y,-z
x,-y,1/2+z
1/2+x,1/2+y,z
1/2-x,1/2+y,1/2-z
1/2-x,1/2-y,-z
1/2+x,1/2-y,1/2+z
loop_
_atom_site_type_symbol
_atom_site_label
_atom_site_fract_x
_atom_site_fract_y
_atom_site_fract_z
Si Si1 0.886049 0.293138 0.309336
Si Si2 0.706260 0.109248 0.133321
Si Si3 0.845992 0.189983 0.677319
Si Si4 0.500000 0.303013 0.250000
Si Si5 0.348909 0.640193 0.209900
O O1 0.750000 0.250000 0.500000
O O2 0.857070 0.445380 0.299133
O O3 0.905002 0.167968 0.229583
O O4 0.000000 0.315426 0.250000
O O5 0.698167 0.190354 0.217179
O O6 0.597265 0.202700 0.198915
O O7 0.872199 0.110127 0.927805
O O8 0.776734 0.246972 0.678043
O O9 0.017305 0.174819 0.484496
O O10 0.796501 0.027194 0.754113
#
# Coordination Sequence:
#
# PCOD9297479 Si02
#       5
#     8   8   8   4   8
#     4  12  28  45  68 103 146 188 232 287 349 416
#     4  11  24  44  70 103 140 184 231 285 350 415
#     4  11  25  46  75 103 137 181 232 291 347 414
#     4  10  24  40  70 102 140 178 232 280 346 420
#     4  11  26  46  71 104 139 181 232 287 349 414
#
# _framework density 22.834605
#
# number of rings (size 3 to 8) (size 9 to 14) (size 15 to 20)
#    0.000    0.889    1.111    4.000    7.778   10.667 
#    0.000    0.000    0.000    0.000    0.000    0.000 
#    0.000    0.000    0.000    0.000    0.000    0.000 
#
# Total GULP energy -100705.067172 kJ/mol
# GULP energy per Si atom -5594.725954 kJ/mol
# Density = 2.278263 g / cm^3
# Si number density = 22.834605 Si / 1000 Ang^3
#
#
#
# Elastic Constant Matrix: (Units=GPa)
#
#
# Indices 1 2 3 4 5 6 
#
# 1 119.8612 43.5675 21.4241 0.0001 -7.4618 0.0000
# 2 43.5675 98.4699 -1.9843 0.0003 -12.1382 -0.0002
# 3 21.4241 -1.9843 70.0978 0.0002 -14.8612 -0.0001
# 4 0.0001 0.0003 0.0002 14.9751 0.0000 7.0572
# 5 -7.4618 -12.1382 -14.8612 0.0000 40.6129 0.0000
# 6 0.0000 -0.0002 -0.0001 7.0572 0.0000 30.2509
#
#
#
# Elastic Compliance Matrix: (Units=1/GPa)
#
#
# Indices 1 2 3 4 5 6 
#
# 1 0.010720 -0.004916 -0.003588 0.000000 -0.000812 0.000000
# 2 -0.004916 0.012869 0.002700 0.000000 0.003931 0.000000
# 3 -0.003588 0.002700 0.016771 0.000000 0.006285 0.000000
# 4 0.000000 0.000000 0.000000 0.075026 0.000000 -0.017503
# 5 -0.000812 0.003931 0.006285 0.000000 0.027948 0.000000
# 6 0.000000 0.000000 0.000000 -0.017503 0.000000 0.037140
#
#
# Mechanical properties :
#
#
# Convention : Reuss Voigt Hill
#
# Bulk Modulus (GPa) = 34.77766 46.04929 40.41348
# Shear Modulus (GPa) = 24.79345 32.19591 28.49468
#
# Velocity S-wave (km/s) = 3.29870 3.75902 3.53636
# Velocity P-wave (km/s) = 5.45636 6.24904 5.86611
#
# Compressibility (1/GPa) = 0.02875409
#
# Stress axis : x y z
#
# Youngs Moduli (GPa) = 93.27949 77.70435 59.62603
#
# Poissons Ratio (x) = 0.38197 0.21393
# Poissons Ratio (y) = 0.45853 -0.16100
# Poissons Ratio (z) = 0.33468 -0.20981
#
# Static dielectric constant tensor:
#      x y z
#    x 1.808400 0.000000 0.069420 
#    y 0.000000 1.811930 0.000000 
#    z 0.069420 0.000000 1.686730 
# 
# From -- ./inp_files/59866.got.cif
#   From: 2010.05.17/outbox.cif.g08.bks.cpg/sg15_30_cif.got.tgz:59866.got - 2010.06.03 18:47:42.
