data_PCOD9297040
_publ_section_title
;
Structure prediction by ZEFSAII (Michael W. Deem and Ramdas Pophale) SiO2 
 PCOD9297040
Probable space group: C 2/C
;
_chemical_formula_sum "Si O2"
_cell_formula_units_Z 64
_cell_length_a 26.615505
_cell_length_b 9.847247
_cell_length_c 12.461200
_cell_angle_alpha 90.000000
_cell_angle_beta 90.175532
_cell_angle_gamma 90.000000
_cell_volume 3265.933750
_symmetry_space_group_name_H-M "C 2/C"
_symmetry_group_IT_number 15
_symmetry_cell_setting 'monoclinic'
loop_
_space_group_symop_operation_xyz
x,y,z
-x,y,1/2-z
-x,-y,-z
x,-y,1/2+z
1/2+x,1/2+y,z
1/2-x,1/2+y,1/2-z
1/2-x,1/2-y,-z
1/2+x,1/2-y,1/2+z
loop_
_atom_site_type_symbol
_atom_site_label
_atom_site_fract_x
_atom_site_fract_y
_atom_site_fract_z
Si Si1 0.207716 0.432429 0.297320
Si Si2 0.385887 0.707617 0.908933
Si Si3 0.355641 0.676859 0.141464
Si Si4 0.555425 0.768563 0.206372
Si Si5 0.298796 0.823970 0.547196
Si Si6 0.524453 0.510051 0.623815
Si Si7 0.871421 0.480337 0.384614
Si Si8 0.182534 0.110512 0.783706
O O1 0.185182 0.296698 0.349990
O O2 0.219974 0.550691 0.380593
O O3 0.164251 0.490326 0.220016
O O4 0.257772 0.394226 0.234204
O O5 0.438719 0.638876 0.880130
O O6 0.386017 0.870129 0.923613
O O7 0.345814 0.671146 0.818071
O O8 0.367443 0.643915 0.019592
O O9 0.406357 0.730310 0.197700
O O10 0.336486 0.541543 0.198025
O O11 0.500000 0.798131 0.250000
O O12 0.552355 0.634434 0.133377
O O13 0.579708 0.894318 0.145235
O O14 0.250000 0.750000 0.500000
O O15 0.327085 0.710604 0.617362
O O16 0.337344 0.892282 0.464942
O O17 0.500000 0.516537 0.750000
O O18 0.500000 0.500000 0.500000
#
# Coordination Sequence:
#
# PCOD9297040 Si02
#       8
#     8   8   8   8   8   8   8   8
#     4  11  24  44  63  97 140 180 228 281 344 423
#     4  12  25  43  67 102 137 176 236 291 352 429
#     4  11  25  43  68  99 138 180 231 293 356 418
#     4  10  23  47  71  98 135 180 230 291 362 417
#     4  12  25  42  66  98 141 186 230 281 348 418
#     4  11  25  47  74 105 140 181 240 301 368 435
#     4  11  25  44  68  99 137 182 225 288 348 424
#     4  12  26  39  67  99 135 183 236 279 346 425
#
# _framework density 19.596233000000002
#
# number of rings (size 3 to 8) (size 9 to 14) (size 15 to 20)
#    0.000    0.750    5.000    2.250    5.250    1.000 
#    0.000    2.500    0.000    0.000    0.000    0.000 
#    0.000    0.000    0.000    0.000    0.000    0.000 
#
# Total GULP energy -178569.887653 kJ/mol
# GULP energy per Si atom -5580.308989 kJ/mol
# Density = 1.955163 g / cm^3
# Si number density = 19.596233 Si / 1000 Ang^3
#
#
#
# Elastic Constant Matrix: (Units=GPa)
#
#
# Indices 1 2 3 4 5 6 
#
# 1 96.8974 53.5795 25.5820 0.0000 -13.2027 0.0000
# 2 53.5795 107.7734 18.8813 0.0000 -13.0220 0.0000
# 3 25.5820 18.8813 67.5286 0.0000 -7.0113 0.0000
# 4 0.0000 0.0000 0.0000 34.7185 0.0000 1.6889
# 5 -13.2027 -13.0220 -7.0113 0.0000 27.5849 0.0000
# 6 0.0000 0.0000 0.0000 1.6889 0.0000 38.1789
#
#
#
# Elastic Compliance Matrix: (Units=1/GPa)
#
#
# Indices 1 2 3 4 5 6 
#
# 1 0.015389 -0.006612 -0.003636 0.000000 0.003320 0.000000
# 2 -0.006612 0.013052 -0.000856 0.000000 0.002779 0.000000
# 3 -0.003636 -0.000856 0.016642 0.000000 0.002085 0.000000
# 4 0.000000 0.000000 0.000000 0.028865 0.000000 -0.001277
# 5 0.003320 0.002779 0.002085 0.000000 0.039683 0.000000
# 6 0.000000 0.000000 0.000000 -0.001277 0.000000 0.026249
#
#
# Mechanical properties :
#
#
# Convention : Reuss Voigt Hill
#
# Bulk Modulus (GPa) = 43.71858 52.03167 47.87512
# Shear Modulus (GPa) = 29.46154 31.70690 30.58422
#
# Velocity S-wave (km/s) = 3.88161 4.02681 3.95488
# Velocity P-wave (km/s) = 6.51516 6.94477 6.73339
#
# Compressibility (1/GPa) = 0.02287357
#
# Stress axis : x y z
#
# Youngs Moduli (GPa) = 64.98204 76.61775 60.08938
#
# Poissons Ratio (x) = 0.50663 0.21850
# Poissons Ratio (y) = 0.42969 0.05143
# Poissons Ratio (z) = 0.23629 0.06557
#
# Static dielectric constant tensor:
#      x y z
#    x 1.676440 0.000000 -0.012780 
#    y 0.000000 1.661770 0.000000 
#    z -0.012780 0.000000 1.742060 
# 
# From -- ./inp_files/125907.got.cif
#   From: 2010.05.17/outbox.cif.g08.bks.cpg/sg15_63_cif.got.tgz:125907.got - 2010.06.03 18:47:42.
