data_PCOD9297201
_publ_section_title
;
Structure prediction by ZEFSAII (Michael W. Deem and Ramdas Pophale) SiO2 
 PCOD9297201
Probable space group: C 2/C
;
_chemical_formula_sum "Si O2"
_cell_formula_units_Z 48
_cell_length_a 10.189658
_cell_length_b 9.382291
_cell_length_c 22.406501
_cell_angle_alpha 90.000000
_cell_angle_beta 73.056533
_cell_angle_gamma 90.000000
_cell_volume 2049.130620
_symmetry_space_group_name_H-M "C 2/C"
_symmetry_group_IT_number 15
_symmetry_cell_setting 'monoclinic'
loop_
_space_group_symop_operation_xyz
x,y,z
-x,y,1/2-z
-x,-y,-z
x,-y,1/2+z
1/2+x,1/2+y,z
1/2-x,1/2+y,1/2-z
1/2-x,1/2-y,-z
1/2+x,1/2-y,1/2+z
loop_
_atom_site_type_symbol
_atom_site_label
_atom_site_fract_x
_atom_site_fract_y
_atom_site_fract_z
Si Si1 0.883287 0.434279 0.702295
Si Si2 0.000000 0.317063 0.250000
Si Si3 0.427919 0.010716 0.920380
Si Si4 0.165164 0.966380 0.022806
Si Si5 0.617986 0.429797 0.655725
Si Si6 0.500000 0.678518 0.750000
Si Si7 0.921626 0.295009 0.021969
O O1 0.766774 0.431373 0.667853
O O2 0.880704 0.575479 0.743363
O O3 0.029777 0.453562 0.649015
O O4 0.887451 0.289671 0.739532
O O5 0.954993 0.210457 0.308499
O O6 0.509392 0.151674 0.927404
O O7 0.270596 0.031938 0.960538
O O8 0.481409 0.890038 0.959935
O O9 0.262937 0.846184 0.043877
O O10 0.122629 0.061613 0.083765
O O11 0.062510 0.866843 0.999413
O O12 0.544912 0.571882 0.691343
#
# Coordination Sequence:
#
# PCOD9297201 Si02
#       7
#     8   4   8   8   8   4   8
#     4  11  20  38  57  78 109 143 181 227 265 317
#     4  10  26  38  52  82 112 142 186 224 264 312
#     4   9  15  27  50  77 101 133 170 212 270 315
#     4   9  16  27  51  78 103 133 172 217 266 318
#     4  11  20  39  56  77 111 145 178 225 269 316
#     4  10  24  32  56  82  98 148 196 210 260 328
#     4   8  14  25  44  84 100 127 172 209 264 317
#
# _framework density 23.424567
#
# number of rings (size 3 to 8) (size 9 to 14) (size 15 to 20)
#    1.000    1.333    1.667    2.000    0.000    0.000 
#    0.000    0.833    0.000    1.000    0.000    0.000 
#    0.000    0.000    0.000    0.000    0.000    0.000 
#
# Total GULP energy -133830.970453 kJ/mol
# GULP energy per Si atom -5576.290436 kJ/mol
# Density = 2.337125 g / cm^3
# Si number density = 23.424567 Si / 1000 Ang^3
#
#
#
# Elastic Constant Matrix: (Units=GPa)
#
#
# Indices 1 2 3 4 5 6 
#
# 1 38.2773 29.0905 11.1555 0.0000 11.3025 0.0000
# 2 29.0905 119.0699 14.7328 0.0000 2.3803 0.0000
# 3 11.1555 14.7328 56.0563 0.0000 7.0390 0.0000
# 4 0.0000 0.0000 0.0000 13.1116 0.0000 15.2290
# 5 11.3025 2.3803 7.0390 0.0000 25.8316 0.0000
# 6 0.0000 0.0000 0.0000 15.2290 0.0000 21.8675
#
#
#
# Elastic Compliance Matrix: (Units=1/GPa)
#
#
# Indices 1 2 3 4 5 6 
#
# 1 0.038049 -0.008571 -0.003446 0.000000 -0.014919 0.000000
# 2 -0.008571 0.010612 -0.001482 0.000000 0.003176 0.000000
# 3 -0.003446 -0.001482 0.019371 0.000000 -0.003634 0.000000
# 4 0.000000 0.000000 0.000000 0.399082 0.000000 -0.277930
# 5 -0.014919 0.003176 -0.003634 0.000000 0.045938 0.000000
# 6 0.000000 0.000000 0.000000 -0.277930 0.000000 0.239287
#
#
# Mechanical properties :
#
#
# Convention : Reuss Voigt Hill
#
# Bulk Modulus (GPa) = 24.37034 35.92901 30.14968
# Shear Modulus (GPa) = 6.30504 22.72377 14.51441
#
# Velocity S-wave (km/s) = 1.64240 3.11799 2.49192
# Velocity P-wave (km/s) = 3.74473 5.32297 4.60201
#
# Compressibility (1/GPa) = 0.04103348
#
# Stress axis : x y z
#
# Youngs Moduli (GPa) = 26.28192 94.22916 51.62394
#
# Poissons Ratio (x) = 0.80767 0.17789
# Poissons Ratio (y) = 0.22527 0.07652
# Poissons Ratio (z) = 0.09056 0.13968
#
# Static dielectric constant tensor:
#      x y z
#    x 1.989750 0.000000 -0.007610 
#    y 0.000000 1.924150 0.000000 
#    z -0.007610 0.000000 1.888020 
# 
# From -- ./inp_files/268041.got.cif
#   From: 2010.05.17/outbox.cif.g08.bks.cpg/sg15_135_cif.got.tgz:268041.got - 2010.06.03 18:47:42.
