data_PCOD9297307
_publ_section_title
;
Structure prediction by ZEFSAII (Michael W. Deem and Ramdas Pophale) SiO2 
 PCOD9297307
Probable space group: C 2/C
;
_chemical_formula_sum "Si O2"
_cell_formula_units_Z 36
_cell_length_a 4.896494
_cell_length_b 13.512827
_cell_length_c 20.190951
_cell_angle_alpha 90.000000
_cell_angle_beta 90.498344
_cell_angle_gamma 90.000000
_cell_volume 1335.893358
_symmetry_space_group_name_H-M "C 2/C"
_symmetry_group_IT_number 15
_symmetry_cell_setting 'monoclinic'
loop_
_space_group_symop_operation_xyz
x,y,z
-x,y,1/2-z
-x,-y,-z
x,-y,1/2+z
1/2+x,1/2+y,z
1/2-x,1/2+y,1/2-z
1/2-x,1/2-y,-z
1/2+x,1/2-y,1/2+z
loop_
_atom_site_type_symbol
_atom_site_label
_atom_site_fract_x
_atom_site_fract_y
_atom_site_fract_z
Si Si1 0.500000 0.418612 0.750000
Si Si2 0.479334 0.288481 0.404872
Si Si3 0.323812 0.901828 0.306402
Si Si4 0.035366 0.157834 0.105910
Si Si5 0.293763 0.968447 0.442808
O O1 0.435835 0.357238 0.815061
O O2 0.728308 0.496632 0.772919
O O3 0.176691 0.247079 0.408679
O O4 0.590412 0.374720 0.453147
O O5 0.572071 0.335987 0.334064
O O6 0.669988 0.193131 0.416842
O O7 0.500000 0.851138 0.250000
O O8 0.459520 0.936827 0.376159
O O9 0.903780 0.057704 0.078749
O O10 0.500000 0.000000 0.500000
#
# Coordination Sequence:
#
# PCOD9297307 Si02
#       5
#     4   8   8   8   8
#     4  10  24  38  68  96 142 178 232 280 354 412
#     4  10  26  43  70 103 139 179 232 288 347 417
#     4   9  22  41  68  98 140 177 232 286 349 408
#     4  11  25  44  68 106 135 188 230 287 350 417
#     4   9  23  47  72 101 144 185 232 293 350 414
#
# _framework density 26.948260999999999
#
# number of rings (size 3 to 8) (size 9 to 14) (size 15 to 20)
#    1.333    0.889    0.000    0.000   10.889    3.556 
#    0.000    2.222    0.000    0.000    0.000    0.000 
#    0.000    0.000    0.000    0.000    0.000    0.000 
#
# Total GULP energy -100768.030475 kJ/mol
# GULP energy per Si atom -5598.223915 kJ/mol
# Density = 2.688693 g / cm^3
# Si number density = 26.948261 Si / 1000 Ang^3
#
#
#
# Elastic Constant Matrix: (Units=GPa)
#
#
# Indices 1 2 3 4 5 6 
#
# 1 71.2326 3.7450 11.1794 0.0000 1.8126 0.0000
# 2 3.7450 138.1975 24.3257 0.0000 20.9394 0.0000
# 3 11.1794 24.3257 124.8345 0.0000 16.8421 0.0000
# 4 0.0000 0.0000 0.0000 -12.2869 0.0000 -0.0630
# 5 1.8126 20.9394 16.8421 0.0000 42.3273 0.0000
# 6 0.0000 0.0000 0.0000 -0.0630 0.0000 25.1847
#
#
#
# Elastic Compliance Matrix: (Units=1/GPa)
#
#
# Indices 1 2 3 4 5 6 
#
# 1 0.014242 -0.000162 -0.001239 0.000000 -0.000037 0.000000
# 2 -0.000162 0.007959 -0.001063 0.000000 -0.003507 0.000000
# 3 -0.001239 -0.001063 0.008719 0.000000 -0.002890 0.000000
# 4 0.000000 0.000000 0.000000 -0.081386 0.000000 -0.000203
# 5 -0.000037 -0.003507 -0.002890 0.000000 0.026512 0.000000
# 6 0.000000 0.000000 0.000000 -0.000203 0.000000 0.039706
#
#
# Mechanical properties :
#
#
# Convention : Reuss Voigt Hill
#
# Bulk Modulus (GPa) = 38.47447 45.86275 42.16861
# Shear Modulus (GPa) = 170.38917 30.71266 100.55091
#
# Velocity S-wave (km/s) = 7.96025 3.37959 6.11503
# Velocity P-wave (km/s) = 9.93959 5.68196 8.09568
#
# Compressibility (1/GPa) = 0.02599126
#
# Stress axis : x y z
#
# Youngs Moduli (GPa) = 70.21276 125.64413 114.69666
#
# Poissons Ratio (x) = 0.02040 0.14210
# Poissons Ratio (y) = 0.01140 0.12194
# Poissons Ratio (z) = 0.08699 0.13358
#
# Static dielectric constant tensor:
#      x y z
#    x 2.073490 0.000000 -0.081830 
#    y 0.000000 2.085800 0.000000 
#    z -0.081830 0.000000 2.146690 
# 
# From -- ./inp_files/226443.got.cif
#   From: 2010.05.17/outbox.cif.g08.bks.cpg/sg15_114_cif.got.tgz:226443.got - 2010.06.03 18:47:42.
