data_PCOD9297965
_publ_section_title
;
Structure prediction by ZEFSAII (Michael W. Deem and Ramdas Pophale) SiO2 
 PCOD9297965
Probable space group: C 2/C
;
_chemical_formula_sum "Si O2"
_cell_formula_units_Z 44
_cell_length_a 12.308247
_cell_length_b 25.235061
_cell_length_c 8.837217
_cell_angle_alpha 90.000000
_cell_angle_beta 50.260283
_cell_angle_gamma 90.000000
_cell_volume 2110.658152
_symmetry_space_group_name_H-M "C 2/C"
_symmetry_group_IT_number 15
_symmetry_cell_setting 'monoclinic'
loop_
_space_group_symop_operation_xyz
x,y,z
-x,y,1/2-z
-x,-y,-z
x,-y,1/2+z
1/2+x,1/2+y,z
1/2-x,1/2+y,1/2-z
1/2-x,1/2-y,-z
1/2+x,1/2-y,1/2+z
loop_
_atom_site_type_symbol
_atom_site_label
_atom_site_fract_x
_atom_site_fract_y
_atom_site_fract_z
Si Si1 0.336451 0.697645 0.877377
Si Si2 0.863013 0.292724 0.436250
Si Si3 0.751924 0.639963 0.255420
Si Si4 0.000000 0.883390 0.750000
Si Si5 0.498520 0.058631 0.068922
Si Si6 0.250396 0.122953 0.814485
O O1 0.500000 0.710540 0.750000
O O2 0.305448 0.670470 0.743584
O O3 0.250000 0.750000 0.000000
O O4 0.298996 0.651624 0.031594
O O5 0.750000 0.250000 0.500000
O O6 0.853478 0.311180 0.615933
O O7 0.840189 0.346332 0.361737
O O8 0.000000 0.266444 0.250000
O O9 0.615044 0.641439 0.265902
O O10 0.852934 0.589005 0.153780
O O11 0.117815 0.904929 0.520935
O O12 0.500000 0.058273 0.250000
O O13 0.638273 0.087537 0.877154
O O14 0.500000 0.000000 0.000000
#
# Coordination Sequence:
#
# PCOD9297965 Si02
#       6
#     8   8   8   4   8   8
#     4  12  26  42  68 101 147 196 249 297 364 438
#     4  11  24  37  63  99 141 185 234 276 346 424
#     4  11  24  46  68 102 146 187 239 301 361 431
#     4  10  24  42  74  96 140 192 222 284 370 422
#     4  12  28  48  82 110 138 189 250 311 378 436
#     4  11  24  46  68 102 146 187 239 301 361 431
#
# _framework density 20.846579999999999
#
# number of rings (size 3 to 8) (size 9 to 14) (size 15 to 20)
#    0.000    0.727    5.455    1.091   12.727    2.909 
#    0.000    0.909    4.000    0.000    0.000    0.000 
#    0.000    0.000    0.000    0.000    0.000    0.000 
#
# Total GULP energy -122564.409708 kJ/mol
# GULP energy per Si atom -5571.109532 kJ/mol
# Density = 2.079913 g / cm^3
# Si number density = 20.846580 Si / 1000 Ang^3
#
#
#
# Elastic Constant Matrix: (Units=GPa)
#
#
# Indices 1 2 3 4 5 6 
#
# 1 90.2272 29.2963 47.9560 0.0000 -14.2973 0.0000
# 2 29.2963 95.1028 43.9049 0.0000 -18.5020 0.0000
# 3 47.9560 43.9049 173.4882 0.0000 -23.8892 0.0000
# 4 0.0000 0.0000 0.0000 5.6241 0.0000 -2.7750
# 5 -14.2973 -18.5020 -23.8892 0.0000 53.8226 0.0000
# 6 0.0000 0.0000 0.0000 -2.7750 0.0000 23.3724
#
#
#
# Elastic Compliance Matrix: (Units=1/GPa)
#
#
# Indices 1 2 3 4 5 6 
#
# 1 0.013714 -0.002587 -0.002936 0.000000 0.001450 0.000000
# 2 -0.002587 0.012846 -0.002154 0.000000 0.002773 0.000000
# 3 -0.002936 -0.002154 0.007361 0.000000 0.001747 0.000000
# 4 0.000000 0.000000 0.000000 0.188869 0.000000 0.022424
# 5 0.001450 0.002773 0.001747 0.000000 0.020693 0.000000
# 6 0.000000 0.000000 0.000000 0.022424 0.000000 0.045448
#
#
# Mechanical properties :
#
#
# Convention : Reuss Voigt Hill
#
# Bulk Modulus (GPa) = 53.86102 66.79252 60.32677
# Shear Modulus (GPa) = 16.10443 32.40789 24.25616
#
# Velocity S-wave (km/s) = 2.78244 3.94711 3.41479
# Velocity P-wave (km/s) = 6.01794 7.27203 6.67451
#
# Compressibility (1/GPa) = 0.01856630
#
# Stress axis : x y z
#
# Youngs Moduli (GPa) = 72.92064 77.84777 135.84286
#
# Poissons Ratio (x) = 0.20137 0.39889
# Poissons Ratio (y) = 0.18862 0.29261
# Poissons Ratio (z) = 0.21413 0.16769
#
# Static dielectric constant tensor:
#      x y z
#    x 1.770740 0.000000 -0.001510 
#    y 0.000000 1.654660 0.000000 
#    z -0.001510 0.000000 1.786250 
# 
# From -- ./inp_files/34006.got.cif
#   From: 2010.05.17/outbox.cif.g08.bks.cpg/sg15_18_cif.got.tgz:34006.got - 2010.06.03 18:47:42.
