data_PCOD9297365
_publ_section_title
;
Structure prediction by ZEFSAII (Michael W. Deem and Ramdas Pophale) SiO2 
 PCOD9297365
Probable space group: C 2/C
;
_chemical_formula_sum "Si O2"
_cell_formula_units_Z 64
_cell_length_a 23.103874
_cell_length_b 27.731310
_cell_length_c 16.104415
_cell_angle_alpha 90.000000
_cell_angle_beta 159.538594
_cell_angle_gamma 90.000000
_cell_volume 3606.967347
_symmetry_space_group_name_H-M "C 2/C"
_symmetry_group_IT_number 15
_symmetry_cell_setting 'monoclinic'
loop_
_space_group_symop_operation_xyz
x,y,z
-x,y,1/2-z
-x,-y,-z
x,-y,1/2+z
1/2+x,1/2+y,z
1/2-x,1/2+y,1/2-z
1/2-x,1/2-y,-z
1/2+x,1/2-y,1/2+z
loop_
_atom_site_type_symbol
_atom_site_label
_atom_site_fract_x
_atom_site_fract_y
_atom_site_fract_z
Si Si1 0.111954 0.367862 0.214890
Si Si2 0.385032 0.048002 0.339452
Si Si3 0.910594 0.823784 0.537816
Si Si4 0.022183 0.079087 0.879084
Si Si5 0.337069 0.960844 0.585255
Si Si6 0.388715 0.638687 0.350278
Si Si7 0.585912 0.210541 0.955025
Si Si8 0.817607 0.425210 0.035150
O O1 0.239834 0.352634 0.317047
O O2 0.213528 0.393221 0.425837
O O3 0.030255 0.318800 0.138175
O O4 0.976728 0.407540 0.007163
O O5 0.375043 0.057401 0.228349
O O6 0.500000 0.000000 0.500000
O O7 0.192709 0.046847 0.111763
O O8 0.889927 0.766682 0.494677
O O9 0.000000 0.827527 0.750000
O O10 0.997741 0.844925 0.573510
O O11 0.000000 0.088869 0.750000
O O12 0.851164 0.056367 0.684347
O O13 0.047362 0.125159 0.972510
O O14 0.500000 0.948035 0.750000
O O15 0.323395 0.018902 0.564659
O O16 0.253925 0.680601 0.177269
O O17 0.304334 0.589777 0.201587
O O18 0.500000 0.207516 0.750000
O O19 0.000000 0.410842 0.250000
#
# Coordination Sequence:
#
# PCOD9297365 Si02
#       8
#     8   8   8   8   8   8   8   8
#     4  12  20  37  58  88 126 165 198 240 296 364
#     4  11  22  39  62  86 121 167 207 245 298 361
#     4  11  24  35  56  98 130 154 195 250 306 365
#     4  10  24  44  61  85 114 164 211 253 301 353
#     4  10  24  40  59  88 119 157 207 259 299 350
#     4  12  21  38  62  86 121 163 200 244 306 365
#     4  11  20  38  62  87 126 163 195 239 304 378
#     4  11  19  35  57  87 123 159 199 233 295 365
#
# _framework density 17.743438000000001
#
# number of rings (size 3 to 8) (size 9 to 14) (size 15 to 20)
#    0.000    1.000    6.250    0.750    3.500    3.500 
#    2.250    0.000    0.000    0.750    0.000    0.000 
#    0.000    0.000    0.000    0.000    0.000    0.000 
#
# Total GULP energy -178308.679085 kJ/mol
# GULP energy per Si atom -5572.146221 kJ/mol
# Density = 1.770305 g / cm^3
# Si number density = 17.743438 Si / 1000 Ang^3
#
#
#
# Elastic Constant Matrix: (Units=GPa)
#
#
# Indices 1 2 3 4 5 6 
#
# 1 99.6273 31.2690 42.5525 0.0000 22.1185 0.0000
# 2 31.2690 64.0124 33.4779 0.0000 -0.9284 0.0000
# 3 42.5525 33.4779 89.9441 0.0000 16.3383 0.0000
# 4 0.0000 0.0000 0.0000 0.1297 0.0000 -5.6743
# 5 22.1185 -0.9284 16.3383 0.0000 33.9562 0.0000
# 6 0.0000 0.0000 0.0000 -5.6743 0.0000 19.8627
#
#
#
# Elastic Compliance Matrix: (Units=1/GPa)
#
#
# Indices 1 2 3 4 5 6 
#
# 1 0.015191 -0.005681 -0.003558 0.000000 -0.008339 0.000000
# 2 -0.005681 0.022138 -0.006941 0.000000 0.007646 0.000000
# 3 -0.003558 -0.006941 0.016435 0.000000 -0.005780 0.000000
# 4 0.000000 0.000000 0.000000 -0.670527 0.000000 -0.191555
# 5 -0.008339 0.007646 -0.005780 0.000000 0.037872 0.000000
# 6 0.000000 0.000000 0.000000 -0.191555 0.000000 -0.004377
#
#
# Mechanical properties :
#
#
# Convention : Reuss Voigt Hill
#
# Bulk Modulus (GPa) = 46.71941 52.02028 49.36985
# Shear Modulus (GPa) = -9.19500 20.54200 5.67350
#
# Velocity S-wave (km/s) = -2.27891 3.40622 1.79010
# Velocity P-wave (km/s) = 4.41170 6.69713 5.67074
#
# Compressibility (1/GPa) = 0.02140438
#
# Stress axis : x y z
#
# Youngs Moduli (GPa) = 65.82683 45.17104 60.84705
#
# Poissons Ratio (x) = 0.25662 0.21648
# Poissons Ratio (y) = 0.37396 0.42234
# Poissons Ratio (z) = 0.23420 0.31354
#
# Static dielectric constant tensor:
#      x y z
#    x 1.554990 0.000000 -0.007180 
#    y 0.000000 1.583330 0.000000 
#    z -0.007180 0.000000 1.664620 
# 
# From -- ./inp_files/148756.got.cif
#   From: 2010.05.17/outbox.cif.g08.bks.cpg/sg15_75_cif.got.tgz:148756.got - 2010.06.03 18:47:42.
