data_PCOD9297047
_publ_section_title
;
Structure prediction by ZEFSAII (Michael W. Deem and Ramdas Pophale) SiO2 
 PCOD9297047
Probable space group: C 2/C
;
_chemical_formula_sum "Si O2"
_cell_formula_units_Z 40
_cell_length_a 10.660657
_cell_length_b 10.385397
_cell_length_c 13.571944
_cell_angle_alpha 90.000000
_cell_angle_beta 74.331488
_cell_angle_gamma 90.000000
_cell_volume 1446.783005
_symmetry_space_group_name_H-M "C 2/C"
_symmetry_group_IT_number 15
_symmetry_cell_setting 'monoclinic'
loop_
_space_group_symop_operation_xyz
x,y,z
-x,y,1/2-z
-x,-y,-z
x,-y,1/2+z
1/2+x,1/2+y,z
1/2-x,1/2+y,1/2-z
1/2-x,1/2-y,-z
1/2+x,1/2-y,1/2+z
loop_
_atom_site_type_symbol
_atom_site_label
_atom_site_fract_x
_atom_site_fract_y
_atom_site_fract_z
Si Si1 0.278066 0.834390 0.266783
Si Si2 0.395157 0.891840 0.040876
Si Si3 0.390831 0.710122 0.428467
Si Si4 0.503685 0.551083 0.857556
Si Si5 0.378735 0.828543 0.834284
O O1 0.378730 0.787128 0.327060
O O2 0.154883 0.909019 0.341036
O O3 0.225983 0.702957 0.226332
O O4 0.322577 0.912016 0.159604
O O5 0.327111 0.883948 0.948093
O O6 0.485174 0.768149 0.041826
O O7 0.500000 0.000000 0.000000
O O8 0.250000 0.750000 0.500000
O O9 0.421668 0.557995 0.429902
O O10 0.500000 0.488510 0.750000
O O11 0.432008 0.687777 0.856742
O O12 0.500000 0.893455 0.750000
#
# Coordination Sequence:
#
# PCOD9297047 Si02
#       5
#     8   8   8   8   8
#     4  10  23  47  72 106 149 200 248 318 386 458
#     4  12  27  45  67 109 154 194 251 311 384 462
#     4  12  26  46  77 114 151 191 263 319 383 470
#     4   9  21  45  75 105 144 190 249 310 381 447
#     4   9  21  45  73 102 144 198 248 305 386 450
#
# _framework density 27.647544
#
# number of rings (size 3 to 8) (size 9 to 14) (size 15 to 20)
#    0.000    2.000    0.000    4.800    5.600    4.800 
#   18.000    0.000    0.000    1.200    0.000    0.000 
#    0.000    0.000    0.000    0.000    0.000    0.000 
#
# Total GULP energy -111730.133854 kJ/mol
# GULP energy per Si atom -5586.506693 kJ/mol
# Density = 2.758462 g / cm^3
# Si number density = 27.647544 Si / 1000 Ang^3
#
#
#
# Elastic Constant Matrix: (Units=GPa)
#
#
# Indices 1 2 3 4 5 6 
#
# 1 85.1712 18.1639 56.2473 0.0000 -3.4259 0.0000
# 2 18.1639 92.1033 30.6935 0.0000 -9.9504 0.0000
# 3 56.2473 30.6935 192.4909 0.0000 -7.4370 0.0000
# 4 0.0000 0.0000 0.0000 21.1707 0.0000 0.4967
# 5 -3.4259 -9.9504 -7.4370 0.0000 61.3917 0.0000
# 6 0.0000 0.0000 0.0000 0.4967 0.0000 40.3693
#
#
#
# Elastic Compliance Matrix: (Units=1/GPa)
#
#
# Indices 1 2 3 4 5 6 
#
# 1 0.014757 -0.001548 -0.004062 0.000000 0.000081 0.000000
# 2 -0.001548 0.011797 -0.001365 0.000000 0.001660 0.000000
# 3 -0.004062 -0.001365 0.006613 0.000000 0.000353 0.000000
# 4 0.000000 0.000000 0.000000 0.047249 0.000000 -0.000581
# 5 0.000081 0.001660 0.000353 0.000000 0.016605 0.000000
# 6 0.000000 0.000000 0.000000 -0.000581 0.000000 0.024778
#
#
# Mechanical properties :
#
#
# Convention : Reuss Voigt Hill
#
# Bulk Modulus (GPa) = 52.03501 64.44165 58.23833
# Shear Modulus (GPa) = 35.17293 42.23040 38.70166
#
# Velocity S-wave (km/s) = 3.57065 3.91251 3.74548
# Velocity P-wave (km/s) = 5.98841 6.61583 6.30992
#
# Compressibility (1/GPa) = 0.01921783
#
# Stress axis : x y z
#
# Youngs Moduli (GPa) = 67.76405 84.76907 151.21034
#
# Poissons Ratio (x) = 0.13121 0.61425
# Poissons Ratio (y) = 0.10489 0.20634
# Poissons Ratio (z) = 0.27527 0.11568
#
# Static dielectric constant tensor:
#      x y z
#    x 2.152480 0.000000 -0.022620 
#    y 0.000000 1.968440 0.000000 
#    z -0.022620 0.000000 2.290180 
# 
# From -- ./inp_files/86739.got.cif
#   From: 2010.05.17/outbox.cif.g08.bks.cpg/sg15_44_cif.got.tgz:86739.got - 2010.06.03 18:47:42.
