data_PCOD9297668
_publ_section_title
;
Structure prediction by ZEFSAII (Michael W. Deem and Ramdas Pophale) SiO2 
 PCOD9297668
Probable space group: C 2/C
;
_chemical_formula_sum "Si O2"
_cell_formula_units_Z 48
_cell_length_a 26.214485
_cell_length_b 10.742081
_cell_length_c 7.856919
_cell_angle_alpha 90.000000
_cell_angle_beta 98.048013
_cell_angle_gamma 90.000000
_cell_volume 2190.702992
_symmetry_space_group_name_H-M "C 2/C"
_symmetry_group_IT_number 15
_symmetry_cell_setting 'monoclinic'
loop_
_space_group_symop_operation_xyz
x,y,z
-x,y,1/2-z
-x,-y,-z
x,-y,1/2+z
1/2+x,1/2+y,z
1/2-x,1/2+y,1/2-z
1/2-x,1/2-y,-z
1/2+x,1/2-y,1/2+z
loop_
_atom_site_type_symbol
_atom_site_label
_atom_site_fract_x
_atom_site_fract_y
_atom_site_fract_z
Si Si1 0.841845 0.460574 0.203144
Si Si2 0.440672 0.814878 0.218549
Si Si3 0.599957 0.631851 0.006288
Si Si4 0.398713 0.651664 0.889945
Si Si5 0.707922 0.254336 0.627433
Si Si6 0.696267 0.188709 0.138027
O O1 0.902339 0.431477 0.222376
O O2 0.817627 0.377526 0.342698
O O3 0.827932 0.602609 0.224090
O O4 0.816934 0.392599 0.031259
O O5 0.500000 0.849032 0.250000
O O6 0.427851 0.719556 0.367668
O O7 0.426119 0.746201 0.034073
O O8 0.589677 0.487663 0.042343
O O9 0.661015 0.654856 0.064264
O O10 0.587343 0.661745 0.803391
O O11 0.337718 0.686125 0.878562
O O12 0.750000 0.250000 0.500000
O O13 0.743383 0.295993 0.802959
#
# Coordination Sequence:
#
# PCOD9297668 Si02
#       6
#     8   8   8   8   8   8
#     4  10  24  42  62  95 131 171 221 272 308 393
#     4  10  24  46  69  93 126 171 221 277 333 379
#     4  11  23  41  65  93 138 161 218 269 320 390
#     4  11  23  42  65  99 129 169 212 271 326 393
#     4  11  22  38  63  94 127 178 212 257 322 385
#     4  11  23  40  65  92 136 174 214 258 327 379
#
# _framework density 21.910772999999999
#
# number of rings (size 3 to 8) (size 9 to 14) (size 15 to 20)
#    0.000    1.333    3.333    1.500    4.667    2.667 
#    0.000    3.333    0.000    0.000    0.000    0.000 
#    0.000    0.000    0.000    0.000    0.000    0.000 
#
# Total GULP energy -134154.470738 kJ/mol
# GULP energy per Si atom -5589.769614 kJ/mol
# Density = 2.186090 g / cm^3
# Si number density = 21.910773 Si / 1000 Ang^3
#
#
#
# Elastic Constant Matrix: (Units=GPa)
#
#
# Indices 1 2 3 4 5 6 
#
# 1 136.9948 15.9095 24.9096 0.0000 12.8433 0.0000
# 2 15.9095 58.6659 -3.9438 0.0000 -0.0358 0.0000
# 3 24.9096 -3.9438 131.9560 0.0000 -12.5243 0.0000
# 4 0.0000 0.0000 0.0000 23.1123 0.0000 -2.1233
# 5 12.8433 -0.0358 -12.5243 0.0000 21.6689 0.0000
# 6 0.0000 0.0000 0.0000 -2.1233 0.0000 7.7228
#
#
#
# Elastic Compliance Matrix: (Units=1/GPa)
#
#
# Indices 1 2 3 4 5 6 
#
# 1 0.008614 -0.002495 -0.002313 0.000000 -0.006446 0.000000
# 2 -0.002495 0.017805 0.001213 0.000000 0.002210 0.000000
# 3 -0.002313 0.001213 0.008656 0.000000 0.006376 0.000000
# 4 0.000000 0.000000 0.000000 0.044388 0.000000 0.012204
# 5 -0.006446 0.002210 0.006376 0.000000 0.053659 0.000000
# 6 0.000000 0.000000 0.000000 0.012204 0.000000 0.132842
#
#
# Mechanical properties :
#
#
# Convention : Reuss Voigt Hill
#
# Bulk Modulus (GPa) = 35.86085 44.59637 40.22861
# Shear Modulus (GPa) = 17.70225 29.88356 23.79291
#
# Velocity S-wave (km/s) = 2.84549 3.69707 3.29887
# Velocity P-wave (km/s) = 5.21517 6.21468 5.73674
#
# Compressibility (1/GPa) = 0.02788556
#
# Stress axis : x y z
#
# Youngs Moduli (GPa) = 116.08746 56.16310 115.52375
#
# Poissons Ratio (x) = 0.14015 0.26715
# Poissons Ratio (y) = 0.28969 -0.14012
# Poissons Ratio (z) = 0.26846 -0.06812
#
# Static dielectric constant tensor:
#      x y z
#    x 1.764730 0.000000 -0.014420 
#    y 0.000000 1.752980 0.000000 
#    z -0.014420 0.000000 1.982190 
# 
# From -- ./inp_files/60666.got.cif
#   From: 2010.05.17/outbox.cif.g08.bks.cpg/sg15_31_cif.got.tgz:60666.got - 2010.06.03 18:47:42.
