data_PCOD9297609
_publ_section_title
;
Structure prediction by ZEFSAII (Michael W. Deem and Ramdas Pophale) SiO2 
 PCOD9297609
Probable space group: C 2/C
;
_chemical_formula_sum "Si O2"
_cell_formula_units_Z 52
_cell_length_a 12.073416
_cell_length_b 7.973154
_cell_length_c 30.386733
_cell_angle_alpha 90.000000
_cell_angle_beta 54.183052
_cell_angle_gamma 90.000000
_cell_volume 2371.956257
_symmetry_space_group_name_H-M "C 2/C"
_symmetry_group_IT_number 15
_symmetry_cell_setting 'monoclinic'
loop_
_space_group_symop_operation_xyz
x,y,z
-x,y,1/2-z
-x,-y,-z
x,-y,1/2+z
1/2+x,1/2+y,z
1/2-x,1/2+y,1/2-z
1/2-x,1/2-y,-z
1/2+x,1/2-y,1/2+z
loop_
_atom_site_type_symbol
_atom_site_label
_atom_site_fract_x
_atom_site_fract_y
_atom_site_fract_z
Si Si1 0.000000 0.696797 0.250000
Si Si2 0.951725 0.840905 0.937306
Si Si3 0.701472 0.467972 0.161990
Si Si4 0.674343 0.981290 0.531816
Si Si5 0.940103 0.886418 0.681748
Si Si6 0.672721 0.775590 0.448598
Si Si7 0.167430 0.486824 0.281625
O O1 0.122693 0.810334 0.202343
O O2 0.064622 0.590473 0.274929
O O3 0.909243 0.647367 0.936858
O O4 0.023893 0.911721 0.877465
O O5 0.054612 0.832493 0.953845
O O6 0.819255 0.946479 0.980695
O O7 0.578174 0.588275 0.177047
O O8 0.774826 0.401951 0.101153
O O9 0.803595 0.543235 0.174650
O O10 0.617614 0.877538 0.503517
O O11 0.708108 0.848693 0.562147
O O12 0.886064 0.700868 0.702491
O O13 0.817668 0.006712 0.724820
#
# Coordination Sequence:
#
# PCOD9297609 Si02
#       7
#     4   8   8   8   8   8   8
#     4  12  26  42  68  96 130 170 232 272 336 412
#     4  11  22  44  65  99 134 172 224 275 329 399
#     4  12  24  44  66  95 140 176 222 282 335 403
#     4  10  24  41  68  97 135 179 225 274 332 393
#     4  12  24  45  68  97 139 175 226 276 343 403
#     4  11  22  42  66  97 134 178 219 277 333 390
#     4  12  25  45  67  99 131 180 216 282 335 408
#
# _framework density 21.922833000000001
#
# number of rings (size 3 to 8) (size 9 to 14) (size 15 to 20)
#    0.000    0.615    6.154    0.923    4.308    0.000 
#    0.000    0.000    0.000    0.000    0.000    0.000 
#    0.000    0.000    0.000    0.000    0.000    0.000 
#
# Total GULP energy -145509.466362 kJ/mol
# GULP energy per Si atom -5596.517937 kJ/mol
# Density = 2.187294 g / cm^3
# Si number density = 21.922833 Si / 1000 Ang^3
#
#
#
# Elastic Constant Matrix: (Units=GPa)
#
#
# Indices 1 2 3 4 5 6 
#
# 1 120.4689 34.9963 23.2835 0.0000 41.8398 0.0000
# 2 34.9963 18.1425 4.4726 0.0000 13.9069 0.0000
# 3 23.2835 4.4726 77.0978 0.0000 18.5364 0.0000
# 4 0.0000 0.0000 0.0000 34.1592 0.0000 9.5731
# 5 41.8398 13.9069 18.5364 0.0000 32.6511 0.0000
# 6 0.0000 0.0000 0.0000 9.5731 0.0000 31.5555
#
#
#
# Elastic Compliance Matrix: (Units=1/GPa)
#
#
# Indices 1 2 3 4 5 6 
#
# 1 0.023571 -0.033569 -0.001560 0.000000 -0.015021 0.000000
# 2 -0.033569 0.130842 0.006490 0.000000 -0.016397 0.000000
# 3 -0.001560 0.006490 0.015343 0.000000 -0.009476 0.000000
# 4 0.000000 0.000000 0.000000 0.031995 0.000000 -0.009706
# 5 -0.015021 -0.016397 -0.009476 0.000000 0.062239 0.000000
# 6 0.000000 0.000000 0.000000 -0.009706 0.000000 0.034635
#
#
# Mechanical properties :
#
#
# Convention : Reuss Voigt Hill
#
# Bulk Modulus (GPa) = 8.89060 37.91266 23.40163
# Shear Modulus (GPa) = 12.70984 29.87029 21.29006
#
# Velocity S-wave (km/s) = 2.41042 3.69524 3.11969
# Velocity P-wave (km/s) = 3.43672 5.96134 4.86563
#
# Compressibility (1/GPa) = 0.11247832
#
# Stress axis : x y z
#
# Youngs Moduli (GPa) = 42.42457 7.64283 65.17452
#
# Poissons Ratio (x) = 0.25656 0.10164
# Poissons Ratio (y) = 1.42416 -0.42297
# Poissons Ratio (z) = 0.06616 -0.04960
#
# Static dielectric constant tensor:
#      x y z
#    x 1.821290 0.000000 0.010000 
#    y 0.000000 1.785650 0.000000 
#    z 0.010000 0.000000 1.788550 
# 
# From -- ./inp_files/291200.got.cif
#   From: 2010.05.17/outbox.cif.g08.bks.cpg/sg15_146_cif.got.tgz:291200.got - 2010.06.03 18:47:42.
