data_PCOD9297073
_publ_section_title
;
Structure prediction by ZEFSAII (Michael W. Deem and Ramdas Pophale) SiO2 
 PCOD9297073
Probable space group: C 2/C
;
_chemical_formula_sum "Si O2"
_cell_formula_units_Z 36
_cell_length_a 16.894481
_cell_length_b 17.308451
_cell_length_c 9.080982
_cell_angle_alpha 90.000000
_cell_angle_beta 147.844938
_cell_angle_gamma 90.000000
_cell_volume 1413.256154
_symmetry_space_group_name_H-M "C 2/C"
_symmetry_group_IT_number 15
_symmetry_cell_setting 'monoclinic'
loop_
_space_group_symop_operation_xyz
x,y,z
-x,y,1/2-z
-x,-y,-z
x,-y,1/2+z
1/2+x,1/2+y,z
1/2-x,1/2+y,1/2-z
1/2-x,1/2-y,-z
1/2+x,1/2-y,1/2+z
loop_
_atom_site_type_symbol
_atom_site_label
_atom_site_fract_x
_atom_site_fract_y
_atom_site_fract_z
Si Si1 0.949794 0.208625 0.361853
Si Si2 0.500000 0.857854 0.250000
Si Si3 0.200767 0.449202 0.791875
Si Si4 0.225799 0.872077 0.147255
Si Si5 0.500000 0.646318 0.750000
Si Si6 0.000000 0.601472 0.250000
O O1 0.083426 0.152771 0.516888
O O2 0.982635 0.293878 0.353527
O O3 0.947802 0.196135 0.530168
O O4 0.806732 0.172688 0.055175
O O5 0.621182 0.913758 0.520080
O O6 0.249385 0.537602 0.843468
O O7 0.087533 0.441554 0.752620
O O8 0.354778 0.404131 0.062295
O O9 0.369739 0.851311 0.467451
#
# Coordination Sequence:
#
# PCOD9297073 Si02
#       6
#     8   4   8   8   4   4
#     4  10  25  53  76 110 157 209 254 311 385 471
#     4  10  27  53  72 115 159 204 248 326 393 453
#     4  12  27  45  77 114 154 200 260 316 384 454
#     4  10  23  47  75 107 157 200 251 311 382 458
#     4  12  26  46  82 109 145 212 266 308 374 468
#     4  12  25  45  70 118 156 200 244 332 379 461
#
# _framework density 25.473089000000002
#
# number of rings (size 3 to 8) (size 9 to 14) (size 15 to 20)
#    0.000    1.333    2.222    2.667    6.222    4.444 
#    4.000    0.000    0.000    0.000    0.000    0.000 
#    0.000    0.000    0.000    0.000    0.000    0.000 
#
# Total GULP energy -100714.769113 kJ/mol
# GULP energy per Si atom -5595.264951 kJ/mol
# Density = 2.541511 g / cm^3
# Si number density = 25.473089 Si / 1000 Ang^3
#
#
#
# Elastic Constant Matrix: (Units=GPa)
#
#
# Indices 1 2 3 4 5 6 
#
# 1 137.0570 45.3001 13.6136 0.0000 4.1848 0.0000
# 2 45.3001 186.1928 50.1205 0.0000 0.1159 0.0000
# 3 13.6136 50.1205 180.8223 0.0000 -11.3628 0.0000
# 4 0.0000 0.0000 0.0000 60.1548 0.0000 -32.5168
# 5 4.1848 0.1159 -11.3628 0.0000 60.8077 0.0000
# 6 0.0000 0.0000 0.0000 -32.5168 0.0000 55.3766
#
#
#
# Elastic Compliance Matrix: (Units=1/GPa)
#
#
# Indices 1 2 3 4 5 6 
#
# 1 0.007954 -0.001906 -0.000106 0.000000 -0.000564 0.000000
# 2 -0.001906 0.006267 -0.001605 0.000000 -0.000181 0.000000
# 3 -0.000106 -0.001605 0.006055 0.000000 0.001142 0.000000
# 4 0.000000 0.000000 0.000000 0.024354 0.000000 0.014301
# 5 -0.000564 -0.000181 0.001142 0.000000 0.016698 0.000000
# 6 0.000000 0.000000 0.000000 0.014301 0.000000 0.026455
#
#
# Mechanical properties :
#
#
# Convention : Reuss Voigt Hill
#
# Bulk Modulus (GPa) = 76.67824 80.23785 78.45804
# Shear Modulus (GPa) = 50.32009 61.60369 55.96189
#
# Velocity S-wave (km/s) = 4.44939 4.92304 4.69220
# Velocity P-wave (km/s) = 7.52085 7.99266 7.76034
#
# Compressibility (1/GPa) = 0.01304151
#
# Stress axis : x y z
#
# Youngs Moduli (GPa) = 125.72227 159.57370 165.15720
#
# Poissons Ratio (x) = 0.30420 0.01748
# Poissons Ratio (y) = 0.23967 0.26505
# Poissons Ratio (z) = 0.01331 0.25609
#
# Static dielectric constant tensor:
#      x y z
#    x 2.081440 0.000000 -0.021750 
#    y 0.000000 1.994780 0.000000 
#    z -0.021750 0.000000 1.980210 
# 
# From -- ./inp_files/58061.got.cif
#   From: 2010.05.17/outbox.cif.g08.bks.cpg/sg15_30_cif.got.tgz:58061.got - 2010.06.03 18:47:42.
