data_PCOD9297088
_publ_section_title
;
Structure prediction by ZEFSAII (Michael W. Deem and Ramdas Pophale) SiO2 
 PCOD9297088
Probable space group: C 2/C
;
_chemical_formula_sum "Si O2"
_cell_formula_units_Z 48
_cell_length_a 22.364537
_cell_length_b 11.212200
_cell_length_c 12.514281
_cell_angle_alpha 90.000000
_cell_angle_beta 35.532593
_cell_angle_gamma 90.000000
_cell_volume 1823.714414
_symmetry_space_group_name_H-M "C 2/C"
_symmetry_group_IT_number 15
_symmetry_cell_setting 'monoclinic'
loop_
_space_group_symop_operation_xyz
x,y,z
-x,y,1/2-z
-x,-y,-z
x,-y,1/2+z
1/2+x,1/2+y,z
1/2-x,1/2+y,1/2-z
1/2-x,1/2-y,-z
1/2+x,1/2-y,1/2+z
loop_
_atom_site_type_symbol
_atom_site_label
_atom_site_fract_x
_atom_site_fract_y
_atom_site_fract_z
Si Si1 0.049001 0.671346 0.496195
Si Si2 0.140877 0.962936 0.135182
Si Si3 0.311796 0.142378 0.854409
Si Si4 0.093315 0.704881 0.186903
Si Si5 0.194723 0.538149 0.867031
Si Si6 0.075803 0.953831 0.492670
O O1 0.057184 0.658749 0.355192
O O2 0.067615 0.810413 0.494792
O O3 0.932794 0.644847 0.703493
O O4 0.868942 0.419878 0.572708
O O5 0.038690 0.988816 0.354534
O O6 0.160325 0.822689 0.108091
O O7 0.247958 0.030684 0.988396
O O8 0.103948 0.009629 0.073315
O O9 0.306240 0.129287 0.733634
O O10 0.250000 0.250000 0.000000
O O11 0.000000 0.754304 0.250000
O O12 0.139748 0.607796 0.041293
O O13 0.313874 0.510316 0.718860
#
# Coordination Sequence:
#
# PCOD9297088 Si02
#       6
#     8   8   8   8   8   8
#     4  12  27  53  82 121 163 217 280 335 417 484
#     4  10  23  50  74 115 161 209 266 336 407 489
#     4  11  23  48  79 118 158 204 270 338 407 487
#     4  12  26  51  82 112 169 217 269 342 409 494
#     4  11  28  52  74 120 167 212 272 341 407 482
#     4  10  23  47  79 110 158 213 268 327 403 492
#
# _framework density 26.31991
#
# number of rings (size 3 to 8) (size 9 to 14) (size 15 to 20)
#    0.000    1.000    5.000    0.500    4.667    1.333 
#   12.000    3.333    0.000    0.000    0.000    0.000 
#    0.000    0.000    0.000    0.000    0.000    0.000 
#
# Total GULP energy -134505.182707 kJ/mol
# GULP energy per Si atom -5604.382613 kJ/mol
# Density = 2.626000 g / cm^3
# Si number density = 26.319910 Si / 1000 Ang^3
#
#
#
# Elastic Constant Matrix: (Units=GPa)
#
#
# Indices 1 2 3 4 5 6 
#
# 1 105.7448 88.0305 95.1310 0.0000 -39.5441 0.0000
# 2 88.0305 170.5427 92.6417 0.0000 -22.6737 0.0000
# 3 95.1310 92.6417 221.4742 0.0000 -13.5931 0.0000
# 4 0.0000 0.0000 0.0000 57.3414 0.0000 -3.0284
# 5 -39.5441 -22.6737 -13.5931 0.0000 69.4358 0.0000
# 6 0.0000 0.0000 0.0000 -3.0284 0.0000 50.7492
#
#
#
# Elastic Compliance Matrix: (Units=1/GPa)
#
#
# Indices 1 2 3 4 5 6 
#
# 1 0.027894 -0.008722 -0.007625 0.000000 0.011545 0.000000
# 2 -0.008722 0.010565 -0.000775 0.000000 -0.001669 0.000000
# 3 -0.007625 -0.000775 0.007928 0.000000 -0.003044 0.000000
# 4 0.000000 0.000000 0.000000 0.017495 0.000000 0.001044
# 5 0.011545 -0.001669 -0.003044 0.000000 0.019836 0.000000
# 6 0.000000 0.000000 0.000000 0.001044 0.000000 0.019767
#
#
# Mechanical properties :
#
#
# Convention : Reuss Voigt Hill
#
# Bulk Modulus (GPa) = 82.34926 116.59645 99.47286
# Shear Modulus (GPa) = 35.26697 50.30252 42.78474
#
# Velocity S-wave (km/s) = 3.66448 4.37647 4.03620
# Velocity P-wave (km/s) = 7.01857 8.36264 7.71991
#
# Compressibility (1/GPa) = 0.01214340
#
# Stress axis : x y z
#
# Youngs Moduli (GPa) = 35.84987 94.65344 126.13735
#
# Poissons Ratio (x) = 0.82552 0.96176
# Poissons Ratio (y) = 0.31266 0.09781
# Poissons Ratio (z) = 0.27335 0.07340
#
# Static dielectric constant tensor:
#      x y z
#    x 2.397370 0.000000 0.207290 
#    y 0.000000 2.283180 0.000000 
#    z 0.207290 0.000000 2.256240 
# 
# From -- ./inp_files/178120.got.cif
#   From: 2010.05.17/outbox.cif.g08.bks.cpg/sg15_90_cif.got.tgz:178120.got - 2010.06.03 18:47:42.
