data_PCOD9297905
_publ_section_title
;
Structure prediction by ZEFSAII (Michael W. Deem and Ramdas Pophale) SiO2 
 PCOD9297905
Probable space group: C 2/C
;
_chemical_formula_sum "Si O2"
_cell_formula_units_Z 40
_cell_length_a 18.456902
_cell_length_b 13.438996
_cell_length_c 11.070945
_cell_angle_alpha 90.000000
_cell_angle_beta 39.441686
_cell_angle_gamma 90.000000
_cell_volume 1744.552683
_symmetry_space_group_name_H-M "C 2/C"
_symmetry_group_IT_number 15
_symmetry_cell_setting 'monoclinic'
loop_
_space_group_symop_operation_xyz
x,y,z
-x,y,1/2-z
-x,-y,-z
x,-y,1/2+z
1/2+x,1/2+y,z
1/2-x,1/2+y,1/2-z
1/2-x,1/2-y,-z
1/2+x,1/2-y,1/2+z
loop_
_atom_site_type_symbol
_atom_site_label
_atom_site_fract_x
_atom_site_fract_y
_atom_site_fract_z
Si Si1 0.314432 0.684998 0.814667
Si Si2 0.473513 0.555822 0.909879
Si Si3 0.764495 0.485817 0.263558
Si Si4 0.170263 0.657750 0.627853
Si Si5 0.079147 0.351999 0.980905
O O1 0.434649 0.644341 0.712818
O O2 0.250787 0.590259 0.831205
O O3 0.350521 0.760231 0.662646
O O4 0.250000 0.750000 0.000000
O O5 0.500000 0.499090 0.750000
O O6 0.500000 0.500000 0.000000
O O7 0.337712 0.566593 0.098498
O O8 0.755182 0.420108 0.395208
O O9 0.881062 0.546106 0.131371
O O10 0.250000 0.750000 0.500000
O O11 0.122049 0.625959 0.560976
O O12 0.053938 0.675059 0.853147
#
# Coordination Sequence:
#
# PCOD9297905 Si02
#       5
#     8   8   8   8   8
#     4  11  25  46  70 109 151 190 238 301 370 435
#     4  10  24  42  71 110 144 192 241 301 362 435
#     4  11  25  46  74 103 146 191 247 298 364 436
#     4  11  25  47  73 102 147 190 245 301 358 435
#     4  11  26  44  73 110 140 195 243 299 367 432
#
# _framework density 22.928512999999999
#
# number of rings (size 3 to 8) (size 9 to 14) (size 15 to 20)
#    0.000    1.200    2.000    1.800   11.200    3.200 
#    0.000    0.000    0.000    0.000    0.000    0.000 
#    0.000    0.000    0.000    0.000    0.000    0.000 
#
# Total GULP energy -111545.747523 kJ/mol
# GULP energy per Si atom -5577.287376 kJ/mol
# Density = 2.287633 g / cm^3
# Si number density = 22.928513 Si / 1000 Ang^3
#
#
#
# Elastic Constant Matrix: (Units=GPa)
#
#
# Indices 1 2 3 4 5 6 
#
# 1 88.3466 24.0033 30.7364 0.0000 -11.9916 0.0000
# 2 24.0033 104.4963 57.4425 0.0000 -23.6571 0.0000
# 3 30.7364 57.4425 126.8345 0.0000 -18.0122 0.0000
# 4 0.0000 0.0000 0.0000 43.4553 0.0000 -11.0377
# 5 -11.9916 -23.6571 -18.0122 0.0000 49.2453 0.0000
# 6 0.0000 0.0000 0.0000 -11.0377 0.0000 30.0275
#
#
#
# Elastic Compliance Matrix: (Units=1/GPa)
#
#
# Indices 1 2 3 4 5 6 
#
# 1 0.012678 -0.001305 -0.002249 0.000000 0.001638 0.000000
# 2 -0.001305 0.013770 -0.005301 0.000000 0.004358 0.000000
# 3 -0.002249 -0.005301 0.010960 0.000000 0.000915 0.000000
# 4 0.000000 0.000000 0.000000 0.025382 0.000000 0.009330
# 5 0.001638 0.004358 0.000915 0.000000 0.023134 0.000000
# 6 0.000000 0.000000 0.000000 0.009330 0.000000 0.036732
#
#
# Mechanical properties :
#
#
# Convention : Reuss Voigt Hill
#
# Bulk Modulus (GPa) = 50.76618 60.44910 55.60764
# Shear Modulus (GPa) = 34.02906 38.37862 36.20384
#
# Velocity S-wave (km/s) = 3.85663 4.09569 3.97796
# Velocity P-wave (km/s) = 6.48233 6.98482 6.73826
#
# Compressibility (1/GPa) = 0.01969816
#
# Stress axis : x y z
#
# Youngs Moduli (GPa) = 78.87471 72.61956 91.24101
#
# Poissons Ratio (x) = 0.09480 0.20517
# Poissons Ratio (y) = 0.10297 0.48369
# Poissons Ratio (z) = 0.17736 0.38497
#
# Static dielectric constant tensor:
#      x y z
#    x 1.932280 0.000000 0.003060 
#    y 0.000000 1.905810 0.000000 
#    z 0.003060 0.000000 1.921530 
# 
# From -- ./inp_files/112239.got.cif
#   From: 2010.05.17/outbox.cif.g08.bks.cpg/sg15_57_cif.got.tgz:112239.got - 2010.06.03 18:47:42.
