data_PCOD9297329
_publ_section_title
;
Structure prediction by ZEFSAII (Michael W. Deem and Ramdas Pophale) SiO2 
 PCOD9297329
Probable space group: C 2/C
;
_chemical_formula_sum "Si O2"
_cell_formula_units_Z 52
_cell_length_a 8.540621
_cell_length_b 20.758297
_cell_length_c 15.619310
_cell_angle_alpha 90.000000
_cell_angle_beta 97.575558
_cell_angle_gamma 90.000000
_cell_volume 2744.958594
_symmetry_space_group_name_H-M "C 2/C"
_symmetry_group_IT_number 15
_symmetry_cell_setting 'monoclinic'
loop_
_space_group_symop_operation_xyz
x,y,z
-x,y,1/2-z
-x,-y,-z
x,-y,1/2+z
1/2+x,1/2+y,z
1/2-x,1/2+y,1/2-z
1/2-x,1/2-y,-z
1/2+x,1/2-y,1/2+z
loop_
_atom_site_type_symbol
_atom_site_label
_atom_site_fract_x
_atom_site_fract_y
_atom_site_fract_z
Si Si1 0.500000 0.047674 0.750000
Si Si2 0.727106 0.628834 0.644665
Si Si3 0.411810 0.846341 0.984110
Si Si4 0.882389 0.516050 0.412443
Si Si5 0.764391 0.180492 0.545548
Si Si6 0.531551 0.254518 0.162809
Si Si7 0.068245 0.055398 0.944520
O O1 0.357853 0.092697 0.708574
O O2 0.543598 0.004597 0.671601
O O3 0.791732 0.649502 0.555036
O O4 0.670344 0.694238 0.683572
O O5 0.578221 0.581044 0.621681
O O6 0.368262 0.907690 0.922994
O O7 0.424217 0.788010 0.916940
O O8 0.586623 0.846239 0.040712
O O9 0.717741 0.477868 0.409658
O O10 0.000000 0.500000 0.500000
O O11 0.750000 0.250000 0.500000
O O12 0.860442 0.121388 0.508445
O O13 0.876775 0.201663 0.631467
O O14 0.500000 0.218492 0.250000
O O15 0.000000 0.000000 0.000000
#
# Coordination Sequence:
#
# PCOD9297329 Si02
#       7
#     4   8   8   8   8   8   8
#     4  12  26  40  66  96 124 172 220 264 318 398
#     4  11  24  39  66  91 127 167 217 268 321 389
#     4  11  21  43  63  90 127 172 213 257 330 395
#     4  12  23  41  66  95 130 170 213 266 325 393
#     4   9  20  37  62  86 122 169 211 252 318 388
#     4  10  24  39  63  94 124 164 216 277 324 375
#     4  11  20  38  64  96 127 161 214 270 329 384
#
# _framework density 18.943819999999999
#
# number of rings (size 3 to 8) (size 9 to 14) (size 15 to 20)
#    0.000    1.231    4.615    0.462    7.538    0.000 
#    0.000    0.000    0.000    1.846    0.000    0.000 
#    0.000    0.000    0.000    0.000    0.000    0.000 
#
# Total GULP energy -144767.137718 kJ/mol
# GULP energy per Si atom -5567.966835 kJ/mol
# Density = 1.890070 g / cm^3
# Si number density = 18.943820 Si / 1000 Ang^3
#
#
#
# Elastic Constant Matrix: (Units=GPa)
#
#
# Indices 1 2 3 4 5 6 
#
# 1 111.4411 41.3227 42.7406 0.0000 4.3870 0.0000
# 2 41.3227 109.4644 39.2871 0.0000 -1.3988 0.0000
# 3 42.7406 39.2871 110.8132 0.0000 -18.9642 0.0000
# 4 0.0000 0.0000 0.0000 22.0156 0.0000 -2.7265
# 5 4.3870 -1.3988 -18.9642 0.0000 19.5037 0.0000
# 6 0.0000 0.0000 0.0000 -2.7265 0.0000 38.0159
#
#
#
# Elastic Compliance Matrix: (Units=1/GPa)
#
#
# Indices 1 2 3 4 5 6 
#
# 1 0.012313 -0.002932 -0.005062 0.000000 -0.007902 0.000000
# 2 -0.002932 0.011360 -0.003172 0.000000 -0.001610 0.000000
# 3 -0.005062 -0.003172 0.014704 0.000000 0.015208 0.000000
# 4 0.000000 0.000000 0.000000 0.045830 0.000000 0.003287
# 5 -0.007902 -0.001610 0.015208 0.000000 0.067722 0.000000
# 6 0.000000 0.000000 0.000000 0.003287 0.000000 0.026541
#
#
# Mechanical properties :
#
#
# Convention : Reuss Voigt Hill
#
# Bulk Modulus (GPa) = 62.32648 64.26884 63.29766
# Shear Modulus (GPa) = 24.25423 29.79826 27.02624
#
# Velocity S-wave (km/s) = 3.58204 3.97038 3.78120
# Velocity P-wave (km/s) = 7.07673 7.41743 7.24908
#
# Compressibility (1/GPa) = 0.01604454
#
# Stress axis : x y z
#
# Youngs Moduli (GPa) = 81.21437 88.02585 68.00958
#
# Poissons Ratio (x) = 0.25813 0.34425
# Poissons Ratio (y) = 0.23816 0.21573
# Poissons Ratio (z) = 0.41109 0.27923
#
# Static dielectric constant tensor:
#      x y z
#    x 1.688860 0.000000 0.023650 
#    y 0.000000 1.740650 0.000000 
#    z 0.023650 0.000000 1.693170 
# 
# From -- ./inp_files/136128.got.cif
#   From: 2010.05.17/outbox.cif.g08.bks.cpg/sg15_69_cif.got.tgz:136128.got - 2010.06.03 18:47:42.
