data_PCOD9297100
_publ_section_title
;
Structure prediction by ZEFSAII (Michael W. Deem and Ramdas Pophale) SiO2 
 PCOD9297100
Probable space group: C 2/C
;
_chemical_formula_sum "Si O2"
_cell_formula_units_Z 32
_cell_length_a 11.393332
_cell_length_b 8.698078
_cell_length_c 13.612813
_cell_angle_alpha 90.000000
_cell_angle_beta 74.622610
_cell_angle_gamma 90.000000
_cell_volume 1300.735855
_symmetry_space_group_name_H-M "C 2/C"
_symmetry_group_IT_number 15
_symmetry_cell_setting 'monoclinic'
loop_
_space_group_symop_operation_xyz
x,y,z
-x,y,1/2-z
-x,-y,-z
x,-y,1/2+z
1/2+x,1/2+y,z
1/2-x,1/2+y,1/2-z
1/2-x,1/2-y,-z
1/2+x,1/2-y,1/2+z
loop_
_atom_site_type_symbol
_atom_site_label
_atom_site_fract_x
_atom_site_fract_y
_atom_site_fract_z
Si Si1 0.557527 0.374083 0.916594
Si Si2 0.647690 0.340602 0.293157
Si Si3 0.894296 0.627785 0.849671
Si Si4 0.892462 0.290575 0.910867
O O1 0.616792 0.478623 0.818512
O O2 0.454632 0.262265 0.898678
O O3 0.500000 0.500000 0.000000
O O4 0.638974 0.278992 0.975631
O O5 0.775191 0.317241 0.318838
O O6 0.651327 0.296761 0.178102
O O7 0.540033 0.238198 0.365058
O O8 0.865834 0.471522 0.913680
O O9 0.000000 0.582340 0.750000
#
# Coordination Sequence:
#
# PCOD9297100 Si02
#       4
#     8   8   8   8
#     4  10  25  44  71 102 135 178 231 274 342 404
#     4  10  24  46  69  99 141 177 221 288 327 404
#     4  12  26  43  72 100 136 186 222 276 345 399
#     4  10  23  48  66 103 137 174 232 280 332 405
#
# _framework density 24.601457
#
# number of rings (size 3 to 8) (size 9 to 14) (size 15 to 20)
#    0.000    1.500    2.500    0.750   10.500    5.000 
#    4.500    0.000    0.000    0.000    0.000    0.000 
#    0.000    0.000    0.000    0.000    0.000    0.000 
#
# Total GULP energy -89582.601990 kJ/mol
# GULP energy per Si atom -5598.912624 kJ/mol
# Density = 2.454546 g / cm^3
# Si number density = 24.601457 Si / 1000 Ang^3
#
#
#
# Elastic Constant Matrix: (Units=GPa)
#
#
# Indices 1 2 3 4 5 6 
#
# 1 90.4373 67.3978 55.3809 0.0000 38.2162 0.0000
# 2 67.3978 167.6240 65.3800 0.0000 32.2065 0.0000
# 3 55.3809 65.3800 87.2478 0.0000 11.0959 0.0000
# 4 0.0000 0.0000 0.0000 67.1379 0.0000 9.4443
# 5 38.2162 32.2065 11.0959 0.0000 58.2951 0.0000
# 6 0.0000 0.0000 0.0000 9.4443 0.0000 38.7123
#
#
#
# Elastic Compliance Matrix: (Units=1/GPa)
#
#
# Indices 1 2 3 4 5 6 
#
# 1 0.027255 -0.003214 -0.013164 0.000000 -0.013586 0.000000
# 2 -0.003214 0.009587 -0.004856 0.000000 -0.002266 0.000000
# 3 -0.013164 -0.004856 0.022564 0.000000 0.007018 0.000000
# 4 0.000000 0.000000 0.000000 0.015424 0.000000 -0.003763
# 5 -0.013586 -0.002266 0.007018 0.000000 0.025977 0.000000
# 6 0.000000 0.000000 0.000000 -0.003763 0.000000 0.026750
#
#
# Mechanical properties :
#
#
# Convention : Reuss Voigt Hill
#
# Bulk Modulus (GPa) = 59.03835 80.18072 69.60954
# Shear Modulus (GPa) = 28.46241 43.30575 35.88408
#
# Velocity S-wave (km/s) = 3.40507 4.20014 3.82333
# Velocity P-wave (km/s) = 6.28565 7.49561 6.91713
#
# Compressibility (1/GPa) = 0.01693814
#
# Stress axis : x y z
#
# Youngs Moduli (GPa) = 36.69104 104.30418 44.31813
#
# Poissons Ratio (x) = 0.33519 0.58340
# Poissons Ratio (y) = 0.11791 0.21522
# Poissons Ratio (z) = 0.48300 0.50654
#
# Static dielectric constant tensor:
#      x y z
#    x 1.920980 0.000000 0.066640 
#    y 0.000000 1.944620 0.000000 
#    z 0.066640 0.000000 1.878580 
# 
# From -- ./inp_files/140534.got.cif
#   From: 2010.05.17/outbox.cif.g08.bks.cpg/sg15_71_cif.got.tgz:140534.got - 2010.06.03 18:47:42.
