data_PCOD9297489
_publ_section_title
;
Structure prediction by ZEFSAII (Michael W. Deem and Ramdas Pophale) SiO2 
 PCOD9297489
Probable space group: C 2/C
;
_chemical_formula_sum "Si O2"
_cell_formula_units_Z 44
_cell_length_a 9.039513
_cell_length_b 11.951698
_cell_length_c 21.979095
_cell_angle_alpha 90.000000
_cell_angle_beta 110.227082
_cell_angle_gamma 90.000000
_cell_volume 2228.126870
_symmetry_space_group_name_H-M "C 2/C"
_symmetry_group_IT_number 15
_symmetry_cell_setting 'monoclinic'
loop_
_space_group_symop_operation_xyz
x,y,z
-x,y,1/2-z
-x,-y,-z
x,-y,1/2+z
1/2+x,1/2+y,z
1/2-x,1/2+y,1/2-z
1/2-x,1/2-y,-z
1/2+x,1/2-y,1/2+z
loop_
_atom_site_type_symbol
_atom_site_label
_atom_site_fract_x
_atom_site_fract_y
_atom_site_fract_z
Si Si1 0.014100 0.800533 0.820582
Si Si2 0.968969 0.505727 0.068027
Si Si3 0.901871 0.760199 0.065272
Si Si4 0.000000 0.980086 0.250000
Si Si5 0.238674 0.649363 0.659995
Si Si6 0.730105 0.316693 0.060199
O O1 0.167322 0.752659 0.875825
O O2 0.000000 0.752765 0.750000
O O3 0.861922 0.757258 0.834955
O O4 0.014880 0.933725 0.808851
O O5 0.956675 0.633584 0.085521
O O6 0.812046 0.436439 0.062226
O O7 0.111421 0.442002 0.120950
O O8 0.000000 0.500000 0.000000
O O9 0.849200 0.820544 0.119078
O O10 0.048538 0.820126 0.053558
O O11 0.750000 0.750000 0.000000
O O12 0.846980 0.902547 0.227882
O O13 0.750000 0.250000 0.000000
#
# Coordination Sequence:
#
# PCOD9297489 Si02
#       6
#     8   8   8   4   8   8
#     4   9  23  45  64  91 131 169 215 264 324 388
#     4  11  22  42  63  93 135 171 208 272 327 382
#     4  12  24  40  66 100 130 164 218 268 323 397
#     4  10  24  40  70  88 130 170 210 270 320 376
#     4  11  24  42  64  95 127 166 220 265 316 395
#     4  11  22  40  72  93 130 176 214 269 331 381
#
# _framework density 19.747530000000001
#
# number of rings (size 3 to 8) (size 9 to 14) (size 15 to 20)
#    0.545    0.727    3.636    2.182    2.545    2.182 
#    3.273    0.000    0.000    0.000    0.000    0.000 
#    0.000    0.000    0.000    0.000    0.000    0.000 
#
# Total GULP energy -122874.037276 kJ/mol
# GULP energy per Si atom -5585.183513 kJ/mol
# Density = 1.970258 g / cm^3
# Si number density = 19.747530 Si / 1000 Ang^3
#
#
#
# Elastic Constant Matrix: (Units=GPa)
#
#
# Indices 1 2 3 4 5 6 
#
# 1 156.1208 28.7979 21.3926 0.0000 8.9479 0.0000
# 2 28.7979 78.0824 -10.8911 0.0000 6.4370 0.0000
# 3 21.3926 -10.8911 78.4280 0.0000 7.7856 0.0000
# 4 0.0000 0.0000 0.0000 31.4111 0.0000 -6.2150
# 5 8.9479 6.4370 7.7856 0.0000 28.5937 0.0000
# 6 0.0000 0.0000 0.0000 -6.2150 0.0000 24.7433
#
#
#
# Elastic Compliance Matrix: (Units=1/GPa)
#
#
# Indices 1 2 3 4 5 6 
#
# 1 0.007321 -0.002939 -0.002306 0.000000 -0.001002 0.000000
# 2 -0.002939 0.014596 0.003149 0.000000 -0.003223 0.000000
# 3 -0.002306 0.003149 0.014199 0.000000 -0.003854 0.000000
# 4 0.000000 0.000000 0.000000 0.033501 0.000000 0.008415
# 5 -0.001002 -0.003223 -0.003854 0.000000 0.037061 0.000000
# 6 0.000000 0.000000 0.000000 0.008415 0.000000 0.042529
#
#
# Mechanical properties :
#
#
# Convention : Reuss Voigt Hill
#
# Bulk Modulus (GPa) = 31.32468 43.46998 37.39733
# Shear Modulus (GPa) = 30.48045 35.17175 32.82610
#
# Velocity S-wave (km/s) = 3.93301 4.22485 4.08154
# Velocity P-wave (km/s) = 6.04333 6.77199 6.41801
#
# Compressibility (1/GPa) = 0.03192371
#
# Stress axis : x y z
#
# Youngs Moduli (GPa) = 136.59810 68.51267 70.42649
#
# Poissons Ratio (x) = 0.20136 0.16237
# Poissons Ratio (y) = 0.40146 -0.22174
# Poissons Ratio (z) = 0.31494 -0.21572
#
# Static dielectric constant tensor:
#      x y z
#    x 1.681350 0.000000 0.004180 
#    y 0.000000 1.687300 0.000000 
#    z 0.004180 0.000000 1.705310 
# 
# From -- ./inp_files/230153.got.cif
#   From: 2010.05.17/outbox.cif.g08.bks.cpg/sg15_116_cif.got.tgz:230153.got - 2010.06.03 18:47:42.
