data_PCOD9297683
_publ_section_title
;
Structure prediction by ZEFSAII (Michael W. Deem and Ramdas Pophale) SiO2 
 PCOD9297683
Probable space group: C 2/C
;
_chemical_formula_sum "Si O2"
_cell_formula_units_Z 44
_cell_length_a 21.272548
_cell_length_b 11.097837
_cell_length_c 8.967787
_cell_angle_alpha 90.000000
_cell_angle_beta 120.503502
_cell_angle_gamma 90.000000
_cell_volume 1824.096836
_symmetry_space_group_name_H-M "C 2/C"
_symmetry_group_IT_number 15
_symmetry_cell_setting 'monoclinic'
loop_
_space_group_symop_operation_xyz
x,y,z
-x,y,1/2-z
-x,-y,-z
x,-y,1/2+z
1/2+x,1/2+y,z
1/2-x,1/2+y,1/2-z
1/2-x,1/2-y,-z
1/2+x,1/2-y,1/2+z
loop_
_atom_site_type_symbol
_atom_site_label
_atom_site_fract_x
_atom_site_fract_y
_atom_site_fract_z
Si Si1 0.694771 0.414498 0.170980
Si Si2 0.553389 0.429334 0.453981
Si Si3 0.500000 0.020487 0.750000
Si Si4 0.860624 0.338223 0.820972
Si Si5 0.294030 0.044059 0.527336
Si Si6 0.465711 0.168589 0.981344
O O1 0.673101 0.293293 0.228819
O O2 0.732318 0.495306 0.341072
O O3 0.624942 0.487651 0.021039
O O4 0.752699 0.385452 0.110083
O O5 0.500000 0.408700 0.250000
O O6 0.500000 0.500000 0.500000
O O7 0.571902 0.295927 0.538615
O O8 0.544045 0.104286 0.688488
O O9 0.548580 0.931429 0.910476
O O10 0.829679 0.432344 0.662795
O O11 0.842404 0.382587 0.966795
O O12 0.946787 0.318098 0.905347
#
# Coordination Sequence:
#
# PCOD9297683 Si02
#       6
#     8   8   4   8   8   8
#     4  11  23  42  67 100 139 177 233 286 354 419
#     4  12  25  43  68 103 142 184 230 289 359 420
#     4  10  24  42  64 100 138 186 234 276 354 410
#     4  11  22  43  67  95 139 175 239 286 346 422
#     4  10  24  42  67 101 130 188 232 290 349 409
#     4  11  23  43  68 101 140 186 234 291 350 420
#
# _framework density 24.121527
#
# number of rings (size 3 to 8) (size 9 to 14) (size 15 to 20)
#    0.000    1.091    2.727    3.273    1.273    1.455 
#    0.000    7.273    0.000    0.000    0.000    0.000 
#    0.000    0.000    0.000    0.000    0.000    0.000 
#
# Total GULP energy -123112.515994 kJ/mol
# GULP energy per Si atom -5596.023454 kJ/mol
# Density = 2.406663 g / cm^3
# Si number density = 24.121527 Si / 1000 Ang^3
#
#
#
# Elastic Constant Matrix: (Units=GPa)
#
#
# Indices 1 2 3 4 5 6 
#
# 1 79.9548 -1.9630 2.5375 0.0000 -13.5004 0.0000
# 2 -1.9630 83.1445 -1.1922 0.0000 -8.0359 0.0000
# 3 2.5375 -1.1922 98.5100 0.0000 -15.5950 0.0000
# 4 0.0000 0.0000 0.0000 19.8311 0.0000 -4.2136
# 5 -13.5004 -8.0359 -15.5950 0.0000 43.8597 0.0000
# 6 0.0000 0.0000 0.0000 -4.2136 0.0000 35.9566
#
#
#
# Elastic Compliance Matrix: (Units=1/GPa)
#
#
# Indices 1 2 3 4 5 6 
#
# 1 0.013246 0.000737 0.000355 0.000000 0.004338 0.000000
# 2 0.000737 0.012312 0.000554 0.000000 0.002680 0.000000
# 3 0.000355 0.000554 0.010790 0.000000 0.004047 0.000000
# 4 0.000000 0.000000 0.000000 0.051713 0.000000 0.006060
# 5 0.004338 0.002680 0.004047 0.000000 0.026065 0.000000
# 6 0.000000 0.000000 0.000000 0.006060 0.000000 0.028521
#
#
# Mechanical properties :
#
#
# Convention : Reuss Voigt Hill
#
# Bulk Modulus (GPa) = 25.22743 28.93042 27.07893
# Shear Modulus (GPa) = 32.77206 37.41130 35.09168
#
# Velocity S-wave (km/s) = 3.68995 3.94248 3.81830
# Velocity P-wave (km/s) = 5.35121 5.72223 5.53983
#
# Compressibility (1/GPa) = 0.03963939
#
# Stress axis : x y z
#
# Youngs Moduli (GPa) = 75.49182 81.22428 92.68260
#
# Poissons Ratio (x) = -0.05987 -0.03286
# Poissons Ratio (y) = -0.05565 -0.05137
# Poissons Ratio (z) = -0.02676 -0.04502
#
# Static dielectric constant tensor:
#      x y z
#    x 1.985610 0.000000 0.068460 
#    y 0.000000 1.921360 0.000000 
#    z 0.068460 0.000000 2.055400 
# 
# From -- ./inp_files/60815.got.cif
#   From: 2010.05.17/outbox.cif.g08.bks.cpg/sg15_31_cif.got.tgz:60815.got - 2010.06.03 18:47:42.
