data_PCOD9297249
_publ_section_title
;
Structure prediction by ZEFSAII (Michael W. Deem and Ramdas Pophale) SiO2 
 PCOD9297249
Probable space group: C 2/C
;
_chemical_formula_sum "Si O2"
_cell_formula_units_Z 56
_cell_length_a 10.040845
_cell_length_b 10.295116
_cell_length_c 21.084332
_cell_angle_alpha 90.000000
_cell_angle_beta 75.305397
_cell_angle_gamma 90.000000
_cell_volume 2108.233902
_symmetry_space_group_name_H-M "C 2/C"
_symmetry_group_IT_number 15
_symmetry_cell_setting 'monoclinic'
loop_
_space_group_symop_operation_xyz
x,y,z
-x,y,1/2-z
-x,-y,-z
x,-y,1/2+z
1/2+x,1/2+y,z
1/2-x,1/2+y,1/2-z
1/2-x,1/2-y,-z
1/2+x,1/2-y,1/2+z
loop_
_atom_site_type_symbol
_atom_site_label
_atom_site_fract_x
_atom_site_fract_y
_atom_site_fract_z
Si Si1 0.927025 0.668970 0.856772
Si Si2 0.308163 0.554945 0.552583
Si Si3 0.697709 0.781244 0.259517
Si Si4 0.053405 0.930392 0.846043
Si Si5 0.908203 0.803285 0.335917
Si Si6 0.204550 0.577589 0.952399
Si Si7 0.043845 0.324840 0.932745
O O1 0.855255 0.583438 0.918198
O O2 0.820712 0.677488 0.810481
O O3 0.077800 0.635528 0.810631
O O4 0.949226 0.815604 0.877116
O O5 0.355720 0.466722 0.604900
O O6 0.321794 0.476836 0.486029
O O7 0.381452 0.694260 0.550440
O O8 0.641364 0.635629 0.278916
O O9 0.846091 0.781956 0.273779
O O10 0.979821 0.057982 0.831753
O O11 0.770653 0.823863 0.395143
O O12 0.996926 0.701694 0.365817
O O13 0.088692 0.649192 0.007417
O O14 0.140201 0.450327 0.927525
#
# Coordination Sequence:
#
# PCOD9297249 Si02
#       7
#     8   8   8   8   8   8   8
#     4   9  21  40  60  84 115 154 201 253 304 357
#     4  11  22  39  62  86 122 159 196 250 299 353
#     4   9  21  40  60  84 115 154 201 253 304 357
#     4   9  21  38  61  86 112 153 199 240 299 355
#     4  11  22  39  62  86 122 159 196 250 299 353
#     4  11  24  37  60  92 125 162 197 240 296 361
#     4  10  24  38  56  90 117 155 198 233 293 355
#
# _framework density 26.562515000000001
#
# number of rings (size 3 to 8) (size 9 to 14) (size 15 to 20)
#    0.857    1.143    0.000    2.571    4.000    6.857 
#    0.000    2.143    0.000    0.000    0.000    0.000 
#    0.000    0.000    0.000    0.000    0.000    0.000 
#
# Total GULP energy -157004.237979 kJ/mol
# GULP energy per Si atom -5607.294214 kJ/mol
# Density = 2.650206 g / cm^3
# Si number density = 26.562515 Si / 1000 Ang^3
#
#
#
# Elastic Constant Matrix: (Units=GPa)
#
#
# Indices 1 2 3 4 5 6 
#
# 1 93.2087 23.9270 23.7271 0.0000 27.9209 0.0000
# 2 23.9270 85.0201 28.0864 0.0000 5.4562 0.0000
# 3 23.7271 28.0864 91.6873 0.0000 21.5868 0.0000
# 4 0.0000 0.0000 0.0000 42.7250 0.0000 7.4733
# 5 27.9209 5.4562 21.5868 0.0000 55.1226 0.0000
# 6 0.0000 0.0000 0.0000 7.4733 0.0000 37.8026
#
#
#
# Elastic Compliance Matrix: (Units=1/GPa)
#
#
# Indices 1 2 3 4 5 6 
#
# 1 0.013654 -0.003070 -0.001142 0.000000 -0.006165 0.000000
# 2 -0.003070 0.013781 -0.003825 0.000000 0.001689 0.000000
# 3 -0.001142 -0.003825 0.013382 0.000000 -0.004284 0.000000
# 4 0.000000 0.000000 0.000000 0.024244 0.000000 -0.004793
# 5 -0.006165 0.001689 -0.004284 0.000000 0.022775 0.000000
# 6 0.000000 0.000000 0.000000 -0.004793 0.000000 0.027401
#
#
# Mechanical properties :
#
#
# Convention : Reuss Voigt Hill
#
# Bulk Modulus (GPa) = 40.41190 46.82191 43.61691
# Shear Modulus (GPa) = 35.82768 40.07509 37.95138
#
# Velocity S-wave (km/s) = 3.67659 3.88842 3.78399
# Velocity P-wave (km/s) = 5.76802 6.15021 5.96218
#
# Compressibility (1/GPa) = 0.02474518
#
# Stress axis : x y z
#
# Youngs Moduli (GPa) = 73.23842 72.56382 74.72592
#
# Poissons Ratio (x) = 0.22276 0.08530
# Poissons Ratio (y) = 0.22483 0.28580
# Poissons Ratio (z) = 0.08360 0.27753
#
# Static dielectric constant tensor:
#      x y z
#    x 2.164540 0.000000 -0.051420 
#    y 0.000000 1.994640 0.000000 
#    z -0.051420 0.000000 2.095060 
# 
# From -- ./inp_files/268476.got.cif
#   From: 2010.05.17/outbox.cif.g08.bks.cpg/sg15_135_cif.got.tgz:268476.got - 2010.06.03 18:47:42.
