data_PCOD9297717
_publ_section_title
;
Structure prediction by ZEFSAII (Michael W. Deem and Ramdas Pophale) SiO2 
 PCOD9297717
Probable space group: C 2/C
;
_chemical_formula_sum "Si O2"
_cell_formula_units_Z 44
_cell_length_a 10.878582
_cell_length_b 12.884969
_cell_length_c 20.817485
_cell_angle_alpha 90.000000
_cell_angle_beta 137.784213
_cell_angle_gamma 90.000000
_cell_volume 1960.670083
_symmetry_space_group_name_H-M "C 2/C"
_symmetry_group_IT_number 15
_symmetry_cell_setting 'monoclinic'
loop_
_space_group_symop_operation_xyz
x,y,z
-x,y,1/2-z
-x,-y,-z
x,-y,1/2+z
1/2+x,1/2+y,z
1/2-x,1/2+y,1/2-z
1/2-x,1/2-y,-z
1/2+x,1/2-y,1/2+z
loop_
_atom_site_type_symbol
_atom_site_label
_atom_site_fract_x
_atom_site_fract_y
_atom_site_fract_z
Si Si1 0.652843 0.804049 0.696769
Si Si2 0.633966 0.419534 0.622169
Si Si3 0.892685 0.075971 0.775592
Si Si4 0.740980 0.398271 0.067745
Si Si5 0.500000 0.249517 0.750000
Si Si6 0.998117 0.499459 0.923261
O O1 0.710625 0.847175 0.788704
O O2 0.589601 0.686722 0.682292
O O3 0.513221 0.882471 0.609004
O O4 0.841929 0.807773 0.728426
O O5 0.560693 0.489635 0.653206
O O6 0.463432 0.358576 0.525521
O O7 0.714576 0.501699 0.603181
O O8 0.000000 0.070893 0.750000
O O9 0.681605 0.055058 0.675334
O O10 0.879963 0.320415 0.155337
O O11 0.831537 0.438127 0.037947
O O12 0.000000 0.500000 0.000000
#
# Coordination Sequence:
#
# PCOD9297717 Si02
#       6
#     8   8   8   8   4   8
#     4  11  25  40  68  92 127 166 211 260 320 367
#     4  10  24  42  65  94 125 174 203 264 312 376
#     4  11  23  43  62  94 131 165 213 259 315 378
#     4  11  22  45  65  87 131 163 216 254 316 374
#     4  12  22  42  66  96 122 164 216 268 304 382
#     4  11  25  43  64  94 128 172 207 264 319 377
#
# _framework density 22.441307999999999
#
# number of rings (size 3 to 8) (size 9 to 14) (size 15 to 20)
#    0.000    1.091    3.636    2.182   10.182    2.182 
#    0.000    1.818    0.000    0.000    0.000    0.000 
#    0.000    0.000    0.000    0.000    0.000    0.000 
#
# Total GULP energy -123084.917544 kJ/mol
# GULP energy per Si atom -5594.768979 kJ/mol
# Density = 2.239023 g / cm^3
# Si number density = 22.441308 Si / 1000 Ang^3
#
#
#
# Elastic Constant Matrix: (Units=GPa)
#
#
# Indices 1 2 3 4 5 6 
#
# 1 71.6143 -25.2112 -26.8209 0.0000 -15.4838 0.0000
# 2 -25.2112 59.9219 1.7667 0.0000 -8.2184 0.0000
# 3 -26.8209 1.7667 82.9992 0.0000 -14.1066 0.0000
# 4 0.0000 0.0000 0.0000 -10.4420 0.0000 -1.4927
# 5 -15.4838 -8.2184 -14.1066 0.0000 31.5734 0.0000
# 6 0.0000 0.0000 0.0000 -1.4927 0.0000 15.2944
#
#
#
# Elastic Compliance Matrix: (Units=1/GPa)
#
#
# Indices 1 2 3 4 5 6 
#
# 1 0.029844 0.015548 0.013515 0.000000 0.024721 0.000000
# 2 0.015548 0.025421 0.007471 0.000000 0.017580 0.000000
# 3 0.013515 0.007471 0.019169 0.000000 0.017137 0.000000
# 4 0.000000 0.000000 0.000000 -0.094449 0.000000 -0.009218
# 5 0.024721 0.017580 0.017137 0.000000 0.056028 0.000000
# 6 0.000000 0.000000 0.000000 -0.009218 0.000000 0.064484
#
#
# Mechanical properties :
#
#
# Convention : Reuss Voigt Hill
#
# Bulk Modulus (GPa) = 6.77957 12.66720 9.72338
# Shear Modulus (GPa) = 65.27778 24.93853 45.10815
#
# Velocity S-wave (km/s) = 5.39920 3.33720 4.48822
# Velocity P-wave (km/s) = 6.47272 4.52836 5.58579
#
# Compressibility (1/GPa) = 0.14750190
#
# Stress axis : x y z
#
# Youngs Moduli (GPa) = 33.50786 39.33758 52.16749
#
# Poissons Ratio (x) = -0.61163 -0.70502
# Poissons Ratio (y) = -0.52099 -0.38975
# Poissons Ratio (z) = -0.45284 -0.29390
#
# Static dielectric constant tensor:
#      x y z
#    x 1.833730 0.000000 -0.001010 
#    y 0.000000 1.829390 0.000000 
#    z -0.001010 0.000000 1.824980 
# 
# From -- ./inp_files/142307.got.cif
#   From: 2010.05.17/outbox.cif.g08.bks.cpg/sg15_72_cif.got.tgz:142307.got - 2010.06.03 18:47:42.
