data_PCOD9297521
_publ_section_title
;
Structure prediction by ZEFSAII (Michael W. Deem and Ramdas Pophale) SiO2 
 PCOD9297521
Probable space group: C 2/C
;
_chemical_formula_sum "Si O2"
_cell_formula_units_Z 52
_cell_length_a 29.813987
_cell_length_b 8.798751
_cell_length_c 29.508844
_cell_angle_alpha 90.000000
_cell_angle_beta 161.181451
_cell_angle_gamma 90.000000
_cell_volume 2497.009229
_symmetry_space_group_name_H-M "C 2/C"
_symmetry_group_IT_number 15
_symmetry_cell_setting 'monoclinic'
loop_
_space_group_symop_operation_xyz
x,y,z
-x,y,1/2-z
-x,-y,-z
x,-y,1/2+z
1/2+x,1/2+y,z
1/2-x,1/2+y,1/2-z
1/2-x,1/2-y,-z
1/2+x,1/2-y,1/2+z
loop_
_atom_site_type_symbol
_atom_site_label
_atom_site_fract_x
_atom_site_fract_y
_atom_site_fract_z
Si Si1 0.250029 0.141010 0.726684
Si Si2 0.800308 0.894228 0.219482
Si Si3 0.105376 0.397859 0.474338
Si Si4 0.271181 0.353606 0.464258
Si Si5 0.500000 0.719885 0.250000
Si Si6 0.175190 0.444901 0.790179
Si Si7 0.477919 0.360334 0.916687
O O1 0.272661 0.114906 0.801128
O O2 0.331158 0.294400 0.792520
O O3 0.086265 0.149754 0.561038
O O4 0.298982 0.022183 0.734787
O O5 0.804221 0.732741 0.198550
O O6 0.950993 0.971208 0.372574
O O7 0.716905 0.014063 0.110251
O O8 0.185966 0.314858 0.511681
O O9 0.982603 0.514609 0.347208
O O10 0.034863 0.257211 0.433960
O O11 0.399851 0.382323 0.621703
O O12 0.116583 0.326308 0.336874
O O13 0.261329 0.469719 0.412356
#
# Coordination Sequence:
#
# PCOD9297521 Si02
#       7
#     8   8   8   8   4   8   8
#     4  11  24  41  64  94 137 191 241 273 316 400
#     4  12  26  39  63 101 138 187 230 281 337 369
#     4  11  23  42  67  95 135 182 225 278 323 411
#     4  11  21  47  70 109 127 174 225 269 341 410
#     4  10  24  40  84 102 126 170 228 274 326 444
#     4  11  25  38  68  98 142 175 227 287 333 390
#     4  11  22  43  62  88 129 191 235 281 319 386
#
# _framework density 20.824912999999999
#
# number of rings (size 3 to 8) (size 9 to 14) (size 15 to 20)
#    0.000    0.923    4.615    2.308    4.308    1.231 
#    0.000    0.000    0.000    5.538    0.000    0.000 
#    0.000    0.000    0.000    0.000    0.000    0.000 
#
# Total GULP energy -145071.719286 kJ/mol
# GULP energy per Si atom -5579.681511 kJ/mol
# Density = 2.077751 g / cm^3
# Si number density = 20.824913 Si / 1000 Ang^3
#
#
#
# Elastic Constant Matrix: (Units=GPa)
#
#
# Indices 1 2 3 4 5 6 
#
# 1 87.9881 33.2955 34.2700 -0.0014 9.2580 -0.0001
# 2 33.2955 75.5160 14.2693 -0.0019 20.5456 -0.0019
# 3 34.2700 14.2693 105.3447 -0.0076 2.7543 -0.0060
# 4 -0.0014 -0.0019 -0.0076 4.7100 -0.0030 8.1501
# 5 9.2580 20.5456 2.7543 -0.0030 20.7542 -0.0031
# 6 -0.0001 -0.0019 -0.0060 8.1501 -0.0031 5.8954
#
#
#
# Elastic Compliance Matrix: (Units=1/GPa)
#
#
# Indices 1 2 3 4 5 6 
#
# 1 0.015229 -0.005791 -0.004156 -0.000004 -0.000509 0.000000
# 2 -0.005791 0.020752 -0.000459 0.000000 -0.017899 -0.000003
# 3 -0.004156 -0.000459 0.010884 0.000002 0.000864 0.000008
# 4 -0.000004 0.000000 0.000002 -0.152501 0.000011 0.210828
# 5 -0.000509 -0.017899 0.000864 0.000011 0.066015 0.000014
# 6 0.000000 -0.000003 0.000008 0.210828 0.000014 -0.121837
#
#
# Mechanical properties :
#
#
# Convention : Reuss Voigt Hill
#
# Bulk Modulus (GPa) = 38.38357 48.05761 43.22059
# Shear Modulus (GPa) = -37.88988 18.73950 -9.57519
#
# Velocity S-wave (km/s) = -4.27013 3.00302 -2.14661
# Velocity P-wave (km/s) = 2.41670 5.92885 3.82824
#
# Compressibility (1/GPa) = 0.02605282
#
# Stress axis : x y z
#
# Youngs Moduli (GPa) = 65.66492 48.18818 91.87449
#
# Poissons Ratio (x) = 0.27903 0.38187
# Poissons Ratio (y) = 0.38023 0.04219
# Poissons Ratio (z) = 0.27293 0.02213
#
# Static dielectric constant tensor:
#      x y z
#    x 1.822690 0.000000 -0.010570 
#    y 0.000000 1.738080 0.000000 
#    z -0.010570 0.000000 1.800670 
# 
# From -- ./inp_files/320215.got.cif
#   From: 2010.05.17/outbox.cif.g08.bks.cpg/sg15_161_cif.got.tgz:320215.got - 2010.06.03 18:47:42.
