data_PCOD9297457
_publ_section_title
;
Structure prediction by ZEFSAII (Michael W. Deem and Ramdas Pophale) SiO2 
 PCOD9297457
Probable space group: C 2/C
;
_chemical_formula_sum "Si O2"
_cell_formula_units_Z 32
_cell_length_a 14.442613
_cell_length_b 9.752640
_cell_length_c 24.771097
_cell_angle_alpha 90.000000
_cell_angle_beta 21.298606
_cell_angle_gamma 90.000000
_cell_volume 1267.340166
_symmetry_space_group_name_H-M "C 2/C"
_symmetry_group_IT_number 15
_symmetry_cell_setting 'monoclinic'
loop_
_space_group_symop_operation_xyz
x,y,z
-x,y,1/2-z
-x,-y,-z
x,-y,1/2+z
1/2+x,1/2+y,z
1/2-x,1/2+y,1/2-z
1/2-x,1/2-y,-z
1/2+x,1/2-y,1/2+z
loop_
_atom_site_type_symbol
_atom_site_label
_atom_site_fract_x
_atom_site_fract_y
_atom_site_fract_z
Si Si1 0.780291 0.513471 0.574099
Si Si2 0.084218 0.817964 0.007900
Si Si3 0.064370 0.687235 0.836825
Si Si4 0.691994 0.619703 0.953278
O O1 0.500000 0.476974 0.750000
O O2 0.000000 0.500000 0.500000
O O3 0.775221 0.674685 0.561033
O O4 0.899031 0.420972 0.461545
O O5 0.862261 0.836967 0.172558
O O6 0.936231 0.821553 0.030834
O O7 0.238717 0.958393 0.923817
O O8 0.946383 0.681586 0.840962
O O9 0.015556 0.835580 0.889055
#
# Coordination Sequence:
#
# PCOD9297457 Si02
#       4
#     8   8   8   8
#     4  12  29  49  76 109 151 191 246 308 369 433
#     4  11  24  45  70 105 146 187 248 304 361 428
#     4  11  24  43  75 101 145 198 244 290 373 436
#     4  10  24  40  68 105 143 186 242 296 364 430
#
# _framework density 25.249732000000002
#
# number of rings (size 3 to 8) (size 9 to 14) (size 15 to 20)
#    0.000    1.000    2.500    2.250   10.500    5.000 
#    0.000    0.000    0.000    0.000    0.000    0.000 
#    0.000    0.000    0.000    0.000    0.000    0.000 
#
# Total GULP energy -89476.313766 kJ/mol
# GULP energy per Si atom -5592.269610 kJ/mol
# Density = 2.519226 g / cm^3
# Si number density = 25.249732 Si / 1000 Ang^3
#
#
#
# Elastic Constant Matrix: (Units=GPa)
#
#
# Indices 1 2 3 4 5 6 
#
# 1 99.5339 25.6496 25.2083 0.0070 4.8401 -0.0003
# 2 25.6496 164.3057 27.7890 0.0125 14.9817 0.0045
# 3 25.2083 27.7890 150.3553 0.0100 10.2674 0.0055
# 4 0.0070 0.0125 0.0100 17.4850 -0.0184 9.0132
# 5 4.8401 14.9817 10.2674 -0.0184 18.1673 -0.0010
# 6 -0.0003 0.0045 0.0055 9.0132 -0.0010 30.5425
#
#
#
# Elastic Compliance Matrix: (Units=1/GPa)
#
#
# Indices 1 2 3 4 5 6 
#
# 1 0.010820 -0.001351 -0.001502 -0.000004 -0.000920 0.000002
# 2 -0.001351 0.006864 -0.000707 -0.000010 -0.004900 0.000002
# 3 -0.001502 -0.000707 0.007246 -0.000007 -0.003112 0.000001
# 4 -0.000004 -0.000010 -0.000007 0.067453 0.000080 -0.019906
# 5 -0.000920 -0.004900 -0.003112 0.000080 0.061089 -0.000020
# 6 0.000002 0.000002 0.000001 -0.019906 -0.000020 0.038615
#
#
# Mechanical properties :
#
#
# Convention : Reuss Voigt Hill
#
# Bulk Modulus (GPa) = 56.15071 63.49874 59.82472
# Shear Modulus (GPa) = 24.37315 35.60881 29.99098
#
# Velocity S-wave (km/s) = 3.11027 3.75942 3.45015
# Velocity P-wave (km/s) = 5.93168 6.63681 6.29413
#
# Compressibility (1/GPa) = 0.01780921
#
# Stress axis : x y z
#
# Youngs Moduli (GPa) = 92.42092 145.69560 138.00939
#
# Poissons Ratio (x) = 0.19688 0.20722
# Poissons Ratio (y) = 0.12489 0.09762
# Poissons Ratio (z) = 0.13877 0.10306
#
# Static dielectric constant tensor:
#      x y z
#    x 2.077710 0.000010 0.072120 
#    y 0.000010 2.041710 0.000010 
#    z 0.072120 0.000010 2.052230 
# 
# From -- ./inp_files/295842.got.cif
#   From: 2010.05.17/outbox.cif.g08.bks.cpg/sg15_148_cif.got.tgz:295842.got - 2010.06.03 18:47:42.
