data_PCOD9297274
_publ_section_title
;
Structure prediction by ZEFSAII (Michael W. Deem and Ramdas Pophale) SiO2 
 PCOD9297274
Probable space group: C 2/C
;
_chemical_formula_sum "Si O2"
_cell_formula_units_Z 40
_cell_length_a 5.086267
_cell_length_b 28.642404
_cell_length_c 13.501923
_cell_angle_alpha 90.000000
_cell_angle_beta 86.179160
_cell_angle_gamma 90.000000
_cell_volume 1962.627435
_symmetry_space_group_name_H-M "C 2/C"
_symmetry_group_IT_number 15
_symmetry_cell_setting 'monoclinic'
loop_
_space_group_symop_operation_xyz
x,y,z
-x,y,1/2-z
-x,-y,-z
x,-y,1/2+z
1/2+x,1/2+y,z
1/2-x,1/2+y,1/2-z
1/2-x,1/2-y,-z
1/2+x,1/2-y,1/2+z
loop_
_atom_site_type_symbol
_atom_site_label
_atom_site_fract_x
_atom_site_fract_y
_atom_site_fract_z
Si Si1 0.823520 0.855175 0.632453
Si Si2 0.500000 0.221214 0.250000
Si Si3 0.836918 0.365841 0.509573
Si Si4 0.259001 0.473347 0.956093
Si Si5 0.000000 0.059854 0.250000
Si Si6 0.225738 0.810320 0.314101
O O1 0.715309 0.812233 0.697273
O O2 0.631556 0.859820 0.542929
O O3 0.815732 0.904108 0.692561
O O4 0.125015 0.847952 0.594929
O O5 0.615789 0.257536 0.328039
O O6 0.771283 0.420536 0.504082
O O7 0.778225 0.338240 0.411743
O O8 0.331154 0.468283 0.836542
O O9 0.500000 0.500000 0.000000
O O10 0.000000 0.500000 0.000000
O O11 0.500000 0.807224 0.250000
O O12 0.000000 0.833142 0.250000
#
# Coordination Sequence:
#
# PCOD9297274 Si02
#       6
#     8   4   8   8   4   8
#     4  11  23  39  72  92 126 176 215 277 322 383
#     4  10  24  38  63  98 132 170 227 256 336 382
#     4  11  24  44  65  94 130 171 223 271 336 386
#     4  11  24  43  69  99 131 166 226 274 333 410
#     4  10  24  46  69 102 140 168 221 286 342 378
#     4  10  24  42  61  88 139 171 214 271 324 396
#
# _framework density 20.380842000000001
#
# number of rings (size 3 to 8) (size 9 to 14) (size 15 to 20)
#    0.600    0.800    0.000    6.000    4.200    5.600 
#    5.400    0.000    0.000    0.000    0.000    0.000 
#    0.000    0.000    0.000    0.000    0.000    0.000 
#
# Total GULP energy -111685.167054 kJ/mol
# GULP energy per Si atom -5584.258353 kJ/mol
# Density = 2.033445 g / cm^3
# Si number density = 20.380842 Si / 1000 Ang^3
#
#
#
# Elastic Constant Matrix: (Units=GPa)
#
#
# Indices 1 2 3 4 5 6 
#
# 1 109.6094 29.6260 37.0621 0.0000 -0.2690 0.0000
# 2 29.6260 111.5024 61.9202 0.0000 -9.8962 0.0000
# 3 37.0621 61.9202 117.8648 0.0000 -0.6954 0.0000
# 4 0.0000 0.0000 0.0000 0.8826 0.0000 42.6364
# 5 -0.2690 -9.8962 -0.6954 0.0000 49.1356 0.0000
# 6 0.0000 0.0000 0.0000 42.6364 0.0000 -46.0424
#
#
#
# Elastic Compliance Matrix: (Units=1/GPa)
#
#
# Indices 1 2 3 4 5 6 
#
# 1 0.010350 -0.001362 -0.002541 0.000000 -0.000254 0.000000
# 2 -0.001362 0.013145 -0.006463 0.000000 0.002549 0.000000
# 3 -0.002541 -0.006463 0.012672 0.000000 -0.001136 0.000000
# 4 0.000000 0.000000 0.000000 0.024774 0.000000 0.022941
# 5 -0.000254 0.002549 -0.001136 0.000000 0.020848 0.000000
# 6 0.000000 0.000000 0.000000 0.022941 0.000000 -0.000475
#
#
# Mechanical properties :
#
#
# Convention : Reuss Voigt Hill
#
# Bulk Modulus (GPa) = 64.77967 66.24368 65.51167
# Shear Modulus (GPa) = 46.64663 14.81971 30.73317
#
# Velocity S-wave (km/s) = 4.78928 2.69948 3.88744
# Velocity P-wave (km/s) = 7.90168 6.50305 7.23624
#
# Compressibility (1/GPa) = 0.01543694
#
# Stress axis : x y z
#
# Youngs Moduli (GPa) = 96.62069 76.07295 78.91628
#
# Poissons Ratio (x) = 0.10357 0.20050
# Poissons Ratio (y) = 0.13155 0.51001
# Poissons Ratio (z) = 0.24548 0.49164
#
# Static dielectric constant tensor:
#      x y z
#    x 1.748900 0.000000 -0.000710 
#    y 0.000000 1.709670 0.000000 
#    z -0.000710 0.000000 1.753910 
# 
# From -- ./inp_files/73639.got.cif
#   From: 2010.05.17/outbox.cif.g08.bks.cpg/sg15_37_cif.got.tgz:73639.got - 2010.06.03 18:47:42.
