data_PCOD9297120
_publ_section_title
;
Structure prediction by ZEFSAII (Michael W. Deem and Ramdas Pophale) SiO2 
 PCOD9297120
Probable space group: C 2/C
;
_chemical_formula_sum "Si O2"
_cell_formula_units_Z 52
_cell_length_a 5.816703
_cell_length_b 26.817778
_cell_length_c 17.284020
_cell_angle_alpha 90.000000
_cell_angle_beta 60.688696
_cell_angle_gamma 90.000000
_cell_volume 2350.971320
_symmetry_space_group_name_H-M "C 2/C"
_symmetry_group_IT_number 15
_symmetry_cell_setting 'monoclinic'
loop_
_space_group_symop_operation_xyz
x,y,z
-x,y,1/2-z
-x,-y,-z
x,-y,1/2+z
1/2+x,1/2+y,z
1/2-x,1/2+y,1/2-z
1/2-x,1/2-y,-z
1/2+x,1/2-y,1/2+z
loop_
_atom_site_type_symbol
_atom_site_label
_atom_site_fract_x
_atom_site_fract_y
_atom_site_fract_z
Si Si1 0.201059 0.121058 0.086155
Si Si2 0.354839 0.734882 0.358443
Si Si3 0.357936 0.721198 0.854648
Si Si4 0.352967 0.942435 0.702299
Si Si5 0.500000 0.468986 0.250000
Si Si6 0.751310 0.607316 0.593096
Si Si7 0.633047 0.448025 0.963577
O O1 0.161031 0.179352 0.104939
O O2 0.229006 0.098761 0.167537
O O3 0.977099 0.087671 0.084533
O O4 0.452399 0.112195 0.988574
O O5 0.500000 0.735637 0.250000
O O6 0.552672 0.762652 0.387071
O O7 0.055637 0.755299 0.387960
O O8 0.500000 0.732871 0.750000
O O9 0.349747 0.661881 0.868587
O O10 0.500000 0.918593 0.750000
O O11 0.569368 0.962588 0.606356
O O12 0.186128 0.989689 0.760764
O O13 0.311701 0.432766 0.329936
O O14 0.600141 0.585046 0.544888
O O15 0.500000 0.500000 0.000000
#
# Coordination Sequence:
#
# PCOD9297120 Si02
#       7
#     8   8   8   8   4   8   8
#     4  11  26  43  69 105 141 187 233 299 361 433
#     4  10  25  44  75 104 147 187 241 302 369 432
#     4  10  23  48  71 110 142 189 245 305 358 436
#     4  11  24  40  67 100 134 182 235 292 351 432
#     4  12  24  46  70 100 134 192 240 292 364 432
#     4  11  25  43  72 100 141 189 239 295 364 431
#     4  11  24  44  64 100 145 182 233 295 357 423
#
# _framework density 22.118517000000001
#
# number of rings (size 3 to 8) (size 9 to 14) (size 15 to 20)
#    0.000    1.231    0.769    3.692    9.692    4.308 
#    0.000    0.000    0.000    0.000    0.000    0.000 
#    0.000    0.000    0.000    0.000    0.000    0.000 
#
# Total GULP energy -144948.223790 kJ/mol
# GULP energy per Si atom -5574.931684 kJ/mol
# Density = 2.206817 g / cm^3
# Si number density = 22.118517 Si / 1000 Ang^3
#
#
#
# Elastic Constant Matrix: (Units=GPa)
#
#
# Indices 1 2 3 4 5 6 
#
# 1 103.7916 67.2851 14.3567 0.0000 4.7331 0.0000
# 2 67.2851 154.2582 8.4753 0.0000 14.5474 0.0000
# 3 14.3567 8.4753 42.3390 0.0000 2.1136 0.0000
# 4 0.0000 0.0000 0.0000 54.7922 0.0000 2.3872
# 5 4.7331 14.5474 2.1136 0.0000 25.8912 0.0000
# 6 0.0000 0.0000 0.0000 2.3872 0.0000 27.9164
#
#
#
# Elastic Compliance Matrix: (Units=1/GPa)
#
#
# Indices 1 2 3 4 5 6 
#
# 1 0.013972 -0.006002 -0.003592 0.000000 0.001111 0.000000
# 2 -0.006002 0.009483 0.000349 0.000000 -0.004260 0.000000
# 3 -0.003592 0.000349 0.024845 0.000000 -0.001568 0.000000
# 4 0.000000 0.000000 0.000000 0.018319 0.000000 -0.001566
# 5 0.001111 -0.004260 -0.001568 0.000000 0.040941 0.000000
# 6 0.000000 0.000000 0.000000 -0.001566 0.000000 0.035955
#
#
# Mechanical properties :
#
#
# Convention : Reuss Voigt Hill
#
# Bulk Modulus (GPa) = 33.54369 53.40255 43.47312
# Shear Modulus (GPa) = 29.07991 35.73808 32.40899
#
# Velocity S-wave (km/s) = 3.62986 4.02400 3.83200
# Velocity P-wave (km/s) = 5.72417 6.76656 6.26708
#
# Compressibility (1/GPa) = 0.02981187
#
# Stress axis : x y z
#
# Youngs Moduli (GPa) = 71.57426 105.45252 40.24941
#
# Poissons Ratio (x) = 0.63289 0.14456
# Poissons Ratio (y) = 0.42956 -0.01407
# Poissons Ratio (z) = 0.25707 -0.03685
#
# Static dielectric constant tensor:
#      x y z
#    x 1.928850 0.000000 -0.044910 
#    y 0.000000 1.590510 0.000000 
#    z -0.044910 0.000000 1.856150 
# 
# From -- ./inp_files/186069.got.cif
#   From: 2010.05.17/outbox.cif.g08.bks.cpg/sg15_94_cif.got.tgz:186069.got - 2010.06.03 18:47:42.
