data_PCOD9297692
_publ_section_title
;
Structure prediction by ZEFSAII (Michael W. Deem and Ramdas Pophale) SiO2 
 PCOD9297692
Probable space group: C 2/C
;
_chemical_formula_sum "Si O2"
_cell_formula_units_Z 28
_cell_length_a 30.053212
_cell_length_b 4.627289
_cell_length_c 8.901624
_cell_angle_alpha 90.000000
_cell_angle_beta 124.679314
_cell_angle_gamma 90.000000
_cell_volume 1017.989289
_symmetry_space_group_name_H-M "C 2/C"
_symmetry_group_IT_number 15
_symmetry_cell_setting 'monoclinic'
loop_
_space_group_symop_operation_xyz
x,y,z
-x,y,1/2-z
-x,-y,-z
x,-y,1/2+z
1/2+x,1/2+y,z
1/2-x,1/2+y,1/2-z
1/2-x,1/2-y,-z
1/2+x,1/2-y,1/2+z
loop_
_atom_site_type_symbol
_atom_site_label
_atom_site_fract_x
_atom_site_fract_y
_atom_site_fract_z
Si Si1 0.644135 0.719982 0.250436
Si Si2 0.786553 0.477058 0.854547
Si Si3 0.000000 0.974395 0.750000
Si Si4 0.070823 0.285615 0.646526
O O1 0.689047 0.812083 0.456685
O O2 0.626491 0.389788 0.222355
O O3 0.666149 0.844707 0.136910
O O4 0.588539 0.884418 0.185249
O O5 0.741279 0.721879 0.796293
O O6 0.968344 0.785537 0.566765
O O7 0.957368 0.173020 0.757566
#
# Coordination Sequence:
#
# PCOD9297692 Si02
#       4
#     8   8   4   8
#     4  12  24  42  64  91 124 161 204 250 304 360
#     4  12  24  41  64  91 124 161 204 251 302 360
#     4  10  24  42  64  92 124 160 204 250 304 360
#     4  11  24  41  64  91 124 161 202 251 302 361
#
# _framework density 27.505199000000001
#
# number of rings (size 3 to 8) (size 9 to 14) (size 15 to 20)
#    0.000    0.571    0.000    8.571    0.000    6.857 
#    0.000    0.000    0.000    0.000    0.000    0.000 
#    0.000    0.000    0.000    0.000    0.000    0.000 
#
# Total GULP energy -78748.674373 kJ/mol
# GULP energy per Si atom -5624.905312 kJ/mol
# Density = 2.744260 g / cm^3
# Si number density = 27.505199 Si / 1000 Ang^3
#
#
#
# Elastic Constant Matrix: (Units=GPa)
#
#
# Indices 1 2 3 4 5 6 
#
# 1 120.4368 25.1509 10.1736 0.0000 21.2137 0.0000
# 2 25.1509 107.0612 9.7669 0.0000 6.4617 0.0000
# 3 10.1736 9.7669 106.7890 0.0000 12.5247 0.0000
# 4 0.0000 0.0000 0.0000 35.0255 0.0000 12.8891
# 5 21.2137 6.4617 12.5247 0.0000 26.3332 0.0000
# 6 0.0000 0.0000 0.0000 12.8891 0.0000 48.7683
#
#
#
# Elastic Compliance Matrix: (Units=1/GPa)
#
#
# Indices 1 2 3 4 5 6 
#
# 1 0.010044 -0.001907 0.000118 0.000000 -0.007680 0.000000
# 2 -0.001907 0.009883 -0.000654 0.000000 -0.000578 0.000000
# 3 0.000118 -0.000654 0.009961 0.000000 -0.004672 0.000000
# 4 0.000000 0.000000 0.000000 0.031627 0.000000 -0.008359
# 5 -0.007680 -0.000578 -0.004672 0.000000 0.046526 0.000000
# 6 0.000000 0.000000 0.000000 -0.008359 0.000000 0.022714
#
#
# Mechanical properties :
#
#
# Convention : Reuss Voigt Hill
#
# Bulk Modulus (GPa) = 39.99733 47.16331 43.58032
# Shear Modulus (GPa) = 34.72843 41.30510 38.01677
#
# Velocity S-wave (km/s) = 3.55718 3.87941 3.72178
# Velocity P-wave (km/s) = 5.60756 6.10333 5.86069
#
# Compressibility (1/GPa) = 0.02500167
#
# Stress axis : x y z
#
# Youngs Moduli (GPa) = 99.56175 101.18402 100.39318
#
# Poissons Ratio (x) = 0.19294 -0.01187
# Poissons Ratio (y) = 0.18985 0.06571
# Poissons Ratio (z) = -0.01177 0.06622
#
# Static dielectric constant tensor:
#      x y z
#    x 2.100730 0.000000 0.020790 
#    y 0.000000 2.024170 0.000000 
#    z 0.020790 0.000000 2.087010 
# 
# From -- ./inp_files/59495.got.cif
#   From: 2010.05.17/outbox.cif.g08.bks.cpg/sg15_30_cif.got.tgz:59495.got - 2010.06.03 18:47:42.
