data_PCOD9297461
_publ_section_title
;
Structure prediction by ZEFSAII (Michael W. Deem and Ramdas Pophale) SiO2 
 PCOD9297461
Probable space group: C 2/C
;
_chemical_formula_sum "Si O2"
_cell_formula_units_Z 28
_cell_length_a 23.538004
_cell_length_b 7.815912
_cell_length_c 17.194852
_cell_angle_alpha 90.000000
_cell_angle_beta 162.077820
_cell_angle_gamma 90.000000
_cell_volume 973.442882
_symmetry_space_group_name_H-M "C 2/C"
_symmetry_group_IT_number 15
_symmetry_cell_setting 'monoclinic'
loop_
_space_group_symop_operation_xyz
x,y,z
-x,y,1/2-z
-x,-y,-z
x,-y,1/2+z
1/2+x,1/2+y,z
1/2-x,1/2+y,1/2-z
1/2-x,1/2-y,-z
1/2+x,1/2-y,1/2+z
loop_
_atom_site_type_symbol
_atom_site_label
_atom_site_fract_x
_atom_site_fract_y
_atom_site_fract_z
Si Si1 0.072510 0.997677 0.424711
Si Si2 0.500000 0.932325 0.250000
Si Si3 0.594079 0.336888 0.664962
Si Si4 0.432318 0.837318 0.816894
O O1 0.252926 0.892940 0.632369
O O2 0.000000 0.065392 0.250000
O O3 0.936454 0.848048 0.280215
O O4 0.047928 0.160884 0.448691
O O5 0.707122 0.859417 0.537101
O O6 0.526042 0.037806 0.201114
O O7 0.500000 0.500000 0.500000
O O8 0.575494 0.190463 0.575539
#
# Coordination Sequence:
#
# PCOD9297461 Si02
#       4
#     8   4   8   8
#     4  11  19  38  67 102 142 179 235 299 352 430
#     4  12  22  46  78 102 146 190 236 308 360 430
#     4  10  24  40  68 116 137 184 257 285 362 451
#     4  11  22  39  72 107 142 188 238 299 363 428
#
# _framework density 28.763888999999999
#
# number of rings (size 3 to 8) (size 9 to 14) (size 15 to 20)
#    0.000    1.143    4.286    4.286    0.000    0.000 
#    0.000   15.714    0.000   17.143    0.000    0.000 
#    0.000    0.000    0.000    0.000    0.000    0.000 
#
# Total GULP energy -78080.845158 kJ/mol
# GULP energy per Si atom -5577.203226 kJ/mol
# Density = 2.869842 g / cm^3
# Si number density = 28.763889 Si / 1000 Ang^3
#
#
#
# Elastic Constant Matrix: (Units=GPa)
#
#
# Indices 1 2 3 4 5 6 
#
# 1 253.5328 63.9513 107.3596 0.0001 -18.5609 0.0000
# 2 63.9513 104.3119 76.8505 0.0001 9.9324 0.0001
# 3 107.3596 76.8505 266.6092 0.0002 4.7010 0.0003
# 4 0.0001 0.0001 0.0002 43.4786 0.0001 5.1782
# 5 -18.5609 9.9324 4.7010 0.0001 64.8604 0.0001
# 6 0.0000 0.0001 0.0003 5.1782 0.0001 44.8286
#
#
#
# Elastic Compliance Matrix: (Units=1/GPa)
#
#
# Indices 1 2 3 4 5 6 
#
# 1 0.005316 -0.002343 -0.001500 0.000000 0.001989 0.000000
# 2 -0.002343 0.013375 -0.002867 0.000000 -0.002511 0.000000
# 3 -0.001500 -0.002867 0.005188 0.000000 -0.000366 0.000000
# 4 0.000000 0.000000 0.000000 0.023321 0.000000 -0.002694
# 5 0.001989 -0.002511 -0.000366 0.000000 0.016398 0.000000
# 6 0.000000 0.000000 0.000000 -0.002694 0.000000 0.022618
#
#
# Mechanical properties :
#
#
# Convention : Reuss Voigt Hill
#
# Bulk Modulus (GPa) = 95.63058 124.53075 110.08066
# Shear Modulus (GPa) = 48.48530 55.71969 52.10250
#
# Velocity S-wave (km/s) = 4.11010 4.40607 4.26065
# Velocity P-wave (km/s) = 7.47280 8.32302 7.90935
#
# Compressibility (1/GPa) = 0.01045691
#
# Stress axis : x y z
#
# Youngs Moduli (GPa) = 188.10080 74.76702 192.75226
#
# Poissons Ratio (x) = 0.17520 0.28921
# Poissons Ratio (y) = 0.44077 0.55271
# Poissons Ratio (z) = 0.28223 0.21439
#
# Static dielectric constant tensor:
#      x y z
#    x 1.631070 0.000000 0.275880 
#    y 0.000000 2.513480 0.000000 
#    z 0.275880 0.000000 2.158490 
# 
# From -- ./inp_files/218748.got.cif
#   From: 2010.05.17/outbox.cif.g08.bks.cpg/sg15_110_cif.got.tgz:218748.got - 2010.06.03 18:47:42.
