data_PCOD9297638
_publ_section_title
;
Structure prediction by ZEFSAII (Michael W. Deem and Ramdas Pophale) SiO2 
 PCOD9297638
Probable space group: C 2/C
;
_chemical_formula_sum "Si O2"
_cell_formula_units_Z 40
_cell_length_a 7.765958
_cell_length_b 23.124114
_cell_length_c 9.842198
_cell_angle_alpha 90.000000
_cell_angle_beta 94.280672
_cell_angle_gamma 90.000000
_cell_volume 1762.540167
_symmetry_space_group_name_H-M "C 2/C"
_symmetry_group_IT_number 15
_symmetry_cell_setting 'monoclinic'
loop_
_space_group_symop_operation_xyz
x,y,z
-x,y,1/2-z
-x,-y,-z
x,-y,1/2+z
1/2+x,1/2+y,z
1/2-x,1/2+y,1/2-z
1/2-x,1/2-y,-z
1/2+x,1/2-y,1/2+z
loop_
_atom_site_type_symbol
_atom_site_label
_atom_site_fract_x
_atom_site_fract_y
_atom_site_fract_z
Si Si1 0.158779 0.302456 0.668014
Si Si2 0.117382 0.122303 0.139611
Si Si3 0.289348 0.932981 0.232449
Si Si4 0.340975 0.669288 0.916613
Si Si5 0.802252 0.480163 0.513548
O O1 0.313277 0.321458 0.775852
O O2 0.191856 0.332897 0.525019
O O3 0.141998 0.235110 0.630631
O O4 0.000000 0.321357 0.750000
O O5 0.264755 0.077810 0.098481
O O6 0.000000 0.092714 0.250000
O O7 0.006773 0.144524 0.005377
O O8 0.500000 0.930790 0.250000
O O9 0.214676 0.869486 0.212616
O O10 0.229219 0.966567 0.361726
O O11 0.227872 0.967259 0.095574
O O12 0.000000 0.500000 0.500000
#
# Coordination Sequence:
#
# PCOD9297638 Si02
#       5
#     8   8   8   8   8
#     4  10  24  41  72  97 141 186 237 292 359 430
#     4  10  24  45  70 103 146 182 238 300 353 422
#     4  10  24  42  70 100 140 180 238 294 349 433
#     4  10  24  45  65 107 138 185 239 299 357 415
#     4  10  24  44  70 101 136 188 236 288 357 426
#
# _framework density 22.694517999999999
#
# number of rings (size 3 to 8) (size 9 to 14) (size 15 to 20)
#    0.000    2.000    0.000    0.000   14.000    6.400 
#    0.000    0.000    0.000    0.000    0.000    0.000 
#    0.000    0.000    0.000    0.000    0.000    0.000 
#
# Total GULP energy -111643.050742 kJ/mol
# GULP energy per Si atom -5582.152537 kJ/mol
# Density = 2.264286 g / cm^3
# Si number density = 22.694518 Si / 1000 Ang^3
#
#
#
# Elastic Constant Matrix: (Units=GPa)
#
#
# Indices 1 2 3 4 5 6 
#
# 1 83.2988 29.1098 36.3624 0.0000 -13.8611 0.0000
# 2 29.1098 95.0662 29.0969 0.0000 10.8514 0.0000
# 3 36.3624 29.0969 104.9611 0.0000 -5.4920 0.0000
# 4 0.0000 0.0000 0.0000 29.5730 0.0000 9.6483
# 5 -13.8611 10.8514 -5.4920 0.0000 27.2069 0.0000
# 6 0.0000 0.0000 0.0000 9.6483 0.0000 19.7255
#
#
#
# Elastic Compliance Matrix: (Units=1/GPa)
#
#
# Indices 1 2 3 4 5 6 
#
# 1 0.017244 -0.005201 -0.004006 0.000000 0.010051 0.000000
# 2 -0.005201 0.013867 -0.002497 0.000000 -0.008685 0.000000
# 3 -0.004006 -0.002497 0.011676 0.000000 0.001312 0.000000
# 4 0.000000 0.000000 0.000000 0.040235 0.000000 -0.019680
# 5 0.010051 -0.008685 0.001312 0.000000 0.045605 0.000000
# 6 0.000000 0.000000 0.000000 -0.019680 0.000000 0.060322
#
#
# Mechanical properties :
#
#
# Convention : Reuss Voigt Hill
#
# Bulk Modulus (GPa) = 51.60284 52.49603 52.04944
# Shear Modulus (GPa) = 22.85014 27.88489 25.36752
#
# Velocity S-wave (km/s) = 3.17654 3.50909 3.34695
# Velocity P-wave (km/s) = 6.02007 6.29286 6.15798
#
# Compressibility (1/GPa) = 0.01937878
#
# Stress axis : x y z
#
# Youngs Moduli (GPa) = 57.99119 72.11282 85.64607
#
# Poissons Ratio (x) = 0.37508 0.34311
# Poissons Ratio (y) = 0.30163 0.21383
# Poissons Ratio (z) = 0.23232 0.18004
#
# Static dielectric constant tensor:
#      x y z
#    x 1.946190 0.000000 -0.050910 
#    y 0.000000 1.792250 0.000000 
#    z -0.050910 0.000000 1.839390 
# 
# From -- ./inp_files/23664.got.cif
#   From: 2010.05.17/outbox.cif.g08.bks.cpg/sg15_12_cif.got.tgz:23664.got - 2010.06.03 18:47:42.
