data_PCOD9297304
_publ_section_title
;
Structure prediction by ZEFSAII (Michael W. Deem and Ramdas Pophale) SiO2 
 PCOD9297304
Probable space group: C 2/C
;
_chemical_formula_sum "Si O2"
_cell_formula_units_Z 36
_cell_length_a 14.546528
_cell_length_b 14.197644
_cell_length_c 12.243370
_cell_angle_alpha 90.000000
_cell_angle_beta 37.555733
_cell_angle_gamma 90.000000
_cell_volume 1541.252250
_symmetry_space_group_name_H-M "C 2/C"
_symmetry_group_IT_number 15
_symmetry_cell_setting 'monoclinic'
loop_
_space_group_symop_operation_xyz
x,y,z
-x,y,1/2-z
-x,-y,-z
x,-y,1/2+z
1/2+x,1/2+y,z
1/2-x,1/2+y,1/2-z
1/2-x,1/2-y,-z
1/2+x,1/2-y,1/2+z
loop_
_atom_site_type_symbol
_atom_site_label
_atom_site_fract_x
_atom_site_fract_y
_atom_site_fract_z
Si Si1 0.738357 0.822814 0.860752
Si Si2 0.831976 0.651477 0.448771
Si Si3 0.341162 0.633469 0.682862
Si Si4 0.847847 0.947209 0.559140
Si Si5 0.000000 0.282532 0.250000
O O1 0.666989 0.737474 0.857168
O O2 0.783836 0.902564 0.732184
O O3 0.885261 0.781834 0.785989
O O4 0.608933 0.844132 0.070612
O O5 0.750000 0.750000 0.500000
O O6 0.802193 0.626397 0.602522
O O7 0.753804 0.574592 0.447135
O O8 0.000000 0.661095 0.250000
O O9 0.351421 0.558124 0.576221
O O10 0.491437 0.604985 0.608069
#
# Coordination Sequence:
#
# PCOD9297304 Si02
#       5
#     8   8   8   8   4
#     4  11  22  45  66  96 130 181 218 281 330 406
#     4  12  26  44  72 102 139 185 230 283 349 409
#     4  11  25  46  72 100 134 180 231 282 342 411
#     4  11  25  46  72 100 134 180 231 282 342 411
#     4  10  24  38  68  94 134 172 220 268 350 388
#
# _framework density 23.357628999999999
#
# number of rings (size 3 to 8) (size 9 to 14) (size 15 to 20)
#    0.000    0.889    4.444    2.000    3.111    4.444 
#    4.000    0.000    0.000    0.000    0.000    0.000 
#    0.000    0.000    0.000    0.000    0.000    0.000 
#
# Total GULP energy -100774.870011 kJ/mol
# GULP energy per Si atom -5598.603890 kJ/mol
# Density = 2.330447 g / cm^3
# Si number density = 23.357629 Si / 1000 Ang^3
#
#
#
# Elastic Constant Matrix: (Units=GPa)
#
#
# Indices 1 2 3 4 5 6 
#
# 1 38.8461 -8.9030 8.4445 0.0000 -8.2659 0.0000
# 2 -8.9030 49.8925 -4.6212 0.0000 -6.2837 0.0000
# 3 8.4445 -4.6212 168.0061 0.0001 -13.3899 0.0000
# 4 0.0000 0.0000 0.0001 0.3514 -0.0001 -11.2993
# 5 -8.2659 -6.2837 -13.3899 -0.0001 36.7829 0.0000
# 6 0.0000 0.0000 0.0000 -11.2993 0.0000 20.1650
#
#
#
# Elastic Compliance Matrix: (Units=1/GPa)
#
#
# Indices 1 2 3 4 5 6 
#
# 1 0.028809 0.005987 -0.000706 0.000000 0.007240 0.000000
# 2 0.005987 0.021852 0.000726 0.000000 0.005343 0.000000
# 3 -0.000706 0.000726 0.006184 0.000000 0.002217 0.000000
# 4 0.000000 0.000000 0.000000 -0.167221 0.000000 -0.093701
# 5 0.007240 0.005343 0.002217 0.000000 0.030533 0.000000
# 6 0.000000 0.000000 0.000000 -0.093701 0.000000 -0.002914
#
#
# Mechanical properties :
#
#
# Convention : Reuss Voigt Hill
#
# Bulk Modulus (GPa) = 14.52264 27.39838 20.96051
# Shear Modulus (GPa) = -69.61992 28.91482 -20.35255
#
# Velocity S-wave (km/s) = -5.46542 3.52222 -2.95506
# Velocity P-wave (km/s) = 5.79627 5.31947 1.62786
#
# Compressibility (1/GPa) = 0.06885802
#
# Stress axis : x y z
#
# Youngs Moduli (GPa) = 34.71164 45.76330 161.70014
#
# Poissons Ratio (x) = -0.27399 0.11422
# Poissons Ratio (y) = -0.20782 -0.11738
# Poissons Ratio (z) = 0.02452 -0.03322
#
# Static dielectric constant tensor:
#      x y z
#    x 1.896520 0.000000 0.000200 
#    y 0.000000 1.830750 0.000000 
#    z 0.000200 0.000000 1.899970 
# 
# From -- ./inp_files/38869.got.cif
#   From: 2010.05.17/outbox.cif.g08.bks.cpg/sg15_20_cif.got.tgz:38869.got - 2010.06.03 18:47:42.
