data_PCOD9297237
_publ_section_title
;
Structure prediction by ZEFSAII (Michael W. Deem and Ramdas Pophale) SiO2 
 PCOD9297237
Probable space group: C 2/C
;
_chemical_formula_sum "Si O2"
_cell_formula_units_Z 48
_cell_length_a 17.554391
_cell_length_b 10.063840
_cell_length_c 15.354208
_cell_angle_alpha 90.000000
_cell_angle_beta 64.366381
_cell_angle_gamma 90.000000
_cell_volume 2445.572942
_symmetry_space_group_name_H-M "C 2/C"
_symmetry_group_IT_number 15
_symmetry_cell_setting 'monoclinic'
loop_
_space_group_symop_operation_xyz
x,y,z
-x,y,1/2-z
-x,-y,-z
x,-y,1/2+z
1/2+x,1/2+y,z
1/2-x,1/2+y,1/2-z
1/2-x,1/2-y,-z
1/2+x,1/2-y,1/2+z
loop_
_atom_site_type_symbol
_atom_site_label
_atom_site_fract_x
_atom_site_fract_y
_atom_site_fract_z
Si Si1 0.085422 0.685305 0.496542
Si Si2 0.596540 0.705683 0.180440
Si Si3 0.154471 0.479617 0.244032
Si Si4 0.741241 0.048992 0.371447
Si Si5 0.517014 0.897094 0.598180
Si Si6 0.300799 0.875432 0.941560
O O1 0.096930 0.772446 0.576080
O O2 0.176128 0.673260 0.405312
O O3 0.054193 0.537442 0.542573
O O4 0.013848 0.708027 0.459446
O O5 0.500000 0.676411 0.250000
O O6 0.663237 0.596902 0.179472
O O7 0.625168 0.844138 0.211828
O O8 0.206120 0.461961 0.308456
O O9 0.210802 0.564081 0.148540
O O10 0.067134 0.557332 0.309788
O O11 0.724784 0.983096 0.473024
O O12 0.598988 0.843147 0.605693
O O13 0.250000 0.750000 0.000000
#
# Coordination Sequence:
#
# PCOD9297237 Si02
#       6
#     8   8   8   8   8   8
#     4   9  17  32  59  84 114 141 192 256 294 334
#     4  12  21  36  64  88 119 156 200 248 296 359
#     4  11  21  38  62  88 115 156 204 252 297 348
#     4  10  24  37  57  92 120 148 200 250 302 353
#     4   9  17  35  56  90 109 146 206 252 285 348
#     4  11  23  38  59  84 126 162 198 243 306 361
#
# _framework density 19.627302
#
# number of rings (size 3 to 8) (size 9 to 14) (size 15 to 20)
#    0.000    1.667    5.000    2.000    2.333    0.000 
#    0.000    1.667    0.000    2.000    0.000    0.000 
#    0.000    0.000    0.000    0.000    0.000    0.000 
#
# Total GULP energy -133628.528566 kJ/mol
# GULP energy per Si atom -5567.855357 kJ/mol
# Density = 1.958263 g / cm^3
# Si number density = 19.627302 Si / 1000 Ang^3
#
#
#
# Elastic Constant Matrix: (Units=GPa)
#
#
# Indices 1 2 3 4 5 6 
#
# 1 72.9660 16.7518 16.1356 0.0000 -11.2454 0.0000
# 2 16.7518 11.7886 4.4392 0.0000 -14.4591 0.0000
# 3 16.1356 4.4392 63.8552 0.0000 -4.7976 0.0000
# 4 0.0000 0.0000 0.0000 16.6297 0.0000 -10.0902
# 5 -11.2454 -14.4591 -4.7976 0.0000 30.7703 0.0000
# 6 0.0000 0.0000 0.0000 -10.0902 0.0000 19.2747
#
#
#
# Elastic Compliance Matrix: (Units=1/GPa)
#
#
# Indices 1 2 3 4 5 6 
#
# 1 0.024323 -0.054244 -0.003665 0.000000 -0.017172 0.000000
# 2 -0.054244 0.324282 0.001136 0.000000 0.132734 0.000000
# 3 -0.003665 0.001136 0.016642 0.000000 0.001789 0.000000
# 4 0.000000 0.000000 0.000000 0.088125 0.000000 0.046133
# 5 -0.017172 0.132734 0.001789 0.000000 0.088874 0.000000
# 6 0.000000 0.000000 0.000000 0.046133 0.000000 0.076032
#
#
# Mechanical properties :
#
#
# Convention : Reuss Voigt Hill
#
# Bulk Modulus (GPa) = 3.97299 24.80699 14.38999
# Shear Modulus (GPa) = 6.12951 20.75382 13.44167
#
# Velocity S-wave (km/s) = 1.76910 3.25529 2.61979
# Velocity P-wave (km/s) = 2.49030 5.17645 4.06185
#
# Compressibility (1/GPa) = 0.25169965
#
# Stress axis : x y z
#
# Youngs Moduli (GPa) = 41.11409 3.08373 60.08869
#
# Poissons Ratio (x) = 0.16727 0.22024
# Poissons Ratio (y) = 2.23020 -0.06824
# Poissons Ratio (z) = 0.15069 -0.00350
#
# Static dielectric constant tensor:
#      x y z
#    x 1.788570 0.000000 0.056630 
#    y 0.000000 1.495400 0.000000 
#    z 0.056630 0.000000 1.748330 
# 
# From -- ./inp_files/151805.got.cif
#   From: 2010.05.17/outbox.cif.g08.bks.cpg/sg15_76_cif.got.tgz:151805.got - 2010.06.03 18:47:42.
