data_PCOD9297331
_publ_section_title
;
Structure prediction by ZEFSAII (Michael W. Deem and Ramdas Pophale) SiO2 
 PCOD9297331
Probable space group: C 2/C
;
_chemical_formula_sum "Si O2"
_cell_formula_units_Z 64
_cell_length_a 19.641452
_cell_length_b 10.575815
_cell_length_c 28.798363
_cell_angle_alpha 90.000000
_cell_angle_beta 28.499609
_cell_angle_gamma 90.000000
_cell_volume 2854.385850
_symmetry_space_group_name_H-M "C 2/C"
_symmetry_group_IT_number 15
_symmetry_cell_setting 'monoclinic'
loop_
_space_group_symop_operation_xyz
x,y,z
-x,y,1/2-z
-x,-y,-z
x,-y,1/2+z
1/2+x,1/2+y,z
1/2-x,1/2+y,1/2-z
1/2-x,1/2-y,-z
1/2+x,1/2-y,1/2+z
loop_
_atom_site_type_symbol
_atom_site_label
_atom_site_fract_x
_atom_site_fract_y
_atom_site_fract_z
Si Si1 0.157814 0.838326 0.177014
Si Si2 0.364527 0.217359 0.470735
Si Si3 0.634739 0.647857 0.325691
Si Si4 0.702320 0.071447 0.357452
Si Si5 0.982185 0.383004 0.447595
Si Si6 0.713088 0.050827 0.179216
Si Si7 0.067100 0.518036 0.619934
Si Si8 0.136573 0.008368 0.502709
O O1 0.276947 0.846078 0.064996
O O2 0.173116 0.694609 0.186815
O O3 0.000000 0.851438 0.250000
O O4 0.195165 0.954585 0.188581
O O5 0.250000 0.250000 0.500000
O O6 0.423795 0.350513 0.451883
O O7 0.463884 0.118847 0.385459
O O8 0.718638 0.658127 0.227341
O O9 0.602361 0.775735 0.372746
O O10 0.718229 0.557084 0.311149
O O11 0.479585 0.588834 0.410480
O O12 0.639473 0.138470 0.441000
O O13 0.566232 0.008271 0.413521
O O14 0.923070 0.393480 0.430808
O O15 0.825075 0.000139 0.074417
O O16 0.571254 0.965200 0.265567
O O17 0.213378 0.509196 0.560380
#
# Coordination Sequence:
#
# PCOD9297331 Si02
#       8
#     8   8   8   8   8   8   8   8
#     4  11  21  37  66  99 132 167 230 290 341 398
#     4   9  19  35  60  99 129 167 213 288 339 387
#     4  12  26  43  68 102 138 185 230 273 348 425
#     4  11  25  44  67  96 136 185 227 286 339 411
#     4  11  25  47  65  96 139 182 230 276 339 414
#     4  11  22  42  63 101 138 177 222 288 350 406
#     4  11  21  41  67  93 133 183 228 278 345 402
#     4  10  24  39  64 101 135 173 227 289 340 398
#
# _framework density 22.421634999999998
#
# number of rings (size 3 to 8) (size 9 to 14) (size 15 to 20)
#    0.000    1.250    3.750    3.000    5.250    1.500 
#    2.250    0.000    0.000    0.000    0.000    0.000 
#    0.000    0.000    0.000    0.000    0.000    0.000 
#
# Total GULP energy -178828.689867 kJ/mol
# GULP energy per Si atom -5588.396558 kJ/mol
# Density = 2.237060 g / cm^3
# Si number density = 22.421635 Si / 1000 Ang^3
#
#
#
# Elastic Constant Matrix: (Units=GPa)
#
#
# Indices 1 2 3 4 5 6 
#
# 1 62.3434 -2.6030 18.0070 -0.0006 4.2579 0.0002
# 2 -2.6030 24.7805 23.5582 0.0001 2.4239 0.0000
# 3 18.0070 23.5582 139.5365 -0.0001 17.8286 0.0001
# 4 -0.0006 0.0001 -0.0001 23.1119 0.0002 -4.3081
# 5 4.2579 2.4239 17.8286 0.0002 30.3505 -0.0001
# 6 0.0002 0.0000 0.0001 -4.3081 -0.0001 23.0320
#
#
#
# Elastic Compliance Matrix: (Units=1/GPa)
#
#
# Indices 1 2 3 4 5 6 
#
# 1 0.017131 0.004616 -0.002850 0.000000 -0.001098 0.000000
# 2 0.004616 0.049342 -0.009017 0.000000 0.000708 0.000000
# 3 -0.002850 -0.009017 0.009637 0.000000 -0.004541 0.000000
# 4 0.000000 0.000000 0.000000 0.044831 0.000000 0.008385
# 5 -0.001098 0.000708 -0.004541 0.000000 0.035713 0.000000
# 6 0.000000 0.000000 0.000000 0.008385 0.000000 0.044986
#
#
# Mechanical properties :
#
#
# Convention : Reuss Voigt Hill
#
# Bulk Modulus (GPa) = 16.23137 33.84276 25.03707
# Shear Modulus (GPa) = 21.12580 27.81209 24.46895
#
# Velocity S-wave (km/s) = 3.07287 3.52577 3.30708
# Velocity P-wave (km/s) = 4.45476 5.63039 5.07672
#
# Compressibility (1/GPa) = 0.06160908
#
# Stress axis : x y z
#
# Youngs Moduli (GPa) = 58.37360 20.26673 103.76824
#
# Poissons Ratio (x) = -0.09355 0.29572
# Poissons Ratio (y) = -0.26946 0.93565
# Poissons Ratio (z) = 0.16635 0.18274
#
# Static dielectric constant tensor:
#      x y z
#    x 1.803180 0.000000 0.037570 
#    y 0.000000 1.892040 0.000000 
#    z 0.037570 0.000000 1.797750 
# 
# From -- ./inp_files/300822.got.cif
#   From: 2010.05.17/outbox.cif.g08.bks.cpg/sg15_151_cif.got.tgz:300822.got - 2010.06.03 18:47:42.
