data_PCOD9297847
_publ_section_title
;
Structure prediction by ZEFSAII (Michael W. Deem and Ramdas Pophale) SiO2 
 PCOD9297847
Probable space group: C 2/C
;
_chemical_formula_sum "Si O2"
_cell_formula_units_Z 28
_cell_length_a 23.176943
_cell_length_b 5.145393
_cell_length_c 13.840538
_cell_angle_alpha 90.000000
_cell_angle_beta 137.613976
_cell_angle_gamma 90.000000
_cell_volume 1112.669876
_symmetry_space_group_name_H-M "C 2/C"
_symmetry_group_IT_number 15
_symmetry_cell_setting 'monoclinic'
loop_
_space_group_symop_operation_xyz
x,y,z
-x,y,1/2-z
-x,-y,-z
x,-y,1/2+z
1/2+x,1/2+y,z
1/2-x,1/2+y,1/2-z
1/2-x,1/2-y,-z
1/2+x,1/2-y,1/2+z
loop_
_atom_site_type_symbol
_atom_site_label
_atom_site_fract_x
_atom_site_fract_y
_atom_site_fract_z
Si Si1 0.268008 0.046868 0.647763
Si Si2 0.318702 0.959488 0.485877
Si Si3 0.500000 0.066807 0.750000
Si Si4 0.545282 0.750908 0.100938
O O1 0.285304 0.999278 0.554221
O O2 0.192910 0.253996 0.571849
O O3 0.354299 0.187197 0.790247
O O4 0.237183 0.758268 0.636449
O O5 0.418714 0.896697 0.616474
O O6 0.469554 0.238965 0.802296
O O7 0.500000 0.500000 0.000000
O O8 0.500000 0.000000 0.000000
#
# Coordination Sequence:
#
# PCOD9297847 Si02
#       4
#     8   8   4   8
#     4   9  18  35  58  88 126 164 206 262 325 384
#     4   9  18  34  60  89 122 166 209 259 324 387
#     4  10  24  42  68  98 132 176 228 276 334 404
#     4  11  24  42  66  97 134 176 222 276 335 399
#
# _framework density 25.164695999999999
#
# number of rings (size 3 to 8) (size 9 to 14) (size 15 to 20)
#    0.000    2.286    0.000    1.714    0.000   11.429 
#    0.000    5.714    0.000    0.000    0.000    0.000 
#    0.000    0.000    0.000    0.000    0.000    0.000 
#
# Total GULP energy -78275.883628 kJ/mol
# GULP energy per Si atom -5591.134545 kJ/mol
# Density = 2.510742 g / cm^3
# Si number density = 25.164696 Si / 1000 Ang^3
#
#
#
# Elastic Constant Matrix: (Units=GPa)
#
#
# Indices 1 2 3 4 5 6 
#
# 1 114.9433 12.3673 30.6765 0.0000 -10.4062 0.0000
# 2 12.3673 186.4330 74.7670 -0.0002 15.0062 0.0000
# 3 30.6765 74.7670 146.9010 -0.0002 13.7326 -0.0001
# 4 0.0000 -0.0002 -0.0002 53.9077 0.0000 -2.0410
# 5 -10.4062 15.0062 13.7326 0.0000 45.5896 -0.0002
# 6 0.0000 0.0000 -0.0001 -2.0410 -0.0002 0.5831
#
#
#
# Elastic Compliance Matrix: (Units=1/GPa)
#
#
# Indices 1 2 3 4 5 6 
#
# 1 0.009564 0.000055 -0.002292 0.000000 0.002855 0.000001
# 2 0.000055 0.006806 -0.003362 0.000000 -0.001215 0.000000
# 3 -0.002292 -0.003362 0.009202 0.000000 -0.002188 0.000000
# 4 0.000000 0.000000 0.000000 0.021384 0.000000 0.074856
# 5 0.002855 -0.001215 -0.002188 0.000000 0.023646 0.000009
# 6 0.000001 0.000000 0.000000 0.074856 0.000009 1.977094
#
#
# Mechanical properties :
#
#
# Convention : Reuss Voigt Hill
#
# Bulk Modulus (GPa) = 69.57112 75.98877 72.77994
# Shear Modulus (GPa) = 2.42285 42.04717 22.23501
#
# Velocity S-wave (km/s) = 0.98229 4.09207 2.97573
# Velocity P-wave (km/s) = 5.38450 7.25182 6.38677
#
# Compressibility (1/GPa) = 0.01437378
#
# Stress axis : x y z
#
# Youngs Moduli (GPa) = 104.55567 146.92204 108.67577
#
# Poissons Ratio (x) = -0.00807 0.24910
# Poissons Ratio (y) = -0.00574 0.36537
# Poissons Ratio (z) = 0.23966 0.49396
#
# Static dielectric constant tensor:
#      x y z
#    x 2.037400 0.000000 -0.045910 
#    y 0.000000 1.899970 0.000000 
#    z -0.045910 0.000000 2.030060 
# 
# From -- ./inp_files/221079.got.cif
#   From: 2010.05.17/outbox.cif.g08.bks.cpg/sg15_111_cif.got.tgz:221079.got - 2010.06.03 18:47:42.
