data_PCOD9297696
_publ_section_title
;
Structure prediction by ZEFSAII (Michael W. Deem and Ramdas Pophale) SiO2 
 PCOD9297696
Probable space group: C 2/C
;
_chemical_formula_sum "Si O2"
_cell_formula_units_Z 24
_cell_length_a 5.046445
_cell_length_b 18.198974
_cell_length_c 9.796029
_cell_angle_alpha 90.000000
_cell_angle_beta 89.979402
_cell_angle_gamma 90.000000
_cell_volume 899.668434
_symmetry_space_group_name_H-M "C 2/C"
_symmetry_group_IT_number 15
_symmetry_cell_setting 'monoclinic'
loop_
_space_group_symop_operation_xyz
x,y,z
-x,y,1/2-z
-x,-y,-z
x,-y,1/2+z
1/2+x,1/2+y,z
1/2-x,1/2+y,1/2-z
1/2-x,1/2-y,-z
1/2+x,1/2-y,1/2+z
loop_
_atom_site_type_symbol
_atom_site_label
_atom_site_fract_x
_atom_site_fract_y
_atom_site_fract_z
Si Si1 0.687261 0.381566 0.630725
Si Si2 0.500000 0.239984 0.750000
Si Si3 0.821881 0.874942 0.369940
Si Si4 0.500000 0.990281 0.750000
O O1 0.500000 0.416959 0.750000
O O2 0.705501 0.298251 0.683213
O O3 0.513439 0.385812 0.496292
O O4 0.957536 0.428320 0.629335
O O5 0.406742 0.186614 0.626945
O O6 0.707831 0.950364 0.309030
O O7 0.000000 0.842520 0.250000
#
# Coordination Sequence:
#
# PCOD9297696 Si02
#       4
#     8   4   8   4
#     4  10  24  42  64  93 124 164 208 252 308 366
#     4   9  24  42  66  89 126 164 208 251 308 366
#     4  11  24  42  65  93 125 163 207 255 308 366
#     4  11  24  42  66  93 126 164 206 257 308 366
#
# _framework density 26.676496
#
# number of rings (size 3 to 8) (size 9 to 14) (size 15 to 20)
#    1.000    0.667    0.000    3.000    2.333    9.333 
#    0.000    0.000    0.000    0.000    0.000    0.000 
#    0.000    0.000    0.000    0.000    0.000    0.000 
#
# Total GULP energy -66846.380775 kJ/mol
# GULP energy per Si atom -5570.531731 kJ/mol
# Density = 2.661578 g / cm^3
# Si number density = 26.676496 Si / 1000 Ang^3
#
#
#
# Elastic Constant Matrix: (Units=GPa)
#
#
# Indices 1 2 3 4 5 6 
#
# 1 65.4735 54.9281 58.1153 0.0000 37.1397 0.0000
# 2 54.9281 247.6000 56.6563 0.0000 52.7854 0.0000
# 3 58.1153 56.6563 194.1694 0.0000 61.5304 0.0000
# 4 0.0000 0.0000 0.0000 57.9081 0.0000 -5.3740
# 5 37.1397 52.7854 61.5304 0.0000 58.2348 0.0000
# 6 0.0000 0.0000 0.0000 -5.3740 0.0000 -27.9251
#
#
#
# Elastic Compliance Matrix: (Units=1/GPa)
#
#
# Indices 1 2 3 4 5 6 
#
# 1 0.027179 -0.002876 -0.003952 0.000000 -0.010551 0.000000
# 2 -0.002876 0.005311 0.000384 0.000000 -0.003385 0.000000
# 3 -0.003952 0.000384 0.008317 0.000000 -0.006616 0.000000
# 4 0.000000 0.000000 0.000000 0.016966 0.000000 -0.003265
# 5 -0.010551 -0.003385 -0.006616 0.000000 0.033960 0.000000
# 6 0.000000 0.000000 0.000000 -0.003265 0.000000 -0.035182
#
#
# Mechanical properties :
#
#
# Convention : Reuss Voigt Hill
#
# Bulk Modulus (GPa) = 35.81747 94.07137 64.94442
# Shear Modulus (GPa) = 63.49638 40.14645 51.82142
#
# Velocity S-wave (km/s) = 4.88406 3.88356 4.41226
# Velocity P-wave (km/s) = 6.72764 7.44646 7.09616
#
# Compressibility (1/GPa) = 0.02791934
#
# Stress axis : x y z
#
# Youngs Moduli (GPa) = 36.79306 188.30344 120.22983
#
# Poissons Ratio (x) = 0.54151 0.47515
# Poissons Ratio (y) = 0.10581 -0.04616
# Poissons Ratio (z) = 0.14541 -0.07229
#
# Static dielectric constant tensor:
#      x y z
#    x 2.515420 0.000000 -0.037770 
#    y 0.000000 2.012380 0.000000 
#    z -0.037770 0.000000 2.086650 
# 
# From -- ./inp_files/71394.got.cif
#   From: 2010.05.17/outbox.cif.g08.bks.cpg/sg15_36_cif.got.tgz:71394.got - 2010.06.03 18:47:42.
