data_PCOD9297459
_publ_section_title
;
Structure prediction by ZEFSAII (Michael W. Deem and Ramdas Pophale) SiO2 
 PCOD9297459
Probable space group: C 2/C
;
_chemical_formula_sum "Si O2"
_cell_formula_units_Z 44
_cell_length_a 21.469584
_cell_length_b 10.181096
_cell_length_c 8.694773
_cell_angle_alpha 90.000000
_cell_angle_beta 114.796266
_cell_angle_gamma 90.000000
_cell_volume 1725.316958
_symmetry_space_group_name_H-M "C 2/C"
_symmetry_group_IT_number 15
_symmetry_cell_setting 'monoclinic'
loop_
_space_group_symop_operation_xyz
x,y,z
-x,y,1/2-z
-x,-y,-z
x,-y,1/2+z
1/2+x,1/2+y,z
1/2-x,1/2+y,1/2-z
1/2-x,1/2-y,-z
1/2+x,1/2-y,1/2+z
loop_
_atom_site_type_symbol
_atom_site_label
_atom_site_fract_x
_atom_site_fract_y
_atom_site_fract_z
Si Si1 0.500000 0.499865 0.750000
Si Si2 0.271381 0.552318 0.633838
Si Si3 0.796743 0.819583 0.827410
Si Si4 0.089939 0.873638 0.091208
Si Si5 0.917153 0.385303 0.012136
Si Si6 0.080368 0.339394 0.137329
O O1 0.442089 0.411489 0.607009
O O2 0.467269 0.591469 0.844385
O O3 0.230165 0.669590 0.673554
O O4 0.254637 0.399102 0.650557
O O5 0.281806 0.600263 0.470140
O O6 0.344514 0.545427 0.794693
O O7 0.878029 0.785330 0.881937
O O8 0.116216 0.724548 0.128223
O O9 0.895845 0.367416 0.165023
O O10 0.997453 0.342045 0.069172
O O11 0.906782 0.533355 0.953342
#
# Coordination Sequence:
#
# PCOD9297459 Si02
#       6
#     4   8   8   8   8   8
#     4  10  24  40  68 106 148 180 234 300 366 428
#     4  11  28  48  74 107 142 194 243 299 361 431
#     4  11  28  50  74 104 147 188 250 297 363 432
#     4  11  24  42  69 106 140 188 234 296 362 433
#     4  10  24  41  69 102 140 187 235 292 363 422
#     4  10  24  45  68 102 143 185 238 295 356 431
#
# _framework density 25.502562000000001
#
# number of rings (size 3 to 8) (size 9 to 14) (size 15 to 20)
#    0.000    1.455    0.000    2.182   17.818    3.636 
#    0.000    0.000    0.000    0.000    0.000    0.000 
#    0.000    0.000    0.000    0.000    0.000    0.000 
#
# Total GULP energy -123000.956308 kJ/mol
# GULP energy per Si atom -5590.952559 kJ/mol
# Density = 2.544452 g / cm^3
# Si number density = 25.502562 Si / 1000 Ang^3
#
#
#
# Elastic Constant Matrix: (Units=GPa)
#
#
# Indices 1 2 3 4 5 6 
#
# 1 81.6227 31.5721 34.8932 0.0000 -0.5035 0.0000
# 2 31.5721 141.1020 38.5849 0.0000 -14.6120 0.0000
# 3 34.8932 38.5849 76.8013 0.0000 -12.8899 0.0000
# 4 0.0000 0.0000 0.0000 27.7896 0.0000 12.4520
# 5 -0.5035 -14.6120 -12.8899 0.0000 34.5554 0.0000
# 6 0.0000 0.0000 0.0000 12.4520 0.0000 26.3839
#
#
#
# Elastic Compliance Matrix: (Units=1/GPa)
#
#
# Indices 1 2 3 4 5 6 
#
# 1 0.015897 -0.002044 -0.006723 0.000000 -0.003140 0.000000
# 2 -0.002044 0.008619 -0.002982 0.000000 0.002503 0.000000
# 3 -0.006723 -0.002982 0.018503 0.000000 0.005543 0.000000
# 4 0.000000 0.000000 0.000000 0.045635 0.000000 -0.021538
# 5 -0.003140 0.002503 0.005543 0.000000 0.032019 0.000000
# 6 0.000000 0.000000 0.000000 -0.021538 0.000000 0.048067
#
#
# Mechanical properties :
#
#
# Convention : Reuss Voigt Hill
#
# Bulk Modulus (GPa) = 51.22212 56.62517 53.92365
# Shear Modulus (GPa) = 25.15808 30.71083 27.93445
#
# Velocity S-wave (km/s) = 3.14425 3.47396 3.31321
# Velocity P-wave (km/s) = 5.77152 6.19218 5.98555
#
# Compressibility (1/GPa) = 0.01952282
#
# Stress axis : x y z
#
# Youngs Moduli (GPa) = 62.90690 116.02481 54.04493
#
# Poissons Ratio (x) = 0.23713 0.36332
# Poissons Ratio (y) = 0.12857 0.16114
# Poissons Ratio (z) = 0.42289 0.34593
#
# Static dielectric constant tensor:
#      x y z
#    x 2.177700 0.000000 0.046880 
#    y 0.000000 2.249360 0.000000 
#    z 0.046880 0.000000 1.968110 
# 
# From -- ./inp_files/54467.got.cif
#   From: 2010.05.17/outbox.cif.g08.bks.cpg/sg15_28_cif.got.tgz:54467.got - 2010.06.03 18:47:42.
