data_PCOD9297214
_publ_section_title
;
Structure prediction by ZEFSAII (Michael W. Deem and Ramdas Pophale) SiO2 
 PCOD9297214
Probable space group: C 2/C
;
_chemical_formula_sum "Si O2"
_cell_formula_units_Z 36
_cell_length_a 12.542518
_cell_length_b 6.740005
_cell_length_c 21.953503
_cell_angle_alpha 90.000000
_cell_angle_beta 60.377431
_cell_angle_gamma 90.000000
_cell_volume 1613.312904
_symmetry_space_group_name_H-M "C 2/C"
_symmetry_group_IT_number 15
_symmetry_cell_setting 'monoclinic'
loop_
_space_group_symop_operation_xyz
x,y,z
-x,y,1/2-z
-x,-y,-z
x,-y,1/2+z
1/2+x,1/2+y,z
1/2-x,1/2+y,1/2-z
1/2-x,1/2-y,-z
1/2+x,1/2-y,1/2+z
loop_
_atom_site_type_symbol
_atom_site_label
_atom_site_fract_x
_atom_site_fract_y
_atom_site_fract_z
Si Si1 0.435808 0.762863 0.639281
Si Si2 0.219243 0.412654 0.124655
Si Si3 0.500000 0.146218 0.250000
Si Si4 0.578316 0.878912 0.051593
Si Si5 0.602952 0.717563 0.490422
O O1 0.308928 0.703953 0.644132
O O2 0.448477 0.731012 0.707228
O O3 0.544775 0.653055 0.571330
O O4 0.468998 0.993357 0.615195
O O5 0.109788 0.511140 0.193430
O O6 0.162032 0.300073 0.082268
O O7 0.295760 0.589153 0.070626
O O8 0.514040 0.737112 0.021665
O O9 0.642768 0.055731 0.994392
#
# Coordination Sequence:
#
# PCOD9297214 Si02
#       5
#     8   8   4   8   8
#     4   9  20  38  56  81 108 145 187 221 270 325
#     4  11  20  37  59  78 111 147 181 229 271 324
#     4  10  24  36  50  80 116 150 180 220 276 324
#     4   8  19  35  56  88 107 133 174 230 280 314
#     4   9  18  38  59  86 109 135 183 234 274 319
#
# _framework density 22.314332
#
# number of rings (size 3 to 8) (size 9 to 14) (size 15 to 20)
#    1.333    1.333    0.000    1.333    0.000    4.444 
#    0.000    2.222    0.000    1.333    0.000    0.000 
#    0.000    0.000    0.000    0.000    0.000    0.000 
#
# Total GULP energy -100370.446786 kJ/mol
# GULP energy per Si atom -5576.135933 kJ/mol
# Density = 2.226354 g / cm^3
# Si number density = 22.314332 Si / 1000 Ang^3
#
#
#
# Elastic Constant Matrix: (Units=GPa)
#
#
# Indices 1 2 3 4 5 6 
#
# 1 176.2315 36.5074 82.7710 0.0000 31.0465 0.0000
# 2 36.5074 33.5767 28.1289 0.0000 3.5206 0.0000
# 3 82.7710 28.1289 150.9731 0.0000 21.1957 0.0000
# 4 0.0000 0.0000 0.0000 12.9425 0.0000 -0.0082
# 5 31.0465 3.5206 21.1957 0.0000 52.3547 0.0000
# 6 0.0000 0.0000 0.0000 -0.0082 0.0000 33.4936
#
#
#
# Elastic Compliance Matrix: (Units=1/GPa)
#
#
# Indices 1 2 3 4 5 6 
#
# 1 0.009323 -0.006994 -0.003285 0.000000 -0.003728 0.000000
# 2 -0.006994 0.040542 -0.004155 0.000000 0.003103 0.000000
# 3 -0.003285 -0.004155 0.009421 0.000000 -0.001587 0.000000
# 4 0.000000 0.000000 0.000000 0.077265 0.000000 0.000019
# 5 -0.003728 0.003103 -0.001587 0.000000 0.021745 0.000000
# 6 0.000000 0.000000 0.000000 0.000019 0.000000 0.029856
#
#
# Mechanical properties :
#
#
# Convention : Reuss Voigt Hill
#
# Bulk Modulus (GPa) = 32.87370 72.84399 52.85884
# Shear Modulus (GPa) = 22.01093 33.98310 27.99702
#
# Velocity S-wave (km/s) = 3.14411 3.90670 3.54597
# Velocity P-wave (km/s) = 5.28627 7.28458 6.36435
#
# Compressibility (1/GPa) = 0.03041946
#
# Stress axis : x y z
#
# Youngs Moduli (GPa) = 107.26539 24.66563 106.14033
#
# Poissons Ratio (x) = 0.17250 0.34864
# Poissons Ratio (y) = 0.75019 0.44102
# Poissons Ratio (z) = 0.35233 0.10249
#
# Static dielectric constant tensor:
#      x y z
#    x 1.877510 0.000000 0.004920 
#    y 0.000000 1.894460 0.000000 
#    z 0.004920 0.000000 1.824080 
# 
# From -- ./inp_files/235668.got.cif
#   From: 2010.05.17/outbox.cif.g08.bks.cpg/sg15_118_cif.got.tgz:235668.got - 2010.06.03 18:47:42.
