data_PCOD9297651
_publ_section_title
;
Structure prediction by ZEFSAII (Michael W. Deem and Ramdas Pophale) SiO2 
 PCOD9297651
Probable space group: C 2/C
;
_chemical_formula_sum "Si O2"
_cell_formula_units_Z 56
_cell_length_a 20.212999
_cell_length_b 21.091759
_cell_length_c 8.346152
_cell_angle_alpha 90.000000
_cell_angle_beta 47.491547
_cell_angle_gamma 90.000000
_cell_volume 2623.022455
_symmetry_space_group_name_H-M "C 2/C"
_symmetry_group_IT_number 15
_symmetry_cell_setting 'monoclinic'
loop_
_space_group_symop_operation_xyz
x,y,z
-x,y,1/2-z
-x,-y,-z
x,-y,1/2+z
1/2+x,1/2+y,z
1/2-x,1/2+y,1/2-z
1/2-x,1/2-y,-z
1/2+x,1/2-y,1/2+z
loop_
_atom_site_type_symbol
_atom_site_label
_atom_site_fract_x
_atom_site_fract_y
_atom_site_fract_z
Si Si1 0.000000 0.473986 0.250000
Si Si2 0.899601 0.822943 0.156179
Si Si3 0.221863 0.123601 0.360459
Si Si4 0.572795 0.408733 0.862622
Si Si5 0.120045 0.564521 0.271748
Si Si6 0.098617 0.695640 0.144507
Si Si7 0.238865 0.242136 0.829981
Si Si8 0.500000 0.503731 0.250000
O O1 0.922667 0.515957 0.287284
O O2 0.952676 0.434390 0.466819
O O3 0.842915 0.863270 0.380683
O O4 0.912433 0.755431 0.221195
O O5 0.839310 0.805941 0.100062
O O6 0.995043 0.855967 0.971781
O O7 0.162613 0.115680 0.296939
O O8 0.283284 0.062227 0.297906
O O9 0.274342 0.189248 0.233557
O O10 0.576179 0.449569 0.695347
O O11 0.536794 0.458400 0.053635
O O12 0.133095 0.631255 0.164159
O O13 0.000000 0.679394 0.250000
O O14 0.167980 0.716547 0.895256
O O15 0.250000 0.250000 0.000000
#
# Coordination Sequence:
#
# PCOD9297651 Si02
#       8
#     4   8   8   8   8   8   8   4
#     4  10  26  44  64  94 132 178 240 290 352 404
#     4  11  20  42  66  95 135 171 211 274 352 414
#     4  11  21  42  67  95 128 175 221 275 347 418
#     4  11  23  42  66  95 133 178 226 276 339 411
#     4  11  22  45  65  92 131 176 230 292 340 419
#     4  11  21  41  69  92 130 178 218 272 357 413
#     4  11  24  39  63 106 137 164 223 285 349 427
#     4  10  24  42  60  90 130 180 228 274 318 404
#
# _framework density 21.349415
#
# number of rings (size 3 to 8) (size 9 to 14) (size 15 to 20)
#    0.000    1.143    5.000    2.571    2.000    2.286 
#    0.000    0.000    0.000    0.000    0.000    0.000 
#    0.000    0.000    0.000    0.000    0.000    0.000 
#
# Total GULP energy -156243.357672 kJ/mol
# GULP energy per Si atom -5580.119917 kJ/mol
# Density = 2.130082 g / cm^3
# Si number density = 21.349415 Si / 1000 Ang^3
#
#
#
# Elastic Constant Matrix: (Units=GPa)
#
#
# Indices 1 2 3 4 5 6 
#
# 1 132.7139 11.7316 12.4187 0.0000 -5.1246 0.0000
# 2 11.7316 42.7003 15.3456 0.0000 -2.7373 0.0000
# 3 12.4187 15.3456 39.2268 0.0000 13.4884 0.0000
# 4 0.0000 0.0000 0.0000 -11.6362 0.0000 -12.6583
# 5 -5.1246 -2.7373 13.4884 0.0000 33.5609 0.0000
# 6 0.0000 0.0000 0.0000 -12.6583 0.0000 38.1836
#
#
#
# Elastic Compliance Matrix: (Units=1/GPa)
#
#
# Indices 1 2 3 4 5 6 
#
# 1 0.007987 -0.000989 -0.002939 0.000000 0.002320 0.000000
# 2 -0.000989 0.029128 -0.013746 0.000000 0.007749 0.000000
# 3 -0.002939 -0.013746 0.037527 0.000000 -0.016652 0.000000
# 4 0.000000 0.000000 0.000000 -0.063161 0.000000 -0.020939
# 5 0.002320 0.007749 -0.016652 0.000000 0.037476 0.000000
# 6 0.000000 0.000000 0.000000 -0.020939 0.000000 0.019248
#
#
# Mechanical properties :
#
#
# Convention : Reuss Voigt Hill
#
# Bulk Modulus (GPa) = 25.45064 32.62585 29.03825
# Shear Modulus (GPa) = 42.86271 23.69799 33.28035
#
# Velocity S-wave (km/s) = 4.48557 3.33529 3.95250
# Velocity P-wave (km/s) = 6.22688 5.49065 5.87032
#
# Compressibility (1/GPa) = 0.03929174
#
# Stress axis : x y z
#
# Youngs Moduli (GPa) = 125.20169 34.33160 26.64757
#
# Poissons Ratio (x) = 0.03396 0.07833
# Poissons Ratio (y) = 0.12386 0.36630
# Poissons Ratio (z) = 0.36802 0.47193
#
# Static dielectric constant tensor:
#      x y z
#    x 1.757410 0.000000 0.013160 
#    y 0.000000 1.818810 0.000000 
#    z 0.013160 0.000000 1.736250 
# 
# From -- ./inp_files/57816.got.cif
#   From: 2010.05.17/outbox.cif.g08.bks.cpg/sg15_29_cif.got.tgz:57816.got - 2010.06.03 18:47:42.
