data_PCOD9297406
_publ_section_title
;
Structure prediction by ZEFSAII (Michael W. Deem and Ramdas Pophale) SiO2 
 PCOD9297406
Probable space group: C 2/C
;
_chemical_formula_sum "Si O2"
_cell_formula_units_Z 56
_cell_length_a 9.943135
_cell_length_b 9.063462
_cell_length_c 28.483668
_cell_angle_alpha 90.000000
_cell_angle_beta 109.084034
_cell_angle_gamma 90.000000
_cell_volume 2425.848009
_symmetry_space_group_name_H-M "C 2/C"
_symmetry_group_IT_number 15
_symmetry_cell_setting 'monoclinic'
loop_
_space_group_symop_operation_xyz
x,y,z
-x,y,1/2-z
-x,-y,-z
x,-y,1/2+z
1/2+x,1/2+y,z
1/2-x,1/2+y,1/2-z
1/2-x,1/2-y,-z
1/2+x,1/2-y,1/2+z
loop_
_atom_site_type_symbol
_atom_site_label
_atom_site_fract_x
_atom_site_fract_y
_atom_site_fract_z
Si Si1 0.891467 0.925507 0.951472
Si Si2 0.608486 0.073450 0.548866
Si Si3 0.103856 0.571997 0.893695
Si Si4 0.135319 0.528324 0.291870
Si Si5 0.634746 0.525498 0.291322
Si Si6 0.103602 0.924530 0.894117
Si Si7 0.250802 0.745708 0.750523
O O1 0.881263 0.749429 0.957896
O O2 0.962887 0.951639 0.908540
O O3 0.737930 0.001032 0.935802
O O4 0.000000 0.000000 0.000000
O O5 0.538751 0.049187 0.592452
O O6 0.500000 0.000000 0.500000
O O7 0.761316 0.996434 0.564413
O O8 0.105474 0.500003 0.842507
O O9 0.123478 0.748267 0.891784
O O10 0.157789 0.374298 0.267889
O O11 0.268046 0.635869 0.294520
O O12 0.000000 0.598738 0.250000
O O13 0.500000 0.599207 0.250000
O O14 0.604110 0.508696 0.342180
O O15 0.655974 0.372993 0.267108
O O16 0.767409 0.633495 0.294455
#
# Coordination Sequence:
#
# PCOD9297406 Si02
#       7
#     8   8   8   8   8   8   8
#     4  11  26  48  72 100 133 172 222 281 340 400
#     4  11  26  48  72 100 133 172 222 281 340 400
#     4  11  26  43  70 100 136 178 223 273 337 397
#     4  11  24  41  64  95 136 177 222 271 321 390
#     4  11  24  41  64  95 136 177 222 271 321 390
#     4  11  26  43  70 100 136 178 223 273 337 397
#     4  10  24  40  64  90 136 176 226 266 328 376
#
# _framework density 23.084710000000001
#
# number of rings (size 3 to 8) (size 9 to 14) (size 15 to 20)
#    0.000    1.143    1.429    2.571   10.000    5.714 
#    0.000    0.000    0.000    0.000    0.000    0.000 
#    0.000    0.000    0.000    0.000    0.000    0.000 
#
# Total GULP energy -156243.185996 kJ/mol
# GULP energy per Si atom -5580.113786 kJ/mol
# Density = 2.303217 g / cm^3
# Si number density = 23.084710 Si / 1000 Ang^3
#
#
#
# Elastic Constant Matrix: (Units=GPa)
#
#
# Indices 1 2 3 4 5 6 
#
# 1 55.0441 23.4192 -1.2782 0.0000 -8.1447 0.0000
# 2 23.4192 87.8516 2.4427 0.0000 -12.5809 0.0000
# 3 -1.2782 2.4427 75.5159 0.0000 -10.1639 0.0000
# 4 0.0000 0.0000 0.0000 23.7342 0.0000 -6.9721
# 5 -8.1447 -12.5809 -10.1639 0.0000 40.6525 0.0000
# 6 0.0000 0.0000 0.0000 -6.9721 0.0000 31.6659
#
#
#
# Elastic Compliance Matrix: (Units=1/GPa)
#
#
# Indices 1 2 3 4 5 6 
#
# 1 0.020801 -0.005170 0.000895 0.000000 0.002791 0.000000
# 2 -0.005170 0.013197 -0.000108 0.000000 0.003021 0.000000
# 3 0.000895 -0.000108 0.013743 0.000000 0.003582 0.000000
# 4 0.000000 0.000000 0.000000 0.045047 0.000000 0.009918
# 5 0.002791 0.003021 0.003582 0.000000 0.026989 0.000000
# 6 0.000000 0.000000 0.000000 0.009918 0.000000 0.033763
#
#
# Mechanical properties :
#
#
# Convention : Reuss Voigt Hill
#
# Bulk Modulus (GPa) = 25.65771 29.73099 27.69435
# Shear Modulus (GPa) = 28.52308 32.13238 30.32773
#
# Velocity S-wave (km/s) = 3.51890 3.73491 3.62851
# Velocity P-wave (km/s) = 5.25822 5.61306 5.43854
#
# Compressibility (1/GPa) = 0.03897464
#
# Stress axis : x y z
#
# Youngs Moduli (GPa) = 48.07523 75.77628 72.76436
#
# Poissons Ratio (x) = 0.39178 -0.06512
# Poissons Ratio (y) = 0.24856 0.00784
# Poissons Ratio (z) = -0.04303 0.00816
#
# Static dielectric constant tensor:
#      x y z
#    x 2.019340 0.000000 0.020270 
#    y 0.000000 1.828220 0.000000 
#    z 0.020270 0.000000 1.869640 
# 
# From -- ./inp_files/291639.got.cif
#   From: 2010.05.17/outbox.cif.g08.bks.cpg/sg15_146_cif.got.tgz:291639.got - 2010.06.03 18:47:42.
