data_PCOD9297039
_publ_section_title
;
Structure prediction by ZEFSAII (Michael W. Deem and Ramdas Pophale) SiO2 
 PCOD9297039
Probable space group: C 2/C
;
_chemical_formula_sum "Si O2"
_cell_formula_units_Z 40
_cell_length_a 8.371985
_cell_length_b 28.219302
_cell_length_c 15.061657
_cell_angle_alpha 90.000000
_cell_angle_beta 147.164735
_cell_angle_gamma 90.000000
_cell_volume 1929.422659
_symmetry_space_group_name_H-M "C 2/C"
_symmetry_group_IT_number 15
_symmetry_cell_setting 'monoclinic'
loop_
_space_group_symop_operation_xyz
x,y,z
-x,y,1/2-z
-x,-y,-z
x,-y,1/2+z
1/2+x,1/2+y,z
1/2-x,1/2+y,1/2-z
1/2-x,1/2-y,-z
1/2+x,1/2-y,1/2+z
loop_
_atom_site_type_symbol
_atom_site_label
_atom_site_fract_x
_atom_site_fract_y
_atom_site_fract_z
Si Si1 0.197095 0.628701 0.254732
Si Si2 0.169912 0.273776 0.630409
Si Si3 0.776881 0.807098 0.219181
Si Si4 0.387465 0.110267 0.607056
Si Si5 0.350217 0.949611 0.914550
O O1 0.170170 0.676156 0.182770
O O2 0.540488 0.622892 0.443234
O O3 0.096586 0.583694 0.147069
O O4 0.000000 0.632371 0.250000
O O5 0.500000 0.264909 0.750000
O O6 0.070996 0.230519 0.645766
O O7 0.961728 0.278351 0.448939
O O8 0.599776 0.844778 0.193821
O O9 0.000000 0.827975 0.250000
O O10 0.500000 0.086107 0.750000
O O11 0.433452 0.080350 0.539954
O O12 0.000000 0.957026 0.750000
O O13 0.500000 0.000000 0.000000
#
# Coordination Sequence:
#
# PCOD9297039 Si02
#       5
#     8   8   8   8   8
#     4  11  24  44  68  96 137 176 217 274 330 387
#     4  12  23  44  63  93 139 178 222 275 323 384
#     4  12  26  40  65  96 136 179 226 269 325 388
#     4  11  25  43  66 100 136 172 221 272 326 394
#     4  10  23  47  71  97 132 171 215 276 334 391
#
# _framework density 20.731591000000002
#
# number of rings (size 3 to 8) (size 9 to 14) (size 15 to 20)
#    0.000    0.800    4.000    3.000    5.600    3.200 
#    0.000    4.000    0.000    0.000    0.000    0.000 
#    0.000    0.000    0.000    0.000    0.000    0.000 
#
# Total GULP energy -111853.231527 kJ/mol
# GULP energy per Si atom -5592.661576 kJ/mol
# Density = 2.068440 g / cm^3
# Si number density = 20.731591 Si / 1000 Ang^3
#
#
#
# Elastic Constant Matrix: (Units=GPa)
#
#
# Indices 1 2 3 4 5 6 
#
# 1 105.8468 20.3965 4.8639 0.0000 -1.4967 0.0000
# 2 20.3965 89.4886 11.0467 0.0000 -1.1040 0.0000
# 3 4.8639 11.0467 75.9958 0.0000 -19.2583 0.0000
# 4 0.0000 0.0000 0.0000 39.2257 0.0000 2.1874
# 5 -1.4967 -1.1040 -19.2583 0.0000 30.2947 0.0000
# 6 0.0000 0.0000 0.0000 2.1874 0.0000 11.4934
#
#
#
# Elastic Compliance Matrix: (Units=1/GPa)
#
#
# Indices 1 2 3 4 5 6 
#
# 1 0.009890 -0.002221 -0.000247 0.000000 0.000251 0.000000
# 2 -0.002221 0.011892 -0.001793 0.000000 -0.000816 0.000000
# 3 -0.000247 -0.001793 0.015992 0.000000 0.010088 0.000000
# 4 0.000000 0.000000 0.000000 0.025767 0.000000 -0.004904
# 5 0.000251 -0.000816 0.010088 0.000000 0.039405 0.000000
# 6 0.000000 0.000000 0.000000 -0.004904 0.000000 0.087940
#
#
# Mechanical properties :
#
#
# Convention : Reuss Voigt Hill
#
# Bulk Modulus (GPa) = 34.18494 38.21618 36.20056
# Shear Modulus (GPa) = 23.90535 31.87103 27.88819
#
# Velocity S-wave (km/s) = 3.39940 3.92512 3.67168
# Velocity P-wave (km/s) = 5.65093 6.24627 5.95604
#
# Compressibility (1/GPa) = 0.02925265
#
# Stress axis : x y z
#
# Youngs Moduli (GPa) = 101.10789 84.08973 62.53291
#
# Poissons Ratio (x) = 0.18674 0.01542
# Poissons Ratio (y) = 0.22453 0.11214
# Poissons Ratio (z) = 0.02494 0.15080
#
# Static dielectric constant tensor:
#      x y z
#    x 1.731670 0.000000 0.029660 
#    y 0.000000 1.751730 0.000000 
#    z 0.029660 0.000000 1.715400 
# 
# From -- ./inp_files/25342.got.cif
#   From: 2010.05.17/outbox.cif.g08.bks.cpg/sg15_13_cif.got.tgz:25342.got - 2010.06.03 18:47:42.
