data_PCOD9297089
_publ_section_title
;
Structure prediction by ZEFSAII (Michael W. Deem and Ramdas Pophale) SiO2 
 PCOD9297089
Probable space group: C 2/C
;
_chemical_formula_sum "Si O2"
_cell_formula_units_Z 28
_cell_length_a 6.870320
_cell_length_b 19.332639
_cell_length_c 7.768164
_cell_angle_alpha 90.000000
_cell_angle_beta 112.562391
_cell_angle_gamma 90.000000
_cell_volume 952.808557
_symmetry_space_group_name_H-M "C 2/C"
_symmetry_group_IT_number 15
_symmetry_cell_setting 'monoclinic'
loop_
_space_group_symop_operation_xyz
x,y,z
-x,y,1/2-z
-x,-y,-z
x,-y,1/2+z
1/2+x,1/2+y,z
1/2-x,1/2+y,1/2-z
1/2-x,1/2-y,-z
1/2+x,1/2-y,1/2+z
loop_
_atom_site_type_symbol
_atom_site_label
_atom_site_fract_x
_atom_site_fract_y
_atom_site_fract_z
Si Si1 0.500000 0.541350 0.750000
Si Si2 0.809552 0.323345 0.099693
Si Si3 0.644272 0.944352 0.648769
Si Si4 0.315183 0.677444 0.612747
O O1 0.335408 0.490943 0.786343
O O2 0.344342 0.593882 0.594906
O O3 0.765767 0.387707 0.954700
O O4 0.750000 0.250000 0.000000
O O5 0.583751 0.317348 0.150306
O O6 0.084485 0.327532 0.157411
O O7 0.500000 0.910719 0.750000
O O8 0.500000 0.000000 0.500000
O O9 0.250000 0.750000 0.500000
#
# Coordination Sequence:
#
# PCOD9297089 Si02
#       4
#     4   8   8   8
#     4  10  26  50  88 120 168 230 290 352 448 514
#     4  12  28  49  77 121 167 219 286 362 438 523
#     4  12  28  53  86 123 176 228 300 364 436 535
#     4  10  23  47  79 118 166 217 286 353 438 519
#
# _framework density 29.386807000000001
#
# number of rings (size 3 to 8) (size 9 to 14) (size 15 to 20)
#    0.857    0.000    0.000    6.000    2.000   10.286 
#    0.000    1.429    0.000    0.000    0.000    0.000 
#    0.000    0.000    0.000    0.000    0.000    0.000 
#
# Total GULP energy -77970.870853 kJ/mol
# GULP energy per Si atom -5569.347918 kJ/mol
# Density = 2.931992 g / cm^3
# Si number density = 29.386807 Si / 1000 Ang^3
#
#
#
# Elastic Constant Matrix: (Units=GPa)
#
#
# Indices 1 2 3 4 5 6 
#
# 1 323.7944 120.0020 87.2628 0.0000 -21.8347 0.0000
# 2 120.0020 285.3215 113.9379 0.0000 -22.0632 0.0000
# 3 87.2628 113.9379 107.9816 0.0000 0.3107 0.0000
# 4 0.0000 0.0000 0.0000 54.2899 0.0000 8.7115
# 5 -21.8347 -22.0632 0.3107 0.0000 102.1965 0.0000
# 6 0.0000 0.0000 0.0000 8.7115 0.0000 118.6748
#
#
#
# Elastic Compliance Matrix: (Units=1/GPa)
#
#
# Indices 1 2 3 4 5 6 
#
# 1 0.004079 -0.000588 -0.002678 0.000000 0.000753 0.000000
# 2 -0.000588 0.006327 -0.006205 0.000000 0.001259 0.000000
# 3 -0.002678 -0.006205 0.017978 0.000000 -0.001966 0.000000
# 4 0.000000 0.000000 0.000000 0.018639 0.000000 -0.001368
# 5 0.000753 0.001259 -0.001966 0.000000 0.010224 0.000000
# 6 0.000000 0.000000 0.000000 -0.001368 0.000000 0.008527
#
#
# Mechanical properties :
#
#
# Convention : Reuss Voigt Hill
#
# Bulk Modulus (GPa) = 105.90592 151.05589 128.48091
# Shear Modulus (GPa) = 56.90735 81.42523 69.16629
#
# Velocity S-wave (km/s) = 4.40533 5.26956 4.85671
# Velocity P-wave (km/s) = 7.87355 9.40949 8.67558
#
# Compressibility (1/GPa) = 0.00944234
#
# Stress axis : x y z
#
# Youngs Moduli (GPa) = 245.17484 158.04811 55.62439
#
# Poissons Ratio (x) = 0.09290 0.14896
# Poissons Ratio (y) = 0.14412 0.34514
# Poissons Ratio (z) = 0.65659 0.98065
#
# Static dielectric constant tensor:
#      x y z
#    x 2.638180 0.000000 -0.009630 
#    y 0.000000 2.209500 0.000000 
#    z -0.009630 0.000000 2.068980 
# 
# From -- ./inp_files/71735.got.cif
#   From: 2010.05.17/outbox.cif.g08.bks.cpg/sg15_36_cif.got.tgz:71735.got - 2010.06.03 18:47:42.
