data_PCOD9297404
_publ_section_title
;
Structure prediction by ZEFSAII (Michael W. Deem and Ramdas Pophale) SiO2 
 PCOD9297404
Probable space group: C 2/C
;
_chemical_formula_sum "Si O2"
_cell_formula_units_Z 24
_cell_length_a 11.740726
_cell_length_b 14.321600
_cell_length_c 14.482581
_cell_angle_alpha 90.000000
_cell_angle_beta 151.546160
_cell_angle_gamma 90.000000
_cell_volume 1160.246667
_symmetry_space_group_name_H-M "C 2/C"
_symmetry_group_IT_number 15
_symmetry_cell_setting 'monoclinic'
loop_
_space_group_symop_operation_xyz
x,y,z
-x,y,1/2-z
-x,-y,-z
x,-y,1/2+z
1/2+x,1/2+y,z
1/2-x,1/2+y,1/2-z
1/2-x,1/2-y,-z
1/2+x,1/2-y,1/2+z
loop_
_atom_site_type_symbol
_atom_site_label
_atom_site_fract_x
_atom_site_fract_y
_atom_site_fract_z
Si Si1 0.771637 0.670723 0.405301
Si Si2 0.250925 0.876450 0.167739
Si Si3 0.444994 0.499161 0.818953
O O1 0.500000 0.678299 0.250000
O O2 0.845641 0.773202 0.425078
O O3 0.748972 0.585677 0.317412
O O4 0.966445 0.638397 0.618249
O O5 0.151344 0.912384 0.194890
O O6 0.162813 0.954508 0.032765
O O7 0.500000 0.516994 0.750000
#
# Coordination Sequence:
#
# PCOD9297404 Si02
#       3
#     8   8   8
#     4  11  22  38  66  93 122 162 208 258 306 361
#     4  11  22  41  62  93 128 158 208 257 308 362
#     4  10  24  40  64  89 125 169 203 254 307 370
#
# _framework density 20.685258000000001
#
# number of rings (size 3 to 8) (size 9 to 14) (size 15 to 20)
#    0.000    1.333    3.333    2.000    4.667    0.000 
#    0.000    1.667    0.000    0.000    0.000    0.000 
#    0.000    0.000    0.000    0.000    0.000    0.000 
#
# Total GULP energy -66955.382539 kJ/mol
# GULP energy per Si atom -5579.615212 kJ/mol
# Density = 2.063818 g / cm^3
# Si number density = 20.685258 Si / 1000 Ang^3
#
#
#
# Elastic Constant Matrix: (Units=GPa)
#
#
# Indices 1 2 3 4 5 6 
#
# 1 115.8471 49.1251 29.0208 0.0063 -18.8100 0.0006
# 2 49.1251 95.9524 22.7387 0.0193 3.1018 0.0046
# 3 29.0208 22.7387 149.3026 0.0239 -9.6313 0.0058
# 4 0.0063 0.0193 0.0239 22.5357 0.0102 -13.1174
# 5 -18.8100 3.1018 -9.6313 0.0102 24.2084 0.0014
# 6 0.0006 0.0046 0.0058 -13.1174 0.0014 47.0250
#
#
#
# Elastic Compliance Matrix: (Units=1/GPa)
#
#
# Indices 1 2 3 4 5 6 
#
# 1 0.013716 -0.007185 -0.000847 -0.000002 0.011241 0.000000
# 2 -0.007185 0.014680 -0.001355 -0.000007 -0.008003 -0.000003
# 3 -0.000847 -0.001355 0.007223 -0.000009 0.002389 -0.000003
# 4 -0.000002 -0.000007 -0.000009 0.052976 -0.000028 0.014777
# 5 0.011241 -0.008003 0.002389 -0.000028 0.052019 -0.000009
# 6 0.000000 -0.000003 -0.000003 0.014777 -0.000009 0.025387
#
#
# Mechanical properties :
#
#
# Convention : Reuss Voigt Hill
#
# Bulk Modulus (GPa) = 59.36445 62.54126 60.95285
# Shear Modulus (GPa) = 26.26175 36.10163 31.18169
#
# Velocity S-wave (km/s) = 3.56699 4.18219 3.88678
# Velocity P-wave (km/s) = 6.76209 7.32266 7.04795
#
# Compressibility (1/GPa) = 0.01684510
#
# Stress axis : x y z
#
# Youngs Moduli (GPa) = 72.90591 68.11814 138.44748
#
# Poissons Ratio (x) = 0.48944 0.11722
# Poissons Ratio (y) = 0.52384 0.18766
# Poissons Ratio (z) = 0.06173 0.09233
#
# Static dielectric constant tensor:
#      x y z
#    x 1.798940 0.000000 -0.035430 
#    y 0.000000 1.746710 0.000000 
#    z -0.035430 0.000000 1.818960 
# 
# From -- ./inp_files/21444.got.cif
#   From: 2010.05.17/outbox.cif.g08.bks.cpg/sg15_11_cif.got.tgz:21444.got - 2010.06.03 18:47:42.
