data_PCOD9297363
_publ_section_title
;
Structure prediction by ZEFSAII (Michael W. Deem and Ramdas Pophale) SiO2 
 PCOD9297363
Probable space group: C 2/C
;
_chemical_formula_sum "Si O2"
_cell_formula_units_Z 36
_cell_length_a 12.244433
_cell_length_b 20.503797
_cell_length_c 14.266157
_cell_angle_alpha 90.000000
_cell_angle_beta 149.152946
_cell_angle_gamma 90.000000
_cell_volume 1836.470855
_symmetry_space_group_name_H-M "C 2/C"
_symmetry_group_IT_number 15
_symmetry_cell_setting 'monoclinic'
loop_
_space_group_symop_operation_xyz
x,y,z
-x,y,1/2-z
-x,-y,-z
x,-y,1/2+z
1/2+x,1/2+y,z
1/2-x,1/2+y,1/2-z
1/2-x,1/2-y,-z
1/2+x,1/2-y,1/2+z
loop_
_atom_site_type_symbol
_atom_site_label
_atom_site_fract_x
_atom_site_fract_y
_atom_site_fract_z
Si Si1 0.299278 0.847368 0.044035
Si Si2 0.423984 0.825514 0.422409
Si Si3 0.009818 0.822302 0.990487
Si Si4 0.412914 0.100667 0.285284
Si Si5 0.500000 0.025565 0.750000
O O1 0.500000 0.817691 0.250000
O O2 0.365110 0.835332 0.986461
O O3 0.091712 0.821944 0.942981
O O4 0.320185 0.924786 0.080863
O O5 0.215943 0.838202 0.205990
O O6 0.426951 0.749875 0.453605
O O7 0.442749 0.872995 0.524234
O O8 0.822862 0.873321 0.869443
O O9 0.500000 0.127649 0.250000
O O10 0.424187 0.022979 0.276022
#
# Coordination Sequence:
#
# PCOD9297363 Si02
#       5
#     8   8   8   8   4
#     4   8  19  38  63  89 120 143 197 257 297 348
#     4  11  21  39  64  92 118 155 194 253 309 346
#     4  11  21  39  64  92 118 155 194 253 309 346
#     4  10  24  40  58  88 122 162 208 234 282 366
#     4   8  20  44  54  90 124 152 208 248 264 376
#
# _framework density 19.602813999999999
#
# number of rings (size 3 to 8) (size 9 to 14) (size 15 to 20)
#    1.333    0.889    2.222    0.667    0.000    4.444 
#    0.000    0.000    4.889    0.000    0.000    0.000 
#    0.000    0.000    0.000    0.000    0.000    0.000 
#
# Total GULP energy -100258.480006 kJ/mol
# GULP energy per Si atom -5569.915556 kJ/mol
# Density = 1.955820 g / cm^3
# Si number density = 19.602814 Si / 1000 Ang^3
#
#
#
# Elastic Constant Matrix: (Units=GPa)
#
#
# Indices 1 2 3 4 5 6 
#
# 1 55.4965 -7.7934 0.8459 0.0000 -5.2345 -0.0002
# 2 -7.7934 102.0293 0.5722 0.0000 -2.7316 0.0000
# 3 0.8459 0.5722 69.4458 0.0000 2.3564 -0.0003
# 4 0.0000 0.0000 0.0000 7.4080 0.0000 -2.5708
# 5 -5.2345 -2.7316 2.3564 0.0000 30.8369 -0.0002
# 6 -0.0002 0.0000 -0.0003 -2.5708 -0.0002 42.0229
#
#
#
# Elastic Compliance Matrix: (Units=1/GPa)
#
#
# Indices 1 2 3 4 5 6 
#
# 1 0.018548 0.001507 -0.000351 0.000000 0.003309 0.000000
# 2 0.001507 0.009948 -0.000139 0.000000 0.001148 0.000000
# 3 -0.000351 -0.000139 0.014445 0.000000 -0.001176 0.000000
# 4 0.000000 0.000000 0.000000 0.137917 0.000000 0.008437
# 5 0.003309 0.001148 -0.001176 0.000000 0.033182 0.000000
# 6 0.000000 0.000000 0.000000 0.008437 0.000000 0.024313
#
#
# Mechanical properties :
#
#
# Convention : Reuss Voigt Hill
#
# Bulk Modulus (GPa) = 22.23411 23.80234 23.01822
# Shear Modulus (GPa) = 19.89578 31.61002 25.75290
#
# Velocity S-wave (km/s) = 3.18928 4.01998 3.62848
# Velocity P-wave (km/s) = 4.99289 5.80652 5.41501
#
# Compressibility (1/GPa) = 0.04497595
#
# Stress axis : x y z
#
# Youngs Moduli (GPa) = 53.91335 100.52524 69.22798
#
# Poissons Ratio (x) = -0.15153 0.02427
# Poissons Ratio (y) = -0.08127 0.00964
# Poissons Ratio (z) = 0.01890 0.01400
#
# Static dielectric constant tensor:
#      x y z
#    x 1.692700 0.000000 -0.011160 
#    y 0.000000 1.677810 0.000000 
#    z -0.011160 0.000000 1.705940 
# 
# From -- ./inp_files/147560.got.cif
#   From: 2010.05.17/outbox.cif.g08.bks.cpg/sg15_74_cif.got.tgz:147560.got - 2010.06.03 18:47:42.
