data_PCOD9297556
_publ_section_title
;
Structure prediction by ZEFSAII (Michael W. Deem and Ramdas Pophale) SiO2 
 PCOD9297556
Probable space group: C 2/C
;
_chemical_formula_sum "Si O2"
_cell_formula_units_Z 48
_cell_length_a 16.920013
_cell_length_b 25.860983
_cell_length_c 8.851643
_cell_angle_alpha 90.000000
_cell_angle_beta 147.045223
_cell_angle_gamma 90.000000
_cell_volume 2106.929857
_symmetry_space_group_name_H-M "C 2/C"
_symmetry_group_IT_number 15
_symmetry_cell_setting 'monoclinic'
loop_
_space_group_symop_operation_xyz
x,y,z
-x,y,1/2-z
-x,-y,-z
x,-y,1/2+z
1/2+x,1/2+y,z
1/2-x,1/2+y,1/2-z
1/2-x,1/2-y,-z
1/2+x,1/2-y,1/2+z
loop_
_atom_site_type_symbol
_atom_site_label
_atom_site_fract_x
_atom_site_fract_y
_atom_site_fract_z
Si Si1 0.500000 0.243717 0.250000
Si Si2 0.603133 0.975839 0.295486
Si Si3 0.500000 0.583886 0.750000
Si Si4 0.311019 0.329122 0.784422
Si Si5 0.753208 0.619972 0.613465
Si Si6 0.083117 0.658825 0.160910
Si Si7 0.779362 0.927536 0.134409
O O1 0.601500 0.279603 0.516588
O O2 0.594008 0.207674 0.289896
O O3 0.500000 0.947554 0.250000
O O4 0.718526 0.935027 0.421444
O O5 0.682255 0.022408 0.509921
O O6 0.500000 0.000000 0.000000
O O7 0.393529 0.621684 0.487779
O O8 0.593059 0.555014 0.773242
O O9 0.312553 0.339082 0.608463
O O10 0.152252 0.328679 0.608626
O O11 0.675528 0.604439 0.644750
O O12 0.916379 0.641180 0.902857
O O13 0.177116 0.612165 0.379877
#
# Coordination Sequence:
#
# PCOD9297556 Si02
#       7
#     4   8   4   8   8   8   8
#     4  11  22  42  68  96 134 188 214 266 339 398
#     4  12  22  38  67 103 133 168 219 274 333 385
#     4   9  24  44  64  88 136 182 214 266 331 400
#     4  10  24  41  64  95 132 177 220 271 329 391
#     4  12  23  40  68 100 133 168 223 281 325 387
#     4  11  20  41  67  96 132 168 219 275 331 387
#     4  11  22  42  65  98 132 176 216 268 333 395
#
# _framework density 22.781965
#
# number of rings (size 3 to 8) (size 9 to 14) (size 15 to 20)
#    0.000    1.000    5.000    2.000    2.333    1.333 
#    0.000    3.333    0.000    0.000    0.000    0.000 
#    0.000    0.000    0.000    0.000    0.000    0.000 
#
# Total GULP energy -134156.915311 kJ/mol
# GULP energy per Si atom -5589.871471 kJ/mol
# Density = 2.273011 g / cm^3
# Si number density = 22.781965 Si / 1000 Ang^3
#
#
#
# Elastic Constant Matrix: (Units=GPa)
#
#
# Indices 1 2 3 4 5 6 
#
# 1 112.2518 5.2136 32.0926 0.0000 0.2121 0.0000
# 2 5.2136 80.4853 19.5158 0.0000 -2.7340 0.0000
# 3 32.0926 19.5158 55.5686 0.0000 -18.2412 0.0000
# 4 0.0000 0.0000 0.0000 64.0221 0.0000 20.8633
# 5 0.2121 -2.7340 -18.2412 0.0000 25.3167 0.0000
# 6 0.0000 0.0000 0.0000 20.8633 0.0000 59.0024
#
#
#
# Elastic Compliance Matrix: (Units=1/GPa)
#
#
# Indices 1 2 3 4 5 6 
#
# 1 0.011515 0.001279 -0.009281 0.000000 -0.006645 0.000000
# 2 0.001279 0.013853 -0.006701 0.000000 -0.003343 0.000000
# 3 -0.009281 -0.006701 0.033396 0.000000 0.023417 0.000000
# 4 0.000000 0.000000 0.000000 0.017654 0.000000 -0.006242
# 5 -0.006645 -0.003343 0.023417 0.000000 0.056066 0.000000
# 6 0.000000 0.000000 0.000000 -0.006242 0.000000 0.019156
#
#
# Mechanical properties :
#
#
# Convention : Reuss Voigt Hill
#
# Bulk Modulus (GPa) = 34.06260 40.21663 37.13961
# Shear Modulus (GPa) = 26.20096 42.43382 34.31739
#
# Velocity S-wave (km/s) = 3.39495 4.32047 3.88537
# Velocity P-wave (km/s) = 5.50923 6.52532 6.03869
#
# Compressibility (1/GPa) = 0.02935771
#
# Stress axis : x y z
#
# Youngs Moduli (GPa) = 86.84258 72.18593 29.94365
#
# Poissons Ratio (x) = -0.09231 0.27790
# Poissons Ratio (y) = -0.11105 0.20066
# Poissons Ratio (z) = 0.80597 0.48373
#
# Static dielectric constant tensor:
#      x y z
#    x 1.952760 0.000000 -0.036330 
#    y 0.000000 1.804660 0.000000 
#    z -0.036330 0.000000 1.890170 
# 
# From -- ./inp_files/52899.got.cif
#   From: 2010.05.17/outbox.cif.g08.bks.cpg/sg15_27_cif.got.tgz:52899.got - 2010.06.03 18:47:42.
