data_PCOD9297069
_publ_section_title
;
Structure prediction by ZEFSAII (Michael W. Deem and Ramdas Pophale) SiO2 
 PCOD9297069
Probable space group: C 2/C
;
_chemical_formula_sum "Si O2"
_cell_formula_units_Z 44
_cell_length_a 21.790609
_cell_length_b 13.696921
_cell_length_c 15.990938
_cell_angle_alpha 90.000000
_cell_angle_beta 20.834357
_cell_angle_gamma 90.000000
_cell_volume 1697.502379
_symmetry_space_group_name_H-M "C 2/C"
_symmetry_group_IT_number 15
_symmetry_cell_setting 'monoclinic'
loop_
_space_group_symop_operation_xyz
x,y,z
-x,y,1/2-z
-x,-y,-z
x,-y,1/2+z
1/2+x,1/2+y,z
1/2-x,1/2+y,1/2-z
1/2-x,1/2-y,-z
1/2+x,1/2-y,1/2+z
loop_
_atom_site_type_symbol
_atom_site_label
_atom_site_fract_x
_atom_site_fract_y
_atom_site_fract_z
Si Si1 0.500000 0.405040 0.250000
Si Si2 0.454882 0.563808 0.179840
Si Si3 0.393889 0.851070 0.545941
Si Si4 0.272667 0.947434 0.155889
Si Si5 0.943733 0.269373 0.999895
Si Si6 0.500000 0.729940 0.250000
Si Si7 0.750000 0.750000 0.500000
O O1 0.541056 0.479464 0.123984
O O2 0.335970 0.337388 0.445306
O O3 0.299813 0.507955 0.330819
O O4 0.406116 0.652024 0.305253
O O5 0.604357 0.590466 0.922349
O O6 0.529884 0.814998 0.442089
O O7 0.424376 0.802713 0.416103
O O8 0.381157 0.967239 0.562326
O O9 0.207544 0.807756 0.805442
O O10 0.399778 0.855275 0.988697
O O11 0.116026 0.222304 0.746422
#
# Coordination Sequence:
#
# PCOD9297069 Si02
#       7
#     4   8   8   8   8   4   4
#     4  11  26  42  71 104 144 196 249 318 387 470
#     4  10  23  47  75 105 152 202 253 312 405 472
#     4  12  27  48  80 113 158 199 267 327 403 479
#     4  11  24  47  75 109 151 201 257 325 387 472
#     4  12  27  48  77 113 154 210 261 333 396 479
#     4  11  24  50  77 118 154 212 253 328 405 486
#     4  12  26  46  72 110 152 202 268 320 400 470
#
# _framework density 25.920435000000001
#
# number of rings (size 3 to 8) (size 9 to 14) (size 15 to 20)
#    0.000    0.727    1.818    4.909    7.636    2.909 
#    3.273    0.000    0.000    0.000    0.000    0.000 
#    0.000    0.000    0.000    0.000    0.000    0.000 
#
# Total GULP energy -122657.347153 kJ/mol
# GULP energy per Si atom -5575.333961 kJ/mol
# Density = 2.586144 g / cm^3
# Si number density = 25.920435 Si / 1000 Ang^3
#
#
#
# Elastic Constant Matrix: (Units=GPa)
#
#
# Indices 1 2 3 4 5 6 
#
# 1 118.6012 27.9953 23.4606 0.0000 10.8784 0.0001
# 2 27.9953 111.6070 7.0053 -0.0001 5.6708 0.0000
# 3 23.4606 7.0053 29.9757 0.0000 20.7242 0.0004
# 4 0.0000 -0.0001 0.0000 28.1286 -0.0001 11.9510
# 5 10.8784 5.6708 20.7242 -0.0001 41.5207 0.0000
# 6 0.0001 0.0000 0.0004 11.9510 0.0000 55.6864
#
#
#
# Elastic Compliance Matrix: (Units=1/GPa)
#
#
# Indices 1 2 3 4 5 6 
#
# 1 0.010580 -0.002182 -0.009254 0.000000 0.002145 0.000000
# 2 -0.002182 0.009546 -0.000026 0.000000 -0.000719 0.000000
# 3 -0.009254 -0.000026 0.059443 0.000000 -0.027242 0.000000
# 4 0.000000 0.000000 0.000000 0.039118 0.000000 -0.008395
# 5 0.002145 -0.000719 -0.027242 0.000000 0.037218 0.000000
# 6 0.000000 0.000000 0.000000 -0.008395 0.000000 0.019759
#
#
# Mechanical properties :
#
#
# Convention : Reuss Voigt Hill
#
# Bulk Modulus (GPa) = 17.65361 41.90071 29.77716
# Shear Modulus (GPa) = 22.99180 38.51531 30.75356
#
# Velocity S-wave (km/s) = 2.98151 3.85893 3.44824
# Velocity P-wave (km/s) = 4.32181 6.00461 5.23132
#
# Compressibility (1/GPa) = 0.05664563
#
# Stress axis : x y z
#
# Youngs Moduli (GPa) = 94.51383 104.76107 16.82292
#
# Poissons Ratio (x) = 0.22860 0.15567
# Poissons Ratio (y) = 0.20624 0.00043
# Poissons Ratio (z) = 0.87460 0.00269
#
# Static dielectric constant tensor:
#      x y z
#    x 2.165870 0.000000 -0.023240 
#    y 0.000000 1.992930 0.000000 
#    z -0.023240 0.000000 2.029400 
# 
# From -- ./inp_files/219686.got.cif
#   From: 2010.05.17/outbox.cif.g08.bks.cpg/sg15_110_cif.got.tgz:219686.got - 2010.06.03 18:47:42.
