data_PCOD9297319
_publ_section_title
;
Structure prediction by ZEFSAII (Michael W. Deem and Ramdas Pophale) SiO2 
 PCOD9297319
Probable space group: C 2/C
;
_chemical_formula_sum "Si O2"
_cell_formula_units_Z 48
_cell_length_a 17.924150
_cell_length_b 18.146205
_cell_length_c 8.182411
_cell_angle_alpha 90.000000
_cell_angle_beta 123.238374
_cell_angle_gamma 90.000000
_cell_volume 2225.965063
_symmetry_space_group_name_H-M "C 2/C"
_symmetry_group_IT_number 15
_symmetry_cell_setting 'monoclinic'
loop_
_space_group_symop_operation_xyz
x,y,z
-x,y,1/2-z
-x,-y,-z
x,-y,1/2+z
1/2+x,1/2+y,z
1/2-x,1/2+y,1/2-z
1/2-x,1/2-y,-z
1/2+x,1/2-y,1/2+z
loop_
_atom_site_type_symbol
_atom_site_label
_atom_site_fract_x
_atom_site_fract_y
_atom_site_fract_z
Si Si1 0.817580 0.220973 0.443458
Si Si2 0.500000 0.206990 0.250000
Si Si3 0.928471 0.665437 0.519599
Si Si4 0.197021 0.807607 0.085480
Si Si5 0.258699 0.407027 0.676806
Si Si6 0.367356 0.444708 0.343362
Si Si7 0.500000 0.491459 0.250000
O O1 0.750000 0.250000 0.500000
O O2 0.916071 0.243270 0.604241
O O3 0.787117 0.265529 0.243209
O O4 0.802618 0.136123 0.381871
O O5 0.470639 0.166244 0.385907
O O6 0.879731 0.744920 0.497609
O O7 0.847540 0.605967 0.432864
O O8 0.000000 0.653422 0.750000
O O9 0.178087 0.866747 0.202991
O O10 0.211601 0.860266 0.947083
O O11 0.297590 0.489406 0.724950
O O12 0.449278 0.443261 0.318802
O O13 0.422028 0.460946 0.575227
#
# Coordination Sequence:
#
# PCOD9297319 Si02
#       7
#     8   4   8   8   8   8   4
#     4  11  23  41  64  97 129 165 226 274 331 392
#     4  12  22  41  68 102 126 177 216 280 342 391
#     4  11  24  41  71 100 131 172 230 280 331 402
#     4  11  23  42  64  95 133 178 210 275 341 393
#     4  11  23  44  62  93 136 175 215 271 331 400
#     4  11  24  40  63  91 136 175 213 268 336 400
#     4  10  24  39  56  98 130 169 220 256 322 419
#
# _framework density 21.563680000000002
#
# number of rings (size 3 to 8) (size 9 to 14) (size 15 to 20)
#    0.000    1.000    5.000    4.000    3.500    4.000 
#    0.000    0.000    1.833    2.000    0.000    0.000 
#    0.000    0.000    0.000    0.000    0.000    0.000 
#
# Total GULP energy -133988.748308 kJ/mol
# GULP energy per Si atom -5582.864513 kJ/mol
# Density = 2.151460 g / cm^3
# Si number density = 21.563680 Si / 1000 Ang^3
#
#
#
# Elastic Constant Matrix: (Units=GPa)
#
#
# Indices 1 2 3 4 5 6 
#
# 1 138.7661 31.6586 41.4941 0.0000 9.3296 0.0000
# 2 31.6586 92.8865 12.8145 0.0000 20.2530 0.0000
# 3 41.4941 12.8145 107.6153 0.0000 20.7455 0.0000
# 4 0.0000 0.0000 0.0000 -40.9920 0.0000 -2.4359
# 5 9.3296 20.2530 20.7455 0.0000 46.8588 0.0000
# 6 0.0000 0.0000 0.0000 -2.4359 0.0000 27.9868
#
#
#
# Elastic Compliance Matrix: (Units=1/GPa)
#
#
# Indices 1 2 3 4 5 6 
#
# 1 0.008728 -0.002719 -0.003207 0.000000 0.000857 0.000000
# 2 -0.002719 0.012754 0.000534 0.000000 -0.005207 0.000000
# 3 -0.003207 0.000534 0.011356 0.000000 -0.004620 0.000000
# 4 0.000000 0.000000 0.000000 -0.024270 0.000000 -0.002112
# 5 0.000857 -0.005207 -0.004620 0.000000 0.025466 0.000000
# 6 0.000000 0.000000 0.000000 -0.002112 0.000000 0.035547
#
#
# Mechanical properties :
#
#
# Convention : Reuss Voigt Hill
#
# Bulk Modulus (GPa) = 45.34453 56.80026 51.07240
# Shear Modulus (GPa) = 57.00072 23.65744 40.32908
#
# Velocity S-wave (km/s) = 5.14695 3.31584 4.32931
# Velocity P-wave (km/s) = 7.50968 6.40762 6.98043
#
# Compressibility (1/GPa) = 0.02205337
#
# Stress axis : x y z
#
# Youngs Moduli (GPa) = 114.57345 78.40387 88.06047
#
# Poissons Ratio (x) = 0.21320 0.28239
# Poissons Ratio (y) = 0.31156 -0.04699
# Poissons Ratio (z) = 0.36741 -0.04184
#
# Static dielectric constant tensor:
#      x y z
#    x 1.850600 0.000000 -0.164180 
#    y 0.000000 1.772630 0.000000 
#    z -0.164180 0.000000 2.004610 
# 
# From -- ./inp_files/48755.got.cif
#   From: 2010.05.17/outbox.cif.g08.bks.cpg/sg15_25_cif.got.tgz:48755.got - 2010.06.03 18:47:42.
