data_PCOD9297059
_publ_section_title
;
Structure prediction by ZEFSAII (Michael W. Deem and Ramdas Pophale) SiO2 
 PCOD9297059
Probable space group: C 2/C
;
_chemical_formula_sum "Si O2"
_cell_formula_units_Z 32
_cell_length_a 9.081925
_cell_length_b 11.508843
_cell_length_c 21.763309
_cell_angle_alpha 90.000000
_cell_angle_beta 145.433374
_cell_angle_gamma 90.000000
_cell_volume 1290.614146
_symmetry_space_group_name_H-M "C 2/C"
_symmetry_group_IT_number 15
_symmetry_cell_setting 'monoclinic'
loop_
_space_group_symop_operation_xyz
x,y,z
-x,y,1/2-z
-x,-y,-z
x,-y,1/2+z
1/2+x,1/2+y,z
1/2-x,1/2+y,1/2-z
1/2-x,1/2-y,-z
1/2+x,1/2-y,1/2+z
loop_
_atom_site_type_symbol
_atom_site_label
_atom_site_fract_x
_atom_site_fract_y
_atom_site_fract_z
Si Si1 0.678231 0.151852 0.528278
Si Si2 0.000000 0.381354 0.250000
Si Si3 0.508233 0.475997 0.932129
Si Si4 0.921001 0.829153 0.640203
Si Si5 0.000000 0.957961 0.250000
O O1 0.750000 0.250000 0.500000
O O2 0.378454 0.161531 0.442445
O O3 0.741255 0.035464 0.511811
O O4 0.837293 0.127254 0.647306
O O5 0.247437 0.459134 0.324420
O O6 0.997787 0.294294 0.306747
O O7 0.521333 0.346376 0.911631
O O8 0.500000 0.500000 0.000000
O O9 0.073442 0.938620 0.724750
#
# Coordination Sequence:
#
# PCOD9297059 Si02
#       5
#     8   4   8   8   4
#     4  11  22  47  72 107 144 193 254 298 377 453
#     4  11  24  46  71 106 146 199 252 294 391 444
#     4  11  25  44  70 109 147 189 250 316 363 451
#     4  10  23  47  74 102 150 195 249 311 368 451
#     4   9  20  38  71 102 140 201 230 304 369 432
#
# _framework density 24.794397
#
# number of rings (size 3 to 8) (size 9 to 14) (size 15 to 20)
#    0.000    1.500    2.500    3.000    0.000   11.000 
#    9.000    0.000    0.000    0.000    0.000    0.000 
#    0.000    0.000    0.000    0.000    0.000    0.000 
#
# Total GULP energy -89114.289685 kJ/mol
# GULP energy per Si atom -5569.643105 kJ/mol
# Density = 2.473796 g / cm^3
# Si number density = 24.794397 Si / 1000 Ang^3
#
#
#
# Elastic Constant Matrix: (Units=GPa)
#
#
# Indices 1 2 3 4 5 6 
#
# 1 163.7748 65.2904 76.7653 0.0000 -22.4233 0.0000
# 2 65.2904 90.1941 42.0391 0.0000 10.1864 0.0000
# 3 76.7653 42.0391 124.4298 0.0001 -5.1559 0.0000
# 4 0.0000 0.0000 0.0001 48.4682 0.0000 -7.3423
# 5 -22.4233 10.1864 -5.1559 0.0000 29.9084 0.0000
# 6 0.0000 0.0000 0.0000 -7.3423 0.0000 55.9463
#
#
#
# Elastic Compliance Matrix: (Units=1/GPa)
#
#
# Indices 1 2 3 4 5 6 
#
# 1 0.013735 -0.009083 -0.004885 0.000000 0.012549 0.000000
# 2 -0.009083 0.020052 -0.001749 0.000000 -0.013940 0.000000
# 3 -0.004885 -0.001749 0.011597 0.000000 -0.001068 0.000000
# 4 0.000000 0.000000 0.000000 0.021051 0.000000 0.002763
# 5 0.012549 -0.013940 -0.001068 0.000000 0.047407 0.000000
# 6 0.000000 0.000000 0.000000 0.002763 0.000000 0.018237
#
#
# Mechanical properties :
#
#
# Convention : Reuss Voigt Hill
#
# Bulk Modulus (GPa) = 71.68150 82.95428 77.31789
# Shear Modulus (GPa) = 29.73356 39.81818 34.77587
#
# Velocity S-wave (km/s) = 3.46671 4.01176 3.74915
# Velocity P-wave (km/s) = 6.70800 7.41542 7.07056
#
# Compressibility (1/GPa) = 0.01395060
#
# Stress axis : x y z
#
# Youngs Moduli (GPa) = 72.80903 49.87153 86.23078
#
# Poissons Ratio (x) = 0.45297 0.42121
# Poissons Ratio (y) = 0.66131 0.15079
# Poissons Ratio (z) = 0.35565 0.08721
#
# Static dielectric constant tensor:
#      x y z
#    x 2.003350 0.000000 -0.222360 
#    y 0.000000 2.071350 0.000000 
#    z -0.222360 0.000000 2.135890 
# 
# From -- ./inp_files/263412.got.cif
#   From: 2010.05.17/outbox.cif.g08.bks.cpg/sg15_132_cif.got.tgz:263412.got - 2010.06.03 18:47:42.
