data_PCOD9297592
_publ_section_title
;
Structure prediction by ZEFSAII (Michael W. Deem and Ramdas Pophale) SiO2 
 PCOD9297592
Probable space group: C 2/C
;
_chemical_formula_sum "Si O2"
_cell_formula_units_Z 40
_cell_length_a 12.973204
_cell_length_b 16.468885
_cell_length_c 15.948477
_cell_angle_alpha 90.000000
_cell_angle_beta 35.291710
_cell_angle_gamma 90.000000
_cell_volume 1968.623871
_symmetry_space_group_name_H-M "C 2/C"
_symmetry_group_IT_number 15
_symmetry_cell_setting 'monoclinic'
loop_
_space_group_symop_operation_xyz
x,y,z
-x,y,1/2-z
-x,-y,-z
x,-y,1/2+z
1/2+x,1/2+y,z
1/2-x,1/2+y,1/2-z
1/2-x,1/2-y,-z
1/2+x,1/2-y,1/2+z
loop_
_atom_site_type_symbol
_atom_site_label
_atom_site_fract_x
_atom_site_fract_y
_atom_site_fract_z
Si Si1 0.452599 0.068845 0.686748
Si Si2 0.598158 0.273547 0.033628
Si Si3 0.242264 0.350516 0.325467
Si Si4 0.166355 0.049750 0.429037
Si Si5 0.689970 0.492393 0.605825
O O1 0.500000 0.094069 0.750000
O O2 0.321173 0.128003 0.725302
O O3 0.630665 0.059611 0.513693
O O4 0.345969 0.983379 0.766125
O O5 0.417979 0.295542 0.201798
O O6 0.750000 0.250000 0.000000
O O7 0.592064 0.197378 0.975971
O O8 0.643298 0.353772 0.948551
O O9 0.290041 0.432898 0.343197
O O10 0.000000 0.000000 0.500000
O O11 0.180916 0.025639 0.517076
O O12 0.500000 0.450899 0.750000
#
# Coordination Sequence:
#
# PCOD9297592 Si02
#       5
#     8   8   8   8   8
#     4  10  24  41  67  91 128 176 228 271 334 407
#     4  12  24  39  66  96 136 173 215 276 344 390
#     4  12  24  43  61  97 137 169 221 282 337 402
#     4  11  21  40  66  93 133 178 216 268 337 405
#     4  11  20  39  65  93 129 164 221 281 326 399
#
# _framework density 20.318763000000001
#
# number of rings (size 3 to 8) (size 9 to 14) (size 15 to 20)
#    0.000    0.800    6.000    1.200    2.800    1.600 
#    0.000    1.000    0.000    0.000    0.000    0.000 
#    0.000    0.000    0.000    0.000    0.000    0.000 
#
# Total GULP energy -111715.893623 kJ/mol
# GULP energy per Si atom -5585.794681 kJ/mol
# Density = 2.027252 g / cm^3
# Si number density = 20.318763 Si / 1000 Ang^3
#
#
#
# Elastic Constant Matrix: (Units=GPa)
#
#
# Indices 1 2 3 4 5 6 
#
# 1 112.8215 37.2723 16.2969 -0.0009 -5.9088 0.0001
# 2 37.2723 46.1865 13.0272 0.0005 -3.7136 0.0002
# 3 16.2969 13.0272 117.3285 -0.0004 -18.9067 0.0005
# 4 -0.0009 0.0005 -0.0004 34.2898 0.0012 0.5966
# 5 -5.9088 -3.7136 -18.9067 0.0012 29.0846 -0.0007
# 6 0.0001 0.0002 0.0005 0.5966 -0.0007 31.1618
#
#
#
# Elastic Compliance Matrix: (Units=1/GPa)
#
#
# Indices 1 2 3 4 5 6 
#
# 1 0.012152 -0.009598 -0.000471 0.000000 0.000937 0.000000
# 2 -0.009598 0.029982 -0.001891 -0.000001 0.000649 0.000000
# 3 -0.000471 -0.001891 0.009767 0.000000 0.006012 0.000000
# 4 0.000000 -0.000001 0.000000 0.029173 -0.000001 -0.000559
# 5 0.000937 0.000649 0.006012 -0.000001 0.038564 0.000001
# 6 0.000000 0.000000 0.000000 -0.000559 0.000001 0.032101
#
#
# Mechanical properties :
#
#
# Convention : Reuss Voigt Hill
#
# Bulk Modulus (GPa) = 35.73924 45.50325 40.62125
# Shear Modulus (GPa) = 27.02889 32.88990 29.95939
#
# Velocity S-wave (km/s) = 3.65121 4.02767 3.84405
# Velocity P-wave (km/s) = 5.95000 6.63873 6.30378
#
# Compressibility (1/GPa) = 0.02798045
#
# Stress axis : x y z
#
# Youngs Moduli (GPa) = 82.29424 33.35281 102.38204
#
# Poissons Ratio (x) = 0.32012 0.04824
# Poissons Ratio (y) = 0.78986 0.19363
# Poissons Ratio (z) = 0.03878 0.06308
#
# Static dielectric constant tensor:
#      x y z
#    x 1.731220 0.000000 -0.014470 
#    y 0.000000 1.707500 0.000000 
#    z -0.014470 0.000000 1.776190 
# 
# From -- ./inp_files/62606.got.cif
#   From: 2010.05.17/outbox.cif.g08.bks.cpg/sg15_32_cif.got.tgz:62606.got - 2010.06.03 18:47:42.
