data_PCOD9297816
_publ_section_title
;
Structure prediction by ZEFSAII (Michael W. Deem and Ramdas Pophale) SiO2 
 PCOD9297816
Probable space group: C 2/C
;
_chemical_formula_sum "Si O2"
_cell_formula_units_Z 60
_cell_length_a 16.568245
_cell_length_b 9.570500
_cell_length_c 24.257292
_cell_angle_alpha 90.000000
_cell_angle_beta 138.331629
_cell_angle_gamma 90.000000
_cell_volume 2557.150433
_symmetry_space_group_name_H-M "C 2/C"
_symmetry_group_IT_number 15
_symmetry_cell_setting 'monoclinic'
loop_
_space_group_symop_operation_xyz
x,y,z
-x,y,1/2-z
-x,-y,-z
x,-y,1/2+z
1/2+x,1/2+y,z
1/2-x,1/2+y,1/2-z
1/2-x,1/2-y,-z
1/2+x,1/2-y,1/2+z
loop_
_atom_site_type_symbol
_atom_site_label
_atom_site_fract_x
_atom_site_fract_y
_atom_site_fract_z
Si Si1 0.165471 0.163166 0.585934
Si Si2 0.311343 0.521989 0.016749
Si Si3 0.545654 0.139351 0.554672
Si Si4 0.530533 0.976895 0.885465
Si Si5 0.500000 0.090397 0.250000
Si Si6 0.626582 0.363379 0.842067
Si Si7 0.174595 0.837002 0.320442
Si Si8 0.051573 0.162489 0.639600
O O1 0.200902 0.064114 0.553584
O O2 0.267202 0.283155 0.635672
O O3 0.136188 0.111042 0.632327
O O4 0.039152 0.233089 0.503814
O O5 0.352845 0.644633 0.081199
O O6 0.421019 0.411569 0.073465
O O7 0.176622 0.475229 0.966747
O O8 0.682207 0.172805 0.609519
O O9 0.500000 0.000000 0.500000
O O10 0.527433 0.099411 0.608731
O O11 0.497284 0.994116 0.804585
O O12 0.474271 0.828929 0.876340
O O13 0.613234 0.196978 0.311727
O O14 0.500000 0.320823 0.750000
O O15 0.640623 0.528874 0.838821
O O16 0.119280 0.862400 0.231665
#
# Coordination Sequence:
#
# PCOD9297816 Si02
#       8
#     8   8   8   8   4   8   8   8
#     4  12  27  44  66 105 135 177 223 279 342 404
#     4  12  25  44  69 101 135 175 228 280 330 403
#     4  12  23  42  71  96 139 181 224 270 339 413
#     4  11  23  43  70 100 134 179 225 277 337 401
#     4  10  24  42  68 106 130 170 236 282 332 382
#     4  12  22  44  72  93 133 180 223 269 335 408
#     4  11  22  43  69  99 130 176 229 276 328 401
#     4  11  24  45  68 101 132 176 229 277 338 394
#
# _framework density 23.463618
#
# number of rings (size 3 to 8) (size 9 to 14) (size 15 to 20)
#    0.000    0.533    6.000    2.000    1.867    2.133 
#    6.000    0.000    0.000    0.000    0.000    0.000 
#    0.000    0.000    0.000    0.000    0.000    0.000 
#
# Total GULP energy -168081.358250 kJ/mol
# GULP energy per Si atom -5602.711942 kJ/mol
# Density = 2.341021 g / cm^3
# Si number density = 23.463618 Si / 1000 Ang^3
#
#
#
# Elastic Constant Matrix: (Units=GPa)
#
#
# Indices 1 2 3 4 5 6 
#
# 1 123.1469 9.5419 32.5630 0.0000 -2.6803 0.0000
# 2 9.5419 18.9526 14.4320 0.0000 -5.9139 0.0000
# 3 32.5630 14.4320 67.0258 0.0000 4.0647 0.0000
# 4 0.0000 0.0000 0.0000 25.5141 0.0000 -6.2687
# 5 -2.6803 -5.9139 4.0647 0.0000 54.6916 0.0000
# 6 0.0000 0.0000 0.0000 -6.2687 0.0000 20.1121
#
#
#
# Elastic Compliance Matrix: (Units=1/GPa)
#
#
# Indices 1 2 3 4 5 6 
#
# 1 0.009374 -0.001219 -0.004331 0.000000 0.000650 0.000000
# 2 -0.001219 0.066832 -0.014297 0.000000 0.008229 0.000000
# 3 -0.004331 -0.014297 0.020300 0.000000 -0.003267 0.000000
# 4 0.000000 0.000000 0.000000 0.042445 0.000000 0.013230
# 5 0.000650 0.008229 -0.003267 0.000000 0.019449 0.000000
# 6 0.000000 0.000000 0.000000 0.013230 0.000000 0.053845
#
#
# Mechanical properties :
#
#
# Convention : Reuss Voigt Hill
#
# Bulk Modulus (GPa) = 17.60191 35.79991 26.70091
# Shear Modulus (GPa) = 18.45861 30.23610 24.34736
#
# Velocity S-wave (km/s) = 2.80784 3.59365 3.22477
# Velocity P-wave (km/s) = 4.24618 5.70174 5.02692
#
# Compressibility (1/GPa) = 0.05681202
#
# Stress axis : x y z
#
# Youngs Moduli (GPa) = 106.67532 14.96297 49.25999
#
# Poissons Ratio (x) = 0.01824 0.21336
# Poissons Ratio (y) = 0.13001 0.70428
# Poissons Ratio (z) = 0.46204 0.21393
#
# Static dielectric constant tensor:
#      x y z
#    x 1.983120 0.000000 -0.168980 
#    y 0.000000 1.850400 0.000000 
#    z -0.168980 0.000000 2.011030 
# 
# From -- ./inp_files/277279.got.cif
#   From: 2010.05.17/outbox.cif.g08.bks.cpg/sg15_139_cif.got.tgz:277279.got - 2010.06.03 18:47:42.
