data_PCOD9297223
_publ_section_title
;
Structure prediction by ZEFSAII (Michael W. Deem and Ramdas Pophale) SiO2 
 PCOD9297223
Probable space group: C 2/C
;
_chemical_formula_sum "Si O2"
_cell_formula_units_Z 36
_cell_length_a 7.843049
_cell_length_b 25.807755
_cell_length_c 7.362734
_cell_angle_alpha 90.000000
_cell_angle_beta 71.007979
_cell_angle_gamma 90.000000
_cell_volume 1409.175720
_symmetry_space_group_name_H-M "C 2/C"
_symmetry_group_IT_number 15
_symmetry_cell_setting 'monoclinic'
loop_
_space_group_symop_operation_xyz
x,y,z
-x,y,1/2-z
-x,-y,-z
x,-y,1/2+z
1/2+x,1/2+y,z
1/2-x,1/2+y,1/2-z
1/2-x,1/2-y,-z
1/2+x,1/2-y,1/2+z
loop_
_atom_site_type_symbol
_atom_site_label
_atom_site_fract_x
_atom_site_fract_y
_atom_site_fract_z
Si Si1 0.500000 0.497401 0.750000
Si Si2 0.868752 0.381633 0.627731
Si Si3 0.152729 0.074824 0.911863
Si Si4 0.424327 0.326214 0.525811
Si Si5 0.941454 0.284236 0.983818
O O1 0.662432 0.538717 0.731282
O O2 0.508521 0.457445 0.581141
O O3 0.817573 0.422973 0.494096
O O4 0.690493 0.356603 0.781949
O O5 0.000000 0.396663 0.750000
O O6 0.954702 0.334412 0.485962
O O7 0.070934 0.131987 0.910750
O O8 0.267639 0.302903 0.445444
O O9 0.498731 0.269691 0.552864
O O10 0.000000 0.281516 0.750000
#
# Coordination Sequence:
#
# PCOD9297223 Si02
#       5
#     4   8   8   8   8
#     4  10  24  36  60  80 104 140 206 234 276 322
#     4   9  18  34  57  82 116 147 178 223 282 332
#     4  11  20  39  58  81 106 148 187 239 275 327
#     4   9  16  31  56  81 113 146 173 225 272 329
#     4   8  17  30  52  87 117 144 177 215 278 343
#
# _framework density 25.546848000000001
#
# number of rings (size 3 to 8) (size 9 to 14) (size 15 to 20)
#    0.000    3.111    2.222    0.000    1.556    0.889 
#    0.000    1.111    0.000    0.000    0.000    0.000 
#    0.000    0.000    0.000    0.000    0.000    0.000 
#
# Total GULP energy -100214.903700 kJ/mol
# GULP energy per Si atom -5567.494650 kJ/mol
# Density = 2.548870 g / cm^3
# Si number density = 25.546848 Si / 1000 Ang^3
#
#
#
# Elastic Constant Matrix: (Units=GPa)
#
#
# Indices 1 2 3 4 5 6 
#
# 1 78.3581 51.3953 23.8580 0.0000 28.2947 0.0000
# 2 51.3953 156.3758 26.0361 0.0000 32.7294 0.0000
# 3 23.8580 26.0361 81.7015 0.0000 30.1400 0.0000
# 4 0.0000 0.0000 0.0000 14.2658 0.0000 11.8821
# 5 28.2947 32.7294 30.1400 0.0000 31.4194 0.0000
# 6 0.0000 0.0000 0.0000 11.8821 0.0000 17.3773
#
#
#
# Elastic Compliance Matrix: (Units=1/GPa)
#
#
# Indices 1 2 3 4 5 6 
#
# 1 0.020473 -0.003630 0.000905 0.000000 -0.015523 0.000000
# 2 -0.003630 0.008858 0.000674 0.000000 -0.006604 0.000000
# 3 0.000905 0.000674 0.019068 0.000000 -0.019809 0.000000
# 4 0.000000 0.000000 0.000000 0.162835 0.000000 -0.111342
# 5 -0.015523 -0.006604 -0.019809 0.000000 0.071689 0.000000
# 6 0.000000 0.000000 0.000000 -0.111342 0.000000 0.133679
#
#
# Mechanical properties :
#
#
# Convention : Reuss Voigt Hill
#
# Bulk Modulus (GPa) = 22.57536 57.66825 40.12180
# Shear Modulus (GPa) = 11.48183 26.95555 19.21869
#
# Velocity S-wave (km/s) = 2.12231 3.25182 2.74577
# Velocity P-wave (km/s) = 3.85507 6.05984 5.07854
#
# Compressibility (1/GPa) = 0.04429609
#
# Stress axis : x y z
#
# Youngs Moduli (GPa) = 48.84496 112.89013 52.44346
#
# Poissons Ratio (x) = 0.40984 -0.04747
# Poissons Ratio (y) = 0.17733 -0.03533
# Poissons Ratio (z) = -0.04421 -0.07605
#
# Static dielectric constant tensor:
#      x y z
#    x 2.135160 0.000000 0.062590 
#    y 0.000000 2.061180 0.000000 
#    z 0.062590 0.000000 2.226060 
# 
# From -- ./inp_files/24063.got.cif
#   From: 2010.05.17/outbox.cif.g08.bks.cpg/sg15_13_cif.got.tgz:24063.got - 2010.06.03 18:47:42.
