data_PCOD9297870
_publ_section_title
;
Structure prediction by ZEFSAII (Michael W. Deem and Ramdas Pophale) SiO2 
 PCOD9297870
Probable space group: C 2/C
;
_chemical_formula_sum "Si O2"
_cell_formula_units_Z 40
_cell_length_a 11.918184
_cell_length_b 8.362348
_cell_length_c 14.804920
_cell_angle_alpha 90.000000
_cell_angle_beta 113.495122
_cell_angle_gamma 90.000000
_cell_volume 1353.188347
_symmetry_space_group_name_H-M "C 2/C"
_symmetry_group_IT_number 15
_symmetry_cell_setting 'monoclinic'
loop_
_space_group_symop_operation_xyz
x,y,z
-x,y,1/2-z
-x,-y,-z
x,-y,1/2+z
1/2+x,1/2+y,z
1/2-x,1/2+y,1/2-z
1/2-x,1/2-y,-z
1/2+x,1/2-y,1/2+z
loop_
_atom_site_type_symbol
_atom_site_label
_atom_site_fract_x
_atom_site_fract_y
_atom_site_fract_z
Si Si1 0.719483 0.756393 0.688295
Si Si2 0.678009 0.793639 0.867750
Si Si3 0.939153 0.250535 0.382142
Si Si4 0.494517 0.454471 0.088682
Si Si5 0.626408 0.986982 0.022213
O O1 0.663977 0.843756 0.760609
O O2 0.855682 0.727810 0.766005
O O3 0.636832 0.598700 0.652364
O O4 0.690294 0.867904 0.594739
O O5 0.576220 0.676386 0.871899
O O6 0.802308 0.679061 0.905395
O O7 0.677948 0.937014 0.939298
O O8 0.995693 0.415212 0.443062
O O9 0.948506 0.115177 0.473870
O O10 0.041509 0.124290 0.376653
#
# Coordination Sequence:
#
# PCOD9297870 Si02
#       5
#     8   8   8   8   8
#     4  10  24  42  69  99 136 186 226 284 359 409
#     4  10  24  42  73  94 141 179 233 277 358 407
#     4  10  24  42  69  98 135 183 234 280 352 419
#     4  12  21  41  70  99 131 183 234 285 347 418
#     4  12  21  41  70 100 134 181 228 290 346 414
#
# _framework density 29.559818
#
# number of rings (size 3 to 8) (size 9 to 14) (size 15 to 20)
#    1.200    0.000    4.000    2.400    0.000    0.000 
#    0.000    1.000   22.000    0.000    0.000    0.000 
#    0.000    0.000    0.000    0.000    0.000    0.000 
#
# Total GULP energy -111521.018133 kJ/mol
# GULP energy per Si atom -5576.050907 kJ/mol
# Density = 2.949254 g / cm^3
# Si number density = 29.559818 Si / 1000 Ang^3
#
#
#
# Elastic Constant Matrix: (Units=GPa)
#
#
# Indices 1 2 3 4 5 6 
#
# 1 166.1005 39.0705 66.9071 0.0000 23.1560 0.0000
# 2 39.0705 108.8830 45.6329 0.0000 21.4356 0.0000
# 3 66.9071 45.6329 193.5838 0.0000 24.2720 0.0000
# 4 0.0000 0.0000 0.0000 49.1794 0.0000 13.9209
# 5 23.1560 21.4356 24.2720 0.0000 59.3987 0.0000
# 6 0.0000 0.0000 0.0000 13.9209 0.0000 63.6700
#
#
#
# Elastic Compliance Matrix: (Units=1/GPa)
#
#
# Indices 1 2 3 4 5 6 
#
# 1 0.007397 -0.001514 -0.002010 0.000000 -0.001516 0.000000
# 2 -0.001514 0.010977 -0.001730 0.000000 -0.002664 0.000000
# 3 -0.002010 -0.001730 0.006421 0.000000 -0.001216 0.000000
# 4 0.000000 0.000000 0.000000 0.021675 0.000000 -0.004739
# 5 -0.001516 -0.002664 -0.001216 0.000000 0.018885 0.000000
# 6 0.000000 0.000000 0.000000 -0.004739 0.000000 0.016742
#
#
# Mechanical properties :
#
#
# Convention : Reuss Voigt Hill
#
# Bulk Modulus (GPa) = 69.99112 85.75426 77.87269
# Shear Modulus (GPa) = 51.35192 55.58007 53.46599
#
# Velocity S-wave (km/s) = 4.17252 4.34090 4.25754
# Velocity P-wave (km/s) = 6.85145 7.36192 7.11127
#
# Compressibility (1/GPa) = 0.01428753
#
# Stress axis : x y z
#
# Youngs Moduli (GPa) = 135.18167 91.09957 155.74643
#
# Poissons Ratio (x) = 0.13789 0.31302
# Poissons Ratio (y) = 0.20461 0.26950
# Poissons Ratio (z) = 0.27169 0.15764
#
# Static dielectric constant tensor:
#      x y z
#    x 2.592090 0.000000 -0.102840 
#    y 0.000000 2.273360 0.000000 
#    z -0.102840 0.000000 2.238240 
# 
# From -- ./inp_files/151450.got.cif
#   From: 2010.05.17/outbox.cif.g08.bks.cpg/sg15_76_cif.got.tgz:151450.got - 2010.06.03 18:47:42.
