data_PCOD9297610
_publ_section_title
;
Structure prediction by ZEFSAII (Michael W. Deem and Ramdas Pophale) SiO2 
 PCOD9297610
Probable space group: C 2/C
;
_chemical_formula_sum "Si O2"
_cell_formula_units_Z 48
_cell_length_a 27.682730
_cell_length_b 5.882350
_cell_length_c 27.358480
_cell_angle_alpha 90.000000
_cell_angle_beta 148.575858
_cell_angle_gamma 90.000000
_cell_volume 2322.721524
_symmetry_space_group_name_H-M "C 2/C"
_symmetry_group_IT_number 15
_symmetry_cell_setting 'monoclinic'
loop_
_space_group_symop_operation_xyz
x,y,z
-x,y,1/2-z
-x,-y,-z
x,-y,1/2+z
1/2+x,1/2+y,z
1/2-x,1/2+y,1/2-z
1/2-x,1/2-y,-z
1/2+x,1/2-y,1/2+z
loop_
_atom_site_type_symbol
_atom_site_label
_atom_site_fract_x
_atom_site_fract_y
_atom_site_fract_z
Si Si1 0.461666 0.366390 0.358037
Si Si2 0.144319 0.630386 0.536951
Si Si3 0.554832 0.913380 0.754879
Si Si4 0.083057 0.754106 0.912271
Si Si5 0.258233 0.576001 0.462437
Si Si6 0.234028 0.074728 0.761886
O O1 0.540452 0.225562 0.454792
O O2 0.433786 0.225901 0.285334
O O3 0.514219 0.584885 0.382715
O O4 0.372278 0.422040 0.312170
O O5 0.132985 0.407701 0.494315
O O6 0.198587 0.805067 0.548485
O O7 0.198965 0.586001 0.633329
O O8 0.500000 0.775183 0.750000
O O9 0.654788 0.995689 0.858806
O O10 0.481664 0.109301 0.678977
O O11 0.165518 0.889987 0.957759
O O12 0.250000 0.750000 0.500000
O O13 0.249145 0.323860 0.748383
#
# Coordination Sequence:
#
# PCOD9297610 Si02
#       6
#     8   8   8   8   8   8
#     4  10  24  46  70 100 146 185 238 310 364 442
#     4  10  24  45  70 102 143 188 237 307 368 441
#     4  11  23  40  68 103 144 188 240 292 364 446
#     4  10  24  41  68  97 143 193 234 296 376 424
#     4  11  23  42  68 103 147 187 241 295 363 449
#     4  12  30  48  77 110 142 196 255 309 382 438
#
# _framework density 20.665412
#
# number of rings (size 3 to 8) (size 9 to 14) (size 15 to 20)
#    0.000    1.333    1.667    3.000   11.667    6.000 
#    0.000    0.000    0.000    0.000    0.000    0.000 
#    0.000    0.000    0.000    0.000    0.000    0.000 
#
# Total GULP energy -134041.427072 kJ/mol
# GULP energy per Si atom -5585.059461 kJ/mol
# Density = 2.061838 g / cm^3
# Si number density = 20.665412 Si / 1000 Ang^3
#
#
#
# Elastic Constant Matrix: (Units=GPa)
#
#
# Indices 1 2 3 4 5 6 
#
# 1 110.5779 46.2974 62.0182 0.0051 33.9810 0.0108
# 2 46.2974 96.3478 49.6919 0.0202 6.8686 0.0332
# 3 62.0182 49.6919 153.4283 -0.0052 2.3865 0.0053
# 4 0.0051 0.0202 -0.0052 -17.0631 -0.0022 13.0918
# 5 33.9810 6.8686 2.3865 -0.0022 40.0030 0.0043
# 6 0.0108 0.0332 0.0053 13.0918 0.0043 26.6381
#
#
#
# Elastic Compliance Matrix: (Units=1/GPa)
#
#
# Indices 1 2 3 4 5 6 
#
# 1 0.019018 -0.005077 -0.005811 0.000004 -0.014937 0.000000
# 2 -0.005077 0.013962 -0.002502 0.000003 0.002065 -0.000017
# 3 -0.005811 -0.002502 0.009602 -0.000004 0.004793 0.000005
# 4 0.000004 0.000003 -0.000004 -0.042558 -0.000008 0.020916
# 5 -0.014937 0.002065 0.004793 -0.000008 0.037046 0.000000
# 6 0.000000 -0.000017 0.000005 0.020916 0.000000 0.027261
#
#
# Mechanical properties :
#
#
# Convention : Reuss Voigt Hill
#
# Bulk Modulus (GPa) = 63.27869 75.15211 69.21540
# Shear Modulus (GPa) = 51.87923 23.40537 37.64230
#
# Velocity S-wave (km/s) = 5.01586 3.36904 4.27255
# Velocity P-wave (km/s) = 8.01450 7.18185 7.60957
#
# Compressibility (1/GPa) = 0.01580311
#
# Stress axis : x y z
#
# Youngs Moduli (GPa) = 52.58129 71.62406 104.14196
#
# Poissons Ratio (x) = 0.36363 0.60515
# Poissons Ratio (y) = 0.26695 0.26055
# Poissons Ratio (z) = 0.30554 0.17919
#
# Static dielectric constant tensor:
#      x y z
#    x 1.725350 0.000000 -0.005630 
#    y 0.000000 1.796200 0.000000 
#    z -0.005630 0.000000 1.706010 
# 
# From -- ./inp_files/304120.got.cif
#   From: 2010.05.17/outbox.cif.g08.bks.cpg/sg15_153_cif.got.tgz:304120.got - 2010.06.03 18:47:42.
