data_PCOD9297193
_publ_section_title
;
Structure prediction by ZEFSAII (Michael W. Deem and Ramdas Pophale) SiO2 
 PCOD9297193
Probable space group: C 2/C
;
_chemical_formula_sum "Si O2"
_cell_formula_units_Z 40
_cell_length_a 5.055159
_cell_length_b 13.292717
_cell_length_c 20.758176
_cell_angle_alpha 90.000000
_cell_angle_beta 113.051062
_cell_angle_gamma 90.000000
_cell_volume 1283.510298
_symmetry_space_group_name_H-M "C 2/C"
_symmetry_group_IT_number 15
_symmetry_cell_setting 'monoclinic'
loop_
_space_group_symop_operation_xyz
x,y,z
-x,y,1/2-z
-x,-y,-z
x,-y,1/2+z
1/2+x,1/2+y,z
1/2-x,1/2+y,1/2-z
1/2-x,1/2-y,-z
1/2+x,1/2-y,1/2+z
loop_
_atom_site_type_symbol
_atom_site_label
_atom_site_fract_x
_atom_site_fract_y
_atom_site_fract_z
Si Si1 0.859620 0.463729 0.295278
Si Si2 0.396613 0.273620 0.303317
Si Si3 0.838952 0.896381 0.623444
Si Si4 0.681670 0.959221 0.452634
Si Si5 0.384860 0.758324 0.441330
O O1 0.758556 0.361721 0.251312
O O2 0.626919 0.519198 0.318583
O O3 0.000000 0.522149 0.250000
O O4 0.128457 0.450887 0.370305
O O5 0.500000 0.214542 0.250000
O O6 0.243199 0.198872 0.338972
O O7 0.650647 0.313102 0.373403
O O8 0.575742 0.955543 0.559283
O O9 0.057445 0.843845 0.594387
O O10 0.359105 0.160180 0.534677
O O11 0.000000 0.000000 0.500000
O O12 0.250000 0.750000 0.500000
#
# Coordination Sequence:
#
# PCOD9297193 Si02
#       5
#     8   8   8   8   8
#     4  10  23  55  97 146 200 262 347 433 535 627
#     4  12  25  55  94 148 198 267 344 442 525 642
#     4  10  27  56  97 149 202 277 348 433 546 621
#     4  10  25  59  98 150 210 269 347 436 537 655
#     4  12  29  61  96 149 212 279 357 437 539 649
#
# _framework density 31.164534
#
# number of rings (size 3 to 8) (size 9 to 14) (size 15 to 20)
#    1.200    0.000    2.000    1.800    0.000    2.400 
#   28.800    3.000    0.000    0.000    5.200    0.000 
#    0.000    0.000    0.000    0.000    0.000    0.000 
#
# Total GULP energy -111735.598647 kJ/mol
# GULP energy per Si atom -5586.779932 kJ/mol
# Density = 3.109360 g / cm^3
# Si number density = 31.164534 Si / 1000 Ang^3
#
#
#
# Elastic Constant Matrix: (Units=GPa)
#
#
# Indices 1 2 3 4 5 6 
#
# 1 205.2800 103.1061 44.8789 0.0000 -29.3849 0.0000
# 2 103.1061 303.7364 117.2237 0.0000 -15.4461 0.0000
# 3 44.8789 117.2237 188.8349 0.0000 -3.6955 0.0000
# 4 0.0000 0.0000 0.0000 61.1238 0.0000 -12.3856
# 5 -29.3849 -15.4461 -3.6955 0.0000 62.3239 0.0000
# 6 0.0000 0.0000 0.0000 -12.3856 0.0000 48.8452
#
#
#
# Elastic Compliance Matrix: (Units=1/GPa)
#
#
# Indices 1 2 3 4 5 6 
#
# 1 0.006228 -0.001889 -0.000259 0.000000 0.002453 0.000000
# 2 -0.001889 0.004956 -0.002624 0.000000 0.000182 0.000000
# 3 -0.000259 -0.002624 0.006979 0.000000 -0.000359 0.000000
# 4 0.000000 0.000000 0.000000 0.017246 0.000000 0.004373
# 5 0.002453 0.000182 -0.000359 0.000000 0.017225 0.000000
# 6 0.000000 0.000000 0.000000 0.004373 0.000000 0.021582
#
#
# Mechanical properties :
#
#
# Convention : Reuss Voigt Hill
#
# Bulk Modulus (GPa) = 116.03743 136.47428 126.25585
# Shear Modulus (GPa) = 57.71430 63.30141 60.50785
#
# Velocity S-wave (km/s) = 4.30807 4.51177 4.41110
# Velocity P-wave (km/s) = 7.87785 8.42782 8.15747
#
# Compressibility (1/GPa) = 0.00861791
#
# Stress axis : x y z
#
# Youngs Moduli (GPa) = 160.56016 201.79526 143.28823
#
# Poissons Ratio (x) = 0.38127 0.03716
# Poissons Ratio (y) = 0.30336 0.37594
# Poissons Ratio (z) = 0.04164 0.52944
#
# Static dielectric constant tensor:
#      x y z
#    x 2.622580 0.000000 0.873250 
#    y 0.000000 2.436740 0.000000 
#    z 0.873250 0.000000 1.485780 
# 
# From -- ./inp_files/264041.got.cif
#   From: 2010.05.17/outbox.cif.g08.bks.cpg/sg15_133_cif.got.tgz:264041.got - 2010.06.03 18:47:42.
