data_PCOD9297104
_publ_section_title
;
Structure prediction by ZEFSAII (Michael W. Deem and Ramdas Pophale) SiO2 
 PCOD9297104
Probable space group: C 2/C
;
_chemical_formula_sum "Si O2"
_cell_formula_units_Z 52
_cell_length_a 15.953236
_cell_length_b 11.095526
_cell_length_c 14.666193
_cell_angle_alpha 90.000000
_cell_angle_beta 116.846009
_cell_angle_gamma 90.000000
_cell_volume 2316.262230
_symmetry_space_group_name_H-M "C 2/C"
_symmetry_group_IT_number 15
_symmetry_cell_setting 'monoclinic'
loop_
_space_group_symop_operation_xyz
x,y,z
-x,y,1/2-z
-x,-y,-z
x,-y,1/2+z
1/2+x,1/2+y,z
1/2-x,1/2+y,1/2-z
1/2-x,1/2-y,-z
1/2+x,1/2-y,1/2+z
loop_
_atom_site_type_symbol
_atom_site_label
_atom_site_fract_x
_atom_site_fract_y
_atom_site_fract_z
Si Si1 0.443358 0.617432 0.934866
Si Si2 0.829116 0.476070 0.888922
Si Si3 0.351225 0.583866 0.303106
Si Si4 0.260307 0.242409 0.895427
Si Si5 0.357131 0.791146 0.044335
Si Si6 0.000000 0.796170 0.750000
Si Si7 0.566828 0.176470 0.202965
O O1 0.358195 0.552546 0.840408
O O2 0.481100 0.715056 0.879942
O O3 0.500000 0.500000 0.000000
O O4 0.405173 0.698140 0.997621
O O5 0.734253 0.407682 0.809522
O O6 0.803015 0.613998 0.887696
O O7 0.903484 0.431539 0.850163
O O8 0.859465 0.421648 0.000115
O O9 0.330503 0.662276 0.382431
O O10 0.445195 0.622083 0.296537
O O11 0.160379 0.270987 0.798294
O O12 0.250000 0.250000 0.000000
O O13 0.418557 0.782319 0.164596
O O14 0.250000 0.750000 0.000000
O O15 0.500000 0.134387 0.250000
#
# Coordination Sequence:
#
# PCOD9297104 Si02
#       7
#     8   8   8   8   8   4   8
#     4  11  23  39  72 103 135 174 237 301 350 418
#     4  10  23  48  67  99 144 182 233 293 356 429
#     4  11  24  42  68 103 137 179 232 296 354 420
#     4  11  26  45  71  98 139 190 238 286 357 439
#     4  11  24  40  70 102 138 184 228 297 366 412
#     4  12  24  42  66 106 140 180 238 288 356 436
#     4  10  24  44  72 104 138 185 238 299 364 422
#
# _framework density 22.449961999999999
#
# number of rings (size 3 to 8) (size 9 to 14) (size 15 to 20)
#    0.000    1.231    4.615    0.000    5.385    0.000 
#    4.154    1.538    0.000    0.000    0.000    0.000 
#    0.000    0.000    0.000    0.000    0.000    0.000 
#
# Total GULP energy -145272.625705 kJ/mol
# GULP energy per Si atom -5587.408681 kJ/mol
# Density = 2.239886 g / cm^3
# Si number density = 22.449962 Si / 1000 Ang^3
#
#
#
# Elastic Constant Matrix: (Units=GPa)
#
#
# Indices 1 2 3 4 5 6 
#
# 1 84.1455 25.4860 6.3351 0.0000 -18.0008 0.0000
# 2 25.4860 86.7465 17.3193 0.0000 -15.8038 0.0000
# 3 6.3351 17.3193 96.7675 0.0000 -3.7716 0.0000
# 4 0.0000 0.0000 0.0000 23.6927 0.0000 8.0513
# 5 -18.0008 -15.8038 -3.7716 0.0000 36.4971 0.0000
# 6 0.0000 0.0000 0.0000 8.0513 0.0000 11.3979
#
#
#
# Elastic Compliance Matrix: (Units=1/GPa)
#
#
# Indices 1 2 3 4 5 6 
#
# 1 0.014017 -0.003074 -0.000151 0.000000 0.005567 0.000000
# 2 -0.003074 0.013602 -0.002071 0.000000 0.004160 0.000000
# 3 -0.000151 -0.002071 0.010720 0.000000 0.000137 0.000000
# 4 0.000000 0.000000 0.000000 0.055539 0.000000 -0.039232
# 5 0.005567 0.004160 0.000137 0.000000 0.031960 0.000000
# 6 0.000000 0.000000 0.000000 -0.039232 0.000000 0.115448
#
#
# Mechanical properties :
#
#
# Convention : Reuss Voigt Hill
#
# Bulk Modulus (GPa) = 36.03824 40.66005 38.34915
# Shear Modulus (GPa) = 19.14772 28.88549 24.01661
#
# Velocity S-wave (km/s) = 2.92362 3.59090 3.27430
# Velocity P-wave (km/s) = 5.24255 5.94504 5.60481
#
# Compressibility (1/GPa) = 0.02774831
#
# Stress axis : x y z
#
# Youngs Moduli (GPa) = 71.33945 73.51669 93.28426
#
# Poissons Ratio (x) = 0.22599 0.01404
# Poissons Ratio (y) = 0.21930 0.19321
# Poissons Ratio (z) = 0.01074 0.15226
#
# Static dielectric constant tensor:
#      x y z
#    x 1.826720 0.000000 0.033690 
#    y 0.000000 1.695240 0.000000 
#    z 0.033690 0.000000 1.885000 
# 
# From -- ./inp_files/152698.got.cif
#   From: 2010.05.17/outbox.cif.g08.bks.cpg/sg15_77_cif.got.tgz:152698.got - 2010.06.03 18:47:42.
