data_PCOD9297486
_publ_section_title
;
Structure prediction by ZEFSAII (Michael W. Deem and Ramdas Pophale) SiO2 
 PCOD9297486
Probable space group: C 2/C
;
_chemical_formula_sum "Si O2"
_cell_formula_units_Z 32
_cell_length_a 20.061832
_cell_length_b 12.286992
_cell_length_c 9.970444
_cell_angle_alpha 90.000000
_cell_angle_beta 147.126232
_cell_angle_gamma 90.000000
_cell_volume 1334.020458
_symmetry_space_group_name_H-M "C 2/C"
_symmetry_group_IT_number 15
_symmetry_cell_setting 'monoclinic'
loop_
_space_group_symop_operation_xyz
x,y,z
-x,y,1/2-z
-x,-y,-z
x,-y,1/2+z
1/2+x,1/2+y,z
1/2-x,1/2+y,1/2-z
1/2-x,1/2-y,-z
1/2+x,1/2-y,1/2+z
loop_
_atom_site_type_symbol
_atom_site_label
_atom_site_fract_x
_atom_site_fract_y
_atom_site_fract_z
Si Si1 0.542499 0.094220 0.973545
Si Si2 0.196952 0.825725 0.527413
Si Si3 0.000000 0.009251 0.750000
Si Si4 0.000000 0.000000 0.500000
Si Si5 0.867755 0.776851 0.788027
O O1 0.500000 0.076507 0.750000
O O2 0.478515 0.202961 0.922524
O O3 0.688496 0.104711 0.228752
O O4 0.500000 0.000000 0.000000
O O5 0.250000 0.750000 0.500000
O O6 0.085152 0.911994 0.298933
O O7 0.149365 0.763048 0.579529
O O8 0.929222 0.948140 0.518319
O O9 0.103474 0.902842 0.684591
O O10 0.750000 0.750000 0.500000
#
# Coordination Sequence:
#
# PCOD9297486 Si02
#       5
#     8   8   4   4   8
#     4  12  29  49  74 112 154 204 252 323 398 470
#     4  11  24  46  75 106 150 196 251 314 384 463
#     4  10  24  40  70 110 136 194 248 314 374 450
#     4  10  24  42  72 108 144 188 256 310 372 454
#     4  11  25  49  75 110 151 199 262 312 391 459
#
# _framework density 23.987638
#
# number of rings (size 3 to 8) (size 9 to 14) (size 15 to 20)
#    0.000    1.000    2.500    3.000    8.750    2.000 
#    4.500    0.000    0.000    0.000    0.000    0.000 
#    0.000    0.000    0.000    0.000    0.000    0.000 
#
# Total GULP energy -89074.791099 kJ/mol
# GULP energy per Si atom -5567.174444 kJ/mol
# Density = 2.393304 g / cm^3
# Si number density = 23.987638 Si / 1000 Ang^3
#
#
#
# Elastic Constant Matrix: (Units=GPa)
#
#
# Indices 1 2 3 4 5 6 
#
# 1 184.7395 52.8554 9.5828 0.0000 -28.5422 0.0000
# 2 52.8554 96.5787 24.1275 0.0000 -7.3387 0.0000
# 3 9.5828 24.1275 125.9402 0.0000 9.8849 0.0000
# 4 0.0000 0.0000 0.0000 20.1720 0.0000 16.2429
# 5 -28.5422 -7.3387 9.8849 0.0000 45.3954 0.0000
# 6 0.0000 0.0000 0.0000 16.2429 0.0000 58.3257
#
#
#
# Elastic Compliance Matrix: (Units=1/GPa)
#
#
# Indices 1 2 3 4 5 6 
#
# 1 0.007026 -0.003508 -0.000168 0.000000 0.003887 0.000000
# 2 -0.003508 0.012857 -0.002224 0.000000 0.000357 0.000000
# 3 -0.000168 -0.002224 0.008562 0.000000 -0.002329 0.000000
# 4 0.000000 0.000000 0.000000 0.063904 0.000000 -0.017796
# 5 0.003887 0.000357 -0.002329 0.000000 0.025038 0.000000
# 6 0.000000 0.000000 0.000000 -0.017796 0.000000 0.022101
#
#
# Mechanical properties :
#
#
# Convention : Reuss Voigt Hill
#
# Bulk Modulus (GPa) = 60.07736 64.48776 62.28256
# Shear Modulus (GPa) = 31.88067 46.15811 39.01939
#
# Velocity S-wave (km/s) = 3.64956 4.39138 4.03755
# Velocity P-wave (km/s) = 6.54665 7.25634 6.91061
#
# Compressibility (1/GPa) = 0.01664521
#
# Stress axis : x y z
#
# Youngs Moduli (GPa) = 142.33089 77.77961 116.79544
#
# Poissons Ratio (x) = 0.27284 0.01958
# Poissons Ratio (y) = 0.49928 0.25978
# Poissons Ratio (z) = 0.02386 0.17300
#
# Static dielectric constant tensor:
#      x y z
#    x -38.541230 0.000000 39.499930 
#    y 0.000000 1.651700 0.000000 
#    z 39.499930 0.000000 -36.558350 
# 
# From -- ./inp_files/111934.got.cif
#   From: 2010.05.17/outbox.cif.g08.bks.cpg/sg15_56_cif.got.tgz:111934.got - 2010.06.03 18:47:42.
