data_PCOD9297803
_publ_section_title
;
Structure prediction by ZEFSAII (Michael W. Deem and Ramdas Pophale) SiO2 
 PCOD9297803
Probable space group: C 2/C
;
_chemical_formula_sum "Si O2"
_cell_formula_units_Z 48
_cell_length_a 9.932124
_cell_length_b 9.454596
_cell_length_c 20.861160
_cell_angle_alpha 90.000000
_cell_angle_beta 87.767826
_cell_angle_gamma 90.000000
_cell_volume 1957.464508
_symmetry_space_group_name_H-M "C 2/C"
_symmetry_group_IT_number 15
_symmetry_cell_setting 'monoclinic'
loop_
_space_group_symop_operation_xyz
x,y,z
-x,y,1/2-z
-x,-y,-z
x,-y,1/2+z
1/2+x,1/2+y,z
1/2-x,1/2+y,1/2-z
1/2-x,1/2-y,-z
1/2+x,1/2-y,1/2+z
loop_
_atom_site_type_symbol
_atom_site_label
_atom_site_fract_x
_atom_site_fract_y
_atom_site_fract_z
Si Si1 0.080912 0.582947 0.553263
Si Si2 0.687348 0.551124 0.385646
Si Si3 0.081212 0.912105 0.551386
Si Si4 0.587847 0.988605 0.312037
Si Si5 0.184989 0.145923 0.625276
Si Si6 0.589990 0.681740 0.810339
O O1 0.235294 0.534022 0.560252
O O2 0.000000 0.500000 0.500000
O O3 0.095653 0.748161 0.535764
O O4 0.002071 0.549637 0.622537
O O5 0.531580 0.594229 0.390103
O O6 0.758837 0.700933 0.390653
O O7 0.695131 0.440036 0.326748
O O8 0.000000 0.000000 0.500000
O O9 0.197882 0.012756 0.577118
O O10 0.500000 0.961578 0.250000
O O11 0.631542 0.154497 0.308183
O O12 0.724940 0.899305 0.315701
O O13 0.026397 0.175193 0.633385
O O14 0.500000 0.650127 0.750000
#
# Coordination Sequence:
#
# PCOD9297803 Si02
#       6
#     8   8   8   8   8   8
#     4  12  26  44  72 102 136 183 228 283 348 406
#     4  11  24  44  68  98 139 175 229 281 342 407
#     4  11  26  44  69  99 133 184 225 285 345 405
#     4  11  25  46  69 101 140 181 227 281 343 410
#     4  11  23  44  67  97 138 178 228 282 342 412
#     4  10  24  42  68 101 134 182 229 282 341 404
#
# _framework density 24.521516999999999
#
# number of rings (size 3 to 8) (size 9 to 14) (size 15 to 20)
#    0.000    1.000    3.333    2.000    7.000    2.667 
#    0.000    0.000    0.000    0.000    0.000    0.000 
#    0.000    0.000    0.000    0.000    0.000    0.000 
#
# Total GULP energy -133874.853607 kJ/mol
# GULP energy per Si atom -5578.118900 kJ/mol
# Density = 2.446570 g / cm^3
# Si number density = 24.521517 Si / 1000 Ang^3
#
#
#
# Elastic Constant Matrix: (Units=GPa)
#
#
# Indices 1 2 3 4 5 6 
#
# 1 49.6854 17.0130 -9.1393 0.0000 10.6376 0.0000
# 2 17.0130 235.3289 61.0708 0.0000 42.0461 0.0000
# 3 -9.1393 61.0708 124.7112 0.0000 21.1509 0.0000
# 4 0.0000 0.0000 0.0000 40.9729 0.0000 21.2998
# 5 10.6376 42.0461 21.1509 0.0000 36.5880 0.0000
# 6 0.0000 0.0000 0.0000 21.2998 0.0000 40.6890
#
#
#
# Elastic Compliance Matrix: (Units=1/GPa)
#
#
# Indices 1 2 3 4 5 6 
#
# 1 0.022744 -0.001272 0.003507 0.000000 -0.007178 0.000000
# 2 -0.001272 0.005786 -0.002064 0.000000 -0.005086 0.000000
# 3 0.003507 -0.002064 0.010041 0.000000 -0.004453 0.000000
# 4 0.000000 0.000000 0.000000 0.033531 0.000000 -0.017553
# 5 -0.007178 -0.005086 -0.004453 0.000000 0.037837 0.000000
# 6 0.000000 0.000000 0.000000 -0.017553 0.000000 0.033765
#
#
# Mechanical properties :
#
#
# Convention : Reuss Voigt Hill
#
# Bulk Modulus (GPa) = 25.69781 60.84605 43.27193
# Shear Modulus (GPa) = 31.98299 46.36870 39.17585
#
# Velocity S-wave (km/s) = 3.61540 4.35321 4.00135
# Velocity P-wave (km/s) = 5.28494 7.08057 6.24760
#
# Compressibility (1/GPa) = 0.03891382
#
# Stress axis : x y z
#
# Youngs Moduli (GPa) = 43.96737 172.84289 99.58806
#
# Poissons Ratio (x) = 0.21983 -0.34926
# Poissons Ratio (y) = 0.05592 0.20553
# Poissons Ratio (z) = -0.15420 0.35672
#
# Static dielectric constant tensor:
#      x y z
#    x 2.125520 0.000000 -0.208310 
#    y 0.000000 1.980280 0.000000 
#    z -0.208310 0.000000 2.158370 
# 
# From -- ./inp_files/268011.got.cif
#   From: 2010.05.17/outbox.cif.g08.bks.cpg/sg15_135_cif.got.tgz:268011.got - 2010.06.03 18:47:42.
