data_PCOD9297309
_publ_section_title
;
Structure prediction by ZEFSAII (Michael W. Deem and Ramdas Pophale) SiO2 
 PCOD9297309
Probable space group: C 2/C
;
_chemical_formula_sum "Si O2"
_cell_formula_units_Z 52
_cell_length_a 11.296806
_cell_length_b 27.769165
_cell_length_c 7.049089
_cell_angle_alpha 90.000000
_cell_angle_beta 63.904029
_cell_angle_gamma 90.000000
_cell_volume 1985.894249
_symmetry_space_group_name_H-M "C 2/C"
_symmetry_group_IT_number 15
_symmetry_cell_setting 'monoclinic'
loop_
_space_group_symop_operation_xyz
x,y,z
-x,y,1/2-z
-x,-y,-z
x,-y,1/2+z
1/2+x,1/2+y,z
1/2-x,1/2+y,1/2-z
1/2-x,1/2-y,-z
1/2+x,1/2-y,1/2+z
loop_
_atom_site_type_symbol
_atom_site_label
_atom_site_fract_x
_atom_site_fract_y
_atom_site_fract_z
Si Si1 0.005390 0.685960 0.975049
Si Si2 0.755927 0.373324 0.639947
Si Si3 0.838443 0.993812 0.013427
Si Si4 0.000000 0.905809 0.750000
Si Si5 0.000000 0.075268 0.750000
Si Si6 0.000000 0.227409 0.750000
Si Si7 0.285392 0.651043 0.773122
Si Si8 0.648732 0.015819 0.391128
O O1 0.000000 0.688939 0.750000
O O2 0.132209 0.653441 0.940931
O O3 0.864676 0.664095 0.138126
O O4 0.028673 0.737378 0.053447
O O5 0.600665 0.375180 0.811956
O O6 0.730236 0.355810 0.441722
O O7 0.827004 0.425693 0.620744
O O8 0.936067 0.038416 0.945016
O O9 0.803666 0.005682 0.778713
O O10 0.674665 0.999005 0.124020
O O11 0.895688 0.941745 0.920969
O O12 0.124536 0.107814 0.717033
O O13 0.128006 0.196444 0.720011
O O14 0.500000 0.000000 0.500000
#
# Coordination Sequence:
#
# PCOD9297309 Si02
#       8
#     8   8   8   4   4   4   8   8
#     4  10  24  47  75 108 147 187 239 310 373 459
#     4  10  24  42  70 102 145 189 244 291 368 434
#     4  10  24  39  65  95 139 193 248 297 347 425
#     4   9  22  43  66 100 144 194 250 297 362 423
#     4  10  24  38  68  98 142 184 246 300 356 426
#     4  11  24  51  76 112 142 186 238 305 392 457
#     4  10  24  46  71 105 142 186 235 303 375 446
#     4  11  25  43  65 100 146 196 245 304 358 421
#
# _framework density 26.184677000000001
#
# number of rings (size 3 to 8) (size 9 to 14) (size 15 to 20)
#    0.000    1.846    0.000    0.923   10.769   11.692 
#    6.923    0.000    0.000    0.000    0.000    0.000 
#    0.000    0.000    0.000    0.000    0.000    0.000 
#
# Total GULP energy -144947.089014 kJ/mol
# GULP energy per Si atom -5574.888039 kJ/mol
# Density = 2.612508 g / cm^3
# Si number density = 26.184677 Si / 1000 Ang^3
#
#
#
# Elastic Constant Matrix: (Units=GPa)
#
#
# Indices 1 2 3 4 5 6 
#
# 1 229.3215 57.3713 67.4565 0.0000 -17.8840 0.0000
# 2 57.3713 119.2998 29.8297 0.0000 -11.7694 0.0000
# 3 67.4565 29.8297 164.5642 0.0000 -11.3992 0.0000
# 4 0.0000 0.0000 0.0000 40.2878 0.0000 8.2789
# 5 -17.8840 -11.7694 -11.3992 0.0000 69.8216 0.0000
# 6 0.0000 0.0000 0.0000 8.2789 0.0000 34.6209
#
#
#
# Elastic Compliance Matrix: (Units=1/GPa)
#
#
# Indices 1 2 3 4 5 6 
#
# 1 0.005480 -0.002108 -0.001812 0.000000 0.000752 0.000000
# 2 -0.002108 0.009697 -0.000827 0.000000 0.000960 0.000000
# 3 -0.001812 -0.000827 0.007007 0.000000 0.000540 0.000000
# 4 0.000000 0.000000 0.000000 0.026104 0.000000 -0.006242
# 5 0.000752 0.000960 0.000540 0.000000 0.014765 0.000000
# 6 0.000000 0.000000 0.000000 -0.006242 0.000000 0.030377
#
#
# Mechanical properties :
#
#
# Convention : Reuss Voigt Hill
#
# Bulk Modulus (GPa) = 78.80446 91.38896 85.09671
# Shear Modulus (GPa) = 46.66166 52.84791 49.75479
#
# Velocity S-wave (km/s) = 4.22598 4.49740 4.36380
# Velocity P-wave (km/s) = 7.34662 7.87059 7.61312
#
# Compressibility (1/GPa) = 0.01268964
#
# Stress axis : x y z
#
# Youngs Moduli (GPa) = 182.49075 103.11971 142.71860
#
# Poissons Ratio (x) = 0.21737 0.25860
# Poissons Ratio (y) = 0.38467 0.11807
# Poissons Ratio (z) = 0.33067 0.08531
#
# Static dielectric constant tensor:
#      x y z
#    x 2.352360 0.000000 0.490430 
#    y 0.000000 2.016450 0.000000 
#    z 0.490430 0.000000 2.755660 
# 
# From -- ./inp_files/34144.got.cif
#   From: 2010.05.17/outbox.cif.g08.bks.cpg/sg15_18_cif.got.tgz:34144.got - 2010.06.03 18:47:42.
