data_PCOD9297664
_publ_section_title
;
Structure prediction by ZEFSAII (Michael W. Deem and Ramdas Pophale) SiO2 
 PCOD9297664
Probable space group: C 2/C
;
_chemical_formula_sum "Si O2"
_cell_formula_units_Z 60
_cell_length_a 9.064741
_cell_length_b 21.838019
_cell_length_c 13.810545
_cell_angle_alpha 90.000000
_cell_angle_beta 101.899411
_cell_angle_gamma 90.000000
_cell_volume 2675.131993
_symmetry_space_group_name_H-M "C 2/C"
_symmetry_group_IT_number 15
_symmetry_cell_setting 'monoclinic'
loop_
_space_group_symop_operation_xyz
x,y,z
-x,y,1/2-z
-x,-y,-z
x,-y,1/2+z
1/2+x,1/2+y,z
1/2-x,1/2+y,1/2-z
1/2-x,1/2-y,-z
1/2+x,1/2-y,1/2+z
loop_
_atom_site_type_symbol
_atom_site_label
_atom_site_fract_x
_atom_site_fract_y
_atom_site_fract_z
Si Si1 0.428720 0.708093 0.084459
Si Si2 0.736918 0.517266 0.996742
Si Si3 0.252626 0.144878 0.740325
Si Si4 0.000000 0.638021 0.250000
Si Si5 0.974615 0.649207 0.587847
Si Si6 0.738886 0.713519 0.243035
Si Si7 0.058893 0.443673 0.592567
Si Si8 0.051306 0.096137 0.561919
O O1 0.436781 0.779990 0.054194
O O2 0.584939 0.703128 0.164548
O O3 0.301100 0.697157 0.149912
O O4 0.423837 0.657788 0.998922
O O5 0.815249 0.494325 0.908211
O O6 0.620894 0.572758 0.968616
O O7 0.646840 0.460029 0.029454
O O8 0.887815 0.531702 0.078420
O O9 0.368863 0.137746 0.666020
O O10 0.355529 0.136828 0.849910
O O11 0.213336 0.216155 0.742470
O O12 0.110879 0.107933 0.678937
O O13 0.867370 0.681232 0.196921
O O14 0.911738 0.595792 0.310949
O O15 0.942591 0.602078 0.498639
#
# Coordination Sequence:
#
# PCOD9297664 Si02
#       8
#     8   8   8   4   8   8   8   8
#     4   9  19  37  67  94 130 166 200 263 339 393
#     4  10  24  42  62  91 128 165 225 265 311 386
#     4   9  19  37  64  98 129 163 207 259 333 396
#     4  12  24  38  66  92 126 168 214 270 316 372
#     4   9  19  39  67  97 126 169 207 257 332 407
#     4   9  20  37  57  97 135 159 208 256 321 408
#     4  11  23  45  63  91 128 174 220 261 315 389
#     4  11  20  39  68  95 126 165 210 278 328 368
#
# _framework density 22.428799000000001
#
# number of rings (size 3 to 8) (size 9 to 14) (size 15 to 20)
#    0.000    2.133    1.333    3.200    1.867    1.067 
#    9.600    3.333   11.733    0.000    0.000    0.000 
#    0.000    0.000    0.000    0.000    0.000    0.000 
#
# Total GULP energy -167333.588732 kJ/mol
# GULP energy per Si atom -5577.786291 kJ/mol
# Density = 2.237775 g / cm^3
# Si number density = 22.428799 Si / 1000 Ang^3
#
#
#
# Elastic Constant Matrix: (Units=GPa)
#
#
# Indices 1 2 3 4 5 6 
#
# 1 71.8130 22.1826 -5.2024 0.0000 8.2499 0.0000
# 2 22.1826 84.5153 19.8400 0.0000 -6.0600 0.0000
# 3 -5.2024 19.8400 44.3266 0.0000 4.1029 0.0000
# 4 0.0000 0.0000 0.0000 6.0092 0.0000 15.1474
# 5 8.2499 -6.0600 4.1029 0.0000 18.6612 0.0000
# 6 0.0000 0.0000 0.0000 15.1474 0.0000 38.2589
#
#
#
# Elastic Compliance Matrix: (Units=1/GPa)
#
#
# Indices 1 2 3 4 5 6 
#
# 1 0.017871 -0.006998 0.006299 0.000000 -0.011558 0.000000
# 2 -0.006998 0.016586 -0.009218 0.000000 0.010507 0.000000
# 3 0.006299 -0.009218 0.028540 0.000000 -0.012053 0.000000
# 4 0.000000 0.000000 0.000000 82.754396 0.000000-32.763913
# 5 -0.011558 0.010507 -0.012053 0.000000 0.064759 0.000000
# 6 0.000000 0.000000 0.000000-32.763913 0.000000 12.997944
#
#
# Mechanical properties :
#
#
# Convention : Reuss Voigt Hill
#
# Bulk Modulus (GPa) = 23.16683 30.47724 26.82204
# Shear Modulus (GPa) = 0.05213 23.50817 11.78015
#
# Velocity S-wave (km/s) = 0.15262 3.24099 2.29426
# Velocity P-wave (km/s) = 3.22219 5.25578 4.35923
#
# Compressibility (1/GPa) = 0.04316516
#
# Stress axis : x y z
#
# Youngs Moduli (GPa) = 55.95698 60.29138 35.03798
#
# Poissons Ratio (x) = 0.42192 -0.22072
# Poissons Ratio (y) = 0.39159 0.32296
# Poissons Ratio (z) = -0.35250 0.55574
#
# Static dielectric constant tensor:
#      x y z
#    x 1.890630 0.000000 -0.003040 
#    y 0.000000 1.865710 0.000000 
#    z -0.003040 0.000000 1.872510 
# 
# From -- ./inp_files/137903.got.cif
#   From: 2010.05.17/outbox.cif.g08.bks.cpg/sg15_69_cif.got.tgz:137903.got - 2010.06.03 18:47:42.
