data_PCOD9297827
_publ_section_title
;
Structure prediction by ZEFSAII (Michael W. Deem and Ramdas Pophale) SiO2 
 PCOD9297827
Probable space group: C 2/C
;
_chemical_formula_sum "Si O2"
_cell_formula_units_Z 64
_cell_length_a 13.704073
_cell_length_b 9.933396
_cell_length_c 22.452027
_cell_angle_alpha 90.000000
_cell_angle_beta 115.514991
_cell_angle_gamma 90.000000
_cell_volume 2758.271424
_symmetry_space_group_name_H-M "C 2/C"
_symmetry_group_IT_number 15
_symmetry_cell_setting 'monoclinic'
loop_
_space_group_symop_operation_xyz
x,y,z
-x,y,1/2-z
-x,-y,-z
x,-y,1/2+z
1/2+x,1/2+y,z
1/2-x,1/2+y,1/2-z
1/2-x,1/2-y,-z
1/2+x,1/2-y,1/2+z
loop_
_atom_site_type_symbol
_atom_site_label
_atom_site_fract_x
_atom_site_fract_y
_atom_site_fract_z
Si Si1 0.174155 0.150072 0.222212
Si Si2 0.103720 0.788539 0.358545
Si Si3 0.789477 0.469486 0.635520
Si Si4 0.368409 0.661931 0.772570
Si Si5 0.407638 0.393996 0.480994
Si Si6 0.565188 0.117007 0.987265
Si Si7 0.687430 0.425197 0.915552
Si Si8 0.447328 0.190390 0.655481
O O1 0.219464 0.104737 0.168527
O O2 0.269406 0.248355 0.270890
O O3 0.064565 0.239531 0.195719
O O4 0.154213 0.998174 0.241207
O O5 0.160713 0.649828 0.392378
O O6 0.110129 0.785523 0.288375
O O7 0.977151 0.812357 0.338955
O O8 0.167145 0.921282 0.393978
O O9 0.701003 0.565507 0.581559
O O10 0.893062 0.565506 0.677610
O O11 0.500000 0.500000 0.500000
O O12 0.462849 0.252136 0.484418
O O13 0.376416 0.392306 0.541534
O O14 0.549703 0.133520 0.912062
O O15 0.690129 0.099197 0.035818
O O16 0.500000 0.000000 0.000000
O O17 0.635833 0.315575 0.857820
#
# Coordination Sequence:
#
# PCOD9297827 Si02
#       8
#     8   8   8   8   8   8   8   8
#     4  11  25  45  71  94 134 169 229 284 344 402
#     4  10  24  42  68  90 132 169 221 277 337 384
#     4  11  23  43  65  98 131 177 213 269 338 405
#     4  10  24  47  63  96 127 169 225 289 329 396
#     4  11  23  40  62  93 138 172 217 265 327 402
#     4  11  24  40  63  97 136 175 221 265 327 401
#     4  11  21  43  65  94 137 174 215 271 321 408
#     4  11  22  45  67  95 134 179 214 271 337 401
#
# _framework density 23.202938
#
# number of rings (size 3 to 8) (size 9 to 14) (size 15 to 20)
#    0.000    1.250    3.750    2.250    7.000    2.500 
#    0.000    0.000    0.000    0.000    0.000    0.000 
#    0.000    0.000    0.000    0.000    0.000    0.000 
#
# Total GULP energy -178623.293683 kJ/mol
# GULP energy per Si atom -5581.977928 kJ/mol
# Density = 2.315013 g / cm^3
# Si number density = 23.202938 Si / 1000 Ang^3
#
#
#
# Elastic Constant Matrix: (Units=GPa)
#
#
# Indices 1 2 3 4 5 6 
#
# 1 84.3133 37.9178 9.4243 0.0000 25.0422 0.0000
# 2 37.9178 163.8609 10.1300 0.0000 20.2311 0.0000
# 3 9.4243 10.1300 35.6850 0.0000 7.0698 0.0000
# 4 0.0000 0.0000 0.0000 25.8081 0.0000 16.4194
# 5 25.0422 20.2311 7.0698 0.0000 26.3834 0.0000
# 6 0.0000 0.0000 0.0000 16.4194 0.0000 -19.3695
#
#
#
# Elastic Compliance Matrix: (Units=1/GPa)
#
#
# Indices 1 2 3 4 5 6 
#
# 1 0.017227 -0.002139 -0.001085 0.000000 -0.014420 0.000000
# 2 -0.002139 0.007036 -0.000809 0.000000 -0.003149 0.000000
# 3 -0.001085 -0.000809 0.029794 0.000000 -0.006333 0.000000
# 4 0.000000 0.000000 0.000000 0.025172 0.000000 0.021338
# 5 -0.014420 -0.003149 -0.006333 0.000000 0.055701 0.000000
# 6 0.000000 0.000000 0.000000 0.021338 0.000000 -0.033539
#
#
# Mechanical properties :
#
#
# Convention : Reuss Voigt Hill
#
# Bulk Modulus (GPa) = 21.74342 44.31149 33.02746
# Shear Modulus (GPa) = 40.06817 21.65688 30.86253
#
# Velocity S-wave (km/s) = 4.16006 3.05842 3.65103
# Velocity P-wave (km/s) = 5.69790 5.62234 5.66025
#
# Compressibility (1/GPa) = 0.04599092
#
# Stress axis : x y z
#
# Youngs Moduli (GPa) = 58.04943 142.11751 33.56385
#
# Poissons Ratio (x) = 0.30396 0.03643
# Poissons Ratio (y) = 0.12416 0.02715
# Poissons Ratio (z) = 0.06301 0.11494
#
# Static dielectric constant tensor:
#      x y z
#    x 1.917770 0.000000 -0.116090 
#    y 0.000000 2.588910 0.000000 
#    z -0.116090 0.000000 2.078350 
# 
# From -- ./inp_files/313177.got.cif
#   From: 2010.05.17/outbox.cif.g08.bks.cpg/sg15_157_cif.got.tgz:313177.got - 2010.06.03 18:47:42.
