data_PCOD9297542
_publ_section_title
;
Structure prediction by ZEFSAII (Michael W. Deem and Ramdas Pophale) SiO2 
 PCOD9297542
Probable space group: C 2/C
;
_chemical_formula_sum "Si O2"
_cell_formula_units_Z 48
_cell_length_a 10.895260
_cell_length_b 8.769355
_cell_length_c 22.755771
_cell_angle_alpha 90.000000
_cell_angle_beta 96.562070
_cell_angle_gamma 90.000000
_cell_volume 2159.942664
_symmetry_space_group_name_H-M "C 2/C"
_symmetry_group_IT_number 15
_symmetry_cell_setting 'monoclinic'
loop_
_space_group_symop_operation_xyz
x,y,z
-x,y,1/2-z
-x,-y,-z
x,-y,1/2+z
1/2+x,1/2+y,z
1/2-x,1/2+y,1/2-z
1/2-x,1/2-y,-z
1/2+x,1/2-y,1/2+z
loop_
_atom_site_type_symbol
_atom_site_label
_atom_site_fract_x
_atom_site_fract_y
_atom_site_fract_z
Si Si1 0.210348 0.034206 0.110817
Si Si2 0.442776 0.078490 0.421562
Si Si3 0.688476 0.704713 0.419547
Si Si4 0.471388 0.461333 0.682795
Si Si5 0.451787 0.244846 0.967660
Si Si6 0.055830 0.312920 0.815094
O O1 0.159047 0.146191 0.056764
O O2 0.322254 0.104964 0.154415
O O3 0.093663 0.022229 0.148884
O O4 0.259605 0.874973 0.087566
O O5 0.307781 0.104752 0.440080
O O6 0.541104 0.166445 0.468333
O O7 0.453387 0.150138 0.358515
O O8 0.460936 0.898274 0.423402
O O9 0.624278 0.645317 0.356479
O O10 0.583837 0.676825 0.462925
O O11 0.500000 0.404767 0.750000
O O12 0.419165 0.632527 0.686244
O O13 0.000000 0.363120 0.750000
#
# Coordination Sequence:
#
# PCOD9297542 Si02
#       6
#     8   8   8   8   8   8
#     4  11  23  42  63  94 127 162 211 262 309 374
#     4  11  22  43  65  92 127 168 206 261 315 374
#     4  11  22  42  63  95 125 160 212 259 313 367
#     4  10  24  41  63  91 125 171 208 255 315 376
#     4  10  24  43  64  92 127 165 212 255 319 373
#     4  11  24  43  64  94 128 165 209 257 316 372
#
# _framework density 22.222812999999999
#
# number of rings (size 3 to 8) (size 9 to 14) (size 15 to 20)
#    0.000    1.333    3.333    1.500    2.333    2.000 
#    3.000    0.000    0.000    0.000    0.000    0.000 
#    0.000    0.000    0.000    0.000    0.000    0.000 
#
# Total GULP energy -134197.147461 kJ/mol
# GULP energy per Si atom -5591.547811 kJ/mol
# Density = 2.217223 g / cm^3
# Si number density = 22.222813 Si / 1000 Ang^3
#
#
#
# Elastic Constant Matrix: (Units=GPa)
#
#
# Indices 1 2 3 4 5 6 
#
# 1 97.4036 15.8448 3.0375 0.0000 25.3971 0.0000
# 2 15.8448 47.1751 27.6788 0.0000 13.6085 0.0000
# 3 3.0375 27.6788 97.5110 0.0000 11.7580 0.0000
# 4 0.0000 0.0000 0.0000 30.2582 0.0000 9.1828
# 5 25.3971 13.6085 11.7580 0.0000 26.2980 0.0000
# 6 0.0000 0.0000 0.0000 9.1828 0.0000 28.5712
#
#
#
# Elastic Compliance Matrix: (Units=1/GPa)
#
#
# Indices 1 2 3 4 5 6 
#
# 1 0.013984 -0.001854 0.001695 0.000000 -0.013303 0.000000
# 2 -0.001854 0.028753 -0.006898 0.000000 -0.010005 0.000000
# 3 0.001695 -0.006898 0.012607 0.000000 -0.003704 0.000000
# 4 0.000000 0.000000 0.000000 0.036621 0.000000 -0.011770
# 5 -0.013303 -0.010005 -0.003704 0.000000 0.057707 0.000000
# 6 0.000000 0.000000 0.000000 -0.011770 0.000000 0.038783
#
#
# Mechanical properties :
#
#
# Convention : Reuss Voigt Hill
#
# Bulk Modulus (GPa) = 24.25332 37.24579 30.74956
# Shear Modulus (GPa) = 23.11477 30.06071 26.58774
#
# Velocity S-wave (km/s) = 3.22861 3.68189 3.46268
# Velocity P-wave (km/s) = 4.98357 5.90522 5.46387
#
# Compressibility (1/GPa) = 0.04123147
#
# Stress axis : x y z
#
# Youngs Moduli (GPa) = 71.51038 34.77859 79.32113
#
# Poissons Ratio (x) = 0.06446 -0.13442
# Poissons Ratio (y) = 0.13254 0.54712
# Poissons Ratio (z) = -0.12119 0.23989
#
# Static dielectric constant tensor:
#      x y z
#    x 1.840460 0.000000 -0.026070 
#    y 0.000000 1.799320 0.000000 
#    z -0.026070 0.000000 1.807640 
# 
# From -- ./inp_files/267656.got.cif
#   From: 2010.05.17/outbox.cif.g08.bks.cpg/sg15_134_cif.got.tgz:267656.got - 2010.06.03 18:47:42.
