data_PCOD9297623
_publ_section_title
;
Structure prediction by ZEFSAII (Michael W. Deem and Ramdas Pophale) SiO2 
 PCOD9297623
Probable space group: C 2/C
;
_chemical_formula_sum "Si O2"
_cell_formula_units_Z 56
_cell_length_a 13.702718
_cell_length_b 12.139182
_cell_length_c 15.200185
_cell_angle_alpha 90.000000
_cell_angle_beta 99.372639
_cell_angle_gamma 90.000000
_cell_volume 2494.641576
_symmetry_space_group_name_H-M "C 2/C"
_symmetry_group_IT_number 15
_symmetry_cell_setting 'monoclinic'
loop_
_space_group_symop_operation_xyz
x,y,z
-x,y,1/2-z
-x,-y,-z
x,-y,1/2+z
1/2+x,1/2+y,z
1/2-x,1/2+y,1/2-z
1/2-x,1/2-y,-z
1/2+x,1/2-y,1/2+z
loop_
_atom_site_type_symbol
_atom_site_label
_atom_site_fract_x
_atom_site_fract_y
_atom_site_fract_z
Si Si1 0.765587 0.587008 0.847329
Si Si2 0.658756 0.236333 0.922386
Si Si3 0.601113 0.500883 0.204676
Si Si4 0.391690 0.256817 0.773944
Si Si5 0.890797 0.495719 0.527246
Si Si6 0.031468 0.878469 0.031802
Si Si7 0.847900 0.260578 0.574504
O O1 0.701451 0.511947 0.774594
O O2 0.859720 0.650881 0.823213
O O3 0.806429 0.523054 0.939098
O O4 0.687664 0.687835 0.849688
O O5 0.675361 0.265352 0.823522
O O6 0.750000 0.250000 0.000000
O O7 0.581831 0.318540 0.957413
O O8 0.625536 0.109648 0.925256
O O9 0.500000 0.493269 0.250000
O O10 0.607600 0.628077 0.173481
O O11 0.596417 0.408502 0.128021
O O12 0.500000 0.241603 0.750000
O O13 0.877366 0.387764 0.586172
O O14 0.000000 0.500000 0.500000
O O15 0.939954 0.803431 0.046737
O O16 0.000000 0.000000 0.000000
O O17 0.750000 0.250000 0.500000
#
# Coordination Sequence:
#
# PCOD9297623 Si02
#       7
#     8   8   8   8   8   8   8
#     4  11  24  44  67  99 139 180 233 285 347 415
#     4  12  26  43  68 103 137 178 231 282 341 413
#     4  11  23  42  67  99 136 176 230 292 344 406
#     4  11  25  44  67  96 138 181 227 279 350 413
#     4  11  23  44  71  98 141 180 228 284 349 416
#     4  12  25  42  72 100 132 179 235 286 337 415
#     4  10  24  41  70 100 133 181 229 280 349 411
#
# _framework density 22.448114
#
# number of rings (size 3 to 8) (size 9 to 14) (size 15 to 20)
#    0.000    0.857    2.857    4.286   10.000    1.143 
#    0.000    0.000    3.143    0.000    0.000    0.000 
#    0.000    0.000    0.000    0.000    0.000    0.000 
#
# Total GULP energy -156475.969492 kJ/mol
# GULP energy per Si atom -5588.427482 kJ/mol
# Density = 2.239702 g / cm^3
# Si number density = 22.448114 Si / 1000 Ang^3
#
#
#
# Elastic Constant Matrix: (Units=GPa)
#
#
# Indices 1 2 3 4 5 6 
#
# 1 35.0123 15.7460 -17.6523 0.0000 15.4134 0.0000
# 2 15.7460 160.1917 16.8238 0.0000 -3.0510 0.0000
# 3 -17.6523 16.8238 59.2725 0.0000 17.3316 0.0000
# 4 0.0000 0.0000 0.0000 30.8661 0.0000 -0.2055
# 5 15.4134 -3.0510 17.3316 0.0000 33.1780 0.0000
# 6 0.0000 0.0000 0.0000 -0.2055 0.0000 33.4884
#
#
#
# Elastic Compliance Matrix: (Units=1/GPa)
#
#
# Indices 1 2 3 4 5 6 
#
# 1 0.099217 -0.017226 0.057101 0.000000 -0.077505 0.000000
# 2 -0.017226 0.009520 -0.012308 0.000000 0.015307 0.000000
# 3 0.057101 -0.012308 0.053653 0.000000 -0.055687 0.000000
# 4 0.000000 0.000000 0.000000 0.032399 0.000000 0.000199
# 5 -0.077505 0.015307 -0.055687 0.000000 0.096644 0.000000
# 6 0.000000 0.000000 0.000000 0.000199 0.000000 0.029862
#
#
# Mechanical properties :
#
#
# Convention : Reuss Voigt Hill
#
# Bulk Modulus (GPa) = 4.59719 31.59017 18.09368
# Shear Modulus (GPa) = 14.76362 35.47711 25.12036
#
# Velocity S-wave (km/s) = 2.56730 3.97974 3.34884
# Velocity P-wave (km/s) = 3.29248 5.93472 4.79903
#
# Compressibility (1/GPa) = 0.21752427
#
# Stress axis : x y z
#
# Youngs Moduli (GPa) = 10.07891 105.04315 18.63818
#
# Poissons Ratio (x) = 1.80943 -1.06425
# Poissons Ratio (y) = 0.17362 0.22940
# Poissons Ratio (z) = -0.57551 1.29289
#
# Static dielectric constant tensor:
#      x y z
#    x 1.796650 0.000000 -0.019870 
#    y 0.000000 1.747020 0.000000 
#    z -0.019870 0.000000 1.905540 
# 
# From -- ./inp_files/152593.got.cif
#   From: 2010.05.17/outbox.cif.g08.bks.cpg/sg15_77_cif.got.tgz:152593.got - 2010.06.03 18:47:42.
