data_PCOD9297550
_publ_section_title
;
Structure prediction by ZEFSAII (Michael W. Deem and Ramdas Pophale) SiO2 
 PCOD9297550
Probable space group: C 2/C
;
_chemical_formula_sum "Si O2"
_cell_formula_units_Z 48
_cell_length_a 12.034918
_cell_length_b 21.311613
_cell_length_c 13.144950
_cell_angle_alpha 90.000000
_cell_angle_beta 40.951111
_cell_angle_gamma 90.000000
_cell_volume 2209.706789
_symmetry_space_group_name_H-M "C 2/C"
_symmetry_group_IT_number 15
_symmetry_cell_setting 'monoclinic'
loop_
_space_group_symop_operation_xyz
x,y,z
-x,y,1/2-z
-x,-y,-z
x,-y,1/2+z
1/2+x,1/2+y,z
1/2-x,1/2+y,1/2-z
1/2-x,1/2-y,-z
1/2+x,1/2-y,1/2+z
loop_
_atom_site_type_symbol
_atom_site_label
_atom_site_fract_x
_atom_site_fract_y
_atom_site_fract_z
Si Si1 0.658083 0.572465 0.422550
Si Si2 0.709066 0.161390 0.450725
Si Si3 0.500000 0.132082 0.250000
Si Si4 0.500000 0.751955 0.250000
Si Si5 0.076229 0.948915 0.595082
Si Si6 0.950949 0.817517 0.166531
Si Si7 0.074433 0.691416 0.992058
O O1 0.652928 0.502007 0.470001
O O2 0.580126 0.576949 0.363693
O O3 0.535224 0.617467 0.573849
O O4 0.849614 0.594069 0.302323
O O5 0.599791 0.204350 0.603273
O O6 0.859087 0.204933 0.302699
O O7 0.795462 0.104725 0.453688
O O8 0.571764 0.149689 0.458553
O O9 0.591070 0.170863 0.097849
O O10 0.000000 0.978686 0.750000
O O11 0.747219 0.817040 0.310733
O O12 0.000000 0.804115 0.250000
O O13 0.016522 0.763707 0.044209
#
# Coordination Sequence:
#
# PCOD9297550 Si02
#       7
#     8   8   4   4   8   8   8
#     4  11  27  46  73  97 140 185 240 287 345 420
#     4  11  24  43  67 102 140 179 224 288 347 423
#     4  12  24  45  64 107 132 180 230 290 344 416
#     4  10  24  41  64 103 138 172 222 282 360 408
#     4  11  25  49  71  99 136 190 233 288 353 412
#     4  12  23  45  67 107 144 188 231 290 354 422
#     4  12  25  39  71 105 143 176 233 289 357 415
#
# _framework density 21.722339000000002
#
# number of rings (size 3 to 8) (size 9 to 14) (size 15 to 20)
#    0.000    0.667    3.333    4.000    7.000    0.667 
#    3.000    1.667    0.000    0.000    0.000    0.000 
#    0.000    0.000    0.000    0.000    0.000    0.000 
#
# Total GULP energy -134146.032847 kJ/mol
# GULP energy per Si atom -5589.418035 kJ/mol
# Density = 2.167290 g / cm^3
# Si number density = 21.722339 Si / 1000 Ang^3
#
#
#
# Elastic Constant Matrix: (Units=GPa)
#
#
# Indices 1 2 3 4 5 6 
#
# 1 137.3651 41.7351 27.9031 -0.0002 -11.6136 0.0002
# 2 41.7351 89.4043 20.7086 -0.0002 -6.9289 0.0001
# 3 27.9031 20.7086 87.0297 -0.0004 -18.7258 0.0003
# 4 -0.0002 -0.0002 -0.0004 21.5682 0.0002 10.2549
# 5 -11.6136 -6.9289 -18.7258 0.0002 41.5384 -0.0002
# 6 0.0002 0.0001 0.0003 10.2549 -0.0002 27.5323
#
#
#
# Elastic Compliance Matrix: (Units=1/GPa)
#
#
# Indices 1 2 3 4 5 6 
#
# 1 0.008828 -0.003636 -0.001733 0.000000 0.001081 0.000000
# 2 -0.003636 0.013358 -0.001940 0.000000 0.000337 0.000000
# 3 -0.001733 -0.001940 0.013659 0.000000 0.005349 0.000000
# 4 0.000000 0.000000 0.000000 0.056342 0.000000 -0.020986
# 5 0.001081 0.000337 0.005349 0.000000 0.026844 0.000000
# 6 0.000000 0.000000 0.000000 -0.020986 0.000000 0.044137
#
#
# Mechanical properties :
#
#
# Convention : Reuss Voigt Hill
#
# Bulk Modulus (GPa) = 47.11066 54.94365 51.02715
# Shear Modulus (GPa) = 27.04731 33.02462 30.03596
#
# Velocity S-wave (km/s) = 3.53248 3.90334 3.72253
# Velocity P-wave (km/s) = 6.19456 6.75746 6.48213
#
# Compressibility (1/GPa) = 0.02122662
#
# Stress axis : x y z
#
# Youngs Moduli (GPa) = 113.27767 74.86174 73.21433
#
# Poissons Ratio (x) = 0.27219 0.12686
# Poissons Ratio (y) = 0.41186 0.14206
# Poissons Ratio (z) = 0.19628 0.14525
#
# Static dielectric constant tensor:
#      x y z
#    x 1.831860 0.000000 0.001040 
#    y 0.000000 1.790560 0.000000 
#    z 0.001040 0.000000 1.770120 
# 
# From -- ./inp_files/147402.got.cif
#   From: 2010.05.17/outbox.cif.g08.bks.cpg/sg15_74_cif.got.tgz:147402.got - 2010.06.03 18:47:42.
