data_PCOD9297597
_publ_section_title
;
Structure prediction by ZEFSAII (Michael W. Deem and Ramdas Pophale) SiO2 
 PCOD9297597
Probable space group: C 2/C
;
_chemical_formula_sum "Si O2"
_cell_formula_units_Z 32
_cell_length_a 22.028472
_cell_length_b 7.130570
_cell_length_c 21.082540
_cell_angle_alpha 90.000000
_cell_angle_beta 156.050203
_cell_angle_gamma 90.000000
_cell_volume 1344.278200
_symmetry_space_group_name_H-M "C 2/C"
_symmetry_group_IT_number 15
_symmetry_cell_setting 'monoclinic'
loop_
_space_group_symop_operation_xyz
x,y,z
-x,y,1/2-z
-x,-y,-z
x,-y,1/2+z
1/2+x,1/2+y,z
1/2-x,1/2+y,1/2-z
1/2-x,1/2-y,-z
1/2+x,1/2-y,1/2+z
loop_
_atom_site_type_symbol
_atom_site_label
_atom_site_fract_x
_atom_site_fract_y
_atom_site_fract_z
Si Si1 0.560359 0.368001 0.963449
Si Si2 0.119461 0.151858 0.914989
Si Si3 0.005911 0.438055 0.910248
Si Si4 0.698052 0.360291 0.232279
O O1 0.644057 0.479781 0.987173
O O2 0.412086 0.487557 0.840289
O O3 0.510895 0.157070 0.900619
O O4 0.658874 0.356274 0.121101
O O5 0.000000 0.081719 0.750000
O O6 0.250000 0.250000 0.000000
O O7 0.052467 0.319187 0.893437
O O8 0.133016 0.393720 0.084920
O O9 0.143311 0.661481 0.207636
#
# Coordination Sequence:
#
# PCOD9297597 Si02
#       4
#     8   8   8   8
#     4  10  24  41  68 100 138 183 220 281 356 413
#     4  11  25  46  65  97 140 183 239 282 330 415
#     4  11  24  44  74 100 142 181 226 298 350 415
#     4  10  24  43  67 111 138 170 231 287 358 417
#
# _framework density 23.804597000000001
#
# number of rings (size 3 to 8) (size 9 to 14) (size 15 to 20)
#    0.000    1.500    0.000    3.750   10.500    8.000 
#    0.000    0.000    0.000    0.000    0.000    0.000 
#    0.000    0.000    0.000    0.000    0.000    0.000 
#
# Total GULP energy -89702.679817 kJ/mol
# GULP energy per Si atom -5606.417489 kJ/mol
# Density = 2.375042 g / cm^3
# Si number density = 23.804597 Si / 1000 Ang^3
#
#
#
# Elastic Constant Matrix: (Units=GPa)
#
#
# Indices 1 2 3 4 5 6 
#
# 1 122.0801 74.4620 22.5660 0.0000 -19.3611 0.0000
# 2 74.4620 224.6918 22.0271 0.0000 -9.6785 0.0000
# 3 22.5660 22.0271 75.5795 0.0000 -10.0783 0.0000
# 4 0.0000 0.0000 0.0000 32.4750 0.0000 1.8039
# 5 -19.3611 -9.6785 -10.0783 0.0000 40.1361 0.0000
# 6 0.0000 0.0000 0.0000 1.8039 0.0000 46.0589
#
#
#
# Elastic Compliance Matrix: (Units=1/GPa)
#
#
# Indices 1 2 3 4 5 6 
#
# 1 0.011241 -0.003368 -0.001821 0.000000 0.004153 0.000000
# 2 -0.003368 0.005615 -0.000690 0.000000 -0.000444 0.000000
# 3 -0.001821 -0.000690 0.014316 0.000000 0.002550 0.000000
# 4 0.000000 0.000000 0.000000 0.030860 0.000000 -0.001209
# 5 0.004153 -0.000444 0.002550 0.000000 0.027452 0.000000
# 6 0.000000 0.000000 0.000000 -0.001209 0.000000 0.021759
#
#
# Mechanical properties :
#
#
# Convention : Reuss Voigt Hill
#
# Bulk Modulus (GPa) = 51.50857 73.38462 62.44660
# Shear Modulus (GPa) = 38.61861 43.95376 41.28619
#
# Velocity S-wave (km/s) = 4.03217 4.30168 4.16911
# Velocity P-wave (km/s) = 6.58505 7.45436 7.03315
#
# Compressibility (1/GPa) = 0.01941424
#
# Stress axis : x y z
#
# Youngs Moduli (GPa) = 88.96244 178.09012 69.85229
#
# Poissons Ratio (x) = 0.59976 0.12719
# Poissons Ratio (y) = 0.29960 0.04821
# Poissons Ratio (z) = 0.16199 0.12291
#
# Static dielectric constant tensor:
#      x y z
#    x 1.915960 0.000000 0.028940 
#    y 0.000000 1.945500 0.000000 
#    z 0.028940 0.000000 1.906540 
# 
# From -- ./inp_files/214175.got.cif
#   From: 2010.05.17/outbox.cif.g08.bks.cpg/sg15_108_cif.got.tgz:214175.got - 2010.06.03 18:47:42.
