data_PCOD9297361
_publ_section_title
;
Structure prediction by ZEFSAII (Michael W. Deem and Ramdas Pophale) SiO2 
 PCOD9297361
Probable space group: C 2/C
;
_chemical_formula_sum "Si O2"
_cell_formula_units_Z 48
_cell_length_a 13.131280
_cell_length_b 11.789634
_cell_length_c 17.457162
_cell_angle_alpha 90.000000
_cell_angle_beta 67.185511
_cell_angle_gamma 90.000000
_cell_volume 2491.158156
_symmetry_space_group_name_H-M "C 2/C"
_symmetry_group_IT_number 15
_symmetry_cell_setting 'monoclinic'
loop_
_space_group_symop_operation_xyz
x,y,z
-x,y,1/2-z
-x,-y,-z
x,-y,1/2+z
1/2+x,1/2+y,z
1/2-x,1/2+y,1/2-z
1/2-x,1/2-y,-z
1/2+x,1/2-y,1/2+z
loop_
_atom_site_type_symbol
_atom_site_label
_atom_site_fract_x
_atom_site_fract_y
_atom_site_fract_z
Si Si1 0.878436 0.823229 0.248959
Si Si2 0.261355 0.151872 0.389845
Si Si3 0.640103 0.233501 0.414486
Si Si4 0.102409 0.656605 0.000486
Si Si5 0.624081 0.534709 0.987153
Si Si6 0.229590 0.989468 0.619192
O O1 0.807270 0.718516 0.304173
O O2 0.880205 0.802292 0.158335
O O3 0.000000 0.817700 0.250000
O O4 0.824732 0.940606 0.295341
O O5 0.163914 0.229946 0.453465
O O6 0.360069 0.144940 0.422526
O O7 0.206551 0.029239 0.404429
O O8 0.527250 0.168244 0.467318
O O9 0.650774 0.332355 0.473784
O O10 0.737036 0.141091 0.378125
O O11 0.158822 0.556668 0.936215
O O12 0.500000 0.500000 0.000000
O O13 0.652672 0.497424 0.065830
#
# Coordination Sequence:
#
# PCOD9297361 Si02
#       6
#     8   8   8   8   8   8
#     4  11  22  39  61  84 121 158 202 250 298 357
#     4   9  18  35  58  87 112 150 205 244 279 354
#     4  12  22  36  62  91 121 157 194 253 314 351
#     4   9  17  36  61  83 112 152 201 246 283 352
#     4  11  21  38  65  87 117 160 207 243 295 367
#     4  10  24  40  57  91 124 155 202 251 300 359
#
# _framework density 19.268146999999999
#
# number of rings (size 3 to 8) (size 9 to 14) (size 15 to 20)
#    0.000    1.667    3.333    3.000    2.333    0.000 
#    0.000    0.000    0.000    1.000    0.000    0.000 
#    0.000    0.000    0.000    0.000    0.000    0.000 
#
# Total GULP energy -133881.669673 kJ/mol
# GULP energy per Si atom -5578.402903 kJ/mol
# Density = 1.922429 g / cm^3
# Si number density = 19.268147 Si / 1000 Ang^3
#
#
#
# Elastic Constant Matrix: (Units=GPa)
#
#
# Indices 1 2 3 4 5 6 
#
# 1 54.2079 39.0757 9.4385 0.0000 -15.3330 0.0000
# 2 39.0757 99.7121 7.5892 0.0000 -2.8115 0.0000
# 3 9.4385 7.5892 48.4528 0.0000 -0.1863 0.0000
# 4 0.0000 0.0000 0.0000 19.8838 0.0000 -1.5785
# 5 -15.3330 -2.8115 -0.1863 0.0000 18.4377 0.0000
# 6 0.0000 0.0000 0.0000 -1.5785 0.0000 22.6038
#
#
#
# Elastic Compliance Matrix: (Units=1/GPa)
#
#
# Indices 1 2 3 4 5 6 
#
# 1 0.037059 -0.013330 -0.005021 0.000000 0.028735 0.000000
# 2 -0.013330 0.014988 0.000215 0.000000 -0.008798 0.000000
# 3 -0.005021 0.000215 0.021568 0.000000 -0.003924 0.000000
# 4 0.000000 0.000000 0.000000 0.050573 0.000000 0.003532
# 5 0.028735 -0.008798 -0.003924 0.000000 0.076752 0.000000
# 6 0.000000 0.000000 0.000000 0.003532 0.000000 0.044487
#
#
# Mechanical properties :
#
#
# Convention : Reuss Voigt Hill
#
# Bulk Modulus (GPa) = 26.77834 34.95328 30.86581
# Shear Modulus (GPa) = 16.99838 21.93635 19.46737
#
# Velocity S-wave (km/s) = 2.97341 3.37779 3.18203
# Velocity P-wave (km/s) = 5.07111 5.77862 5.43639
#
# Compressibility (1/GPa) = 0.03734362
#
# Stress axis : x y z
#
# Youngs Moduli (GPa) = 26.98421 66.71819 46.36539
#
# Poissons Ratio (x) = 0.88938 0.23278
# Poissons Ratio (y) = 0.35971 -0.00998
# Poissons Ratio (z) = 0.13547 -0.01436
#
# Static dielectric constant tensor:
#      x y z
#    x 1.653460 0.000000 -0.000690 
#    y 0.000000 1.724850 0.000000 
#    z -0.000690 0.000000 1.653230 
# 
# From -- ./inp_files/196004.got.cif
#   From: 2010.05.17/outbox.cif.g08.bks.cpg/sg15_99_cif.got.tgz:196004.got - 2010.06.03 18:47:42.
