data_PCOD9297988
_publ_section_title
;
Structure prediction by ZEFSAII (Michael W. Deem and Ramdas Pophale) SiO2 
 PCOD9297988
Probable space group: C 2/C
;
_chemical_formula_sum "Si O2"
_cell_formula_units_Z 48
_cell_length_a 16.981562
_cell_length_b 18.972685
_cell_length_c 12.810851
_cell_angle_alpha 90.000000
_cell_angle_beta 147.211564
_cell_angle_gamma 90.000000
_cell_volume 2235.186611
_symmetry_space_group_name_H-M "C 2/C"
_symmetry_group_IT_number 15
_symmetry_cell_setting 'monoclinic'
loop_
_space_group_symop_operation_xyz
x,y,z
-x,y,1/2-z
-x,-y,-z
x,-y,1/2+z
1/2+x,1/2+y,z
1/2-x,1/2+y,1/2-z
1/2-x,1/2-y,-z
1/2+x,1/2-y,1/2+z
loop_
_atom_site_type_symbol
_atom_site_label
_atom_site_fract_x
_atom_site_fract_y
_atom_site_fract_z
Si Si1 0.652035 0.898241 0.188634
Si Si2 0.240115 0.665752 0.008861
Si Si3 0.667441 0.143586 0.163913
Si Si4 0.000000 0.071227 0.250000
Si Si5 0.861747 0.017618 0.418094
Si Si6 0.500000 0.268526 0.250000
Si Si7 0.780297 0.792622 0.171108
O O1 0.671118 0.872100 0.330081
O O2 0.716278 0.973701 0.229783
O O3 0.751929 0.846288 0.231813
O O4 0.484444 0.890927 0.972901
O O5 0.250000 0.750000 0.000000
O O6 0.164632 0.654144 0.035855
O O7 0.394318 0.625088 0.192764
O O8 0.676662 0.218496 0.230041
O O9 0.807059 0.097317 0.352118
O O10 0.093581 0.018306 0.423856
O O11 0.000000 0.000000 0.500000
O O12 0.626990 0.220701 0.441874
O O13 0.408882 0.312191 0.234266
#
# Coordination Sequence:
#
# PCOD9297988 Si02
#       7
#     8   8   8   4   8   4   8
#     4  11  25  43  67 103 138 175 225 288 345 415
#     4  11  23  38  72 105 142 170 224 284 353 410
#     4  12  24  43  70 102 136 185 222 284 349 411
#     4  10  24  45  64 104 135 184 232 280 344 409
#     4  11  25  46  67  94 139 181 233 279 342 421
#     4  10  24  43  62 100 131 176 226 280 332 405
#     4  11  23  43  70  98 136 173 233 286 343 401
#
# _framework density 21.474716999999998
#
# number of rings (size 3 to 8) (size 9 to 14) (size 15 to 20)
#    0.000    1.000    5.000    1.000    4.667    0.667 
#    3.000    0.000    0.000    0.000    0.000    0.000 
#    0.000    0.000    0.000    0.000    0.000    0.000 
#
# Total GULP energy -134020.135696 kJ/mol
# GULP energy per Si atom -5584.172321 kJ/mol
# Density = 2.142584 g / cm^3
# Si number density = 21.474717 Si / 1000 Ang^3
#
#
#
# Elastic Constant Matrix: (Units=GPa)
#
#
# Indices 1 2 3 4 5 6 
#
# 1 129.5078 23.7428 33.7427 0.0000 22.2316 0.0000
# 2 23.7428 60.0017 9.9274 0.0000 4.5419 0.0000
# 3 33.7427 9.9274 63.8601 0.0000 16.9658 0.0000
# 4 0.0000 0.0000 0.0000 23.2680 0.0000 7.4515
# 5 22.2316 4.5419 16.9658 0.0000 32.7947 0.0000
# 6 0.0000 0.0000 0.0000 7.4515 0.0000 22.4274
#
#
#
# Elastic Compliance Matrix: (Units=1/GPa)
#
#
# Indices 1 2 3 4 5 6 
#
# 1 0.009986 -0.003014 -0.003617 0.000000 -0.004481 0.000000
# 2 -0.003014 0.018053 -0.001267 0.000000 0.000198 0.000000
# 3 -0.003617 -0.001267 0.019789 0.000000 -0.007610 0.000000
# 4 0.000000 0.000000 0.000000 0.048095 0.000000 -0.015979
# 5 -0.004481 0.000198 -0.007610 0.000000 0.037440 0.000000
# 6 0.000000 0.000000 0.000000 -0.015979 0.000000 0.049897
#
#
# Mechanical properties :
#
#
# Convention : Reuss Voigt Hill
#
# Bulk Modulus (GPa) = 31.21819 43.13283 37.17551
# Shear Modulus (GPa) = 23.83978 28.09512 25.96745
#
# Velocity S-wave (km/s) = 3.33548 3.62095 3.48114
# Velocity P-wave (km/s) = 5.42242 6.13276 5.78850
#
# Compressibility (1/GPa) = 0.03203261
#
# Stress axis : x y z
#
# Youngs Moduli (GPa) = 100.14331 55.39153 50.53239
#
# Poissons Ratio (x) = 0.16693 0.18280
# Poissons Ratio (y) = 0.30180 0.06401
# Poissons Ratio (z) = 0.36226 0.07016
#
# Static dielectric constant tensor:
#      x y z
#    x 1.782440 0.000000 -0.009580 
#    y 0.000000 1.773580 0.000000 
#    z -0.009580 0.000000 1.850730 
# 
# From -- ./inp_files/163345.got.cif
#   From: 2010.05.17/outbox.cif.g08.bks.cpg/sg15_82_cif.got.tgz:163345.got - 2010.06.03 18:47:42.
