data_PCOD9297087
_publ_section_title
;
Structure prediction by ZEFSAII (Michael W. Deem and Ramdas Pophale) SiO2 
 PCOD9297087
Probable space group: C 2/C
;
_chemical_formula_sum "Si O2"
_cell_formula_units_Z 60
_cell_length_a 8.118206
_cell_length_b 12.774872
_cell_length_c 23.914571
_cell_angle_alpha 90.000000
_cell_angle_beta 64.589619
_cell_angle_gamma 90.000000
_cell_volume 2240.220802
_symmetry_space_group_name_H-M "C 2/C"
_symmetry_group_IT_number 15
_symmetry_cell_setting 'monoclinic'
loop_
_space_group_symop_operation_xyz
x,y,z
-x,y,1/2-z
-x,-y,-z
x,-y,1/2+z
1/2+x,1/2+y,z
1/2-x,1/2+y,1/2-z
1/2-x,1/2-y,-z
1/2+x,1/2-y,1/2+z
loop_
_atom_site_type_symbol
_atom_site_label
_atom_site_fract_x
_atom_site_fract_y
_atom_site_fract_z
Si Si1 0.288380 0.909464 0.029767
Si Si2 0.876535 0.720764 0.822595
Si Si3 0.714017 0.078934 0.309273
Si Si4 0.376411 0.565054 0.598437
Si Si5 0.335931 0.864008 0.481745
Si Si6 0.756886 0.771815 0.697973
Si Si7 0.169496 0.382607 0.606813
Si Si8 0.000000 0.908810 0.250000
O O1 0.422522 0.608849 0.925962
O O2 0.321500 0.869350 0.960891
O O3 0.304593 0.036737 0.028155
O O4 0.443984 0.860266 0.045630
O O5 0.758591 0.617633 0.838424
O O6 0.000000 0.730785 0.750000
O O7 0.035730 0.737708 0.844041
O O8 0.745717 0.820244 0.843734
O O9 0.867170 0.992792 0.300319
O O10 0.738272 0.126437 0.242255
O O11 0.507952 0.046563 0.352128
O O12 0.275398 0.596101 0.555835
O O13 0.354462 0.440975 0.599982
O O14 0.250000 0.750000 0.500000
O O15 0.656949 0.790618 0.653653
O O16 0.655038 0.675931 0.743333
#
# Coordination Sequence:
#
# PCOD9297087 Si02
#       8
#     8   8   8   8   8   8   8   4
#     4  10  25  51  73 112 154 193 257 321 380 453
#     4  10  24  48  68 105 150 191 252 305 384 453
#     4  11  23  46  71 107 151 195 249 321 374 461
#     4  11  25  48  74 109 152 201 251 316 387 455
#     4  10  23  47  79 105 149 201 254 314 382 457
#     4  11  23  45  73 107 146 196 255 305 381 471
#     4  11  23  45  72 108 154 195 253 317 380 458
#     4  12  22  44  76 102 152 198 254 306 392 456
#
# _framework density 26.783073000000002
#
# number of rings (size 3 to 8) (size 9 to 14) (size 15 to 20)
#    0.000    1.333    3.333    2.400    1.867    5.867 
#    9.600    0.000    0.000    0.000    0.000    0.000 
#    0.000    0.000    0.000    0.000    0.000    0.000 
#
# Total GULP energy -167567.178658 kJ/mol
# GULP energy per Si atom -5585.572622 kJ/mol
# Density = 2.672211 g / cm^3
# Si number density = 26.783073 Si / 1000 Ang^3
#
#
#
# Elastic Constant Matrix: (Units=GPa)
#
#
# Indices 1 2 3 4 5 6 
#
# 1 187.2889 38.9993 41.1007 0.0000 -21.1215 0.0000
# 2 38.9993 98.5980 29.5551 0.0000 8.6624 0.0000
# 3 41.1007 29.5551 69.5151 0.0000 0.1302 0.0000
# 4 0.0000 0.0000 0.0000 32.2241 0.0000 -3.8275
# 5 -21.1215 8.6624 0.1302 0.0000 46.3213 0.0000
# 6 0.0000 0.0000 0.0000 -3.8275 0.0000 39.1423
#
#
#
# Elastic Compliance Matrix: (Units=1/GPa)
#
#
# Indices 1 2 3 4 5 6 
#
# 1 0.006868 -0.002071 -0.003187 0.000000 0.003528 0.000000
# 2 -0.002071 0.012468 -0.004070 0.000000 -0.003265 0.000000
# 3 -0.003187 -0.004070 0.018001 0.000000 -0.000742 0.000000
# 4 0.000000 0.000000 0.000000 0.031397 0.000000 0.003070
# 5 0.003528 -0.003265 -0.000742 0.000000 0.023810 0.000000
# 6 0.000000 0.000000 0.000000 0.003070 0.000000 0.025848
#
#
# Mechanical properties :
#
#
# Convention : Reuss Voigt Hill
#
# Bulk Modulus (GPa) = 53.52967 63.85692 58.69329
# Shear Modulus (GPa) = 34.89773 39.92067 37.40920
#
# Velocity S-wave (km/s) = 3.61359 3.86491 3.74136
# Velocity P-wave (km/s) = 6.11887 6.61897 6.37382
#
# Compressibility (1/GPa) = 0.01868123
#
# Stress axis : x y z
#
# Youngs Moduli (GPa) = 145.60721 80.20298 55.55138
#
# Poissons Ratio (x) = 0.16612 0.17702
# Poissons Ratio (y) = 0.30159 0.22611
# Poissons Ratio (z) = 0.46399 0.32645
#
# Static dielectric constant tensor:
#      x y z
#    x 2.173470 0.000000 0.063410 
#    y 0.000000 2.331540 0.000000 
#    z 0.063410 0.000000 2.138730 
# 
# From -- ./inp_files/307462.got.cif
#   From: 2010.05.17/outbox.cif.g08.bks.cpg/sg15_154_cif.got.tgz:307462.got - 2010.06.03 18:47:42.
