data_PCOD9297606
_publ_section_title
;
Structure prediction by ZEFSAII (Michael W. Deem and Ramdas Pophale) SiO2 
 PCOD9297606
Probable space group: C 2/C
;
_chemical_formula_sum "Si O2"
_cell_formula_units_Z 40
_cell_length_a 20.928929
_cell_length_b 6.824283
_cell_length_c 13.109255
_cell_angle_alpha 90.000000
_cell_angle_beta 114.533904
_cell_angle_gamma 90.000000
_cell_volume 1703.286661
_symmetry_space_group_name_H-M "C 2/C"
_symmetry_group_IT_number 15
_symmetry_cell_setting 'monoclinic'
loop_
_space_group_symop_operation_xyz
x,y,z
-x,y,1/2-z
-x,-y,-z
x,-y,1/2+z
1/2+x,1/2+y,z
1/2-x,1/2+y,1/2-z
1/2-x,1/2-y,-z
1/2+x,1/2-y,1/2+z
loop_
_atom_site_type_symbol
_atom_site_label
_atom_site_fract_x
_atom_site_fract_y
_atom_site_fract_z
Si Si1 0.881603 0.698552 0.350685
Si Si2 0.854253 0.314317 0.053548
Si Si3 0.382383 0.559801 0.468227
Si Si4 0.523328 0.890370 0.873202
Si Si5 0.768623 0.378846 0.610858
O O1 0.838960 0.636351 0.423730
O O2 0.912345 0.910969 0.403832
O O3 0.830873 0.702974 0.221388
O O4 0.949582 0.564892 0.378586
O O5 0.866521 0.082242 0.055758
O O6 0.928333 0.423592 0.120182
O O7 0.797447 0.411210 0.089387
O O8 0.429061 0.738859 0.532882
O O9 0.304537 0.612805 0.377998
O O10 0.500000 0.797881 0.750000
O O11 0.750000 0.250000 0.500000
#
# Coordination Sequence:
#
# PCOD9297606 Si02
#       5
#     8   8   8   8   8
#     4  10  25  41  68  98 133 176 217 271 331 389
#     4  10  24  41  68  95 133 173 220 269 328 392
#     4  10  25  40  69  98 129 175 223 264 331 397
#     4  12  21  46  66  97 139 172 221 276 325 390
#     4  12  22  45  68  99 135 172 219 277 328 387
#
# _framework density 23.484009
#
# number of rings (size 3 to 8) (size 9 to 14) (size 15 to 20)
#    1.200    0.000    4.000    1.800    2.800    0.800 
#    0.000    2.000    0.000    0.000    0.000    0.000 
#    0.000    0.000    0.000    0.000    0.000    0.000 
#
# Total GULP energy -111624.858325 kJ/mol
# GULP energy per Si atom -5581.242916 kJ/mol
# Density = 2.343056 g / cm^3
# Si number density = 23.484009 Si / 1000 Ang^3
#
#
#
# Elastic Constant Matrix: (Units=GPa)
#
#
# Indices 1 2 3 4 5 6 
#
# 1 81.2242 0.3452 22.9217 0.0000 21.0054 0.0000
# 2 0.3452 67.5117 31.4028 0.0000 13.2444 0.0000
# 3 22.9217 31.4028 120.6999 0.0000 20.7945 0.0000
# 4 0.0000 0.0000 0.0000 21.8534 0.0000 4.9837
# 5 21.0054 13.2444 20.7945 0.0000 39.8239 0.0000
# 6 0.0000 0.0000 0.0000 4.9837 0.0000 31.0455
#
#
#
# Elastic Compliance Matrix: (Units=1/GPa)
#
#
# Indices 1 2 3 4 5 6 
#
# 1 0.014850 0.002397 -0.002150 0.000000 -0.007507 0.000000
# 2 0.002397 0.017734 -0.004214 0.000000 -0.004962 0.000000
# 3 -0.002150 -0.004214 0.010277 0.000000 -0.002831 0.000000
# 4 0.000000 0.000000 0.000000 0.047498 0.000000 -0.007625
# 5 -0.007507 -0.004962 -0.002831 0.000000 0.032198 0.000000
# 6 0.000000 0.000000 0.000000 -0.007625 0.000000 0.033435
#
#
# Mechanical properties :
#
#
# Convention : Reuss Voigt Hill
#
# Bulk Modulus (GPa) = 28.63233 42.08613 35.35923
# Shear Modulus (GPa) = 28.47879 32.86228 30.67054
#
# Velocity S-wave (km/s) = 3.48615 3.74484 3.61781
# Velocity P-wave (km/s) = 5.33132 6.05463 5.70445
#
# Compressibility (1/GPa) = 0.03492555
#
# Stress axis : x y z
#
# Youngs Moduli (GPa) = 67.34180 56.39024 97.30004
#
# Poissons Ratio (x) = -0.13517 0.20923
# Poissons Ratio (y) = -0.16142 0.41004
# Poissons Ratio (z) = 0.14481 0.23764
#
# Static dielectric constant tensor:
#      x y z
#    x 1.974980 0.000000 -0.024060 
#    y 0.000000 1.923560 0.000000 
#    z -0.024060 0.000000 1.869920 
# 
# From -- ./inp_files/171503.got.cif
#   From: 2010.05.17/outbox.cif.g08.bks.cpg/sg15_86_cif.got.tgz:171503.got - 2010.06.03 18:47:42.
