data_PCOD9297943
_publ_section_title
;
Structure prediction by ZEFSAII (Michael W. Deem and Ramdas Pophale) SiO2 
 PCOD9297943
Probable space group: C 2/C
;
_chemical_formula_sum "Si O2"
_cell_formula_units_Z 52
_cell_length_a 16.987939
_cell_length_b 5.127598
_cell_length_c 26.285980
_cell_angle_alpha 90.000000
_cell_angle_beta 121.595518
_cell_angle_gamma 90.000000
_cell_volume 1950.294137
_symmetry_space_group_name_H-M "C 2/C"
_symmetry_group_IT_number 15
_symmetry_cell_setting 'monoclinic'
loop_
_space_group_symop_operation_xyz
x,y,z
-x,y,1/2-z
-x,-y,-z
x,-y,1/2+z
1/2+x,1/2+y,z
1/2-x,1/2+y,1/2-z
1/2-x,1/2-y,-z
1/2+x,1/2-y,1/2+z
loop_
_atom_site_type_symbol
_atom_site_label
_atom_site_fract_x
_atom_site_fract_y
_atom_site_fract_z
Si Si1 0.303024 0.018776 0.568827
Si Si2 0.500000 0.283146 0.750000
Si Si3 0.602805 0.704159 0.984226
Si Si4 0.822041 0.979728 0.143740
Si Si5 0.926300 0.833509 0.912237
Si Si6 0.600079 0.982222 0.198129
Si Si7 0.213582 0.807020 0.181294
O O1 0.370932 0.936113 0.545590
O O2 0.196724 0.968728 0.516568
O O3 0.321991 0.801505 0.618715
O O4 0.314675 0.303261 0.596686
O O5 0.583922 0.463004 0.794959
O O6 0.476046 0.092334 0.787958
O O7 0.582138 0.795990 0.035003
O O8 0.514400 0.527585 0.940600
O O9 0.743866 0.055387 0.158679
O O10 0.927929 0.647093 0.864416
O O11 0.832164 0.999106 0.873790
O O12 0.696406 0.888148 0.256857
O O13 0.629769 0.271253 0.192919
#
# Coordination Sequence:
#
# PCOD9297943 Si02
#       7
#     8   4   8   8   8   8   8
#     4  11  24  48  69 103 143 196 233 303 359 428
#     4  10  26  44  70 116 134 198 236 314 364 438
#     4  10  24  42  72  97 143 187 246 291 360 426
#     4  11  25  46  73 103 150 183 245 296 366 434
#     4  11  22  46  63 105 136 186 242 301 354 440
#     4  11  23  44  69  99 145 183 244 299 372 433
#     4  11  23  40  71  99 136 192 234 296 367 442
#
# _framework density 26.662647
#
# number of rings (size 3 to 8) (size 9 to 14) (size 15 to 20)
#    0.000    1.231    3.077    1.846    2.154    3.077 
#    5.538    2.308    0.000    0.000    0.000    0.000 
#    0.000    0.000    0.000    0.000    0.000    0.000 
#
# Total GULP energy -145833.977463 kJ/mol
# GULP energy per Si atom -5608.999133 kJ/mol
# Density = 2.660196 g / cm^3
# Si number density = 26.662647 Si / 1000 Ang^3
#
#
#
# Elastic Constant Matrix: (Units=GPa)
#
#
# Indices 1 2 3 4 5 6 
#
# 1 146.2870 36.1469 74.5745 -0.0001 -18.2250 0.0001
# 2 36.1469 47.8428 21.7280 0.0005 7.4705 -0.0002
# 3 74.5745 21.7280 140.2707 -0.0002 1.1896 0.0002
# 4 -0.0001 0.0005 -0.0002 37.9104 -0.0001 -3.2752
# 5 -18.2250 7.4705 1.1896 -0.0001 55.4956 0.0000
# 6 0.0001 -0.0002 0.0002 -3.2752 0.0000 36.3875
#
#
#
# Elastic Compliance Matrix: (Units=1/GPa)
#
#
# Indices 1 2 3 4 5 6 
#
# 1 0.011992 -0.007459 -0.005263 0.000000 0.005055 0.000000
# 2 -0.007459 0.027618 -0.000260 0.000000 -0.006162 0.000000
# 3 -0.005263 -0.000260 0.009983 0.000000 -0.001907 0.000000
# 4 0.000000 0.000000 0.000000 0.026585 0.000000 0.002393
# 5 0.005055 -0.006162 -0.001907 0.000000 0.020550 0.000000
# 6 0.000000 0.000000 0.000000 0.002393 0.000000 0.027697
#
#
# Mechanical properties :
#
#
# Convention : Reuss Voigt Hill
#
# Bulk Modulus (GPa) = 42.32138 66.58881 54.45509
# Shear Modulus (GPa) = 31.59245 39.42209 35.50727
#
# Velocity S-wave (km/s) = 3.44597 3.84937 3.65324
# Velocity P-wave (km/s) = 5.63385 6.69220 6.18570
#
# Compressibility (1/GPa) = 0.02362872
#
# Stress axis : x y z
#
# Youngs Moduli (GPa) = 83.39091 36.20843 100.16567
#
# Poissons Ratio (x) = 0.27009 0.52715
# Poissons Ratio (y) = 0.62205 0.02604
# Poissons Ratio (z) = 0.43887 0.00941
#
# Static dielectric constant tensor:
#      x y z
#    x 2.107770 0.000000 -0.048380 
#    y 0.000000 2.095080 0.000000 
#    z -0.048380 0.000000 2.074970 
# 
# From -- ./inp_files/297830.got.cif
#   From: 2010.05.17/outbox.cif.g08.bks.cpg/sg15_149_cif.got.tgz:297830.got - 2010.06.03 18:47:42.
