data_PCOD9297753
_publ_section_title
;
Structure prediction by ZEFSAII (Michael W. Deem and Ramdas Pophale) SiO2 
 PCOD9297753
Probable space group: C 2/C
;
_chemical_formula_sum "Si O2"
_cell_formula_units_Z 44
_cell_length_a 15.835051
_cell_length_b 10.273837
_cell_length_c 17.987576
_cell_angle_alpha 90.000000
_cell_angle_beta 129.246510
_cell_angle_gamma 90.000000
_cell_volume 2266.248923
_symmetry_space_group_name_H-M "C 2/C"
_symmetry_group_IT_number 15
_symmetry_cell_setting 'monoclinic'
loop_
_space_group_symop_operation_xyz
x,y,z
-x,y,1/2-z
-x,-y,-z
x,-y,1/2+z
1/2+x,1/2+y,z
1/2-x,1/2+y,1/2-z
1/2-x,1/2-y,-z
1/2+x,1/2-y,1/2+z
loop_
_atom_site_type_symbol
_atom_site_label
_atom_site_fract_x
_atom_site_fract_y
_atom_site_fract_z
Si Si1 0.725241 0.599246 0.966789
Si Si2 0.000000 0.258791 0.250000
Si Si3 0.558700 0.938920 0.417738
Si Si4 0.669075 0.441582 0.793625
Si Si5 0.901694 0.657017 0.397004
Si Si6 0.494224 0.560992 0.915417
O O1 0.703026 0.560457 0.867596
O O2 0.615284 0.565419 0.949189
O O3 0.750000 0.750000 0.000000
O O4 0.829472 0.509892 0.045078
O O5 0.008711 0.349457 0.326653
O O6 0.106238 0.167147 0.306537
O O7 0.581200 0.856114 0.504662
O O8 0.475253 0.050282 0.396866
O O9 0.775663 0.378975 0.816094
O O10 0.583672 0.483753 0.683851
O O11 0.941937 0.796134 0.392809
O O12 0.500000 0.500000 0.000000
#
# Coordination Sequence:
#
# PCOD9297753 Si02
#       6
#     8   4   8   8   8   8
#     4  11  23  46  67  93 131 172 216 272 327 389
#     4  12  24  42  66  96 130 176 220 258 334 392
#     4  10  24  42  66  93 129 173 212 268 327 385
#     4  11  26  43  64  97 134 168 218 275 320 394
#     4  10  24  44  63  94 132 166 216 268 322 389
#     4  12  25  42  69  97 128 171 218 269 330 384
#
# _framework density 19.415344000000001
#
# number of rings (size 3 to 8) (size 9 to 14) (size 15 to 20)
#    0.000    1.091    3.636    1.091    5.091    4.364 
#    0.000    0.000    0.000    0.000    0.000    0.000 
#    0.000    0.000    0.000    0.000    0.000    0.000 
#
# Total GULP energy -122961.065151 kJ/mol
# GULP energy per Si atom -5589.139325 kJ/mol
# Density = 1.937115 g / cm^3
# Si number density = 19.415344 Si / 1000 Ang^3
#
#
#
# Elastic Constant Matrix: (Units=GPa)
#
#
# Indices 1 2 3 4 5 6 
#
# 1 140.5704 26.9938 25.8291 0.0000 26.1254 0.0000
# 2 26.9938 63.3712 33.7647 0.0000 -8.2910 0.0000
# 3 25.8291 33.7647 79.2867 0.0000 -1.7434 0.0000
# 4 0.0000 0.0000 0.0000 2.6950 0.0000 41.9131
# 5 26.1254 -8.2910 -1.7434 0.0000 31.1686 0.0000
# 6 0.0000 0.0000 0.0000 41.9131 0.0000 -15.6561
#
#
#
# Elastic Compliance Matrix: (Units=1/GPa)
#
#
# Indices 1 2 3 4 5 6 
#
# 1 0.010146 -0.004833 -0.001464 0.000000 -0.009872 0.000000
# 2 -0.004833 0.023506 -0.008219 0.000000 0.009844 0.000000
# 3 -0.001464 -0.008219 0.016589 0.000000 -0.000031 0.000000
# 4 0.000000 0.000000 0.000000 0.008703 0.000000 0.023299
# 5 -0.009872 0.009844 -0.000031 0.000000 0.042975 0.000000
# 6 0.000000 0.000000 0.000000 0.023299 0.000000 -0.001498
#
#
# Mechanical properties :
#
#
# Convention : Reuss Voigt Hill
#
# Bulk Modulus (GPa) = 47.15242 50.71149 48.93196
# Shear Modulus (GPa) = 36.62410 16.75088 26.68749
#
# Velocity S-wave (km/s) = 4.34792 2.94047 3.71152
# Velocity P-wave (km/s) = 7.03881 6.14040 6.60490
#
# Compressibility (1/GPa) = 0.02120782
#
# Stress axis : x y z
#
# Youngs Moduli (GPa) = 98.56449 42.54237 60.28134
#
# Poissons Ratio (x) = 0.20561 0.08825
# Poissons Ratio (y) = 0.47638 0.49547
# Poissons Ratio (z) = 0.14429 0.34966
#
# Static dielectric constant tensor:
#      x y z
#    x 1.663730 0.000000 0.000510 
#    y 0.000000 1.668820 0.000000 
#    z 0.000510 0.000000 1.670780 
# 
# From -- ./inp_files/203081.got.cif
#   From: 2010.05.17/outbox.cif.g08.bks.cpg/sg15_102_cif.got.tgz:203081.got - 2010.06.03 18:47:42.
