data_PCOD9297412
_publ_section_title
;
Structure prediction by ZEFSAII (Michael W. Deem and Ramdas Pophale) SiO2 
 PCOD9297412
Probable space group: C 2/C
;
_chemical_formula_sum "Si O2"
_cell_formula_units_Z 28
_cell_length_a 7.161720
_cell_length_b 16.057334
_cell_length_c 12.549989
_cell_angle_alpha 90.000000
_cell_angle_beta 95.631339
_cell_angle_gamma 90.000000
_cell_volume 1436.260084
_symmetry_space_group_name_H-M "C 2/C"
_symmetry_group_IT_number 15
_symmetry_cell_setting 'monoclinic'
loop_
_space_group_symop_operation_xyz
x,y,z
-x,y,1/2-z
-x,-y,-z
x,-y,1/2+z
1/2+x,1/2+y,z
1/2-x,1/2+y,1/2-z
1/2-x,1/2-y,-z
1/2+x,1/2-y,1/2+z
loop_
_atom_site_type_symbol
_atom_site_label
_atom_site_fract_x
_atom_site_fract_y
_atom_site_fract_z
Si Si1 0.500000 0.750088 0.750000
Si Si2 0.831244 0.869255 0.818697
Si Si3 0.006691 0.867326 0.453830
Si Si4 0.710102 0.999486 0.470253
O O1 0.682349 0.808440 0.758036
O O2 0.492824 0.693545 0.644646
O O3 0.729451 0.951280 0.859475
O O4 0.000000 0.890533 0.750000
O O5 0.919265 0.828465 0.931260
O O6 0.151796 0.945138 0.446564
O O7 0.805422 0.909780 0.463524
O O8 0.500000 0.000000 0.500000
#
# Coordination Sequence:
#
# PCOD9297412 Si02
#       4
#     4   8   8   8
#     4  12  24  40  66  92 136 174 202 264 332 380
#     4  10  24  40  64  94 130 167 212 270 316 380
#     4   9  23  41  61  95 128 161 224 258 309 384
#     4   9  21  43  67  90 128 169 215 267 314 380
#
# _framework density 19.495076999999998
#
# number of rings (size 3 to 8) (size 9 to 14) (size 15 to 20)
#    1.714    0.571    0.000    0.857    6.000    3.429 
#    0.000    0.000    0.000    0.000    0.000    0.000 
#    0.000    0.000    0.000    0.000    0.000    0.000 
#
# Total GULP energy -78024.536792 kJ/mol
# GULP energy per Si atom -5573.181199 kJ/mol
# Density = 1.945070 g / cm^3
# Si number density = 19.495077 Si / 1000 Ang^3
#
#
#
# Elastic Constant Matrix: (Units=GPa)
#
#
# Indices 1 2 3 4 5 6 
#
# 1 160.2036 32.2386 32.6050 0.0000 -35.6746 0.0000
# 2 32.2386 38.0913 11.5508 0.0000 -4.5787 0.0000
# 3 32.6050 11.5508 82.5683 0.0000 -10.7651 0.0000
# 4 0.0000 0.0000 0.0000 44.9113 0.0000 5.1077
# 5 -35.6746 -4.5787 -10.7651 0.0000 27.5746 0.0000
# 6 0.0000 0.0000 0.0000 5.1077 0.0000 12.4675
#
#
#
# Elastic Compliance Matrix: (Units=1/GPa)
#
#
# Indices 1 2 3 4 5 6 
#
# 1 0.010676 -0.007091 -0.001661 0.000000 0.011987 0.000000
# 2 -0.007091 0.032400 -0.002346 0.000000 -0.004711 0.000000
# 3 -0.001661 -0.002346 0.013449 0.000000 0.002712 0.000000
# 4 0.000000 0.000000 0.000000 0.023354 0.000000 -0.009568
# 5 0.011987 -0.004711 0.002712 0.000000 0.052049 0.000000
# 6 0.000000 0.000000 0.000000 -0.009568 0.000000 0.084128
#
#
# Mechanical properties :
#
#
# Convention : Reuss Voigt Hill
#
# Bulk Modulus (GPa) = 29.13137 48.18355 38.65746
# Shear Modulus (GPa) = 20.02427 30.62195 25.32311
#
# Velocity S-wave (km/s) = 3.20839 3.96757 3.60800
# Velocity P-wave (km/s) = 5.35727 6.76448 6.10158
#
# Compressibility (1/GPa) = 0.03432725
#
# Stress axis : x y z
#
# Youngs Moduli (GPa) = 93.66484 30.86439 74.35534
#
# Poissons Ratio (x) = 0.21887 0.12351
# Poissons Ratio (y) = 0.66422 0.17447
# Poissons Ratio (z) = 0.15559 0.07242
#
# Static dielectric constant tensor:
#      x y z
#    x 1.666920 0.000000 0.025480 
#    y 0.000000 1.688890 0.000000 
#    z 0.025480 0.000000 1.691630 
# 
# From -- ./inp_files/71691.got.cif
#   From: 2010.05.17/outbox.cif.g08.bks.cpg/sg15_36_cif.got.tgz:71691.got - 2010.06.03 18:47:42.
