data_PCOD9297810
_publ_section_title
;
Structure prediction by ZEFSAII (Michael W. Deem and Ramdas Pophale) SiO2 
 PCOD9297810
Probable space group: C 2/C
;
_chemical_formula_sum "Si O2"
_cell_formula_units_Z 36
_cell_length_a 15.918095
_cell_length_b 11.805889
_cell_length_c 9.420669
_cell_angle_alpha 90.000000
_cell_angle_beta 106.886051
_cell_angle_gamma 90.000000
_cell_volume 1694.068530
_symmetry_space_group_name_H-M "C 2/C"
_symmetry_group_IT_number 15
_symmetry_cell_setting 'monoclinic'
loop_
_space_group_symop_operation_xyz
x,y,z
-x,y,1/2-z
-x,-y,-z
x,-y,1/2+z
1/2+x,1/2+y,z
1/2-x,1/2+y,1/2-z
1/2-x,1/2-y,-z
1/2+x,1/2-y,1/2+z
loop_
_atom_site_type_symbol
_atom_site_label
_atom_site_fract_x
_atom_site_fract_y
_atom_site_fract_z
Si Si1 0.000000 0.051842 0.250000
Si Si2 0.810342 0.715205 0.400946
Si Si3 0.736739 0.126117 0.419257
Si Si4 0.116364 0.058319 0.557709
Si Si5 0.432651 0.970222 0.088518
O O1 0.054542 0.985478 0.154796
O O2 0.068146 0.108629 0.392728
O O3 0.750000 0.750000 0.500000
O O4 0.769528 0.644763 0.253114
O O5 0.836266 0.835592 0.348566
O O6 0.885521 0.641598 0.509520
O O7 0.750000 0.250000 0.500000
O O8 0.818863 0.039014 0.471009
O O9 0.645882 0.062397 0.421786
O O10 0.500000 0.953780 0.250000
O O11 0.500000 0.000000 0.000000
#
# Coordination Sequence:
#
# PCOD9297810 Si02
#       5
#     4   8   8   8   8
#     4  10  24  42  68 102 142 176 230 308 342 442
#     4  12  26  45  78 101 145 196 243 303 370 444
#     4  12  28  48  76 105 150 198 244 308 376 448
#     4  11  24  46  69 104 142 183 246 288 376 427
#     4  12  28  50  73 111 151 196 257 309 373 445
#
# _framework density 21.250616999999998
#
# number of rings (size 3 to 8) (size 9 to 14) (size 15 to 20)
#    0.000    0.444    4.444    2.667    7.778    5.333 
#    2.000    0.000    0.000    0.000    0.000    0.000 
#    0.000    0.000    0.000    0.000    0.000    0.000 
#
# Total GULP energy -100301.502334 kJ/mol
# GULP energy per Si atom -5572.305685 kJ/mol
# Density = 2.120225 g / cm^3
# Si number density = 21.250617 Si / 1000 Ang^3
#
#
#
# Elastic Constant Matrix: (Units=GPa)
#
#
# Indices 1 2 3 4 5 6 
#
# 1 130.7876 51.1166 30.6065 0.0000 -18.4203 0.0000
# 2 51.1166 120.5907 18.4974 0.0000 7.7618 0.0000
# 3 30.6065 18.4974 137.3377 0.0000 -2.1658 0.0000
# 4 0.0000 0.0000 0.0000 31.0214 0.0000 4.2880
# 5 -18.4203 7.7618 -2.1658 0.0000 37.6677 0.0000
# 6 0.0000 0.0000 0.0000 4.2880 0.0000 36.5240
#
#
#
# Elastic Compliance Matrix: (Units=1/GPa)
#
#
# Indices 1 2 3 4 5 6 
#
# 1 0.010728 -0.004686 -0.001663 0.000000 0.006116 0.000000
# 2 -0.004686 0.010640 -0.000460 0.000000 -0.004510 0.000000
# 3 -0.001663 -0.000460 0.007710 0.000000 -0.000275 0.000000
# 4 0.000000 0.000000 0.000000 0.032768 0.000000 -0.003847
# 5 0.006116 -0.004510 -0.000275 0.000000 0.030453 0.000000
# 6 0.000000 0.000000 0.000000 -0.003847 0.000000 0.027831
#
#
# Mechanical properties :
#
#
# Convention : Reuss Voigt Hill
#
# Bulk Modulus (GPa) = 64.68642 65.46187 65.07415
# Shear Modulus (GPa) = 35.99722 40.27564 38.13643
#
# Velocity S-wave (km/s) = 4.12021 4.35819 4.24087
# Velocity P-wave (km/s) = 7.28977 7.49644 7.39383
#
# Compressibility (1/GPa) = 0.01545919
#
# Stress axis : x y z
#
# Youngs Moduli (GPa) = 93.21315 93.98769 129.70886
#
# Poissons Ratio (x) = 0.44043 0.21574
# Poissons Ratio (y) = 0.43680 0.05964
# Poissons Ratio (z) = 0.15503 0.04322
#
# Static dielectric constant tensor:
#      x y z
#    x 1.797190 0.000000 0.117090 
#    y 0.000000 1.768240 0.000000 
#    z 0.117090 0.000000 1.668750 
# 
# From -- ./inp_files/45922.got.cif
#   From: 2010.05.17/outbox.cif.g08.bks.cpg/sg15_23_cif.got.tgz:45922.got - 2010.06.03 18:47:42.
