data_PCOD9297932
_publ_section_title
;
Structure prediction by ZEFSAII (Michael W. Deem and Ramdas Pophale) SiO2 
 PCOD9297932
Probable space group: C 2/C
;
_chemical_formula_sum "Si O2"
_cell_formula_units_Z 64
_cell_length_a 19.256819
_cell_length_b 11.020755
_cell_length_c 22.641023
_cell_angle_alpha 90.000000
_cell_angle_beta 142.404642
_cell_angle_gamma 90.000000
_cell_volume 2931.429284
_symmetry_space_group_name_H-M "C 2/C"
_symmetry_group_IT_number 15
_symmetry_cell_setting 'monoclinic'
loop_
_space_group_symop_operation_xyz
x,y,z
-x,y,1/2-z
-x,-y,-z
x,-y,1/2+z
1/2+x,1/2+y,z
1/2-x,1/2+y,1/2-z
1/2-x,1/2-y,-z
1/2+x,1/2-y,1/2+z
loop_
_atom_site_type_symbol
_atom_site_label
_atom_site_fract_x
_atom_site_fract_y
_atom_site_fract_z
Si Si1 0.503248 0.897779 0.684657
Si Si2 0.424579 0.388242 0.428432
Si Si3 0.785849 0.548204 0.392503
Si Si4 0.475597 0.788411 0.068951
Si Si5 0.989016 0.873467 0.137161
Si Si6 0.555020 0.375755 0.723784
Si Si7 0.825286 0.540448 0.787050
Si Si8 0.750565 0.387563 0.475716
O O1 0.500000 0.938342 0.750000
O O2 0.515428 0.749911 0.690462
O O3 0.375485 0.927717 0.578501
O O4 0.598751 0.961914 0.708307
O O5 0.500000 0.500000 0.500000
O O6 0.433908 0.299635 0.489561
O O7 0.490262 0.334168 0.415987
O O8 0.297697 0.427693 0.323487
O O9 0.687445 0.651038 0.324739
O O10 0.816371 0.523122 0.345048
O O11 0.743915 0.430579 0.402835
O O12 0.892235 0.599746 0.500778
O O13 0.482675 0.716468 0.135465
O O14 0.604052 0.837733 0.150758
O O15 0.865175 0.928441 0.070248
O O16 0.063932 0.992765 0.198245
O O17 0.500000 0.391387 0.750000
O O18 0.750000 0.250000 0.500000
#
# Coordination Sequence:
#
# PCOD9297932 Si02
#       8
#     8   8   8   8   8   8   8   8
#     4  11  26  44  73 109 142 189 244 315 373 443
#     4  12  26  46  74 108 149 196 251 311 372 456
#     4  12  24  48  72 105 149 189 251 305 378 452
#     4  12  27  46  72 106 145 199 248 304 378 444
#     4  11  23  47  71 106 143 191 244 300 381 439
#     4  12  25  47  70 100 143 196 245 297 365 446
#     4  12  27  48  75 107 149 193 245 311 381 452
#     4  10  24  42  72 108 139 190 239 306 375 443
#
# _framework density 21.832352
#
# number of rings (size 3 to 8) (size 9 to 14) (size 15 to 20)
#    0.000    0.500    5.000    2.250    7.000    2.000 
#    0.000    0.000    0.000    0.000    0.000    0.000 
#    0.000    0.000    0.000    0.000    0.000    0.000 
#
# Total GULP energy -178400.934484 kJ/mol
# GULP energy per Si atom -5575.029203 kJ/mol
# Density = 2.178266 g / cm^3
# Si number density = 21.832352 Si / 1000 Ang^3
#
#
#
# Elastic Constant Matrix: (Units=GPa)
#
#
# Indices 1 2 3 4 5 6 
#
# 1 119.3000 24.9845 49.6111 0.0000 -4.0454 0.0000
# 2 24.9845 50.9318 45.4079 0.0000 0.7122 0.0000
# 3 49.6111 45.4079 149.4008 0.0000 7.8965 0.0000
# 4 0.0000 0.0000 0.0000 39.7578 0.0000 -7.1396
# 5 -4.0454 0.7122 7.8965 0.0000 43.1524 0.0000
# 6 0.0000 0.0000 0.0000 -7.1396 0.0000 10.2059
#
#
#
# Elastic Compliance Matrix: (Units=1/GPa)
#
#
# Indices 1 2 3 4 5 6 
#
# 1 0.010073 -0.002621 -0.002626 0.000000 0.001468 0.000000
# 2 -0.002621 0.027662 -0.007573 0.000000 0.000684 0.000000
# 3 -0.002626 -0.007573 0.009970 0.000000 -0.001946 0.000000
# 4 0.000000 0.000000 0.000000 0.028766 0.000000 0.020123
# 5 0.001468 0.000684 -0.001946 0.000000 0.023656 0.000000
# 6 0.000000 0.000000 0.000000 0.020123 0.000000 0.112060
#
#
# Mechanical properties :
#
#
# Convention : Reuss Voigt Hill
#
# Bulk Modulus (GPa) = 45.32039 62.18217 53.75128
# Shear Modulus (GPa) = 20.39300 31.93182 26.16241
#
# Velocity S-wave (km/s) = 3.05958 3.82853 3.46545
# Velocity P-wave (km/s) = 5.76929 6.93448 6.37855
#
# Compressibility (1/GPa) = 0.02206512
#
# Stress axis : x y z
#
# Youngs Moduli (GPa) = 99.27685 36.15064 100.30055
#
# Poissons Ratio (x) = 0.09474 0.26339
# Poissons Ratio (y) = 0.26016 0.75961
# Poissons Ratio (z) = 0.26070 0.27378
#
# Static dielectric constant tensor:
#      x y z
#    x 1.397410 0.000000 -0.047860 
#    y 0.000000 11.789550 0.000000 
#    z -0.047860 0.000000 1.841540 
# 
# From -- ./inp_files/252597.got.cif
#   From: 2010.05.17/outbox.cif.g08.bks.cpg/sg15_127_cif.got.tgz:252597.got - 2010.06.03 18:47:42.
