data_PCOD9297767
_publ_section_title
;
Structure prediction by ZEFSAII (Michael W. Deem and Ramdas Pophale) SiO2 
 PCOD9297767
Probable space group: C 2/C
;
_chemical_formula_sum "Si O2"
_cell_formula_units_Z 60
_cell_length_a 16.889055
_cell_length_b 11.719529
_cell_length_c 27.069118
_cell_angle_alpha 90.000000
_cell_angle_beta 32.363048
_cell_angle_gamma 90.000000
_cell_volume 2867.955264
_symmetry_space_group_name_H-M "C 2/C"
_symmetry_group_IT_number 15
_symmetry_cell_setting 'monoclinic'
loop_
_space_group_symop_operation_xyz
x,y,z
-x,y,1/2-z
-x,-y,-z
x,-y,1/2+z
1/2+x,1/2+y,z
1/2-x,1/2+y,1/2-z
1/2-x,1/2-y,-z
1/2+x,1/2-y,1/2+z
loop_
_atom_site_type_symbol
_atom_site_label
_atom_site_fract_x
_atom_site_fract_y
_atom_site_fract_z
Si Si1 0.092759 0.929428 0.108995
Si Si2 0.908889 0.115269 0.248524
Si Si3 0.351317 0.879769 0.263245
Si Si4 0.000000 0.224752 0.750000
Si Si5 0.506471 0.654136 0.940885
Si Si6 0.565869 0.901363 0.930913
Si Si7 0.081205 0.469430 0.589629
Si Si8 0.797319 0.577725 0.366893
O O1 0.058385 0.853979 0.175057
O O2 0.064326 0.848211 0.076863
O O3 0.258228 0.980825 0.020589
O O4 0.984606 0.038803 0.166484
O O5 0.901328 0.250814 0.245789
O O6 0.739815 0.080494 0.342763
O O7 0.000000 0.091777 0.250000
O O8 0.176866 0.880846 0.341444
O O9 0.471894 0.927776 0.161496
O O10 0.347928 0.964369 0.312097
O O11 0.865091 0.309265 0.805860
O O12 0.520243 0.770605 0.965645
O O13 0.380135 0.580476 0.035295
O O14 0.514421 0.905985 0.901051
O O15 0.500000 0.000000 0.000000
O O16 0.129059 0.418511 0.617400
#
# Coordination Sequence:
#
# PCOD9297767 Si02
#       8
#     8   8   8   4   8   8   8   8
#     4  11  24  41  66  99 131 176 224 279 337 395
#     4  11  23  42  65  91 136 176 218 268 330 409
#     4  11  23  44  65  97 134 180 222 275 331 402
#     4  12  22  38  68  98 128 172 230 280 342 392
#     4  10  24  42  66  97 137 173 222 281 330 401
#     4  11  24  41  64  96 134 173 216 277 336 393
#     4  11  22  43  66  97 131 169 232 273 332 400
#     4  11  22  41  70  99 127 176 224 281 340 394
#
# _framework density 20.920829000000001
#
# number of rings (size 3 to 8) (size 9 to 14) (size 15 to 20)
#    0.000    1.067    2.000    4.400    1.867    2.667 
#    0.000    5.333    0.000    0.000    0.000    0.000 
#    0.000    0.000    0.000    0.000    0.000    0.000 
#
# Total GULP energy -167183.138660 kJ/mol
# GULP energy per Si atom -5572.771289 kJ/mol
# Density = 2.087321 g / cm^3
# Si number density = 20.920829 Si / 1000 Ang^3
#
#
#
# Elastic Constant Matrix: (Units=GPa)
#
#
# Indices 1 2 3 4 5 6 
#
# 1 68.6286 18.1860 16.8034 -0.0001 -25.9868 0.0000
# 2 18.1860 104.3021 70.1039 0.0000 -8.1883 0.0000
# 3 16.8034 70.1039 115.4327 -0.0004 -22.2967 0.0001
# 4 -0.0001 0.0000 -0.0004 3.2494 0.0001 -16.1150
# 5 -25.9868 -8.1883 -22.2967 0.0001 39.8444 0.0000
# 6 0.0000 0.0000 0.0001 -16.1150 0.0000 -2.9146
#
#
#
# Elastic Compliance Matrix: (Units=1/GPa)
#
#
# Indices 1 2 3 4 5 6 
#
# 1 0.020204 -0.003783 0.001964 0.000000 0.013499 0.000000
# 2 -0.003783 0.017123 -0.010814 0.000000 -0.005000 0.000000
# 3 0.001964 -0.010814 0.016552 0.000000 0.008321 0.000000
# 4 0.000000 0.000000 0.000000 0.010828 0.000000 -0.059871
# 5 0.013499 -0.005000 0.008321 0.000000 0.037530 0.000000
# 6 0.000000 0.000000 0.000000 -0.059871 0.000000 -0.012072
#
#
# Mechanical properties :
#
#
# Convention : Reuss Voigt Hill
#
# Bulk Modulus (GPa) = 34.94967 55.39443 45.17205
# Shear Modulus (GPa) = 40.00958 20.25385 30.13171
#
# Velocity S-wave (km/s) = 4.37788 3.11484 3.79921
# Velocity P-wave (km/s) = 6.50356 6.28267 6.39407
#
# Compressibility (1/GPa) = 0.02861257
#
# Stress axis : x y z
#
# Youngs Moduli (GPa) = 49.49458 58.40081 60.41562
#
# Poissons Ratio (x) = 0.22093 -0.11864
# Poissons Ratio (y) = 0.18723 0.65334
# Poissons Ratio (z) = -0.09719 0.63156
#
# Static dielectric constant tensor:
#      x y z
#    x 1.758240 0.000000 0.019550 
#    y 0.000000 1.808500 0.000000 
#    z 0.019550 0.000000 1.766950 
# 
# From -- ./inp_files/298941.got.cif
#   From: 2010.05.17/outbox.cif.g08.bks.cpg/sg15_150_cif.got.tgz:298941.got - 2010.06.03 18:47:42.
