data_PCOD9297986
_publ_section_title
;
Structure prediction by ZEFSAII (Michael W. Deem and Ramdas Pophale) SiO2 
 PCOD9297986
Probable space group: C 2/C
;
_chemical_formula_sum "Si O2"
_cell_formula_units_Z 40
_cell_length_a 7.117084
_cell_length_b 12.134562
_cell_length_c 21.231922
_cell_angle_alpha 90.000000
_cell_angle_beta 62.614746
_cell_angle_gamma 90.000000
_cell_volume 1628.156295
_symmetry_space_group_name_H-M "C 2/C"
_symmetry_group_IT_number 15
_symmetry_cell_setting 'monoclinic'
loop_
_space_group_symop_operation_xyz
x,y,z
-x,y,1/2-z
-x,-y,-z
x,-y,1/2+z
1/2+x,1/2+y,z
1/2-x,1/2+y,1/2-z
1/2-x,1/2-y,-z
1/2+x,1/2-y,1/2+z
loop_
_atom_site_type_symbol
_atom_site_label
_atom_site_fract_x
_atom_site_fract_y
_atom_site_fract_z
Si Si1 0.198956 0.206279 0.308007
Si Si2 0.183211 0.940489 0.930565
Si Si3 0.883200 0.431200 0.112948
Si Si4 0.527875 0.773294 0.994010
Si Si5 0.237060 0.666178 0.337582
O O1 0.185945 0.102209 0.357325
O O2 0.221688 0.325396 0.337062
O O3 0.331953 0.183624 0.223864
O O4 0.961113 0.217828 0.318206
O O5 0.386555 0.019995 0.902398
O O6 0.141859 0.820231 0.966825
O O7 0.000000 0.000000 0.000000
O O8 0.742580 0.537652 0.147482
O O9 0.930932 0.386420 0.035747
O O10 0.585376 0.782162 0.912703
O O11 0.750000 0.750000 0.000000
#
# Coordination Sequence:
#
# PCOD9297986 Si02
#       5
#     8   8   8   8   8
#     4  10  24  43  60  92 131 163 212 257 315 382
#     4  11  20  38  67  92 122 170 208 257 311 368
#     4  11  23  41  66  92 125 163 213 260 310 376
#     4  11  20  41  63  91 125 159 214 258 303 380
#     4  11  22  41  66  88 126 172 200 262 325 362
#
# _framework density 24.567665999999999
#
# number of rings (size 3 to 8) (size 9 to 14) (size 15 to 20)
#    0.000    1.200    6.000    0.600    0.000    6.400 
#    0.000   14.000    0.000    0.000    0.000    0.000 
#    0.000    0.000    0.000    0.000    0.000    0.000 
#
# Total GULP energy -111529.367716 kJ/mol
# GULP energy per Si atom -5576.468386 kJ/mol
# Density = 2.451175 g / cm^3
# Si number density = 24.567666 Si / 1000 Ang^3
#
#
#
# Elastic Constant Matrix: (Units=GPa)
#
#
# Indices 1 2 3 4 5 6 
#
# 1 62.1463 16.4031 27.8817 0.0000 1.3478 0.0000
# 2 16.4031 93.2273 29.4397 0.0000 -0.2548 0.0000
# 3 27.8817 29.4397 208.5803 0.0000 25.9156 0.0000
# 4 0.0000 0.0000 0.0000 19.6394 0.0000 -9.5556
# 5 1.3478 -0.2548 25.9156 0.0000 24.9898 0.0000
# 6 0.0000 0.0000 0.0000 -9.5556 0.0000 44.5541
#
#
#
# Elastic Compliance Matrix: (Units=1/GPa)
#
#
# Indices 1 2 3 4 5 6 
#
# 1 0.017680 -0.002418 -0.002182 0.000000 0.001284 0.000000
# 2 -0.002418 0.011647 -0.001551 0.000000 0.001858 0.000000
# 3 -0.002182 -0.001551 0.006075 0.000000 -0.006198 0.000000
# 4 0.000000 0.000000 0.000000 0.056851 0.000000 0.012193
# 5 0.001284 0.001858 -0.006198 0.000000 0.046394 0.000000
# 6 0.000000 0.000000 0.000000 0.012193 0.000000 0.025060
#
#
# Mechanical properties :
#
#
# Convention : Reuss Voigt Hill
#
# Bulk Modulus (GPa) = 43.29122 56.82257 50.05690
# Shear Modulus (GPa) = 27.21693 37.18528 32.20111
#
# Velocity S-wave (km/s) = 3.33203 3.89470 3.62430
# Velocity P-wave (km/s) = 5.69760 6.58818 6.15901
#
# Compressibility (1/GPa) = 0.02309937
#
# Stress axis : x y z
#
# Youngs Moduli (GPa) = 56.56015 85.85909 164.60784
#
# Poissons Ratio (x) = 0.20764 0.35911
# Poissons Ratio (y) = 0.13678 0.25539
# Poissons Ratio (z) = 0.12339 0.13321
#
# Static dielectric constant tensor:
#      x y z
#    x 2.113950 0.000000 -0.012080 
#    y 0.000000 1.919950 0.000000 
#    z -0.012080 0.000000 2.125150 
# 
# From -- ./inp_files/229966.got.cif
#   From: 2010.05.17/outbox.cif.g08.bks.cpg/sg15_115_cif.got.tgz:229966.got - 2010.06.03 18:47:42.
