data_PCOD9297563
_publ_section_title
;
Structure prediction by ZEFSAII (Michael W. Deem and Ramdas Pophale) SiO2 
 PCOD9297563
Probable space group: C 2/C
;
_chemical_formula_sum "Si O2"
_cell_formula_units_Z 32
_cell_length_a 15.318709
_cell_length_b 9.588767
_cell_length_c 12.040324
_cell_angle_alpha 90.000000
_cell_angle_beta 129.099716
_cell_angle_gamma 90.000000
_cell_volume 1372.500615
_symmetry_space_group_name_H-M "C 2/C"
_symmetry_group_IT_number 15
_symmetry_cell_setting 'monoclinic'
loop_
_space_group_symop_operation_xyz
x,y,z
-x,y,1/2-z
-x,-y,-z
x,-y,1/2+z
1/2+x,1/2+y,z
1/2-x,1/2+y,1/2-z
1/2-x,1/2-y,-z
1/2+x,1/2-y,1/2+z
loop_
_atom_site_type_symbol
_atom_site_label
_atom_site_fract_x
_atom_site_fract_y
_atom_site_fract_z
Si Si1 0.911540 0.170573 0.527030
Si Si2 0.500000 0.910872 0.750000
Si Si3 0.315683 0.315675 0.720793
Si Si4 0.000000 0.049579 0.250000
Si Si5 0.286205 0.007737 0.694096
O O1 0.932387 0.307937 0.613637
O O2 0.908751 0.201943 0.394450
O O3 0.997883 0.055422 0.642810
O O4 0.791506 0.092947 0.443913
O O5 0.412182 0.997604 0.751335
O O6 0.388235 0.359449 0.673536
O O7 0.252846 0.168945 0.664804
O O8 0.234889 0.437965 0.702029
#
# Coordination Sequence:
#
# PCOD9297563 Si02
#       5
#     8   4   8   4   8
#     4   9  24  40  68  96 132 167 218 262 332 375
#     4  11  21  42  72  92 130 174 214 266 324 380
#     4  10  24  41  64  98 132 167 215 264 319 384
#     4  11  21  42  72  92 130 174 214 266 324 380
#     4  10  24  41  64  98 132 167 215 264 319 384
#
# _framework density 23.315107000000001
#
# number of rings (size 3 to 8) (size 9 to 14) (size 15 to 20)
#    1.500    0.500    0.000    2.250    7.000    2.000 
#    0.000    0.000    0.000    0.000    0.000    0.000 
#    0.000    0.000    0.000    0.000    0.000    0.000 
#
# Total GULP energy -89218.887469 kJ/mol
# GULP energy per Si atom -5576.180467 kJ/mol
# Density = 2.326204 g / cm^3
# Si number density = 23.315107 Si / 1000 Ang^3
#
#
#
# Elastic Constant Matrix: (Units=GPa)
#
#
# Indices 1 2 3 4 5 6 
#
# 1 100.2425 28.0125 -13.7367 0.0000 3.7160 0.0000
# 2 28.0125 73.9249 2.6236 0.0000 -6.4738 0.0000
# 3 -13.7367 2.6236 67.8152 0.0000 -15.7574 0.0000
# 4 0.0000 0.0000 0.0000 8.6549 0.0000 8.0855
# 5 3.7160 -6.4738 -15.7574 0.0000 23.3908 0.0000
# 6 0.0000 0.0000 0.0000 8.0855 0.0000 24.7178
#
#
#
# Elastic Compliance Matrix: (Units=1/GPa)
#
#
# Indices 1 2 3 4 5 6 
#
# 1 0.011625 -0.004629 0.002142 0.000000 -0.001685 0.000000
# 2 -0.004629 0.015716 -0.000432 0.000000 0.004794 0.000000
# 3 0.002142 -0.000432 0.017890 0.000000 0.011592 0.000000
# 4 0.000000 0.000000 0.000000 0.166387 0.000000 -0.054427
# 5 -0.001685 0.004794 0.011592 0.000000 0.052155 0.000000
# 6 0.000000 0.000000 0.000000 -0.054427 0.000000 0.058260
#
#
# Mechanical properties :
#
#
# Convention : Reuss Voigt Hill
#
# Bulk Modulus (GPa) = 25.38327 30.64237 28.01282
# Shear Modulus (GPa) = 14.66263 26.35827 20.51045
#
# Velocity S-wave (km/s) = 2.51049 3.36597 2.96920
# Velocity P-wave (km/s) = 4.39478 5.31767 4.87810
#
# Compressibility (1/GPa) = 0.03939602
#
# Stress axis : x y z
#
# Youngs Moduli (GPa) = 86.01885 63.62772 55.89673
#
# Poissons Ratio (x) = 0.29452 -0.11976
# Poissons Ratio (y) = 0.39816 0.02413
# Poissons Ratio (z) = -0.18429 0.02746
#
# Static dielectric constant tensor:
#      x y z
#    x 1.877290 0.000000 -0.024630 
#    y 0.000000 1.856450 0.000000 
#    z -0.024630 0.000000 1.953150 
# 
# From -- ./inp_files/94181.got.cif
#   From: 2010.05.17/outbox.cif.g08.bks.cpg/sg15_48_cif.got.tgz:94181.got - 2010.06.03 18:47:42.
