data_PCOD9297880
_publ_section_title
;
Structure prediction by ZEFSAII (Michael W. Deem and Ramdas Pophale) SiO2 
 PCOD9297880
Probable space group: C 2/C
;
_chemical_formula_sum "Si O2"
_cell_formula_units_Z 52
_cell_length_a 10.345399
_cell_length_b 16.051799
_cell_length_c 14.910550
_cell_angle_alpha 90.000000
_cell_angle_beta 68.479833
_cell_angle_gamma 90.000000
_cell_volume 2303.468502
_symmetry_space_group_name_H-M "C 2/C"
_symmetry_group_IT_number 15
_symmetry_cell_setting 'monoclinic'
loop_
_space_group_symop_operation_xyz
x,y,z
-x,y,1/2-z
-x,-y,-z
x,-y,1/2+z
1/2+x,1/2+y,z
1/2-x,1/2+y,1/2-z
1/2-x,1/2-y,-z
1/2+x,1/2-y,1/2+z
loop_
_atom_site_type_symbol
_atom_site_label
_atom_site_fract_x
_atom_site_fract_y
_atom_site_fract_z
Si Si1 0.000000 0.112379 0.750000
Si Si2 0.166592 0.965072 0.056708
Si Si3 0.112568 0.245474 0.860604
Si Si4 0.046099 0.569650 0.843392
Si Si5 0.513922 0.092619 0.047539
Si Si6 0.385167 0.749362 0.202777
Si Si7 0.541814 0.632817 0.024936
O O1 0.113768 0.057121 0.669858
O O2 0.059875 0.174889 0.807802
O O3 0.323972 0.935070 0.998601
O O4 0.065520 0.914989 0.013985
O O5 0.132280 0.061795 0.049135
O O6 0.246486 0.285695 0.782010
O O7 0.000755 0.316276 0.908351
O O8 0.140924 0.194749 0.944097
O O9 0.139811 0.653599 0.817416
O O10 0.000000 0.562145 0.750000
O O11 0.070581 0.474109 0.869869
O O12 0.960673 0.594197 0.957370
O O13 0.500000 0.753673 0.250000
O O14 0.446926 0.690752 0.111257
#
# Coordination Sequence:
#
# PCOD9297880 Si02
#       7
#     4   8   8   8   8   8   8
#     4  10  24  42  70 104 138 186 238 298 366 434
#     4  10  24  45  70 101 145 182 238 301 364 433
#     4  11  25  44  72 107 138 189 245 300 362 434
#     4  10  24  44  65 102 137 186 233 301 362 431
#     4  11  24  45  73 104 139 188 243 307 364 432
#     4  11  25  43  67  99 144 188 237 291 361 439
#     4  10  24  46  68 102 142 192 232 298 366 432
#
# _framework density 22.574650999999999
#
# number of rings (size 3 to 8) (size 9 to 14) (size 15 to 20)
#    0.000    1.538    1.538    0.923    8.615    4.308 
#    8.308    0.000    0.000    0.000    0.000    0.000 
#    0.000    0.000    0.000    0.000    0.000    0.000 
#
# Total GULP energy -144866.880098 kJ/mol
# GULP energy per Si atom -5571.803081 kJ/mol
# Density = 2.252327 g / cm^3
# Si number density = 22.574651 Si / 1000 Ang^3
#
#
#
# Elastic Constant Matrix: (Units=GPa)
#
#
# Indices 1 2 3 4 5 6 
#
# 1 68.6439 32.7997 45.4358 0.0000 -11.7231 0.0000
# 2 32.7997 146.2930 81.5398 0.0000 -4.5212 0.0000
# 3 45.4358 81.5398 155.9554 0.0000 -5.4338 0.0000
# 4 0.0000 0.0000 0.0000 40.8406 0.0000 3.9514
# 5 -11.7231 -4.5212 -5.4338 0.0000 22.8405 0.0000
# 6 0.0000 0.0000 0.0000 3.9514 0.0000 29.0736
#
#
#
# Elastic Compliance Matrix: (Units=1/GPa)
#
#
# Indices 1 2 3 4 5 6 
#
# 1 0.019919 -0.001595 -0.004663 0.000000 0.008799 0.000000
# 2 -0.001595 0.009786 -0.004651 0.000000 0.000012 0.000000
# 3 -0.004663 -0.004651 0.010171 0.000000 -0.000894 0.000000
# 4 0.000000 0.000000 0.000000 0.024812 0.000000 -0.003372
# 5 0.008799 0.000012 -0.000894 0.000000 0.048088 0.000000
# 6 0.000000 0.000000 0.000000 -0.003372 0.000000 0.034854
#
#
# Mechanical properties :
#
#
# Convention : Reuss Voigt Hill
#
# Bulk Modulus (GPa) = 55.37714 76.71589 66.04651
# Shear Modulus (GPa) = 28.49533 32.62542 30.56037
#
# Velocity S-wave (km/s) = 3.55670 3.80573 3.68332
# Velocity P-wave (km/s) = 6.43823 7.30537 6.88546
#
# Compressibility (1/GPa) = 0.01805799
#
# Stress axis : x y z
#
# Youngs Moduli (GPa) = 50.20329 102.18444 98.31591
#
# Poissons Ratio (x) = 0.16301 0.45840
# Poissons Ratio (y) = 0.08009 0.45731
# Poissons Ratio (z) = 0.23408 0.47531
#
# Static dielectric constant tensor:
#      x y z
#    x 1.829120 0.000000 -0.011140 
#    y 0.000000 1.856230 0.000000 
#    z -0.011140 0.000000 1.882740 
# 
# From -- ./inp_files/144187.got.cif
#   From: 2010.05.17/outbox.cif.g08.bks.cpg/sg15_73_cif.got.tgz:144187.got - 2010.06.03 18:47:42.
