data_PCOD9297682
_publ_section_title
;
Structure prediction by ZEFSAII (Michael W. Deem and Ramdas Pophale) SiO2 
 PCOD9297682
Probable space group: C 2/C
;
_chemical_formula_sum "Si O2"
_cell_formula_units_Z 40
_cell_length_a 18.200412
_cell_length_b 5.640561
_cell_length_c 16.470325
_cell_angle_alpha 90.000000
_cell_angle_beta 102.764460
_cell_angle_gamma 90.000000
_cell_volume 1649.065636
_symmetry_space_group_name_H-M "C 2/C"
_symmetry_group_IT_number 15
_symmetry_cell_setting 'monoclinic'
loop_
_space_group_symop_operation_xyz
x,y,z
-x,y,1/2-z
-x,-y,-z
x,-y,1/2+z
1/2+x,1/2+y,z
1/2-x,1/2+y,1/2-z
1/2-x,1/2-y,-z
1/2+x,1/2-y,1/2+z
loop_
_atom_site_type_symbol
_atom_site_label
_atom_site_fract_x
_atom_site_fract_y
_atom_site_fract_z
Si Si1 0.043699 0.793986 0.559638
Si Si2 0.083175 0.837515 0.269015
Si Si3 0.658119 0.034332 0.680414
Si Si4 0.207032 0.780390 0.849227
Si Si5 0.094812 0.520388 0.920421
O O1 0.114616 0.770067 0.638785
O O2 0.078639 0.623332 0.498569
O O3 0.974513 0.699486 0.595629
O O4 0.000000 0.000000 0.500000
O O5 0.101231 0.675845 0.194293
O O6 0.084410 0.651940 0.342760
O O7 0.000000 0.943781 0.250000
O O8 0.145814 0.026008 0.307372
O O9 0.706353 0.097364 0.772921
O O10 0.714076 0.915902 0.629201
O O11 0.173545 0.652482 0.920664
#
# Coordination Sequence:
#
# PCOD9297682 Si02
#       5
#     8   8   8   8   8
#     4  11  24  44  67 101 139 187 231 286 348 426
#     4  11  22  41  69  99 132 177 231 290 337 416
#     4  11  24  43  68 102 138 179 233 289 352 413
#     4  11  24  41  69 103 135 179 232 298 349 408
#     4  10  24  42  64 100 137 177 238 277 354 420
#
# _framework density 24.256160000000001
#
# number of rings (size 3 to 8) (size 9 to 14) (size 15 to 20)
#    0.000    1.200    4.000    1.200    5.600    0.800 
#    0.000    4.000    0.000    0.000    0.000    0.000 
#    0.000    0.000    0.000    0.000    0.000    0.000 
#
# Total GULP energy -111628.275640 kJ/mol
# GULP energy per Si atom -5581.413782 kJ/mol
# Density = 2.420095 g / cm^3
# Si number density = 24.256160 Si / 1000 Ang^3
#
#
#
# Elastic Constant Matrix: (Units=GPa)
#
#
# Indices 1 2 3 4 5 6 
#
# 1 131.3576 31.4831 39.9493 0.0000 -25.8283 0.0000
# 2 31.4831 70.6991 25.1442 0.0000 -13.4109 0.0000
# 3 39.9493 25.1442 74.6015 0.0000 -11.4540 0.0000
# 4 0.0000 0.0000 0.0000 28.1515 0.0000 -18.2637
# 5 -25.8283 -13.4109 -11.4540 0.0000 32.1197 0.0000
# 6 0.0000 0.0000 0.0000 -18.2637 0.0000 35.2787
#
#
#
# Elastic Compliance Matrix: (Units=1/GPa)
#
#
# Indices 1 2 3 4 5 6 
#
# 1 0.010545 -0.002105 -0.003989 0.000000 0.006178 0.000000
# 2 -0.002105 0.017306 -0.004080 0.000000 0.004078 0.000000
# 3 -0.003989 -0.004080 0.017098 0.000000 0.001186 0.000000
# 4 0.000000 0.000000 0.000000 0.053486 0.000000 0.027690
# 5 0.006178 0.004078 0.001186 0.000000 0.038227 0.000000
# 6 0.000000 0.000000 0.000000 0.027690 0.000000 0.042680
#
#
# Mechanical properties :
#
#
# Convention : Reuss Voigt Hill
#
# Bulk Modulus (GPa) = 40.64703 52.20128 46.42416
# Shear Modulus (GPa) = 24.05097 31.11540 27.58319
#
# Velocity S-wave (km/s) = 3.15229 3.58548 3.37584
# Velocity P-wave (km/s) = 5.48115 6.22161 5.86308
#
# Compressibility (1/GPa) = 0.02460204
#
# Stress axis : x y z
#
# Youngs Moduli (GPa) = 94.82867 57.78183 58.48731
#
# Poissons Ratio (x) = 0.12165 0.23330
# Poissons Ratio (y) = 0.19965 0.23860
# Poissons Ratio (z) = 0.37826 0.23572
#
# Static dielectric constant tensor:
#      x y z
#    x 1.912520 0.000000 0.033340 
#    y 0.000000 2.030010 0.000000 
#    z 0.033340 0.000000 2.013370 
# 
# From -- ./inp_files/208048.got.cif
#   From: 2010.05.17/outbox.cif.g08.bks.cpg/sg15_105_cif.got.tgz:208048.got - 2010.06.03 18:47:42.
