data_PCOD9297837
_publ_section_title
;
Structure prediction by ZEFSAII (Michael W. Deem and Ramdas Pophale) SiO2 
 PCOD9297837
Probable space group: C 2/C
;
_chemical_formula_sum "Si O2"
_cell_formula_units_Z 44
_cell_length_a 21.004782
_cell_length_b 8.951351
_cell_length_c 25.868896
_cell_angle_alpha 90.000000
_cell_angle_beta 158.706490
_cell_angle_gamma 90.000000
_cell_volume 1766.304433
_symmetry_space_group_name_H-M "C 2/C"
_symmetry_group_IT_number 15
_symmetry_cell_setting 'monoclinic'
loop_
_space_group_symop_operation_xyz
x,y,z
-x,y,1/2-z
-x,-y,-z
x,-y,1/2+z
1/2+x,1/2+y,z
1/2-x,1/2+y,1/2-z
1/2-x,1/2-y,-z
1/2+x,1/2-y,1/2+z
loop_
_atom_site_type_symbol
_atom_site_label
_atom_site_fract_x
_atom_site_fract_y
_atom_site_fract_z
Si Si1 0.224306 0.577341 0.300887
Si Si2 0.500000 0.750751 0.750000
Si Si3 0.371848 0.001037 0.093571
Si Si4 0.500000 0.257663 0.750000
Si Si5 0.500000 0.000000 0.000000
Si Si6 0.409739 0.307557 0.385899
Si Si7 0.692178 0.506253 0.848271
O O1 0.275171 0.442131 0.299076
O O2 0.398504 0.615329 0.465678
O O3 0.159018 0.718772 0.216834
O O4 0.068303 0.518838 0.218755
O O5 0.568147 0.649569 0.754936
O O6 0.649399 0.857852 0.885368
O O7 0.359849 0.854094 0.118838
O O8 0.255429 0.001411 0.955458
O O9 0.579843 0.355300 0.763426
O O10 0.423518 0.825537 0.937845
O O11 0.354680 0.032373 0.934837
#
# Coordination Sequence:
#
# PCOD9297837 Si02
#       7
#     8   4   8   4   4   8   8
#     4  11  24  42  69 101 144 188 243 288 369 419
#     4  10  24  42  68  96 132 176 238 282 346 420
#     4  11  22  43  69  95 133 180 236 290 342 432
#     4  10  24  44  68  96 136 184 238 282 352 430
#     4  12  22  42  70 100 148 174 240 286 362 422
#     4  11  24  43  66 104 146 193 229 302 355 438
#     4  11  23  43  67 100 134 183 226 292 353 417
#
# _framework density 24.910768999999998
#
# number of rings (size 3 to 8) (size 9 to 14) (size 15 to 20)
#    0.000    1.091    1.818    4.364    0.000    0.000 
#    0.000    0.000    0.000    0.000    0.000    0.000 
#    0.000    0.000    0.000    0.000    0.000    0.000 
#
# Total GULP energy -122563.036011 kJ/mol
# GULP energy per Si atom -5571.047091 kJ/mol
# Density = 2.485407 g / cm^3
# Si number density = 24.910769 Si / 1000 Ang^3
#
#
#
# Elastic Constant Matrix: (Units=GPa)
#
#
# Indices 1 2 3 4 5 6 
#
# 1 103.4295 41.2192 17.3870 0.0058 32.6618 0.0023
# 2 41.2192 150.1781 16.4674 0.0058 -5.4036 0.0025
# 3 17.3870 16.4674 72.7780 0.0234 6.0075 0.0078
# 4 0.0058 0.0058 0.0234 13.1701 0.0001 -33.2156
# 5 32.6618 -5.4036 6.0075 0.0001 26.5013 -0.0011
# 6 0.0023 0.0025 0.0078 -33.2156 -0.0011 5.6317
#
#
#
# Elastic Compliance Matrix: (Units=1/GPa)
#
#
# Indices 1 2 3 4 5 6 
#
# 1 0.021039 -0.006602 -0.001305 0.000002 -0.026980 0.000002
# 2 -0.006602 0.008983 -0.001303 -0.000001 0.010264 -0.000001
# 3 -0.001305 -0.001303 0.014508 0.000005 -0.001945 0.000012
# 4 0.000002 -0.000001 0.000005 -0.005472 -0.000005 -0.032276
# 5 -0.026980 0.010264 -0.001945 -0.000005 0.073519 -0.000006
# 6 0.000002 -0.000001 0.000012 -0.032276 -0.000006 -0.012798
#
#
# Mechanical properties :
#
#
# Convention : Reuss Voigt Hill
#
# Bulk Modulus (GPa) = 38.30043 52.94808 45.62425
# Shear Modulus (GPa) = 39.40055 25.81476 32.60766
#
# Velocity S-wave (km/s) = 3.98133 3.22264 3.62191
# Velocity P-wave (km/s) = 6.04509 5.92861 5.98713
#
# Compressibility (1/GPa) = 0.02610937
#
# Stress axis : x y z
#
# Youngs Moduli (GPa) = 47.53110 111.32177 68.92949
#
# Poissons Ratio (x) = 0.73496 0.08998
# Poissons Ratio (y) = 0.31381 0.08978
# Poissons Ratio (z) = 0.06205 0.14500
#
# Static dielectric constant tensor:
#      x y z
#    x 1.921720 0.000000 -0.083300 
#    y 0.000000 2.021070 0.000000 
#    z -0.083300 0.000000 2.066950 
# 
# From -- ./inp_files/121795.got.cif
#   From: 2010.05.17/outbox.cif.g08.bks.cpg/sg15_61_cif.got.tgz:121795.got - 2010.06.03 18:47:42.
