data_PCOD9297854
_publ_section_title
;
Structure prediction by ZEFSAII (Michael W. Deem and Ramdas Pophale) SiO2 
 PCOD9297854
Probable space group: C 2/C
;
_chemical_formula_sum "Si O2"
_cell_formula_units_Z 52
_cell_length_a 18.513102
_cell_length_b 15.504665
_cell_length_c 8.317360
_cell_angle_alpha 90.000000
_cell_angle_beta 75.730949
_cell_angle_gamma 90.000000
_cell_volume 2313.756420
_symmetry_space_group_name_H-M "C 2/C"
_symmetry_group_IT_number 15
_symmetry_cell_setting 'monoclinic'
loop_
_space_group_symop_operation_xyz
x,y,z
-x,y,1/2-z
-x,-y,-z
x,-y,1/2+z
1/2+x,1/2+y,z
1/2-x,1/2+y,1/2-z
1/2-x,1/2-y,-z
1/2+x,1/2-y,1/2+z
loop_
_atom_site_type_symbol
_atom_site_label
_atom_site_fract_x
_atom_site_fract_y
_atom_site_fract_z
Si Si1 0.838841 0.256430 0.916450
Si Si2 0.581693 0.407291 0.163462
Si Si3 0.375257 0.928311 0.083890
Si Si4 0.869828 0.072076 0.506049
Si Si5 0.205595 0.425070 0.055289
Si Si6 0.623226 0.768639 0.984977
Si Si7 0.500000 0.124610 0.750000
O O1 0.874997 0.166772 0.956750
O O2 0.864860 0.264184 0.714852
O O3 0.750000 0.250000 0.000000
O O4 0.871730 0.340906 0.983973
O O5 0.500000 0.372730 0.250000
O O6 0.574202 0.498741 0.081231
O O7 0.625237 0.424623 0.304674
O O8 0.308617 0.923323 0.248209
O O9 0.448945 0.929313 0.153796
O O10 0.355219 0.011604 0.990547
O O11 0.789117 0.044226 0.485293
O O12 0.880670 0.171032 0.449670
O O13 0.191819 0.328584 0.002430
O O14 0.553211 0.817567 0.105648
#
# Coordination Sequence:
#
# PCOD9297854 Si02
#       7
#     8   8   8   8   8   8   4
#     4  11  24  44  71 101 139 190 241 297 353 423
#     4  11  26  43  67 102 139 186 231 288 362 427
#     4  11  24  41  71  97 144 182 238 288 365 421
#     4  11  23  41  68  96 141 176 239 288 349 417
#     4  11  22  43  67 105 132 187 237 300 347 424
#     4  10  24  42  69 101 143 181 240 289 363 425
#     4  10  26  44  66 106 138 198 228 296 362 442
#
# _framework density 22.474276
#
# number of rings (size 3 to 8) (size 9 to 14) (size 15 to 20)
#    0.000    1.231    0.000    5.538    5.385    7.385 
#    0.000    0.000    0.000    0.000    0.000    0.000 
#    0.000    0.000    0.000    0.000    0.000    0.000 
#
# Total GULP energy -145206.477366 kJ/mol
# GULP energy per Si atom -5584.864514 kJ/mol
# Density = 2.242312 g / cm^3
# Si number density = 22.474276 Si / 1000 Ang^3
#
#
#
# Elastic Constant Matrix: (Units=GPa)
#
#
# Indices 1 2 3 4 5 6 
#
# 1 125.0389 34.5906 19.6608 0.0000 -4.2158 0.0000
# 2 34.5906 152.9864 39.7597 0.0000 16.9418 0.0000
# 3 19.6608 39.7597 82.6542 0.0000 -2.4391 0.0000
# 4 0.0000 0.0000 0.0000 39.5621 0.0000 -4.0936
# 5 -4.2158 16.9418 -2.4391 0.0000 21.9822 0.0000
# 6 0.0000 0.0000 0.0000 -4.0936 0.0000 21.1014
#
#
#
# Elastic Compliance Matrix: (Units=1/GPa)
#
#
# Indices 1 2 3 4 5 6 
#
# 1 0.008842 -0.002093 -0.001002 0.000000 0.003197 0.000000
# 2 -0.002093 0.008907 -0.004014 0.000000 -0.007711 0.000000
# 3 -0.001002 -0.004014 0.014401 0.000000 0.004500 0.000000
# 4 0.000000 0.000000 0.000000 0.025795 0.000000 0.005004
# 5 0.003197 -0.007711 0.004500 0.000000 0.052547 0.000000
# 6 0.000000 0.000000 0.000000 0.005004 0.000000 0.048361
#
#
# Mechanical properties :
#
#
# Convention : Reuss Voigt Hill
#
# Bulk Modulus (GPa) = 55.76907 60.96686 58.36796
# Shear Modulus (GPa) = 27.92553 34.30704 31.11628
#
# Velocity S-wave (km/s) = 3.52881 3.91129 3.72496
# Velocity P-wave (km/s) = 6.43986 6.89810 6.67292
#
# Compressibility (1/GPa) = 0.01793109
#
# Stress axis : x y z
#
# Youngs Moduli (GPa) = 113.09864 112.27157 69.44064
#
# Poissons Ratio (x) = 0.23496 0.06959
# Poissons Ratio (y) = 0.23669 0.27876
# Poissons Ratio (z) = 0.11334 0.45069
#
# Static dielectric constant tensor:
#      x y z
#    x 1.843580 0.000000 0.005090 
#    y 0.000000 1.864790 0.000000 
#    z 0.005090 0.000000 1.831500 
# 
# From -- ./inp_files/48538.got.cif
#   From: 2010.05.17/outbox.cif.g08.bks.cpg/sg15_25_cif.got.tgz:48538.got - 2010.06.03 18:47:42.
