data_PCOD9297424
_publ_section_title
;
Structure prediction by ZEFSAII (Michael W. Deem and Ramdas Pophale) SiO2 
 PCOD9297424
Probable space group: C 2/C
;
_chemical_formula_sum "Si O2"
_cell_formula_units_Z 60
_cell_length_a 20.085929
_cell_length_b 15.973301
_cell_length_c 19.187794
_cell_angle_alpha 90.000000
_cell_angle_beta 152.343352
_cell_angle_gamma 90.000000
_cell_volume 2857.528552
_symmetry_space_group_name_H-M "C 2/C"
_symmetry_group_IT_number 15
_symmetry_cell_setting 'monoclinic'
loop_
_space_group_symop_operation_xyz
x,y,z
-x,y,1/2-z
-x,-y,-z
x,-y,1/2+z
1/2+x,1/2+y,z
1/2-x,1/2+y,1/2-z
1/2-x,1/2-y,-z
1/2+x,1/2-y,1/2+z
loop_
_atom_site_type_symbol
_atom_site_label
_atom_site_fract_x
_atom_site_fract_y
_atom_site_fract_z
Si Si1 0.000000 0.773250 0.750000
Si Si2 0.746429 0.851690 0.430870
Si Si3 0.317790 0.450839 0.767151
Si Si4 0.366413 0.387458 0.398780
Si Si5 0.301357 0.145372 0.218761
Si Si6 0.508530 0.294324 0.108089
Si Si7 0.378892 0.446928 0.190885
Si Si8 0.162760 0.538369 0.380471
O O1 0.121073 0.714816 0.827695
O O2 0.900969 0.825204 0.605180
O O3 0.765461 0.860980 0.366657
O O4 0.702025 0.940557 0.421327
O O5 0.302043 0.536634 0.795303
O O6 0.217574 0.386629 0.718538
O O7 0.315097 0.482485 0.684418
O O8 0.480652 0.419247 0.929650
O O9 0.402390 0.314149 0.379236
O O10 0.437780 0.201858 0.325049
O O11 0.302689 0.068421 0.165579
O O12 0.157833 0.196526 0.064995
O O13 0.552848 0.369591 0.202033
O O14 0.500000 0.480670 0.250000
O O15 0.257252 0.414703 0.025878
O O16 0.000000 0.550218 0.250000
#
# Coordination Sequence:
#
# PCOD9297424 Si02
#       8
#     4   8   8   8   8   8   8   8
#     4  10  26  40  64  94 132 166 218 266 344 388
#     4  11  22  44  63  95 128 171 213 275 324 408
#     4   9  19  38  67  95 122 175 219 275 323 388
#     4   9  18  37  65  92 127 163 221 268 319 389
#     4  11  23  45  66  98 139 178 227 276 337 399
#     4  10  24  40  65  99 133 175 225 272 339 399
#     4  11  22  42  68 100 128 176 231 277 330 413
#     4  12  26  42  68  97 135 175 225 279 340 397
#
# _framework density 20.997164999999999
#
# number of rings (size 3 to 8) (size 9 to 14) (size 15 to 20)
#    0.000    1.600    3.333    1.600    4.667    3.200 
#    2.400    2.000    0.000    0.000    0.000    0.000 
#    0.000    0.000    0.000    0.000    0.000    0.000 
#
# Total GULP energy -167386.324485 kJ/mol
# GULP energy per Si atom -5579.544150 kJ/mol
# Density = 2.094937 g / cm^3
# Si number density = 20.997165 Si / 1000 Ang^3
#
#
#
# Elastic Constant Matrix: (Units=GPa)
#
#
# Indices 1 2 3 4 5 6 
#
# 1 133.5981 18.7886 34.6084 0.0005 -8.3150 0.0009
# 2 18.7886 61.3256 12.1667 0.0009 1.3747 0.0017
# 3 34.6084 12.1667 58.9975 0.0008 14.3643 0.0005
# 4 0.0005 0.0009 0.0008 17.5795 0.0008 5.7873
# 5 -8.3150 1.3747 14.3643 0.0008 25.1662 0.0019
# 6 0.0009 0.0017 0.0005 5.7873 0.0019 5.2074
#
#
#
# Elastic Compliance Matrix: (Units=1/GPa)
#
#
# Indices 1 2 3 4 5 6 
#
# 1 0.010151 -0.001803 -0.007460 0.000001 0.007711 -0.000005
# 2 -0.001803 0.017356 -0.002492 0.000001 -0.000121 -0.000006
# 3 -0.007460 -0.002492 0.026024 -0.000003 -0.017183 0.000009
# 4 0.000001 0.000001 -0.000003 0.089704 0.000007 -0.099694
# 5 0.007711 -0.000121 -0.017183 0.000007 0.052098 -0.000026
# 6 -0.000005 -0.000006 0.000009 -0.099694 -0.000026 0.302828
#
#
# Mechanical properties :
#
#
# Convention : Reuss Voigt Hill
#
# Bulk Modulus (GPa) = 33.31099 42.78318 38.04708
# Shear Modulus (GPa) = 9.40419 22.14779 15.77599
#
# Velocity S-wave (km/s) = 2.11861 3.25129 2.74403
# Velocity P-wave (km/s) = 4.67800 5.87490 5.31028
#
# Compressibility (1/GPa) = 0.03002013
#
# Stress axis : x y z
#
# Youngs Moduli (GPa) = 98.51080 57.61730 38.42663
#
# Poissons Ratio (x) = 0.10387 0.28668
# Poissons Ratio (y) = 0.17760 0.09576
# Poissons Ratio (z) = 0.73492 0.14359
#
# Static dielectric constant tensor:
#      x y z
#    x 1.755760 0.000000 -0.022240 
#    y 0.000000 1.798580 0.000000 
#    z -0.022240 0.000000 1.786790 
# 
# From -- ./inp_files/211755.got.cif
#   From: 2010.05.17/outbox.cif.g08.bks.cpg/sg15_106_cif.got.tgz:211755.got - 2010.06.03 18:47:42.
