data_PCOD9297605
_publ_section_title
;
Structure prediction by ZEFSAII (Michael W. Deem and Ramdas Pophale) SiO2 
 PCOD9297605
Probable space group: C 2/C
;
_chemical_formula_sum "Si O2"
_cell_formula_units_Z 52
_cell_length_a 26.825844
_cell_length_b 9.301281
_cell_length_c 14.701107
_cell_angle_alpha 90.000000
_cell_angle_beta 137.018399
_cell_angle_gamma 90.000000
_cell_volume 2500.805557
_symmetry_space_group_name_H-M "C 2/C"
_symmetry_group_IT_number 15
_symmetry_cell_setting 'monoclinic'
loop_
_space_group_symop_operation_xyz
x,y,z
-x,y,1/2-z
-x,-y,-z
x,-y,1/2+z
1/2+x,1/2+y,z
1/2-x,1/2+y,1/2-z
1/2-x,1/2-y,-z
1/2+x,1/2-y,1/2+z
loop_
_atom_site_type_symbol
_atom_site_label
_atom_site_fract_x
_atom_site_fract_y
_atom_site_fract_z
Si Si1 0.656550 0.787396 0.077539
Si Si2 0.205574 0.805492 0.352591
Si Si3 0.467068 0.343344 0.565189
Si Si4 0.924676 0.705003 0.227675
Si Si5 0.000000 0.041385 0.750000
Si Si6 0.461075 0.988512 0.044665
Si Si7 0.885225 0.055488 0.324085
O O1 0.741670 0.791503 0.163686
O O2 0.641648 0.664705 0.132752
O O3 0.615897 0.777198 0.924013
O O4 0.616556 0.930260 0.060673
O O5 0.250000 0.750000 0.500000
O O6 0.133499 0.707596 0.268843
O O7 0.177740 0.971698 0.316637
O O8 0.446492 0.433349 0.627642
O O9 0.423657 0.423285 0.428044
O O10 0.553017 0.365504 0.653961
O O11 0.452368 0.176754 0.558407
O O12 0.970631 0.852883 0.288665
O O13 0.980703 0.575708 0.315246
O O14 0.500000 0.000000 0.000000
#
# Coordination Sequence:
#
# PCOD9297605 Si02
#       7
#     8   8   8   8   4   8   8
#     4  11  23  42  64  94 134 180 219 277 352 403
#     4  10  24  41  68  93 133 181 225 270 345 410
#     4  11  24  36  67 103 127 169 227 288 333 397
#     4  11  21  42  66  91 129 179 224 277 340 407
#     4  12  20  38  70  92 130 172 224 280 334 394
#     4  12  23  38  67 101 134 168 226 291 342 397
#     4  11  21  43  64  95 132 173 231 272 334 420
#
# _framework density 20.793299999999999
#
# number of rings (size 3 to 8) (size 9 to 14) (size 15 to 20)
#    0.000    0.923    6.154    0.923    2.154    2.462 
#    0.000    0.000    0.000    2.769    0.000    0.000 
#    0.000    0.000    0.000    0.000    0.000    0.000 
#
# Total GULP energy -144859.900777 kJ/mol
# GULP energy per Si atom -5571.534645 kJ/mol
# Density = 2.074597 g / cm^3
# Si number density = 20.793300 Si / 1000 Ang^3
#
#
#
# Elastic Constant Matrix: (Units=GPa)
#
#
# Indices 1 2 3 4 5 6 
#
# 1 151.6388 49.6835 12.9115 0.0000 14.8393 0.0000
# 2 49.6835 167.6788 35.3662 0.0000 4.2143 0.0000
# 3 12.9115 35.3662 52.7709 0.0000 -9.8885 0.0000
# 4 0.0000 0.0000 0.0000 36.7726 0.0000 -4.3622
# 5 14.8393 4.2143 -9.8885 0.0000 29.1425 0.0000
# 6 0.0000 0.0000 0.0000 -4.3622 0.0000 30.8538
#
#
#
# Elastic Compliance Matrix: (Units=1/GPa)
#
#
# Indices 1 2 3 4 5 6 
#
# 1 0.007740 -0.001894 -0.001401 0.000000 -0.004143 0.000000
# 2 -0.001894 0.007623 -0.004989 0.000000 -0.001831 0.000000
# 3 -0.001401 -0.004989 0.024460 0.000000 0.009734 0.000000
# 4 0.000000 0.000000 0.000000 0.027658 0.000000 0.003910
# 5 -0.004143 -0.001831 0.009734 0.000000 0.039991 0.000000
# 6 0.000000 0.000000 0.000000 0.003910 0.000000 0.032964
#
#
# Mechanical properties :
#
#
# Convention : Reuss Voigt Hill
#
# Bulk Modulus (GPa) = 42.99868 63.11231 53.05549
# Shear Modulus (GPa) = 30.34821 37.62891 33.98856
#
# Velocity S-wave (km/s) = 3.82451 4.25863 4.04739
# Velocity P-wave (km/s) = 6.34244 7.38914 6.88571
#
# Compressibility (1/GPa) = 0.02325653
#
# Stress axis : x y z
#
# Youngs Moduli (GPa) = 129.20321 131.18045 40.88320
#
# Poissons Ratio (x) = 0.24842 0.05727
# Poissons Ratio (y) = 0.24468 0.20395
# Poissons Ratio (z) = 0.18099 0.65441
#
# Static dielectric constant tensor:
#      x y z
#    x 1.823700 0.000000 0.012970 
#    y 0.000000 1.762590 0.000000 
#    z 0.012970 0.000000 1.789320 
# 
# From -- ./inp_files/176705.got.cif
#   From: 2010.05.17/outbox.cif.g08.bks.cpg/sg15_89_cif.got.tgz:176705.got - 2010.06.03 18:47:42.
