data_PCOD9297390
_publ_section_title
;
Structure prediction by ZEFSAII (Michael W. Deem and Ramdas Pophale) SiO2 
 PCOD9297390
Probable space group: C 2/C
;
_chemical_formula_sum "Si O2"
_cell_formula_units_Z 64
_cell_length_a 14.145884
_cell_length_b 24.166085
_cell_length_c 16.281038
_cell_angle_alpha 90.000000
_cell_angle_beta 146.580310
_cell_angle_gamma 90.000000
_cell_volume 3065.398010
_symmetry_space_group_name_H-M "C 2/C"
_symmetry_group_IT_number 15
_symmetry_cell_setting 'monoclinic'
loop_
_space_group_symop_operation_xyz
x,y,z
-x,y,1/2-z
-x,-y,-z
x,-y,1/2+z
1/2+x,1/2+y,z
1/2-x,1/2+y,1/2-z
1/2-x,1/2-y,-z
1/2+x,1/2-y,1/2+z
loop_
_atom_site_type_symbol
_atom_site_label
_atom_site_fract_x
_atom_site_fract_y
_atom_site_fract_z
Si Si1 0.288768 0.983700 0.978496
Si Si2 0.058781 0.400913 0.885567
Si Si3 0.860231 0.425608 0.276042
Si Si4 0.223867 0.752293 0.184260
Si Si5 0.596442 0.828069 0.058238
Si Si6 0.754945 0.041360 0.245222
Si Si7 0.401295 0.406376 0.549177
Si Si8 0.400446 0.712519 0.071581
O O1 0.278837 0.971198 0.874912
O O2 0.462642 0.951260 0.127014
O O3 0.136825 0.957410 0.919265
O O4 0.311025 0.047458 0.017984
O O5 0.896470 0.425180 0.819428
O O6 0.000000 0.388035 0.750000
O O7 0.135505 0.351405 0.995949
O O8 0.897540 0.380575 0.374472
O O9 0.747602 0.479329 0.220384
O O10 0.755673 0.399795 0.126674
O O11 0.273267 0.783708 0.304813
O O12 0.410254 0.737366 0.282108
O O13 0.130752 0.790074 0.049337
O O14 0.092632 0.700232 0.089364
O O15 0.924872 0.078433 0.372105
O O16 0.402654 0.350248 0.601731
O O17 0.250000 0.750000 0.000000
#
# Coordination Sequence:
#
# PCOD9297390 Si02
#       8
#     8   8   8   8   8   8   8   8
#     4  11  22  38  62  98 135 177 220 252 331 419
#     4  11  22  42  71  95 123 176 230 281 341 413
#     4  11  21  40  63  88 131 183 214 267 328 402
#     4  10  24  40  63  91 122 176 231 274 330 399
#     4  11  21  44  68  90 125 168 229 281 343 387
#     4  11  22  41  63  98 136 171 221 271 336 399
#     4  12  25  37  63 101 142 173 216 273 326 396
#     4  11  24  37  57  92 136 180 223 263 318 398
#
# _framework density 20.878202000000002
#
# number of rings (size 3 to 8) (size 9 to 14) (size 15 to 20)
#    0.000    1.000    3.750    4.500    3.500    2.000 
#    0.000    0.625    0.000    0.000    0.000    0.000 
#    0.000    0.000    0.000    0.000    0.000    0.000 
#
# Total GULP energy -178583.311595 kJ/mol
# GULP energy per Si atom -5580.728487 kJ/mol
# Density = 2.083068 g / cm^3
# Si number density = 20.878202 Si / 1000 Ang^3
#
#
#
# Elastic Constant Matrix: (Units=GPa)
#
#
# Indices 1 2 3 4 5 6 
#
# 1 59.2974 20.4405 17.3204 0.0000 -19.6839 0.0000
# 2 20.4405 95.6476 30.2891 0.0000 1.4810 0.0000
# 3 17.3204 30.2891 106.3179 0.0000 -26.2715 0.0000
# 4 0.0000 0.0000 0.0000 12.1971 0.0000 6.6024
# 5 -19.6839 1.4810 -26.2715 0.0000 44.4389 0.0000
# 6 0.0000 0.0000 0.0000 6.6024 0.0000 4.6527
#
#
#
# Elastic Compliance Matrix: (Units=1/GPa)
#
#
# Indices 1 2 3 4 5 6 
#
# 1 0.021784 -0.004912 0.000323 0.000000 0.010003 0.000000
# 2 -0.004912 0.012886 -0.004116 0.000000 -0.005039 0.000000
# 3 0.000323 -0.004116 0.012408 0.000000 0.007615 0.000000
# 4 0.000000 0.000000 0.000000 0.353634 0.000000 -0.501830
# 5 0.010003 -0.005039 0.007615 0.000000 0.031604 0.000000
# 6 0.000000 0.000000 0.000000 -0.501830 0.000000 0.927060
#
#
# Mechanical properties :
#
#
# Convention : Reuss Voigt Hill
#
# Bulk Modulus (GPa) = 33.70850 44.15143 38.92997
# Shear Modulus (GPa) = 3.60575 25.13857 14.37216
#
# Velocity S-wave (km/s) = 1.31559 3.47372 2.62655
# Velocity P-wave (km/s) = 4.29978 6.10590 5.28063
#
# Compressibility (1/GPa) = 0.02966611
#
# Stress axis : x y z
#
# Youngs Moduli (GPa) = 45.90532 77.60171 80.59597
#
# Poissons Ratio (x) = 0.38121 -0.02600
# Poissons Ratio (y) = 0.22551 0.33173
# Poissons Ratio (z) = -0.01481 0.31941
#
# Static dielectric constant tensor:
#      x y z
#    x 1.753540 0.000000 -0.032770 
#    y 0.000000 1.806610 0.000000 
#    z -0.032770 0.000000 1.777670 
# 
# From -- ./inp_files/207383.got.cif
#   From: 2010.05.17/outbox.cif.g08.bks.cpg/sg15_104_cif.got.tgz:207383.got - 2010.06.03 18:47:42.
