data_PCOD9297629
_publ_section_title
;
Structure prediction by ZEFSAII (Michael W. Deem and Ramdas Pophale) SiO2 
 PCOD9297629
Probable space group: C 2/C
;
_chemical_formula_sum "Si O2"
_cell_formula_units_Z 44
_cell_length_a 8.704086
_cell_length_b 17.214055
_cell_length_c 13.541144
_cell_angle_alpha 90.000000
_cell_angle_beta 104.397697
_cell_angle_gamma 90.000000
_cell_volume 1965.183515
_symmetry_space_group_name_H-M "C 2/C"
_symmetry_group_IT_number 15
_symmetry_cell_setting 'monoclinic'
loop_
_space_group_symop_operation_xyz
x,y,z
-x,y,1/2-z
-x,-y,-z
x,-y,1/2+z
1/2+x,1/2+y,z
1/2-x,1/2+y,1/2-z
1/2-x,1/2-y,-z
1/2+x,1/2-y,1/2+z
loop_
_atom_site_type_symbol
_atom_site_label
_atom_site_fract_x
_atom_site_fract_y
_atom_site_fract_z
Si Si1 0.995779 0.760695 0.076118
Si Si2 0.430799 0.401950 0.916930
Si Si3 0.765540 0.001727 0.052381
Si Si4 0.000000 0.651733 0.750000
Si Si5 0.506916 0.108814 0.555668
Si Si6 0.252512 0.232012 0.212057
O O1 0.851024 0.754788 0.130235
O O2 0.141851 0.741261 0.172610
O O3 0.994958 0.840287 0.011594
O O4 0.985849 0.690939 0.997105
O O5 0.577494 0.449862 0.893743
O O6 0.328912 0.350673 0.824189
O O7 0.318540 0.462329 0.957151
O O8 0.681657 0.929452 0.094459
O O9 0.617232 0.059828 0.028534
O O10 0.924121 0.604986 0.649638
O O11 0.882849 0.706417 0.789583
#
# Coordination Sequence:
#
# PCOD9297629 Si02
#       6
#     8   8   8   4   8   8
#     4  11  23  44  75  92 141 176 238 282 337 405
#     4  11  21  45  70 101 132 178 229 288 332 414
#     4  10  24  41  70  95 141 176 218 282 359 390
#     4  12  24  40  70 102 130 174 240 276 340 404
#     4  11  23  46  66 101 133 188 218 286 340 418
#     4  11  24  39  70 108 125 180 232 289 336 396
#
# _framework density 22.389766999999999
#
# number of rings (size 3 to 8) (size 9 to 14) (size 15 to 20)
#    0.000    1.091    3.636    2.727    2.545    1.455 
#    6.545    0.000   12.000    0.000    0.000    0.000 
#    0.000    0.000    0.000    0.000    0.000    0.000 
#
# Total GULP energy -122681.327984 kJ/mol
# GULP energy per Si atom -5576.423999 kJ/mol
# Density = 2.233881 g / cm^3
# Si number density = 22.389767 Si / 1000 Ang^3
#
#
#
# Elastic Constant Matrix: (Units=GPa)
#
#
# Indices 1 2 3 4 5 6 
#
# 1 73.5170 33.4637 24.4977 0.0000 5.1951 0.0000
# 2 33.4637 87.6453 17.6958 0.0000 4.9433 0.0000
# 3 24.4977 17.6958 97.2232 0.0000 -2.9749 0.0000
# 4 0.0000 0.0000 0.0000 -42.7108 0.0000 -14.1291
# 5 5.1951 4.9433 -2.9749 0.0000 27.7525 0.0000
# 6 0.0000 0.0000 0.0000 -14.1291 0.0000 37.4791
#
#
#
# Elastic Compliance Matrix: (Units=1/GPa)
#
#
# Indices 1 2 3 4 5 6 
#
# 1 0.017613 -0.005881 -0.003448 0.000000 -0.002619 0.000000
# 2 -0.005881 0.013963 -0.001106 0.000000 -0.001505 0.000000
# 3 -0.003448 -0.001106 0.011419 0.000000 0.002066 0.000000
# 4 0.000000 0.000000 0.000000 -0.020817 0.000000 -0.007848
# 5 -0.002619 -0.001505 0.002066 0.000000 0.037013 0.000000
# 6 0.000000 0.000000 0.000000 -0.007848 0.000000 0.023723
#
#
# Mechanical properties :
#
#
# Convention : Reuss Voigt Hill
#
# Bulk Modulus (GPa) = 45.19515 45.52223 45.35869
# Shear Modulus (GPa) = 44.98105 16.68606 30.83355
#
# Velocity S-wave (km/s) = 4.48705 2.73290 3.71499
# Velocity P-wave (km/s) = 6.86107 5.50764 6.22127
#
# Compressibility (1/GPa) = 0.02212627
#
# Stress axis : x y z
#
# Youngs Moduli (GPa) = 56.77560 71.61713 87.57467
#
# Poissons Ratio (x) = 0.42118 0.30194
# Poissons Ratio (y) = 0.33390 0.09683
# Poissons Ratio (z) = 0.19575 0.07918
#
# Static dielectric constant tensor:
#      x y z
#    x 1.863560 0.000000 0.061460 
#    y 0.000000 1.899770 0.000000 
#    z 0.061460 0.000000 2.055670 
# 
# From -- ./inp_files/134589.got.cif
#   From: 2010.05.17/outbox.cif.g08.bks.cpg/sg15_68_cif.got.tgz:134589.got - 2010.06.03 18:47:42.
