data_PCOD9297244
_publ_section_title
;
Structure prediction by ZEFSAII (Michael W. Deem and Ramdas Pophale) SiO2 
 PCOD9297244
Probable space group: C 2/C
;
_chemical_formula_sum "Si O2"
_cell_formula_units_Z 36
_cell_length_a 13.610899
_cell_length_b 14.499064
_cell_length_c 10.667710
_cell_angle_alpha 90.000000
_cell_angle_beta 41.098709
_cell_angle_gamma 90.000000
_cell_volume 1383.885337
_symmetry_space_group_name_H-M "C 2/C"
_symmetry_group_IT_number 15
_symmetry_cell_setting 'monoclinic'
loop_
_space_group_symop_operation_xyz
x,y,z
-x,y,1/2-z
-x,-y,-z
x,-y,1/2+z
1/2+x,1/2+y,z
1/2-x,1/2+y,1/2-z
1/2-x,1/2-y,-z
1/2+x,1/2-y,1/2+z
loop_
_atom_site_type_symbol
_atom_site_label
_atom_site_fract_x
_atom_site_fract_y
_atom_site_fract_z
Si Si1 0.000000 0.535503 0.250000
Si Si2 0.000000 0.500000 0.500000
Si Si3 0.557368 0.316507 0.447609
Si Si4 0.000000 0.869671 0.250000
Si Si5 0.260021 0.847703 0.646061
Si Si6 0.700847 0.536532 0.964702
O O1 0.928975 0.573493 0.443938
O O2 0.882425 0.473112 0.278424
O O3 0.866517 0.426451 0.597475
O O4 0.576746 0.307250 0.281175
O O5 0.634775 0.240994 0.460397
O O6 0.381436 0.317014 0.638951
O O7 0.624826 0.415575 0.421015
O O8 0.878305 0.941003 0.425901
O O9 0.189169 0.892974 0.590861
#
# Coordination Sequence:
#
# PCOD9297244 Si02
#       6
#     4   4   8   4   8   8
#     4  10  24  37  73  98 140 182 254 290 365 429
#     4  10  24  46  66 106 140 200 238 302 362 456
#     4  12  27  46  72 111 146 191 244 310 363 439
#     4  12  26  45  77 102 152 194 244 300 375 433
#     4  11  26  45  74 104 149 189 246 300 370 433
#     4  11  24  45  71 106 140 197 244 299 357 448
#
# _framework density 26.013717
#
# number of rings (size 3 to 8) (size 9 to 14) (size 15 to 20)
#    0.000    0.889    2.222    2.667   12.444    1.778 
#    0.000    0.000    0.000    0.000    0.000    0.000 
#    0.000    0.000    0.000    0.000    0.000    0.000 
#
# Total GULP energy -100208.967248 kJ/mol
# GULP energy per Si atom -5567.164847 kJ/mol
# Density = 2.595451 g / cm^3
# Si number density = 26.013717 Si / 1000 Ang^3
#
#
#
# Elastic Constant Matrix: (Units=GPa)
#
#
# Indices 1 2 3 4 5 6 
#
# 1 116.2390 -3.0590 6.5934 0.0000 6.5919 0.0000
# 2 -3.0590 49.2912 6.8836 0.0000 -9.8178 0.0000
# 3 6.5934 6.8836 65.8574 0.0000 -31.7644 0.0000
# 4 0.0000 0.0000 0.0000 2.8334 0.0000 -36.9210
# 5 6.5919 -9.8178 -31.7644 0.0000 62.3460 0.0000
# 6 0.0000 0.0000 0.0000 -36.9210 0.0000 4.0757
#
#
#
# Elastic Compliance Matrix: (Units=1/GPa)
#
#
# Indices 1 2 3 4 5 6 
#
# 1 0.008816 0.000443 -0.001783 0.000000 -0.001771 0.000000
# 2 0.000443 0.020998 -0.000884 0.000000 0.002809 0.000000
# 3 -0.001783 -0.000884 0.020522 0.000000 0.010505 0.000000
# 4 0.000000 0.000000 0.000000 -0.003015 0.000000 -0.027316
# 5 -0.001771 0.002809 0.010505 0.000000 0.022021 0.000000
# 6 0.000000 0.000000 0.000000 -0.027316 0.000000 -0.002096
#
#
# Mechanical properties :
#
#
# Convention : Reuss Voigt Hill
#
# Bulk Modulus (GPa) = 21.79186 28.02483 24.90835
# Shear Modulus (GPa) = 57.47796 28.58232 43.03014
#
# Velocity S-wave (km/s) = 4.70566 3.31832 4.07152
# Velocity P-wave (km/s) = 6.15788 5.04759 5.63017
#
# Compressibility (1/GPa) = 0.04588869
#
# Stress axis : x y z
#
# Youngs Moduli (GPa) = 113.42763 47.62329 48.72808
#
# Poissons Ratio (x) = -0.02112 0.08689
# Poissons Ratio (y) = -0.05030 0.04309
# Poissons Ratio (z) = 0.20225 0.04211
#
# Static dielectric constant tensor:
#      x y z
#    x 2.040890 0.000000 -0.229830 
#    y 0.000000 0.558180 0.000000 
#    z -0.229830 0.000000 0.874480 
# 
# From -- ./inp_files/96811.got.cif
#   From: 2010.05.17/outbox.cif.g08.bks.cpg/sg15_49_cif.got.tgz:96811.got - 2010.06.03 18:47:42.
