data_PCOD9297793
_publ_section_title
;
Structure prediction by ZEFSAII (Michael W. Deem and Ramdas Pophale) SiO2 
 PCOD9297793
Probable space group: C 2/C
;
_chemical_formula_sum "Si O2"
_cell_formula_units_Z 64
_cell_length_a 28.341939
_cell_length_b 15.380588
_cell_length_c 8.791245
_cell_angle_alpha 90.000000
_cell_angle_beta 55.384086
_cell_angle_gamma 90.000000
_cell_volume 3153.852895
_symmetry_space_group_name_H-M "C 2/C"
_symmetry_group_IT_number 15
_symmetry_cell_setting 'monoclinic'
loop_
_space_group_symop_operation_xyz
x,y,z
-x,y,1/2-z
-x,-y,-z
x,-y,1/2+z
1/2+x,1/2+y,z
1/2-x,1/2+y,1/2-z
1/2-x,1/2-y,-z
1/2+x,1/2-y,1/2+z
loop_
_atom_site_type_symbol
_atom_site_label
_atom_site_fract_x
_atom_site_fract_y
_atom_site_fract_z
Si Si1 0.936253 0.401952 0.416190
Si Si2 0.685690 0.271106 0.059366
Si Si3 0.840951 0.063980 0.092666
Si Si4 0.897407 0.787909 0.018186
Si Si5 0.689610 0.385578 0.513964
Si Si6 0.455611 0.535393 0.460778
Si Si7 0.692778 0.116503 0.854627
Si Si8 0.863434 0.502601 0.298818
O O1 0.934255 0.297070 0.417563
O O2 0.894399 0.442957 0.366653
O O3 0.910334 0.437491 0.624177
O O4 0.000000 0.430411 0.250000
O O5 0.673840 0.364959 0.007996
O O6 0.665522 0.205002 0.965139
O O7 0.750000 0.250000 0.000000
O O8 0.649273 0.257223 0.276019
O O9 0.812263 0.093187 0.304184
O O10 0.817551 0.974622 0.067084
O O11 0.907364 0.036801 0.006918
O O12 0.863822 0.824443 0.932520
O O13 0.925566 0.872451 0.045973
O O14 0.748056 0.352210 0.331638
O O15 0.500000 0.558380 0.250000
O O16 0.500000 0.500000 0.500000
O O17 0.662971 0.060108 0.779691
O O18 0.686111 0.056838 0.020175
#
# Coordination Sequence:
#
# PCOD9297793 Si02
#       8
#     8   8   8   8   8   8   8   8
#     4  11  23  43  68  91 127 168 219 272 327 378
#     4  12  25  42  63  94 137 175 213 269 331 396
#     4  11  25  41  66  97 135 174 221 271 329 405
#     4  11  23  41  65  98 130 171 218 271 326 401
#     4  11  23  41  66  96 134 172 213 263 332 399
#     4  11  22  43  69  95 130 172 219 273 336 392
#     4  11  23  42  65  94 129 170 211 269 330 390
#     4  10  24  42  67  93 125 167 221 270 324 390
#
# _framework density 20.292639000000001
#
# number of rings (size 3 to 8) (size 9 to 14) (size 15 to 20)
#    0.000    1.000    2.500    5.250    3.500    1.500 
#    0.000    0.000    0.000    0.000    0.000    0.000 
#    0.000    0.000    0.000    0.000    0.000    0.000 
#
# Total GULP energy -178386.702351 kJ/mol
# GULP energy per Si atom -5574.584448 kJ/mol
# Density = 2.024645 g / cm^3
# Si number density = 20.292639 Si / 1000 Ang^3
#
#
#
# Elastic Constant Matrix: (Units=GPa)
#
#
# Indices 1 2 3 4 5 6 
#
# 1 42.1929 12.8929 5.8124 0.0000 -0.1146 0.0000
# 2 12.8929 65.6724 -5.4383 0.0000 -5.0327 0.0000
# 3 5.8124 -5.4383 93.5766 0.0000 -2.8987 0.0000
# 4 0.0000 0.0000 0.0000 -70.6220 0.0000 -60.2668
# 5 -0.1146 -5.0327 -2.8987 0.0000 28.7024 0.0000
# 6 0.0000 0.0000 0.0000 -60.2668 0.0000 -23.4931
#
#
#
# Elastic Compliance Matrix: (Units=1/GPa)
#
#
# Indices 1 2 3 4 5 6 
#
# 1 0.025570 -0.005257 -0.001925 0.000000 -0.001014 0.000000
# 2 -0.005257 0.016606 0.001386 0.000000 0.003031 0.000000
# 3 -0.001925 0.001386 0.010928 0.000000 0.001339 0.000000
# 4 0.000000 0.000000 0.000000 0.011908 0.000000 -0.030546
# 5 -0.001014 0.003031 0.001339 0.000000 0.035503 0.000000
# 6 0.000000 0.000000 0.000000 -0.030546 0.000000 0.035795
#
#
# Mechanical properties :
#
#
# Convention : Reuss Voigt Hill
#
# Bulk Modulus (GPa) = 24.09034 25.33064 24.71049
# Shear Modulus (GPa) = 30.91402 -0.53753 15.18824
#
# Velocity S-wave (km/s) = 3.90732 -0.51523 2.73877
# Velocity P-wave (km/s) = 5.67921 3.48652 4.71218
#
# Compressibility (1/GPa) = 0.04151041
#
# Stress axis : x y z
#
# Youngs Moduli (GPa) = 39.10908 60.21865 91.50804
#
# Poissons Ratio (x) = 0.31657 0.17617
# Poissons Ratio (y) = 0.20560 -0.12678
# Poissons Ratio (z) = 0.07529 -0.08343
#
# Static dielectric constant tensor:
#      x y z
#    x 1.688280 0.000000 0.027780 
#    y 0.000000 1.705480 0.000000 
#    z 0.027780 0.000000 1.655650 
# 
# From -- ./inp_files/70116.got.cif
#   From: 2010.05.17/outbox.cif.g08.bks.cpg/sg15_36_cif.got.tgz:70116.got - 2010.06.03 18:47:42.
