data_PCOD9297007
_publ_section_title
;
Structure prediction by ZEFSAII (Michael W. Deem and Ramdas Pophale) SiO2 
 PCOD9297007
Probable space group: C 2/C
;
_chemical_formula_sum "Si O2"
_cell_formula_units_Z 56
_cell_length_a 7.290949
_cell_length_b 17.205644
_cell_length_c 24.420267
_cell_angle_alpha 90.000000
_cell_angle_beta 49.352128
_cell_angle_gamma 90.000000
_cell_volume 2324.294287
_symmetry_space_group_name_H-M "C 2/C"
_symmetry_group_IT_number 15
_symmetry_cell_setting 'monoclinic'
loop_
_space_group_symop_operation_xyz
x,y,z
-x,y,1/2-z
-x,-y,-z
x,-y,1/2+z
1/2+x,1/2+y,z
1/2-x,1/2+y,1/2-z
1/2-x,1/2-y,-z
1/2+x,1/2-y,1/2+z
loop_
_atom_site_type_symbol
_atom_site_label
_atom_site_fract_x
_atom_site_fract_y
_atom_site_fract_z
Si Si1 0.078252 0.461334 0.428101
Si Si2 0.383458 0.208392 0.149825
Si Si3 0.365636 0.632101 0.602246
Si Si4 0.960844 0.707274 0.924269
Si Si5 0.403498 0.482667 0.650175
Si Si6 0.770686 0.926473 0.561092
Si Si7 0.871786 0.820455 0.692016
O O1 0.350080 0.491905 0.368077
O O2 0.000000 0.500000 0.500000
O O3 0.065357 0.368053 0.434666
O O4 0.894553 0.498593 0.420134
O O5 0.468273 0.291623 0.111725
O O6 0.585690 0.143495 0.105605
O O7 0.150945 0.180753 0.158730
O O8 0.285420 0.217915 0.230223
O O9 0.153978 0.666268 0.606556
O O10 0.281998 0.565030 0.660173
O O11 0.562683 0.596254 0.522520
O O12 0.131432 0.772570 0.864039
O O13 0.750000 0.750000 0.000000
O O14 0.429218 0.443446 0.584366
O O15 0.290820 0.410408 0.703992
#
# Coordination Sequence:
#
# PCOD9297007 Si02
#       7
#     8   8   8   8   8   8   8
#     4  12  23  40  68 103 141 174 222 288 348 399
#     4  10  24  45  68 100 136 187 228 285 346 417
#     4  11  23  40  68 104 137 171 235 286 336 415
#     4  11  24  42  71 103 141 184 224 289 349 404
#     4  12  24  42  69 103 135 178 229 285 344 417
#     4  12  23  42  70 102 139 175 231 285 351 408
#     4  10  23  47  68  97 142 182 234 281 350 422
#
# _framework density 24.093333999999999
#
# number of rings (size 3 to 8) (size 9 to 14) (size 15 to 20)
#    0.000    0.857    4.286    3.429    2.000    2.857 
#    2.571    1.429    0.000    0.000    0.000    0.000 
#    0.000    0.000    0.000    0.000    0.000    0.000 
#
# Total GULP energy -156631.089988 kJ/mol
# GULP energy per Si atom -5593.967500 kJ/mol
# Density = 2.403850 g / cm^3
# Si number density = 24.093334 Si / 1000 Ang^3
#
#
#
# Elastic Constant Matrix: (Units=GPa)
#
#
# Indices 1 2 3 4 5 6 
#
# 1 85.4866 32.0021 11.8481 0.0017 -11.9990 -0.0005
# 2 32.0021 173.2943 11.6113 0.0012 -2.2554 0.0001
# 3 11.8481 11.6113 30.0958 0.0010 0.7865 -0.0006
# 4 0.0017 0.0012 0.0010 4.7002 -0.0008 10.5485
# 5 -11.9990 -2.2554 0.7865 -0.0008 22.1180 0.0006
# 6 -0.0005 0.0001 -0.0006 10.5485 0.0006 53.2943
#
#
#
# Elastic Compliance Matrix: (Units=1/GPa)
#
#
# Indices 1 2 3 4 5 6 
#
# 1 0.014295 -0.002206 -0.004978 -0.000004 0.007707 0.000001
# 2 -0.002206 0.006275 -0.001539 -0.000001 -0.000502 0.000000
# 3 -0.004978 -0.001539 0.035889 -0.000013 -0.004134 0.000003
# 4 -0.000004 -0.000001 -0.000013 0.382805 0.000014 -0.075768
# 5 0.007707 -0.000502 -0.004134 0.000014 0.049489 -0.000003
# 6 0.000001 0.000000 0.000003 -0.075768 -0.000003 0.033760
#
#
# Mechanical properties :
#
#
# Convention : Reuss Voigt Hill
#
# Bulk Modulus (GPa) = 25.63311 44.42221 35.02766
# Shear Modulus (GPa) = 9.04219 31.58351 20.31285
#
# Velocity S-wave (km/s) = 1.93936 3.62454 2.90675
# Velocity P-wave (km/s) = 3.95942 5.99950 5.08286
#
# Compressibility (1/GPa) = 0.03901204
#
# Stress axis : x y z
#
# Youngs Moduli (GPa) = 69.95290 159.37499 27.86381
#
# Poissons Ratio (x) = 0.35159 0.13871
# Poissons Ratio (y) = 0.15432 0.04289
# Poissons Ratio (z) = 0.34823 0.24531
#
# Static dielectric constant tensor:
#      x y z
#    x 2.029660 0.000000 0.007810 
#    y 0.000000 1.950830 0.000000 
#    z 0.007810 0.000000 1.885670 
# 
# From -- ./inp_files/289391.got.cif
#   From: 2010.05.17/outbox.cif.g08.bks.cpg/sg15_145_cif.got.tgz:289391.got - 2010.06.03 18:47:42.
