data_PCOD9297887
_publ_section_title
;
Structure prediction by ZEFSAII (Michael W. Deem and Ramdas Pophale) SiO2 
 PCOD9297887
Probable space group: C 2/C
;
_chemical_formula_sum "Si O2"
_cell_formula_units_Z 36
_cell_length_a 9.537865
_cell_length_b 11.720835
_cell_length_c 22.030858
_cell_angle_alpha 90.000000
_cell_angle_beta 34.938113
_cell_angle_gamma 90.000000
_cell_volume 1410.463096
_symmetry_space_group_name_H-M "C 2/C"
_symmetry_group_IT_number 15
_symmetry_cell_setting 'monoclinic'
loop_
_space_group_symop_operation_xyz
x,y,z
-x,y,1/2-z
-x,-y,-z
x,-y,1/2+z
1/2+x,1/2+y,z
1/2-x,1/2+y,1/2-z
1/2-x,1/2-y,-z
1/2+x,1/2-y,1/2+z
loop_
_atom_site_type_symbol
_atom_site_label
_atom_site_fract_x
_atom_site_fract_y
_atom_site_fract_z
Si Si1 0.861966 0.674754 0.856153
Si Si2 0.048704 0.431300 0.403264
Si Si3 0.500000 0.401417 0.750000
Si Si4 0.374508 0.717053 0.861079
Si Si5 0.119464 0.910347 0.020721
O O1 0.000000 0.621847 0.750000
O O2 0.016623 0.658333 0.861077
O O3 0.870485 0.810429 0.840889
O O4 0.611217 0.603015 0.943147
O O5 0.276079 0.517210 0.309552
O O6 0.132184 0.358538 0.431706
O O7 0.785150 0.492031 0.492782
O O8 0.500000 0.724301 0.750000
O O9 0.314294 0.838878 0.911310
O O10 0.481932 0.655040 0.882804
#
# Coordination Sequence:
#
# PCOD9297887 Si02
#       5
#     8   8   4   8   8
#     4  10  25  48  69 107 152 184 246 306 354 432
#     4  12  24  44  76 102 144 199 239 293 370 430
#     4  10  24  42  70 106 144 190 238 302 356 428
#     4  11  24  45  76 109 147 193 240 295 368 438
#     4  11  25  47  73 111 149 184 248 309 348 438
#
# _framework density 25.523530999999998
#
# number of rings (size 3 to 8) (size 9 to 14) (size 15 to 20)
#    0.667    0.444    1.111    5.333    3.111    1.778 
#    0.000    2.222    0.000    0.000    0.000    0.000 
#    0.000    0.000    0.000    0.000    0.000    0.000 
#
# Total GULP energy -100241.916872 kJ/mol
# GULP energy per Si atom -5568.995382 kJ/mol
# Density = 2.546544 g / cm^3
# Si number density = 25.523531 Si / 1000 Ang^3
#
#
#
# Elastic Constant Matrix: (Units=GPa)
#
#
# Indices 1 2 3 4 5 6 
#
# 1 159.6446 5.3440 -3.6406 0.0076 9.3777 0.0106
# 2 5.3440 76.6921 4.8240 0.0062 2.3567 0.0093
# 3 -3.6406 4.8240 86.7817 0.0003 8.4988 -0.0017
# 4 0.0076 0.0062 0.0003 89.4697 -0.0023 167.7992
# 5 9.3777 2.3567 8.4988 -0.0023 42.3174 -0.0013
# 6 0.0106 0.0093 -0.0017 167.7992 -0.0013 339.8889
#
#
#
# Elastic Compliance Matrix: (Units=1/GPa)
#
#
# Indices 1 2 3 4 5 6 
#
# 1 0.006375 -0.000426 0.000436 -0.000003 -0.001476 0.000001
# 2 -0.000426 0.013128 -0.000699 -0.000003 -0.000496 0.000001
# 3 0.000436 -0.000699 0.011818 -0.000003 -0.002431 0.000001
# 4 -0.000003 -0.000003 -0.000003 0.150849 0.000007 -0.074472
# 5 -0.001476 -0.000496 -0.002431 0.000007 0.024474 -0.000003
# 6 0.000001 0.000001 0.000001 -0.074472 -0.000003 0.039708
#
#
# Mechanical properties :
#
#
# Convention : Reuss Voigt Hill
#
# Bulk Modulus (GPa) = 33.39770 37.35259 35.37515
# Shear Modulus (GPa) = 19.40146 115.44127 67.42136
#
# Velocity S-wave (km/s) = 2.76005 6.73257 5.14516
# Velocity P-wave (km/s) = 4.82397 8.66620 7.01333
#
# Compressibility (1/GPa) = 0.02994218
#
# Stress axis : x y z
#
# Youngs Moduli (GPa) = 156.86650 76.17265 84.61387
#
# Poissons Ratio (x) = 0.03247 -0.03687
# Poissons Ratio (y) = 0.06686 0.05915
# Poissons Ratio (z) = -0.06835 0.05325
#
# Static dielectric constant tensor:
#      x y z
#    x 1.349580 -0.000010 -1.384840 
#    y -0.000010 2.056180 -0.000010 
#    z -1.384840 -0.000010 -0.781740 
# 
# From -- ./inp_files/231526.got.cif
#   From: 2010.05.17/outbox.cif.g08.bks.cpg/sg15_116_cif.got.tgz:231526.got - 2010.06.03 18:47:42.
