data_PCOD9297277
_publ_section_title
;
Structure prediction by ZEFSAII (Michael W. Deem and Ramdas Pophale) SiO2 
 PCOD9297277
Probable space group: C 2/C
;
_chemical_formula_sum "Si O2"
_cell_formula_units_Z 44
_cell_length_a 16.609471
_cell_length_b 15.817789
_cell_length_c 7.468443
_cell_angle_alpha 90.000000
_cell_angle_beta 68.762658
_cell_angle_gamma 90.000000
_cell_volume 1828.893969
_symmetry_space_group_name_H-M "C 2/C"
_symmetry_group_IT_number 15
_symmetry_cell_setting 'monoclinic'
loop_
_space_group_symop_operation_xyz
x,y,z
-x,y,1/2-z
-x,-y,-z
x,-y,1/2+z
1/2+x,1/2+y,z
1/2-x,1/2+y,1/2-z
1/2-x,1/2-y,-z
1/2+x,1/2-y,1/2+z
loop_
_atom_site_type_symbol
_atom_site_label
_atom_site_fract_x
_atom_site_fract_y
_atom_site_fract_z
Si Si1 0.564572 0.770508 0.931704
Si Si2 0.268422 0.070555 0.704136
Si Si3 0.628923 0.233395 0.783498
Si Si4 0.089405 0.099045 0.852788
Si Si5 0.500000 0.539528 0.250000
Si Si6 0.727008 0.123630 0.211123
O O1 0.585040 0.692217 0.785544
O O2 0.629055 0.842466 0.813678
O O3 0.461705 0.777171 0.035465
O O4 0.600959 0.748424 0.101430
O O5 0.332864 0.137938 0.740135
O O6 0.178779 0.085768 0.877531
O O7 0.257365 0.104828 0.510840
O O8 0.277664 0.969534 0.694789
O O9 0.700831 0.305334 0.783871
O O10 0.077503 0.025514 0.720412
O O11 0.013469 0.090109 0.059471
#
# Coordination Sequence:
#
# PCOD9297277 Si02
#       6
#     8   8   8   8   4   8
#     4  11  26  45  74 100 147 191 231 299 353 423
#     4  12  27  45  75 104 143 191 234 298 357 419
#     4  11  26  49  71 108 142 187 243 288 361 422
#     4  11  24  42  65 104 138 194 227 302 357 412
#     4  10  24  38  64 100 148 180 246 282 358 436
#     4  12  27  48  73 108 145 187 242 293 356 426
#
# _framework density 24.058256
#
# number of rings (size 3 to 8) (size 9 to 14) (size 15 to 20)
#    0.000    0.727    1.818    4.364   12.727    1.455 
#    0.000    0.000    0.000    0.000    0.000    0.000 
#    0.000    0.000    0.000    0.000    0.000    0.000 
#
# Total GULP energy -122797.791362 kJ/mol
# GULP energy per Si atom -5581.717789 kJ/mol
# Density = 2.400350 g / cm^3
# Si number density = 24.058256 Si / 1000 Ang^3
#
#
#
# Elastic Constant Matrix: (Units=GPa)
#
#
# Indices 1 2 3 4 5 6 
#
# 1 115.9200 77.9638 31.7767 0.0000 -19.7283 0.0000
# 2 77.9638 170.3114 33.2257 0.0000 -32.1294 0.0000
# 3 31.7767 33.2257 81.8432 0.0000 -7.1937 0.0000
# 4 0.0000 0.0000 0.0000 25.8486 0.0000 5.5238
# 5 -19.7283 -32.1294 -7.1937 0.0000 47.5990 0.0000
# 6 0.0000 0.0000 0.0000 5.5238 0.0000 41.3011
#
#
#
# Elastic Compliance Matrix: (Units=1/GPa)
#
#
# Indices 1 2 3 4 5 6 
#
# 1 0.013153 -0.005173 -0.002873 0.000000 0.001526 0.000000
# 2 -0.005173 0.009246 -0.001404 0.000000 0.003885 0.000000
# 3 -0.002873 -0.001404 0.013900 0.000000 -0.000037 0.000000
# 4 0.000000 0.000000 0.000000 0.039825 0.000000 -0.005326
# 5 0.001526 0.003885 -0.000037 0.000000 0.024258 0.000000
# 6 0.000000 0.000000 0.000000 -0.005326 0.000000 0.024925
#
#
# Mechanical properties :
#
#
# Convention : Reuss Voigt Hill
#
# Bulk Modulus (GPa) = 57.46767 72.66743 65.06755
# Shear Modulus (GPa) = 33.33191 37.95695 35.64443
#
# Velocity S-wave (km/s) = 3.72622 3.97635 3.85332
# Velocity P-wave (km/s) = 6.51550 7.16604 6.84850
#
# Compressibility (1/GPa) = 0.01740109
#
# Stress axis : x y z
#
# Youngs Moduli (GPa) = 76.02967 108.15084 71.94001
#
# Poissons Ratio (x) = 0.55943 0.20666
# Poissons Ratio (y) = 0.39328 0.10099
# Poissons Ratio (z) = 0.21841 0.15183
#
# Static dielectric constant tensor:
#      x y z
#    x 2.076750 0.000000 -0.047830 
#    y 0.000000 1.935260 0.000000 
#    z -0.047830 0.000000 1.992080 
# 
# From -- ./inp_files/47399.got.cif
#   From: 2010.05.17/outbox.cif.g08.bks.cpg/sg15_24_cif.got.tgz:47399.got - 2010.06.03 18:47:42.
