data_PCOD9297764
_publ_section_title
;
Structure prediction by ZEFSAII (Michael W. Deem and Ramdas Pophale) SiO2 
 PCOD9297764
Probable space group: C 2/C
;
_chemical_formula_sum "Si O2"
_cell_formula_units_Z 56
_cell_length_a 11.149013
_cell_length_b 14.004141
_cell_length_c 18.619943
_cell_angle_alpha 90.000000
_cell_angle_beta 74.617271
_cell_angle_gamma 90.000000
_cell_volume 2803.027086
_symmetry_space_group_name_H-M "C 2/C"
_symmetry_group_IT_number 15
_symmetry_cell_setting 'monoclinic'
loop_
_space_group_symop_operation_xyz
x,y,z
-x,y,1/2-z
-x,-y,-z
x,-y,1/2+z
1/2+x,1/2+y,z
1/2-x,1/2+y,1/2-z
1/2-x,1/2-y,-z
1/2+x,1/2-y,1/2+z
loop_
_atom_site_type_symbol
_atom_site_label
_atom_site_fract_x
_atom_site_fract_y
_atom_site_fract_z
Si Si1 0.639881 0.251885 0.755005
Si Si2 0.750856 0.578870 0.142858
Si Si3 0.392309 0.441999 0.972856
Si Si4 0.648803 0.037688 0.743913
Si Si5 0.221807 0.559534 0.091726
Si Si6 0.999853 0.396117 0.535187
Si Si7 0.582492 0.280251 0.930399
O O1 0.500000 0.249741 0.750000
O O2 0.701525 0.339549 0.703832
O O3 0.627560 0.263536 0.842214
O O4 0.693098 0.147123 0.729418
O O5 0.648195 0.536715 0.103568
O O6 0.815986 0.499431 0.182594
O O7 0.859060 0.626692 0.078044
O O8 0.451445 0.336930 0.956897
O O9 0.500000 0.500000 0.000000
O O10 0.270400 0.468443 0.038402
O O11 0.500000 0.033567 0.750000
O O12 0.719014 0.972265 0.674499
O O13 0.313593 0.646320 0.057207
O O14 0.085250 0.592609 0.091600
O O15 0.000000 0.500000 0.500000
O O16 0.063786 0.317980 0.474721
#
# Coordination Sequence:
#
# PCOD9297764 Si02
#       7
#     8   8   8   8   8   8   8
#     4  11  24  40  67  98 131 179 220 275 340 398
#     4  12  23  43  70  99 137 175 230 281 335 406
#     4  10  24  42  66  97 131 176 228 275 334 400
#     4  11  24  42  68 100 138 171 225 279 339 406
#     4  11  23  44  66  95 138 175 220 280 344 401
#     4  12  25  40  68  99 129 177 224 279 339 402
#     4  11  24  44  65  95 136 176 227 275 341 402
#
# _framework density 19.978401000000002
#
# number of rings (size 3 to 8) (size 9 to 14) (size 15 to 20)
#    0.000    0.857    5.714    1.286    4.000    0.571 
#    0.000    0.000    0.000    3.429    0.000    0.000 
#    0.000    0.000    0.000    0.000    0.000    0.000 
#
# Total GULP energy -156110.208628 kJ/mol
# GULP energy per Si atom -5575.364594 kJ/mol
# Density = 1.993293 g / cm^3
# Si number density = 19.978401 Si / 1000 Ang^3
#
#
#
# Elastic Constant Matrix: (Units=GPa)
#
#
# Indices 1 2 3 4 5 6 
#
# 1 75.9111 29.5054 19.6937 0.0000 18.9197 0.0000
# 2 29.5054 98.5866 44.9393 0.0000 2.1103 0.0000
# 3 19.6937 44.9393 108.2735 0.0000 10.5849 0.0000
# 4 0.0000 0.0000 0.0000 44.0237 0.0000 -6.4498
# 5 18.9197 2.1103 10.5849 0.0000 35.4045 0.0000
# 6 0.0000 0.0000 0.0000 -6.4498 0.0000 21.8601
#
#
#
# Elastic Compliance Matrix: (Units=1/GPa)
#
#
# Indices 1 2 3 4 5 6 
#
# 1 0.017360 -0.004887 -0.000258 0.000000 -0.008909 0.000000
# 2 -0.004887 0.013910 -0.005211 0.000000 0.003341 0.000000
# 3 -0.000258 -0.005211 0.011745 0.000000 -0.003063 0.000000
# 4 0.000000 0.000000 0.000000 0.023741 0.000000 0.007005
# 5 -0.008909 0.003341 -0.003063 0.000000 0.033722 0.000000
# 6 0.000000 0.000000 0.000000 0.007005 0.000000 0.047812
#
#
# Mechanical properties :
#
#
# Convention : Reuss Voigt Hill
#
# Bulk Modulus (GPa) = 44.83846 52.33865 48.58856
# Shear Modulus (GPa) = 28.33858 32.83319 30.58589
#
# Velocity S-wave (km/s) = 3.77033 4.05833 3.91698
# Velocity P-wave (km/s) = 6.43786 6.94367 6.69554
#
# Compressibility (1/GPa) = 0.02230228
#
# Stress axis : x y z
#
# Youngs Moduli (GPa) = 57.60297 71.89137 85.14185
#
# Poissons Ratio (x) = 0.35135 0.02199
# Poissons Ratio (y) = 0.28152 0.44367
# Poissons Ratio (z) = 0.01488 0.37462
#
# Static dielectric constant tensor:
#      x y z
#    x 1.723810 0.000000 -0.004900 
#    y 0.000000 1.726140 0.000000 
#    z -0.004900 0.000000 1.678920 
# 
# From -- ./inp_files/237547.got.cif
#   From: 2010.05.17/outbox.cif.g08.bks.cpg/sg15_119_cif.got.tgz:237547.got - 2010.06.03 18:47:42.
