data_PCOD9297159
_publ_section_title
;
Structure prediction by ZEFSAII (Michael W. Deem and Ramdas Pophale) SiO2 
 PCOD9297159
Probable space group: C 2/C
;
_chemical_formula_sum "Si O2"
_cell_formula_units_Z 40
_cell_length_a 18.454455
_cell_length_b 9.937337
_cell_length_c 9.099990
_cell_angle_alpha 90.000000
_cell_angle_beta 103.448868
_cell_angle_gamma 90.000000
_cell_volume 1623.067338
_symmetry_space_group_name_H-M "C 2/C"
_symmetry_group_IT_number 15
_symmetry_cell_setting 'monoclinic'
loop_
_space_group_symop_operation_xyz
x,y,z
-x,y,1/2-z
-x,-y,-z
x,-y,1/2+z
1/2+x,1/2+y,z
1/2-x,1/2+y,1/2-z
1/2-x,1/2-y,-z
1/2+x,1/2-y,1/2+z
loop_
_atom_site_type_symbol
_atom_site_label
_atom_site_fract_x
_atom_site_fract_y
_atom_site_fract_z
Si Si1 0.284671 0.926535 0.789827
Si Si2 0.125424 0.075354 0.111830
Si Si3 0.500000 0.826759 0.750000
Si Si4 0.000000 0.192358 0.250000
Si Si5 0.359013 0.137774 0.021674
Si Si6 0.896300 0.776080 0.459393
O O1 0.196353 0.935532 0.753013
O O2 0.304942 0.896630 0.630579
O O3 0.320871 0.805940 0.900013
O O4 0.327781 0.058077 0.867369
O O5 0.050311 0.104993 0.164997
O O6 0.137414 0.204320 0.013548
O O7 0.118409 0.933378 0.029369
O O8 0.441540 0.902090 0.616637
O O9 0.553507 0.745660 0.663409
O O10 0.056715 0.273443 0.379100
#
# Coordination Sequence:
#
# PCOD9297159 Si02
#       6
#     8   8   4   4   8   8
#     4  11  28  47  74 103 148 188 234 292 358 422
#     4  12  26  47  74 108 143 183 243 291 358 414
#     4  10  23  49  72 106 145 183 238 292 359 413
#     4  12  27  41  80 104 141 183 246 290 351 421
#     4  11  26  47  73 105 144 190 232 297 351 423
#     4  11  26  45  75 104 143 187 235 297 350 419
#
# _framework density 24.644696
#
# number of rings (size 3 to 8) (size 9 to 14) (size 15 to 20)
#    0.000    0.800    2.000    3.000   11.200    4.800 
#    0.000    0.000    0.000    0.000    0.000    0.000 
#    0.000    0.000    0.000    0.000    0.000    0.000 
#
# Total GULP energy -112068.526384 kJ/mol
# GULP energy per Si atom -5603.426319 kJ/mol
# Density = 2.458860 g / cm^3
# Si number density = 24.644696 Si / 1000 Ang^3
#
#
#
# Elastic Constant Matrix: (Units=GPa)
#
#
# Indices 1 2 3 4 5 6 
#
# 1 118.2996 24.0571 35.2167 0.0000 28.4427 0.0000
# 2 24.0571 126.4716 32.0841 0.0000 3.8864 0.0000
# 3 35.2167 32.0841 119.9717 0.0000 25.3109 0.0000
# 4 0.0000 0.0000 0.0000 17.0668 0.0000 15.1245
# 5 28.4427 3.8864 25.3109 0.0000 51.0324 0.0000
# 6 0.0000 0.0000 0.0000 15.1245 0.0000 10.2968
#
#
#
# Elastic Compliance Matrix: (Units=1/GPa)
#
#
# Indices 1 2 3 4 5 6 
#
# 1 0.010402 -0.001411 -0.001648 0.000000 -0.004873 0.000000
# 2 -0.001411 0.008687 -0.002161 0.000000 0.001197 0.000000
# 3 -0.001648 -0.002161 0.010240 0.000000 -0.003996 0.000000
# 4 0.000000 0.000000 0.000000 -0.194215 0.000000 0.285275
# 5 -0.004873 0.001197 -0.003996 0.000000 0.024202 0.000000
# 6 0.000000 0.000000 0.000000 0.285275 0.000000 -0.321910
#
#
# Mechanical properties :
#
#
# Convention : Reuss Voigt Hill
#
# Bulk Modulus (GPa) = 52.94305 60.82874 56.88590
# Shear Modulus (GPa) = -11.21436 33.90485 11.34525
#
# Velocity S-wave (km/s) = -2.13548 3.71313 2.14791
# Velocity P-wave (km/s) = 3.93049 6.56650 5.41146
#
# Compressibility (1/GPa) = 0.01888822
#
# Stress axis : x y z
#
# Youngs Moduli (GPa) = 96.13341 115.11666 97.65498
#
# Poissons Ratio (x) = 0.16241 0.16095
# Poissons Ratio (y) = 0.13563 0.21108
# Poissons Ratio (z) = 0.15844 0.24882
#
# Static dielectric constant tensor:
#      x y z
#    x 1.942930 0.000000 -0.011640 
#    y 0.000000 1.917040 0.000000 
#    z -0.011640 0.000000 1.969040 
# 
# From -- ./inp_files/54257.got.cif
#   From: 2010.05.17/outbox.cif.g08.bks.cpg/sg15_28_cif.got.tgz:54257.got - 2010.06.03 18:47:42.
