data_PCOD9297725
_publ_section_title
;
Structure prediction by ZEFSAII (Michael W. Deem and Ramdas Pophale) SiO2 
 PCOD9297725
Probable space group: C 2/C
;
_chemical_formula_sum "Si O2"
_cell_formula_units_Z 32
_cell_length_a 22.940811
_cell_length_b 5.027415
_cell_length_c 9.185566
_cell_angle_alpha 90.000000
_cell_angle_beta 80.003698
_cell_angle_gamma 90.000000
_cell_volume 1043.315900
_symmetry_space_group_name_H-M "C 2/C"
_symmetry_group_IT_number 15
_symmetry_cell_setting 'monoclinic'
loop_
_space_group_symop_operation_xyz
x,y,z
-x,y,1/2-z
-x,-y,-z
x,-y,1/2+z
1/2+x,1/2+y,z
1/2-x,1/2+y,1/2-z
1/2-x,1/2-y,-z
1/2+x,1/2-y,1/2+z
loop_
_atom_site_type_symbol
_atom_site_label
_atom_site_fract_x
_atom_site_fract_y
_atom_site_fract_z
Si Si1 0.689147 0.131118 0.206402
Si Si2 0.683515 0.450687 0.465346
Si Si3 0.064113 0.491388 0.666559
Si Si4 0.940558 0.871528 0.083065
O O1 0.686023 0.161249 0.382501
O O2 0.753552 0.040494 0.129191
O O3 0.632768 0.950405 0.183320
O O4 0.683500 0.414243 0.123762
O O5 0.618173 0.530599 0.434852
O O6 0.062741 0.589646 0.501926
O O7 0.060488 0.203034 0.746960
O O8 0.000000 0.607143 0.750000
O O9 0.000000 0.000000 0.000000
#
# Coordination Sequence:
#
# PCOD9297725 Si02
#       4
#     8   8   8   8
#     4  10  24  42  65  98 135 181 231 288 350 416
#     4  10  24  43  66  97 135 180 231 290 351 412
#     4  11  25  45  71 103 140 184 238 293 352 427
#     4  11  26  47  71 102 142 186 234 294 358 421
#
# _framework density 30.671437999999998
#
# number of rings (size 3 to 8) (size 9 to 14) (size 15 to 20)
#    0.000    1.500    0.000    2.250    0.000   21.000 
#    0.000    1.250    0.000    0.000    0.000    0.000 
#    0.000    0.000    0.000    0.000    0.000    0.000 
#
# Total GULP energy -89180.178417 kJ/mol
# GULP energy per Si atom -5573.761151 kJ/mol
# Density = 3.060163 g / cm^3
# Si number density = 30.671438 Si / 1000 Ang^3
#
#
#
# Elastic Constant Matrix: (Units=GPa)
#
#
# Indices 1 2 3 4 5 6 
#
# 1 335.0242 70.3442 73.2567 0.0000 -47.1946 0.0000
# 2 70.3442 69.4271 31.4764 0.0000 25.3175 0.0000
# 3 73.2567 31.4764 166.8507 0.0000 -14.9137 0.0000
# 4 0.0000 0.0000 0.0000 47.8795 0.0000 1.1315
# 5 -47.1946 25.3175 -14.9137 0.0000 71.9459 0.0000
# 6 0.0000 0.0000 0.0000 1.1315 0.0000 53.6673
#
#
#
# Elastic Compliance Matrix: (Units=1/GPa)
#
#
# Indices 1 2 3 4 5 6 
#
# 1 0.005608 -0.007800 -0.000424 0.000000 0.006335 0.000000
# 2 -0.007800 0.029975 -0.003699 0.000000 -0.016431 0.000000
# 3 -0.000424 -0.003699 0.007101 0.000000 0.002495 0.000000
# 4 0.000000 0.000000 0.000000 0.020896 0.000000 -0.000441
# 5 0.006335 -0.016431 0.002495 0.000000 0.024354 0.000000
# 6 0.000000 0.000000 0.000000 -0.000441 0.000000 0.018643
#
#
# Mechanical properties :
#
#
# Convention : Reuss Voigt Hill
#
# Bulk Modulus (GPa) = 53.08610 102.38404 77.73507
# Shear Modulus (GPa) = 36.57581 61.11353 48.84467
#
# Velocity S-wave (km/s) = 3.45701 4.46861 3.99496
# Velocity P-wave (km/s) = 5.76889 7.75100 6.83221
#
# Compressibility (1/GPa) = 0.01883732
#
# Stress axis : x y z
#
# Youngs Moduli (GPa) = 178.32330 33.36082 140.83336
#
# Poissons Ratio (x) = 0.26020 0.05978
# Poissons Ratio (y) = 1.39086 0.52095
# Poissons Ratio (z) = 0.07569 0.12340
#
# Static dielectric constant tensor:
#      x y z
#    x 2.371650 0.000000 0.026330 
#    y 0.000000 2.506130 0.000000 
#    z 0.026330 0.000000 2.300360 
# 
# From -- ./inp_files/115386.got.cif
#   From: 2010.05.17/outbox.cif.g08.bks.cpg/sg15_58_cif.got.tgz:115386.got - 2010.06.03 18:47:42.
