data_PCOD9297558
_publ_section_title
;
Structure prediction by ZEFSAII (Michael W. Deem and Ramdas Pophale) SiO2 
 PCOD9297558
Probable space group: C 2/C
;
_chemical_formula_sum "Si O2"
_cell_formula_units_Z 44
_cell_length_a 8.683879
_cell_length_b 14.474929
_cell_length_c 27.797383
_cell_angle_alpha 90.000000
_cell_angle_beta 38.012818
_cell_angle_gamma 90.000000
_cell_volume 2151.792672
_symmetry_space_group_name_H-M "C 2/C"
_symmetry_group_IT_number 15
_symmetry_cell_setting 'monoclinic'
loop_
_space_group_symop_operation_xyz
x,y,z
-x,y,1/2-z
-x,-y,-z
x,-y,1/2+z
1/2+x,1/2+y,z
1/2-x,1/2+y,1/2-z
1/2-x,1/2-y,-z
1/2+x,1/2-y,1/2+z
loop_
_atom_site_type_symbol
_atom_site_label
_atom_site_fract_x
_atom_site_fract_y
_atom_site_fract_z
Si Si1 0.018321 0.281206 0.525299
Si Si2 0.907113 0.908223 0.996861
Si Si3 0.728524 0.171811 0.318306
Si Si4 0.500000 0.495669 0.250000
Si Si5 0.174998 0.316538 0.663040
Si Si6 0.857549 0.622422 0.602057
O O1 0.250000 0.250000 0.500000
O O2 0.107242 0.351271 0.462285
O O3 0.916118 0.187418 0.525597
O O4 0.840126 0.327222 0.608659
O O5 0.107862 0.887026 0.905391
O O6 0.621569 0.921206 0.051744
O O7 0.000000 0.000000 0.000000
O O8 0.507184 0.204435 0.337988
O O9 0.000000 0.221213 0.250000
O O10 0.786814 0.067668 0.286150
O O11 0.377575 0.437171 0.322752
O O12 0.315450 0.220449 0.639304
O O13 0.000000 0.344696 0.750000
#
# Coordination Sequence:
#
# PCOD9297558 Si02
#       6
#     8   8   8   4   8   8
#     4  11  22  44  67  95 130 179 220 275 345 404
#     4  11  25  44  67 100 136 173 229 286 328 413
#     4  10  24  41  64  95 137 169 221 279 334 405
#     4  10  24  42  66  98 132 170 230 280 332 398
#     4  11  22  43  66  97 132 178 224 275 342 407
#     4  11  23  40  73  95 132 181 223 275 346 404
#
# _framework density 20.448066000000001
#
# number of rings (size 3 to 8) (size 9 to 14) (size 15 to 20)
#    0.545    0.727    4.545    3.273    5.091    0.727 
#    3.273    0.909    0.000    0.000    0.000    0.000 
#    0.000    0.000    0.000    0.000    0.000    0.000 
#
# Total GULP energy -122628.353804 kJ/mol
# GULP energy per Si atom -5574.016082 kJ/mol
# Density = 2.040152 g / cm^3
# Si number density = 20.448066 Si / 1000 Ang^3
#
#
#
# Elastic Constant Matrix: (Units=GPa)
#
#
# Indices 1 2 3 4 5 6 
#
# 1 70.6002 19.6668 44.2614 -0.0050 2.1046 0.0015
# 2 19.6668 74.2324 52.9674 -0.0025 -2.5783 0.0010
# 3 44.2614 52.9674 196.5935 -0.0108 4.9629 0.0046
# 4 -0.0050 -0.0025 -0.0108 36.6680 0.0053 -5.4125
# 5 2.1046 -2.5783 4.9629 0.0053 28.2597 -0.0041
# 6 0.0015 0.0010 0.0046 -5.4125 -0.0041 29.3322
#
#
#
# Elastic Compliance Matrix: (Units=1/GPa)
#
#
# Indices 1 2 3 4 5 6 
#
# 1 0.016791 -0.002227 -0.003158 0.000001 -0.000899 0.000000
# 2 -0.002227 0.017126 -0.004175 -0.000001 0.002461 0.000000
# 3 -0.003158 -0.004175 0.006957 0.000001 -0.001367 -0.000001
# 4 0.000001 -0.000001 0.000001 0.028035 -0.000005 0.005173
# 5 -0.000899 0.002461 -0.001367 -0.000005 0.035918 0.000004
# 6 0.000000 0.000000 -0.000001 0.005173 0.000004 0.035047
#
#
# Mechanical properties :
#
#
# Convention : Reuss Voigt Hill
#
# Bulk Modulus (GPa) = 45.96648 63.91303 54.93975
# Shear Modulus (GPa) = 30.07635 33.82068 31.94852
#
# Velocity S-wave (km/s) = 3.83935 4.07133 3.95704
# Velocity P-wave (km/s) = 6.49481 7.30924 6.91403
#
# Compressibility (1/GPa) = 0.02175498
#
# Stress axis : x y z
#
# Youngs Moduli (GPa) = 59.55567 58.39234 143.74148
#
# Poissons Ratio (x) = 0.13001 0.45390
# Poissons Ratio (y) = 0.13261 0.60011
# Poissons Ratio (z) = 0.18806 0.24378
#
# Static dielectric constant tensor:
#      x y z
#    x 1.729050 0.000000 -0.004500 
#    y 0.000000 1.743290 -0.000010 
#    z -0.004500 -0.000010 1.788080 
# 
# From -- ./inp_files/288578.got.cif
#   From: 2010.05.17/outbox.cif.g08.bks.cpg/sg15_145_cif.got.tgz:288578.got - 2010.06.03 18:47:42.
