data_PCOD9297386
_publ_section_title
;
Structure prediction by ZEFSAII (Michael W. Deem and Ramdas Pophale) SiO2 
 PCOD9297386
Probable space group: C 2/C
;
_chemical_formula_sum "Si O2"
_cell_formula_units_Z 44
_cell_length_a 6.662107
_cell_length_b 22.228396
_cell_length_c 13.063700
_cell_angle_alpha 90.000000
_cell_angle_beta 95.979157
_cell_angle_gamma 90.000000
_cell_volume 1924.052209
_symmetry_space_group_name_H-M "C 2/C"
_symmetry_group_IT_number 15
_symmetry_cell_setting 'monoclinic'
loop_
_space_group_symop_operation_xyz
x,y,z
-x,y,1/2-z
-x,-y,-z
x,-y,1/2+z
1/2+x,1/2+y,z
1/2-x,1/2+y,1/2-z
1/2-x,1/2-y,-z
1/2+x,1/2-y,1/2+z
loop_
_atom_site_type_symbol
_atom_site_label
_atom_site_fract_x
_atom_site_fract_y
_atom_site_fract_z
Si Si1 0.147258 0.237533 0.355242
Si Si2 0.114793 0.897464 0.865368
Si Si3 0.000000 0.210244 0.750000
Si Si4 0.680166 0.808808 0.059035
Si Si5 0.275323 0.436133 0.992941
Si Si6 0.928245 0.496326 0.855647
O O1 0.140533 0.171202 0.402140
O O2 0.365366 0.252176 0.322612
O O3 0.000000 0.233274 0.250000
O O4 0.043406 0.290193 0.415139
O O5 0.000000 0.898538 0.750000
O O6 0.987009 0.931532 0.946272
O O7 0.320408 0.931679 0.851970
O O8 0.831942 0.180647 0.664872
O O9 0.750000 0.750000 0.000000
O O10 0.691129 0.867935 0.990167
O O11 0.134594 0.484308 0.927596
O O12 0.237432 0.458886 0.105982
O O13 0.000000 0.517309 0.750000
#
# Coordination Sequence:
#
# PCOD9297386 Si02
#       6
#     8   8   4   8   8   8
#     4   9  21  37  64  97 129 168 218 270 327 395
#     4  11  21  39  67  97 129 167 224 279 324 395
#     4  10  24  40  62  98 136 182 212 268 354 384
#     4  11  23  43  65  98 135 170 223 275 330 407
#     4  11  25  45  65 100 132 172 227 271 336 406
#     4  11  25  43  69  93 131 180 219 275 336 393
#
# _framework density 22.868403000000001
#
# number of rings (size 3 to 8) (size 9 to 14) (size 15 to 20)
#    0.000    1.455    3.636    0.545    3.818    4.364 
#    1.636    0.000    0.000    0.000    0.000    0.000 
#    0.000    0.000    0.000    0.000    0.000    0.000 
#
# Total GULP energy -122772.723650 kJ/mol
# GULP energy per Si atom -5580.578348 kJ/mol
# Density = 2.281635 g / cm^3
# Si number density = 22.868403 Si / 1000 Ang^3
#
#
#
# Elastic Constant Matrix: (Units=GPa)
#
#
# Indices 1 2 3 4 5 6 
#
# 1 104.5919 10.0131 36.7522 0.0000 -24.9815 0.0000
# 2 10.0131 55.5287 12.6223 0.0000 -4.9387 0.0000
# 3 36.7522 12.6223 104.9743 0.0000 -20.7891 0.0000
# 4 0.0000 0.0000 0.0000 26.1276 0.0000 -9.1843
# 5 -24.9815 -4.9387 -20.7891 0.0000 49.8005 0.0000
# 6 0.0000 0.0000 0.0000 -9.1843 0.0000 16.5551
#
#
#
# Elastic Compliance Matrix: (Units=1/GPa)
#
#
# Indices 1 2 3 4 5 6 
#
# 1 0.011839 -0.001022 -0.003124 0.000000 0.004533 0.000000
# 2 -0.001022 0.018648 -0.001766 0.000000 0.000600 0.000000
# 3 -0.003124 -0.001766 0.011432 0.000000 0.003030 0.000000
# 4 0.000000 0.000000 0.000000 0.047546 0.000000 0.026377
# 5 0.004533 0.000600 0.003030 0.000000 0.023679 0.000000
# 6 0.000000 0.000000 0.000000 0.026377 0.000000 0.075037
#
#
# Mechanical properties :
#
#
# Convention : Reuss Voigt Hill
#
# Bulk Modulus (GPa) = 33.22704 42.65223 37.93963
# Shear Modulus (GPa) = 23.80539 32.21047 28.00793
#
# Velocity S-wave (km/s) = 3.22991 3.75709 3.50343
# Velocity P-wave (km/s) = 5.33582 6.12475 5.74385
#
# Compressibility (1/GPa) = 0.03009597
#
# Stress axis : x y z
#
# Youngs Moduli (GPa) = 84.46335 53.62611 87.47057
#
# Poissons Ratio (x) = 0.05478 0.27330
# Poissons Ratio (y) = 0.08628 0.15446
# Poissons Ratio (z) = 0.26390 0.09469
#
# Static dielectric constant tensor:
#      x y z
#    x 1.852460 0.000000 0.024900 
#    y 0.000000 1.829490 0.000000 
#    z 0.024900 0.000000 1.967430 
# 
# From -- ./inp_files/129395.got.cif
#   From: 2010.05.17/outbox.cif.g08.bks.cpg/sg15_65_cif.got.tgz:129395.got - 2010.06.03 18:47:42.
