data_PCOD9297613
_publ_section_title
;
Structure prediction by ZEFSAII (Michael W. Deem and Ramdas Pophale) SiO2 
 PCOD9297613
Probable space group: C 2/C
;
_chemical_formula_sum "Si O2"
_cell_formula_units_Z 52
_cell_length_a 20.559954
_cell_length_b 18.445463
_cell_length_c 7.730580
_cell_angle_alpha 90.000000
_cell_angle_beta 127.017941
_cell_angle_gamma 90.000000
_cell_volume 2340.830058
_symmetry_space_group_name_H-M "C 2/C"
_symmetry_group_IT_number 15
_symmetry_cell_setting 'monoclinic'
loop_
_space_group_symop_operation_xyz
x,y,z
-x,y,1/2-z
-x,-y,-z
x,-y,1/2+z
1/2+x,1/2+y,z
1/2-x,1/2+y,1/2-z
1/2-x,1/2-y,-z
1/2+x,1/2-y,1/2+z
loop_
_atom_site_type_symbol
_atom_site_label
_atom_site_fract_x
_atom_site_fract_y
_atom_site_fract_z
Si Si1 0.497971 0.915657 0.041041
Si Si2 0.836103 0.600918 0.878862
Si Si3 0.559099 0.232166 0.015064
Si Si4 0.758508 0.245171 0.803573
Si Si5 0.000000 0.824467 0.250000
Si Si6 0.746654 0.997258 0.540560
Si Si7 0.826981 0.108368 0.446041
O O1 0.500000 0.916072 0.250000
O O2 0.577282 0.885605 0.069067
O O3 0.432240 0.851693 0.906035
O O4 0.500000 0.000000 0.000000
O O5 0.793154 0.676778 0.844931
O O6 0.834402 0.539990 0.025483
O O7 0.781140 0.557901 0.651094
O O8 0.500000 0.235364 0.750000
O O9 0.647185 0.260385 0.097618
O O10 0.522682 0.276903 0.117337
O O11 0.721499 0.317140 0.658584
O O12 0.750000 0.250000 0.000000
O O13 0.078776 0.872785 0.417139
O O14 0.805170 0.063560 0.582652
O O15 0.792467 0.946821 0.748611
#
# Coordination Sequence:
#
# PCOD9297613 Si02
#       7
#     8   8   8   8   4   8   8
#     4  11  24  39  62  98 138 180 224 288 356 427
#     4  11  22  41  67  95 135 181 224 282 347 414
#     4  11  27  44  68 106 143 185 238 295 358 422
#     4  12  23  44  74  98 138 191 237 291 349 428
#     4  12  26  48  72 102 140 180 242 298 352 430
#     4  10  24  41  68  99 134 174 230 286 344 426
#     4  11  25  45  70 102 134 180 235 288 356 422
#
# _framework density 22.214341999999998
#
# number of rings (size 3 to 8) (size 9 to 14) (size 15 to 20)
#    0.000    0.923    1.538    5.538    5.385    4.308 
#    0.000    0.000    0.000    0.000    0.000    0.000 
#    0.000    0.000    0.000    0.000    0.000    0.000 
#
# Total GULP energy -145354.083140 kJ/mol
# GULP energy per Si atom -5590.541659 kJ/mol
# Density = 2.216378 g / cm^3
# Si number density = 22.214342 Si / 1000 Ang^3
#
#
#
# Elastic Constant Matrix: (Units=GPa)
#
#
# Indices 1 2 3 4 5 6 
#
# 1 137.4840 54.4266 19.7504 0.0000 9.2231 0.0000
# 2 54.4266 161.7106 36.5616 0.0000 -8.4056 0.0000
# 3 19.7504 36.5616 45.2782 0.0000 9.7379 0.0000
# 4 0.0000 0.0000 0.0000 30.8158 0.0000 5.5615
# 5 9.2231 -8.4056 9.7379 0.0000 29.2908 0.0000
# 6 0.0000 0.0000 0.0000 5.5615 0.0000 37.7816
#
#
#
# Elastic Compliance Matrix: (Units=1/GPa)
#
#
# Indices 1 2 3 4 5 6 
#
# 1 0.008778 -0.002971 -0.000702 0.000000 -0.003383 0.000000
# 2 -0.002971 0.009172 -0.007407 0.000000 0.006030 0.000000
# 3 -0.000702 -0.007407 0.030999 0.000000 -0.012210 0.000000
# 4 0.000000 0.000000 0.000000 0.033337 0.000000 -0.004907
# 5 -0.003383 0.006030 -0.012210 0.000000 0.040996 0.000000
# 6 0.000000 0.000000 0.000000 -0.004907 0.000000 0.027190
#
#
# Mechanical properties :
#
#
# Convention : Reuss Voigt Hill
#
# Bulk Modulus (GPa) = 37.33000 62.88333 50.10667
# Shear Modulus (GPa) = 27.53885 35.15991 31.34938
#
# Velocity S-wave (km/s) = 3.52474 3.98270 3.76070
# Velocity P-wave (km/s) = 5.77979 7.03692 6.43911
#
# Compressibility (1/GPa) = 0.02678810
#
# Stress axis : x y z
#
# Youngs Moduli (GPa) = 113.92512 109.02557 32.25904
#
# Poissons Ratio (x) = 0.32397 0.02264
# Poissons Ratio (y) = 0.33853 0.23895
# Poissons Ratio (z) = 0.07995 0.80757
#
# Static dielectric constant tensor:
#      x y z
#    x 1.858480 0.000000 -0.059010 
#    y 0.000000 1.796580 0.000000 
#    z -0.059010 0.000000 1.848890 
# 
# From -- ./inp_files/57085.got.cif
#   From: 2010.05.17/outbox.cif.g08.bks.cpg/sg15_29_cif.got.tgz:57085.got - 2010.06.03 18:47:42.
