data_PCOD9297620
_publ_section_title
;
Structure prediction by ZEFSAII (Michael W. Deem and Ramdas Pophale) SiO2 
 PCOD9297620
Probable space group: C 2/C
;
_chemical_formula_sum "Si O2"
_cell_formula_units_Z 32
_cell_length_a 5.154124
_cell_length_b 9.512615
_cell_length_c 27.642469
_cell_angle_alpha 90.000000
_cell_angle_beta 95.207904
_cell_angle_gamma 90.000000
_cell_volume 1349.693283
_symmetry_space_group_name_H-M "C 2/C"
_symmetry_group_IT_number 15
_symmetry_cell_setting 'monoclinic'
loop_
_space_group_symop_operation_xyz
x,y,z
-x,y,1/2-z
-x,-y,-z
x,-y,1/2+z
1/2+x,1/2+y,z
1/2-x,1/2+y,1/2-z
1/2-x,1/2-y,-z
1/2+x,1/2-y,1/2+z
loop_
_atom_site_type_symbol
_atom_site_label
_atom_site_fract_x
_atom_site_fract_y
_atom_site_fract_z
Si Si1 0.989947 0.336943 0.482404
Si Si2 0.965259 0.283913 0.306215
Si Si3 0.984667 0.734345 0.361977
Si Si4 0.355906 0.046927 0.611984
O O1 0.250000 0.250000 0.500000
O O2 0.998623 0.356500 0.424338
O O3 0.000000 0.500000 0.500000
O O4 0.750000 0.250000 0.500000
O O5 0.680782 0.248612 0.320635
O O6 0.000000 0.279045 0.250000
O O7 0.194745 0.196743 0.337096
O O8 0.030140 0.433882 0.331922
O O9 0.928357 0.883366 0.387589
O O10 0.100670 0.614781 0.398190
#
# Coordination Sequence:
#
# PCOD9297620 Si02
#       4
#     8   8   8   8
#     4  12  28  47  75 108 144 187 242 295 359 425
#     4  10  24  42  68 100 135 181 229 288 348 417
#     4  10  24  41  69  97 140 177 231 280 356 410
#     4  10  26  43  73  96 144 179 235 287 355 415
#
# _framework density 23.709088000000001
#
# number of rings (size 3 to 8) (size 9 to 14) (size 15 to 20)
#    1.500    0.000    0.000    3.000   10.500    2.000 
#    0.000    0.000    0.000    0.000    0.000    0.000 
#    0.000    0.000    0.000    0.000    0.000    0.000 
#
# Total GULP energy -89201.044540 kJ/mol
# GULP energy per Si atom -5575.065284 kJ/mol
# Density = 2.365512 g / cm^3
# Si number density = 23.709088 Si / 1000 Ang^3
#
#
#
# Elastic Constant Matrix: (Units=GPa)
#
#
# Indices 1 2 3 4 5 6 
#
# 1 181.3333 72.4233 43.5346 0.0000 -33.7896 0.0000
# 2 72.4233 162.2962 32.4419 0.0000 -2.6560 0.0000
# 3 43.5346 32.4419 102.4834 0.0000 -22.9522 0.0000
# 4 0.0000 0.0000 0.0000 21.8426 0.0000 7.6518
# 5 -33.7896 -2.6560 -22.9522 0.0000 34.7767 0.0000
# 6 0.0000 0.0000 0.0000 7.6518 0.0000 40.5344
#
#
#
# Elastic Compliance Matrix: (Units=1/GPa)
#
#
# Indices 1 2 3 4 5 6 
#
# 1 0.008502 -0.003505 -0.000835 0.000000 0.007441 0.000000
# 2 -0.003505 0.008054 -0.001978 0.000000 -0.004096 0.000000
# 3 -0.000835 -0.001978 0.012348 0.000000 0.007187 0.000000
# 4 0.000000 0.000000 0.000000 0.049024 0.000000 -0.009254
# 5 0.007441 -0.004096 0.007187 0.000000 0.040416 0.000000
# 6 0.000000 0.000000 0.000000 -0.009254 0.000000 0.026417
#
#
# Mechanical properties :
#
#
# Convention : Reuss Voigt Hill
#
# Bulk Modulus (GPa) = 61.47301 82.54582 72.00942
# Shear Modulus (GPa) = 30.70867 39.27830 34.99348
#
# Velocity S-wave (km/s) = 3.60283 4.07465 3.84598
# Velocity P-wave (km/s) = 6.57963 7.55173 7.08238
#
# Compressibility (1/GPa) = 0.01626730
#
# Stress axis : x y z
#
# Youngs Moduli (GPa) = 117.62187 124.16129 80.98291
#
# Poissons Ratio (x) = 0.43520 0.06765
# Poissons Ratio (y) = 0.41228 0.16018
# Poissons Ratio (z) = 0.09826 0.24558
#
# Static dielectric constant tensor:
#      x y z
#    x 1.169800 0.000000 -0.855660 
#    y 0.000000 1.453260 0.000000 
#    z -0.855660 0.000000 0.855270 
# 
# From -- ./inp_files/259713.got.cif
#   From: 2010.05.17/outbox.cif.g08.bks.cpg/sg15_130_cif.got.tgz:259713.got - 2010.06.03 18:47:42.
