data_PCOD9297262
_publ_section_title
;
Structure prediction by ZEFSAII (Michael W. Deem and Ramdas Pophale) SiO2 
 PCOD9297262
Probable space group: C 2/C
;
_chemical_formula_sum "Si O2"
_cell_formula_units_Z 40
_cell_length_a 8.290346
_cell_length_b 33.190437
_cell_length_c 7.444999
_cell_angle_alpha 90.000000
_cell_angle_beta 115.361322
_cell_angle_gamma 90.000000
_cell_volume 1851.136043
_symmetry_space_group_name_H-M "C 2/C"
_symmetry_group_IT_number 15
_symmetry_cell_setting 'monoclinic'
loop_
_space_group_symop_operation_xyz
x,y,z
-x,y,1/2-z
-x,-y,-z
x,-y,1/2+z
1/2+x,1/2+y,z
1/2-x,1/2+y,1/2-z
1/2-x,1/2-y,-z
1/2+x,1/2-y,1/2+z
loop_
_atom_site_type_symbol
_atom_site_label
_atom_site_fract_x
_atom_site_fract_y
_atom_site_fract_z
Si Si1 0.000000 0.262091 0.750000
Si Si2 0.348164 0.788914 0.313736
Si Si3 0.000000 0.901274 0.750000
Si Si4 0.195688 0.550229 0.640625
Si Si5 0.147075 0.866965 0.190462
Si Si6 0.792673 0.461900 0.927454
O O1 0.164449 0.236617 0.742149
O O2 0.923671 0.288082 0.550879
O O3 0.500000 0.772692 0.250000
O O4 0.300226 0.834326 0.235606
O O5 0.934058 0.877632 0.543078
O O6 0.839362 0.931037 0.729537
O O7 0.287564 0.593470 0.666656
O O8 0.277214 0.507557 0.621045
O O9 0.195455 0.547266 0.856374
O O10 0.996413 0.545827 0.464459
O O11 0.000000 0.847637 0.250000
#
# Coordination Sequence:
#
# PCOD9297262 Si02
#       6
#     4   8   4   8   8   8
#     4  10  24  50  71 110 130 166 226 256 325 418
#     4  11  24  46  75 101 138 174 209 271 330 392
#     4  10  24  38  61  84 130 170 224 266 327 376
#     4   9  20  36  56  81 124 159 223 270 322 378
#     4  11  25  42  61  97 132 170 216 272 323 394
#     4   9  19  36  55  84 113 173 217 274 317 384
#
# _framework density 21.608352
#
# number of rings (size 3 to 8) (size 9 to 14) (size 15 to 20)
#    0.000    2.000    1.000    0.600    9.800    3.200 
#    1.800    0.000    0.000    0.000    0.000    0.000 
#    0.000    0.000    0.000    0.000    0.000    0.000 
#
# Total GULP energy -111540.920261 kJ/mol
# GULP energy per Si atom -5577.046013 kJ/mol
# Density = 2.155917 g / cm^3
# Si number density = 21.608352 Si / 1000 Ang^3
#
#
#
# Elastic Constant Matrix: (Units=GPa)
#
#
# Indices 1 2 3 4 5 6 
#
# 1 96.6910 21.8415 25.9937 0.0000 8.7875 0.0000
# 2 21.8415 70.5532 61.5586 0.0000 13.9422 0.0000
# 3 25.9937 61.5586 113.2490 0.0000 20.6732 0.0000
# 4 0.0000 0.0000 0.0000 1.5553 0.0000 12.8292
# 5 8.7875 13.9422 20.6732 0.0000 30.7191 0.0000
# 6 0.0000 0.0000 0.0000 12.8292 0.0000 -19.1433
#
#
#
# Elastic Compliance Matrix: (Units=1/GPa)
#
#
# Indices 1 2 3 4 5 6 
#
# 1 0.011278 -0.002238 -0.001104 0.000000 -0.001467 0.000000
# 2 -0.002238 0.027603 -0.014046 0.000000 -0.002435 0.000000
# 3 -0.001104 -0.014046 0.017668 0.000000 -0.005199 0.000000
# 4 0.000000 0.000000 0.000000 0.098494 0.000000 0.066007
# 5 -0.001467 -0.002435 -0.005199 0.000000 0.037577 0.000000
# 6 0.000000 0.000000 0.000000 0.066007 0.000000 -0.008002
#
#
# Mechanical properties :
#
#
# Convention : Reuss Voigt Hill
#
# Bulk Modulus (GPa) = 45.93003 55.47566 50.70284
# Shear Modulus (GPa) = 22.06039 14.03286 18.04663
#
# Velocity S-wave (km/s) = 3.19865 2.55113 2.89306
# Velocity P-wave (km/s) = 5.91131 5.86572 5.88856
#
# Compressibility (1/GPa) = 0.02177225
#
# Stress axis : x y z
#
# Youngs Moduli (GPa) = 88.66849 36.22800 56.60093
#
# Poissons Ratio (x) = 0.08108 0.06250
# Poissons Ratio (y) = 0.19843 0.79501
# Poissons Ratio (z) = 0.09791 0.50886
#
# Static dielectric constant tensor:
#      x y z
#    x 2.045310 0.000000 -0.027430 
#    y 0.000000 1.826890 0.000000 
#    z -0.027430 0.000000 1.753930 
# 
# From -- ./inp_files/26278.got.cif
#   From: 2010.05.17/outbox.cif.g08.bks.cpg/sg15_14_cif.got.tgz:26278.got - 2010.06.03 18:47:42.
