data_PCOD9297465
_publ_section_title
;
Structure prediction by ZEFSAII (Michael W. Deem and Ramdas Pophale) SiO2 
 PCOD9297465
Probable space group: C 2/C
;
_chemical_formula_sum "Si O2"
_cell_formula_units_Z 32
_cell_length_a 8.873386
_cell_length_b 4.963617
_cell_length_c 30.556145
_cell_angle_alpha 90.000000
_cell_angle_beta 118.196596
_cell_angle_gamma 90.000000
_cell_volume 1186.111468
_symmetry_space_group_name_H-M "C 2/C"
_symmetry_group_IT_number 15
_symmetry_cell_setting 'monoclinic'
loop_
_space_group_symop_operation_xyz
x,y,z
-x,y,1/2-z
-x,-y,-z
x,-y,1/2+z
1/2+x,1/2+y,z
1/2-x,1/2+y,1/2-z
1/2-x,1/2-y,-z
1/2+x,1/2-y,1/2+z
loop_
_atom_site_type_symbol
_atom_site_label
_atom_site_fract_x
_atom_site_fract_y
_atom_site_fract_z
Si Si1 0.804284 0.741271 0.731106
Si Si2 0.952715 0.446584 0.081744
Si Si3 0.296687 0.517940 0.876050
Si Si4 0.384918 0.411108 0.026036
O O1 0.706155 0.001936 0.734993
O O2 0.730480 0.616718 0.676398
O O3 0.000000 0.821694 0.750000
O O4 0.134038 0.285915 0.109481
O O5 0.817368 0.598590 0.026785
O O6 0.873780 0.487762 0.118956
O O7 0.854362 0.151102 0.055018
O O8 0.443348 0.722846 0.917046
O O9 0.500000 0.500000 0.000000
#
# Coordination Sequence:
#
# PCOD9297465 Si02
#       4
#     8   8   8   8
#     4  12  28  47  74 105 141 185 238 294 359 422
#     4  10  24  40  68  93 135 172 223 271 341 399
#     4  10  26  42  70  94 137 173 227 282 342 412
#     4  10  24  42  66  98 135 176 223 276 340 408
#
# _framework density 26.978916999999999
#
# number of rings (size 3 to 8) (size 9 to 14) (size 15 to 20)
#    1.500    0.000    0.000    3.000   10.500    2.000 
#    0.000    0.000    0.000    0.000    0.000    0.000 
#    0.000    0.000    0.000    0.000    0.000    0.000 
#
# Total GULP energy -89489.201240 kJ/mol
# GULP energy per Si atom -5593.075078 kJ/mol
# Density = 2.691751 g / cm^3
# Si number density = 26.978917 Si / 1000 Ang^3
#
#
#
# Elastic Constant Matrix: (Units=GPa)
#
#
# Indices 1 2 3 4 5 6 
#
# 1 134.1783 68.3340 58.2542 0.0000 -22.9278 0.0000
# 2 68.3340 161.5861 4.6844 0.0000 -24.3821 0.0000
# 3 58.2542 4.6844 116.0370 0.0000 -1.3703 0.0000
# 4 0.0000 0.0000 0.0000 25.7685 0.0000 6.4777
# 5 -22.9278 -24.3821 -1.3703 0.0000 51.5895 0.0000
# 6 0.0000 0.0000 0.0000 6.4777 0.0000 49.6818
#
#
#
# Elastic Compliance Matrix: (Units=1/GPa)
#
#
# Indices 1 2 3 4 5 6 
#
# 1 0.013368 -0.004948 -0.006471 0.000000 0.003431 0.000000
# 2 -0.004948 0.008502 0.002163 0.000000 0.001876 0.000000
# 3 -0.006471 0.002163 0.011761 0.000000 -0.001541 0.000000
# 4 0.000000 0.000000 0.000000 0.040122 0.000000 -0.005231
# 5 0.003431 0.001876 -0.001541 0.000000 0.021754 0.000000
# 6 0.000000 0.000000 0.000000 -0.005231 0.000000 0.020810
#
#
# Mechanical properties :
#
#
# Convention : Reuss Voigt Hill
#
# Bulk Modulus (GPa) = 66.14276 74.92740 70.53508
# Shear Modulus (GPa) = 35.74749 44.10989 39.92869
#
# Velocity S-wave (km/s) = 3.64403 4.04787 3.85125
# Velocity P-wave (km/s) = 6.50192 7.04839 6.78066
#
# Compressibility (1/GPa) = 0.01511881
#
# Stress axis : x y z
#
# Youngs Moduli (GPa) = 74.80279 117.62440 85.02586
#
# Poissons Ratio (x) = 0.58203 0.55021
# Poissons Ratio (y) = 0.37014 -0.18392
# Poissons Ratio (z) = 0.48406 -0.25443
#
# Static dielectric constant tensor:
#      x y z
#    x 2.108630 0.000000 0.209320 
#    y 0.000000 2.227570 0.000000 
#    z 0.209320 0.000000 2.163400 
# 
# From -- ./inp_files/306223.got.cif
#   From: 2010.05.17/outbox.cif.g08.bks.cpg/sg15_154_cif.got.tgz:306223.got - 2010.06.03 18:47:42.
