data_PCOD9297762
_publ_section_title
;
Structure prediction by ZEFSAII (Michael W. Deem and Ramdas Pophale) SiO2 
 PCOD9297762
Probable space group: C 2/C
;
_chemical_formula_sum "Si O2"
_cell_formula_units_Z 44
_cell_length_a 7.516801
_cell_length_b 11.557347
_cell_length_c 25.012077
_cell_angle_alpha 90.000000
_cell_angle_beta 109.804458
_cell_angle_gamma 90.000000
_cell_volume 2044.388303
_symmetry_space_group_name_H-M "C 2/C"
_symmetry_group_IT_number 15
_symmetry_cell_setting 'monoclinic'
loop_
_space_group_symop_operation_xyz
x,y,z
-x,y,1/2-z
-x,-y,-z
x,-y,1/2+z
1/2+x,1/2+y,z
1/2-x,1/2+y,1/2-z
1/2-x,1/2-y,-z
1/2+x,1/2-y,1/2+z
loop_
_atom_site_type_symbol
_atom_site_label
_atom_site_fract_x
_atom_site_fract_y
_atom_site_fract_z
Si Si1 0.719178 0.426258 0.755804
Si Si2 0.372739 0.552362 0.056544
Si Si3 0.116887 0.644974 0.122530
Si Si4 0.283104 0.357486 0.964526
Si Si5 0.395067 0.606903 0.837595
Si Si6 0.000000 0.233813 0.750000
O O1 0.500000 0.409823 0.750000
O O2 0.824882 0.438637 0.823060
O O3 0.736341 0.526015 0.712917
O O4 0.818224 0.313321 0.741267
O O5 0.214510 0.607005 0.077809
O O6 0.500558 0.469557 0.107604
O O7 0.287760 0.473392 0.000930
O O8 0.483229 0.355974 0.954745
O O9 0.182800 0.775970 0.143566
O O10 0.892266 0.642480 0.093380
O O11 0.250000 0.250000 0.000000
O O12 0.533230 0.657165 0.805651
#
# Coordination Sequence:
#
# PCOD9297762 Si02
#       6
#     8   8   8   8   8   4
#     4  11  23  43  65  99 139 172 222 271 327 401
#     4  11  24  46  71  94 142 166 226 288 320 400
#     4  11  24  44  71  99 133 184 219 269 350 390
#     4  11  25  47  70 101 130 179 227 282 334 397
#     4  11  22  44  67 100 135 175 222 274 326 403
#     4  10  24  42  66  96 140 174 218 270 334 398
#
# _framework density 21.522328999999999
#
# number of rings (size 3 to 8) (size 9 to 14) (size 15 to 20)
#    0.000    1.091    4.545    0.545    5.091    0.727 
#    9.818    3.636    0.000    0.000    0.000    0.000 
#    0.000    0.000    0.000    0.000    0.000    0.000 
#
# Total GULP energy -122899.598991 kJ/mol
# GULP energy per Si atom -5586.345409 kJ/mol
# Density = 2.147334 g / cm^3
# Si number density = 21.522329 Si / 1000 Ang^3
#
#
#
# Elastic Constant Matrix: (Units=GPa)
#
#
# Indices 1 2 3 4 5 6 
#
# 1 45.8692 12.7826 -0.1606 0.0000 -1.1209 0.0000
# 2 12.7826 68.4384 5.7725 0.0000 8.3950 0.0000
# 3 -0.1606 5.7725 83.7552 0.0000 18.9774 0.0000
# 4 0.0000 0.0000 0.0000 33.8166 0.0000 -22.1041
# 5 -1.1209 8.3950 18.9774 0.0000 36.6833 0.0000
# 6 0.0000 0.0000 0.0000 -22.1041 0.0000 33.6527
#
#
#
# Elastic Compliance Matrix: (Units=1/GPa)
#
#
# Indices 1 2 3 4 5 6 
#
# 1 0.023106 -0.004528 -0.000043 0.000000 0.001765 0.000000
# 2 -0.004528 0.015927 -0.000282 0.000000 -0.003637 0.000000
# 3 -0.000043 -0.000282 0.013531 0.000000 -0.006937 0.000000
# 4 0.000000 0.000000 0.000000 0.051819 0.000000 0.034036
# 5 0.001765 -0.003637 -0.006937 0.000000 0.031735 0.000000
# 6 0.000000 0.000000 0.000000 0.034036 0.000000 0.052071
#
#
# Mechanical properties :
#
#
# Convention : Reuss Voigt Hill
#
# Bulk Modulus (GPa) = 23.33406 26.09463 24.71435
# Shear Modulus (GPa) = 23.56454 32.80839 28.18646
#
# Velocity S-wave (km/s) = 3.31250 3.90858 3.62282
# Velocity P-wave (km/s) = 5.04931 5.70264 5.38589
#
# Compressibility (1/GPa) = 0.04285581
#
# Stress axis : x y z
#
# Youngs Moduli (GPa) = 43.27865 62.78457 73.90646
#
# Poissons Ratio (x) = 0.28432 0.00321
# Poissons Ratio (y) = 0.19599 0.02086
# Poissons Ratio (z) = 0.00188 0.01772
#
# Static dielectric constant tensor:
#      x y z
#    x 1.763690 0.000000 -0.018480 
#    y 0.000000 1.807400 0.000000 
#    z -0.018480 0.000000 1.801270 
# 
# From -- ./inp_files/306948.got.cif
#   From: 2010.05.17/outbox.cif.g08.bks.cpg/sg15_154_cif.got.tgz:306948.got - 2010.06.03 18:47:42.
