data_PCOD9297079
_publ_section_title
;
Structure prediction by ZEFSAII (Michael W. Deem and Ramdas Pophale) SiO2 
 PCOD9297079
Probable space group: C 2/C
;
_chemical_formula_sum "Si O2"
_cell_formula_units_Z 32
_cell_length_a 8.302429
_cell_length_b 13.270306
_cell_length_c 11.808992
_cell_angle_alpha 90.000000
_cell_angle_beta 97.475325
_cell_angle_gamma 90.000000
_cell_volume 1290.007053
_symmetry_space_group_name_H-M "C 2/C"
_symmetry_group_IT_number 15
_symmetry_cell_setting 'monoclinic'
loop_
_space_group_symop_operation_xyz
x,y,z
-x,y,1/2-z
-x,-y,-z
x,-y,1/2+z
1/2+x,1/2+y,z
1/2-x,1/2+y,1/2-z
1/2-x,1/2-y,-z
1/2+x,1/2-y,1/2+z
loop_
_atom_site_type_symbol
_atom_site_label
_atom_site_fract_x
_atom_site_fract_y
_atom_site_fract_z
Si Si1 0.422312 0.864996 0.069688
Si Si2 0.405600 0.801480 0.632455
Si Si3 0.168016 0.976327 0.576888
Si Si4 0.255102 0.121467 0.768168
O O1 0.307621 0.957996 0.027012
O O2 0.584165 0.903241 0.147151
O O3 0.319016 0.814942 0.163085
O O4 0.481139 0.804472 0.967075
O O5 0.500000 0.846341 0.750000
O O6 0.356410 0.689702 0.664441
O O7 0.241546 0.864810 0.593558
O O8 0.172903 0.025657 0.702768
O O9 0.000000 0.000000 0.500000
#
# Coordination Sequence:
#
# PCOD9297079 Si02
#       4
#     8   8   8   8
#     4   9  21  47  73 103 147 188 251 304 372 443
#     4  12  24  43  76 106 146 205 243 305 384 431
#     4  10  23  47  76 109 147 192 252 313 371 445
#     4   9  22  44  74 107 149 186 252 313 365 452
#
# _framework density 24.806066999999999
#
# number of rings (size 3 to 8) (size 9 to 14) (size 15 to 20)
#    1.500    0.500    0.000    3.000    0.000    5.000 
#    9.000    2.500    0.000    1.500    0.000    0.000 
#    0.000    0.000    0.000    0.000    0.000    0.000 
#
# Total GULP energy -89404.160380 kJ/mol
# GULP energy per Si atom -5587.760024 kJ/mol
# Density = 2.474961 g / cm^3
# Si number density = 24.806067 Si / 1000 Ang^3
#
#
#
# Elastic Constant Matrix: (Units=GPa)
#
#
# Indices 1 2 3 4 5 6 
#
# 1 90.9094 19.5984 60.9449 0.0000 36.8168 0.0000
# 2 19.5984 44.7999 8.9440 0.0000 -1.6482 0.0000
# 3 60.9449 8.9440 154.1163 0.0000 -6.9712 0.0000
# 4 0.0000 0.0000 0.0000 43.7065 0.0000 -5.7388
# 5 36.8168 -1.6482 -6.9712 0.0000 82.0341 0.0000
# 6 0.0000 0.0000 0.0000 -5.7388 0.0000 36.9232
#
#
#
# Elastic Compliance Matrix: (Units=1/GPa)
#
#
# Indices 1 2 3 4 5 6 
#
# 1 0.024171 -0.009100 -0.009566 0.000000 -0.011844 0.000000
# 2 -0.009100 0.026019 0.002306 0.000000 0.004803 0.000000
# 3 -0.009566 0.002306 0.010374 0.000000 0.005221 0.000000
# 4 0.000000 0.000000 0.000000 0.023357 0.000000 0.003630
# 5 -0.011844 0.004803 0.005221 0.000000 0.018046 0.000000
# 6 0.000000 0.000000 0.000000 0.003630 0.000000 0.027647
#
#
# Mechanical properties :
#
#
# Convention : Reuss Voigt Hill
#
# Bulk Modulus (GPa) = 35.91523 52.08894 44.00208
# Shear Modulus (GPa) = 29.13487 45.88864 37.51176
#
# Velocity S-wave (km/s) = 3.43082 4.30571 3.89292
# Velocity P-wave (km/s) = 5.49581 6.76483 6.16307
#
# Compressibility (1/GPa) = 0.02784334
#
# Stress axis : x y z
#
# Youngs Moduli (GPa) = 41.37121 38.43375 96.39617
#
# Poissons Ratio (x) = 0.34975 0.92214
# Poissons Ratio (y) = 0.37648 -0.22228
# Poissons Ratio (z) = 0.39576 -0.08862
#
# Static dielectric constant tensor:
#      x y z
#    x 1.995030 0.000000 -0.016180 
#    y 0.000000 1.962830 0.000000 
#    z -0.016180 0.000000 2.023780 
# 
# From -- ./inp_files/76126.got.cif
#   From: 2010.05.17/outbox.cif.g08.bks.cpg/sg15_39_cif.got.tgz:76126.got - 2010.06.03 18:47:42.
