data_PCOD9297520
_publ_section_title
;
Structure prediction by ZEFSAII (Michael W. Deem and Ramdas Pophale) SiO2 
 PCOD9297520
Probable space group: C 2/C
;
_chemical_formula_sum "Si O2"
_cell_formula_units_Z 28
_cell_length_a 9.699659
_cell_length_b 13.749041
_cell_length_c 14.626091
_cell_angle_alpha 90.000000
_cell_angle_beta 144.484441
_cell_angle_gamma 90.000000
_cell_volume 1133.121481
_symmetry_space_group_name_H-M "C 2/C"
_symmetry_group_IT_number 15
_symmetry_cell_setting 'monoclinic'
loop_
_space_group_symop_operation_xyz
x,y,z
-x,y,1/2-z
-x,-y,-z
x,-y,1/2+z
1/2+x,1/2+y,z
1/2-x,1/2+y,1/2-z
1/2-x,1/2-y,-z
1/2+x,1/2-y,1/2+z
loop_
_atom_site_type_symbol
_atom_site_label
_atom_site_fract_x
_atom_site_fract_y
_atom_site_fract_z
Si Si1 0.902001 0.486407 0.298532
Si Si2 0.500000 0.779688 0.750000
Si Si3 0.518269 0.668240 0.570596
Si Si4 0.782003 0.636344 0.391784
O O1 0.651473 0.432685 0.150316
O O2 0.872824 0.579358 0.349606
O O3 0.000000 0.497139 0.250000
O O4 0.076236 0.413264 0.448527
O O5 0.514871 0.711274 0.670309
O O6 0.251180 0.835037 0.607580
O O7 0.652007 0.749997 0.582391
O O8 0.500000 0.624185 0.250000
#
# Coordination Sequence:
#
# PCOD9297520 Si02
#       4
#     8   4   8   8
#     4  11  27  48  74 108 148 192 245 301 368 436
#     4  10  24  40  78 106 142 188 242 294 370 422
#     4  11  23  46  74 108 147 192 240 301 362 439
#     4  11  27  47  73 108 149 191 244 304 364 437
#
# _framework density 24.710502000000002
#
# number of rings (size 3 to 8) (size 9 to 14) (size 15 to 20)
#    0.000    1.143    2.857    0.857    8.000    5.714 
#    0.000    0.000    0.000    0.000    0.000    0.000 
#    0.000    0.000    0.000    0.000    0.000    0.000 
#
# Total GULP energy -78548.088033 kJ/mol
# GULP energy per Si atom -5610.577717 kJ/mol
# Density = 2.465426 g / cm^3
# Si number density = 24.710502 Si / 1000 Ang^3
#
#
#
# Elastic Constant Matrix: (Units=GPa)
#
#
# Indices 1 2 3 4 5 6 
#
# 1 114.4246 6.7321 62.4661 0.0002 -23.1824 0.0000
# 2 6.7321 77.2054 28.9583 0.0004 -9.4485 0.0002
# 3 62.4661 28.9583 194.0744 0.0011 2.6858 0.0004
# 4 0.0002 0.0004 0.0011 44.0743 0.0003 6.6004
# 5 -23.1824 -9.4485 2.6858 0.0003 50.6703 0.0001
# 6 0.0000 0.0002 0.0004 6.6004 0.0001 8.4054
#
#
#
# Elastic Compliance Matrix: (Units=1/GPa)
#
#
# Indices 1 2 3 4 5 6 
#
# 1 0.012172 0.001246 -0.004187 0.000000 0.006023 0.000000
# 2 0.001246 0.014218 -0.002569 0.000000 0.003358 0.000000
# 3 -0.004187 -0.002569 0.006922 0.000000 -0.002762 0.000000
# 4 0.000000 0.000000 0.000000 0.025713 0.000000 -0.020191
# 5 0.006023 0.003358 -0.002762 0.000000 0.023264 0.000000
# 6 0.000000 0.000000 0.000000 -0.020191 0.000000 0.134826
#
#
# Mechanical properties :
#
#
# Convention : Reuss Voigt Hill
#
# Bulk Modulus (GPa) = 44.85827 64.66860 54.76344
# Shear Modulus (GPa) = 21.22547 39.79985 30.51266
#
# Velocity S-wave (km/s) = 2.93399 4.01764 3.51779
# Velocity P-wave (km/s) = 5.44708 6.91008 6.22173
#
# Compressibility (1/GPa) = 0.02229243
#
# Stress axis : x y z
#
# Youngs Moduli (GPa) = 82.15446 70.33168 144.46823
#
# Poissons Ratio (x) = -0.08765 0.60491
# Poissons Ratio (y) = -0.10239 0.37116
# Poissons Ratio (z) = 0.34399 0.18069
#
# Static dielectric constant tensor:
#      x y z
#    x 1.939180 0.000000 -0.013910 
#    y 0.000000 2.003090 0.000000 
#    z -0.013910 0.000000 1.892640 
# 
# From -- ./inp_files/133039.got.cif
#   From: 2010.05.17/outbox.cif.g08.bks.cpg/sg15_67_cif.got.tgz:133039.got - 2010.06.03 18:47:42.
