data_PCOD9297518
_publ_section_title
;
Structure prediction by ZEFSAII (Michael W. Deem and Ramdas Pophale) SiO2 
 PCOD9297518
Probable space group: C 2/C
;
_chemical_formula_sum "Si O2"
_cell_formula_units_Z 36
_cell_length_a 19.789976
_cell_length_b 10.140637
_cell_length_c 9.249461
_cell_angle_alpha 90.000000
_cell_angle_beta 109.649918
_cell_angle_gamma 90.000000
_cell_volume 1748.112594
_symmetry_space_group_name_H-M "C 2/C"
_symmetry_group_IT_number 15
_symmetry_cell_setting 'monoclinic'
loop_
_space_group_symop_operation_xyz
x,y,z
-x,y,1/2-z
-x,-y,-z
x,-y,1/2+z
1/2+x,1/2+y,z
1/2-x,1/2+y,1/2-z
1/2-x,1/2-y,-z
1/2+x,1/2-y,1/2+z
loop_
_atom_site_type_symbol
_atom_site_label
_atom_site_fract_x
_atom_site_fract_y
_atom_site_fract_z
Si Si1 0.365008 0.689868 0.511893
Si Si2 0.818415 0.667226 0.507800
Si Si3 0.568260 0.280068 0.733277
Si Si4 0.291511 0.092076 0.160710
Si Si5 0.500000 0.461628 0.250000
O O1 0.392163 0.760314 0.384195
O O2 0.329681 0.792228 0.597589
O O3 0.295648 0.599183 0.420390
O O4 0.435500 0.621714 0.632730
O O5 0.750000 0.750000 0.500000
O O6 0.880627 0.769641 0.592018
O O7 0.811902 0.615041 0.341362
O O8 0.821023 0.542993 0.616554
O O9 0.500000 0.203861 0.750000
O O10 0.541175 0.429231 0.680927
#
# Coordination Sequence:
#
# PCOD9297518 Si02
#       5
#     8   8   8   8   4
#     4  11  23  45  65 108 137 179 238 283 354 411
#     4  12  24  47  71 100 145 184 235 289 346 417
#     4  10  24  43  66 104 137 181 233 282 350 411
#     4  11  27  42  74 101 140 183 235 291 347 413
#     4  10  24  40  76  98 142 184 236 286 346 416
#
# _framework density 20.593640000000001
#
# number of rings (size 3 to 8) (size 9 to 14) (size 15 to 20)
#    0.667    0.444    2.222    3.333    6.222    0.000 
#    2.000    2.222    0.000    0.000    0.000    0.000 
#    0.000    0.000    0.000    0.000    0.000    0.000 
#
# Total GULP energy -100239.475900 kJ/mol
# GULP energy per Si atom -5568.859772 kJ/mol
# Density = 2.054677 g / cm^3
# Si number density = 20.593640 Si / 1000 Ang^3
#
#
#
# Elastic Constant Matrix: (Units=GPa)
#
#
# Indices 1 2 3 4 5 6 
#
# 1 105.0073 22.9557 60.8952 0.0000 17.7296 0.0000
# 2 22.9557 51.6939 40.9558 0.0000 -6.7455 0.0000
# 3 60.8952 40.9558 129.5639 0.0000 -8.9737 0.0000
# 4 0.0000 0.0000 0.0000 32.0083 0.0000 -1.0743
# 5 17.7296 -6.7455 -8.9737 0.0000 50.3192 0.0000
# 6 0.0000 0.0000 0.0000 -1.0743 0.0000 22.8501
#
#
#
# Elastic Compliance Matrix: (Units=1/GPa)
#
#
# Indices 1 2 3 4 5 6 
#
# 1 0.015168 -0.002144 -0.006927 0.000000 -0.006867 0.000000
# 2 -0.002144 0.026317 -0.007103 0.000000 0.003017 0.000000
# 3 -0.006927 -0.007103 0.013489 0.000000 0.003894 0.000000
# 4 0.000000 0.000000 0.000000 0.031291 0.000000 0.001471
# 5 -0.006867 0.003017 0.003894 0.000000 0.023392 0.000000
# 6 0.000000 0.000000 0.000000 0.001471 0.000000 0.043833
#
#
# Mechanical properties :
#
#
# Convention : Reuss Voigt Hill
#
# Bulk Modulus (GPa) = 44.19350 59.54206 51.86778
# Shear Modulus (GPa) = 25.85590 31.79945 28.82767
#
# Velocity S-wave (km/s) = 3.54719 3.93382 3.74549
# Velocity P-wave (km/s) = 6.18733 7.04335 6.62917
#
# Compressibility (1/GPa) = 0.02262776
#
# Stress axis : x y z
#
# Youngs Moduli (GPa) = 65.92659 37.99766 74.13541
#
# Poissons Ratio (x) = 0.08146 0.51355
# Poissons Ratio (y) = 0.14133 0.52655
# Poissons Ratio (z) = 0.45668 0.26988
#
# Static dielectric constant tensor:
#      x y z
#    x 1.719680 0.000000 -0.024680 
#    y 0.000000 1.757590 0.000000 
#    z -0.024680 0.000000 1.704300 
# 
# From -- ./inp_files/46324.got.cif
#   From: 2010.05.17/outbox.cif.g08.bks.cpg/sg15_24_cif.got.tgz:46324.got - 2010.06.03 18:47:42.
