data_PCOD9297698
_publ_section_title
;
Structure prediction by ZEFSAII (Michael W. Deem and Ramdas Pophale) SiO2 
 PCOD9297698
Probable space group: C 2/C
;
_chemical_formula_sum "Si O2"
_cell_formula_units_Z 44
_cell_length_a 10.024307
_cell_length_b 14.413489
_cell_length_c 15.411247
_cell_angle_alpha 90.000000
_cell_angle_beta 62.254383
_cell_angle_gamma 90.000000
_cell_volume 1970.679244
_symmetry_space_group_name_H-M "C 2/C"
_symmetry_group_IT_number 15
_symmetry_cell_setting 'monoclinic'
loop_
_space_group_symop_operation_xyz
x,y,z
-x,y,1/2-z
-x,-y,-z
x,-y,1/2+z
1/2+x,1/2+y,z
1/2-x,1/2+y,1/2-z
1/2-x,1/2-y,-z
1/2+x,1/2-y,1/2+z
loop_
_atom_site_type_symbol
_atom_site_label
_atom_site_fract_x
_atom_site_fract_y
_atom_site_fract_z
Si Si1 0.267180 0.919336 0.347448
Si Si2 0.959566 0.078299 0.855080
Si Si3 0.330696 0.030088 0.026060
Si Si4 0.290941 0.223538 0.085247
Si Si5 0.089780 0.279228 0.586064
Si Si6 0.500000 0.062761 0.250000
O O1 0.322554 0.937657 0.428476
O O2 0.276151 0.806561 0.334668
O O3 0.092573 0.944407 0.382914
O O4 0.368919 0.990171 0.260930
O O5 0.960172 0.188653 0.846900
O O6 0.000000 0.036545 0.750000
O O7 0.791589 0.050474 0.930970
O O8 0.259318 0.114528 0.104735
O O9 0.500000 0.000000 0.000000
O O10 0.470936 0.220388 0.043313
O O11 0.250000 0.250000 0.000000
O O12 0.250000 0.250000 0.500000
O O13 0.064752 0.369265 0.654776
#
# Coordination Sequence:
#
# PCOD9297698 Si02
#       6
#     8   8   8   8   8   4
#     4  10  24  42  64  93 140 172 223 274 337 402
#     4  11  24  42  62  99 135 168 219 278 335 398
#     4  11  22  42  73  97 131 180 224 269 340 413
#     4   9  21  42  65  97 128 170 222 272 337 402
#     4  11  23  44  69  95 131 176 228 279 334 407
#     4  12  24  42  68 102 132 184 232 276 342 408
#
# _framework density 22.327324999999998
#
# number of rings (size 3 to 8) (size 9 to 14) (size 15 to 20)
#    0.000    1.455    0.909    3.818    5.091    2.909 
#    1.636    0.000    0.000    0.000    0.000    0.000 
#    0.000    0.000    0.000    0.000    0.000    0.000 
#
# Total GULP energy -122514.253145 kJ/mol
# GULP energy per Si atom -5568.829688 kJ/mol
# Density = 2.227651 g / cm^3
# Si number density = 22.327325 Si / 1000 Ang^3
#
#
#
# Elastic Constant Matrix: (Units=GPa)
#
#
# Indices 1 2 3 4 5 6 
#
# 1 159.3926 56.2666 43.6031 0.0000 -2.5368 0.0000
# 2 56.2666 171.1415 25.1610 0.0000 -10.7830 0.0000
# 3 43.6031 25.1610 69.8248 0.0000 -3.5410 0.0000
# 4 0.0000 0.0000 0.0000 28.8043 0.0000 -6.4767
# 5 -2.5368 -10.7830 -3.5410 0.0000 21.2486 0.0000
# 6 0.0000 0.0000 0.0000 -6.4767 0.0000 32.7399
#
#
#
# Elastic Compliance Matrix: (Units=1/GPa)
#
#
# Indices 1 2 3 4 5 6 
#
# 1 0.008209 -0.002102 -0.004411 0.000000 -0.000822 0.000000
# 2 -0.002102 0.006876 -0.001009 0.000000 0.003070 0.000000
# 3 -0.004411 -0.001009 0.017535 0.000000 0.001883 0.000000
# 4 0.000000 0.000000 0.000000 0.036333 0.000000 0.007187
# 5 -0.000822 0.003070 0.001883 0.000000 0.048836 0.000000
# 6 0.000000 0.000000 0.000000 0.007187 0.000000 0.031966
#
#
# Mechanical properties :
#
#
# Convention : Reuss Voigt Hill
#
# Bulk Modulus (GPa) = 56.89516 72.26892 64.58204
# Shear Modulus (GPa) = 29.29834 34.91378 32.10606
#
# Velocity S-wave (km/s) = 3.62639 3.95869 3.79617
# Velocity P-wave (km/s) = 6.56292 7.30295 6.94280
#
# Compressibility (1/GPa) = 0.01757619
#
# Stress axis : x y z
#
# Youngs Moduli (GPa) = 121.81088 145.43036 57.02879
#
# Poissons Ratio (x) = 0.30575 0.25153
# Poissons Ratio (y) = 0.25609 0.05755
# Poissons Ratio (z) = 0.53726 0.14677
#
# Static dielectric constant tensor:
#      x y z
#    x 1.721440 0.000000 0.167660 
#    y 0.000000 1.920160 0.000000 
#    z 0.167660 0.000000 1.695880 
# 
# From -- ./inp_files/188737.got.cif
#   From: 2010.05.17/outbox.cif.g08.bks.cpg/sg15_95_cif.got.tgz:188737.got - 2010.06.03 18:47:42.
