data_PCOD9297136
_publ_section_title
;
Structure prediction by ZEFSAII (Michael W. Deem and Ramdas Pophale) SiO2 
 PCOD9297136
Probable space group: C 2/C
;
_chemical_formula_sum "Si O2"
_cell_formula_units_Z 28
_cell_length_a 7.490450
_cell_length_b 17.400155
_cell_length_c 9.583539
_cell_angle_alpha 90.000000
_cell_angle_beta 114.535122
_cell_angle_gamma 90.000000
_cell_volume 1136.288019
_symmetry_space_group_name_H-M "C 2/C"
_symmetry_group_IT_number 15
_symmetry_cell_setting 'monoclinic'
loop_
_space_group_symop_operation_xyz
x,y,z
-x,y,1/2-z
-x,-y,-z
x,-y,1/2+z
1/2+x,1/2+y,z
1/2-x,1/2+y,1/2-z
1/2-x,1/2-y,-z
1/2+x,1/2-y,1/2+z
loop_
_atom_site_type_symbol
_atom_site_label
_atom_site_fract_x
_atom_site_fract_y
_atom_site_fract_z
Si Si1 0.414937 0.642457 0.925278
Si Si2 0.279436 0.179375 0.906208
Si Si3 0.500000 0.362139 0.750000
Si Si4 0.639211 0.071551 0.025813
O O1 0.464712 0.679978 0.092191
O O2 0.267413 0.575142 0.925078
O O3 0.300299 0.693639 0.775624
O O4 0.618661 0.619404 0.918996
O O5 0.250000 0.250000 0.000000
O O6 0.492881 0.143992 0.976259
O O7 0.304692 0.414260 0.696854
O O8 0.500000 0.000000 0.000000
#
# Coordination Sequence:
#
# PCOD9297136 Si02
#       4
#     8   8   4   8
#     4   9  23  48  69 111 147 194 257 309 378 464
#     4  11  24  45  75 107 149 204 252 317 392 463
#     4   8  22  44  70 112 142 196 252 314 386 450
#     4  10  23  48  74 108 148 200 257 322 387 464
#
# _framework density 24.641639000000001
#
# number of rings (size 3 to 8) (size 9 to 14) (size 15 to 20)
#    1.714    0.571    0.000    0.857    0.000   10.286 
#   15.429    0.000    0.000    0.000    0.000    0.000 
#    0.000    0.000    0.000    0.000    0.000    0.000 
#
# Total GULP energy -78067.465749 kJ/mol
# GULP energy per Si atom -5576.247553 kJ/mol
# Density = 2.458555 g / cm^3
# Si number density = 24.641639 Si / 1000 Ang^3
#
#
#
# Elastic Constant Matrix: (Units=GPa)
#
#
# Indices 1 2 3 4 5 6 
#
# 1 143.0566 28.2253 57.2834 0.0000 20.6729 0.0000
# 2 28.2253 70.3516 52.2828 0.0000 2.5882 0.0000
# 3 57.2834 52.2828 229.7299 0.0000 -4.7753 0.0000
# 4 0.0000 0.0000 0.0000 21.2717 0.0000 0.7069
# 5 20.6729 2.5882 -4.7753 0.0000 62.0051 0.0000
# 6 0.0000 0.0000 0.0000 0.7069 0.0000 29.5219
#
#
#
# Elastic Compliance Matrix: (Units=1/GPa)
#
#
# Indices 1 2 3 4 5 6 
#
# 1 0.008493 -0.002026 -0.001717 0.000000 -0.002879 0.000000
# 2 -0.002026 0.017655 -0.003520 0.000000 -0.000333 0.000000
# 3 -0.001717 -0.003520 0.005606 0.000000 0.001151 0.000000
# 4 0.000000 0.000000 0.000000 0.047048 0.000000 -0.001127
# 5 -0.002879 -0.000333 0.001151 0.000000 0.017190 0.000000
# 6 0.000000 0.000000 0.000000 -0.001127 0.000000 0.033900
#
#
# Mechanical properties :
#
#
# Convention : Reuss Voigt Hill
#
# Bulk Modulus (GPa) = 58.03878 79.85791 68.94834
# Shear Modulus (GPa) = 33.29758 42.91619 38.10689
#
# Velocity S-wave (km/s) = 3.67995 4.17779 3.93675
# Velocity P-wave (km/s) = 6.45448 7.46659 6.97891
#
# Compressibility (1/GPa) = 0.01722986
#
# Stress axis : x y z
#
# Youngs Moduli (GPa) = 117.73799 56.64076 178.38191
#
# Poissons Ratio (x) = 0.11475 0.30622
# Poissons Ratio (y) = 0.23853 0.62786
# Poissons Ratio (z) = 0.20211 0.19936
#
# Static dielectric constant tensor:
#      x y z
#    x 2.008180 0.000000 0.021080 
#    y 0.000000 2.025200 0.000000 
#    z 0.021080 0.000000 1.987030 
# 
# From -- ./inp_files/128234.got.cif
#   From: 2010.05.17/outbox.cif.g08.bks.cpg/sg15_65_cif.got.tgz:128234.got - 2010.06.03 18:47:42.
