data_PCOD9297763
_publ_section_title
;
Structure prediction by ZEFSAII (Michael W. Deem and Ramdas Pophale) SiO2 
 PCOD9297763
Probable space group: C 2/C
;
_chemical_formula_sum "Si O2"
_cell_formula_units_Z 60
_cell_length_a 28.665836
_cell_length_b 10.565252
_cell_length_c 9.950216
_cell_angle_alpha 90.000000
_cell_angle_beta 54.690399
_cell_angle_gamma 90.000000
_cell_volume 2459.171549
_symmetry_space_group_name_H-M "C 2/C"
_symmetry_group_IT_number 15
_symmetry_cell_setting 'monoclinic'
loop_
_space_group_symop_operation_xyz
x,y,z
-x,y,1/2-z
-x,-y,-z
x,-y,1/2+z
1/2+x,1/2+y,z
1/2-x,1/2+y,1/2-z
1/2-x,1/2-y,-z
1/2+x,1/2-y,1/2+z
loop_
_atom_site_type_symbol
_atom_site_label
_atom_site_fract_x
_atom_site_fract_y
_atom_site_fract_z
Si Si1 0.000000 0.330665 0.750000
Si Si2 0.811136 0.962595 0.350631
Si Si3 0.312075 0.713624 0.519122
Si Si4 0.631262 0.779179 0.305957
Si Si5 0.064066 0.472542 0.837618
Si Si6 0.903790 0.774619 0.071824
Si Si7 0.018461 0.145869 0.463893
Si Si8 0.715687 0.341469 0.842618
O O1 0.948823 0.426085 0.793449
O O2 0.992848 0.233267 0.885146
O O3 0.867559 0.886587 0.205787
O O4 0.778411 0.869807 0.509317
O O5 0.817356 0.073934 0.451138
O O6 0.786156 0.037317 0.260462
O O7 0.311681 0.791836 0.381460
O O8 0.371991 0.747732 0.487121
O O9 0.266591 0.752439 0.705475
O O10 0.585602 0.670433 0.338033
O O11 0.656399 0.732777 0.406288
O O12 0.598536 0.906237 0.327117
O O13 0.096789 0.353586 0.844364
O O14 0.000000 0.500000 0.000000
O O15 0.970735 0.802858 0.941249
O O16 0.000000 0.000000 0.500000
#
# Coordination Sequence:
#
# PCOD9297763 Si02
#       8
#     4   8   8   8   8   8   8   8
#     4  10  24  42  66  96 156 188 234 318 352 464
#     4  11  23  50  75 104 150 188 249 322 366 458
#     4  11  26  46  72 107 143 190 254 309 374 449
#     4  11  24  44  72 100 145 200 234 314 379 444
#     4  11  24  45  67 104 153 187 249 296 376 464
#     4  11  25  43  71 110 142 193 245 304 378 447
#     4  11  24  41  70 110 143 190 250 306 391 458
#     4  11  26  48  79 105 149 192 253 317 383 442
#
# _framework density 24.398461000000001
#
# number of rings (size 3 to 8) (size 9 to 14) (size 15 to 20)
#    0.000    1.067    4.000    3.200    5.600    4.267 
#    2.400    0.000    0.000    0.000    0.000    0.000 
#    0.000    0.000    0.000    0.000    0.000    0.000 
#
# Total GULP energy -167078.597370 kJ/mol
# GULP energy per Si atom -5569.286579 kJ/mol
# Density = 2.434293 g / cm^3
# Si number density = 24.398461 Si / 1000 Ang^3
#
#
#
# Elastic Constant Matrix: (Units=GPa)
#
#
# Indices 1 2 3 4 5 6 
#
# 1 66.2117 16.0363 -0.9544 0.0000 12.4949 0.0000
# 2 16.0363 145.4284 11.7065 0.0000 0.8960 0.0000
# 3 -0.9544 11.7065 94.0943 0.0000 5.2991 0.0000
# 4 0.0000 0.0000 0.0000 41.8255 0.0000 -7.2255
# 5 12.4949 0.8960 5.2991 0.0000 40.9921 0.0000
# 6 0.0000 0.0000 0.0000 -7.2255 0.0000 36.4678
#
#
#
# Elastic Compliance Matrix: (Units=1/GPa)
#
#
# Indices 1 2 3 4 5 6 
#
# 1 0.016519 -0.001845 0.000683 0.000000 -0.005083 0.000000
# 2 -0.001845 0.007152 -0.000938 0.000000 0.000527 0.000000
# 3 0.000683 -0.000938 0.010841 0.000000 -0.001589 0.000000
# 4 0.000000 0.000000 0.000000 0.024756 0.000000 0.004905
# 5 -0.005083 0.000527 -0.001589 0.000000 0.026138 0.000000
# 6 0.000000 0.000000 0.000000 0.004905 0.000000 0.028393
#
#
# Mechanical properties :
#
#
# Convention : Reuss Voigt Hill
#
# Bulk Modulus (GPa) = 32.99048 39.92345 36.45696
# Shear Modulus (GPa) = 39.03086 42.45348 40.74217
#
# Velocity S-wave (km/s) = 4.00400 4.17586 4.09083
# Velocity P-wave (km/s) = 5.90990 6.29675 6.10639
#
# Compressibility (1/GPa) = 0.03031178
#
# Stress axis : x y z
#
# Youngs Moduli (GPa) = 60.53592 139.82132 92.24421
#
# Poissons Ratio (x) = 0.25801 -0.06304
# Poissons Ratio (y) = 0.11170 0.08654
# Poissons Ratio (z) = -0.04137 0.13118
#
# Static dielectric constant tensor:
#      x y z
#    x 2.022830 0.000000 -0.003620 
#    y 0.000000 2.051970 0.000000 
#    z -0.003620 0.000000 2.083750 
# 
# From -- ./inp_files/126438.got.cif
#   From: 2010.05.17/outbox.cif.g08.bks.cpg/sg15_64_cif.got.tgz:126438.got - 2010.06.03 18:47:42.
