data_PCOD9297662
_publ_section_title
;
Structure prediction by ZEFSAII (Michael W. Deem and Ramdas Pophale) SiO2 
 PCOD9297662
Probable space group: C 2/C
;
_chemical_formula_sum "Si O2"
_cell_formula_units_Z 48
_cell_length_a 9.147468
_cell_length_b 15.939130
_cell_length_c 26.478096
_cell_angle_alpha 90.000000
_cell_angle_beta 41.095950
_cell_angle_gamma 90.000000
_cell_volume 2537.642373
_symmetry_space_group_name_H-M "C 2/C"
_symmetry_group_IT_number 15
_symmetry_cell_setting 'monoclinic'
loop_
_space_group_symop_operation_xyz
x,y,z
-x,y,1/2-z
-x,-y,-z
x,-y,1/2+z
1/2+x,1/2+y,z
1/2-x,1/2+y,1/2-z
1/2-x,1/2-y,-z
1/2+x,1/2-y,1/2+z
loop_
_atom_site_type_symbol
_atom_site_label
_atom_site_fract_x
_atom_site_fract_y
_atom_site_fract_z
Si Si1 0.240112 0.493222 0.962327
Si Si2 0.371094 0.628723 0.164791
Si Si3 0.749437 0.749602 0.061296
Si Si4 0.446499 0.093896 0.342769
Si Si5 0.219941 0.059114 0.938868
Si Si6 0.373055 0.163196 0.474156
O O1 0.445500 0.445862 0.883208
O O2 0.197506 0.443658 0.025192
O O3 0.287503 0.590557 0.962570
O O4 0.000000 0.500000 0.000000
O O5 0.507246 0.713746 0.138831
O O6 0.250332 0.631430 0.141299
O O7 0.177538 0.611673 0.255089
O O8 0.803141 0.843222 0.067148
O O9 0.924747 0.685091 0.040646
O O10 0.750000 0.750000 0.000000
O O11 0.445269 0.129953 0.399899
O O12 0.388378 0.994924 0.361290
O O13 0.000000 0.000000 0.000000
O O14 0.250000 0.250000 0.500000
#
# Coordination Sequence:
#
# PCOD9297662 Si02
#       6
#     8   8   8   8   8   8
#     4  11  20  38  61  88 119 164 205 254 311 380
#     4  11  22  42  63  86 131 168 211 260 335 372
#     4  12  21  38  67  92 124 163 212 266 315 380
#     4  10  24  42  62  87 128 172 205 268 321 382
#     4  11  20  39  66  90 120 163 215 251 316 382
#     4  11  23  37  63  95 120 157 218 260 305 379
#
# _framework density 18.915195000000001
#
# number of rings (size 3 to 8) (size 9 to 14) (size 15 to 20)
#    0.000    1.000    5.000    3.000    0.000    0.667 
#    3.000    0.000    0.000    0.000    0.000    0.000 
#    0.000    0.000    0.000    0.000    0.000    0.000 
#
# Total GULP energy -133820.829257 kJ/mol
# GULP energy per Si atom -5575.867886 kJ/mol
# Density = 1.887214 g / cm^3
# Si number density = 18.915195 Si / 1000 Ang^3
#
#
#
# Elastic Constant Matrix: (Units=GPa)
#
#
# Indices 1 2 3 4 5 6 
#
# 1 114.2566 27.4053 33.7278 0.0014 -10.1880 -0.0007
# 2 27.4053 153.6152 43.7253 0.0000 -12.5928 -0.0003
# 3 33.7278 43.7253 93.7383 0.0026 -16.9423 -0.0018
# 4 0.0014 0.0000 0.0026 30.0415 -0.0020 -4.8689
# 5 -10.1880 -12.5928 -16.9423 -0.0020 28.0863 0.0010
# 6 -0.0007 -0.0003 -0.0018 -4.8689 0.0010 33.5438
#
#
#
# Elastic Compliance Matrix: (Units=1/GPa)
#
#
# Indices 1 2 3 4 5 6 
#
# 1 0.009945 -0.000820 -0.002930 0.000000 0.001473 0.000000
# 2 -0.000820 0.007624 -0.003027 0.000000 0.001295 0.000000
# 3 -0.002930 -0.003027 0.014251 -0.000001 0.006176 0.000000
# 4 0.000000 0.000000 -0.000001 0.034089 0.000002 0.004948
# 5 0.001473 0.001295 0.006176 0.000002 0.040445 -0.000001
# 6 0.000000 0.000000 0.000000 0.004948 -0.000001 0.030530
#
#
# Mechanical properties :
#
#
# Convention : Reuss Voigt Hill
#
# Bulk Modulus (GPa) = 54.74648 63.48077 59.11362
# Shear Modulus (GPa) = 31.94365 35.45109 33.69737
#
# Velocity S-wave (km/s) = 4.11394 4.33391 4.22536
# Velocity P-wave (km/s) = 7.18136 7.66011 7.42460
#
# Compressibility (1/GPa) = 0.01826601
#
# Stress axis : x y z
#
# Youngs Moduli (GPa) = 100.55321 131.16773 70.17242
#
# Poissons Ratio (x) = 0.10750 0.20559
# Poissons Ratio (y) = 0.08241 0.21243
# Poissons Ratio (z) = 0.29461 0.39709
#
# Static dielectric constant tensor:
#      x y z
#    x 1.780340 0.000000 -0.013380 
#    y 0.000000 1.697920 0.000000 
#    z -0.013380 0.000000 1.633490 
# 
# From -- ./inp_files/288989.got.cif
#   From: 2010.05.17/outbox.cif.g08.bks.cpg/sg15_145_cif.got.tgz:288989.got - 2010.06.03 18:47:42.
