data_PCOD9297838
_publ_section_title
;
Structure prediction by ZEFSAII (Michael W. Deem and Ramdas Pophale) SiO2 
 PCOD9297838
Probable space group: C 2/C
;
_chemical_formula_sum "Si O2"
_cell_formula_units_Z 44
_cell_length_a 17.242578
_cell_length_b 9.573992
_cell_length_c 13.944207
_cell_angle_alpha 90.000000
_cell_angle_beta 85.826855
_cell_angle_gamma 90.000000
_cell_volume 2295.810852
_symmetry_space_group_name_H-M "C 2/C"
_symmetry_group_IT_number 15
_symmetry_cell_setting 'monoclinic'
loop_
_space_group_symop_operation_xyz
x,y,z
-x,y,1/2-z
-x,-y,-z
x,-y,1/2+z
1/2+x,1/2+y,z
1/2-x,1/2+y,1/2-z
1/2-x,1/2-y,-z
1/2+x,1/2-y,1/2+z
loop_
_atom_site_type_symbol
_atom_site_label
_atom_site_fract_x
_atom_site_fract_y
_atom_site_fract_z
Si Si1 0.500000 0.243315 0.250000
Si Si2 0.495671 0.660633 0.533833
Si Si3 0.323944 0.293538 0.055212
Si Si4 0.352443 0.924871 0.711462
Si Si5 0.141901 0.335341 0.441001
Si Si6 0.747895 0.576554 0.396559
O O1 0.502288 0.328806 0.349609
O O2 0.574378 0.142901 0.242209
O O3 0.500000 0.500000 0.500000
O O4 0.412055 0.724906 0.509761
O O5 0.566297 0.752785 0.485580
O O6 0.318717 0.200874 0.150670
O O7 0.313723 0.457757 0.072698
O O8 0.250000 0.250000 0.000000
O O9 0.290030 0.967849 0.795641
O O10 0.375468 0.048689 0.637407
O O11 0.187885 0.406842 0.525442
O O12 0.202731 0.222528 0.393327
#
# Coordination Sequence:
#
# PCOD9297838 Si02
#       6
#     4   8   8   8   8   8
#     4  10  24  42  68  96 134 182 216 296 334 402
#     4  11  23  46  68  97 140 178 229 275 346 406
#     4  11  23  41  65  98 130 175 214 281 333 391
#     4  11  23  41  68  97 135 172 230 275 343 399
#     4  11  23  41  72  96 131 188 219 280 339 407
#     4  11  22  42  64 100 136 171 231 273 335 404
#
# _framework density 19.165341999999999
#
# number of rings (size 3 to 8) (size 9 to 14) (size 15 to 20)
#    0.000    1.091    5.455    1.091    0.000    4.364 
#    6.545    0.909    0.000    0.000    0.000    0.000 
#    0.000    0.000    0.000    0.000    0.000    0.000 
#
# Total GULP energy -122805.097044 kJ/mol
# GULP energy per Si atom -5582.049866 kJ/mol
# Density = 1.912172 g / cm^3
# Si number density = 19.165342 Si / 1000 Ang^3
#
#
#
# Elastic Constant Matrix: (Units=GPa)
#
#
# Indices 1 2 3 4 5 6 
#
# 1 113.2796 13.1327 41.1827 0.0000 -0.5191 0.0000
# 2 13.1327 86.5345 36.1428 0.0000 1.3065 0.0000
# 3 41.1827 36.1428 74.2094 0.0000 -13.8053 0.0000
# 4 0.0000 0.0000 0.0000 30.5334 0.0000 -3.9895
# 5 -0.5191 1.3065 -13.8053 0.0000 29.8832 0.0000
# 6 0.0000 0.0000 0.0000 -3.9895 0.0000 33.7939
#
#
#
# Elastic Compliance Matrix: (Units=1/GPa)
#
#
# Indices 1 2 3 4 5 6 
#
# 1 0.011450 0.001552 -0.007752 0.000000 -0.003450 0.000000
# 2 0.001552 0.015232 -0.009189 0.000000 -0.004884 0.000000
# 3 -0.007752 -0.009189 0.024399 0.000000 0.011539 0.000000
# 4 0.000000 0.000000 0.000000 0.033264 0.000000 0.003927
# 5 -0.003450 -0.004884 0.011539 0.000000 0.038948 0.000000
# 6 0.000000 0.000000 0.000000 0.003927 0.000000 0.030055
#
#
# Mechanical properties :
#
#
# Convention : Reuss Voigt Hill
#
# Bulk Modulus (GPa) = 49.25015 50.54888 49.89952
# Shear Modulus (GPa) = 26.19259 31.07977 28.63618
#
# Velocity S-wave (km/s) = 3.70085 4.03136 3.86964
# Velocity P-wave (km/s) = 6.63438 6.93553 6.78663
#
# Compressibility (1/GPa) = 0.02030451
#
# Stress axis : x y z
#
# Youngs Moduli (GPa) = 87.33422 65.65116 40.98476
#
# Poissons Ratio (x) = -0.10191 0.31772
# Poissons Ratio (y) = -0.13556 0.37659
# Poissons Ratio (z) = 0.67703 0.60324
#
# Static dielectric constant tensor:
#      x y z
#    x 1.865080 0.000000 0.032980 
#    y 0.000000 1.665860 0.000000 
#    z 0.032980 0.000000 1.662370 
# 
# From -- ./inp_files/159307.got.cif
#   From: 2010.05.17/outbox.cif.g08.bks.cpg/sg15_80_cif.got.tgz:159307.got - 2010.06.03 18:47:42.
