data_PCOD9297667
_publ_section_title
;
Structure prediction by ZEFSAII (Michael W. Deem and Ramdas Pophale) SiO2 
 PCOD9297667
Probable space group: C 2/C
;
_chemical_formula_sum "Si O2"
_cell_formula_units_Z 56
_cell_length_a 7.713379
_cell_length_b 12.122120
_cell_length_c 29.841126
_cell_angle_alpha 90.000000
_cell_angle_beta 62.288470
_cell_angle_gamma 90.000000
_cell_volume 2470.181998
_symmetry_space_group_name_H-M "C 2/C"
_symmetry_group_IT_number 15
_symmetry_cell_setting 'monoclinic'
loop_
_space_group_symop_operation_xyz
x,y,z
-x,y,1/2-z
-x,-y,-z
x,-y,1/2+z
1/2+x,1/2+y,z
1/2-x,1/2+y,1/2-z
1/2-x,1/2-y,-z
1/2+x,1/2-y,1/2+z
loop_
_atom_site_type_symbol
_atom_site_label
_atom_site_fract_x
_atom_site_fract_y
_atom_site_fract_z
Si Si1 0.034828 0.383768 0.293718
Si Si2 0.737584 0.563560 0.354779
Si Si3 0.738640 0.644363 0.558290
Si Si4 0.417223 0.271634 0.035213
Si Si5 0.374868 0.406597 0.956386
Si Si6 0.099246 0.996253 0.780671
Si Si7 0.821210 0.801790 0.333698
O O1 0.179073 0.481807 0.260005
O O2 0.154612 0.316555 0.316075
O O3 0.000000 0.324830 0.250000
O O4 0.852509 0.447999 0.337812
O O5 0.599234 0.579107 0.414073
O O6 0.594386 0.561520 0.328818
O O7 0.869144 0.672878 0.333691
O O8 0.530264 0.695141 0.566616
O O9 0.734095 0.519006 0.542395
O O10 0.754877 0.655382 0.609336
O O11 0.916579 0.707006 0.513335
O O12 0.229872 0.192315 0.058487
O O13 0.363934 0.375018 0.009950
O O14 0.000000 0.941051 0.750000
O O15 0.996541 0.116058 0.799582
#
# Coordination Sequence:
#
# PCOD9297667 Si02
#       7
#     8   8   8   8   8   8   8
#     4   9  22  41  62  89 123 161 206 260 315 377
#     4  11  22  40  63  92 123 163 209 256 313 381
#     4  11  22  42  63  91 125 169 207 263 317 370
#     4  10  24  42  62  94 127 165 219 253 319 384
#     4  11  22  42  63  91 126 167 210 262 312 377
#     4   9  20  41  60  87 121 155 206 257 308 376
#     4  11  22  40  65  91 125 163 210 260 311 382
#
# _framework density 22.670394000000002
#
# number of rings (size 3 to 8) (size 9 to 14) (size 15 to 20)
#    0.000    1.714    2.857    0.857    0.000    8.000 
#    2.571    0.000    0.000    0.000    0.000    0.000 
#    0.000    0.000    0.000    0.000    0.000    0.000 
#
# Total GULP energy -156410.686284 kJ/mol
# GULP energy per Si atom -5586.095939 kJ/mol
# Density = 2.261880 g / cm^3
# Si number density = 22.670394 Si / 1000 Ang^3
#
#
#
# Elastic Constant Matrix: (Units=GPa)
#
#
# Indices 1 2 3 4 5 6 
#
# 1 75.9549 7.6721 18.8078 0.0000 9.9745 0.0000
# 2 7.6721 83.8154 13.0558 0.0000 -0.2979 0.0000
# 3 18.8078 13.0558 65.0456 0.0000 4.1025 0.0000
# 4 0.0000 0.0000 0.0000 8.3677 0.0000 -2.2353
# 5 9.9745 -0.2979 4.1025 0.0000 40.3607 0.0000
# 6 0.0000 0.0000 0.0000 -2.2353 0.0000 23.4954
#
#
#
# Elastic Compliance Matrix: (Units=1/GPa)
#
#
# Indices 1 2 3 4 5 6 
#
# 1 0.014624 -0.000746 -0.003875 0.000000 -0.003226 0.000000
# 2 -0.000746 0.012359 -0.002297 0.000000 0.000509 0.000000
# 3 -0.003875 -0.002297 0.017005 0.000000 -0.000788 0.000000
# 4 0.000000 0.000000 0.000000 0.122623 0.000000 0.011666
# 5 -0.003226 0.000509 -0.000788 0.000000 0.025658 0.000000
# 6 0.000000 0.000000 0.000000 0.011666 0.000000 0.043671
#
#
# Mechanical properties :
#
#
# Convention : Reuss Voigt Hill
#
# Bulk Modulus (GPa) = 33.16649 33.76526 33.46588
# Shear Modulus (GPa) = 19.24347 26.79677 23.02012
#
# Velocity S-wave (km/s) = 2.91664 3.44178 3.19003
# Velocity P-wave (km/s) = 5.09941 5.54263 5.32564
#
# Compressibility (1/GPa) = 0.03015091
#
# Stress axis : x y z
#
# Youngs Moduli (GPa) = 68.37927 80.91332 58.80596
#
# Poissons Ratio (x) = 0.06040 0.22789
# Poissons Ratio (y) = 0.05104 0.13507
# Poissons Ratio (z) = 0.26499 0.18585
#
# Static dielectric constant tensor:
#      x y z
#    x 1.885020 0.000000 -0.005480 
#    y 0.000000 1.841950 0.000000 
#    z -0.005480 0.000000 1.978760 
# 
# From -- ./inp_files/307427.got.cif
#   From: 2010.05.17/outbox.cif.g08.bks.cpg/sg15_154_cif.got.tgz:307427.got - 2010.06.03 18:47:42.
