data_PCOD9297408
_publ_section_title
;
Structure prediction by ZEFSAII (Michael W. Deem and Ramdas Pophale) SiO2 
 PCOD9297408
Probable space group: C 2/C
;
_chemical_formula_sum "Si O2"
_cell_formula_units_Z 48
_cell_length_a 23.346641
_cell_length_b 9.308802
_cell_length_c 14.290792
_cell_angle_alpha 90.000000
_cell_angle_beta 43.654155
_cell_angle_gamma 90.000000
_cell_volume 2143.950254
_symmetry_space_group_name_H-M "C 2/C"
_symmetry_group_IT_number 15
_symmetry_cell_setting 'monoclinic'
loop_
_space_group_symop_operation_xyz
x,y,z
-x,y,1/2-z
-x,-y,-z
x,-y,1/2+z
1/2+x,1/2+y,z
1/2-x,1/2+y,1/2-z
1/2-x,1/2-y,-z
1/2+x,1/2-y,1/2+z
loop_
_atom_site_type_symbol
_atom_site_label
_atom_site_fract_x
_atom_site_fract_y
_atom_site_fract_z
Si Si1 0.575741 0.113190 0.415771
Si Si2 0.836949 0.298299 0.354563
Si Si3 0.039275 0.850249 0.919471
Si Si4 0.406829 0.900902 0.822411
Si Si5 0.268937 0.045870 0.753282
Si Si6 0.667201 0.719107 0.428549
O O1 0.539014 0.250380 0.509633
O O2 0.598144 0.142098 0.280925
O O3 0.500000 0.000000 0.500000
O O4 0.655232 0.050563 0.374396
O O5 0.750000 0.250000 0.500000
O O6 0.898112 0.171337 0.243425
O O7 0.878037 0.431517 0.361885
O O8 0.808816 0.375540 0.293383
O O9 0.088146 0.780961 0.951211
O O10 0.000000 0.000000 0.000000
O O11 0.500000 0.896261 0.750000
O O12 0.357920 0.784334 0.942585
O O13 0.258304 0.174176 0.693070
O O14 0.198698 0.942387 0.874887
#
# Coordination Sequence:
#
# PCOD9297408 Si02
#       6
#     8   8   8   8   8   8
#     4  11  19  44  65  86 123 173 213 251 327 394
#     4  10  24  44  62  93 133 170 212 265 337 392
#     4  11  24  42  66  95 133 168 216 271 327 389
#     4  11  21  39  69  89 125 168 219 264 316 390
#     4  10  24  40  64  91 129 166 213 260 332 391
#     4  11  24  41  63 100 126 169 219 270 323 394
#
# _framework density 22.388579
#
# number of rings (size 3 to 8) (size 9 to 14) (size 15 to 20)
#    0.000    1.333    6.667    0.000    7.000    4.000 
#    3.000    0.000    0.000    0.000    0.000    0.000 
#    0.000    0.000    0.000    0.000    0.000    0.000 
#
# Total GULP energy -133773.604573 kJ/mol
# GULP energy per Si atom -5573.900191 kJ/mol
# Density = 2.233762 g / cm^3
# Si number density = 22.388579 Si / 1000 Ang^3
#
#
#
# Elastic Constant Matrix: (Units=GPa)
#
#
# Indices 1 2 3 4 5 6 
#
# 1 25.7146 -0.8000 11.8317 0.0000 4.5698 0.0000
# 2 -0.8000 106.1852 57.6780 -0.0002 -13.3810 0.0000
# 3 11.8317 57.6780 131.1122 -0.0001 4.0761 0.0000
# 4 0.0000 -0.0002 -0.0001 46.4480 0.0000 -15.8983
# 5 4.5698 -13.3810 4.0761 0.0000 28.7573 0.0000
# 6 0.0000 0.0000 0.0000 -15.8983 0.0000 31.4193
#
#
#
# Elastic Compliance Matrix: (Units=1/GPa)
#
#
# Indices 1 2 3 4 5 6 
#
# 1 0.041957 0.002178 -0.004589 0.000000 -0.005003 0.000000
# 2 0.002178 0.013855 -0.006510 0.000000 0.007024 0.000000
# 3 -0.004589 -0.006510 0.011025 0.000000 -0.003863 0.000000
# 4 0.000000 0.000000 0.000000 0.026039 0.000000 0.013176
# 5 -0.005003 0.007024 -0.003863 0.000000 0.039385 0.000000
# 6 0.000000 0.000000 0.000000 0.013176 0.000000 0.038495
#
#
# Mechanical properties :
#
#
# Convention : Reuss Voigt Hill
#
# Bulk Modulus (GPa) = 20.41000 44.49238 32.45119
# Shear Modulus (GPa) = 24.39874 34.27840 29.33857
#
# Velocity S-wave (km/s) = 3.30477 3.91713 3.62391
# Velocity P-wave (km/s) = 4.86807 6.35409 5.66006
#
# Compressibility (1/GPa) = 0.04899560
#
# Stress axis : x y z
#
# Youngs Moduli (GPa) = 23.83408 72.17565 90.70240
#
# Poissons Ratio (x) = -0.15721 0.41622
# Poissons Ratio (y) = -0.05192 0.59047
# Poissons Ratio (z) = 0.10937 0.46986
#
# Static dielectric constant tensor:
#      x y z
#    x 1.966830 0.000000 -0.305000 
#    y 0.000000 2.426800 0.000000 
#    z -0.305000 0.000000 2.451960 
# 
# From -- ./inp_files/176856.got.cif
#   From: 2010.05.17/outbox.cif.g08.bks.cpg/sg15_89_cif.got.tgz:176856.got - 2010.06.03 18:47:42.
