data_PCOD9297818
_publ_section_title
;
Structure prediction by ZEFSAII (Michael W. Deem and Ramdas Pophale) SiO2 
 PCOD9297818
Probable space group: C 2/C
;
_chemical_formula_sum "Si O2"
_cell_formula_units_Z 32
_cell_length_a 9.718379
_cell_length_b 16.136753
_cell_length_c 7.678175
_cell_angle_alpha 90.000000
_cell_angle_beta 97.999627
_cell_angle_gamma 90.000000
_cell_volume 1192.397790
_symmetry_space_group_name_H-M "C 2/C"
_symmetry_group_IT_number 15
_symmetry_cell_setting 'monoclinic'
loop_
_space_group_symop_operation_xyz
x,y,z
-x,y,1/2-z
-x,-y,-z
x,-y,1/2+z
1/2+x,1/2+y,z
1/2-x,1/2+y,1/2-z
1/2-x,1/2-y,-z
1/2+x,1/2-y,1/2+z
loop_
_atom_site_type_symbol
_atom_site_label
_atom_site_fract_x
_atom_site_fract_y
_atom_site_fract_z
Si Si1 0.773950 0.657993 0.071430
Si Si2 0.887780 0.877396 0.613441
Si Si3 0.500000 0.060400 0.250000
Si Si4 0.000000 0.720802 0.750000
Si Si5 0.228532 0.579879 0.751544
O O1 0.727712 0.648263 0.263067
O O2 0.672976 0.419775 0.065060
O O3 0.931434 0.621389 0.097137
O O4 0.750000 0.750000 0.000000
O O5 0.965029 0.788874 0.592205
O O6 0.000000 0.926723 0.750000
O O7 0.801702 0.098022 0.580631
O O8 0.374599 0.998518 0.278832
O O9 0.869200 0.660592 0.737411
#
# Coordination Sequence:
#
# PCOD9297818 Si02
#       5
#     8   8   4   4   8
#     4  12  26  43  75 111 142 197 253 298 363 453
#     4  10  24  42  68 107 152 195 244 299 372 434
#     4  11  30  48  78 113 148 192 252 315 376 422
#     4   9  20  40  68 107 146 194 242 303 360 432
#     4  11  24  46  73 107 153 195 244 311 365 434
#
# _framework density 26.836680999999999
#
# number of rings (size 3 to 8) (size 9 to 14) (size 15 to 20)
#    0.750    0.500    2.500    1.500   10.500    3.000 
#    0.000    1.250    2.750    0.000    0.000    0.000 
#    0.000    0.000    0.000    0.000    0.000    0.000 
#
# Total GULP energy -89405.926805 kJ/mol
# GULP energy per Si atom -5587.870425 kJ/mol
# Density = 2.677560 g / cm^3
# Si number density = 26.836681 Si / 1000 Ang^3
#
#
#
# Elastic Constant Matrix: (Units=GPa)
#
#
# Indices 1 2 3 4 5 6 
#
# 1 69.6847 53.7679 46.3913 0.0000 21.8815 0.0000
# 2 53.7679 192.0663 60.1424 0.0000 20.6588 0.0000
# 3 46.3913 60.1424 179.2257 0.0000 35.3386 0.0000
# 4 0.0000 0.0000 0.0000 36.2978 0.0000 16.5901
# 5 21.8815 20.6588 35.3386 0.0000 42.5280 0.0000
# 6 0.0000 0.0000 0.0000 16.5901 0.0000 65.3397
#
#
#
# Elastic Compliance Matrix: (Units=1/GPa)
#
#
# Indices 1 2 3 4 5 6 
#
# 1 0.021797 -0.004502 -0.002812 0.000000 -0.006692 0.000000
# 2 -0.004502 0.006822 -0.001109 0.000000 -0.000076 0.000000
# 3 -0.002812 -0.001109 0.007520 0.000000 -0.004263 0.000000
# 4 0.000000 0.000000 0.000000 0.031167 0.000000 -0.007913
# 5 -0.006692 -0.000076 -0.004263 0.000000 0.030537 0.000000
# 6 0.000000 0.000000 0.000000 -0.007913 0.000000 0.017314
#
#
# Mechanical properties :
#
#
# Convention : Reuss Voigt Hill
#
# Bulk Modulus (GPa) = 51.82947 84.61997 68.22472
# Shear Modulus (GPa) = 36.11846 47.54479 41.83162
#
# Velocity S-wave (km/s) = 3.67258 4.21365 3.95238
# Velocity P-wave (km/s) = 6.11053 7.43458 6.80484
#
# Compressibility (1/GPa) = 0.01929404
#
# Stress axis : x y z
#
# Youngs Moduli (GPa) = 45.87780 146.57942 132.97527
#
# Poissons Ratio (x) = 0.65985 0.37392
# Poissons Ratio (y) = 0.20653 0.14748
# Poissons Ratio (z) = 0.12901 0.16257
#
# Static dielectric constant tensor:
#      x y z
#    x 2.315700 0.000000 -0.081960 
#    y 0.000000 2.096020 0.000000 
#    z -0.081960 0.000000 2.171230 
# 
# From -- ./inp_files/141047.got.cif
#   From: 2010.05.17/outbox.cif.g08.bks.cpg/sg15_71_cif.got.tgz:141047.got - 2010.06.03 18:47:42.
