data_PCOD9297009
_publ_section_title
;
Structure prediction by ZEFSAII (Michael W. Deem and Ramdas Pophale) SiO2 
 PCOD9297009
Probable space group: C 2/C
;
_chemical_formula_sum "Si O2"
_cell_formula_units_Z 36
_cell_length_a 9.466628
_cell_length_b 11.238914
_cell_length_c 18.605135
_cell_angle_alpha 90.000000
_cell_angle_beta 134.288971
_cell_angle_gamma 90.000000
_cell_volume 1416.970007
_symmetry_space_group_name_H-M "C 2/C"
_symmetry_group_IT_number 15
_symmetry_cell_setting 'monoclinic'
loop_
_space_group_symop_operation_xyz
x,y,z
-x,y,1/2-z
-x,-y,-z
x,-y,1/2+z
1/2+x,1/2+y,z
1/2-x,1/2+y,1/2-z
1/2-x,1/2-y,-z
1/2+x,1/2-y,1/2+z
loop_
_atom_site_type_symbol
_atom_site_label
_atom_site_fract_x
_atom_site_fract_y
_atom_site_fract_z
Si Si1 0.841751 0.419874 0.512633
Si Si2 0.121986 0.136933 0.396147
Si Si3 0.000000 0.664312 0.750000
Si Si4 0.142592 0.812317 0.571976
Si Si5 0.701692 0.050185 0.244539
O O1 0.804358 0.549208 0.467140
O O2 0.678827 0.182408 0.553560
O O3 0.672031 0.397181 0.513365
O O4 0.045200 0.411796 0.629117
O O5 0.124228 0.248264 0.344350
O O6 0.057252 0.178963 0.453086
O O7 0.070043 0.058266 0.196919
O O8 0.135627 0.578164 0.750303
O O9 0.293296 0.859334 0.686050
#
# Coordination Sequence:
#
# PCOD9297009 Si02
#       5
#     8   8   4   8   8
#     4  11  20  45  78  99 140 189 229 289 359 406
#     4  10  26  43  70 106 136 190 234 284 343 426
#     4  12  24  48  68  96 154 182 230 294 342 404
#     4   9  22  44  72 104 138 180 240 286 347 422
#     4  10  23  47  69 100 145 183 225 295 352 404
#
# _framework density 25.406324999999999
#
# number of rings (size 3 to 8) (size 9 to 14) (size 15 to 20)
#    1.333    0.444    2.222    0.667    0.000    8.000 
#    8.000    2.222    0.000    0.000    0.000    0.000 
#    0.000    0.000    0.000    0.000    0.000    0.000 
#
# Total GULP energy -100763.079437 kJ/mol
# GULP energy per Si atom -5597.948858 kJ/mol
# Density = 2.534850 g / cm^3
# Si number density = 25.406325 Si / 1000 Ang^3
#
#
#
# Elastic Constant Matrix: (Units=GPa)
#
#
# Indices 1 2 3 4 5 6 
#
# 1 98.8639 42.1074 31.8437 0.0000 -37.2698 -0.0001
# 2 42.1074 157.3657 104.8198 0.0000 -33.5637 -0.0001
# 3 31.8437 104.8198 160.4477 0.0000 -16.4630 -0.0002
# 4 0.0000 0.0000 0.0000 -21.1272 0.0000 373.6796
# 5 -37.2698 -33.5637 -16.4630 0.0000 31.3250 -0.0001
# 6 -0.0001 -0.0001 -0.0002 373.6796 -0.0001-2223.6678
#
#
#
# Elastic Compliance Matrix: (Units=1/GPa)
#
#
# Indices 1 2 3 4 5 6 
#
# 1 0.018797 0.001282 -0.002254 0.000000 0.022553 0.000000
# 2 0.001282 0.014106 -0.008205 0.000000 0.012327 0.000000
# 3 -0.002254 -0.008205 0.011482 0.000000 -0.005439 0.000000
# 4 0.000000 0.000000 0.000000 0.023999 0.000000 0.004033
# 5 0.022553 0.012327 -0.005439 0.000000 0.069107 0.000000
# 6 0.000000 0.000000 0.000000 0.004033 0.000000 0.000228
#
#
# Mechanical properties :
#
#
# Convention : Reuss Voigt Hill
#
# Bulk Modulus (GPa) = 38.41528 86.02435 62.21982
# Shear Modulus (GPa) = 30.34893 -426.83356 -198.24231
#
# Velocity S-wave (km/s) = 3.45996 -12.97565 -8.84297
# Velocity P-wave (km/s) = 5.57808 13.80425 8.92867
#
# Compressibility (1/GPa) = 0.02603131
#
# Stress axis : x y z
#
# Youngs Moduli (GPa) = 53.19962 70.89134 87.09152
#
# Poissons Ratio (x) = -0.09088 0.19631
# Poissons Ratio (y) = -0.06820 0.71459
# Poissons Ratio (z) = 0.11991 0.58167
#
# Static dielectric constant tensor:
#      x y z
#    x 2.156420 0.000000 0.047850 
#    y 0.000000 1.957170 0.000000 
#    z 0.047850 0.000000 1.998730 
# 
# From -- ./inp_files/268595.got.cif
#   From: 2010.05.17/outbox.cif.g08.bks.cpg/sg15_135_cif.got.tgz:268595.got - 2010.06.03 18:47:42.
