data_PCOD9297374
_publ_section_title
;
Structure prediction by ZEFSAII (Michael W. Deem and Ramdas Pophale) SiO2 
 PCOD9297374
Probable space group: C 2/C
;
_chemical_formula_sum "Si O2"
_cell_formula_units_Z 56
_cell_length_a 10.582746
_cell_length_b 9.064956
_cell_length_c 23.184126
_cell_angle_alpha 90.000000
_cell_angle_beta 109.627346
_cell_angle_gamma 90.000000
_cell_volume 2094.876026
_symmetry_space_group_name_H-M "C 2/C"
_symmetry_group_IT_number 15
_symmetry_cell_setting 'monoclinic'
loop_
_space_group_symop_operation_xyz
x,y,z
-x,y,1/2-z
-x,-y,-z
x,-y,1/2+z
1/2+x,1/2+y,z
1/2-x,1/2+y,1/2-z
1/2-x,1/2-y,-z
1/2+x,1/2-y,1/2+z
loop_
_atom_site_type_symbol
_atom_site_label
_atom_site_fract_x
_atom_site_fract_y
_atom_site_fract_z
Si Si1 0.193873 0.049913 0.455757
Si Si2 0.258743 0.541364 0.254237
Si Si3 0.220191 0.799315 0.319037
Si Si4 0.015287 0.139259 0.650207
Si Si5 0.250000 0.250000 0.000000
Si Si6 0.500000 0.134241 0.750000
Si Si7 0.007064 0.301164 0.385476
Si Si8 0.536699 0.119929 0.069377
O O1 0.110870 0.202281 0.437633
O O2 0.341781 0.079388 0.453695
O O3 0.106020 0.944899 0.400100
O O4 0.207728 0.929426 0.508747
O O5 0.240861 0.712823 0.262153
O O6 0.271790 0.472934 0.193200
O O7 0.389871 0.478543 0.305934
O O8 0.128935 0.467419 0.261489
O O9 0.075938 0.763290 0.321103
O O10 0.350956 0.756494 0.375219
O O11 0.089253 0.251843 0.620112
O O12 0.406727 0.196646 0.021330
O O13 0.478536 0.211562 0.682996
O O14 0.009264 0.473234 0.403220
#
# Coordination Sequence:
#
# PCOD9297374 Si02
#       8
#     8   8   8   8   4   4   8   8
#     4  11  23  47  73 102 136 178 232 299 353 430
#     4  11  24  39  60  92 136 184 231 277 328 396
#     4  11  24  40  61  97 134 183 234 277 336 407
#     4  11  23  41  67  93 134 178 229 284 344 413
#     4  10  26  48  74 106 134 176 240 294 376 426
#     4  10  24  40  62 102 146 186 230 276 328 416
#     4  11  23  43  69 102 145 183 233 280 346 414
#     4  11  24  45  73 100 136 182 226 299 359 424
#
# _framework density 26.731892999999999
#
# number of rings (size 3 to 8) (size 9 to 14) (size 15 to 20)
#    0.000    1.143    2.857    2.571    6.000    2.857 
#    0.000    1.429    0.000    0.000    0.000    0.000 
#    0.000    0.000    0.000    0.000    0.000    0.000 
#
# Total GULP energy -155945.630644 kJ/mol
# GULP energy per Si atom -5569.486809 kJ/mol
# Density = 2.667105 g / cm^3
# Si number density = 26.731893 Si / 1000 Ang^3
#
#
#
# Elastic Constant Matrix: (Units=GPa)
#
#
# Indices 1 2 3 4 5 6 
#
# 1 111.2808 38.1900 24.7194 0.0000 26.7687 0.0000
# 2 38.1900 155.6431 22.8757 0.0000 -9.0232 0.0000
# 3 24.7194 22.8757 75.9386 0.0000 3.9526 0.0000
# 4 0.0000 0.0000 0.0000 36.0637 0.0000 3.2709
# 5 26.7687 -9.0232 3.9526 0.0000 34.2081 0.0000
# 6 0.0000 0.0000 0.0000 3.2709 0.0000 38.5259
#
#
#
# Elastic Compliance Matrix: (Units=1/GPa)
#
#
# Indices 1 2 3 4 5 6 
#
# 1 0.013510 -0.003561 -0.002743 0.000000 -0.011195 0.000000
# 2 -0.003561 0.007803 -0.001452 0.000000 0.005012 0.000000
# 3 -0.002743 -0.001452 0.014494 0.000000 0.000088 0.000000
# 4 0.000000 0.000000 0.000000 0.027944 0.000000 -0.002373
# 5 -0.011195 0.005012 0.000088 0.000000 0.039305 0.000000
# 6 0.000000 0.000000 0.000000 -0.002373 0.000000 0.026158
#
#
# Mechanical properties :
#
#
# Convention : Reuss Voigt Hill
#
# Bulk Modulus (GPa) = 49.27101 57.15919 53.21510
# Shear Modulus (GPa) = 33.00530 38.89803 35.95166
#
# Velocity S-wave (km/s) = 3.51761 3.81874 3.67126
# Velocity P-wave (km/s) = 5.91352 6.39316 6.15801
#
# Compressibility (1/GPa) = 0.02029591
#
# Stress axis : x y z
#
# Youngs Moduli (GPa) = 74.01683 128.16016 68.99330
#
# Poissons Ratio (x) = 0.45637 0.18922
# Poissons Ratio (y) = 0.26357 0.10019
# Poissons Ratio (z) = 0.20299 0.18612
#
# Static dielectric constant tensor:
#      x y z
#    x 2.166010 0.000000 -0.028210 
#    y 0.000000 2.170650 0.000000 
#    z -0.028210 0.000000 2.271150 
# 
# From -- ./inp_files/310405.got.cif
#   From: 2010.05.17/outbox.cif.g08.bks.cpg/sg15_156_cif.got.tgz:310405.got - 2010.06.03 18:47:42.
