data_PCOD9297137
_publ_section_title
;
Structure prediction by ZEFSAII (Michael W. Deem and Ramdas Pophale) SiO2 
 PCOD9297137
Probable space group: C 2/C
;
_chemical_formula_sum "Si O2"
_cell_formula_units_Z 36
_cell_length_a 5.507668
_cell_length_b 13.390302
_cell_length_c 18.751064
_cell_angle_alpha 90.000000
_cell_angle_beta 85.311840
_cell_angle_gamma 90.000000
_cell_volume 1378.251854
_symmetry_space_group_name_H-M "C 2/C"
_symmetry_group_IT_number 15
_symmetry_cell_setting 'monoclinic'
loop_
_space_group_symop_operation_xyz
x,y,z
-x,y,1/2-z
-x,-y,-z
x,-y,1/2+z
1/2+x,1/2+y,z
1/2-x,1/2+y,1/2-z
1/2-x,1/2-y,-z
1/2+x,1/2-y,1/2+z
loop_
_atom_site_type_symbol
_atom_site_label
_atom_site_fract_x
_atom_site_fract_y
_atom_site_fract_z
Si Si1 0.088652 0.106340 0.329623
Si Si2 0.994492 0.383603 0.485275
Si Si3 0.142560 0.899106 0.148397
Si Si4 0.000000 0.501239 0.250000
Si Si5 0.810137 0.246728 0.604707
O O1 0.000000 0.113479 0.250000
O O2 0.940831 0.196002 0.369838
O O3 0.369247 0.075208 0.309619
O O4 0.985243 0.004275 0.365209
O O5 0.986128 0.322752 0.558759
O O6 0.760971 0.341516 0.448542
O O7 0.000000 0.500000 0.500000
O O8 0.211265 0.366416 0.424880
O O9 0.319083 0.929865 0.209479
O O10 0.949042 0.810486 0.164607
#
# Coordination Sequence:
#
# PCOD9297137 Si02
#       5
#     8   8   8   4   8
#     4  10  23  48  74 108 154 206 258 323 379 471
#     4  11  24  47  77 114 153 201 255 331 390 468
#     4  11  23  48  78 111 155 205 255 324 396 467
#     4  10  24  48  82 108 166 210 254 336 398 452
#     4  11  25  47  78 115 149 205 266 314 398 469
#
# _framework density 26.120042999999999
#
# number of rings (size 3 to 8) (size 9 to 14) (size 15 to 20)
#    0.000    1.333    2.222    2.000    0.000    4.444 
#   28.000    0.000    0.000    2.667    0.000    0.000 
#    0.000    0.000    0.000    0.000    0.000    0.000 
#
# Total GULP energy -100663.932530 kJ/mol
# GULP energy per Si atom -5592.440696 kJ/mol
# Density = 2.606059 g / cm^3
# Si number density = 26.120043 Si / 1000 Ang^3
#
#
#
# Elastic Constant Matrix: (Units=GPa)
#
#
# Indices 1 2 3 4 5 6 
#
# 1 103.0032 90.1823 56.0935 0.0000 -15.8409 0.0000
# 2 90.1823 230.7633 76.4988 0.0000 1.2044 0.0000
# 3 56.0935 76.4988 121.5453 0.0000 -10.9845 0.0000
# 4 0.0000 0.0000 0.0000 16.7386 0.0000 11.5395
# 5 -15.8409 1.2044 -10.9845 0.0000 39.9299 0.0000
# 6 0.0000 0.0000 0.0000 11.5395 0.0000 37.7044
#
#
#
# Elastic Compliance Matrix: (Units=1/GPa)
#
#
# Indices 1 2 3 4 5 6 
#
# 1 0.017825 -0.005628 -0.004133 0.000000 0.006105 0.000000
# 2 -0.005628 0.007304 -0.002278 0.000000 -0.003080 0.000000
# 3 -0.004133 -0.002278 0.011718 0.000000 0.001653 0.000000
# 4 0.000000 0.000000 0.000000 0.075718 0.000000 -0.023174
# 5 0.006105 -0.003080 0.001653 0.000000 0.028013 0.000000
# 6 0.000000 0.000000 0.000000 -0.023174 0.000000 0.033614
#
#
# Mechanical properties :
#
#
# Convention : Reuss Voigt Hill
#
# Bulk Modulus (GPa) = 78.30960 100.09567 89.20264
# Shear Modulus (GPa) = 24.68811 34.37706 29.53258
#
# Velocity S-wave (km/s) = 3.07771 3.63177 3.36616
# Velocity P-wave (km/s) = 6.53265 7.48271 7.02376
#
# Compressibility (1/GPa) = 0.01276983
#
# Stress axis : x y z
#
# Youngs Moduli (GPa) = 56.10020 136.90843 85.34083
#
# Poissons Ratio (x) = 0.77052 0.35267
# Poissons Ratio (y) = 0.31573 0.19442
# Poissons Ratio (z) = 0.23184 0.31189
#
# Static dielectric constant tensor:
#      x y z
#    x 2.237640 0.000000 -0.008200 
#    y 0.000000 2.011110 0.000000 
#    z -0.008200 0.000000 2.053830 
# 
# From -- ./inp_files/226460.got.cif
#   From: 2010.05.17/outbox.cif.g08.bks.cpg/sg15_114_cif.got.tgz:226460.got - 2010.06.03 18:47:42.
