data_PCOD9297400
_publ_section_title
;
Structure prediction by ZEFSAII (Michael W. Deem and Ramdas Pophale) SiO2 
 PCOD9297400
Probable space group: C 2/C
;
_chemical_formula_sum "Si O2"
_cell_formula_units_Z 52
_cell_length_a 21.881027
_cell_length_b 14.686924
_cell_length_c 10.334888
_cell_angle_alpha 90.000000
_cell_angle_beta 134.440101
_cell_angle_gamma 90.000000
_cell_volume 2371.330473
_symmetry_space_group_name_H-M "C 2/C"
_symmetry_group_IT_number 15
_symmetry_cell_setting 'monoclinic'
loop_
_space_group_symop_operation_xyz
x,y,z
-x,y,1/2-z
-x,-y,-z
x,-y,1/2+z
1/2+x,1/2+y,z
1/2-x,1/2+y,1/2-z
1/2-x,1/2-y,-z
1/2+x,1/2-y,1/2+z
loop_
_atom_site_type_symbol
_atom_site_label
_atom_site_fract_x
_atom_site_fract_y
_atom_site_fract_z
Si Si1 0.500000 0.059892 0.250000
Si Si2 0.362579 0.589071 0.883724
Si Si3 0.096201 0.302994 0.536347
Si Si4 0.268220 0.311778 0.901665
Si Si5 0.072654 0.389709 0.219579
Si Si6 0.589744 0.541518 0.823178
Si Si7 0.672457 0.865277 0.126928
O O1 0.585410 0.112783 0.419849
O O2 0.534451 0.988557 0.193707
O O3 0.389408 0.695345 0.925494
O O4 0.406615 0.537980 0.827522
O O5 0.259573 0.584806 0.712331
O O6 0.388819 0.547880 0.060986
O O7 0.177211 0.350112 0.722680
O O8 0.094141 0.338274 0.385525
O O9 0.005217 0.332307 0.458568
O O10 0.305349 0.241317 0.851750
O O11 0.250000 0.250000 0.000000
O O12 0.336746 0.386986 0.033569
O O13 0.151930 0.392407 0.242672
O O14 0.500000 0.574211 0.750000
#
# Coordination Sequence:
#
# PCOD9297400 Si02
#       7
#     4   8   8   8   8   8   8
#     4  10  24  40  64 106 138 162 218 268 342 412
#     4  11  27  46  68  99 137 175 230 282 331 403
#     4   9  22  45  66  96 137 168 223 275 335 395
#     4  11  24  43  67  97 133 174 223 273 333 399
#     4  10  24  41  73  98 132 177 213 280 345 399
#     4  12  28  45  71 100 133 186 228 279 340 395
#     4  11  25  40  70 100 131 177 217 274 345 400
#
# _framework density 21.928616999999999
#
# number of rings (size 3 to 8) (size 9 to 14) (size 15 to 20)
#    0.000    1.538    3.077    0.923   14.000    3.692 
#    0.000    0.000    0.000    0.000    0.000    0.000 
#    0.000    0.000    0.000    0.000    0.000    0.000 
#
# Total GULP energy -145275.981191 kJ/mol
# GULP energy per Si atom -5587.537738 kJ/mol
# Density = 2.187871 g / cm^3
# Si number density = 21.928617 Si / 1000 Ang^3
#
#
#
# Elastic Constant Matrix: (Units=GPa)
#
#
# Indices 1 2 3 4 5 6 
#
# 1 132.3067 12.6107 29.1656 0.0000 9.8933 0.0000
# 2 12.6107 40.9651 11.9265 0.0000 4.8784 0.0000
# 3 29.1656 11.9265 115.0981 0.0000 22.4966 0.0000
# 4 0.0000 0.0000 0.0000 39.7909 0.0000 -1.0495
# 5 9.8933 4.8784 22.4966 0.0000 29.4387 0.0000
# 6 0.0000 0.0000 0.0000 -1.0495 0.0000 23.7875
#
#
#
# Elastic Compliance Matrix: (Units=1/GPa)
#
#
# Indices 1 2 3 4 5 6 
#
# 1 0.008191 -0.001901 -0.001648 0.000000 -0.001178 0.000000
# 2 -0.001901 0.025777 -0.001739 0.000000 -0.002304 0.000000
# 3 -0.001648 -0.001739 0.010723 0.000000 -0.007352 0.000000
# 4 0.000000 0.000000 0.000000 0.025161 0.000000 0.001110
# 5 -0.001178 -0.002304 -0.007352 0.000000 0.040365 0.000000
# 6 0.000000 0.000000 0.000000 0.001110 0.000000 0.042088
#
#
# Mechanical properties :
#
#
# Convention : Reuss Voigt Hill
#
# Bulk Modulus (GPa) = 29.31363 43.97508 36.64435
# Shear Modulus (GPa) = 28.69394 34.24791 31.47093
#
# Velocity S-wave (km/s) = 3.62127 3.95624 3.79245
# Velocity P-wave (km/s) = 5.55711 6.40050 5.99366
#
# Compressibility (1/GPa) = 0.03411383
#
# Stress axis : x y z
#
# Youngs Moduli (GPa) = 122.08746 38.79442 93.25607
#
# Poissons Ratio (x) = 0.07376 0.15371
# Poissons Ratio (y) = 0.23213 0.16217
# Poissons Ratio (z) = 0.20123 0.06746
#
# Static dielectric constant tensor:
#      x y z
#    x 1.819350 0.000000 -0.033470 
#    y 0.000000 1.793620 0.000000 
#    z -0.033470 0.000000 1.861320 
# 
# From -- ./inp_files/118827.got.cif
#   From: 2010.05.17/outbox.cif.g08.bks.cpg/sg15_60_cif.got.tgz:118827.got - 2010.06.03 18:47:42.
