data_PCOD9297051
_publ_section_title
;
Structure prediction by ZEFSAII (Michael W. Deem and Ramdas Pophale) SiO2 
 PCOD9297051
Probable space group: C 2/C
;
_chemical_formula_sum "Si O2"
_cell_formula_units_Z 60
_cell_length_a 7.988865
_cell_length_b 25.323123
_cell_length_c 15.697737
_cell_angle_alpha 90.000000
_cell_angle_beta 47.692665
_cell_angle_gamma 90.000000
_cell_volume 2348.572436
_symmetry_space_group_name_H-M "C 2/C"
_symmetry_group_IT_number 15
_symmetry_cell_setting 'monoclinic'
loop_
_space_group_symop_operation_xyz
x,y,z
-x,y,1/2-z
-x,-y,-z
x,-y,1/2+z
1/2+x,1/2+y,z
1/2-x,1/2+y,1/2-z
1/2-x,1/2-y,-z
1/2+x,1/2-y,1/2+z
loop_
_atom_site_type_symbol
_atom_site_label
_atom_site_fract_x
_atom_site_fract_y
_atom_site_fract_z
Si Si1 0.457279 0.560168 0.669800
Si Si2 0.715833 0.745887 0.239874
Si Si3 0.000000 0.399081 0.250000
Si Si4 0.510587 0.457557 0.573146
Si Si5 0.066179 0.220811 0.471379
Si Si6 0.686855 0.143811 0.529077
Si Si7 0.743677 0.869556 0.822731
Si Si8 0.789397 0.613153 0.422818
O O1 0.500000 0.500000 0.500000
O O2 0.514293 0.498016 0.648700
O O3 0.623112 0.593716 0.553685
O O4 0.212371 0.566624 0.708952
O O5 0.500000 0.753652 0.250000
O O6 0.661275 0.758756 0.360458
O O7 0.732240 0.682328 0.241752
O O8 0.937880 0.763528 0.106109
O O9 0.014041 0.359965 0.164538
O O10 0.500000 0.389516 0.750000
O O11 0.717455 0.416863 0.501360
O O12 0.305280 0.417519 0.626900
O O13 0.867781 0.187185 0.493907
O O14 0.254015 0.175934 0.427635
O O15 0.640608 0.151931 0.447166
O O16 0.540144 0.904627 0.859603
O O17 0.000000 0.920071 0.250000
#
# Coordination Sequence:
#
# PCOD9297051 Si02
#       8
#     8   8   4   8   8   8   8   8
#     4  11  23  44  69 111 146 189 247 306 367 449
#     4  11  24  42  71 106 145 182 243 307 365 448
#     4  12  22  40  72 102 142 196 242 296 370 444
#     4   9  19  45  65  94 145 181 232 294 363 426
#     4  11  23  45  73 103 142 193 242 298 381 444
#     4  11  22  42  70 102 141 186 240 293 368 442
#     4  11  24  45  67 101 138 186 246 297 359 444
#     4  10  23  47  72  97 148 191 238 300 372 445
#
# _framework density 25.547433999999999
#
# number of rings (size 3 to 8) (size 9 to 14) (size 15 to 20)
#    0.000    1.333    6.667    1.200    0.933    1.600 
#    7.200    2.000    0.000    0.000    0.000    0.000 
#    0.000    0.000    0.000    0.000    0.000    0.000 
#
# Total GULP energy -167261.338265 kJ/mol
# GULP energy per Si atom -5575.377942 kJ/mol
# Density = 2.548929 g / cm^3
# Si number density = 25.547434 Si / 1000 Ang^3
#
#
#
# Elastic Constant Matrix: (Units=GPa)
#
#
# Indices 1 2 3 4 5 6 
#
# 1 69.9515 7.1515 30.9563 0.0000 -11.5799 0.0000
# 2 7.1515 86.7109 26.8301 0.0000 0.0502 0.0000
# 3 30.9563 26.8301 161.8703 0.0000 35.4842 0.0000
# 4 0.0000 0.0000 0.0000 33.0987 0.0000 15.7306
# 5 -11.5799 0.0502 35.4842 0.0000 39.7776 0.0000
# 6 0.0000 0.0000 0.0000 15.7306 0.0000 25.8457
#
#
#
# Elastic Compliance Matrix: (Units=1/GPa)
#
#
# Indices 1 2 3 4 5 6 
#
# 1 0.018703 0.000306 -0.005993 0.000000 0.010790 0.000000
# 2 0.000306 0.012320 -0.002631 0.000000 0.002421 0.000000
# 3 -0.005993 -0.002631 0.010121 0.000000 -0.010770 0.000000
# 4 0.000000 0.000000 0.000000 0.042509 0.000000 -0.025872
# 5 0.010790 0.002421 -0.010770 0.000000 0.037885 0.000000
# 6 0.000000 0.000000 0.000000 -0.025872 0.000000 0.054438
#
#
# Mechanical properties :
#
#
# Convention : Reuss Voigt Hill
#
# Bulk Modulus (GPa) = 40.80475 49.82316 45.31395
# Shear Modulus (GPa) = 24.90274 36.65071 30.77673
#
# Velocity S-wave (km/s) = 3.12551 3.79174 3.47463
# Velocity P-wave (km/s) = 5.38813 6.22208 5.82006
#
# Compressibility (1/GPa) = 0.02450695
#
# Stress axis : x y z
#
# Youngs Moduli (GPa) = 53.46843 81.16825 98.80636
#
# Poissons Ratio (x) = -0.02480 0.59212
# Poissons Ratio (y) = -0.01634 0.25997
# Poissons Ratio (z) = 0.32042 0.21356
#
# Static dielectric constant tensor:
#      x y z
#    x 2.062360 0.000000 0.029630 
#    y 0.000000 2.051310 0.000000 
#    z 0.029630 0.000000 2.197680 
# 
# From -- ./inp_files/201242.got.cif
#   From: 2010.05.17/outbox.cif.g08.bks.cpg/sg15_101_cif.got.tgz:201242.got - 2010.06.03 18:47:42.
