data_PCOD9297197
_publ_section_title
;
Structure prediction by ZEFSAII (Michael W. Deem and Ramdas Pophale) SiO2 
 PCOD9297197
Probable space group: C 2/C
;
_chemical_formula_sum "Si O2"
_cell_formula_units_Z 44
_cell_length_a 18.712139
_cell_length_b 20.279960
_cell_length_c 8.111509
_cell_angle_alpha 90.000000
_cell_angle_beta 45.809933
_cell_angle_gamma 90.000000
_cell_volume 2207.142605
_symmetry_space_group_name_H-M "C 2/C"
_symmetry_group_IT_number 15
_symmetry_cell_setting 'monoclinic'
loop_
_space_group_symop_operation_xyz
x,y,z
-x,y,1/2-z
-x,-y,-z
x,-y,1/2+z
1/2+x,1/2+y,z
1/2-x,1/2+y,1/2-z
1/2-x,1/2-y,-z
1/2+x,1/2-y,1/2+z
loop_
_atom_site_type_symbol
_atom_site_label
_atom_site_fract_x
_atom_site_fract_y
_atom_site_fract_z
Si Si1 0.070660 0.808172 0.370182
Si Si2 0.399243 0.409569 0.660277
Si Si3 0.763487 0.136583 0.124066
Si Si4 0.000000 0.010948 0.250000
Si Si5 0.235434 0.775016 0.337987
Si Si6 0.897314 0.335203 0.854253
O O1 0.127562 0.802271 0.454297
O O2 0.072734 0.736001 0.279448
O O3 0.962365 0.841491 0.550188
O O4 0.140143 0.857722 0.150063
O O5 0.292931 0.399915 0.744750
O O6 0.452771 0.462724 0.458434
O O7 0.413999 0.442027 0.814201
O O8 0.746359 0.211341 0.205979
O O9 0.666364 0.121594 0.172877
O O10 0.250000 0.750000 0.500000
O O11 0.323003 0.821468 0.127462
O O12 0.000000 0.365303 0.750000
#
# Coordination Sequence:
#
# PCOD9297197 Si02
#       6
#     8   8   8   4   8   8
#     4   9  16  29  48  64 101 135 157 196 255 296
#     4  11  19  36  47  74 100 135 165 214 254 294
#     4   9  17  30  48  63  99 133 160 196 251 303
#     4  10  24  30  50  72 100 126 186 206 248 308
#     4   9  18  28  45  77  95 127 176 201 239 316
#     4   9  17  31  48  72  96 138 169 191 243 330
#
# _framework density 19.935279000000001
#
# number of rings (size 3 to 8) (size 9 to 14) (size 15 to 20)
#    0.000    2.545    1.818    4.364    2.545    0.000 
#    0.000    2.727    0.000    0.000    0.000    1.273 
#    0.000    0.000    0.000    0.000    0.000    0.000 
#
# Total GULP energy -122523.678066 kJ/mol
# GULP energy per Si atom -5569.258094 kJ/mol
# Density = 1.988991 g / cm^3
# Si number density = 19.935279 Si / 1000 Ang^3
#
#
#
# Elastic Constant Matrix: (Units=GPa)
#
#
# Indices 1 2 3 4 5 6 
#
# 1 187.2137 15.8968 30.5510 0.0000 -9.5968 0.0000
# 2 15.8968 34.4653 4.1577 0.0000 0.4683 0.0000
# 3 30.5510 4.1577 34.9676 0.0000 4.4445 0.0000
# 4 0.0000 0.0000 0.0000 2.3019 0.0000 0.7319
# 5 -9.5968 0.4683 4.4445 0.0000 26.6094 0.0000
# 6 0.0000 0.0000 0.0000 0.7319 0.0000 25.7237
#
#
#
# Elastic Compliance Matrix: (Units=1/GPa)
#
#
# Indices 1 2 3 4 5 6 
#
# 1 0.006705 -0.002415 -0.006012 0.000000 0.003465 0.000000
# 2 -0.002415 0.030307 -0.001344 0.000000 -0.001180 0.000000
# 3 -0.006012 -0.001344 0.035026 0.000000 -0.007995 0.000000
# 4 0.000000 0.000000 0.000000 0.438381 0.000000 -0.012473
# 5 0.003465 -0.001180 -0.007995 0.000000 0.040186 0.000000
# 6 0.000000 0.000000 0.000000 -0.012473 0.000000 0.039230
#
#
# Mechanical properties :
#
#
# Convention : Reuss Voigt Hill
#
# Bulk Modulus (GPa) = 19.04848 39.76195 29.40522
# Shear Modulus (GPa) = 7.97609 24.66309 16.31959
#
# Velocity S-wave (km/s) = 2.00242 3.52114 2.86427
# Velocity P-wave (km/s) = 3.86292 6.04318 5.07160
#
# Compressibility (1/GPa) = 0.05249762
#
# Stress axis : x y z
#
# Youngs Moduli (GPa) = 149.13953 32.99621 28.55016
#
# Poissons Ratio (x) = 0.07967 0.17163
# Poissons Ratio (y) = 0.36010 0.03837
# Poissons Ratio (z) = 0.89656 0.04435
#
# Static dielectric constant tensor:
#      x y z
#    x 1.845410 0.000000 0.034180 
#    y 0.000000 1.708700 0.000000 
#    z 0.034180 0.000000 1.741900 
# 
# From -- ./inp_files/41832.got.cif
#   From: 2010.05.17/outbox.cif.g08.bks.cpg/sg15_21_cif.got.tgz:41832.got - 2010.06.03 18:47:42.
