data_PCOD9297169
_publ_section_title
;
Structure prediction by ZEFSAII (Michael W. Deem and Ramdas Pophale) SiO2 
 PCOD9297169
Probable space group: C 2/C
;
_chemical_formula_sum "Si O2"
_cell_formula_units_Z 40
_cell_length_a 21.796545
_cell_length_b 16.496557
_cell_length_c 8.815016
_cell_angle_alpha 90.000000
_cell_angle_beta 30.975663
_cell_angle_gamma 90.000000
_cell_volume 1631.309074
_symmetry_space_group_name_H-M "C 2/C"
_symmetry_group_IT_number 15
_symmetry_cell_setting 'monoclinic'
loop_
_space_group_symop_operation_xyz
x,y,z
-x,y,1/2-z
-x,-y,-z
x,-y,1/2+z
1/2+x,1/2+y,z
1/2-x,1/2+y,1/2-z
1/2-x,1/2-y,-z
1/2+x,1/2-y,1/2+z
loop_
_atom_site_type_symbol
_atom_site_label
_atom_site_fract_x
_atom_site_fract_y
_atom_site_fract_z
Si Si1 0.398885 0.258135 0.243731
Si Si2 0.000000 0.862928 0.750000
Si Si3 0.343790 0.078434 0.331962
Si Si4 0.871522 0.039553 0.292001
Si Si5 0.500000 0.002662 0.250000
Si Si6 0.153503 0.791164 0.813119
O O1 0.333056 0.174648 0.347554
O O2 0.334014 0.291086 0.532594
O O3 0.435897 0.310863 0.017955
O O4 0.532875 0.244004 0.024382
O O5 0.107879 0.916797 0.589795
O O6 0.397300 0.054448 0.383482
O O7 0.230134 0.025728 0.522347
O O8 0.443606 0.052996 0.998589
O O9 0.856031 0.114661 0.211531
O O10 0.000000 0.000000 0.000000
O O11 0.250000 0.750000 0.500000
#
# Coordination Sequence:
#
# PCOD9297169 Si02
#       6
#     8   4   8   8   4   8
#     4  10  23  49  77 113 157 210 269 327 405 486
#     4  10  25  52  74 117 166 208 270 328 409 484
#     4  11  25  48  82 113 157 206 268 331 392 489
#     4  11  28  50  79 115 160 213 265 331 402 480
#     4  10  25  44  74 117 152 196 266 326 405 450
#     4  10  24  48  81 115 160 207 266 335 408 483
#
# _framework density 24.520185000000001
#
# number of rings (size 3 to 8) (size 9 to 14) (size 15 to 20)
#    0.000    1.600    0.000    1.800   11.200    4.800 
#    0.000    8.000    0.000    0.000    0.000    0.000 
#    0.000    0.000    0.000    0.000    0.000    0.000 
#
# Total GULP energy -111923.815365 kJ/mol
# GULP energy per Si atom -5596.190768 kJ/mol
# Density = 2.446438 g / cm^3
# Si number density = 24.520185 Si / 1000 Ang^3
#
#
#
# Elastic Constant Matrix: (Units=GPa)
#
#
# Indices 1 2 3 4 5 6 
#
# 1 196.7918 93.7101 64.0972 0.0000 16.6806 0.0000
# 2 93.7101 178.1195 66.0977 0.0000 8.4464 0.0000
# 3 64.0972 66.0977 137.5230 0.0000 18.2467 0.0000
# 4 0.0000 0.0000 0.0000 29.0222 0.0000 -12.7901
# 5 16.6806 8.4464 18.2467 0.0000 50.6236 0.0000
# 6 0.0000 0.0000 0.0000 -12.7901 0.0000 43.6048
#
#
#
# Elastic Compliance Matrix: (Units=1/GPa)
#
#
# Indices 1 2 3 4 5 6 
#
# 1 0.007223 -0.003107 -0.001708 0.000000 -0.001246 0.000000
# 2 -0.003107 0.008170 -0.002556 0.000000 0.000582 0.000000
# 3 -0.001708 -0.002556 0.009625 0.000000 -0.002480 0.000000
# 4 0.000000 0.000000 0.000000 0.039572 0.000000 0.011607
# 5 -0.001246 0.000582 -0.002480 0.000000 0.020961 0.000000
# 6 0.000000 0.000000 0.000000 0.011607 0.000000 0.026338
#
#
# Mechanical properties :
#
#
# Convention : Reuss Voigt Hill
#
# Bulk Modulus (GPa) = 97.31091 106.69381 102.00236
# Shear Modulus (GPa) = 38.44540 43.88541 41.16541
#
# Velocity S-wave (km/s) = 3.96398 4.23515 4.10181
# Velocity P-wave (km/s) = 7.79250 8.21721 8.00767
#
# Compressibility (1/GPa) = 0.01027634
#
# Stress axis : x y z
#
# Youngs Moduli (GPa) = 138.44640 122.40332 103.89826
#
# Poissons Ratio (x) = 0.38034 0.17743
# Poissons Ratio (y) = 0.43019 0.26552
# Poissons Ratio (z) = 0.23643 0.31281
#
# Static dielectric constant tensor:
#      x y z
#    x 2.105610 0.000000 -0.036580 
#    y 0.000000 1.950990 0.000000 
#    z -0.036580 0.000000 1.954040 
# 
# From -- ./inp_files/62868.got.cif
#   From: 2010.05.17/outbox.cif.g08.bks.cpg/sg15_32_cif.got.tgz:62868.got - 2010.06.03 18:47:42.
