data_PCOD9297721
_publ_section_title
;
Structure prediction by ZEFSAII (Michael W. Deem and Ramdas Pophale) SiO2 
 PCOD9297721
Probable space group: C 2/C
;
_chemical_formula_sum "Si O2"
_cell_formula_units_Z 52
_cell_length_a 9.660535
_cell_length_b 16.680549
_cell_length_c 15.584494
_cell_angle_alpha 90.000000
_cell_angle_beta 116.514368
_cell_angle_gamma 90.000000
_cell_volume 2247.196717
_symmetry_space_group_name_H-M "C 2/C"
_symmetry_group_IT_number 15
_symmetry_cell_setting 'monoclinic'
loop_
_space_group_symop_operation_xyz
x,y,z
-x,y,1/2-z
-x,-y,-z
x,-y,1/2+z
1/2+x,1/2+y,z
1/2-x,1/2+y,1/2-z
1/2-x,1/2-y,-z
1/2+x,1/2-y,1/2+z
loop_
_atom_site_type_symbol
_atom_site_label
_atom_site_fract_x
_atom_site_fract_y
_atom_site_fract_z
Si Si1 0.000000 0.985336 0.750000
Si Si2 0.336771 0.334221 0.028454
Si Si3 0.616123 0.976686 0.915706
Si Si4 0.837002 0.778006 0.400569
Si Si5 0.690727 0.911520 0.601556
Si Si6 0.709588 0.628806 0.787444
Si Si7 0.056294 0.368238 0.352404
O O1 0.880717 0.047348 0.763844
O O2 0.871144 0.931000 0.667918
O O3 0.501629 0.319531 0.030302
O O4 0.353294 0.351524 0.134923
O O5 0.250000 0.250000 0.000000
O O6 0.237573 0.405109 0.957671
O O7 0.626553 0.044784 0.846345
O O8 0.442425 0.942522 0.869838
O O9 0.647277 0.037189 0.004820
O O10 0.838819 0.682960 0.407287
O O11 0.813856 0.806406 0.294236
O O12 0.698456 0.814129 0.418631
O O13 0.894589 0.620971 0.856342
O O14 0.000000 0.326583 0.250000
#
# Coordination Sequence:
#
# PCOD9297721 Si02
#       7
#     4   8   8   8   8   8   8
#     4  12  20  38  70  92 120 178 224 250 320 418
#     4  12  23  42  68  95 127 175 223 265 326 394
#     4  11  21  44  66  91 135 177 218 267 327 397
#     4  11  24  42  65  99 132 168 221 273 326 386
#     4  11  23  38  68  99 126 177 225 257 324 407
#     4  11  21  44  65  89 131 176 208 269 332 390
#     4  10  24  42  65  95 136 169 211 280 338 377
#
# _framework density 23.139942999999999
#
# number of rings (size 3 to 8) (size 9 to 14) (size 15 to 20)
#    0.000    0.923    6.154    0.923    3.231    1.231 
#    2.769    0.000    0.000    0.000    0.000    0.000 
#    0.000    0.000    0.000    0.000    0.000    0.000 
#
# Total GULP energy -144918.365900 kJ/mol
# GULP energy per Si atom -5573.783304 kJ/mol
# Density = 2.308728 g / cm^3
# Si number density = 23.139943 Si / 1000 Ang^3
#
#
#
# Elastic Constant Matrix: (Units=GPa)
#
#
# Indices 1 2 3 4 5 6 
#
# 1 102.7289 36.0613 34.9502 0.0000 53.9263 0.0000
# 2 36.0613 137.3500 18.5920 0.0000 40.7086 0.0000
# 3 34.9502 18.5920 89.5720 0.0000 43.6987 0.0000
# 4 0.0000 0.0000 0.0000 39.1514 0.0000 15.6690
# 5 53.9263 40.7086 43.6987 0.0000 52.4368 0.0000
# 6 0.0000 0.0000 0.0000 15.6690 0.0000 36.5546
#
#
#
# Elastic Compliance Matrix: (Units=1/GPa)
#
#
# Indices 1 2 3 4 5 6 
#
# 1 0.022397 0.001920 0.004763 0.000000 -0.028493 0.000000
# 2 0.001920 0.010034 0.003255 0.000000 -0.012477 0.000000
# 3 0.004763 0.003255 0.020647 0.000000 -0.024632 0.000000
# 4 0.000000 0.000000 0.000000 0.030831 0.000000 -0.013216
# 5 -0.028493 -0.012477 -0.024632 0.000000 0.078586 0.000000
# 6 0.000000 0.000000 0.000000 -0.013216 0.000000 0.033021
#
#
# Mechanical properties :
#
#
# Convention : Reuss Voigt Hill
#
# Bulk Modulus (GPa) = 13.70728 56.53976 35.12352
# Shear Modulus (GPa) = 25.00523 41.63171 33.31847
#
# Velocity S-wave (km/s) = 3.29083 4.24621 3.79868
# Velocity P-wave (km/s) = 4.51397 6.96616 5.86955
#
# Compressibility (1/GPa) = 0.07295391
#
# Stress axis : x y z
#
# Youngs Moduli (GPa) = 44.64877 99.66174 48.43334
#
# Poissons Ratio (x) = -0.19133 -0.23069
# Poissons Ratio (y) = -0.08572 -0.15766
# Poissons Ratio (z) = -0.21266 -0.32441
#
# Static dielectric constant tensor:
#      x y z
#    x 2.001820 0.000000 -0.079610 
#    y 0.000000 1.871270 0.000000 
#    z -0.079610 0.000000 2.137130 
# 
# From -- ./inp_files/269986.got.cif
#   From: 2010.05.17/outbox.cif.g08.bks.cpg/sg15_135_cif.got.tgz:269986.got - 2010.06.03 18:47:42.
