data_PCOD9297916
_publ_section_title
;
Structure prediction by ZEFSAII (Michael W. Deem and Ramdas Pophale) SiO2 
 PCOD9297916
Probable space group: C 2/C
;
_chemical_formula_sum "Si O2"
_cell_formula_units_Z 44
_cell_length_a 13.978597
_cell_length_b 13.823651
_cell_length_c 17.892165
_cell_angle_alpha 90.000000
_cell_angle_beta 30.003380
_cell_angle_gamma 90.000000
_cell_volume 1728.875087
_symmetry_space_group_name_H-M "C 2/C"
_symmetry_group_IT_number 15
_symmetry_cell_setting 'monoclinic'
loop_
_space_group_symop_operation_xyz
x,y,z
-x,y,1/2-z
-x,-y,-z
x,-y,1/2+z
1/2+x,1/2+y,z
1/2-x,1/2+y,1/2-z
1/2-x,1/2-y,-z
1/2+x,1/2-y,1/2+z
loop_
_atom_site_type_symbol
_atom_site_label
_atom_site_fract_x
_atom_site_fract_y
_atom_site_fract_z
Si Si1 0.917897 0.161477 0.110749
Si Si2 0.213725 0.444503 0.973430
Si Si3 0.167785 0.819942 0.991244
Si Si4 0.604943 0.517909 0.786747
Si Si5 0.304313 0.757521 0.341110
Si Si6 0.500000 0.023798 0.250000
O O1 0.861905 0.216707 0.072623
O O2 0.843467 0.221365 0.231453
O O3 0.851031 0.051004 0.172280
O O4 0.147937 0.159916 0.952207
O O5 0.416769 0.465554 0.877308
O O6 0.230971 0.510364 0.887046
O O7 0.216437 0.335020 0.943941
O O8 0.040233 0.466400 0.146219
O O9 0.320289 0.904467 0.873099
O O10 0.250000 0.750000 0.000000
O O11 0.972436 0.874923 0.146337
O O12 0.500000 0.779489 0.250000
#
# Coordination Sequence:
#
# PCOD9297916 Si02
#       6
#     8   8   8   8   8   4
#     4  11  24  42  70 103 145 188 244 289 372 442
#     4   9  18  40  69 100 132 180 230 295 363 427
#     4  11  26  45  68  98 147 192 247 299 355 436
#     4   9  19  43  69  95 136 190 236 297 366 425
#     4  11  22  43  71 108 144 174 232 309 371 431
#     4  10  24  42  72 100 136 192 246 280 370 428
#
# _framework density 25.450074000000001
#
# number of rings (size 3 to 8) (size 9 to 14) (size 15 to 20)
#    0.000    1.818    3.636    1.091    2.545    5.818 
#    1.636    3.636    0.000    0.000    0.000    0.000 
#    0.000    0.000    0.000    0.000    0.000    0.000 
#
# Total GULP energy -123061.775167 kJ/mol
# GULP energy per Si atom -5593.717053 kJ/mol
# Density = 2.539215 g / cm^3
# Si number density = 25.450074 Si / 1000 Ang^3
#
#
#
# Elastic Constant Matrix: (Units=GPa)
#
#
# Indices 1 2 3 4 5 6 
#
# 1 156.6173 62.3229 61.2087 -0.0022 43.7150 0.0005
# 2 62.3229 83.1825 65.1446 -0.0145 31.4487 -0.0001
# 3 61.2087 65.1446 172.3658 -0.0216 49.8559 0.0017
# 4 -0.0022 -0.0145 -0.0216 34.2965 0.0016 0.4072
# 5 43.7150 31.4487 49.8559 0.0016 39.7273 0.0009
# 6 0.0005 -0.0001 0.0017 0.4072 0.0009 17.3570
#
#
#
# Elastic Compliance Matrix: (Units=1/GPa)
#
#
# Indices 1 2 3 4 5 6 
#
# 1 0.010528 -0.005282 0.000627 -0.000001 -0.008189 0.000000
# 2 -0.005282 0.021778 -0.004788 0.000006 -0.005419 0.000001
# 3 0.000627 -0.004788 0.010191 0.000005 -0.009689 -0.000001
# 4 -0.000001 0.000006 0.000005 0.029166 -0.000011 -0.000684
# 5 -0.008189 -0.005419 -0.009689 -0.000011 0.050631 -0.000001
# 6 0.000000 0.000001 -0.000001 -0.000684 -0.000001 0.057630
#
#
# Mechanical properties :
#
#
# Convention : Reuss Voigt Hill
#
# Bulk Modulus (GPa) = 42.35539 87.72423 65.03981
# Shear Modulus (GPa) = 24.19200 33.17546 28.68373
#
# Velocity S-wave (km/s) = 3.08647 3.61439 3.36081
# Velocity P-wave (km/s) = 5.42037 7.20849 6.37741
#
# Compressibility (1/GPa) = 0.02360975
#
# Stress axis : x y z
#
# Youngs Moduli (GPa) = 94.98493 45.91891 98.12634
#
# Poissons Ratio (x) = 0.24257 -0.06149
# Poissons Ratio (y) = 0.50176 0.46978
# Poissons Ratio (z) = -0.05952 0.21984
#
# Static dielectric constant tensor:
#      x y z
#    x 2.146560 0.000000 -0.027690 
#    y 0.000000 2.046590 0.000000 
#    z -0.027690 0.000000 2.043220 
# 
# From -- ./inp_files/244472.got.cif
#   From: 2010.05.17/outbox.cif.g08.bks.cpg/sg15_123_cif.got.tgz:244472.got - 2010.06.03 18:47:42.
