data_PCOD9297378
_publ_section_title
;
Structure prediction by ZEFSAII (Michael W. Deem and Ramdas Pophale) SiO2 
 PCOD9297378
Probable space group: C 2/C
;
_chemical_formula_sum "Si O2"
_cell_formula_units_Z 44
_cell_length_a 9.504681
_cell_length_b 8.297173
_cell_length_c 29.728485
_cell_angle_alpha 90.000000
_cell_angle_beta 57.993834
_cell_angle_gamma 90.000000
_cell_volume 1988.070329
_symmetry_space_group_name_H-M "C 2/C"
_symmetry_group_IT_number 15
_symmetry_cell_setting 'monoclinic'
loop_
_space_group_symop_operation_xyz
x,y,z
-x,y,1/2-z
-x,-y,-z
x,-y,1/2+z
1/2+x,1/2+y,z
1/2-x,1/2+y,1/2-z
1/2-x,1/2-y,-z
1/2+x,1/2-y,1/2+z
loop_
_atom_site_type_symbol
_atom_site_label
_atom_site_fract_x
_atom_site_fract_y
_atom_site_fract_z
Si Si1 0.379864 0.482469 0.977429
Si Si2 0.000000 0.444023 0.250000
Si Si3 0.537476 0.125561 0.569600
Si Si4 0.974081 0.566254 0.163851
Si Si5 0.657466 0.382870 0.108258
Si Si6 0.614683 0.628909 0.189937
O O1 0.415611 0.308863 0.949115
O O2 0.401869 0.608152 0.933172
O O3 0.500000 0.500000 0.000000
O O4 0.187472 0.481745 0.024748
O O5 0.917448 0.548480 0.225419
O O6 0.095557 0.320361 0.201343
O O7 0.356753 0.097821 0.578158
O O8 0.533549 0.084238 0.623258
O O9 0.104279 0.711948 0.138293
O O10 0.806542 0.606878 0.166626
O O11 0.577835 0.528210 0.151283
O O12 0.500000 0.560287 0.250000
#
# Coordination Sequence:
#
# PCOD9297378 Si02
#       6
#     8   4   8   8   8   8
#     4  11  24  43  69  95 131 171 215 265 325 384
#     4  10  24  40  62  92 128 166 214 260 318 376
#     4  10  24  44  63  96 131 171 212 264 323 388
#     4  11  24  40  67  95 127 169 216 265 319 382
#     4  11  24  42  68  95 132 168 217 264 323 381
#     4   9  24  42  62  92 129 171 210 262 318 380
#
# _framework density 22.132014999999999
#
# number of rings (size 3 to 8) (size 9 to 14) (size 15 to 20)
#    0.545    1.091    0.000    2.727    3.818   13.091 
#    0.000    0.000    0.000    0.000    0.000    0.000 
#    0.000    0.000    0.000    0.000    0.000    0.000 
#
# Total GULP energy -122554.070117 kJ/mol
# GULP energy per Si atom -5570.639551 kJ/mol
# Density = 2.208164 g / cm^3
# Si number density = 22.132015 Si / 1000 Ang^3
#
#
#
# Elastic Constant Matrix: (Units=GPa)
#
#
# Indices 1 2 3 4 5 6 
#
# 1 88.4267 21.4071 59.9090 0.0000 18.1120 0.0000
# 2 21.4071 41.7361 7.7249 0.0000 10.9380 0.0000
# 3 59.9090 7.7249 89.4780 0.0000 15.2258 0.0000
# 4 0.0000 0.0000 0.0000 37.6376 0.0000 20.8553
# 5 18.1120 10.9380 15.2258 0.0000 48.8078 0.0000
# 6 0.0000 0.0000 0.0000 20.8553 0.0000 53.9518
#
#
#
# Elastic Compliance Matrix: (Units=1/GPa)
#
#
# Indices 1 2 3 4 5 6 
#
# 1 0.024089 -0.008994 -0.014969 0.000000 -0.002254 0.000000
# 2 -0.008994 0.028957 0.004286 0.000000 -0.004489 0.000000
# 3 -0.014969 0.004286 0.021170 0.000000 -0.002010 0.000000
# 4 0.000000 0.000000 0.000000 0.033811 0.000000 -0.013070
# 5 -0.002254 -0.004489 -0.002010 0.000000 0.022958 0.000000
# 6 0.000000 0.000000 0.000000 -0.013070 0.000000 0.023587
#
#
# Mechanical properties :
#
#
# Convention : Reuss Voigt Hill
#
# Bulk Modulus (GPa) = 28.68484 44.19142 36.43813
# Shear Modulus (GPa) = 24.32541 36.78610 30.55575
#
# Velocity S-wave (km/s) = 3.31887 4.08134 3.71969
# Velocity P-wave (km/s) = 5.26075 6.49771 5.91167
#
# Compressibility (1/GPa) = 0.03486162
#
# Stress axis : x y z
#
# Youngs Moduli (GPa) = 41.51257 34.53456 47.23683
#
# Poissons Ratio (x) = 0.31062 0.70707
# Poissons Ratio (y) = 0.37338 -0.20246
# Poissons Ratio (z) = 0.62138 -0.14802
#
# Static dielectric constant tensor:
#      x y z
#    x 1.774530 0.000000 0.007880 
#    y 0.000000 1.944260 0.000000 
#    z 0.007880 0.000000 1.828860 
# 
# From -- ./inp_files/306620.got.cif
#   From: 2010.05.17/outbox.cif.g08.bks.cpg/sg15_154_cif.got.tgz:306620.got - 2010.06.03 18:47:42.
