data_PCOD9297233
_publ_section_title
;
Structure prediction by ZEFSAII (Michael W. Deem and Ramdas Pophale) SiO2 
 PCOD9297233
Probable space group: C 2/C
;
_chemical_formula_sum "Si O2"
_cell_formula_units_Z 36
_cell_length_a 7.891237
_cell_length_b 5.372646
_cell_length_c 30.061856
_cell_angle_alpha 90.000000
_cell_angle_beta 105.162451
_cell_angle_gamma 90.000000
_cell_volume 1230.158490
_symmetry_space_group_name_H-M "C 2/C"
_symmetry_group_IT_number 15
_symmetry_cell_setting 'monoclinic'
loop_
_space_group_symop_operation_xyz
x,y,z
-x,y,1/2-z
-x,-y,-z
x,-y,1/2+z
1/2+x,1/2+y,z
1/2-x,1/2+y,1/2-z
1/2-x,1/2-y,-z
1/2+x,1/2-y,1/2+z
loop_
_atom_site_type_symbol
_atom_site_label
_atom_site_fract_x
_atom_site_fract_y
_atom_site_fract_z
Si Si1 0.810067 0.265399 0.671861
Si Si2 0.143976 0.025803 0.548509
Si Si3 0.500000 0.514812 0.750000
Si Si4 0.671014 0.467703 0.418143
Si Si5 0.069908 0.558394 0.705110
O O1 0.782749 0.079859 0.630034
O O2 0.637896 0.329368 0.688894
O O3 0.898455 0.522093 0.660605
O O4 0.009538 0.252172 0.711874
O O5 0.273925 0.792777 0.555067
O O6 0.267682 0.205071 0.445172
O O7 0.000000 0.000000 0.500000
O O8 0.033839 0.999767 0.586606
O O9 0.286925 0.503127 0.718263
O O10 0.000000 0.678457 0.750000
#
# Coordination Sequence:
#
# PCOD9297233 Si02
#       5
#     8   8   4   8   8
#     4  12  24  43  63 101 137 185 236 292 341 418
#     4  12  26  51  77 110 145 189 234 297 373 444
#     4  10  24  36  68  86 142 178 244 266 362 384
#     4  12  28  45  79 109 149 185 243 299 360 429
#     4  10  24  39  64  89 134 184 239 275 351 392
#
# _framework density 29.264524999999999
#
# number of rings (size 3 to 8) (size 9 to 14) (size 15 to 20)
#    0.667    0.000    1.111    6.000    6.222    0.000 
#    0.000    0.000    0.000    0.000    0.000    0.000 
#    0.000    0.000    0.000    0.000    0.000    0.000 
#
# Total GULP energy -100297.994179 kJ/mol
# GULP energy per Si atom -5572.110788 kJ/mol
# Density = 2.919792 g / cm^3
# Si number density = 29.264525 Si / 1000 Ang^3
#
#
#
# Elastic Constant Matrix: (Units=GPa)
#
#
# Indices 1 2 3 4 5 6 
#
# 1 198.8657 67.4112 4.9544 0.0000 -19.0921 0.0000
# 2 67.4112 217.3276 13.7371 0.0000 10.5808 0.0000
# 3 4.9544 13.7371 117.4208 0.0000 -2.0602 0.0000
# 4 0.0000 0.0000 0.0000 18.6464 0.0000 14.5261
# 5 -19.0921 10.5808 -2.0602 0.0000 47.9557 0.0000
# 6 0.0000 0.0000 0.0000 14.5261 0.0000 97.3045
#
#
#
# Elastic Compliance Matrix: (Units=1/GPa)
#
#
# Indices 1 2 3 4 5 6 
#
# 1 0.005974 -0.001992 0.000030 0.000000 0.002819 0.000000
# 2 -0.001992 0.005353 -0.000577 0.000000 -0.001999 0.000000
# 3 0.000030 -0.000577 0.008592 0.000000 0.000509 0.000000
# 4 0.000000 0.000000 0.000000 0.060688 0.000000 -0.009060
# 5 0.002819 -0.001999 0.000509 0.000000 0.022438 0.000000
# 6 0.000000 0.000000 0.000000 -0.009060 0.000000 0.011630
#
#
# Mechanical properties :
#
#
# Convention : Reuss Voigt Hill
#
# Bulk Modulus (GPa) = 67.38328 78.42441 72.90385
# Shear Modulus (GPa) = 40.09690 62.61542 51.35616
#
# Velocity S-wave (km/s) = 3.70557 4.63064 4.19369
# Velocity P-wave (km/s) = 6.43304 7.44628 6.95812
#
# Compressibility (1/GPa) = 0.01484048
#
# Stress axis : x y z
#
# Youngs Moduli (GPa) = 167.40081 186.80850 116.39345
#
# Poissons Ratio (x) = 0.37214 -0.00355
# Poissons Ratio (y) = 0.33348 0.06719
# Poissons Ratio (z) = -0.00510 0.10784
#
# Static dielectric constant tensor:
#      x y z
#    x 2.721310 0.000000 0.106360 
#    y 0.000000 3.180310 0.000000 
#    z 0.106360 0.000000 4.432400 
# 
# From -- ./inp_files/286913.got.cif
#   From: 2010.05.17/outbox.cif.g08.bks.cpg/sg15_144_cif.got.tgz:286913.got - 2010.06.03 18:47:42.
