data_PCOD9297259
_publ_section_title
;
Structure prediction by ZEFSAII (Michael W. Deem and Ramdas Pophale) SiO2 
 PCOD9297259
Probable space group: C 2/C
;
_chemical_formula_sum "Si O2"
_cell_formula_units_Z 48
_cell_length_a 26.452768
_cell_length_b 8.562915
_cell_length_c 8.923057
_cell_angle_alpha 90.000000
_cell_angle_beta 92.896272
_cell_angle_gamma 90.000000
_cell_volume 2018.604891
_symmetry_space_group_name_H-M "C 2/C"
_symmetry_group_IT_number 15
_symmetry_cell_setting 'monoclinic'
loop_
_space_group_symop_operation_xyz
x,y,z
-x,y,1/2-z
-x,-y,-z
x,-y,1/2+z
1/2+x,1/2+y,z
1/2-x,1/2+y,1/2-z
1/2-x,1/2-y,-z
1/2+x,1/2-y,1/2+z
loop_
_atom_site_type_symbol
_atom_site_label
_atom_site_fract_x
_atom_site_fract_y
_atom_site_fract_z
Si Si1 0.120769 0.399593 0.250447
Si Si2 0.732934 0.602327 0.594721
Si Si3 0.374450 0.622981 0.040118
Si Si4 0.307853 0.837913 0.686566
Si Si5 0.449546 0.910406 0.537160
Si Si6 0.909212 0.165446 0.711805
O O1 0.143400 0.254938 0.344425
O O2 0.162660 0.528322 0.207337
O O3 0.082833 0.360738 0.111887
O O4 0.084782 0.473511 0.371337
O O5 0.750000 0.750000 0.500000
O O6 0.677316 0.551243 0.532846
O O7 0.723872 0.694428 0.749610
O O8 0.770094 0.454943 0.596494
O O9 0.403515 0.673613 0.891339
O O10 0.407365 0.506596 0.144680
O O11 0.357987 0.749058 0.637798
O O12 0.454489 0.761486 0.645336
O O13 0.500000 0.000000 0.500000
#
# Coordination Sequence:
#
# PCOD9297259 Si02
#       6
#     8   8   8   8   8   8
#     4  11  22  42  68  96 137 175 223 279 354 412
#     4  11  23  39  59  94 139 185 247 284 328 406
#     4  11  23  43  66  99 141 190 229 290 342 410
#     4  10  24  38  60  92 133 187 232 290 337 397
#     4  11  23  42  71 102 130 170 220 281 349 433
#     4  10  24  43  66  98 139 181 236 286 355 411
#
# _framework density 23.778798999999999
#
# number of rings (size 3 to 8) (size 9 to 14) (size 15 to 20)
#    0.000    1.333    1.667    4.500    7.000    2.000 
#    0.000    0.833    0.000    4.000    0.000    0.000 
#    0.000    0.000    0.000    0.000    0.000    0.000 
#
# Total GULP energy -133836.080324 kJ/mol
# GULP energy per Si atom -5576.503347 kJ/mol
# Density = 2.372468 g / cm^3
# Si number density = 23.778799 Si / 1000 Ang^3
#
#
#
# Elastic Constant Matrix: (Units=GPa)
#
#
# Indices 1 2 3 4 5 6 
#
# 1 35.1323 -5.9661 37.2386 0.0000 -1.6230 0.0000
# 2 -5.9661 77.2840 36.5862 0.0000 3.4014 0.0000
# 3 37.2386 36.5862 121.6263 0.0000 6.7002 0.0000
# 4 0.0000 0.0000 0.0000 20.3722 0.0000 -1.4179
# 5 -1.6230 3.4014 6.7002 0.0000 35.2659 0.0000
# 6 0.0000 0.0000 0.0000 -1.4179 0.0000 34.2410
#
#
#
# Elastic Compliance Matrix: (Units=1/GPa)
#
#
# Indices 1 2 3 4 5 6 
#
# 1 0.052718 0.013551 -0.020493 0.000000 0.005013 0.000000
# 2 0.013551 0.018583 -0.009777 0.000000 0.000689 0.000000
# 3 -0.020493 -0.009777 0.017622 0.000000 -0.003348 0.000000
# 4 0.000000 0.000000 0.000000 0.049228 0.000000 0.002039
# 5 0.005013 0.000689 -0.003348 0.000000 0.029156 0.000000
# 6 0.000000 0.000000 0.000000 0.002039 0.000000 0.029289
#
#
# Mechanical properties :
#
#
# Convention : Reuss Voigt Hill
#
# Bulk Modulus (GPa) = 18.02301 41.08444 29.55373
# Shear Modulus (GPa) = 20.11823 29.05475 24.58649
#
# Velocity S-wave (km/s) = 2.91186 3.49933 3.21902
# Velocity P-wave (km/s) = 4.34755 5.80020 5.12560
#
# Compressibility (1/GPa) = 0.05548463
#
# Stress axis : x y z
#
# Youngs Moduli (GPa) = 18.96875 53.81160 56.74818
#
# Poissons Ratio (x) = -0.72918 1.16295
# Poissons Ratio (y) = -0.25704 0.55481
# Poissons Ratio (z) = 0.38873 0.52610
#
# Static dielectric constant tensor:
#      x y z
#    x 1.927360 0.000000 -0.079800 
#    y 0.000000 2.023100 0.000000 
#    z -0.079800 0.000000 1.524680 
# 
# From -- ./inp_files/68554.got.cif
#   From: 2010.05.17/outbox.cif.g08.bks.cpg/sg15_35_cif.got.tgz:68554.got - 2010.06.03 18:47:42.
