data_PCOD9297052
_publ_section_title
;
Structure prediction by ZEFSAII (Michael W. Deem and Ramdas Pophale) SiO2 
 PCOD9297052
Probable space group: C 2/C
;
_chemical_formula_sum "Si O2"
_cell_formula_units_Z 44
_cell_length_a 16.312609
_cell_length_b 14.414309
_cell_length_c 22.531182
_cell_angle_alpha 90.000000
_cell_angle_beta 22.078949
_cell_angle_gamma 90.000000
_cell_volume 1991.383319
_symmetry_space_group_name_H-M "C 2/C"
_symmetry_group_IT_number 15
_symmetry_cell_setting 'monoclinic'
loop_
_space_group_symop_operation_xyz
x,y,z
-x,y,1/2-z
-x,-y,-z
x,-y,1/2+z
1/2+x,1/2+y,z
1/2-x,1/2+y,1/2-z
1/2-x,1/2-y,-z
1/2+x,1/2-y,1/2+z
loop_
_atom_site_type_symbol
_atom_site_label
_atom_site_fract_x
_atom_site_fract_y
_atom_site_fract_z
Si Si1 0.500000 0.476080 0.250000
Si Si2 0.211057 0.241517 0.340692
Si Si3 0.522189 0.828486 0.359586
Si Si4 0.557703 0.624939 0.126031
Si Si5 0.129276 0.918040 0.444627
Si Si6 0.680534 0.184965 0.991752
O O1 0.424797 0.545037 0.248135
O O2 0.307160 0.412680 0.406249
O O3 0.137819 0.324551 0.346015
O O4 0.418360 0.187328 0.174065
O O5 0.250846 0.273282 0.381006
O O6 0.006361 0.173826 0.480008
O O7 0.554542 0.723516 0.312373
O O8 0.265420 0.847618 0.527452
O O9 0.636783 0.903435 0.241249
O O10 0.635655 0.582164 0.011256
O O11 0.000000 0.000000 0.500000
O O12 0.750000 0.250000 0.000000
#
# Coordination Sequence:
#
# PCOD9297052 Si02
#       6
#     4   8   8   8   8   8
#     4  12  28  42  74 104 140 186 252 300 356 446
#     4  11  24  45  74  99 138 188 241 292 372 426
#     4  10  23  47  73 100 143 191 235 302 363 427
#     4  10  26  44  71 104 140 191 239 299 361 427
#     4  11  25  42  71 104 145 182 240 295 354 438
#     4  12  25  47  70 101 142 191 235 303 370 438
#
# _framework density 22.095193999999999
#
# number of rings (size 3 to 8) (size 9 to 14) (size 15 to 20)
#    0.000    1.091    3.636    0.545   15.273    0.000 
#    0.000    4.545    0.000    0.000    0.000    0.000 
#    0.000    0.000    0.000    0.000    0.000    0.000 
#
# Total GULP energy -122886.567133 kJ/mol
# GULP energy per Si atom -5585.753052 kJ/mol
# Density = 2.204490 g / cm^3
# Si number density = 22.095194 Si / 1000 Ang^3
#
#
#
# Elastic Constant Matrix: (Units=GPa)
#
#
# Indices 1 2 3 4 5 6 
#
# 1 135.4648 39.8112 24.6043 0.0012 24.2387 -0.0523
# 2 39.8112 69.3305 24.6873 0.0008 19.3360 -0.0028
# 3 24.6043 24.6873 73.7758 0.0750 1.2978 -0.0561
# 4 0.0012 0.0008 0.0750 38.7598 -0.0226 8.7305
# 5 24.2387 19.3360 1.2978 -0.0226 39.4665 0.0276
# 6 -0.0523 -0.0028 -0.0561 8.7305 0.0276 19.1955
#
#
#
# Elastic Compliance Matrix: (Units=1/GPa)
#
#
# Indices 1 2 3 4 5 6 
#
# 1 0.009518 -0.003691 -0.001869 -0.000005 -0.003976 0.000028
# 2 -0.003691 0.020658 -0.005547 0.000010 -0.007672 -0.000017
# 3 -0.001869 -0.005547 0.015975 -0.000041 0.003340 0.000055
# 4 -0.000005 0.000010 -0.000041 0.028745 0.000025 -0.013074
# 5 -0.003976 -0.007672 0.003340 0.000025 0.031428 -0.000059
# 6 0.000028 -0.000017 0.000055 -0.013074 -0.000059 0.058042
#
#
# Mechanical properties :
#
#
# Convention : Reuss Voigt Hill
#
# Bulk Modulus (GPa) = 41.77604 50.75297 46.26450
# Shear Modulus (GPa) = 25.69917 32.11557 28.90737
#
# Velocity S-wave (km/s) = 3.41414 3.81663 3.62098
# Velocity P-wave (km/s) = 5.87283 6.51477 6.20211
#
# Compressibility (1/GPa) = 0.02393717
#
# Stress axis : x y z
#
# Youngs Moduli (GPa) = 105.06940 48.40785 62.59647
#
# Poissons Ratio (x) = 0.17867 0.11700
# Poissons Ratio (y) = 0.38780 0.34721
# Poissons Ratio (z) = 0.19638 0.26851
#
# Static dielectric constant tensor:
#      x y z
#    x 1.906360 0.000010 -0.014080 
#    y 0.000010 1.833590 0.000000 
#    z -0.014080 0.000000 1.854340 
# 
# From -- ./inp_files/47213.got.cif
#   From: 2010.05.17/outbox.cif.g08.bks.cpg/sg15_24_cif.got.tgz:47213.got - 2010.06.03 18:47:42.
