data_PCOD9297333
_publ_section_title
;
Structure prediction by ZEFSAII (Michael W. Deem and Ramdas Pophale) SiO2 
 PCOD9297333
Probable space group: C 2/C
;
_chemical_formula_sum "Si O2"
_cell_formula_units_Z 56
_cell_length_a 10.160024
_cell_length_b 23.974674
_cell_length_c 15.108133
_cell_angle_alpha 90.000000
_cell_angle_beta 139.097603
_cell_angle_gamma 90.000000
_cell_volume 2409.620401
_symmetry_space_group_name_H-M "C 2/C"
_symmetry_group_IT_number 15
_symmetry_cell_setting 'monoclinic'
loop_
_space_group_symop_operation_xyz
x,y,z
-x,y,1/2-z
-x,-y,-z
x,-y,1/2+z
1/2+x,1/2+y,z
1/2-x,1/2+y,1/2-z
1/2-x,1/2-y,-z
1/2+x,1/2-y,1/2+z
loop_
_atom_site_type_symbol
_atom_site_label
_atom_site_fract_x
_atom_site_fract_y
_atom_site_fract_z
Si Si1 0.990880 0.581699 0.917476
Si Si2 0.006395 0.746146 0.966907
Si Si3 0.178859 0.333303 0.410939
Si Si4 0.850875 0.051413 0.447414
Si Si5 0.439825 0.241612 0.313137
Si Si6 0.931947 0.129809 0.809056
Si Si7 0.941934 0.455884 0.852960
O O1 0.808386 0.624961 0.813435
O O2 0.165248 0.603378 0.940034
O O3 0.901528 0.521620 0.846593
O O4 0.054093 0.575090 0.051220
O O5 0.137973 0.703012 0.978077
O O6 0.800536 0.757822 0.811681
O O7 0.127834 0.804303 0.033176
O O8 0.977030 0.721622 0.050721
O O9 0.000000 0.326028 0.250000
O O10 0.731321 0.068205 0.297818
O O11 0.661435 0.042443 0.418259
O O12 0.981201 0.097154 0.564021
O O13 0.000000 0.000000 0.500000
O O14 0.500000 0.214442 0.250000
O O15 0.504313 0.306567 0.344057
O O16 0.000000 0.103333 0.750000
#
# Coordination Sequence:
#
# PCOD9297333 Si02
#       7
#     8   8   8   8   8   8   8
#     4  11  21  42  67  95 136 180 228 275 341 408
#     4  11  22  44  67 101 135 166 234 285 342 412
#     4  11  23  40  72  98 136 183 225 283 347 420
#     4  11  22  39  63  96 136 178 224 281 341 392
#     4  11  24  43  71  98 131 183 225 279 353 418
#     4  11  21  40  65  91 132 183 233 273 334 415
#     4  10  24  39  65 100 136 176 229 286 331 401
#
# _framework density 23.240175000000001
#
# number of rings (size 3 to 8) (size 9 to 14) (size 15 to 20)
#    0.000    1.143    5.714    0.429    2.000    1.143 
#    2.571    0.000    6.286    0.000    0.000    0.000 
#    0.000    0.000    0.000    0.000    0.000    0.000 
#
# Total GULP energy -156493.504487 kJ/mol
# GULP energy per Si atom -5589.053732 kJ/mol
# Density = 2.318728 g / cm^3
# Si number density = 23.240175 Si / 1000 Ang^3
#
#
#
# Elastic Constant Matrix: (Units=GPa)
#
#
# Indices 1 2 3 4 5 6 
#
# 1 79.0615 16.0918 29.8222 0.0000 -15.9683 0.0000
# 2 16.0918 49.1271 37.2536 0.0000 -8.5941 0.0000
# 3 29.8222 37.2536 133.1912 0.0000 -17.1014 0.0000
# 4 0.0000 0.0000 0.0000 9.8801 0.0000 -8.8591
# 5 -15.9683 -8.5941 -17.1014 0.0000 44.3325 0.0000
# 6 0.0000 0.0000 0.0000 -8.8591 0.0000 34.7352
#
#
#
# Elastic Compliance Matrix: (Units=1/GPa)
#
#
# Indices 1 2 3 4 5 6 
#
# 1 0.014764 -0.002560 -0.002073 0.000000 0.004022 0.000000
# 2 -0.002560 0.026511 -0.006629 0.000000 0.001660 0.000000
# 3 -0.002073 -0.006629 0.010064 0.000000 0.001850 0.000000
# 4 0.000000 0.000000 0.000000 0.131223 0.000000 0.033468
# 5 0.004022 0.001660 0.001850 0.000000 0.025041 0.000000
# 6 0.000000 0.000000 0.000000 0.033468 0.000000 0.037325
#
#
# Mechanical properties :
#
#
# Convention : Reuss Voigt Hill
#
# Bulk Modulus (GPa) = 34.70501 47.52388 41.11445
# Shear Modulus (GPa) = 18.04681 29.67038 23.85859
#
# Velocity S-wave (km/s) = 2.78966 3.57695 3.20755
# Velocity P-wave (km/s) = 5.03407 6.12804 5.60779
#
# Compressibility (1/GPa) = 0.02881429
#
# Stress axis : x y z
#
# Youngs Moduli (GPa) = 67.73332 37.72018 99.36561
#
# Poissons Ratio (x) = 0.09657 0.20601
# Poissons Ratio (y) = 0.17341 0.65867
# Poissons Ratio (z) = 0.14043 0.25004
#
# Static dielectric constant tensor:
#      x y z
#    x 1.965010 0.000000 -0.011490 
#    y 0.000000 1.911880 0.000000 
#    z -0.011490 0.000000 1.823610 
# 
# From -- ./inp_files/148589.got.cif
#   From: 2010.05.17/outbox.cif.g08.bks.cpg/sg15_75_cif.got.tgz:148589.got - 2010.06.03 18:47:42.
