data_PCOD9297719
_publ_section_title
;
Structure prediction by ZEFSAII (Michael W. Deem and Ramdas Pophale) SiO2 
 PCOD9297719
Probable space group: C 2/C
;
_chemical_formula_sum "Si O2"
_cell_formula_units_Z 64
_cell_length_a 10.830007
_cell_length_b 8.431428
_cell_length_c 29.313747
_cell_angle_alpha 90.000000
_cell_angle_beta 84.516740
_cell_angle_gamma 90.000000
_cell_volume 2664.461106
_symmetry_space_group_name_H-M "C 2/C"
_symmetry_group_IT_number 15
_symmetry_cell_setting 'monoclinic'
loop_
_space_group_symop_operation_xyz
x,y,z
-x,y,1/2-z
-x,-y,-z
x,-y,1/2+z
1/2+x,1/2+y,z
1/2-x,1/2+y,1/2-z
1/2-x,1/2-y,-z
1/2+x,1/2-y,1/2+z
loop_
_atom_site_type_symbol
_atom_site_label
_atom_site_fract_x
_atom_site_fract_y
_atom_site_fract_z
Si Si1 0.733505 0.525320 0.791439
Si Si2 0.258558 0.181216 0.050686
Si Si3 0.431965 0.135456 0.347077
Si Si4 0.987972 0.767950 0.440619
Si Si5 0.647431 0.831643 0.472045
Si Si6 0.468881 0.514396 0.819548
Si Si7 0.803306 0.399374 0.694613
Si Si8 0.500884 0.606203 0.082340
O O1 0.591790 0.461382 0.787505
O O2 0.809825 0.483863 0.743463
O O3 0.709958 0.710945 0.798743
O O4 0.815938 0.458301 0.830307
O O5 0.366121 0.266400 0.074651
O O6 0.126537 0.206782 0.078207
O O7 0.302738 0.998270 0.047155
O O8 0.250000 0.250000 0.000000
O O9 0.417816 0.191584 0.400200
O O10 0.445641 0.297487 0.317393
O O11 0.569621 0.058182 0.336808
O O12 0.965102 0.669225 0.487435
O O13 0.963916 0.953610 0.449960
O O14 0.750000 0.750000 0.500000
O O15 0.606680 0.714388 0.433361
O O16 0.330462 0.447138 0.820801
O O17 0.517726 0.470615 0.868249
#
# Coordination Sequence:
#
# PCOD9297719 Si02
#       8
#     8   8   8   8   8   8   8   8
#     4  11  24  41  68  95 126 166 207 256 314 382
#     4  12  24  41  62  88 121 168 215 258 310 364
#     4  10  24  43  64  95 130 166 206 262 317 371
#     4  11  23  43  63  91 128 165 210 264 313 369
#     4  12  24  40  64  91 123 170 215 257 313 370
#     4  10  24  42  65  95 129 164 207 261 313 375
#     4  11  23  44  66  97 127 165 209 254 317 382
#     4  11  24  43  63  91 128 164 210 262 313 369
#
# _framework density 24.019866
#
# number of rings (size 3 to 8) (size 9 to 14) (size 15 to 20)
#    0.000    1.000    2.500    3.750    1.750    6.000 
#    2.250    0.000    0.000    0.000    0.000    0.000 
#    0.000    0.000    0.000    0.000    0.000    0.000 
#
# Total GULP energy -178822.031957 kJ/mol
# GULP energy per Si atom -5588.188499 kJ/mol
# Density = 2.396520 g / cm^3
# Si number density = 24.019866 Si / 1000 Ang^3
#
#
#
# Elastic Constant Matrix: (Units=GPa)
#
#
# Indices 1 2 3 4 5 6 
#
# 1 146.9227 24.3443 -8.1202 0.0000 18.6271 0.0000
# 2 24.3443 54.1685 -7.7375 0.0000 13.8438 0.0000
# 3 -8.1202 -7.7375 29.0214 0.0000 13.4735 0.0000
# 4 0.0000 0.0000 0.0000 24.0534 0.0000 5.4426
# 5 18.6271 13.8438 13.4735 0.0000 41.1630 0.0000
# 6 0.0000 0.0000 0.0000 5.4426 0.0000 27.2401
#
#
#
# Elastic Compliance Matrix: (Units=1/GPa)
#
#
# Indices 1 2 3 4 5 6 
#
# 1 0.007843 -0.001987 0.003540 0.000000 -0.004040 0.000000
# 2 -0.001987 0.023547 0.010590 0.000000 -0.010486 0.000000
# 3 0.003540 0.010590 0.047956 0.000000 -0.020861 0.000000
# 4 0.000000 0.000000 0.000000 0.043543 0.000000 -0.008700
# 5 -0.004040 -0.010486 -0.020861 0.000000 0.036477 0.000000
# 6 0.000000 0.000000 0.000000 -0.008700 0.000000 0.038449
#
#
# Mechanical properties :
#
#
# Convention : Reuss Voigt Hill
#
# Bulk Modulus (GPa) = 9.64931 27.45397 18.55164
# Shear Modulus (GPa) = 24.03027 33.26640 28.64833
#
# Velocity S-wave (km/s) = 3.16639 3.72553 3.45729
# Velocity P-wave (km/s) = 4.17061 5.47363 4.86593
#
# Compressibility (1/GPa) = 0.10363439
#
# Stress axis : x y z
#
# Youngs Moduli (GPa) = 127.49638 42.46914 20.85232
#
# Poissons Ratio (x) = 0.08437 -0.07383
# Poissons Ratio (y) = 0.25330 -0.22083
# Poissons Ratio (z) = -0.45140 -0.44976
#
# Static dielectric constant tensor:
#      x y z
#    x 2.143580 0.000000 -0.098170 
#    y 0.000000 1.965980 0.000000 
#    z -0.098170 0.000000 2.004470 
# 
# From -- ./inp_files/310300.got.cif
#   From: 2010.05.17/outbox.cif.g08.bks.cpg/sg15_156_cif.got.tgz:310300.got - 2010.06.03 18:47:42.
