data_PCOD9297580
_publ_section_title
;
Structure prediction by ZEFSAII (Michael W. Deem and Ramdas Pophale) SiO2 
 PCOD9297580
Probable space group: C 2/C
;
_chemical_formula_sum "Si O2"
_cell_formula_units_Z 32
_cell_length_a 13.371952
_cell_length_b 21.973624
_cell_length_c 13.940616
_cell_angle_alpha 90.000000
_cell_angle_beta 21.121312
_cell_angle_gamma 90.000000
_cell_volume 1476.031164
_symmetry_space_group_name_H-M "C 2/C"
_symmetry_group_IT_number 15
_symmetry_cell_setting 'monoclinic'
loop_
_space_group_symop_operation_xyz
x,y,z
-x,y,1/2-z
-x,-y,-z
x,-y,1/2+z
1/2+x,1/2+y,z
1/2-x,1/2+y,1/2-z
1/2-x,1/2-y,-z
1/2+x,1/2-y,1/2+z
loop_
_atom_site_type_symbol
_atom_site_label
_atom_site_fract_x
_atom_site_fract_y
_atom_site_fract_z
Si Si1 0.133076 0.291943 0.502352
Si Si2 0.500000 0.204127 0.750000
Si Si3 0.336395 0.562649 0.131897
Si Si4 0.595553 0.131477 0.858489
Si Si5 0.000000 0.600799 0.250000
O O1 0.036334 0.314789 0.485692
O O2 0.891501 0.250747 0.758969
O O3 0.176388 0.352459 0.526568
O O4 0.750000 0.250000 0.500000
O O5 0.554162 0.158772 0.790731
O O6 0.180513 0.565194 0.167910
O O7 0.113473 0.578560 0.415507
O O8 0.500000 0.500000 0.000000
O O9 0.584532 0.611954 0.913005
#
# Coordination Sequence:
#
# PCOD9297580 Si02
#       5
#     8   4   8   8   4
#     4  11  21  37  61  95 131 165 200 257 325 394
#     4  12  24  43  68 100 140 187 224 272 334 400
#     4  11  25  46  68  95 130 173 223 283 333 385
#     4  11  24  43  66  99 133 173 227 272 324 401
#     4  10  24  41  66  98 130 167 218 266 332 408
#
# _framework density 21.679758
#
# number of rings (size 3 to 8) (size 9 to 14) (size 15 to 20)
#    0.000    1.000    0.000    7.500    0.000    9.000 
#    0.000    5.000    0.000    0.000    0.000    0.000 
#    0.000    0.000    0.000    0.000    0.000    0.000 
#
# Total GULP energy -89425.578365 kJ/mol
# GULP energy per Si atom -5589.098648 kJ/mol
# Density = 2.163041 g / cm^3
# Si number density = 21.679758 Si / 1000 Ang^3
#
#
#
# Elastic Constant Matrix: (Units=GPa)
#
#
# Indices 1 2 3 4 5 6 
#
# 1 227.7901 84.9500 56.3528 0.2055 14.6503 -0.0410
# 2 84.9500 95.4212 35.8058 -0.4460 -7.9824 -0.0432
# 3 56.3528 35.8058 153.9674 -0.5931 -11.4333 -0.1987
# 4 0.2055 -0.4460 -0.5931 -51.4253 -0.1102 -25.2607
# 5 14.6503 -7.9824 -11.4333 -0.1102 37.6653 0.1301
# 6 -0.0410 -0.0432 -0.1987 -25.2607 0.1301 28.1035
#
#
#
# Elastic Compliance Matrix: (Units=1/GPa)
#
#
# Indices 1 2 3 4 5 6 
#
# 1 0.007512 -0.006489 -0.001595 0.000076 -0.004781 0.000080
# 2 -0.006489 0.017189 -0.001192 -0.000114 0.005805 -0.000121
# 3 -0.001595 -0.001192 0.007553 -0.000074 0.002660 -0.000030
# 4 0.000076 -0.000114 -0.000074 -0.013488 -0.000074 -0.012124
# 5 -0.004781 0.005805 0.002660 -0.000074 0.030448 -0.000187
# 6 0.000080 -0.000121 -0.000030 -0.012124 -0.000187 0.024686
#
#
# Mechanical properties :
#
#
# Convention : Reuss Voigt Hill
#
# Bulk Modulus (GPa) = 72.97998 92.37731 82.67865
# Shear Modulus (GPa) = 51.53691 22.87336 37.20513
#
# Velocity S-wave (km/s) = 4.88093 3.25169 4.14711
# Velocity P-wave (km/s) = 8.09324 7.53660 7.81987
#
# Compressibility (1/GPa) = 0.01370239
#
# Stress axis : x y z
#
# Youngs Moduli (GPa) = 133.12308 58.17780 132.39549
#
# Poissons Ratio (x) = 0.37749 0.21118
# Poissons Ratio (y) = 0.86378 0.15781
# Poissons Ratio (z) = 0.21234 0.06935
#
# Static dielectric constant tensor:
#      x y z
#    x 1.875340 -0.000300 0.031340 
#    y -0.000300 1.809520 0.000320 
#    z 0.031340 0.000320 1.806340 
# 
# From -- ./inp_files/156100.got.cif
#   From: 2010.05.17/outbox.cif.g08.bks.cpg/sg15_79_cif.got.tgz:156100.got - 2010.06.03 18:47:42.
