data_PCOD9297775
_publ_section_title
;
Structure prediction by ZEFSAII (Michael W. Deem and Ramdas Pophale) SiO2 
 PCOD9297775
Probable space group: C 2/C
;
_chemical_formula_sum "Si O2"
_cell_formula_units_Z 60
_cell_length_a 9.214560
_cell_length_b 26.540116
_cell_length_c 12.260326
_cell_angle_alpha 90.000000
_cell_angle_beta 90.193749
_cell_angle_gamma 90.000000
_cell_volume 2998.312905
_symmetry_space_group_name_H-M "C 2/C"
_symmetry_group_IT_number 15
_symmetry_cell_setting 'monoclinic'
loop_
_space_group_symop_operation_xyz
x,y,z
-x,y,1/2-z
-x,-y,-z
x,-y,1/2+z
1/2+x,1/2+y,z
1/2-x,1/2+y,1/2-z
1/2-x,1/2-y,-z
1/2+x,1/2-y,1/2+z
loop_
_atom_site_type_symbol
_atom_site_label
_atom_site_fract_x
_atom_site_fract_y
_atom_site_fract_z
Si Si1 0.170576 0.348726 0.231817
Si Si2 0.500000 0.535178 0.250000
Si Si3 0.153573 0.902279 0.943185
Si Si4 0.144100 0.937507 0.188071
Si Si5 0.589961 0.837413 0.644488
Si Si6 0.812795 0.306734 0.509164
Si Si7 0.704309 0.753089 0.374882
Si Si8 0.534920 0.680221 0.129089
O O1 0.230209 0.403767 0.260386
O O2 0.230169 0.305530 0.314500
O O3 0.000000 0.348626 0.250000
O O4 0.203151 0.332595 0.108230
O O5 0.430519 0.565791 0.149487
O O6 0.627478 0.496992 0.210594
O O7 0.310700 0.881947 0.904623
O O8 0.061628 0.850914 0.955392
O O9 0.150999 0.929460 0.058760
O O10 0.000000 0.916977 0.250000
O O11 0.500000 0.853601 0.750000
O O12 0.473374 0.815754 0.557030
O O13 0.698582 0.791508 0.677422
O O14 0.750000 0.250000 0.500000
O O15 0.698359 0.328631 0.596040
O O16 0.750000 0.750000 0.500000
O O17 0.534727 0.736227 0.369735
O O18 0.500000 0.661439 0.250000
#
# Coordination Sequence:
#
# PCOD9297775 Si02
#       8
#     8   4   8   8   8   8   8   8
#     4  12  23  40  62  89 135 176 210 261 329 387
#     4  10  24  44  74  96 120 164 224 288 352 396
#     4  11  21  44  69  92 129 165 214 285 336 396
#     4  10  24  42  66  99 123 161 220 271 338 409
#     4  11  24  39  60  99 134 173 226 266 320 392
#     4  12  23  37  60  95 138 180 216 258 307 389
#     4  11  22  37  57  86 131 181 216 258 311 380
#     4  11  21  36  60  89 121 167 218 253 315 378
#
# _framework density 20.011251999999999
#
# number of rings (size 3 to 8) (size 9 to 14) (size 15 to 20)
#    0.400    0.533    0.667    9.600    0.000    1.600 
#    0.000    0.667    0.000    2.400    0.000    0.000 
#    0.000    0.000    0.000    0.000    0.000    0.000 
#
# Total GULP energy -167409.541517 kJ/mol
# GULP energy per Si atom -5580.318051 kJ/mol
# Density = 1.996571 g / cm^3
# Si number density = 20.011252 Si / 1000 Ang^3
#
#
#
# Elastic Constant Matrix: (Units=GPa)
#
#
# Indices 1 2 3 4 5 6 
#
# 1 105.3176 34.9217 52.0428 0.0000 -8.3957 0.0000
# 2 34.9217 86.7195 43.8858 0.0000 5.7933 0.0000
# 3 52.0428 43.8858 142.6371 0.0000 -0.3159 0.0000
# 4 0.0000 0.0000 0.0000 21.6862 0.0000 6.9479
# 5 -8.3957 5.7933 -0.3159 0.0000 37.3163 0.0000
# 6 0.0000 0.0000 0.0000 6.9479 0.0000 31.3743
#
#
#
# Elastic Compliance Matrix: (Units=1/GPa)
#
#
# Indices 1 2 3 4 5 6 
#
# 1 0.012684 -0.003547 -0.003529 0.000000 0.003375 0.000000
# 2 -0.003547 0.014826 -0.003274 0.000000 -0.003128 0.000000
# 3 -0.003529 -0.003274 0.009305 0.000000 -0.000207 0.000000
# 4 0.000000 0.000000 0.000000 0.049634 0.000000 -0.010992
# 5 0.003375 -0.003128 -0.000207 0.000000 0.028041 0.000000
# 6 0.000000 0.000000 0.000000 -0.010992 0.000000 0.034307
#
#
# Mechanical properties :
#
#
# Convention : Reuss Voigt Hill
#
# Bulk Modulus (GPa) = 62.05719 66.26386 64.16053
# Shear Modulus (GPa) = 28.59261 31.66362 30.12812
#
# Velocity S-wave (km/s) = 3.78408 3.98212 3.88436
# Velocity P-wave (km/s) = 7.08314 7.37077 7.22838
#
# Compressibility (1/GPa) = 0.01611417
#
# Stress axis : x y z
#
# Youngs Moduli (GPa) = 78.83778 67.44983 107.46521
#
# Poissons Ratio (x) = 0.23927 0.37925
# Poissons Ratio (y) = 0.27967 0.35186
# Poissons Ratio (z) = 0.27822 0.22084
#
# Static dielectric constant tensor:
#      x y z
#    x 1.742860 0.000000 -0.003500 
#    y 0.000000 1.730130 0.000000 
#    z -0.003500 0.000000 1.753120 
# 
# From -- ./inp_files/81362.got.cif
#   From: 2010.05.17/outbox.cif.g08.bks.cpg/sg15_41_cif.got.tgz:81362.got - 2010.06.03 18:47:42.
