data_PCOD9297384
_publ_section_title
;
Structure prediction by ZEFSAII (Michael W. Deem and Ramdas Pophale) SiO2 
 PCOD9297384
Probable space group: C 2/C
;
_chemical_formula_sum "Si O2"
_cell_formula_units_Z 56
_cell_length_a 14.206031
_cell_length_b 8.464425
_cell_length_c 20.142450
_cell_angle_alpha 90.000000
_cell_angle_beta 82.824452
_cell_angle_gamma 90.000000
_cell_volume 2403.077476
_symmetry_space_group_name_H-M "C 2/C"
_symmetry_group_IT_number 15
_symmetry_cell_setting 'monoclinic'
loop_
_space_group_symop_operation_xyz
x,y,z
-x,y,1/2-z
-x,-y,-z
x,-y,1/2+z
1/2+x,1/2+y,z
1/2-x,1/2+y,1/2-z
1/2-x,1/2-y,-z
1/2+x,1/2-y,1/2+z
loop_
_atom_site_type_symbol
_atom_site_label
_atom_site_fract_x
_atom_site_fract_y
_atom_site_fract_z
Si Si1 0.900058 0.562610 0.981941
Si Si2 0.580889 0.605243 0.959371
Si Si3 0.946156 0.889641 0.357260
Si Si4 0.500000 0.151077 0.250000
Si Si5 0.748282 0.485618 0.603981
Si Si6 0.772760 0.396476 0.376985
Si Si7 0.653854 0.913639 0.271899
Si Si8 0.000000 0.845107 0.750000
O O1 0.865439 0.543833 0.909337
O O2 0.897312 0.750664 0.994189
O O3 0.821385 0.492840 0.038061
O O4 0.000000 0.500000 0.000000
O O5 0.528418 0.668740 0.898194
O O6 0.679879 0.537279 0.923126
O O7 0.500000 0.500000 0.000000
O O8 0.935217 0.760197 0.301616
O O9 0.851424 0.934126 0.403903
O O10 0.977056 0.046693 0.315196
O O11 0.571457 0.044245 0.284959
O O12 0.736754 0.296052 0.617595
O O13 0.785723 0.571093 0.667125
O O14 0.782451 0.440992 0.299268
O O15 0.592040 0.757852 0.261169
#
# Coordination Sequence:
#
# PCOD9297384 Si02
#       8
#     8   8   8   4   8   8   8   4
#     4  11  26  47  71  97 137 185 233 283 346 409
#     4  11  24  43  69  96 134 181 230 281 341 404
#     4  11  23  42  67  97 139 177 226 277 344 405
#     4  10  24  40  62  96 142 168 222 280 338 396
#     4  11  24  43  71 101 136 180 230 277 344 408
#     4  11  24  45  72  98 138 181 230 282 344 408
#     4  11  25  41  70 102 137 177 231 280 345 411
#     4  10  24  42  68  94 142 180 220 276 358 402
#
# _framework density 23.303452
#
# number of rings (size 3 to 8) (size 9 to 14) (size 15 to 20)
#    0.000    1.143    1.429    5.143   12.000    0.000 
#    2.571    1.429    0.000    0.000    0.000    0.000 
#    0.000    0.000    0.000    0.000    0.000    0.000 
#
# Total GULP energy -156672.682079 kJ/mol
# GULP energy per Si atom -5595.452931 kJ/mol
# Density = 2.325041 g / cm^3
# Si number density = 23.303452 Si / 1000 Ang^3
#
#
#
# Elastic Constant Matrix: (Units=GPa)
#
#
# Indices 1 2 3 4 5 6 
#
# 1 111.0023 5.8007 17.9671 0.0000 -7.2326 0.0000
# 2 5.8007 36.6620 9.0350 0.0000 -11.1610 0.0000
# 3 17.9671 9.0350 87.6923 0.0000 10.3872 0.0000
# 4 0.0000 0.0000 0.0000 27.6112 0.0000 -1.9486
# 5 -7.2326 -11.1610 10.3872 0.0000 55.5657 0.0000
# 6 0.0000 0.0000 0.0000 -1.9486 0.0000 24.4080
#
#
#
# Elastic Compliance Matrix: (Units=1/GPa)
#
#
# Indices 1 2 3 4 5 6 
#
# 1 0.009469 -0.000529 -0.002065 0.000000 0.001512 0.000000
# 2 -0.000529 0.030353 -0.003817 0.000000 0.006742 0.000000
# 3 -0.002065 -0.003817 0.012622 0.000000 -0.003395 0.000000
# 4 0.000000 0.000000 0.000000 0.036422 0.000000 0.002908
# 5 0.001512 0.006742 -0.003395 0.000000 0.020182 0.000000
# 6 0.000000 0.000000 0.000000 0.002908 0.000000 0.041202
#
#
# Mechanical properties :
#
#
# Convention : Reuss Voigt Hill
#
# Bulk Modulus (GPa) = 25.23860 33.44023 29.33941
# Shear Modulus (GPa) = 28.36383 35.02059 31.69221
#
# Velocity S-wave (km/s) = 3.49255 3.88081 3.69179
# Velocity P-wave (km/s) = 5.20748 5.87043 5.54887
#
# Compressibility (1/GPa) = 0.03962185
#
# Stress axis : x y z
#
# Youngs Moduli (GPa) = 105.60554 32.94565 79.22677
#
# Poissons Ratio (x) = 0.01743 0.16358
# Poissons Ratio (y) = 0.05587 0.30244
# Poissons Ratio (z) = 0.21805 0.12577
#
# Static dielectric constant tensor:
#      x y z
#    x 1.887740 0.000000 0.014310 
#    y 0.000000 1.879630 0.000000 
#    z 0.014310 0.000000 1.871450 
# 
# From -- ./inp_files/242858.got.cif
#   From: 2010.05.17/outbox.cif.g08.bks.cpg/sg15_122_cif.got.tgz:242858.got - 2010.06.03 18:47:42.
