data_PCOD9297951
_publ_section_title
;
Structure prediction by ZEFSAII (Michael W. Deem and Ramdas Pophale) SiO2 
 PCOD9297951
Probable space group: C 2/C
;
_chemical_formula_sum "Si O2"
_cell_formula_units_Z 52
_cell_length_a 16.783838
_cell_length_b 8.892306
_cell_length_c 15.205877
_cell_angle_alpha 90.000000
_cell_angle_beta 65.972131
_cell_angle_gamma 90.000000
_cell_volume 2072.779958
_symmetry_space_group_name_H-M "C 2/C"
_symmetry_group_IT_number 15
_symmetry_cell_setting 'monoclinic'
loop_
_space_group_symop_operation_xyz
x,y,z
-x,y,1/2-z
-x,-y,-z
x,-y,1/2+z
1/2+x,1/2+y,z
1/2-x,1/2+y,1/2-z
1/2-x,1/2-y,-z
1/2+x,1/2-y,1/2+z
loop_
_atom_site_type_symbol
_atom_site_label
_atom_site_fract_x
_atom_site_fract_y
_atom_site_fract_z
Si Si1 0.588783 0.057098 0.160845
Si Si2 0.000000 0.500000 0.500000
Si Si3 0.398759 0.709896 0.559647
Si Si4 0.729642 0.535730 0.326418
Si Si5 0.662947 0.185056 0.964374
Si Si6 0.941304 0.770028 0.863205
Si Si7 0.738586 0.598222 0.118989
O O1 0.500000 0.098336 0.250000
O O2 0.672327 0.000140 0.180507
O O3 0.559549 0.911538 0.113624
O O4 0.626141 0.183401 0.079784
O O5 0.954651 0.347522 0.570955
O O6 0.911202 0.599349 0.557711
O O7 0.346721 0.590753 0.641385
O O8 0.455482 0.649765 0.450903
O O9 0.314886 0.791991 0.553123
O O10 0.690985 0.662545 0.407495
O O11 0.741923 0.593864 0.222756
O O12 0.742213 0.066158 0.927032
O O13 0.852020 0.837569 0.869664
O O14 0.000000 0.781330 0.750000
#
# Coordination Sequence:
#
# PCOD9297951 Si02
#       7
#     8   4   8   8   8   8   8
#     4  11  24  43  71 102 136 190 244 292 359 426
#     4  10  24  42  74 100 130 186 238 288 346 420
#     4  11  23  45  73  98 145 185 235 287 358 423
#     4  12  26  42  70 105 143 187 233 299 369 420
#     4  11  25  44  68  97 144 181 237 293 357 428
#     4  11  23  42  73 101 132 188 245 289 349 439
#     4  11  23  43  68 101 135 184 239 288 349 432
#
# _framework density 25.087081000000001
#
# number of rings (size 3 to 8) (size 9 to 14) (size 15 to 20)
#    0.000    0.923    4.615    2.769    6.462    0.615 
#    0.000    1.538    0.000    0.000    0.000    0.000 
#    0.000    0.000    0.000    0.000    0.000    0.000 
#
# Total GULP energy -144849.562380 kJ/mol
# GULP energy per Si atom -5571.137015 kJ/mol
# Density = 2.502998 g / cm^3
# Si number density = 25.087081 Si / 1000 Ang^3
#
#
#
# Elastic Constant Matrix: (Units=GPa)
#
#
# Indices 1 2 3 4 5 6 
#
# 1 79.4412 29.3503 21.4401 0.0000 -23.0092 0.0000
# 2 29.3503 76.4905 31.1748 0.0000 -34.9998 0.0000
# 3 21.4401 31.1748 171.2482 0.0000 -21.6973 0.0000
# 4 0.0000 0.0000 0.0000 21.0446 0.0000 -2.1068
# 5 -23.0092 -34.9998 -21.6973 0.0000 42.7368 0.0000
# 6 0.0000 0.0000 0.0000 -2.1068 0.0000 30.1180
#
#
#
# Elastic Compliance Matrix: (Units=1/GPa)
#
#
# Indices 1 2 3 4 5 6 
#
# 1 0.015516 -0.003219 -0.000676 0.000000 0.005374 0.000000
# 2 -0.003219 0.022079 -0.001651 0.000000 0.015510 0.000000
# 3 -0.000676 -0.001651 0.006420 0.000000 0.001544 0.000000
# 4 0.000000 0.000000 0.000000 0.047853 0.000000 0.003347
# 5 0.005374 0.015510 0.001544 0.000000 0.039778 0.000000
# 6 0.000000 0.000000 0.000000 0.003347 0.000000 0.033437
#
#
# Mechanical properties :
#
#
# Convention : Reuss Voigt Hill
#
# Bulk Modulus (GPa) = 30.37374 54.56781 42.47077
# Shear Modulus (GPa) = 26.71652 35.12754 30.92203
#
# Velocity S-wave (km/s) = 3.26690 3.74602 3.51463
# Velocity P-wave (km/s) = 5.13457 6.36465 5.78241
#
# Compressibility (1/GPa) = 0.03292317
#
# Stress axis : x y z
#
# Youngs Moduli (GPa) = 64.44845 45.29256 155.75811
#
# Poissons Ratio (x) = 0.14581 0.10524
# Poissons Ratio (y) = 0.20748 0.25717
# Poissons Ratio (z) = 0.04354 0.07478
#
# Static dielectric constant tensor:
#      x y z
#    x 1.726020 0.000000 -0.107800 
#    y 0.000000 1.942010 0.000000 
#    z -0.107800 0.000000 1.985570 
# 
# From -- ./inp_files/209468.got.cif
#   From: 2010.05.17/outbox.cif.g08.bks.cpg/sg15_105_cif.got.tgz:209468.got - 2010.06.03 18:47:42.
