data_PCOD9297268
_publ_section_title
;
Structure prediction by ZEFSAII (Michael W. Deem and Ramdas Pophale) SiO2 
 PCOD9297268
Probable space group: C 2/C
;
_chemical_formula_sum "Si O2"
_cell_formula_units_Z 40
_cell_length_a 11.956464
_cell_length_b 22.496549
_cell_length_c 9.210216
_cell_angle_alpha 90.000000
_cell_angle_beta 47.343130
_cell_angle_gamma 90.000000
_cell_volume 1821.909479
_symmetry_space_group_name_H-M "C 2/C"
_symmetry_group_IT_number 15
_symmetry_cell_setting 'monoclinic'
loop_
_space_group_symop_operation_xyz
x,y,z
-x,y,1/2-z
-x,-y,-z
x,-y,1/2+z
1/2+x,1/2+y,z
1/2-x,1/2+y,1/2-z
1/2-x,1/2-y,-z
1/2+x,1/2-y,1/2+z
loop_
_atom_site_type_symbol
_atom_site_label
_atom_site_fract_x
_atom_site_fract_y
_atom_site_fract_z
Si Si1 0.000000 0.749321 0.750000
Si Si2 0.256295 0.336274 0.581686
Si Si3 0.332704 0.559942 0.826053
Si Si4 0.500000 0.258966 0.250000
Si Si5 0.836737 0.941922 0.976443
Si Si6 0.277770 0.164809 0.079992
O O1 0.865024 0.790627 0.810911
O O2 0.074335 0.705444 0.566829
O O3 0.244810 0.381289 0.457418
O O4 0.418991 0.303367 0.433287
O O5 0.235728 0.367534 0.753728
O O6 0.132334 0.284193 0.686986
O O7 0.500000 0.566770 0.750000
O O8 0.269897 0.500848 0.959391
O O9 0.349998 0.552270 0.638380
O O10 0.736790 0.884227 0.030866
O O11 0.000000 0.932796 0.750000
#
# Coordination Sequence:
#
# PCOD9297268 Si02
#       6
#     4   8   8   4   8   8
#     4  10  24  38  62  92 128 164 206 248 306 362
#     4  11  22  40  63  92 126 164 206 253 303 365
#     4  11  22  38  62  90 121 159 204 255 307 364
#     4  10  24  38  62  92 128 164 206 248 306 362
#     4  11  22  38  62  90 121 159 204 255 307 364
#     4  11  22  40  63  92 126 164 206 253 303 365
#
# _framework density 21.954986000000002
#
# number of rings (size 3 to 8) (size 9 to 14) (size 15 to 20)
#    0.000    1.200    2.000    6.000    0.000    8.000 
#    0.000    1.000    0.000    4.800    0.000    0.000 
#    0.000    0.000    0.000    0.000    0.000    0.000 
#
# Total GULP energy -111694.264296 kJ/mol
# GULP energy per Si atom -5584.713215 kJ/mol
# Density = 2.190502 g / cm^3
# Si number density = 21.954986 Si / 1000 Ang^3
#
#
#
# Elastic Constant Matrix: (Units=GPa)
#
#
# Indices 1 2 3 4 5 6 
#
# 1 30.4091 22.2995 45.5031 0.0000 16.2743 0.0000
# 2 22.2995 122.4718 49.2713 0.0000 9.6319 0.0000
# 3 45.5031 49.2713 136.7805 0.0000 41.2115 0.0000
# 4 0.0000 0.0000 0.0000 11.9801 0.0000 22.6567
# 5 16.2743 9.6319 41.2115 0.0000 50.5486 0.0000
# 6 0.0000 0.0000 0.0000 22.6567 0.0000 6.3498
#
#
#
# Elastic Compliance Matrix: (Units=1/GPa)
#
#
# Indices 1 2 3 4 5 6 
#
# 1 0.067924 -0.004087 -0.019579 0.000000 -0.005127 0.000000
# 2 -0.004087 0.009860 -0.002681 0.000000 0.001623 0.000000
# 3 -0.019579 -0.002681 0.016885 0.000000 -0.006951 0.000000
# 4 0.000000 0.000000 0.000000 -0.014522 0.000000 0.051816
# 5 -0.005127 0.001623 -0.006951 0.000000 0.026792 0.000000
# 6 0.000000 0.000000 0.000000 0.051816 0.000000 -0.027398
#
#
# Mechanical properties :
#
#
# Convention : Reuss Voigt Hill
#
# Bulk Modulus (GPa) = 23.82481 58.20104 41.01293
# Shear Modulus (GPa) = 34.19349 25.28154 29.73751
#
# Velocity S-wave (km/s) = 3.95072 3.39708 3.68431
# Velocity P-wave (km/s) = 5.62904 6.47717 6.06794
#
# Compressibility (1/GPa) = 0.04197305
#
# Stress axis : x y z
#
# Youngs Moduli (GPa) = 14.72240 101.41590 59.22513
#
# Poissons Ratio (x) = 0.41452 1.15959
# Poissons Ratio (y) = 0.06018 0.15879
# Poissons Ratio (z) = 0.28826 0.27191
#
# Static dielectric constant tensor:
#      x y z
#    x 1.820740 0.000000 0.009910 
#    y 0.000000 1.820220 0.000000 
#    z 0.009910 0.000000 1.832350 
# 
# From -- ./inp_files/31791.got.cif
#   From: 2010.05.17/outbox.cif.g08.bks.cpg/sg15_16_cif.got.tgz:31791.got - 2010.06.03 18:47:42.
