data_PCOD9297377
_publ_section_title
;
Structure prediction by ZEFSAII (Michael W. Deem and Ramdas Pophale) SiO2 
 PCOD9297377
Probable space group: C 2/C
;
_chemical_formula_sum "Si O2"
_cell_formula_units_Z 52
_cell_length_a 30.010478
_cell_length_b 14.777300
_cell_length_c 4.847640
_cell_angle_alpha 90.000000
_cell_angle_beta 65.735737
_cell_angle_gamma 90.000000
_cell_volume 1959.887555
_symmetry_space_group_name_H-M "C 2/C"
_symmetry_group_IT_number 15
_symmetry_cell_setting 'monoclinic'
loop_
_space_group_symop_operation_xyz
x,y,z
-x,y,1/2-z
-x,-y,-z
x,-y,1/2+z
1/2+x,1/2+y,z
1/2-x,1/2+y,1/2-z
1/2-x,1/2-y,-z
1/2+x,1/2-y,1/2+z
loop_
_atom_site_type_symbol
_atom_site_label
_atom_site_fract_x
_atom_site_fract_y
_atom_site_fract_z
Si Si1 0.212697 0.935103 0.977762
Si Si2 0.555844 0.188242 0.999661
Si Si3 0.863619 0.443356 0.028177
Si Si4 0.052173 0.062403 0.410757
Si Si5 0.362829 0.327961 0.698850
Si Si6 0.208446 0.313078 0.975604
Si Si7 0.500000 0.276065 0.750000
O O1 0.170165 0.872004 0.955515
O O2 0.262004 0.876518 0.808133
O O3 0.212064 0.025301 0.786314
O O4 0.500000 0.189320 0.250000
O O5 0.585163 0.099201 0.003774
O O6 0.592171 0.265999 0.024760
O O7 0.545388 0.207636 0.699938
O O8 0.859828 0.535228 0.216619
O O9 0.820286 0.378076 0.239953
O O10 0.107905 0.093570 0.223641
O O11 0.018935 0.147962 0.418838
O O12 0.046267 0.023035 0.728232
O O13 0.332712 0.262660 0.981309
O O14 0.250000 0.250000 0.000000
#
# Coordination Sequence:
#
# PCOD9297377 Si02
#       7
#     8   8   8   8   8   8   4
#     4  11  22  41  67  95 130 168 213 268 326 396
#     4  10  24  44  67  93 132 180 225 274 333 396
#     4  11  25  46  70 101 137 176 224 283 331 389
#     4  11  23  39  61  89 124 167 212 265 324 382
#     4   9  21  42  62  95 131 171 217 270 325 397
#     4   9  20  43  68 101 132 176 216 267 333 400
#     4  10  24  40  62  90 126 168 222 276 322 394
#
# _framework density 26.532133999999999
#
# number of rings (size 3 to 8) (size 9 to 14) (size 15 to 20)
#    0.000    1.846    0.000    2.308    6.462    0.615 
#    2.769   18.462    0.000    0.000    0.000    0.000 
#    0.000    0.000    0.000    0.000    0.000    0.000 
#
# Total GULP energy -145241.937718 kJ/mol
# GULP energy per Si atom -5586.228374 kJ/mol
# Density = 2.647175 g / cm^3
# Si number density = 26.532134 Si / 1000 Ang^3
#
#
#
# Elastic Constant Matrix: (Units=GPa)
#
#
# Indices 1 2 3 4 5 6 
#
# 1 167.0262 46.4506 39.6028 0.0000 -22.8711 0.0000
# 2 46.4506 82.4747 6.0902 0.0000 -11.4400 0.0000
# 3 39.6028 6.0902 69.1963 0.0000 -7.8786 0.0000
# 4 0.0000 0.0000 0.0000 22.8371 0.0000 -22.7605
# 5 -22.8711 -11.4400 -7.8786 0.0000 39.1825 0.0000
# 6 0.0000 0.0000 0.0000 -22.7605 0.0000 59.8016
#
#
#
# Elastic Compliance Matrix: (Units=1/GPa)
#
#
# Indices 1 2 3 4 5 6 
#
# 1 0.008515 -0.004079 -0.004180 0.000000 0.002939 0.000000
# 2 -0.004079 0.014625 0.001292 0.000000 0.002149 0.000000
# 3 -0.004180 0.001292 0.016882 0.000000 0.001332 0.000000
# 4 0.000000 0.000000 0.000000 0.070550 0.000000 0.026851
# 5 0.002939 0.002149 0.001332 0.000000 0.028132 0.000000
# 6 0.000000 0.000000 0.000000 0.026851 0.000000 0.026942
#
#
# Mechanical properties :
#
#
# Convention : Reuss Voigt Hill
#
# Bulk Modulus (GPa) = 38.33181 55.88715 47.10948
# Shear Modulus (GPa) = 26.55686 39.46780 33.01233
#
# Velocity S-wave (km/s) = 3.16718 3.86106 3.53120
# Velocity P-wave (km/s) = 5.27763 6.40209 5.86686
#
# Compressibility (1/GPa) = 0.02608799
#
# Stress axis : x y z
#
# Youngs Moduli (GPa) = 117.43912 68.37534 59.23557
#
# Poissons Ratio (x) = 0.27894 0.24759
# Poissons Ratio (y) = 0.47909 -0.07655
# Poissons Ratio (z) = 0.49086 -0.08836
#
# Static dielectric constant tensor:
#      x y z
#    x 2.109160 0.000000 -0.014540 
#    y 0.000000 2.092980 0.000000 
#    z -0.014540 0.000000 2.337010 
# 
# From -- ./inp_files/18202.got.cif
#   From: 2010.05.17/outbox.cif.g08.bks.cpg/sg15_10_cif.got.tgz:18202.got - 2010.06.03 18:47:42.
