data_PCOD9297934
_publ_section_title
;
Structure prediction by ZEFSAII (Michael W. Deem and Ramdas Pophale) SiO2 
 PCOD9297934
Probable space group: C 2/C
;
_chemical_formula_sum "Si O2"
_cell_formula_units_Z 56
_cell_length_a 15.490950
_cell_length_b 17.828753
_cell_length_c 7.505546
_cell_angle_alpha 90.000000
_cell_angle_beta 92.886117
_cell_angle_gamma 90.000000
_cell_volume 2070.284816
_symmetry_space_group_name_H-M "C 2/C"
_symmetry_group_IT_number 15
_symmetry_cell_setting 'monoclinic'
loop_
_space_group_symop_operation_xyz
x,y,z
-x,y,1/2-z
-x,-y,-z
x,-y,1/2+z
1/2+x,1/2+y,z
1/2-x,1/2+y,1/2-z
1/2-x,1/2-y,-z
1/2+x,1/2-y,1/2+z
loop_
_atom_site_type_symbol
_atom_site_label
_atom_site_fract_x
_atom_site_fract_y
_atom_site_fract_z
Si Si1 0.185792 0.879947 0.402023
Si Si2 0.500000 0.071034 0.750000
Si Si3 0.117212 0.391137 0.990223
Si Si4 0.855119 0.597832 0.427068
Si Si5 0.047590 0.244525 0.912741
Si Si6 0.322629 0.470003 0.466516
Si Si7 0.577909 0.342158 0.893039
Si Si8 0.750000 0.250000 0.000000
O O1 0.286102 0.870541 0.446192
O O2 0.135153 0.802364 0.398734
O O3 0.156669 0.942322 0.541008
O O4 0.176249 0.922547 0.214144
O O5 0.571083 0.046396 0.605843
O O6 0.426338 0.095188 0.592001
O O7 0.117981 0.408588 0.779517
O O8 0.068028 0.313908 0.042148
O O9 0.773760 0.542156 0.463323
O O10 0.811919 0.680704 0.442383
O O11 0.000000 0.288146 0.750000
O O12 0.973597 0.183610 0.938063
O O13 0.393396 0.427571 0.591382
O O14 0.500000 0.327218 0.750000
O O15 0.664604 0.292968 0.895156
#
# Coordination Sequence:
#
# PCOD9297934 Si02
#       8
#     8   4   8   8   8   8   8   4
#     4  12  27  49  78 107 153 214 268 327 401 482
#     4  12  24  46  74 110 150 204 258 326 404 472
#     4  12  27  46  76 114 157 206 264 333 407 484
#     4  11  25  45  74 109 154 205 263 328 401 476
#     4  12  26  46  71 116 154 197 259 325 402 479
#     4  11  26  51  75 107 154 208 270 326 393 487
#     4  11  26  43  72 113 152 209 260 325 400 475
#     4  10  24  42  72 110 160 204 258 322 398 478
#
# _framework density 27.049420000000001
#
# number of rings (size 3 to 8) (size 9 to 14) (size 15 to 20)
#    0.000    0.571    2.857    4.286   12.000    1.143 
#    0.000    0.714    1.571    0.000    0.000    0.000 
#    0.000    0.000    0.000    0.000    0.000    0.000 
#
# Total GULP energy -155873.256841 kJ/mol
# GULP energy per Si atom -5566.902030 kJ/mol
# Density = 2.698785 g / cm^3
# Si number density = 27.049420 Si / 1000 Ang^3
#
#
#
# Elastic Constant Matrix: (Units=GPa)
#
#
# Indices 1 2 3 4 5 6 
#
# 1 179.1352 36.3444 52.7040 0.0000 47.4147 0.0000
# 2 36.3444 84.7506 2.5902 0.0000 19.6417 0.0000
# 3 52.7040 2.5902 148.9446 0.0000 6.1150 0.0000
# 4 0.0000 0.0000 0.0000 4.0540 0.0000 0.4183
# 5 47.4147 19.6417 6.1150 0.0000 37.8253 0.0000
# 6 0.0000 0.0000 0.0000 0.4183 0.0000 -228.8727
#
#
#
# Elastic Compliance Matrix: (Units=1/GPa)
#
#
# Indices 1 2 3 4 5 6 
#
# 1 0.009607 -0.001534 -0.002931 0.000000 -0.010772 0.000000
# 2 -0.001534 0.013659 0.000521 0.000000 -0.005254 0.000000
# 3 -0.002931 0.000521 0.007653 0.000000 0.002166 0.000000
# 4 0.000000 0.000000 0.000000 0.246622 0.000000 0.000451
# 5 -0.010772 -0.005254 0.002166 0.000000 0.042319 0.000000
# 6 0.000000 0.000000 0.000000 0.000451 0.000000 -0.004368
#
#
# Mechanical properties :
#
#
# Convention : Reuss Voigt Hill
#
# Bulk Modulus (GPa) = 43.41756 66.23419 54.82588
# Shear Modulus (GPa) = 15.10321 -15.98588 -0.44134
#
# Velocity S-wave (km/s) = 2.36552 -2.43366 -0.40437
# Velocity P-wave (km/s) = 4.85252 4.07953 4.48272
#
# Compressibility (1/GPa) = 0.02303216
#
# Stress axis : x y z
#
# Youngs Moduli (GPa) = 104.08995 73.21251 130.66955
#
# Poissons Ratio (x) = 0.11229 0.38293
# Poissons Ratio (y) = 0.15964 -0.06806
# Poissons Ratio (z) = 0.30504 -0.03814
#
# Static dielectric constant tensor:
#      x y z
#    x 2.055750 0.000000 -0.199050 
#    y 0.000000 2.093680 0.000000 
#    z -0.199050 0.000000 3.862610 
# 
# From -- ./inp_files/41289.got.cif
#   From: 2010.05.17/outbox.cif.g08.bks.cpg/sg15_21_cif.got.tgz:41289.got - 2010.06.03 18:47:42.
