data_PCOD9297614
_publ_section_title
;
Structure prediction by ZEFSAII (Michael W. Deem and Ramdas Pophale) SiO2 
 PCOD9297614
Probable space group: C 2/C
;
_chemical_formula_sum "Si O2"
_cell_formula_units_Z 52
_cell_length_a 32.794372
_cell_length_b 8.742337
_cell_length_c 8.431186
_cell_angle_alpha 90.000000
_cell_angle_beta 60.832480
_cell_angle_gamma 90.000000
_cell_volume 2110.709729
_symmetry_space_group_name_H-M "C 2/C"
_symmetry_group_IT_number 15
_symmetry_cell_setting 'monoclinic'
loop_
_space_group_symop_operation_xyz
x,y,z
-x,y,1/2-z
-x,-y,-z
x,-y,1/2+z
1/2+x,1/2+y,z
1/2-x,1/2+y,1/2-z
1/2-x,1/2-y,-z
1/2+x,1/2-y,1/2+z
loop_
_atom_site_type_symbol
_atom_site_label
_atom_site_fract_x
_atom_site_fract_y
_atom_site_fract_z
Si Si1 0.435874 0.646734 0.154253
Si Si2 0.500000 0.427709 0.250000
Si Si3 0.248843 0.600579 0.393892
Si Si4 0.398652 0.830097 0.778762
Si Si5 0.054168 0.586221 0.622651
Si Si6 0.346900 0.671799 0.121907
Si Si7 0.813233 0.521724 0.257748
O O1 0.462987 0.529837 0.220176
O O2 0.431031 0.798090 0.267337
O O3 0.384578 0.616650 0.179920
O O4 0.470509 0.662458 0.937449
O O5 0.250000 0.750000 0.500000
O O6 0.298973 0.576938 0.219249
O O7 0.204427 0.610358 0.362282
O O8 0.232307 0.469835 0.544030
O O9 0.436815 0.834079 0.565216
O O10 0.417686 0.933293 0.887657
O O11 0.355899 0.906735 0.768066
O O12 0.376173 0.682033 0.903318
O O13 0.000000 0.555013 0.750000
O O14 0.328238 0.847082 0.187050
#
# Coordination Sequence:
#
# PCOD9297614 Si02
#       7
#     8   4   8   8   8   8   8
#     4  11  24  46  72  99 135 187 227 289 344 411
#     4  10  26  48  72  96 144 178 240 284 342 424
#     4  10  24  41  68  99 137 182 229 286 351 415
#     4  12  23  41  70 104 146 180 225 290 339 425
#     4  12  24  41  68 107 143 183 229 282 353 408
#     4  11  24  42  69  99 136 184 230 284 345 413
#     4  11  20  45  67  97 140 177 228 286 341 411
#
# _framework density 24.636263
#
# number of rings (size 3 to 8) (size 9 to 14) (size 15 to 20)
#    0.000    0.923    5.385    0.462    4.308    1.846 
#    1.385    0.000    0.000    0.000    0.000    0.000 
#    0.000    0.000    0.000    0.000    0.000    0.000 
#
# Total GULP energy -145323.424549 kJ/mol
# GULP energy per Si atom -5589.362483 kJ/mol
# Density = 2.458019 g / cm^3
# Si number density = 24.636263 Si / 1000 Ang^3
#
#
#
# Elastic Constant Matrix: (Units=GPa)
#
#
# Indices 1 2 3 4 5 6 
#
# 1 164.0105 26.3234 39.0339 0.0000 -8.9202 0.0000
# 2 26.3234 37.6763 27.2475 0.0000 0.4630 0.0000
# 3 39.0339 27.2475 159.9240 0.0000 -12.0601 0.0000
# 4 0.0000 0.0000 0.0000 18.5740 0.0000 0.9463
# 5 -8.9202 0.4630 -12.0601 0.0000 46.7521 0.0000
# 6 0.0000 0.0000 0.0000 0.9463 0.0000 35.8303
#
#
#
# Elastic Compliance Matrix: (Units=1/GPa)
#
#
# Indices 1 2 3 4 5 6 
#
# 1 0.007065 -0.004296 -0.000905 0.000000 0.001157 0.000000
# 2 -0.004296 0.033011 -0.004755 0.000000 -0.002373 0.000000
# 3 -0.000905 -0.004755 0.007419 0.000000 0.001788 0.000000
# 4 0.000000 0.000000 0.000000 0.053911 0.000000 -0.001424
# 5 0.001157 -0.002373 0.001788 0.000000 0.022095 0.000000
# 6 0.000000 0.000000 0.000000 -0.001424 0.000000 0.027947
#
#
# Mechanical properties :
#
#
# Convention : Reuss Voigt Hill
#
# Bulk Modulus (GPa) = 36.25373 60.75784 48.50578
# Shear Modulus (GPa) = 27.69254 38.16499 32.92877
#
# Velocity S-wave (km/s) = 3.35633 3.94018 3.65992
# Velocity P-wave (km/s) = 5.45596 6.73910 6.13119
#
# Compressibility (1/GPa) = 0.02758337
#
# Stress axis : x y z
#
# Youngs Moduli (GPa) = 141.54291 30.29295 134.79100
#
# Poissons Ratio (x) = 0.13013 0.12202
# Poissons Ratio (y) = 0.60802 0.64091
# Poissons Ratio (z) = 0.12814 0.14404
#
# Static dielectric constant tensor:
#      x y z
#    x 1.892770 0.000000 0.004150 
#    y 0.000000 1.894360 0.000000 
#    z 0.004150 0.000000 2.060450 
# 
# From -- ./inp_files/65371.got.cif
#   From: 2010.05.17/outbox.cif.g08.bks.cpg/sg15_33_cif.got.tgz:65371.got - 2010.06.03 18:47:42.
