data_PCOD9297006
_publ_section_title
;
Structure prediction by ZEFSAII (Michael W. Deem and Ramdas Pophale) SiO2 
 PCOD9297006
Probable space group: C 2/C
;
_chemical_formula_sum "Si O2"
_cell_formula_units_Z 48
_cell_length_a 25.973603
_cell_length_b 6.886967
_cell_length_c 18.928233
_cell_angle_alpha 90.000000
_cell_angle_beta 139.527701
_cell_angle_gamma 90.000000
_cell_volume 2197.701608
_symmetry_space_group_name_H-M "C 2/C"
_symmetry_group_IT_number 15
_symmetry_cell_setting 'monoclinic'
loop_
_space_group_symop_operation_xyz
x,y,z
-x,y,1/2-z
-x,-y,-z
x,-y,1/2+z
1/2+x,1/2+y,z
1/2-x,1/2+y,1/2-z
1/2-x,1/2-y,-z
1/2+x,1/2-y,1/2+z
loop_
_atom_site_type_symbol
_atom_site_label
_atom_site_fract_x
_atom_site_fract_y
_atom_site_fract_z
Si Si1 0.352351 0.136172 0.896661
Si Si2 0.146611 0.868416 0.324567
Si Si3 0.790156 0.656977 0.445858
Si Si4 0.081439 0.103906 0.373114
Si Si5 0.510658 0.579951 0.932921
Si Si6 0.777220 0.550780 0.187110
O O1 0.285066 0.306105 0.837347
O O2 0.333558 0.974157 0.934119
O O3 0.341016 0.032709 0.809352
O O4 0.437275 0.227543 0.001675
O O5 0.186665 0.670101 0.340851
O O6 0.073638 0.897248 0.194066
O O7 0.214043 0.032464 0.387555
O O8 0.112599 0.906316 0.367389
O O9 0.855337 0.724425 0.570345
O O10 0.764489 0.861035 0.386164
O O11 0.000000 0.156792 0.250000
O O12 0.060924 0.057984 0.432778
O O13 0.500000 0.500000 0.000000
#
# Coordination Sequence:
#
# PCOD9297006 Si02
#       6
#     8   8   8   8   8   8
#     4  11  23  40  69 103 138 177 226 288 344 404
#     4  10  25  44  68 101 139 181 230 280 352 413
#     4  11  22  43  73  99 132 185 230 283 342 414
#     4  10  23  47  68  96 144 184 229 288 340 410
#     4  11  24  44  69  99 142 182 227 290 344 407
#     4  11  22  40  69 101 138 173 229 285 345 412
#
# _framework density 21.841000999999999
#
# number of rings (size 3 to 8) (size 9 to 14) (size 15 to 20)
#    0.000    1.333    3.333    1.500    4.667    1.333 
#    9.000    0.833    0.000    0.000    0.000    0.000 
#    0.000    0.000    0.000    0.000    0.000    0.000 
#
# Total GULP energy -134113.223401 kJ/mol
# GULP energy per Si atom -5588.050975 kJ/mol
# Density = 2.179129 g / cm^3
# Si number density = 21.841001 Si / 1000 Ang^3
#
#
#
# Elastic Constant Matrix: (Units=GPa)
#
#
# Indices 1 2 3 4 5 6 
#
# 1 103.8332 45.0079 58.7382 -0.0001 2.9982 -0.0001
# 2 45.0079 112.0107 48.9658 0.0003 21.1177 0.0003
# 3 58.7382 48.9658 103.8060 0.0002 14.6067 0.0002
# 4 -0.0001 0.0003 0.0002 39.6449 0.0001 8.4239
# 5 2.9982 21.1177 14.6067 0.0001 27.0260 0.0002
# 6 -0.0001 0.0003 0.0002 8.4239 0.0002 16.7557
#
#
#
# Elastic Compliance Matrix: (Units=1/GPa)
#
#
# Indices 1 2 3 4 5 6 
#
# 1 0.015532 -0.003902 -0.007722 0.000000 0.005499 0.000000
# 2 -0.003902 0.013356 -0.002905 0.000000 -0.008433 0.000000
# 3 -0.007722 -0.002905 0.016162 0.000000 -0.005608 0.000000
# 4 0.000000 0.000000 0.000000 0.028241 0.000000 -0.014198
# 5 0.005499 -0.008433 -0.005608 0.000000 0.046012 0.000000
# 6 0.000000 0.000000 0.000000 -0.014198 0.000000 0.066819
#
#
# Mechanical properties :
#
#
# Convention : Reuss Voigt Hill
#
# Bulk Modulus (GPa) = 62.53433 69.45263 65.99348
# Shear Modulus (GPa) = 22.67476 27.81453 25.24464
#
# Velocity S-wave (km/s) = 3.22557 3.57249 3.40345
# Velocity P-wave (km/s) = 6.52427 6.99179 6.76207
#
# Compressibility (1/GPa) = 0.01599122
#
# Stress axis : x y z
#
# Youngs Moduli (GPa) = 64.38492 74.87520 61.87258
#
# Poissons Ratio (x) = 0.29217 0.47776
# Poissons Ratio (y) = 0.25124 0.17976
# Poissons Ratio (z) = 0.49716 0.21754
#
# Static dielectric constant tensor:
#      x y z
#    x 1.826300 0.000000 0.015890 
#    y 0.000000 1.776140 0.000000 
#    z 0.015890 0.000000 1.855000 
# 
# From -- ./inp_files/258561.got.cif
#   From: 2010.05.17/outbox.cif.g08.bks.cpg/sg15_130_cif.got.tgz:258561.got - 2010.06.03 18:47:42.
