data_PCOD9297049
_publ_section_title
;
Structure prediction by ZEFSAII (Michael W. Deem and Ramdas Pophale) SiO2 
 PCOD9297049
Probable space group: C 2/C
;
_chemical_formula_sum "Si O2"
_cell_formula_units_Z 44
_cell_length_a 25.743107
_cell_length_b 5.597101
_cell_length_c 12.963418
_cell_angle_alpha 90.000000
_cell_angle_beta 67.479715
_cell_angle_gamma 90.000000
_cell_volume 1725.421702
_symmetry_space_group_name_H-M "C 2/C"
_symmetry_group_IT_number 15
_symmetry_cell_setting 'monoclinic'
loop_
_space_group_symop_operation_xyz
x,y,z
-x,y,1/2-z
-x,-y,-z
x,-y,1/2+z
1/2+x,1/2+y,z
1/2-x,1/2+y,1/2-z
1/2-x,1/2-y,-z
1/2+x,1/2-y,1/2+z
loop_
_atom_site_type_symbol
_atom_site_label
_atom_site_fract_x
_atom_site_fract_y
_atom_site_fract_z
Si Si1 0.259447 0.167351 0.802548
Si Si2 0.526195 0.305995 0.904903
Si Si3 0.500000 0.007264 0.750000
Si Si4 0.365154 0.049377 0.637375
Si Si5 0.602314 0.329216 0.241452
Si Si6 0.693393 0.641185 0.496856
O O1 0.251213 0.928626 0.736591
O O2 0.216444 0.103002 0.926625
O O3 0.327136 0.150946 0.763039
O O4 0.485181 0.162055 0.862203
O O5 0.570665 0.133224 0.925287
O O6 0.566307 0.442615 0.795314
O O7 0.500000 0.500000 0.000000
O O8 0.444863 0.856527 0.762758
O O9 0.333616 0.175842 0.565808
O O10 0.371488 0.775547 0.671339
O O11 0.648978 0.380256 0.121593
O O12 0.750000 0.750000 0.500000
#
# Coordination Sequence:
#
# PCOD9297049 Si02
#       6
#     8   8   4   8   8   8
#     4  10  23  47  72 110 157 203 254 319 388 470
#     4  11  27  47  76 109 150 204 257 330 394 470
#     4  10  26  48  74 114 150 196 266 320 396 480
#     4  10  25  44  73 109 149 197 256 320 388 466
#     4  11  25  48  74 109 153 196 261 316 400 473
#     4  11  24  45  76 109 148 206 253 324 391 476
#
# _framework density 25.501010999999998
#
# number of rings (size 3 to 8) (size 9 to 14) (size 15 to 20)
#    0.000    1.455    1.818    0.545   12.727    1.455 
#   13.091    4.545    0.000    0.000    0.000    0.000 
#    0.000    0.000    0.000    0.000    0.000    0.000 
#
# Total GULP energy -122939.414757 kJ/mol
# GULP energy per Si atom -5588.155216 kJ/mol
# Density = 2.544297 g / cm^3
# Si number density = 25.501011 Si / 1000 Ang^3
#
#
#
# Elastic Constant Matrix: (Units=GPa)
#
#
# Indices 1 2 3 4 5 6 
#
# 1 94.9978 11.9474 32.7899 0.0000 14.9416 0.0000
# 2 11.9474 96.6105 54.7075 0.0000 6.3814 0.0000
# 3 32.7899 54.7075 161.5689 0.0000 -25.0568 0.0000
# 4 0.0000 0.0000 0.0000 58.2878 0.0000 1.7837
# 5 14.9416 6.3814 -25.0568 0.0000 39.3556 0.0000
# 6 0.0000 0.0000 0.0000 1.7837 0.0000 40.5234
#
#
#
# Elastic Compliance Matrix: (Units=1/GPa)
#
#
# Indices 1 2 3 4 5 6 
#
# 1 0.013116 0.001378 -0.004366 0.000000 -0.007983 0.000000
# 2 0.001378 0.014061 -0.006075 0.000000 -0.006671 0.000000
# 3 -0.004366 -0.006075 0.010588 0.000000 0.009384 0.000000
# 4 0.000000 0.000000 0.000000 0.017179 0.000000 -0.000756
# 5 -0.007983 -0.006671 0.009384 0.000000 0.035496 0.000000
# 6 0.000000 0.000000 0.000000 -0.000756 0.000000 0.024710
#
#
# Mechanical properties :
#
#
# Convention : Reuss Voigt Hill
#
# Bulk Modulus (GPa) = 50.92341 61.34074 56.13207
# Shear Modulus (GPa) = 35.75885 44.54885 40.15385
#
# Velocity S-wave (km/s) = 3.74873 4.18418 3.97243
# Velocity P-wave (km/s) = 6.22493 6.88837 6.56504
#
# Compressibility (1/GPa) = 0.01963733
#
# Stress axis : x y z
#
# Youngs Moduli (GPa) = 76.24271 71.11635 94.44705
#
# Poissons Ratio (x) = -0.09799 0.41240
# Poissons Ratio (y) = -0.10505 0.57381
# Poissons Ratio (z) = 0.33291 0.43207
#
# Static dielectric constant tensor:
#      x y z
#    x 2.093650 0.000000 0.017520 
#    y 0.000000 2.118160 0.000000 
#    z 0.017520 0.000000 2.049370 
# 
# From -- ./inp_files/179628.got.cif
#   From: 2010.05.17/outbox.cif.g08.bks.cpg/sg15_90_cif.got.tgz:179628.got - 2010.06.03 18:47:42.
