data_PCOD9297081
_publ_section_title
;
Structure prediction by ZEFSAII (Michael W. Deem and Ramdas Pophale) SiO2 
 PCOD9297081
Probable space group: C 2/C
;
_chemical_formula_sum "Si O2"
_cell_formula_units_Z 40
_cell_length_a 12.244075
_cell_length_b 9.127452
_cell_length_c 14.120318
_cell_angle_alpha 90.000000
_cell_angle_beta 75.929995
_cell_angle_gamma 90.000000
_cell_volume 1530.704961
_symmetry_space_group_name_H-M "C 2/C"
_symmetry_group_IT_number 15
_symmetry_cell_setting 'monoclinic'
loop_
_space_group_symop_operation_xyz
x,y,z
-x,y,1/2-z
-x,-y,-z
x,-y,1/2+z
1/2+x,1/2+y,z
1/2-x,1/2+y,1/2-z
1/2-x,1/2-y,-z
1/2+x,1/2-y,1/2+z
loop_
_atom_site_type_symbol
_atom_site_label
_atom_site_fract_x
_atom_site_fract_y
_atom_site_fract_z
Si Si1 0.099445 0.846553 0.415025
Si Si2 0.000000 0.944310 0.250000
Si Si3 0.729398 0.392838 0.941353
Si Si4 0.697325 0.320552 0.738978
Si Si5 0.588630 0.084322 0.541334
Si Si6 0.000000 0.389583 0.250000
O O1 0.212212 0.760887 0.348895
O O2 0.075513 0.750414 0.512882
O O3 0.014481 0.851252 0.343644
O O4 0.117020 0.015110 0.441045
O O5 0.883093 0.042524 0.278161
O O6 0.758366 0.353933 0.825342
O O7 0.789082 0.518355 0.992284
O O8 0.750000 0.250000 0.000000
O O9 0.598641 0.203334 0.778087
O O10 0.559709 0.034326 0.652686
O O11 0.500000 0.000000 0.500000
#
# Coordination Sequence:
#
# PCOD9297081 Si02
#       6
#     8   4   8   8   8   4
#     4  11  25  51  79 113 155 212 254 328 398 465
#     4   9  24  45  80 120 155 203 270 322 387 479
#     4  11  25  47  75 112 147 201 258 318 392 473
#     4  10  23  47  76 110 153 202 255 329 387 459
#     4  12  28  45  76 113 154 205 259 320 391 477
#     4  11  24  49  68 110 153 193 258 320 383 463
#
# _framework density 26.131751999999999
#
# number of rings (size 3 to 8) (size 9 to 14) (size 15 to 20)
#    0.000    1.200    2.000    1.800    5.600    3.200 
#    7.200    4.000    0.000    1.200    0.000    0.000 
#    0.000    0.000    0.000    0.000    0.000    0.000 
#
# Total GULP energy -111523.948387 kJ/mol
# GULP energy per Si atom -5576.197419 kJ/mol
# Density = 2.607228 g / cm^3
# Si number density = 26.131752 Si / 1000 Ang^3
#
#
#
# Elastic Constant Matrix: (Units=GPa)
#
#
# Indices 1 2 3 4 5 6 
#
# 1 130.3844 38.0915 54.0020 0.0000 35.2000 0.0000
# 2 38.0915 110.3739 56.9023 0.0000 29.1920 0.0000
# 3 54.0020 56.9023 117.4061 0.0000 27.4133 0.0000
# 4 0.0000 0.0000 0.0000 34.8342 0.0000 25.0502
# 5 35.2000 29.1920 27.4133 0.0000 47.3047 0.0000
# 6 0.0000 0.0000 0.0000 25.0502 0.0000 37.9011
#
#
#
# Elastic Compliance Matrix: (Units=1/GPa)
#
#
# Indices 1 2 3 4 5 6 
#
# 1 0.010760 -0.000440 -0.003388 0.000000 -0.005771 0.000000
# 2 -0.000440 0.013071 -0.005003 0.000000 -0.004840 0.000000
# 3 -0.003388 -0.005003 0.012942 0.000000 -0.001892 0.000000
# 4 0.000000 0.000000 0.000000 0.054712 0.000000 -0.036161
# 5 -0.005771 -0.004840 -0.001892 0.000000 0.029517 0.000000
# 6 0.000000 0.000000 0.000000 -0.036161 0.000000 0.050285
#
#
# Mechanical properties :
#
#
# Convention : Reuss Voigt Hill
#
# Bulk Modulus (GPa) = 52.32561 72.90621 62.61591
# Shear Modulus (GPa) = 25.59926 37.95256 31.77591
#
# Velocity S-wave (km/s) = 3.13329 3.81511 3.49089
# Velocity P-wave (km/s) = 5.75823 6.88235 6.34524
#
# Compressibility (1/GPa) = 0.01911110
#
# Stress axis : x y z
#
# Youngs Moduli (GPa) = 92.94060 76.50491 77.26729
#
# Poissons Ratio (x) = 0.03367 0.26179
# Poissons Ratio (y) = 0.04091 0.38653
# Poissons Ratio (z) = 0.31489 0.38272
#
# Static dielectric constant tensor:
#      x y z
#    x 2.176440 0.000000 0.007000 
#    y 0.000000 2.105640 0.000000 
#    z 0.007000 0.000000 2.629580 
# 
# From -- ./inp_files/195120.got.cif
#   From: 2010.05.17/outbox.cif.g08.bks.cpg/sg15_98_cif.got.tgz:195120.got - 2010.06.03 18:47:42.
