data_PCOD9297460
_publ_section_title
;
Structure prediction by ZEFSAII (Michael W. Deem and Ramdas Pophale) SiO2 
 PCOD9297460
Probable space group: C 2/C
;
_chemical_formula_sum "Si O2"
_cell_formula_units_Z 44
_cell_length_a 16.089247
_cell_length_b 15.471429
_cell_length_c 7.779890
_cell_angle_alpha 90.000000
_cell_angle_beta 85.177232
_cell_angle_gamma 90.000000
_cell_volume 1929.742087
_symmetry_space_group_name_H-M "C 2/C"
_symmetry_group_IT_number 15
_symmetry_cell_setting 'monoclinic'
loop_
_space_group_symop_operation_xyz
x,y,z
-x,y,1/2-z
-x,-y,-z
x,-y,1/2+z
1/2+x,1/2+y,z
1/2-x,1/2+y,1/2-z
1/2-x,1/2-y,-z
1/2+x,1/2-y,1/2+z
loop_
_atom_site_type_symbol
_atom_site_label
_atom_site_fract_x
_atom_site_fract_y
_atom_site_fract_z
Si Si1 0.593752 0.705260 0.877320
Si Si2 0.585560 0.836683 0.182968
Si Si3 0.849554 0.763993 0.496342
Si Si4 0.744217 0.398984 0.468589
Si Si5 0.157414 0.062369 0.317498
Si Si6 0.000000 0.953187 0.250000
O O1 0.538724 0.617498 0.876836
O O2 0.567615 0.763190 0.042397
O O3 0.399906 0.751063 0.809849
O O4 0.689608 0.675895 0.890300
O O5 0.500000 0.882390 0.250000
O O6 0.619749 0.792913 0.350243
O O7 0.659463 0.892040 0.089685
O O8 0.750000 0.750000 0.500000
O O9 0.866367 0.864158 0.543024
O O10 0.707754 0.487761 0.403059
O O11 0.719436 0.394263 0.670901
O O12 0.078806 0.019198 0.231591
#
# Coordination Sequence:
#
# PCOD9297460 Si02
#       6
#     8   8   8   8   8   4
#     4  11  22  43  67 103 142 179 221 279 360 429
#     4  12  26  45  69 102 136 182 242 292 336 411
#     4  12  24  42  74 100 139 186 232 280 351 429
#     4  11  23  43  65  97 137 182 226 279 347 417
#     4  11  24  41  71 103 142 183 228 284 359 428
#     4  10  24  40  68 112 146 172 216 290 368 436
#
# _framework density 22.800975999999999
#
# number of rings (size 3 to 8) (size 9 to 14) (size 15 to 20)
#    0.000    0.727    3.636    4.909    1.273    6.545 
#    0.000    0.909    0.000    0.000    0.000    0.000 
#    0.000    0.000    0.000    0.000    0.000    0.000 
#
# Total GULP energy -123023.394527 kJ/mol
# GULP energy per Si atom -5591.972478 kJ/mol
# Density = 2.274908 g / cm^3
# Si number density = 22.800976 Si / 1000 Ang^3
#
#
#
# Elastic Constant Matrix: (Units=GPa)
#
#
# Indices 1 2 3 4 5 6 
#
# 1 173.6805 20.0557 28.0843 0.0000 -26.7648 0.0000
# 2 20.0557 21.2494 -1.1163 0.0000 -1.1762 0.0000
# 3 28.0843 -1.1163 123.3108 0.0000 -8.4148 0.0000
# 4 0.0000 0.0000 0.0000 19.2070 0.0000 3.6311
# 5 -26.7648 -1.1762 -8.4148 0.0000 35.7240 0.0000
# 6 0.0000 0.0000 0.0000 3.6311 0.0000 19.7606
#
#
#
# Elastic Compliance Matrix: (Units=1/GPa)
#
#
# Indices 1 2 3 4 5 6 
#
# 1 0.007581 -0.006948 -0.001441 0.000000 0.005111 0.000000
# 2 -0.006948 0.053549 0.001862 0.000000 -0.003003 0.000000
# 3 -0.001441 0.001862 0.008522 0.000000 0.000989 0.000000
# 4 0.000000 0.000000 0.000000 0.053938 0.000000 -0.009911
# 5 0.005111 -0.003003 0.000989 0.000000 0.031956 0.000000
# 6 0.000000 0.000000 0.000000 -0.009911 0.000000 0.052427
#
#
# Mechanical properties :
#
#
# Convention : Reuss Voigt Hill
#
# Bulk Modulus (GPa) = 17.66793 45.80981 31.73887
# Shear Modulus (GPa) = 20.84276 33.01944 26.93110
#
# Velocity S-wave (km/s) = 3.02672 3.80960 3.44050
# Velocity P-wave (km/s) = 4.46993 6.28375 5.45279
#
# Compressibility (1/GPa) = 0.05659974
#
# Stress axis : x y z
#
# Youngs Moduli (GPa) = 131.91582 18.67445 117.34256
#
# Poissons Ratio (x) = 0.12974 0.16904
# Poissons Ratio (y) = 0.91649 -0.21851
# Poissons Ratio (z) = 0.19004 -0.03477
#
# Static dielectric constant tensor:
#      x y z
#    x 1.893880 0.000000 -0.004100 
#    y 0.000000 1.828000 0.000000 
#    z -0.004100 0.000000 1.941080 
# 
# From -- ./inp_files/39223.got.cif
#   From: 2010.05.17/outbox.cif.g08.bks.cpg/sg15_20_cif.got.tgz:39223.got - 2010.06.03 18:47:42.
