data_PCOD9297919
_publ_section_title
;
Structure prediction by ZEFSAII (Michael W. Deem and Ramdas Pophale) SiO2 
 PCOD9297919
Probable space group: C 2/C
;
_chemical_formula_sum "Si O2"
_cell_formula_units_Z 28
_cell_length_a 9.313635
_cell_length_b 16.173437
_cell_length_c 8.405969
_cell_angle_alpha 90.000000
_cell_angle_beta 117.504493
_cell_angle_gamma 90.000000
_cell_volume 1123.105394
_symmetry_space_group_name_H-M "C 2/C"
_symmetry_group_IT_number 15
_symmetry_cell_setting 'monoclinic'
loop_
_space_group_symop_operation_xyz
x,y,z
-x,y,1/2-z
-x,-y,-z
x,-y,1/2+z
1/2+x,1/2+y,z
1/2-x,1/2+y,1/2-z
1/2-x,1/2-y,-z
1/2+x,1/2-y,1/2+z
loop_
_atom_site_type_symbol
_atom_site_label
_atom_site_fract_x
_atom_site_fract_y
_atom_site_fract_z
Si Si1 0.319627 0.509264 0.334090
Si Si2 0.888831 0.421820 0.488508
Si Si3 0.066459 0.722127 0.944930
Si Si4 0.000000 0.873592 0.750000
O O1 0.500000 0.500000 0.500000
O O2 0.200888 0.555084 0.394412
O O3 0.346122 0.568478 0.192944
O O4 0.248014 0.425831 0.221488
O O5 0.000000 0.500000 0.500000
O O6 0.995399 0.338271 0.540598
O O7 0.986363 0.812984 0.894212
O O8 0.000000 0.679521 0.750000
O O9 0.250000 0.750000 0.000000
#
# Coordination Sequence:
#
# PCOD9297919 Si02
#       4
#     8   8   8   4
#     4  12  24  45  73 107 141 188 239 299 357 436
#     4  12  25  43  73 105 140 190 242 289 363 431
#     4  10  24  43  69  97 146 184 231 297 366 415
#     4  10  24  42  72 100 148 170 238 296 362 408
#
# _framework density 24.930872999999998
#
# number of rings (size 3 to 8) (size 9 to 14) (size 15 to 20)
#    0.857    0.000    2.857    4.286    4.000    1.143 
#    0.000    0.000    0.000    0.000    0.000    0.000 
#    0.000    0.000    0.000    0.000    0.000    0.000 
#
# Total GULP energy -77991.332023 kJ/mol
# GULP energy per Si atom -5570.809430 kJ/mol
# Density = 2.487413 g / cm^3
# Si number density = 24.930873 Si / 1000 Ang^3
#
#
#
# Elastic Constant Matrix: (Units=GPa)
#
#
# Indices 1 2 3 4 5 6 
#
# 1 195.9472 78.2994 36.6876 0.0000 -27.7344 0.0000
# 2 78.2994 136.5757 10.2359 0.0000 -8.9307 0.0000
# 3 36.6876 10.2359 88.4828 0.0000 4.9883 0.0000
# 4 0.0000 0.0000 0.0000 28.7643 0.0000 -3.0954
# 5 -27.7344 -8.9307 4.9883 0.0000 46.8025 0.0000
# 6 0.0000 0.0000 0.0000 -3.0954 0.0000 66.2600
#
#
#
# Elastic Compliance Matrix: (Units=1/GPa)
#
#
# Indices 1 2 3 4 5 6 
#
# 1 0.007872 -0.004009 -0.003038 0.000000 0.004224 0.000000
# 2 -0.004009 0.009535 0.000594 0.000000 -0.000620 0.000000
# 3 -0.003038 0.000594 0.012664 0.000000 -0.003037 0.000000
# 4 0.000000 0.000000 0.000000 0.034941 0.000000 0.001632
# 5 0.004224 -0.000620 -0.003037 0.000000 0.024075 0.000000
# 6 0.000000 0.000000 0.000000 0.001632 0.000000 0.015168
#
#
# Mechanical properties :
#
#
# Convention : Reuss Voigt Hill
#
# Bulk Modulus (GPa) = 58.25917 74.60572 66.43244
# Shear Modulus (GPa) = 40.68878 48.08420 44.38649
#
# Velocity S-wave (km/s) = 4.04426 4.39646 4.22404
# Velocity P-wave (km/s) = 6.72511 7.46738 7.10595
#
# Compressibility (1/GPa) = 0.01716468
#
# Stress axis : x y z
#
# Youngs Moduli (GPa) = 127.02933 104.87214 78.96474
#
# Poissons Ratio (x) = 0.42046 0.23992
# Poissons Ratio (y) = 0.50929 -0.04692
# Poissons Ratio (z) = 0.38596 -0.06232
#
# Static dielectric constant tensor:
#      x y z
#    x 2.001330 0.000000 0.105450 
#    y 0.000000 2.039820 0.000000 
#    z 0.105450 0.000000 2.311630 
# 
# From -- ./inp_files/75885.got.cif
#   From: 2010.05.17/outbox.cif.g08.bks.cpg/sg15_38_cif.got.tgz:75885.got - 2010.06.03 18:47:42.
