data_PCOD9297004
_publ_section_title
;
Structure prediction by ZEFSAII (Michael W. Deem and Ramdas Pophale) SiO2 
 PCOD9297004
Probable space group: C 2/C
;
_chemical_formula_sum "Si O2"
_cell_formula_units_Z 64
_cell_length_a 14.869299
_cell_length_b 14.488207
_cell_length_c 18.845397
_cell_angle_alpha 90.000000
_cell_angle_beta 43.986485
_cell_angle_gamma 90.000000
_cell_volume 2819.522692
_symmetry_space_group_name_H-M "C 2/C"
_symmetry_group_IT_number 15
_symmetry_cell_setting 'monoclinic'
loop_
_space_group_symop_operation_xyz
x,y,z
-x,y,1/2-z
-x,-y,-z
x,-y,1/2+z
1/2+x,1/2+y,z
1/2-x,1/2+y,1/2-z
1/2-x,1/2-y,-z
1/2+x,1/2-y,1/2+z
loop_
_atom_site_type_symbol
_atom_site_label
_atom_site_fract_x
_atom_site_fract_y
_atom_site_fract_z
Si Si1 0.431519 0.953322 0.431862
Si Si2 0.859920 0.200301 0.838364
Si Si3 0.963000 0.923511 0.463576
Si Si4 0.528254 0.769262 0.317128
Si Si5 0.330771 0.062792 0.147537
Si Si6 0.971580 0.063730 0.183159
Si Si7 0.322242 0.727040 0.695438
Si Si8 0.296009 0.879942 0.943285
O O1 0.444419 0.849185 0.399179
O O2 0.358457 0.952014 0.548581
O O3 0.574115 0.994861 0.365104
O O4 0.363761 0.022221 0.415050
O O5 0.810024 0.213939 0.787143
O O6 0.885655 0.296843 0.865171
O O7 0.000000 0.153466 0.750000
O O8 0.760866 0.149569 0.947328
O O9 0.820234 0.880863 0.548395
O O10 0.070769 0.844847 0.393744
O O11 0.000000 0.000000 0.500000
O O12 0.951083 0.984585 0.399287
O O13 0.500000 0.768636 0.250000
O O14 0.498957 0.666458 0.362331
O O15 0.680219 0.787764 0.243261
O O16 0.179690 0.045182 0.245767
O O17 0.360544 0.168093 0.153418
O O18 0.000000 0.065300 0.250000
#
# Coordination Sequence:
#
# PCOD9297004 Si02
#       8
#     8   8   8   8   8   8   8   8
#     4  11  24  41  69  98 139 169 223 281 333 409
#     4  11  24  47  72 101 143 177 222 286 352 418
#     4  12  28  42  69 102 136 177 231 289 340 409
#     4  10  25  45  67  95 131 184 226 273 335 401
#     4  10  24  41  68 102 128 180 222 272 342 406
#     4  10  23  47  68  93 133 181 231 276 340 407
#     4  11  25  44  72  95 138 183 222 285 349 406
#     4  11  27  43  69 107 134 180 230 280 349 413
#
# _framework density 22.698878000000001
#
# number of rings (size 3 to 8) (size 9 to 14) (size 15 to 20)
#    0.000    1.250    1.250    2.250   15.750    1.500 
#    0.000    2.500    0.000    0.000    0.000    0.000 
#    0.000    0.000    0.000    0.000    0.000    0.000 
#
# Total GULP energy -179142.311801 kJ/mol
# GULP energy per Si atom -5598.197244 kJ/mol
# Density = 2.264721 g / cm^3
# Si number density = 22.698878 Si / 1000 Ang^3
#
#
#
# Elastic Constant Matrix: (Units=GPa)
#
#
# Indices 1 2 3 4 5 6 
#
# 1 87.3391 0.5491 11.6048 0.0000 12.2988 0.0000
# 2 0.5491 84.2643 19.5319 0.0000 -5.3077 0.0000
# 3 11.6048 19.5319 43.0512 0.0000 1.4304 0.0000
# 4 0.0000 0.0000 0.0000 41.8798 0.0000 1.8475
# 5 12.2988 -5.3077 1.4304 0.0000 23.4274 0.0000
# 6 0.0000 0.0000 0.0000 1.8475 0.0000 24.2240
#
#
#
# Elastic Compliance Matrix: (Units=1/GPa)
#
#
# Indices 1 2 3 4 5 6 
#
# 1 0.012804 0.000291 -0.003369 0.000000 -0.006450 0.000000
# 2 0.000291 0.013541 -0.006332 0.000000 0.003302 0.000000
# 3 -0.003369 -0.006332 0.027053 0.000000 -0.001317 0.000000
# 4 0.000000 0.000000 0.000000 0.023958 0.000000 -0.001827
# 5 -0.006450 0.003302 -0.001317 0.000000 0.046899 0.000000
# 6 0.000000 0.000000 0.000000 -0.001827 0.000000 0.041421
#
#
# Mechanical properties :
#
#
# Convention : Reuss Voigt Hill
#
# Bulk Modulus (GPa) = 28.91982 30.89179 29.90581
# Shear Modulus (GPa) = 25.50738 30.10416 27.80577
#
# Velocity S-wave (km/s) = 3.35584 3.64571 3.50377
# Velocity P-wave (km/s) = 5.27104 5.60005 5.43803
#
# Compressibility (1/GPa) = 0.03457836
#
# Stress axis : x y z
#
# Youngs Moduli (GPa) = 78.10226 73.84908 36.96478
#
# Poissons Ratio (x) = -0.02151 0.12454
# Poissons Ratio (y) = -0.02275 0.23405
# Poissons Ratio (z) = 0.26314 0.46759
#
# Static dielectric constant tensor:
#      x y z
#    x 1.839080 0.000000 -0.007740 
#    y 0.000000 1.835210 0.000000 
#    z -0.007740 0.000000 1.841690 
# 
# From -- ./inp_files/205684.got.cif
#   From: 2010.05.17/outbox.cif.g08.bks.cpg/sg15_103_cif.got.tgz:205684.got - 2010.06.03 18:47:42.
