data_PCOD9297675
_publ_section_title
;
Structure prediction by ZEFSAII (Michael W. Deem and Ramdas Pophale) SiO2 
 PCOD9297675
Probable space group: C 2/C
;
_chemical_formula_sum "Si O2"
_cell_formula_units_Z 60
_cell_length_a 14.872763
_cell_length_b 12.241620
_cell_length_c 14.571434
_cell_angle_alpha 90.000000
_cell_angle_beta 99.613549
_cell_angle_gamma 90.000000
_cell_volume 2615.716258
_symmetry_space_group_name_H-M "C 2/C"
_symmetry_group_IT_number 15
_symmetry_cell_setting 'monoclinic'
loop_
_space_group_symop_operation_xyz
x,y,z
-x,y,1/2-z
-x,-y,-z
x,-y,1/2+z
1/2+x,1/2+y,z
1/2-x,1/2+y,1/2-z
1/2-x,1/2-y,-z
1/2+x,1/2-y,1/2+z
loop_
_atom_site_type_symbol
_atom_site_label
_atom_site_fract_x
_atom_site_fract_y
_atom_site_fract_z
Si Si1 0.712658 0.490008 0.052657
Si Si2 0.168425 0.190834 0.180769
Si Si3 0.500000 0.401776 0.750000
Si Si4 0.063888 0.198009 0.547824
Si Si5 0.096054 0.080687 0.884638
Si Si6 0.628152 0.778748 0.750055
Si Si7 0.582642 0.029680 0.383321
Si Si8 0.455335 0.140112 0.926227
O O1 0.683162 0.584303 0.119610
O O2 0.647508 0.385025 0.051018
O O3 0.819165 0.469986 0.088964
O O4 0.688238 0.540765 0.948850
O O5 0.085030 0.167404 0.232698
O O6 0.264017 0.210973 0.245197
O O7 0.134466 0.296098 0.119643
O O8 0.538860 0.480410 0.835282
O O9 0.082042 0.266615 0.643706
O O10 0.970223 0.133176 0.551033
O O11 0.038330 0.275245 0.459317
O O12 0.111147 0.169172 0.807128
O O13 0.595301 0.880460 0.806098
O O14 0.567283 0.088917 0.478685
O O15 0.496532 0.948643 0.363738
#
# Coordination Sequence:
#
# PCOD9297675 Si02
#       8
#     8   8   4   8   8   8   8   8
#     4  11  22  40  67  97 127 160 215 263 320 374
#     4  11  23  41  62  93 127 170 206 263 318 384
#     4  12  24  38  62  94 128 156 212 264 326 362
#     4  12  22  39  68  99 123 165 217 268 310 380
#     4  12  20  38  69  95 122 165 209 267 309 383
#     4  11  23  41  66  91 129 167 217 255 317 374
#     4  10  24  42  63  93 127 169 214 262 309 385
#     4  11  23  43  66  91 129 171 218 250 320 380
#
# _framework density 22.938267
#
# number of rings (size 3 to 8) (size 9 to 14) (size 15 to 20)
#    0.000    0.800    5.333    2.000    0.000    4.800 
#    0.000    9.333    0.000    0.000    0.000    0.000 
#    0.000    0.000    0.000    0.000    0.000    0.000 
#
# Total GULP energy -167938.435991 kJ/mol
# GULP energy per Si atom -5597.947866 kJ/mol
# Density = 2.288606 g / cm^3
# Si number density = 22.938267 Si / 1000 Ang^3
#
#
#
# Elastic Constant Matrix: (Units=GPa)
#
#
# Indices 1 2 3 4 5 6 
#
# 1 108.4686 10.4667 5.4617 0.0000 -2.5175 0.0000
# 2 10.4667 43.3145 4.4646 0.0000 -17.6760 0.0000
# 3 5.4617 4.4646 52.2762 0.0000 5.0628 0.0000
# 4 0.0000 0.0000 0.0000 4.8575 0.0000 -10.8273
# 5 -2.5175 -17.6760 5.0628 0.0000 21.5613 0.0000
# 6 0.0000 0.0000 0.0000 -10.8273 0.0000 40.9911
#
#
#
# Elastic Compliance Matrix: (Units=1/GPa)
#
#
# Indices 1 2 3 4 5 6 
#
# 1 0.009482 -0.002557 -0.000692 0.000000 -0.000827 0.000000
# 2 -0.002557 0.037225 -0.005974 0.000000 0.031622 0.000000
# 3 -0.000692 -0.005974 0.020664 0.000000 -0.009831 0.000000
# 4 0.000000 0.000000 0.000000 0.500614 0.000000 0.132231
# 5 -0.000827 0.031622 -0.009831 0.000000 0.074515 0.000000
# 6 0.000000 0.000000 0.000000 0.132231 0.000000 0.059323
#
#
# Mechanical properties :
#
#
# Convention : Reuss Voigt Hill
#
# Bulk Modulus (GPa) = 20.44037 27.20503 23.82270
# Shear Modulus (GPa) = 6.78815 25.72640 16.25728
#
# Velocity S-wave (km/s) = 1.72213 3.35259 2.66511
# Velocity P-wave (km/s) = 3.58953 5.18385 4.45853
#
# Compressibility (1/GPa) = 0.04892280
#
# Stress axis : x y z
#
# Youngs Moduli (GPa) = 105.46655 26.86367 48.39385
#
# Poissons Ratio (x) = 0.06870 0.03350
# Poissons Ratio (y) = 0.26971 0.28913
# Poissons Ratio (z) = 0.07300 0.16049
#
# Static dielectric constant tensor:
#      x y z
#    x 1.829920 0.000000 -0.027790 
#    y 0.000000 1.919350 0.000000 
#    z -0.027790 0.000000 1.901350 
# 
# From -- ./inp_files/204086.got.cif
#   From: 2010.05.17/outbox.cif.g08.bks.cpg/sg15_103_cif.got.tgz:204086.got - 2010.06.03 18:47:42.
