data_PCOD9297904
_publ_section_title
;
Structure prediction by ZEFSAII (Michael W. Deem and Ramdas Pophale) SiO2 
 PCOD9297904
Probable space group: C 2/C
;
_chemical_formula_sum "Si O2"
_cell_formula_units_Z 40
_cell_length_a 13.302357
_cell_length_b 27.722588
_cell_length_c 5.007420
_cell_angle_alpha 90.000000
_cell_angle_beta 113.952882
_cell_angle_gamma 90.000000
_cell_volume 1687.583959
_symmetry_space_group_name_H-M "C 2/C"
_symmetry_group_IT_number 15
_symmetry_cell_setting 'monoclinic'
loop_
_space_group_symop_operation_xyz
x,y,z
-x,y,1/2-z
-x,-y,-z
x,-y,1/2+z
1/2+x,1/2+y,z
1/2-x,1/2+y,1/2-z
1/2-x,1/2-y,-z
1/2+x,1/2-y,1/2+z
loop_
_atom_site_type_symbol
_atom_site_label
_atom_site_fract_x
_atom_site_fract_y
_atom_site_fract_z
Si Si1 0.119127 0.088073 0.438305
Si Si2 0.344299 0.652870 0.531206
Si Si3 0.898350 0.671976 0.312325
Si Si4 0.000000 0.402211 0.250000
Si Si5 0.332598 0.969632 0.359420
Si Si6 0.000000 0.763912 0.250000
O O1 0.153516 0.114205 0.202734
O O2 0.216681 0.054891 0.655250
O O3 0.000000 0.064446 0.250000
O O4 0.104221 0.128969 0.649622
O O5 0.218666 0.667580 0.449859
O O6 0.410656 0.700864 0.525342
O O7 0.000000 0.652097 0.250000
O O8 0.904440 0.635806 0.563961
O O9 0.935401 0.727548 0.379649
O O10 0.935364 0.437213 0.382087
O O11 0.336944 0.983112 0.674478
#
# Coordination Sequence:
#
# PCOD9297904 Si02
#       6
#     8   8   8   4   8   4
#     4  12  25  46  76  99 138 188 232 292 355 415
#     4  12  23  47  69 103 145 185 238 283 345 415
#     4  10  25  41  69 104 143 188 229 288 335 421
#     4  12  24  46  71 102 144 188 223 290 366 410
#     4  12  28  46  74 105 136 179 238 293 354 429
#     4  10  24  42  71 108 138 192 243 276 342 402
#
# _framework density 23.702522999999999
#
# number of rings (size 3 to 8) (size 9 to 14) (size 15 to 20)
#    0.600    0.000    4.000    3.600    2.800    2.400 
#    0.000    3.000    0.000    0.000    0.000    0.000 
#    0.000    0.000    0.000    0.000    0.000    0.000 
#
# Total GULP energy -111768.673660 kJ/mol
# GULP energy per Si atom -5588.433683 kJ/mol
# Density = 2.364858 g / cm^3
# Si number density = 23.702523 Si / 1000 Ang^3
#
#
#
# Elastic Constant Matrix: (Units=GPa)
#
#
# Indices 1 2 3 4 5 6 
#
# 1 92.2109 19.0958 19.9351 0.0000 28.7877 0.0000
# 2 19.0958 76.0235 7.2744 0.0000 13.4653 0.0000
# 3 19.9351 7.2744 75.3106 0.0000 17.4883 0.0000
# 4 0.0000 0.0000 0.0000 25.5810 0.0000 14.5620
# 5 28.7877 13.4653 17.4883 0.0000 52.2767 0.0000
# 6 0.0000 0.0000 0.0000 14.5620 0.0000 -67.5770
#
#
#
# Elastic Compliance Matrix: (Units=1/GPa)
#
#
# Indices 1 2 3 4 5 6 
#
# 1 0.013684 -0.002129 -0.001945 0.000000 -0.006337 0.000000
# 2 -0.002129 0.014135 -0.000248 0.000000 -0.002386 0.000000
# 3 -0.001945 -0.000248 0.014695 0.000000 -0.003781 0.000000
# 4 0.000000 0.000000 0.000000 0.034820 0.000000 0.007503
# 5 -0.006337 -0.002386 -0.003781 0.000000 0.024498 0.000000
# 6 0.000000 0.000000 0.000000 0.007503 0.000000 -0.013181
#
#
# Mechanical properties :
#
#
# Convention : Reuss Voigt Hill
#
# Bulk Modulus (GPa) = 29.52411 37.35063 33.43737
# Shear Modulus (GPa) = 46.04678 15.20546 30.62612
#
# Velocity S-wave (km/s) = 4.41238 2.53556 3.59848
# Velocity P-wave (km/s) = 6.20016 4.93603 5.60385
#
# Compressibility (1/GPa) = 0.03387062
#
# Stress axis : x y z
#
# Youngs Moduli (GPa) = 73.07627 70.74740 68.04946
#
# Poissons Ratio (x) = 0.15061 0.13237
# Poissons Ratio (y) = 0.15557 0.01686
# Poissons Ratio (z) = 0.14215 0.01753
#
# Static dielectric constant tensor:
#      x y z
#    x 1.915720 0.000000 -0.013410 
#    y 0.000000 1.903260 0.000000 
#    z -0.013410 0.000000 2.037030 
# 
# From -- ./inp_files/8165.got.cif
#   From: 2010.05.17/outbox.cif.g08.bks.cpg/sg15_5_cif.got.tgz:8165.got - 2010.06.03 18:47:42.
