data_PCOD9297271
_publ_section_title
;
Structure prediction by ZEFSAII (Michael W. Deem and Ramdas Pophale) SiO2 
 PCOD9297271
Probable space group: C 2/C
;
_chemical_formula_sum "Si O2"
_cell_formula_units_Z 44
_cell_length_a 18.566379
_cell_length_b 18.418199
_cell_length_c 8.759934
_cell_angle_alpha 90.000000
_cell_angle_beta 135.184673
_cell_angle_gamma 90.000000
_cell_volume 2111.328890
_symmetry_space_group_name_H-M "C 2/C"
_symmetry_group_IT_number 15
_symmetry_cell_setting 'monoclinic'
loop_
_space_group_symop_operation_xyz
x,y,z
-x,y,1/2-z
-x,-y,-z
x,-y,1/2+z
1/2+x,1/2+y,z
1/2-x,1/2+y,1/2-z
1/2-x,1/2-y,-z
1/2+x,1/2-y,1/2+z
loop_
_atom_site_type_symbol
_atom_site_label
_atom_site_fract_x
_atom_site_fract_y
_atom_site_fract_z
Si Si1 0.778946 0.848585 0.742346
Si Si2 0.143931 0.458335 0.712472
Si Si3 0.682082 0.722663 0.751888
Si Si4 0.539627 0.244033 0.471874
Si Si5 0.000000 0.495389 0.750000
Si Si6 0.206824 0.625641 0.799802
O O1 0.703744 0.780897 0.652711
O O2 0.769717 0.869144 0.552116
O O3 0.737308 0.908294 0.799419
O O4 0.888381 0.814277 0.944331
O O5 0.084260 0.449219 0.782622
O O6 0.173113 0.542640 0.745702
O O7 0.057694 0.452106 0.453644
O O8 0.562777 0.728526 0.602086
O O9 0.726298 0.648830 0.747240
O O10 0.750000 0.750000 0.000000
O O11 0.500000 0.215292 0.250000
O O12 0.610426 0.181611 0.653109
#
# Coordination Sequence:
#
# PCOD9297271 Si02
#       6
#     8   8   8   8   4   8
#     4  11  25  44  63  98 139 173 215 277 333 402
#     4  11  24  41  65  98 136 173 227 273 342 396
#     4  11  23  40  69  96 128 175 224 275 324 392
#     4  11  23  42  70  98 128 173 226 271 331 395
#     4  10  24  38  62  98 128 178 214 274 344 388
#     4  11  25  42  65 100 137 175 216 281 332 397
#
# _framework density 20.839956000000001
#
# number of rings (size 3 to 8) (size 9 to 14) (size 15 to 20)
#    0.000    1.091    5.455    2.182    8.909    2.909 
#    0.000    0.909    0.000    0.000    0.000    0.000 
#    0.000    0.000    0.000    0.000    0.000    0.000 
#
# Total GULP energy -122810.201309 kJ/mol
# GULP energy per Si atom -5582.281878 kJ/mol
# Density = 2.079252 g / cm^3
# Si number density = 20.839956 Si / 1000 Ang^3
#
#
#
# Elastic Constant Matrix: (Units=GPa)
#
#
# Indices 1 2 3 4 5 6 
#
# 1 156.2385 47.7143 24.0957 0.0000 31.3831 0.0000
# 2 47.7143 104.2746 18.4049 0.0000 17.8017 0.0000
# 3 24.0957 18.4049 55.3487 0.0000 2.4513 0.0000
# 4 0.0000 0.0000 0.0000 15.4736 0.0000 2.3326
# 5 31.3831 17.8017 2.4513 0.0000 45.8158 0.0000
# 6 0.0000 0.0000 0.0000 2.3326 0.0000 36.9363
#
#
#
# Elastic Compliance Matrix: (Units=1/GPa)
#
#
# Indices 1 2 3 4 5 6 
#
# 1 0.008559 -0.002650 -0.002637 0.000000 -0.004692 0.000000
# 2 -0.002650 0.011709 -0.002625 0.000000 -0.002594 0.000000
# 3 -0.002637 -0.002625 0.020010 0.000000 0.001756 0.000000
# 4 0.000000 0.000000 0.000000 0.065248 0.000000 -0.004121
# 5 -0.004692 -0.002594 0.001756 0.000000 0.025954 0.000000
# 6 0.000000 0.000000 0.000000 -0.004121 0.000000 0.027334
#
#
# Mechanical properties :
#
#
# Convention : Reuss Voigt Hill
#
# Bulk Modulus (GPa) = 40.89293 55.14352 48.01822
# Shear Modulus (GPa) = 27.35391 34.68826 31.02109
#
# Velocity S-wave (km/s) = 3.62687 4.08426 3.86234
# Velocity P-wave (km/s) = 6.09950 6.98280 6.55604
#
# Compressibility (1/GPa) = 0.02445411
#
# Stress axis : x y z
#
# Youngs Moduli (GPa) = 116.83729 85.40610 49.97399
#
# Poissons Ratio (x) = 0.22632 0.13179
# Poissons Ratio (y) = 0.30961 0.13118
# Poissons Ratio (z) = 0.30811 0.22419
#
# Static dielectric constant tensor:
#      x y z
#    x 1.852890 0.000000 -0.038660 
#    y 0.000000 1.770420 0.000000 
#    z -0.038660 0.000000 1.796480 
# 
# From -- ./inp_files/50397.got.cif
#   From: 2010.05.17/outbox.cif.g08.bks.cpg/sg15_26_cif.got.tgz:50397.got - 2010.06.03 18:47:42.
