data_PCOD9297160
_publ_section_title
;
Structure prediction by ZEFSAII (Michael W. Deem and Ramdas Pophale) SiO2 
 PCOD9297160
Probable space group: C 2/C
;
_chemical_formula_sum "Si O2"
_cell_formula_units_Z 32
_cell_length_a 5.376273
_cell_length_b 25.349938
_cell_length_c 12.386763
_cell_angle_alpha 90.000000
_cell_angle_beta 132.562008
_cell_angle_gamma 90.000000
_cell_volume 1243.414055
_symmetry_space_group_name_H-M "C 2/C"
_symmetry_group_IT_number 15
_symmetry_cell_setting 'monoclinic'
loop_
_space_group_symop_operation_xyz
x,y,z
-x,y,1/2-z
-x,-y,-z
x,-y,1/2+z
1/2+x,1/2+y,z
1/2-x,1/2+y,1/2-z
1/2-x,1/2-y,-z
1/2+x,1/2-y,1/2+z
loop_
_atom_site_type_symbol
_atom_site_label
_atom_site_fract_x
_atom_site_fract_y
_atom_site_fract_z
Si Si1 0.408717 0.513727 0.840767
Si Si2 0.524970 0.668336 0.879316
Si Si3 0.149853 0.910060 0.588277
Si Si4 0.793724 0.723666 0.396486
O O1 0.500000 0.532742 0.750000
O O2 0.507794 0.451647 0.874781
O O3 0.000000 0.519967 0.750000
O O4 0.655836 0.547057 0.991539
O O5 0.500000 0.647670 0.750000
O O6 0.357580 0.726159 0.836688
O O7 0.439037 0.634857 0.962126
O O8 0.910273 0.682584 0.010812
O O9 0.500000 0.893065 0.750000
O O10 0.500000 0.693574 0.250000
O O11 0.750000 0.750000 0.500000
#
# Coordination Sequence:
#
# PCOD9297160 Si02
#       4
#     8   8   8   8
#     4  10  23  49  73 100 145 188 232 292 353 414
#     4  11  24  44  66  97 139 174 234 279 348 419
#     4  10  24  42  69 104 135 185 231 292 345 424
#     4  11  24  44  68  97 133 183 221 288 347 410
#
# _framework density 25.735596000000001
#
# number of rings (size 3 to 8) (size 9 to 14) (size 15 to 20)
#    0.000    1.500    2.500    0.750    3.500   10.000 
#   13.500    0.000    0.000    0.000    0.000    0.000 
#    0.000    0.000    0.000    0.000    0.000    0.000 
#
# Total GULP energy -89100.039731 kJ/mol
# GULP energy per Si atom -5568.752483 kJ/mol
# Density = 2.567702 g / cm^3
# Si number density = 25.735596 Si / 1000 Ang^3
#
#
#
# Elastic Constant Matrix: (Units=GPa)
#
#
# Indices 1 2 3 4 5 6 
#
# 1 86.3217 -0.9735 47.1306 0.0000 -9.5693 0.0000
# 2 -0.9735 90.7348 17.8887 0.0000 -7.5409 0.0000
# 3 47.1306 17.8887 171.9270 0.0000 -7.9924 0.0000
# 4 0.0000 0.0000 0.0000 48.7591 0.0000 -1.6239
# 5 -9.5693 -7.5409 -7.9924 0.0000 51.1844 0.0000
# 6 0.0000 0.0000 0.0000 -1.6239 0.0000 -23.0270
#
#
#
# Elastic Compliance Matrix: (Units=1/GPa)
#
#
# Indices 1 2 3 4 5 6 
#
# 1 0.013928 0.001085 -0.003830 0.000000 0.002166 0.000000
# 2 0.001085 0.011450 -0.001411 0.000000 0.001669 0.000000
# 3 -0.003830 -0.001411 0.007021 0.000000 0.000172 0.000000
# 4 0.000000 0.000000 0.000000 0.020461 0.000000 -0.001443
# 5 0.002166 0.001669 0.000172 0.000000 0.020215 0.000000
# 6 0.000000 0.000000 0.000000 -0.001443 0.000000 -0.043326
#
#
# Mechanical properties :
#
#
# Convention : Reuss Voigt Hill
#
# Bulk Modulus (GPa) = 41.51861 53.00834 47.26347
# Shear Modulus (GPa) = 108.47978 34.37914 71.42946
#
# Velocity S-wave (km/s) = 6.49947 3.65891 5.27403
# Velocity P-wave (km/s) = 8.51422 6.20420 7.44930
#
# Compressibility (1/GPa) = 0.02408558
#
# Stress axis : x y z
#
# Youngs Moduli (GPa) = 71.79681 87.33862 142.42453
#
# Poissons Ratio (x) = -0.09473 0.54553
# Poissons Ratio (y) = -0.07787 0.20097
# Poissons Ratio (z) = 0.27501 0.12324
#
# Static dielectric constant tensor:
#      x y z
#    x -1.150840 0.000000 -2.968550 
#    y 0.000000 2.145130 0.000000 
#    z -2.968550 0.000000 -0.439000 
# 
# From -- ./inp_files/73761.got.cif
#   From: 2010.05.17/outbox.cif.g08.bks.cpg/sg15_37_cif.got.tgz:73761.got - 2010.06.03 18:47:42.
