data_PCOD9297345
_publ_section_title
;
Structure prediction by ZEFSAII (Michael W. Deem and Ramdas Pophale) SiO2 
 PCOD9297345
Probable space group: C 2/C
;
_chemical_formula_sum "Si O2"
_cell_formula_units_Z 64
_cell_length_a 9.336302
_cell_length_b 32.570284
_cell_length_c 17.514096
_cell_angle_alpha 90.000000
_cell_angle_beta 145.088389
_cell_angle_gamma 90.000000
_cell_volume 3048.014752
_symmetry_space_group_name_H-M "C 2/C"
_symmetry_group_IT_number 15
_symmetry_cell_setting 'monoclinic'
loop_
_space_group_symop_operation_xyz
x,y,z
-x,y,1/2-z
-x,-y,-z
x,-y,1/2+z
1/2+x,1/2+y,z
1/2-x,1/2+y,1/2-z
1/2-x,1/2-y,-z
1/2+x,1/2-y,1/2+z
loop_
_atom_site_type_symbol
_atom_site_label
_atom_site_fract_x
_atom_site_fract_y
_atom_site_fract_z
Si Si1 0.189940 0.069270 0.763170
Si Si2 0.218154 0.994578 0.659408
Si Si3 0.581950 0.278182 0.700831
Si Si4 0.043366 0.861657 0.077274
Si Si5 0.846880 0.310197 0.098699
Si Si6 0.002837 0.339349 0.885673
Si Si7 0.619790 0.120641 0.004950
Si Si8 0.874609 0.098600 0.347095
O O1 0.186671 0.028954 0.710194
O O2 0.459656 0.080250 0.916564
O O3 0.000000 0.066297 0.750000
O O4 0.115533 0.107242 0.675777
O O5 0.500000 0.999101 0.750000
O O6 0.193027 0.948955 0.682682
O O7 0.000000 0.000000 0.500000
O O8 0.500000 0.292599 0.750000
O O9 0.407398 0.296684 0.558310
O O10 0.520600 0.229960 0.673308
O O11 0.859603 0.296091 0.813531
O O12 0.247553 0.829570 0.134590
O O13 0.792864 0.838098 0.992423
O O14 0.985866 0.889774 0.978196
O O15 0.947441 0.346188 0.089352
O O16 0.861451 0.372342 0.770758
O O17 0.956854 0.358444 0.949468
O O18 0.911158 0.110099 0.120649
#
# Coordination Sequence:
#
# PCOD9297345 Si02
#       8
#     8   8   8   8   8   8   8   8
#     4  12  27  45  66 102 146 185 235 295 357 428
#     4  12  26  46  71 106 148 191 245 305 358 429
#     4  11  21  40  65  98 133 173 223 289 345 422
#     4  11  23  42  69 100 133 183 235 288 351 418
#     4  10  24  39  68  98 131 176 233 280 350 422
#     4  12  21  42  72  98 140 177 234 292 355 426
#     4  11  23  44  69  99 136 188 232 281 359 425
#     4  11  23  41  72 104 129 186 243 290 347 424
#
# _framework density 20.997274000000001
#
# number of rings (size 3 to 8) (size 9 to 14) (size 15 to 20)
#    0.000    0.750    6.250    2.250    3.500    1.000 
#    0.000    2.500    8.250    0.000    0.000    0.000 
#    0.000    0.000    0.000    0.000    0.000    0.000 
#
# Total GULP energy -178911.602728 kJ/mol
# GULP energy per Si atom -5590.987585 kJ/mol
# Density = 2.094948 g / cm^3
# Si number density = 20.997274 Si / 1000 Ang^3
#
#
#
# Elastic Constant Matrix: (Units=GPa)
#
#
# Indices 1 2 3 4 5 6 
#
# 1 146.0195 71.8352 53.2960 0.0000 8.6744 0.0000
# 2 71.8352 141.3910 43.1120 0.0000 8.2419 0.0000
# 3 53.2960 43.1120 77.7042 0.0000 6.5000 0.0000
# 4 0.0000 0.0000 0.0000 34.6438 0.0000 -2.1037
# 5 8.6744 8.2419 6.5000 0.0000 34.1629 0.0000
# 6 0.0000 0.0000 0.0000 -2.1037 0.0000 20.0382
#
#
#
# Elastic Compliance Matrix: (Units=1/GPa)
#
#
# Indices 1 2 3 4 5 6 
#
# 1 0.010631 -0.003793 -0.005119 0.000000 -0.000810 0.000000
# 2 -0.003793 0.009913 -0.002824 0.000000 -0.000891 0.000000
# 3 -0.005119 -0.002824 0.018069 0.000000 -0.001457 0.000000
# 4 0.000000 0.000000 0.000000 0.029050 0.000000 0.003050
# 5 -0.000810 -0.000891 -0.001457 0.000000 0.029969 0.000000
# 6 0.000000 0.000000 0.000000 0.003050 0.000000 0.050225
#
#
# Mechanical properties :
#
#
# Convention : Reuss Voigt Hill
#
# Bulk Modulus (GPa) = 66.04743 77.95566 72.00154
# Shear Modulus (GPa) = 28.34847 30.89377 29.62112
#
# Velocity S-wave (km/s) = 3.67836 3.83994 3.76002
# Velocity P-wave (km/s) = 7.04017 7.54105 7.29491
#
# Compressibility (1/GPa) = 0.01514063
#
# Stress axis : x y z
#
# Youngs Moduli (GPa) = 94.06370 100.88213 55.34303
#
# Poissons Ratio (x) = 0.38265 0.28333
# Poissons Ratio (y) = 0.35679 0.15627
# Poissons Ratio (z) = 0.48156 0.28485
#
# Static dielectric constant tensor:
#      x y z
#    x 1.731790 0.000000 -0.011160 
#    y 0.000000 1.728960 0.000000 
#    z -0.011160 0.000000 1.852840 
# 
# From -- ./inp_files/194250.got.cif
#   From: 2010.05.17/outbox.cif.g08.bks.cpg/sg15_98_cif.got.tgz:194250.got - 2010.06.03 18:47:42.
