data_PCOD9297968
_publ_section_title
;
Structure prediction by ZEFSAII (Michael W. Deem and Ramdas Pophale) SiO2 
 PCOD9297968
Probable space group: C 2/C
;
_chemical_formula_sum "Si O2"
_cell_formula_units_Z 48
_cell_length_a 19.003338
_cell_length_b 6.658488
_cell_length_c 17.131610
_cell_angle_alpha 90.000000
_cell_angle_beta 116.090545
_cell_angle_gamma 90.000000
_cell_volume 1946.831966
_symmetry_space_group_name_H-M "C 2/C"
_symmetry_group_IT_number 15
_symmetry_cell_setting 'monoclinic'
loop_
_space_group_symop_operation_xyz
x,y,z
-x,y,1/2-z
-x,-y,-z
x,-y,1/2+z
1/2+x,1/2+y,z
1/2-x,1/2+y,1/2-z
1/2-x,1/2-y,-z
1/2+x,1/2-y,1/2+z
loop_
_atom_site_type_symbol
_atom_site_label
_atom_site_fract_x
_atom_site_fract_y
_atom_site_fract_z
Si Si1 0.344580 0.537244 0.863380
Si Si2 0.057412 0.168095 0.713804
Si Si3 0.333490 0.006809 0.896042
Si Si4 0.415078 0.313702 0.034477
Si Si5 0.162118 0.545575 0.780985
Si Si6 0.308168 0.382782 0.584313
O O1 0.376150 0.531666 0.791338
O O2 0.344923 0.100858 0.815153
O O3 0.345846 0.771742 0.887260
O O4 0.405981 0.426856 0.948098
O O5 0.100756 0.366817 0.765815
O O6 0.000000 0.077276 0.750000
O O7 0.998088 0.215958 0.614367
O O8 0.253912 0.475869 0.830936
O O9 0.246407 0.018370 0.887144
O O10 0.383336 0.097530 0.991267
O O11 0.362022 0.460336 0.063275
O O12 0.151248 0.716821 0.840567
O O13 0.250000 0.250000 0.500000
#
# Coordination Sequence:
#
# PCOD9297968 Si02
#       6
#     8   8   8   8   8   8
#     4  10  24  48  72 104 152 198 254 312 373 459
#     4  11  28  46  72 114 152 195 257 315 393 446
#     4  10  24  42  75 109 146 206 255 298 386 457
#     4  12  25  43  77 112 153 193 254 322 388 452
#     4  10  24  46  76 105 155 208 257 303 379 464
#     4  11  23  43  75 114 151 199 256 321 375 455
#
# _framework density 24.655439000000001
#
# number of rings (size 3 to 8) (size 9 to 14) (size 15 to 20)
#    0.000    1.333    3.333    1.000   11.667    2.667 
#    0.000    5.833    0.000    0.000    0.000    0.000 
#    0.000    0.000    0.000    0.000    0.000    0.000 
#
# Total GULP energy -134161.934980 kJ/mol
# GULP energy per Si atom -5590.080624 kJ/mol
# Density = 2.459932 g / cm^3
# Si number density = 24.655439 Si / 1000 Ang^3
#
#
#
# Elastic Constant Matrix: (Units=GPa)
#
#
# Indices 1 2 3 4 5 6 
#
# 1 96.0274 28.3089 18.3482 0.0000 -8.8584 0.0000
# 2 28.3089 90.0093 37.3032 0.0000 13.2869 0.0001
# 3 18.3482 37.3032 132.5716 0.0000 27.7108 0.0000
# 4 0.0000 0.0000 0.0000 58.0295 0.0000 10.0300
# 5 -8.8584 13.2869 27.7108 0.0000 50.9439 0.0000
# 6 0.0000 0.0001 0.0000 10.0300 0.0000 10.1835
#
#
#
# Elastic Compliance Matrix: (Units=1/GPa)
#
#
# Indices 1 2 3 4 5 6 
#
# 1 0.012167 -0.003810 -0.001424 0.000000 0.003884 0.000000
# 2 -0.003810 0.013876 -0.002801 0.000000 -0.002758 0.000000
# 3 -0.001424 -0.002801 0.009508 0.000000 -0.004689 0.000000
# 4 0.000000 0.000000 0.000000 0.020768 0.000000 -0.020455
# 5 0.003884 -0.002758 -0.004689 0.000000 0.023575 0.000000
# 6 0.000000 0.000000 0.000000 -0.020455 0.000000 0.118345
#
#
# Mechanical properties :
#
#
# Convention : Reuss Voigt Hill
#
# Bulk Modulus (GPa) = 51.32700 54.05878 52.69289
# Shear Modulus (GPa) = 22.64468 39.47458 31.05963
#
# Velocity S-wave (km/s) = 3.03387 4.00565 3.55314
# Velocity P-wave (km/s) = 5.75634 6.58536 6.18476
#
# Compressibility (1/GPa) = 0.01948292
#
# Stress axis : x y z
#
# Youngs Moduli (GPa) = 82.18824 72.06643 105.17082
#
# Poissons Ratio (x) = 0.27457 0.14973
# Poissons Ratio (y) = 0.31314 0.29455
# Poissons Ratio (z) = 0.11701 0.20183
#
# Static dielectric constant tensor:
#      x y z
#    x 1.961750 0.000000 -0.052520 
#    y 0.000000 2.028390 0.000000 
#    z -0.052520 0.000000 2.015200 
# 
# From -- ./inp_files/254120.got.cif
#   From: 2010.05.17/outbox.cif.g08.bks.cpg/sg15_128_cif.got.tgz:254120.got - 2010.06.03 18:47:42.
