data_PCOD9297950
_publ_section_title
;
Structure prediction by ZEFSAII (Michael W. Deem and Ramdas Pophale) SiO2 
 PCOD9297950
Probable space group: C 2/C
;
_chemical_formula_sum "Si O2"
_cell_formula_units_Z 32
_cell_length_a 28.006438
_cell_length_b 8.941706
_cell_length_c 9.907485
_cell_angle_alpha 90.000000
_cell_angle_beta 34.988846
_cell_angle_gamma 90.000000
_cell_volume 1422.696355
_symmetry_space_group_name_H-M "C 2/C"
_symmetry_group_IT_number 15
_symmetry_cell_setting 'monoclinic'
loop_
_space_group_symop_operation_xyz
x,y,z
-x,y,1/2-z
-x,-y,-z
x,-y,1/2+z
1/2+x,1/2+y,z
1/2-x,1/2+y,1/2-z
1/2-x,1/2-y,-z
1/2+x,1/2-y,1/2+z
loop_
_atom_site_type_symbol
_atom_site_label
_atom_site_fract_x
_atom_site_fract_y
_atom_site_fract_z
Si Si1 0.041246 0.685366 0.507339
Si Si2 0.238736 0.151170 0.869328
Si Si3 0.807192 0.888014 0.322379
Si Si4 0.117604 0.364718 0.284908
O O1 0.098870 0.829337 0.386646
O O2 0.097270 0.541066 0.337614
O O3 0.000000 0.653947 0.750000
O O4 0.970039 0.703584 0.559190
O O5 0.183272 0.298819 0.023854
O O6 0.208346 0.028547 0.047368
O O7 0.219287 0.087325 0.769497
O O8 0.335828 0.175673 0.682435
O O9 0.750000 0.750000 0.500000
#
# Coordination Sequence:
#
# PCOD9297950 Si02
#       4
#     8   8   8   8
#     4  11  23  46  68 105 140 188 231 296 348 411
#     4  11  26  46  70 110 135 192 232 290 354 419
#     4  12  27  46  75 101 148 182 235 294 352 424
#     4  10  24  42  73  99 141 181 241 283 345 423
#
# _framework density 22.492501000000001
#
# number of rings (size 3 to 8) (size 9 to 14) (size 15 to 20)
#    0.000    1.000    5.000    0.000   10.500    1.000 
#    0.000    0.000    0.000    0.000    0.000    0.000 
#    0.000    0.000    0.000    0.000    0.000    0.000 
#
# Total GULP energy -89426.844196 kJ/mol
# GULP energy per Si atom -5589.177762 kJ/mol
# Density = 2.244131 g / cm^3
# Si number density = 22.492501 Si / 1000 Ang^3
#
#
#
# Elastic Constant Matrix: (Units=GPa)
#
#
# Indices 1 2 3 4 5 6 
#
# 1 204.2095 49.0374 70.9980 0.0000 -20.5934 0.0000
# 2 49.0374 90.1488 60.3841 0.0000 8.2050 0.0000
# 3 70.9980 60.3841 89.1346 0.0000 -16.6854 0.0000
# 4 0.0000 0.0000 0.0000 51.7528 0.0000 2.5455
# 5 -20.5934 8.2050 -16.6854 0.0000 55.9166 0.0000
# 6 0.0000 0.0000 0.0000 2.5455 0.0000 26.5124
#
#
#
# Elastic Compliance Matrix: (Units=1/GPa)
#
#
# Indices 1 2 3 4 5 6 
#
# 1 0.006834 -0.000592 -0.004825 0.000000 0.001164 0.000000
# 2 -0.000592 0.023842 -0.017345 0.000000 -0.008892 0.000000
# 3 -0.004825 -0.017345 0.028551 0.000000 0.009288 0.000000
# 4 0.000000 0.000000 0.000000 0.019414 0.000000 -0.001864
# 5 0.001164 -0.008892 0.009288 0.000000 0.022389 0.000000
# 6 0.000000 0.000000 0.000000 -0.001864 0.000000 0.037897
#
#
# Mechanical properties :
#
#
# Convention : Reuss Voigt Hill
#
# Bulk Modulus (GPa) = 72.97040 82.70356 77.83698
# Shear Modulus (GPa) = 26.45254 40.37460 33.41357
#
# Velocity S-wave (km/s) = 3.43309 4.24137 3.85846
# Velocity P-wave (km/s) = 6.94459 7.79967 7.38452
#
# Compressibility (1/GPa) = 0.01370419
#
# Stress axis : x y z
#
# Youngs Moduli (GPa) = 146.33252 41.94255 35.02507
#
# Poissons Ratio (x) = 0.02481 0.16898
# Poissons Ratio (y) = 0.08657 0.60751
# Poissons Ratio (z) = 0.70600 0.72750
#
# Static dielectric constant tensor:
#      x y z
#    x 1.867200 0.000000 -0.020410 
#    y 0.000000 1.822400 0.000000 
#    z -0.020410 0.000000 1.859870 
# 
# From -- ./inp_files/125409.got.cif
#   From: 2010.05.17/outbox.cif.g08.bks.cpg/sg15_63_cif.got.tgz:125409.got - 2010.06.03 18:47:42.
