data_PCOD9297790
_publ_section_title
;
Structure prediction by ZEFSAII (Michael W. Deem and Ramdas Pophale) SiO2 
 PCOD9297790
Probable space group: C 2/C
;
_chemical_formula_sum "Si O2"
_cell_formula_units_Z 60
_cell_length_a 11.511222
_cell_length_b 21.015703
_cell_length_c 15.539988
_cell_angle_alpha 90.000000
_cell_angle_beta 49.164053
_cell_angle_gamma 90.000000
_cell_volume 2844.289066
_symmetry_space_group_name_H-M "C 2/C"
_symmetry_group_IT_number 15
_symmetry_cell_setting 'monoclinic'
loop_
_space_group_symop_operation_xyz
x,y,z
-x,y,1/2-z
-x,-y,-z
x,-y,1/2+z
1/2+x,1/2+y,z
1/2-x,1/2+y,1/2-z
1/2-x,1/2-y,-z
1/2+x,1/2-y,1/2+z
loop_
_atom_site_type_symbol
_atom_site_label
_atom_site_fract_x
_atom_site_fract_y
_atom_site_fract_z
Si Si1 0.410384 0.576310 0.203076
Si Si2 0.220786 0.248315 0.914674
Si Si3 0.558740 0.567889 0.818534
Si Si4 0.160171 0.261715 0.704163
Si Si5 0.932495 0.162302 0.022773
Si Si6 0.500000 0.839335 0.250000
Si Si7 0.385793 0.863023 0.623403
Si Si8 0.868517 0.363163 0.140427
O O1 0.500000 0.588121 0.250000
O O2 0.460224 0.506092 0.149146
O O3 0.439410 0.627164 0.112611
O O4 0.224110 0.577585 0.304165
O O5 0.352079 0.204356 0.815277
O O6 0.225366 0.319750 0.881431
O O7 0.250000 0.250000 0.000000
O O8 0.059933 0.217389 0.966244
O O9 0.500000 0.576573 0.750000
O O10 0.736778 0.587075 0.727511
O O11 0.474856 0.613384 0.927349
O O12 0.268266 0.303961 0.589807
O O13 0.102564 0.315213 0.800960
O O14 0.274658 0.204601 0.678023
O O15 0.000000 0.232707 0.750000
O O16 0.491839 0.870039 0.159233
O O17 0.539174 0.873412 0.493736
#
# Coordination Sequence:
#
# PCOD9297790 Si02
#       8
#     8   8   8   8   8   4   8   8
#     4  10  24  42  67  92 125 173 223 266 322 387
#     4  12  21  35  61  97 131 158 198 262 332 390
#     4  11  25  45  65  91 125 177 226 269 315 385
#     4  11  24  40  62  95 127 167 211 260 332 396
#     4  11  22  43  67  95 130 167 218 274 326 393
#     4  12  22  36  58  98 130 164 200 260 330 390
#     4  11  23  38  59  93 126 163 204 264 319 385
#     4  12  24  39  63  93 132 167 210 264 327 389
#
# _framework density 21.094902999999999
#
# number of rings (size 3 to 8) (size 9 to 14) (size 15 to 20)
#    0.000    0.800    5.333    1.600    4.667    1.067 
#    0.000    0.000    5.867    0.000    0.000    0.000 
#    0.000    0.000    0.000    0.000    0.000    0.000 
#
# Total GULP energy -167303.604332 kJ/mol
# GULP energy per Si atom -5576.786811 kJ/mol
# Density = 2.104689 g / cm^3
# Si number density = 21.094903 Si / 1000 Ang^3
#
#
#
# Elastic Constant Matrix: (Units=GPa)
#
#
# Indices 1 2 3 4 5 6 
#
# 1 72.8846 14.7277 23.9896 0.0000 -14.8314 0.0000
# 2 14.7277 67.4797 11.6716 0.0000 -2.4696 0.0000
# 3 23.9896 11.6716 102.1803 -0.0001 -15.4160 0.0001
# 4 0.0000 0.0000 -0.0001 33.6503 0.0000 0.1323
# 5 -14.8314 -2.4696 -15.4160 0.0000 30.8367 0.0000
# 6 0.0000 0.0000 0.0001 0.1323 0.0000 12.6582
#
#
#
# Elastic Compliance Matrix: (Units=1/GPa)
#
#
# Indices 1 2 3 4 5 6 
#
# 1 0.016455 -0.002914 -0.002565 0.000000 0.006399 0.000000
# 2 -0.002914 0.015638 -0.001216 0.000000 -0.000757 0.000000
# 3 -0.002565 -0.001216 0.011169 0.000000 0.004253 0.000000
# 4 0.000000 0.000000 0.000000 0.029719 0.000000 -0.000311
# 5 0.006399 -0.000757 0.004253 0.000000 0.037572 0.000000
# 6 0.000000 0.000000 0.000000 -0.000311 0.000000 0.079003
#
#
# Mechanical properties :
#
#
# Convention : Reuss Voigt Hill
#
# Bulk Modulus (GPa) = 33.47572 38.14690 35.81131
# Shear Modulus (GPa) = 23.48470 28.23943 25.86207
#
# Velocity S-wave (km/s) = 3.34022 3.66277 3.50521
# Velocity P-wave (km/s) = 5.54794 6.00088 5.77885
#
# Compressibility (1/GPa) = 0.02987240
#
# Stress axis : x y z
#
# Youngs Moduli (GPa) = 60.77006 63.94737 89.53015
#
# Poissons Ratio (x) = 0.18632 0.22966
# Poissons Ratio (y) = 0.17706 0.10891
# Poissons Ratio (z) = 0.15589 0.07779
#
# Static dielectric constant tensor:
#      x y z
#    x 1.765200 0.000000 0.019400 
#    y 0.000000 1.718330 0.000000 
#    z 0.019400 0.000000 1.798770 
# 
# From -- ./inp_files/148092.got.cif
#   From: 2010.05.17/outbox.cif.g08.bks.cpg/sg15_75_cif.got.tgz:148092.got - 2010.06.03 18:47:42.
