data_PCOD9297398
_publ_section_title
;
Structure prediction by ZEFSAII (Michael W. Deem and Ramdas Pophale) SiO2 
 PCOD9297398
Probable space group: C 2/C
;
_chemical_formula_sum "Si O2"
_cell_formula_units_Z 40
_cell_length_a 9.742746
_cell_length_b 22.098226
_cell_length_c 9.010783
_cell_angle_alpha 90.000000
_cell_angle_beta 90.000018
_cell_angle_gamma 90.000000
_cell_volume 1939.998179
_symmetry_space_group_name_H-M "C 2/C"
_symmetry_group_IT_number 15
_symmetry_cell_setting 'monoclinic'
loop_
_space_group_symop_operation_xyz
x,y,z
-x,y,1/2-z
-x,-y,-z
x,-y,1/2+z
1/2+x,1/2+y,z
1/2-x,1/2+y,1/2-z
1/2-x,1/2-y,-z
1/2+x,1/2-y,1/2+z
loop_
_atom_site_type_symbol
_atom_site_label
_atom_site_fract_x
_atom_site_fract_y
_atom_site_fract_z
Si Si1 0.410684 0.190231 0.399539
Si Si2 0.589316 0.309769 0.899539
Si Si3 0.398970 0.086413 0.001333
Si Si4 0.500000 0.499784 0.250000
Si Si5 0.101030 0.086413 0.001333
Si Si6 0.500000 0.999784 0.250000
O O1 0.500000 0.196929 0.250000
O O2 0.420211 0.250000 0.500000
O O3 0.250000 0.178964 0.366411
O O4 0.478632 0.134322 0.487170
O O5 0.500000 0.303071 0.750000
O O6 0.521368 0.365678 0.987170
O O7 0.250000 0.116777 0.998510
O O8 0.411429 0.043386 0.145042
O O9 0.416025 0.043281 0.859889
O O10 0.588571 0.543386 0.145042
O O11 0.583975 0.456719 0.359889
#
# Coordination Sequence:
#
# PCOD9297398 Si02
#       6
#     8   8   8   4   8   4
#     4  11  26  46  68  97 130 169 218 271 325 386
#     4  11  26  46  68  97 130 169 218 271 325 386
#     4  11  23  42  68  97 133 174 217 267 322 385
#     4  10  24  40  64 102 134 172 214 268 320 388
#     4  11  23  42  68  97 133 174 217 267 322 385
#     4  10  24  40  64 102 134 172 214 268 320 388
#
# _framework density 20.618575
#
# number of rings (size 3 to 8) (size 9 to 14) (size 15 to 20)
#    0.000    1.200    2.000    2.400    2.800   11.200 
#    0.000    0.000    0.000    0.000    0.000    0.000 
#    0.000    0.000    0.000    0.000    0.000    0.000 
#
# Total GULP energy -111823.027782 kJ/mol
# GULP energy per Si atom -5591.151389 kJ/mol
# Density = 2.057165 g / cm^3
# Si number density = 20.618575 Si / 1000 Ang^3
#
#
#
# Elastic Constant Matrix: (Units=GPa)
#
#
# Indices 1 2 3 4 5 6 
#
# 1 178.2408 60.2582 30.6500 0.0000 -0.0001 0.0000
# 2 60.2582 107.1479 31.0614 0.0000 0.0000 0.0000
# 3 30.6500 31.0614 76.9816 0.0000 0.0000 0.0000
# 4 0.0000 0.0000 0.0000 26.2105 0.0000 0.0000
# 5 -0.0001 0.0000 0.0000 0.0000 4.7497 0.0000
# 6 0.0000 0.0000 0.0000 0.0000 0.0000 168.5613
#
#
#
# Elastic Compliance Matrix: (Units=1/GPa)
#
#
# Indices 1 2 3 4 5 6 
#
# 1 0.007052 -0.003570 -0.001368 0.000000 0.000000 0.000000
# 2 -0.003570 0.012376 -0.003572 0.000000 0.000000 0.000000
# 3 -0.001368 -0.003572 0.014976 0.000000 0.000000 0.000000
# 4 0.000000 0.000000 0.000000 0.038153 0.000000 0.000000
# 5 0.000000 0.000000 0.000000 0.000000 0.210541 0.000000
# 6 0.000000 0.000000 0.000000 0.000000 0.000000 0.005933
#
#
# Mechanical properties :
#
#
# Convention : Reuss Voigt Hill
#
# Bulk Modulus (GPa) = 57.52012 67.36775 62.44394
# Shear Modulus (GPa) = 16.03360 55.93101 35.98230
#
# Velocity S-wave (km/s) = 2.79162 5.21396 4.18202
# Velocity P-wave (km/s) = 6.19263 8.30611 7.32599
#
# Compressibility (1/GPa) = 0.01738522
#
# Stress axis : x y z
#
# Youngs Moduli (GPa) = 141.79655 80.80134 66.77345
#
# Poissons Ratio (x) = 0.28844 0.09132
# Poissons Ratio (y) = 0.50617 0.23854
# Poissons Ratio (z) = 0.19391 0.28865
#
# Static dielectric constant tensor:
#      x y z
#    x 1.725180 0.000000 0.000000 
#    y 0.000000 1.706250 0.000000 
#    z 0.000000 0.000000 1.721590 
# 
# From -- ./inp_files/23676.got.cif
#   From: 2010.05.17/outbox.cif.g08.bks.cpg/sg15_12_cif.got.tgz:23676.got - 2010.06.03 18:47:42.
