data_PCOD9297560
_publ_section_title
;
Structure prediction by ZEFSAII (Michael W. Deem and Ramdas Pophale) SiO2 
 PCOD9297560
Probable space group: C 2/C
;
_chemical_formula_sum "Si O2"
_cell_formula_units_Z 44
_cell_length_a 12.196710
_cell_length_b 19.449718
_cell_length_c 19.701284
_cell_angle_alpha 90.000000
_cell_angle_beta 154.316855
_cell_angle_gamma 90.000000
_cell_volume 2025.505487
_symmetry_space_group_name_H-M "C 2/C"
_symmetry_group_IT_number 15
_symmetry_cell_setting 'monoclinic'
loop_
_space_group_symop_operation_xyz
x,y,z
-x,y,1/2-z
-x,-y,-z
x,-y,1/2+z
1/2+x,1/2+y,z
1/2-x,1/2+y,1/2-z
1/2-x,1/2-y,-z
1/2+x,1/2-y,1/2+z
loop_
_atom_site_type_symbol
_atom_site_label
_atom_site_fract_x
_atom_site_fract_y
_atom_site_fract_z
Si Si1 0.300273 0.162294 0.415477
Si Si2 0.000000 0.228842 0.750000
Si Si3 0.017030 0.191945 0.017647
Si Si4 0.607235 0.036828 0.627225
Si Si5 0.602609 0.107384 0.181014
Si Si6 0.030816 0.870944 0.392072
O O1 0.362461 0.243294 0.461299
O O2 0.439073 0.106229 0.541073
O O3 0.399286 0.140996 0.395439
O O4 0.000000 0.152207 0.250000
O O5 0.254056 0.271291 0.894309
O O6 0.977835 0.186529 0.806524
O O7 0.158187 0.142695 0.149422
O O8 0.901502 0.147174 0.892007
O O9 0.895354 0.062630 0.784367
O O10 0.500000 0.000000 0.500000
O O11 0.613272 0.974983 0.683809
O O12 0.331986 0.121185 0.064203
#
# Coordination Sequence:
#
# PCOD9297560 Si02
#       6
#     8   4   8   8   8   8
#     4  11  25  42  65  96 136 180 226 274 337 408
#     4  12  18  36  66 102 124 156 218 286 330 380
#     4  12  23  41  66 103 133 169 220 287 342 392
#     4  10  24  41  64  96 129 178 225 274 328 403
#     4  11  24  41  67  97 135 176 222 284 337 396
#     4  12  22  40  71  98 129 171 230 280 336 389
#
# _framework density 21.722971999999999
#
# number of rings (size 3 to 8) (size 9 to 14) (size 15 to 20)
#    0.000    0.727    5.455    2.727    5.091    1.455 
#    0.000    0.000    0.000    0.000    0.000    0.000 
#    0.000    0.000    0.000    0.000    0.000    0.000 
#
# Total GULP energy -122733.646677 kJ/mol
# GULP energy per Si atom -5578.802122 kJ/mol
# Density = 2.167353 g / cm^3
# Si number density = 21.722972 Si / 1000 Ang^3
#
#
#
# Elastic Constant Matrix: (Units=GPa)
#
#
# Indices 1 2 3 4 5 6 
#
# 1 21.7433 40.5668 13.3496 0.0036 -7.0193 -0.0012
# 2 40.5668 101.8483 43.3860 0.0127 -14.0258 -0.0031
# 3 13.3496 43.3860 86.7324 0.0127 -6.2296 -0.0066
# 4 0.0036 0.0127 0.0127 31.8897 0.0039 -29.7093
# 5 -7.0193 -14.0258 -6.2296 0.0039 37.8766 -0.0045
# 6 -0.0012 -0.0031 -0.0066 -29.7093 -0.0045 28.1684
#
#
#
# Elastic Compliance Matrix: (Units=1/GPa)
#
#
# Indices 1 2 3 4 5 6 
#
# 1 0.188660 -0.078739 0.010895 0.000415 0.007597 0.000441
# 2 -0.078739 0.045856 -0.010775 -0.000323 0.000616 -0.000341
# 3 0.010895 -0.010775 0.015281 -0.000023 0.000543 -0.000022
# 4 0.000415 -0.000323 -0.000023 1.800746 -0.000009 1.899247
# 5 0.007597 0.000616 0.000543 -0.000009 0.028127 -0.000004
# 6 0.000441 -0.000341 -0.000022 1.899247 -0.000004 2.038637
#
#
# Mechanical properties :
#
#
# Convention : Reuss Voigt Hill
#
# Bulk Modulus (GPa) = 10.80387 44.99209 27.89798
# Shear Modulus (GPa) = 1.16133 27.12171 14.14152
#
# Velocity S-wave (km/s) = 0.73196 3.53728 2.55423
# Velocity P-wave (km/s) = 2.38718 6.11881 4.64427
#
# Compressibility (1/GPa) = 0.09255945
#
# Stress axis : x y z
#
# Youngs Moduli (GPa) = 5.30055 21.80755 65.43862
#
# Poissons Ratio (x) = 1.71711 -0.71298
# Poissons Ratio (y) = 0.41736 0.70508
# Poissons Ratio (z) = -0.05775 0.23497
#
# Static dielectric constant tensor:
#      x y z
#    x 1.899630 -0.000020 -0.021310 
#    y -0.000020 1.901710 -0.000020 
#    z -0.021310 -0.000020 1.843600 
# 
# From -- ./inp_files/98501.got.cif
#   From: 2010.05.17/outbox.cif.g08.bks.cpg/sg15_50_cif.got.tgz:98501.got - 2010.06.03 18:47:42.
