data_PCOD9297497
_publ_section_title
;
Structure prediction by ZEFSAII (Michael W. Deem and Ramdas Pophale) SiO2 
 PCOD9297497
Probable space group: C 2/C
;
_chemical_formula_sum "Si O2"
_cell_formula_units_Z 40
_cell_length_a 22.910323
_cell_length_b 13.851598
_cell_length_c 8.605596
_cell_angle_alpha 90.000000
_cell_angle_beta 136.813646
_cell_angle_gamma 90.000000
_cell_volume 1868.982394
_symmetry_space_group_name_H-M "C 2/C"
_symmetry_group_IT_number 15
_symmetry_cell_setting 'monoclinic'
loop_
_space_group_symop_operation_xyz
x,y,z
-x,y,1/2-z
-x,-y,-z
x,-y,1/2+z
1/2+x,1/2+y,z
1/2-x,1/2+y,1/2-z
1/2-x,1/2-y,-z
1/2+x,1/2-y,1/2+z
loop_
_atom_site_type_symbol
_atom_site_label
_atom_site_fract_x
_atom_site_fract_y
_atom_site_fract_z
Si Si1 0.018443 0.605339 0.968727
Si Si2 0.687889 0.601327 0.365155
Si Si3 0.148097 0.686616 0.727402
Si Si4 0.404016 0.567206 0.631240
Si Si5 0.655512 0.233720 0.378576
O O1 0.000000 0.607150 0.750000
O O2 0.949385 0.668083 0.926290
O O3 0.108539 0.652466 0.186224
O O4 0.000000 0.500000 0.000000
O O5 0.789109 0.600965 0.594137
O O6 0.667433 0.713786 0.355857
O O7 0.629962 0.527635 0.348542
O O8 0.661830 0.583045 0.137716
O O9 0.159656 0.700262 0.566008
O O10 0.500000 0.558807 0.750000
O O11 0.394746 0.663549 0.718225
O O12 0.750000 0.250000 0.500000
#
# Coordination Sequence:
#
# PCOD9297497 Si02
#       5
#     8   8   8   8   8
#     4  12  28  46  77 105 141 194 244 301 370 437
#     4  10  24  40  70  97 137 184 226 295 353 440
#     4  10  24  47  67  99 147 178 240 296 361 432
#     4  11  24  43  67 100 140 181 236 298 372 424
#     4  11  26  46  72 106 143 189 239 305 362 438
#
# _framework density 21.402021000000001
#
# number of rings (size 3 to 8) (size 9 to 14) (size 15 to 20)
#    0.000    1.200    0.000    4.800   14.000    0.800 
#    0.000    0.000    0.000    0.000    0.000    0.000 
#    0.000    0.000    0.000    0.000    0.000    0.000 
#
# Total GULP energy -111778.815996 kJ/mol
# GULP energy per Si atom -5588.940800 kJ/mol
# Density = 2.135331 g / cm^3
# Si number density = 21.402021 Si / 1000 Ang^3
#
#
#
# Elastic Constant Matrix: (Units=GPa)
#
#
# Indices 1 2 3 4 5 6 
#
# 1 112.7768 43.0930 43.1528 0.0000 2.4006 0.0000
# 2 43.0930 122.2409 45.8710 0.0000 5.8399 0.0000
# 3 43.1528 45.8710 111.8779 0.0000 0.4118 0.0000
# 4 0.0000 0.0000 0.0000 23.1473 0.0000 10.2415
# 5 2.4006 5.8399 0.4118 0.0000 32.1994 0.0000
# 6 0.0000 0.0000 0.0000 10.2415 0.0000 32.0227
#
#
#
# Elastic Compliance Matrix: (Units=1/GPa)
#
#
# Indices 1 2 3 4 5 6 
#
# 1 0.011127 -0.002716 -0.003177 0.000000 -0.000296 0.000000
# 2 -0.002716 0.010425 -0.003221 0.000000 -0.001647 0.000000
# 3 -0.003177 -0.003221 0.011482 0.000000 0.000674 0.000000
# 4 0.000000 0.000000 0.000000 0.050322 0.000000 -0.016094
# 5 -0.000296 -0.001647 0.000674 0.000000 0.031369 0.000000
# 6 0.000000 0.000000 0.000000 -0.016094 0.000000 0.036375
#
#
# Mechanical properties :
#
#
# Convention : Reuss Voigt Hill
#
# Bulk Modulus (GPa) = 67.53970 67.90324 67.72147
# Shear Modulus (GPa) = 28.69217 31.79247 30.24232
#
# Velocity S-wave (km/s) = 3.66543 3.85839 3.76315
# Velocity P-wave (km/s) = 7.03847 7.18651 7.11287
#
# Compressibility (1/GPa) = 0.01480611
#
# Stress axis : x y z
#
# Youngs Moduli (GPa) = 89.87212 95.91975 87.09427
#
# Poissons Ratio (x) = 0.26053 0.27670
# Poissons Ratio (y) = 0.24411 0.28051
# Poissons Ratio (z) = 0.28553 0.30894
#
# Static dielectric constant tensor:
#      x y z
#    x 1.731550 0.000000 0.008840 
#    y 0.000000 1.777390 0.000000 
#    z 0.008840 0.000000 1.766260 
# 
# From -- ./inp_files/61725.got.cif
#   From: 2010.05.17/outbox.cif.g08.bks.cpg/sg15_31_cif.got.tgz:61725.got - 2010.06.03 18:47:42.
