data_PCOD9297263
_publ_section_title
;
Structure prediction by ZEFSAII (Michael W. Deem and Ramdas Pophale) SiO2 
 PCOD9297263
Probable space group: C 2/C
;
_chemical_formula_sum "Si O2"
_cell_formula_units_Z 36
_cell_length_a 20.598224
_cell_length_b 10.141158
_cell_length_c 15.101423
_cell_angle_alpha 90.000000
_cell_angle_beta 30.537575
_cell_angle_gamma 90.000000
_cell_volume 1602.829135
_symmetry_space_group_name_H-M "C 2/C"
_symmetry_group_IT_number 15
_symmetry_cell_setting 'monoclinic'
loop_
_space_group_symop_operation_xyz
x,y,z
-x,y,1/2-z
-x,-y,-z
x,-y,1/2+z
1/2+x,1/2+y,z
1/2-x,1/2+y,1/2-z
1/2-x,1/2-y,-z
1/2+x,1/2-y,1/2+z
loop_
_atom_site_type_symbol
_atom_site_label
_atom_site_fract_x
_atom_site_fract_y
_atom_site_fract_z
Si Si1 0.855927 0.465392 0.197777
Si Si2 0.964406 0.807328 0.611121
Si Si3 0.500000 0.815171 0.250000
Si Si4 0.171599 0.920608 0.252139
Si Si5 0.639139 0.927716 0.617634
O O1 0.864301 0.309103 0.209771
O O2 0.761563 0.473798 0.226022
O O3 0.829941 0.555443 0.314823
O O4 0.000000 0.500000 0.000000
O O5 0.020557 0.769794 0.639724
O O6 0.906893 0.951905 0.685424
O O7 0.073737 0.815577 0.408145
O O8 0.382027 0.917065 0.382503
O O9 0.253788 0.871200 0.072584
O O10 0.500000 0.870625 0.750000
#
# Coordination Sequence:
#
# PCOD9297263 Si02
#       5
#     8   8   4   8   8
#     4  11  22  39  66  86 124 163 208 249 310 366
#     4  10  24  38  61  98 119 161 202 261 316 350
#     4   8  18  38  64  90 118 150 218 258 304 346
#     4  11  23  39  61  92 130 152 204 264 306 367
#     4   9  19  38  60  93 115 160 208 253 303 355
#
# _framework density 22.460286
#
# number of rings (size 3 to 8) (size 9 to 14) (size 15 to 20)
#    0.667    1.333    2.222    0.000    9.333    1.778 
#    0.000    1.111    4.889    0.000    0.000    0.000 
#    0.000    0.000    0.000    0.000    0.000    0.000 
#
# Total GULP energy -100462.630358 kJ/mol
# GULP energy per Si atom -5581.257242 kJ/mol
# Density = 2.240917 g / cm^3
# Si number density = 22.460286 Si / 1000 Ang^3
#
#
#
# Elastic Constant Matrix: (Units=GPa)
#
#
# Indices 1 2 3 4 5 6 
#
# 1 47.1791 -0.8725 -2.4064 0.0000 18.0740 0.0000
# 2 -0.8725 59.5812 6.6900 0.0000 8.9040 0.0000
# 3 -2.4064 6.6900 117.8269 0.0000 27.6275 0.0000
# 4 0.0000 0.0000 0.0000 24.0418 0.0000 13.5226
# 5 18.0740 8.9040 27.6275 0.0000 34.0114 0.0000
# 6 0.0000 0.0000 0.0000 13.5226 0.0000 20.2199
#
#
#
# Elastic Compliance Matrix: (Units=1/GPa)
#
#
# Indices 1 2 3 4 5 6 
#
# 1 0.029459 0.002934 0.005294 0.000000 -0.020724 0.000000
# 2 0.002934 0.017760 0.000627 0.000000 -0.006718 0.000000
# 3 0.005294 0.000627 0.011436 0.000000 -0.012267 0.000000
# 4 0.000000 0.000000 0.000000 0.066675 0.000000 -0.044591
# 5 -0.020724 -0.006718 -0.012267 0.000000 0.052138 0.000000
# 6 0.000000 0.000000 0.000000 -0.044591 0.000000 0.079278
#
#
# Mechanical properties :
#
#
# Convention : Reuss Voigt Hill
#
# Bulk Modulus (GPa) = 13.09501 25.71215 19.40358
# Shear Modulus (GPa) = 18.90426 30.39969 24.65198
#
# Velocity S-wave (km/s) = 2.90431 3.68297 3.31657
# Velocity P-wave (km/s) = 4.13396 5.43676 4.82949
#
# Compressibility (1/GPa) = 0.07636495
#
# Stress axis : x y z
#
# Youngs Moduli (GPa) = 33.94523 56.30526 87.44450
#
# Poissons Ratio (x) = -0.16520 -0.46295
# Poissons Ratio (y) = -0.09959 -0.05480
# Poissons Ratio (z) = -0.17971 -0.03528
#
# Static dielectric constant tensor:
#      x y z
#    x 1.779020 0.000000 -0.015120 
#    y 0.000000 1.845100 0.000000 
#    z -0.015120 0.000000 1.874610 
# 
# From -- ./inp_files/167485.got.cif
#   From: 2010.05.17/outbox.cif.g08.bks.cpg/sg15_84_cif.got.tgz:167485.got - 2010.06.03 18:47:42.
