data_PCOD9297295
_publ_section_title
;
Structure prediction by ZEFSAII (Michael W. Deem and Ramdas Pophale) SiO2 
 PCOD9297295
Probable space group: C 2/C
;
_chemical_formula_sum "Si O2"
_cell_formula_units_Z 28
_cell_length_a 7.002181
_cell_length_b 27.744381
_cell_length_c 7.839929
_cell_angle_alpha 90.000000
_cell_angle_beta 54.311157
_cell_angle_gamma 90.000000
_cell_volume 1237.034920
_symmetry_space_group_name_H-M "C 2/C"
_symmetry_group_IT_number 15
_symmetry_cell_setting 'monoclinic'
loop_
_space_group_symop_operation_xyz
x,y,z
-x,y,1/2-z
-x,-y,-z
x,-y,1/2+z
1/2+x,1/2+y,z
1/2-x,1/2+y,1/2-z
1/2-x,1/2-y,-z
1/2+x,1/2-y,1/2+z
loop_
_atom_site_type_symbol
_atom_site_label
_atom_site_fract_x
_atom_site_fract_y
_atom_site_fract_z
Si Si1 0.745525 0.054034 0.216242
Si Si2 0.255592 0.806463 0.045241
Si Si3 0.000000 0.032011 0.750000
Si Si4 0.258188 0.843687 0.667155
O O1 0.500000 0.051720 0.250000
O O2 0.741917 0.098657 0.349377
O O3 0.801421 0.005315 0.288385
O O4 0.924944 0.059518 0.961301
O O5 0.000000 0.818227 0.250000
O O6 0.250000 0.750000 0.000000
O O7 0.266933 0.834954 0.863868
O O8 0.495524 0.819737 0.023348
O O9 0.000000 0.824279 0.750000
#
# Coordination Sequence:
#
# PCOD9297295 Si02
#       4
#     8   8   4   8
#     4  11  21  42  62  93 128 170 212 266 317 373
#     4  11  23  46  66  92 127 170 212 266 327 382
#     4  10  24  38  66  92 126 170 220 256 322 372
#     4  11  24  41  67  97 133 166 217 268 314 390
#
# _framework density 22.63477
#
# number of rings (size 3 to 8) (size 9 to 14) (size 15 to 20)
#    0.000    1.143    7.143    0.857    2.000    2.286 
#    0.000    0.000    0.000    0.000    0.000    0.000 
#    0.000    0.000    0.000    0.000    0.000    0.000 
#
# Total GULP energy -78046.362679 kJ/mol
# GULP energy per Si atom -5574.740191 kJ/mol
# Density = 2.258325 g / cm^3
# Si number density = 22.634770 Si / 1000 Ang^3
#
#
#
# Elastic Constant Matrix: (Units=GPa)
#
#
# Indices 1 2 3 4 5 6 
#
# 1 168.3017 14.4443 27.3401 0.0000 -56.1083 0.0000
# 2 14.4443 92.4064 11.0481 0.0000 -20.4656 0.0000
# 3 27.3401 11.0481 97.2799 0.0000 -34.5970 0.0000
# 4 0.0000 0.0000 0.0000 -20.7193 0.0000 -4.9493
# 5 -56.1083 -20.4656 -34.5970 0.0000 51.0897 0.0000
# 6 0.0000 0.0000 0.0000 -4.9493 0.0000 16.5534
#
#
#
# Elastic Compliance Matrix: (Units=1/GPa)
#
#
# Indices 1 2 3 4 5 6 
#
# 1 0.009588 0.000962 0.001420 0.000000 0.011877 0.000000
# 2 0.000962 0.011987 0.000595 0.000000 0.006261 0.000000
# 3 0.001420 0.000595 0.013768 0.000000 0.011121 0.000000
# 4 0.000000 0.000000 0.000000 -0.045047 0.000000 -0.013469
# 5 0.011877 0.006261 0.011121 0.000000 0.042656 0.000000
# 6 0.000000 0.000000 0.000000 -0.013469 0.000000 0.056384
#
#
# Mechanical properties :
#
#
# Convention : Reuss Voigt Hill
#
# Bulk Modulus (GPa) = 24.21502 51.51700 37.86601
# Shear Modulus (GPa) = 51.46802 29.72844 40.59823
#
# Velocity S-wave (km/s) = 4.77366 3.62801 4.23971
# Velocity P-wave (km/s) = 6.41133 6.35291 6.38219
#
# Compressibility (1/GPa) = 0.04129668
#
# Stress axis : x y z
#
# Youngs Moduli (GPa) = 104.29813 83.42424 72.63109
#
# Poissons Ratio (x) = -0.08024 -0.10313
# Poissons Ratio (y) = -0.10032 -0.04322
# Poissons Ratio (z) = -0.14810 -0.04964
#
# Static dielectric constant tensor:
#      x y z
#    x 1.920390 0.000000 -0.082020 
#    y 0.000000 1.989230 0.000000 
#    z -0.082020 0.000000 1.924480 
# 
# From -- ./inp_files/19883.got.cif
#   From: 2010.05.17/outbox.cif.g08.bks.cpg/sg15_10_cif.got.tgz:19883.got - 2010.06.03 18:47:42.
