data_PCOD9297180
_publ_section_title
;
Structure prediction by ZEFSAII (Michael W. Deem and Ramdas Pophale) SiO2 
 PCOD9297180
Probable space group: C 2/C
;
_chemical_formula_sum "Si O2"
_cell_formula_units_Z 40
_cell_length_a 12.423396
_cell_length_b 10.486732
_cell_length_c 27.712856
_cell_angle_alpha 90.000000
_cell_angle_beta 152.582055
_cell_angle_gamma 90.000000
_cell_volume 1662.533880
_symmetry_space_group_name_H-M "C 2/C"
_symmetry_group_IT_number 15
_symmetry_cell_setting 'monoclinic'
loop_
_space_group_symop_operation_xyz
x,y,z
-x,y,1/2-z
-x,-y,-z
x,-y,1/2+z
1/2+x,1/2+y,z
1/2-x,1/2+y,1/2-z
1/2-x,1/2-y,-z
1/2+x,1/2-y,1/2+z
loop_
_atom_site_type_symbol
_atom_site_label
_atom_site_fract_x
_atom_site_fract_y
_atom_site_fract_z
Si Si1 0.533583 0.018559 0.819661
Si Si2 0.584484 0.237217 0.388320
Si Si3 0.205090 0.416686 0.104617
Si Si4 0.330846 0.432143 0.753001
Si Si5 0.226852 0.731757 0.047312
O O1 0.500000 0.006252 0.750000
O O2 0.682192 0.142765 0.890345
O O3 0.655996 0.892292 0.889120
O O4 0.285734 0.013724 0.750042
O O5 0.750000 0.250000 0.500000
O O6 0.616326 0.354176 0.363415
O O7 0.328415 0.197264 0.306382
O O8 0.718844 0.495388 0.317302
O O9 0.000000 0.500000 0.000000
O O10 0.046747 0.295506 0.056071
O O11 0.593973 0.381180 0.864671
O O12 0.250000 0.750000 0.000000
#
# Coordination Sequence:
#
# PCOD9297180 Si02
#       5
#     8   8   8   8   8
#     4  10  25  47  72 111 149 215 250 330 413 463
#     4  10  23  50  75 115 159 206 268 324 408 485
#     4  12  25  48  79 118 151 212 264 333 406 486
#     4  10  26  50  73 116 159 211 265 332 406 482
#     4  12  27  51  75 112 158 201 276 329 402 489
#
# _framework density 24.059661999999999
#
# number of rings (size 3 to 8) (size 9 to 14) (size 15 to 20)
#    1.200    0.000    4.000    0.000    5.600    2.400 
#   10.800    0.000    0.000    0.000    0.000    0.000 
#    0.000    0.000    0.000    0.000    0.000    0.000 
#
# Total GULP energy -111692.729888 kJ/mol
# GULP energy per Si atom -5584.636494 kJ/mol
# Density = 2.400490 g / cm^3
# Si number density = 24.059662 Si / 1000 Ang^3
#
#
#
# Elastic Constant Matrix: (Units=GPa)
#
#
# Indices 1 2 3 4 5 6 
#
# 1 194.6270 59.3737 91.1919 0.0000 -19.6744 0.0000
# 2 59.3737 160.2689 48.7685 0.0000 -20.9894 0.0000
# 3 91.1919 48.7685 132.6467 0.0007 -10.4550 -0.0001
# 4 0.0000 0.0000 0.0007 49.8753 -0.0002 -8.7904
# 5 -19.6744 -20.9894 -10.4550 -0.0002 63.0260 0.0000
# 6 0.0000 0.0000 -0.0001 -8.7904 0.0000 46.9399
#
#
#
# Elastic Compliance Matrix: (Units=1/GPa)
#
#
# Indices 1 2 3 4 5 6 
#
# 1 0.007950 -0.001294 -0.004892 0.000000 0.001239 0.000000
# 2 -0.001294 0.007478 -0.001717 0.000000 0.001801 0.000000
# 3 -0.004892 -0.001717 0.011519 0.000000 -0.000188 0.000000
# 4 0.000000 0.000000 0.000000 0.020734 0.000000 0.003883
# 5 0.001239 0.001801 -0.000188 0.000000 0.016822 0.000000
# 6 0.000000 0.000000 0.000000 0.003883 0.000000 0.022031
#
#
# Mechanical properties :
#
#
# Convention : Reuss Voigt Hill
#
# Bulk Modulus (GPa) = 89.77649 98.46790 94.12219
# Shear Modulus (GPa) = 47.14561 51.18216 49.16388
#
# Velocity S-wave (km/s) = 4.43146 4.61727 4.52532
# Velocity P-wave (km/s) = 7.97364 8.33313 8.15536
#
# Compressibility (1/GPa) = 0.01113877
#
# Stress axis : x y z
#
# Youngs Moduli (GPa) = 125.78014 133.73449 86.81591
#
# Poissons Ratio (x) = 0.17310 0.42472
# Poissons Ratio (y) = 0.16281 0.14909
# Poissons Ratio (z) = 0.61534 0.22967
#
# Static dielectric constant tensor:
#      x y z
#    x 2.013910 0.000000 0.176720 
#    y 0.000000 2.096640 0.000000 
#    z 0.176720 0.000000 1.991190 
# 
# From -- ./inp_files/310864.got.cif
#   From: 2010.05.17/outbox.cif.g08.bks.cpg/sg15_156_cif.got.tgz:310864.got - 2010.06.03 18:47:42.
