data_PCOD9297369
_publ_section_title
;
Structure prediction by ZEFSAII (Michael W. Deem and Ramdas Pophale) SiO2 
 PCOD9297369
Probable space group: C 2/C
;
_chemical_formula_sum "Si O2"
_cell_formula_units_Z 56
_cell_length_a 18.154908
_cell_length_b 21.036348
_cell_length_c 14.203536
_cell_angle_alpha 90.000000
_cell_angle_beta 29.956010
_cell_angle_gamma 90.000000
_cell_volume 2708.649651
_symmetry_space_group_name_H-M "C 2/C"
_symmetry_group_IT_number 15
_symmetry_cell_setting 'monoclinic'
loop_
_space_group_symop_operation_xyz
x,y,z
-x,y,1/2-z
-x,-y,-z
x,-y,1/2+z
1/2+x,1/2+y,z
1/2-x,1/2+y,1/2-z
1/2-x,1/2-y,-z
1/2+x,1/2-y,1/2+z
loop_
_atom_site_type_symbol
_atom_site_label
_atom_site_fract_x
_atom_site_fract_y
_atom_site_fract_z
Si Si1 0.823814 0.554642 0.614024
Si Si2 0.740455 0.976978 0.528724
Si Si3 0.000000 0.443745 0.250000
Si Si4 0.631589 0.656756 0.927069
Si Si5 0.000000 0.921403 0.750000
Si Si6 0.158367 0.579890 0.299715
Si Si7 0.346416 0.163671 0.022734
Si Si8 0.892662 0.748201 0.706198
O O1 0.803063 0.550276 0.524595
O O2 0.693873 0.599691 0.795909
O O3 0.811218 0.484868 0.675147
O O4 0.983621 0.582374 0.467789
O O5 0.754059 0.926960 0.598181
O O6 0.592228 0.016041 0.722225
O O7 0.869089 0.028089 0.373964
O O8 0.882019 0.399750 0.429211
O O9 0.774084 0.701573 0.789434
O O10 0.561271 0.623096 0.097771
O O11 0.505540 0.704283 0.027003
O O12 0.191414 0.640251 0.329641
O O13 0.215589 0.202882 0.121605
O O14 0.495067 0.204648 0.861203
#
# Coordination Sequence:
#
# PCOD9297369 Si02
#       8
#     8   8   4   8   4   8   8   8
#     4  11  21  39  68  92 125 166 208 264 321 375
#     4  12  23  38  63  99 129 163 204 258 328 382
#     4  12  20  35  62  90 120 167 210 246 310 394
#     4  11  23  42  61  90 129 168 213 258 312 371
#     4  12  26  37  58  98 138 161 202 266 312 392
#     4  11  20  40  65  95 122 167 209 263 319 379
#     4  11  22  38  62  87 125 164 212 259 307 376
#     4  10  24  40  60  87 123 174 213 256 307 368
#
# _framework density 20.674509
#
# number of rings (size 3 to 8) (size 9 to 14) (size 15 to 20)
#    0.000    0.857    5.714    2.571    0.000    5.143 
#    0.000    0.000    0.000    5.143    0.000    0.000 
#    0.000    0.000    0.000    0.000    0.000    0.000 
#
# Total GULP energy -156235.614162 kJ/mol
# GULP energy per Si atom -5579.843363 kJ/mol
# Density = 2.062745 g / cm^3
# Si number density = 20.674509 Si / 1000 Ang^3
#
#
#
# Elastic Constant Matrix: (Units=GPa)
#
#
# Indices 1 2 3 4 5 6 
#
# 1 78.8499 34.0322 48.6349 -0.0062 14.5772 0.0070
# 2 34.0322 78.7236 51.2604 -0.0041 1.3669 0.0054
# 3 48.6349 51.2604 105.0463 -0.0047 -7.5321 0.0081
# 4 -0.0062 -0.0041 -0.0047 55.8621 0.0044 -11.1921
# 5 14.5772 1.3669 -7.5321 0.0044 43.2401 -0.0057
# 6 0.0070 0.0054 0.0081 -11.1921 -0.0057 19.4107
#
#
#
# Elastic Compliance Matrix: (Units=1/GPa)
#
#
# Indices 1 2 3 4 5 6 
#
# 1 0.021082 -0.003241 -0.008791 0.000001 -0.008536 -0.000005
# 2 -0.003241 0.019326 -0.007995 0.000000 -0.000911 -0.000001
# 3 -0.008791 -0.007995 0.017946 -0.000001 0.006342 -0.000001
# 4 0.000001 0.000000 -0.000001 0.020239 -0.000001 0.011670
# 5 -0.008536 -0.000911 0.006342 -0.000001 0.027138 0.000008
# 6 -0.000005 -0.000001 -0.000001 0.011670 0.000008 0.058247
#
#
# Mechanical properties :
#
#
# Convention : Reuss Voigt Hill
#
# Bulk Modulus (GPa) = 54.64907 58.94165 56.79536
# Shear Modulus (GPa) = 23.79468 32.28208 28.03838
#
# Velocity S-wave (km/s) = 3.39620 3.95580 3.68663
# Velocity P-wave (km/s) = 6.47065 7.03105 6.75666
#
# Compressibility (1/GPa) = 0.01829857
#
# Stress axis : x y z
#
# Youngs Moduli (GPa) = 47.43487 51.74453 55.72309
#
# Poissons Ratio (x) = 0.16772 0.48985
# Poissons Ratio (y) = 0.15375 0.44552
# Poissons Ratio (z) = 0.41699 0.41371
#
# Static dielectric constant tensor:
#      x y z
#    x 1.817220 0.000000 0.007990 
#    y 0.000000 1.761190 0.000000 
#    z 0.007990 0.000000 1.787000 
# 
# From -- ./inp_files/163792.got.cif
#   From: 2010.05.17/outbox.cif.g08.bks.cpg/sg15_82_cif.got.tgz:163792.got - 2010.06.03 18:47:42.
