data_PCOD9297170
_publ_section_title
;
Structure prediction by ZEFSAII (Michael W. Deem and Ramdas Pophale) SiO2 
 PCOD9297170
Probable space group: C 2/C
;
_chemical_formula_sum "Si O2"
_cell_formula_units_Z 48
_cell_length_a 13.430322
_cell_length_b 11.961084
_cell_length_c 15.327679
_cell_angle_alpha 90.000000
_cell_angle_beta 58.417508
_cell_angle_gamma 90.000000
_cell_volume 2097.564664
_symmetry_space_group_name_H-M "C 2/C"
_symmetry_group_IT_number 15
_symmetry_cell_setting 'monoclinic'
loop_
_space_group_symop_operation_xyz
x,y,z
-x,y,1/2-z
-x,-y,-z
x,-y,1/2+z
1/2+x,1/2+y,z
1/2-x,1/2+y,1/2-z
1/2-x,1/2-y,-z
1/2+x,1/2-y,1/2+z
loop_
_atom_site_type_symbol
_atom_site_label
_atom_site_fract_x
_atom_site_fract_y
_atom_site_fract_z
Si Si1 0.327807 0.777455 0.221973
Si Si2 0.900437 0.202156 0.011113
Si Si3 0.177742 0.432338 0.540290
Si Si4 0.777010 0.156995 0.416351
Si Si5 0.582821 0.361379 0.289992
Si Si6 0.000000 0.556654 0.750000
Si Si7 0.500000 0.574293 0.250000
O O1 0.396758 0.710689 0.116397
O O2 0.263111 0.704108 0.325578
O O3 0.216201 0.828082 0.223514
O O4 0.414024 0.865223 0.230386
O O5 0.796391 0.119210 0.027624
O O6 0.876565 0.327962 0.986665
O O7 0.018955 0.162734 0.910098
O O8 0.213589 0.540801 0.466786
O O9 0.085144 0.479985 0.652485
O O10 0.750000 0.250000 0.500000
O O11 0.915829 0.139610 0.351262
O O12 0.500000 0.311827 0.250000
O O13 0.578198 0.492073 0.271421
#
# Coordination Sequence:
#
# PCOD9297170 Si02
#       7
#     8   8   8   8   8   4   4
#     4  12  28  47  79 117 155 201 255 318 385 454
#     4  11  25  48  79 116 145 203 264 314 376 455
#     4  11  25  50  78 111 157 199 254 319 383 459
#     4  12  25  47  74 106 157 200 246 312 387 453
#     4  10  23  49  79 110 150 197 255 315 373 450
#     4  12  29  49  76 118 162 201 249 320 400 454
#     4  10  23  49  78 102 150 197 253 310 366 464
#
# _framework density 22.883680999999999
#
# number of rings (size 3 to 8) (size 9 to 14) (size 15 to 20)
#    0.500    0.333    3.333    3.500    5.833    3.333 
#    0.000    2.500    0.000    0.000    0.000    0.000 
#    0.000    0.000    0.000    0.000    0.000    0.000 
#
# Total GULP energy -134167.456457 kJ/mol
# GULP energy per Si atom -5590.310686 kJ/mol
# Density = 2.283160 g / cm^3
# Si number density = 22.883681 Si / 1000 Ang^3
#
#
#
# Elastic Constant Matrix: (Units=GPa)
#
#
# Indices 1 2 3 4 5 6 
#
# 1 96.3323 23.4702 18.5020 0.0000 -10.3535 0.0000
# 2 23.4702 124.3373 60.5032 0.0000 -3.7280 0.0000
# 3 18.5020 60.5032 192.9034 0.0000 -18.8567 0.0000
# 4 0.0000 0.0000 0.0000 61.8393 0.0000 -8.8119
# 5 -10.3535 -3.7280 -18.8567 0.0000 36.7761 0.0000
# 6 0.0000 0.0000 0.0000 -8.8119 0.0000 18.9731
#
#
#
# Elastic Compliance Matrix: (Units=1/GPa)
#
#
# Indices 1 2 3 4 5 6 
#
# 1 0.011196 -0.001937 -0.000187 0.000000 0.002860 0.000000
# 2 -0.001937 0.009839 -0.003007 0.000000 -0.001089 0.000000
# 3 -0.000187 -0.003007 0.006432 0.000000 0.002941 0.000000
# 4 0.000000 0.000000 0.000000 0.017317 0.000000 0.008043
# 5 0.002860 -0.001089 0.002941 0.000000 0.029394 0.000000
# 6 0.000000 0.000000 0.000000 0.008043 0.000000 0.056442
#
#
# Mechanical properties :
#
#
# Convention : Reuss Voigt Hill
#
# Bulk Modulus (GPa) = 58.11745 68.72486 63.42116
# Shear Modulus (GPa) = 34.10291 44.25753 39.18022
#
# Velocity S-wave (km/s) = 3.86459 4.40252 4.14230
# Velocity P-wave (km/s) = 6.73539 7.47933 7.11709
#
# Compressibility (1/GPa) = 0.01720654
#
# Stress axis : x y z
#
# Youngs Moduli (GPa) = 89.31891 101.64090 155.46489
#
# Poissons Ratio (x) = 0.19685 0.02905
# Poissons Ratio (y) = 0.17298 0.46741
# Poissons Ratio (z) = 0.01669 0.30559
#
# Static dielectric constant tensor:
#      x y z
#    x 1.934290 0.000000 0.023300 
#    y 0.000000 1.874110 0.000000 
#    z 0.023300 0.000000 1.809270 
# 
# From -- ./inp_files/152512.got.cif
#   From: 2010.05.17/outbox.cif.g08.bks.cpg/sg15_77_cif.got.tgz:152512.got - 2010.06.03 18:47:42.
