data_PCOD9297298
_publ_section_title
;
Structure prediction by ZEFSAII (Michael W. Deem and Ramdas Pophale) SiO2 
 PCOD9297298
Probable space group: C 2/C
;
_chemical_formula_sum "Si O2"
_cell_formula_units_Z 60
_cell_length_a 20.367576
_cell_length_b 22.792875
_cell_length_c 8.525804
_cell_angle_alpha 90.000000
_cell_angle_beta 133.138291
_cell_angle_gamma 90.000000
_cell_volume 2888.161044
_symmetry_space_group_name_H-M "C 2/C"
_symmetry_group_IT_number 15
_symmetry_cell_setting 'monoclinic'
loop_
_space_group_symop_operation_xyz
x,y,z
-x,y,1/2-z
-x,-y,-z
x,-y,1/2+z
1/2+x,1/2+y,z
1/2-x,1/2+y,1/2-z
1/2-x,1/2-y,-z
1/2+x,1/2-y,1/2+z
loop_
_atom_site_type_symbol
_atom_site_label
_atom_site_fract_x
_atom_site_fract_y
_atom_site_fract_z
Si Si1 0.674988 0.977298 0.038596
Si Si2 0.377368 0.442745 0.320796
Si Si3 0.000000 0.021155 0.750000
Si Si4 0.895385 0.827386 0.542658
Si Si5 0.741994 0.683282 0.427582
Si Si6 0.055263 0.379495 0.683266
Si Si7 0.379878 0.083944 0.728125
Si Si8 0.190406 0.282559 0.773496
O O1 0.615321 0.934419 0.833672
O O2 0.637959 0.042548 0.949905
O O3 0.778798 0.971690 0.157559
O O4 0.660194 0.952683 0.189594
O O5 0.439618 0.480068 0.540369
O O6 0.430407 0.443012 0.243611
O O7 0.368974 0.378141 0.378323
O O8 0.844648 0.840339 0.623388
O O9 0.863474 0.766260 0.414768
O O10 0.000000 0.826880 0.750000
O O11 0.750000 0.750000 0.500000
O O12 0.825182 0.643954 0.619750
O O13 0.744794 0.684669 0.244958
O O14 0.120017 0.328026 0.731423
O O15 0.000000 0.361212 0.750000
O O16 0.981886 0.399960 0.436391
O O17 0.250000 0.250000 0.000000
#
# Coordination Sequence:
#
# PCOD9297298 Si02
#       8
#     8   8   4   8   8   8   8   8
#     4  11  23  42  69 100 139 186 231 289 351 426
#     4  11  21  44  64  96 139 177 237 287 358 408
#     4  10  24  38  66  96 134 184 224 294 350 428
#     4  11  24  45  69  98 136 179 235 289 349 428
#     4  10  25  45  72  96 139 185 233 286 363 422
#     4  10  25  44  70 100 146 180 229 295 352 421
#     4  11  24  44  71 104 140 188 232 290 356 428
#     4  11  26  46  72 102 135 181 237 290 352 427
#
# _framework density 20.774464999999999
#
# number of rings (size 3 to 8) (size 9 to 14) (size 15 to 20)
#    0.000    1.333    2.000    2.000   11.200    0.000 
#    8.400    0.000    0.000    0.000    0.000    0.000 
#    0.000    0.000    0.000    0.000    0.000    0.000 
#
# Total GULP energy -167791.146902 kJ/mol
# GULP energy per Si atom -5593.038230 kJ/mol
# Density = 2.072718 g / cm^3
# Si number density = 20.774465 Si / 1000 Ang^3
#
#
#
# Elastic Constant Matrix: (Units=GPa)
#
#
# Indices 1 2 3 4 5 6 
#
# 1 142.4130 37.1300 35.6986 0.0000 -3.2903 0.0000
# 2 37.1300 100.1745 19.4592 0.0000 -3.8989 0.0000
# 3 35.6986 19.4592 88.2173 0.0000 11.9406 0.0000
# 4 0.0000 0.0000 0.0000 28.2279 0.0000 26.6941
# 5 -3.2903 -3.8989 11.9406 0.0000 33.2932 0.0000
# 6 0.0000 0.0000 0.0000 26.6941 0.0000 -18.3982
#
#
#
# Elastic Compliance Matrix: (Units=1/GPa)
#
#
# Indices 1 2 3 4 5 6 
#
# 1 0.008486 -0.002476 -0.003113 0.000000 0.001665 0.000000
# 2 -0.002476 0.011300 -0.001720 0.000000 0.001696 0.000000
# 3 -0.003113 -0.001720 0.013709 0.000000 -0.005426 0.000000
# 4 0.000000 0.000000 0.000000 0.014935 0.000000 0.021669
# 5 0.001665 0.001696 -0.005426 0.000000 0.032345 0.000000
# 6 0.000000 0.000000 0.000000 0.021669 0.000000 -0.022914
#
#
# Mechanical properties :
#
#
# Convention : Reuss Voigt Hill
#
# Bulk Modulus (GPa) = 52.97442 57.26450 55.11946
# Shear Modulus (GPa) = 63.47300 24.52573 43.99937
#
# Velocity S-wave (km/s) = 5.53351 3.43967 4.60712
# Velocity P-wave (km/s) = 8.14748 6.58785 7.40882
#
# Compressibility (1/GPa) = 0.01887703
#
# Stress axis : x y z
#
# Youngs Moduli (GPa) = 117.83779 88.49221 72.94247
#
# Poissons Ratio (x) = 0.21909 0.22710
# Poissons Ratio (y) = 0.29175 0.12548
# Poissons Ratio (z) = 0.36687 0.15223
#
# Static dielectric constant tensor:
#      x y z
#    x 1.773110 0.000000 -0.032870 
#    y 0.000000 1.733180 0.000000 
#    z -0.032870 0.000000 1.719160 
# 
# From -- ./inp_files/58109.got.cif
#   From: 2010.05.17/outbox.cif.g08.bks.cpg/sg15_30_cif.got.tgz:58109.got - 2010.06.03 18:47:42.
