data_PCOD9297437
_publ_section_title
;
Structure prediction by ZEFSAII (Michael W. Deem and Ramdas Pophale) SiO2 
 PCOD9297437
Probable space group: C 2/C
;
_chemical_formula_sum "Si O2"
_cell_formula_units_Z 40
_cell_length_a 13.698235
_cell_length_b 17.981917
_cell_length_c 7.590812
_cell_angle_alpha 90.000000
_cell_angle_beta 63.268173
_cell_angle_gamma 90.000000
_cell_volume 1669.934583
_symmetry_space_group_name_H-M "C 2/C"
_symmetry_group_IT_number 15
_symmetry_cell_setting 'monoclinic'
loop_
_space_group_symop_operation_xyz
x,y,z
-x,y,1/2-z
-x,-y,-z
x,-y,1/2+z
1/2+x,1/2+y,z
1/2-x,1/2+y,1/2-z
1/2-x,1/2-y,-z
1/2+x,1/2-y,1/2+z
loop_
_atom_site_type_symbol
_atom_site_label
_atom_site_fract_x
_atom_site_fract_y
_atom_site_fract_z
Si Si1 0.239142 0.954035 0.104681
Si Si2 0.368053 0.203399 0.012273
Si Si3 0.452344 0.643945 0.594209
Si Si4 0.183907 0.107606 0.270255
Si Si5 0.943446 0.608202 0.636543
O O1 0.139222 0.918059 0.296379
O O2 0.353907 0.933958 0.099996
O O3 0.218913 0.041789 0.111973
O O4 0.229737 0.918046 0.921580
O O5 0.400267 0.285560 0.039993
O O6 0.246532 0.181818 0.165190
O O7 0.387726 0.175625 0.795518
O O8 0.454733 0.147870 0.041341
O O9 0.500000 0.664583 0.750000
O O10 0.555100 0.615815 0.398456
O O11 0.000000 0.561286 0.750000
#
# Coordination Sequence:
#
# PCOD9297437 Si02
#       5
#     8   8   8   8   8
#     4  11  23  43  65  94 131 170 214 263 321 381
#     4   9  22  41  64  94 129 164 215 263 317 375
#     4  10  24  40  66  96 131 170 214 260 322 382
#     4  11  24  42  67  95 130 171 214 263 318 384
#     4   8  22  42  60  98 125 163 214 259 320 372
#
# _framework density 23.953033999999999
#
# number of rings (size 3 to 8) (size 9 to 14) (size 15 to 20)
#    1.200    0.800    0.000    1.800    5.600    3.200 
#   10.800    0.000    0.000    0.000    0.000    0.000 
#    0.000    0.000    0.000    0.000    0.000    0.000 
#
# Total GULP energy -111865.327162 kJ/mol
# GULP energy per Si atom -5593.266358 kJ/mol
# Density = 2.389852 g / cm^3
# Si number density = 23.953034 Si / 1000 Ang^3
#
#
#
# Elastic Constant Matrix: (Units=GPa)
#
#
# Indices 1 2 3 4 5 6 
#
# 1 124.4573 30.6301 40.9568 0.0000 6.5503 0.0000
# 2 30.6301 84.4898 3.0177 0.0000 2.8821 0.0000
# 3 40.9568 3.0177 54.8072 0.0000 -1.8128 0.0000
# 4 0.0000 0.0000 0.0000 7.1886 0.0000 -54.0853
# 5 6.5503 2.8821 -1.8128 0.0000 38.6761 0.0000
# 6 0.0000 0.0000 0.0000 -54.0853 0.0000 -212.3194
#
#
#
# Elastic Compliance Matrix: (Units=1/GPa)
#
#
# Indices 1 2 3 4 5 6 
#
# 1 0.012039 -0.003975 -0.008849 0.000000 -0.002157 0.000000
# 2 -0.003975 0.013204 0.002236 0.000000 -0.000206 0.000000
# 3 -0.008849 0.002236 0.024818 0.000000 0.002495 0.000000
# 4 0.000000 0.000000 0.000000 0.047696 0.000000 -0.012150
# 5 -0.002157 -0.000206 0.002495 0.000000 0.026353 0.000000
# 6 0.000000 0.000000 0.000000 -0.012150 0.000000 -0.001615
#
#
# Mechanical properties :
#
#
# Convention : Reuss Voigt Hill
#
# Bulk Modulus (GPa) = 34.61878 45.88482 40.25180
# Shear Modulus (GPa) = 32.61619 -20.68097 5.96761
#
# Velocity S-wave (km/s) = 3.69409 -2.94155 1.58012
# Velocity P-wave (km/s) = 5.71657 2.76782 4.49110
#
# Compressibility (1/GPa) = 0.02888606
#
# Stress axis : x y z
#
# Youngs Moduli (GPa) = 83.06575 75.73549 40.29363
#
# Poissons Ratio (x) = 0.30103 0.35655
# Poissons Ratio (y) = 0.33016 -0.09011
# Poissons Ratio (z) = 0.73504 -0.16938
#
# Static dielectric constant tensor:
#      x y z
#    x 1.928760 0.000000 0.006430 
#    y 0.000000 1.865190 0.000000 
#    z 0.006430 0.000000 1.916030 
# 
# From -- ./inp_files/38951.got.cif
#   From: 2010.05.17/outbox.cif.g08.bks.cpg/sg15_20_cif.got.tgz:38951.got - 2010.06.03 18:47:42.
