data_PCOD9297727
_publ_section_title
;
Structure prediction by ZEFSAII (Michael W. Deem and Ramdas Pophale) SiO2 
 PCOD9297727
Probable space group: C 2/C
;
_chemical_formula_sum "Si O2"
_cell_formula_units_Z 56
_cell_length_a 30.484949
_cell_length_b 5.663828
_cell_length_c 14.267185
_cell_angle_alpha 90.000000
_cell_angle_beta 83.708873
_cell_angle_gamma 90.000000
_cell_volume 2448.558962
_symmetry_space_group_name_H-M "C 2/C"
_symmetry_group_IT_number 15
_symmetry_cell_setting 'monoclinic'
loop_
_space_group_symop_operation_xyz
x,y,z
-x,y,1/2-z
-x,-y,-z
x,-y,1/2+z
1/2+x,1/2+y,z
1/2-x,1/2+y,1/2-z
1/2-x,1/2-y,-z
1/2+x,1/2-y,1/2+z
loop_
_atom_site_type_symbol
_atom_site_label
_atom_site_fract_x
_atom_site_fract_y
_atom_site_fract_z
Si Si1 0.085058 0.126588 0.326168
Si Si2 0.085768 0.842622 0.156579
Si Si3 0.707269 0.323848 0.566023
Si Si4 0.239928 0.432887 0.298631
Si Si5 0.880295 0.165105 0.521438
Si Si6 0.450496 0.918711 0.999745
Si Si7 0.154274 0.492249 0.228373
O O1 0.054922 0.230344 0.414969
O O2 0.113984 0.324616 0.268197
O O3 0.063687 0.971508 0.249481
O O4 0.116726 0.960578 0.379654
O O5 0.130136 0.716507 0.186627
O O6 0.055814 0.663547 0.105871
O O7 0.098002 0.025159 0.071373
O O8 0.750000 0.250000 0.500000
O O9 0.726957 0.541588 0.621232
O O10 0.669888 0.345094 0.497632
O O11 0.684928 0.137936 0.643681
O O12 0.242794 0.158130 0.267715
O O13 0.187747 0.503813 0.309574
O O14 0.909481 0.401094 0.523603
O O15 0.500000 0.000000 0.000000
#
# Coordination Sequence:
#
# PCOD9297727 Si02
#       7
#     8   8   8   8   8   8   8
#     4  11  25  42  78 104 145 203 244 312 395 469
#     4  11  22  45  78 101 149 196 247 310 391 471
#     4  11  24  40  67 104 141 197 255 320 386 455
#     4  10  24  42  65  99 141 196 260 322 378 466
#     4  11  24  46  70 102 145 195 246 313 388 461
#     4  11  26  50  76 114 151 188 253 330 394 483
#     4  11  23  44  69 101 149 199 252 316 378 471
#
# _framework density 22.870595000000002
#
# number of rings (size 3 to 8) (size 9 to 14) (size 15 to 20)
#    0.000    1.143    2.857    1.714    6.000    4.571 
#    0.000   15.000    0.000    0.000    0.000    0.000 
#    0.000    0.000    0.000    0.000    0.000    0.000 
#
# Total GULP energy -156111.299121 kJ/mol
# GULP energy per Si atom -5575.403540 kJ/mol
# Density = 2.281854 g / cm^3
# Si number density = 22.870595 Si / 1000 Ang^3
#
#
#
# Elastic Constant Matrix: (Units=GPa)
#
#
# Indices 1 2 3 4 5 6 
#
# 1 111.9949 2.4150 31.8523 0.0000 22.4120 0.0000
# 2 2.4150 35.5949 31.7637 0.0000 7.7747 0.0000
# 3 31.8523 31.7637 122.6213 0.0000 6.3326 0.0000
# 4 0.0000 0.0000 0.0000 28.6189 0.0000 10.3642
# 5 22.4120 7.7747 6.3326 0.0000 18.9134 0.0000
# 6 0.0000 0.0000 0.0000 10.3642 0.0000 7.0497
#
#
#
# Elastic Compliance Matrix: (Units=1/GPa)
#
#
# Indices 1 2 3 4 5 6 
#
# 1 0.013484 0.006752 -0.004358 0.000000 -0.017294 0.000000
# 2 0.006752 0.042841 -0.011732 0.000000 -0.021683 0.000000
# 3 -0.004358 -0.011732 0.012018 0.000000 0.005963 0.000000
# 4 0.000000 0.000000 0.000000 0.074728 0.000000 -0.109862
# 5 -0.017294 -0.021683 0.005963 0.000000 0.080283 0.000000
# 6 0.000000 0.000000 0.000000 -0.109862 0.000000 0.303365
#
#
# Mechanical properties :
#
#
# Convention : Reuss Voigt Hill
#
# Bulk Modulus (GPa) = 20.13415 44.69700 32.41558
# Shear Modulus (GPa) = 8.89759 24.52843 16.71301
#
# Velocity S-wave (km/s) = 1.97455 3.27844 2.70620
# Velocity P-wave (km/s) = 3.74447 5.82381 4.89581
#
# Compressibility (1/GPa) = 0.04966686
#
# Stress axis : x y z
#
# Youngs Moduli (GPa) = 74.16291 23.34224 83.20628
#
# Poissons Ratio (x) = -0.15761 0.36265
# Poissons Ratio (y) = -0.50075 0.97614
# Poissons Ratio (z) = 0.32324 0.27384
#
# Static dielectric constant tensor:
#      x y z
#    x 1.872270 0.000000 0.011570 
#    y 0.000000 1.958430 0.000000 
#    z 0.011570 0.000000 1.873150 
# 
# From -- ./inp_files/180123.got.cif
#   From: 2010.05.17/outbox.cif.g08.bks.cpg/sg15_91_cif.got.tgz:180123.got - 2010.06.03 18:47:42.
