data_PCOD9297264
_publ_section_title
;
Structure prediction by ZEFSAII (Michael W. Deem and Ramdas Pophale) SiO2 
 PCOD9297264
Probable space group: C 2/C
;
_chemical_formula_sum "Si O2"
_cell_formula_units_Z 48
_cell_length_a 8.121580
_cell_length_b 26.159699
_cell_length_c 12.685622
_cell_angle_alpha 90.000000
_cell_angle_beta 128.658792
_cell_angle_gamma 90.000000
_cell_volume 2104.598584
_symmetry_space_group_name_H-M "C 2/C"
_symmetry_group_IT_number 15
_symmetry_cell_setting 'monoclinic'
loop_
_space_group_symop_operation_xyz
x,y,z
-x,y,1/2-z
-x,-y,-z
x,-y,1/2+z
1/2+x,1/2+y,z
1/2-x,1/2+y,1/2-z
1/2-x,1/2-y,-z
1/2+x,1/2-y,1/2+z
loop_
_atom_site_type_symbol
_atom_site_label
_atom_site_fract_x
_atom_site_fract_y
_atom_site_fract_z
Si Si1 0.396779 0.744250 0.455305
Si Si2 0.806196 0.513059 0.850830
Si Si3 0.774949 0.412982 0.716519
Si Si4 0.259563 0.697616 0.194878
Si Si5 0.500000 0.083429 0.750000
Si Si6 0.588312 0.633825 0.563016
Si Si7 0.000000 0.905313 0.250000
O O1 0.250000 0.750000 0.500000
O O2 0.262286 0.738216 0.293984
O O3 0.581481 0.785976 0.540072
O O4 0.518768 0.690323 0.506875
O O5 0.718441 0.460123 0.769955
O O6 0.878653 0.546534 0.780581
O O7 0.666410 0.553247 0.859482
O O8 0.000000 0.500000 0.000000
O O9 0.795650 0.359016 0.785867
O O10 0.583952 0.403268 0.559114
O O11 0.000000 0.423356 0.750000
O O12 0.500000 0.697331 0.250000
O O13 0.322683 0.117841 0.623499
O O14 0.578137 0.628276 0.685179
#
# Coordination Sequence:
#
# PCOD9297264 Si02
#       7
#     8   8   8   8   4   8   4
#     4  11  24  45  72  99 138 182 229 279 352 419
#     4  11  24  39  65  96 132 175 226 272 339 397
#     4  11  23  44  68  93 135 183 227 279 341 411
#     4  11  25  43  68 104 132 179 226 290 348 406
#     4  10  24  44  62  96 134 176 216 282 336 400
#     4  10  24  43  68  96 137 176 226 279 345 403
#     4  10  24  38  62 100 126 180 220 276 330 398
#
# _framework density 22.807198
#
# number of rings (size 3 to 8) (size 9 to 14) (size 15 to 20)
#    0.000    1.333    0.833    4.000    7.000    2.667 
#    3.000    0.000    0.000    0.000    0.000    0.000 
#    0.000    0.000    0.000    0.000    0.000    0.000 
#
# Total GULP energy -134150.675459 kJ/mol
# GULP energy per Si atom -5589.611477 kJ/mol
# Density = 2.275529 g / cm^3
# Si number density = 22.807198 Si / 1000 Ang^3
#
#
#
# Elastic Constant Matrix: (Units=GPa)
#
#
# Indices 1 2 3 4 5 6 
#
# 1 55.5103 16.7725 -8.4045 0.0000 8.1162 0.0000
# 2 16.7725 78.0034 22.3646 0.0000 -4.5979 0.0000
# 3 -8.4045 22.3646 67.8339 0.0000 8.3405 0.0000
# 4 0.0000 0.0000 0.0000 24.4074 0.0000 7.2299
# 5 8.1162 -4.5979 8.3405 0.0000 39.6573 0.0000
# 6 0.0000 0.0000 0.0000 7.2299 0.0000 19.4118
#
#
#
# Elastic Compliance Matrix: (Units=1/GPa)
#
#
# Indices 1 2 3 4 5 6 
#
# 1 0.021854 -0.006718 0.005716 0.000000 -0.006454 0.000000
# 2 -0.006718 0.016510 -0.006857 0.000000 0.004731 0.000000
# 3 0.005716 -0.006857 0.018429 0.000000 -0.005841 0.000000
# 4 0.000000 0.000000 0.000000 0.046052 0.000000 -0.017152
# 5 -0.006454 0.004731 -0.005841 0.000000 0.028314 0.000000
# 6 0.000000 0.000000 0.000000 -0.017152 0.000000 0.057903
#
#
# Mechanical properties :
#
#
# Convention : Reuss Voigt Hill
#
# Bulk Modulus (GPa) = 24.34667 29.20142 26.77405
# Shear Modulus (GPa) = 22.88630 28.06962 25.47796
#
# Velocity S-wave (km/s) = 3.17119 3.51199 3.34593
# Velocity P-wave (km/s) = 4.90987 5.41081 5.16641
#
# Compressibility (1/GPa) = 0.04107338
#
# Stress axis : x y z
#
# Youngs Moduli (GPa) = 45.75889 60.57117 54.26206
#
# Poissons Ratio (x) = 0.40694 -0.31017
# Poissons Ratio (y) = 0.30742 0.37209
# Poissons Ratio (z) = -0.26156 0.41535
#
# Static dielectric constant tensor:
#      x y z
#    x 1.739420 0.000000 -0.073080 
#    y 0.000000 1.883640 0.000000 
#    z -0.073080 0.000000 1.852030 
# 
# From -- ./inp_files/80553.got.cif
#   From: 2010.05.17/outbox.cif.g08.bks.cpg/sg15_41_cif.got.tgz:80553.got - 2010.06.03 18:47:42.
