data_PCOD9297981
_publ_section_title
;
Structure prediction by ZEFSAII (Michael W. Deem and Ramdas Pophale) SiO2 
 PCOD9297981
Probable space group: C 2/C
;
_chemical_formula_sum "Si O2"
_cell_formula_units_Z 36
_cell_length_a 15.730489
_cell_length_b 9.979848
_cell_length_c 13.912720
_cell_angle_alpha 90.000000
_cell_angle_beta 36.204518
_cell_angle_gamma 90.000000
_cell_volume 1290.097674
_symmetry_space_group_name_H-M "C 2/C"
_symmetry_group_IT_number 15
_symmetry_cell_setting 'monoclinic'
loop_
_space_group_symop_operation_xyz
x,y,z
-x,y,1/2-z
-x,-y,-z
x,-y,1/2+z
1/2+x,1/2+y,z
1/2-x,1/2+y,1/2-z
1/2-x,1/2-y,-z
1/2+x,1/2-y,1/2+z
loop_
_atom_site_type_symbol
_atom_site_label
_atom_site_fract_x
_atom_site_fract_y
_atom_site_fract_z
Si Si1 0.888359 0.913028 0.038724
Si Si2 0.132064 0.261847 0.319887
Si Si3 0.200104 0.952094 0.596325
Si Si4 0.500000 0.048748 0.250000
Si Si5 0.814203 0.756187 0.334414
O O1 0.879456 0.946170 0.933905
O O2 0.962176 0.764391 0.983399
O O3 0.721030 0.898912 0.222879
O O4 0.000000 0.000000 0.000000
O O5 0.171092 0.173441 0.190657
O O6 0.202493 0.213647 0.355523
O O7 0.368548 0.965573 0.413316
O O8 0.156098 0.085979 0.694914
O O9 0.443460 0.151647 0.220108
O O10 0.750000 0.750000 0.500000
#
# Coordination Sequence:
#
# PCOD9297981 Si02
#       5
#     8   8   8   4   8
#     4  12  28  52  77 120 157 209 262 326 405 472
#     4  12  28  46  81 110 160 205 262 329 402 464
#     4  11  26  48  79 111 163 201 269 331 393 479
#     4  10  24  42  78 110 154 210 266 322 402 464
#     4  10  24  45  70 112 150 203 258 328 387 471
#
# _framework density 27.904864
#
# number of rings (size 3 to 8) (size 9 to 14) (size 15 to 20)
#    0.000    0.889    0.000    5.333   15.556    0.889 
#    0.000    0.000    0.000    0.000    0.000    0.000 
#    0.000    0.000    0.000    0.000    0.000    0.000 
#
# Total GULP energy -100782.422959 kJ/mol
# GULP energy per Si atom -5599.023498 kJ/mol
# Density = 2.784135 g / cm^3
# Si number density = 27.904864 Si / 1000 Ang^3
#
#
#
# Elastic Constant Matrix: (Units=GPa)
#
#
# Indices 1 2 3 4 5 6 
#
# 1 204.3013 45.0687 21.2062 0.0000 6.9368 0.0000
# 2 45.0687 80.8856 3.5948 0.0000 -4.6703 0.0000
# 3 21.2062 3.5948 104.2879 0.0000 -11.4564 0.0000
# 4 0.0000 0.0000 0.0000 49.2017 0.0000 -8.8068
# 5 6.9368 -4.6703 -11.4564 0.0000 55.7491 0.0000
# 6 0.0000 0.0000 0.0000 -8.8068 0.0000 58.0753
#
#
#
# Elastic Compliance Matrix: (Units=1/GPa)
#
#
# Indices 1 2 3 4 5 6 
#
# 1 0.005775 -0.003236 -0.001199 0.000000 -0.001236 0.000000
# 2 -0.003236 0.014247 0.000350 0.000000 0.001668 0.000000
# 3 -0.001199 0.000350 0.010067 0.000000 0.002247 0.000000
# 4 0.000000 0.000000 0.000000 0.020892 0.000000 0.003168
# 5 -0.001236 0.001668 0.002247 0.000000 0.018693 0.000000
# 6 0.000000 0.000000 0.000000 0.003168 0.000000 0.017699
#
#
# Mechanical properties :
#
#
# Convention : Reuss Voigt Hill
#
# Bulk Modulus (GPa) = 45.61892 58.80157 52.21025
# Shear Modulus (GPa) = 48.61526 53.91223 51.26374
#
# Velocity S-wave (km/s) = 4.17847 4.40022 4.29078
# Velocity P-wave (km/s) = 6.29786 6.85083 6.58015
#
# Compressibility (1/GPa) = 0.02192073
#
# Stress axis : x y z
#
# Youngs Moduli (GPa) = 173.16250 70.19084 99.33090
#
# Poissons Ratio (x) = 0.22713 0.11905
# Poissons Ratio (y) = 0.56032 -0.03478
# Poissons Ratio (z) = 0.20754 -0.02458
#
# Static dielectric constant tensor:
#      x y z
#    x 2.137630 0.000000 0.011550 
#    y 0.000000 2.364940 0.000000 
#    z 0.011550 0.000000 2.244840 
# 
# From -- ./inp_files/152408.got.cif
#   From: 2010.05.17/outbox.cif.g08.bks.cpg/sg15_77_cif.got.tgz:152408.got - 2010.06.03 18:47:42.
