data_PCOD9297766
_publ_section_title
;
Structure prediction by ZEFSAII (Michael W. Deem and Ramdas Pophale) SiO2 
 PCOD9297766
Probable space group: C 2/C
;
_chemical_formula_sum "Si O2"
_cell_formula_units_Z 48
_cell_length_a 11.610178
_cell_length_b 11.552266
_cell_length_c 22.321443
_cell_angle_alpha 90.000000
_cell_angle_beta 49.836679
_cell_angle_gamma 90.000000
_cell_volume 2287.918318
_symmetry_space_group_name_H-M "C 2/C"
_symmetry_group_IT_number 15
_symmetry_cell_setting 'monoclinic'
loop_
_space_group_symop_operation_xyz
x,y,z
-x,y,1/2-z
-x,-y,-z
x,-y,1/2+z
1/2+x,1/2+y,z
1/2-x,1/2+y,1/2-z
1/2-x,1/2-y,-z
1/2+x,1/2-y,1/2+z
loop_
_atom_site_type_symbol
_atom_site_label
_atom_site_fract_x
_atom_site_fract_y
_atom_site_fract_z
Si Si1 0.838692 0.346326 0.280113
Si Si2 0.891853 0.104383 0.553923
Si Si3 0.163325 0.912148 0.670233
Si Si4 0.143361 0.372569 0.364553
Si Si5 0.359592 0.800632 0.012409
Si Si6 0.191526 0.566566 0.504537
O O1 0.703832 0.419355 0.353941
O O2 0.820037 0.218486 0.313473
O O3 0.835888 0.334570 0.210024
O O4 0.000000 0.390944 0.250000
O O5 0.774219 0.103095 0.538052
O O6 0.993469 0.218337 0.532555
O O7 0.000000 0.000000 0.500000
O O8 0.193569 0.910850 0.588740
O O9 0.000000 0.951395 0.750000
O O10 0.288371 0.998822 0.653919
O O11 0.214276 0.302712 0.396276
O O12 0.967177 0.367854 0.440559
O O13 0.250000 0.750000 0.000000
O O14 0.367004 0.934711 0.988512
#
# Coordination Sequence:
#
# PCOD9297766 Si02
#       6
#     8   8   8   8   8   8
#     4  11  24  42  63 103 135 168 233 286 343 422
#     4  12  25  41  73  98 136 183 234 292 348 421
#     4  10  24  42  66  97 136 172 225 283 345 420
#     4  11  24  43  69  93 139 180 217 288 347 410
#     4  11  24  43  66  99 134 176 233 283 347 417
#     4  11  23  46  67  98 133 185 228 282 352 420
#
# _framework density 20.979769999999998
#
# number of rings (size 3 to 8) (size 9 to 14) (size 15 to 20)
#    0.000    1.000    3.333    4.000    7.000    1.333 
#    0.000    0.000    0.000    1.000    0.000    0.000 
#    0.000    0.000    0.000    0.000    0.000    0.000 
#
# Total GULP energy -133897.508474 kJ/mol
# GULP energy per Si atom -5579.062853 kJ/mol
# Density = 2.093202 g / cm^3
# Si number density = 20.979770 Si / 1000 Ang^3
#
#
#
# Elastic Constant Matrix: (Units=GPa)
#
#
# Indices 1 2 3 4 5 6 
#
# 1 114.8037 31.7610 60.9169 0.0000 10.8190 0.0000
# 2 31.7610 47.6081 29.0832 0.0000 -1.4417 0.0000
# 3 60.9169 29.0832 175.5916 0.0000 7.0052 0.0000
# 4 0.0000 0.0000 0.0000 22.8835 0.0000 -2.7361
# 5 10.8190 -1.4417 7.0052 0.0000 42.7452 0.0000
# 6 0.0000 0.0000 0.0000 -2.7361 0.0000 34.8014
#
#
#
# Elastic Compliance Matrix: (Units=1/GPa)
#
#
# Indices 1 2 3 4 5 6 
#
# 1 0.012427 -0.006467 -0.003126 0.000000 -0.002851 0.000000
# 2 -0.006467 0.026822 -0.002315 0.000000 0.002921 0.000000
# 3 -0.003126 -0.002315 0.007182 0.000000 -0.000464 0.000000
# 4 0.000000 0.000000 0.000000 0.044114 0.000000 0.003468
# 5 -0.002851 0.002921 -0.000464 0.000000 0.024291 0.000000
# 6 0.000000 0.000000 0.000000 0.003468 0.000000 0.029007
#
#
# Mechanical properties :
#
#
# Convention : Reuss Voigt Hill
#
# Bulk Modulus (GPa) = 44.22214 64.61396 54.41805
# Shear Modulus (GPa) = 28.53897 34.50218 31.52058
#
# Velocity S-wave (km/s) = 3.69224 4.05970 3.88032
# Velocity P-wave (km/s) = 6.26906 7.26911 6.78753
#
# Compressibility (1/GPa) = 0.02261311
#
# Stress axis : x y z
#
# Youngs Moduli (GPa) = 80.46791 37.28253 139.24317
#
# Poissons Ratio (x) = 0.24111 0.43533
# Poissons Ratio (y) = 0.52040 0.32242
# Poissons Ratio (z) = 0.25158 0.08633
#
# Static dielectric constant tensor:
#      x y z
#    x 1.989140 0.000000 -0.022040 
#    y 0.000000 1.792970 0.000000 
#    z -0.022040 0.000000 1.781420 
# 
# From -- ./inp_files/237406.got.cif
#   From: 2010.05.17/outbox.cif.g08.bks.cpg/sg15_119_cif.got.tgz:237406.got - 2010.06.03 18:47:42.
