data_PCOD9297728
_publ_section_title
;
Structure prediction by ZEFSAII (Michael W. Deem and Ramdas Pophale) SiO2 
 PCOD9297728
Probable space group: C 2/C
;
_chemical_formula_sum "Si O2"
_cell_formula_units_Z 56
_cell_length_a 26.785242
_cell_length_b 12.644402
_cell_length_c 8.968366
_cell_angle_alpha 90.000000
_cell_angle_beta 62.889879
_cell_angle_gamma 90.000000
_cell_volume 2703.720311
_symmetry_space_group_name_H-M "C 2/C"
_symmetry_group_IT_number 15
_symmetry_cell_setting 'monoclinic'
loop_
_space_group_symop_operation_xyz
x,y,z
-x,y,1/2-z
-x,-y,-z
x,-y,1/2+z
1/2+x,1/2+y,z
1/2-x,1/2+y,1/2-z
1/2-x,1/2-y,-z
1/2+x,1/2-y,1/2+z
loop_
_atom_site_type_symbol
_atom_site_label
_atom_site_fract_x
_atom_site_fract_y
_atom_site_fract_z
Si Si1 0.496542 0.113524 0.080506
Si Si2 0.658658 0.297188 0.806473
Si Si3 0.059166 0.746691 0.757647
Si Si4 0.688833 0.054149 0.783995
Si Si5 0.733809 0.518748 0.081606
Si Si6 0.812176 0.800415 0.393207
Si Si7 0.616873 0.149326 0.395358
O O1 0.500000 0.101000 0.250000
O O2 0.436826 0.165447 0.133379
O O3 0.540298 0.182945 0.929716
O O4 0.500000 0.000000 0.000000
O O5 0.605410 0.324393 0.771294
O O6 0.671992 0.172712 0.767295
O O7 0.709080 0.375009 0.686823
O O8 0.655562 0.301363 0.991484
O O9 0.093888 0.675062 0.591745
O O10 0.000000 0.777587 0.750000
O O11 0.745850 0.034391 0.614204
O O12 0.709372 0.027371 0.922004
O O13 0.640112 0.967887 0.832504
O O14 0.691275 0.422149 0.149438
O O15 0.750000 0.750000 0.500000
O O16 0.838018 0.731989 0.225013
#
# Coordination Sequence:
#
# PCOD9297728 Si02
#       7
#     8   8   8   8   8   8   8
#     4  11  22  40  64  95 134 173 224 283 339 396
#     4  12  24  40  66  92 131 183 218 276 345 385
#     4  10  24  42  66 100 131 172 231 282 334 402
#     4  12  23  39  62  96 133 172 218 266 329 414
#     4  12  25  40  61  93 137 173 224 267 323 407
#     4  12  23  43  63  94 138 178 223 271 329 411
#     4  11  23  40  67  98 136 175 217 278 342 397
#
# _framework density 20.712202999999999
#
# number of rings (size 3 to 8) (size 9 to 14) (size 15 to 20)
#    0.000    0.571    4.286    4.286    2.000    2.286 
#    0.000    0.000    0.000    8.571    0.000    0.000 
#    0.000    0.000    0.000    0.000    0.000    0.000 
#
# Total GULP energy -156130.005210 kJ/mol
# GULP energy per Si atom -5576.071615 kJ/mol
# Density = 2.066506 g / cm^3
# Si number density = 20.712203 Si / 1000 Ang^3
#
#
#
# Elastic Constant Matrix: (Units=GPa)
#
#
# Indices 1 2 3 4 5 6 
#
# 1 82.4093 26.0756 40.4017 0.0000 4.6384 0.0000
# 2 26.0756 89.0356 25.9343 0.0000 -12.0872 0.0000
# 3 40.4017 25.9343 114.1845 0.0000 8.3450 0.0000
# 4 0.0000 0.0000 0.0000 20.0528 0.0000 4.3248
# 5 4.6384 -12.0872 8.3450 0.0000 38.8959 0.0000
# 6 0.0000 0.0000 0.0000 4.3248 0.0000 22.4837
#
#
#
# Elastic Compliance Matrix: (Units=1/GPa)
#
#
# Indices 1 2 3 4 5 6 
#
# 1 0.015598 -0.003501 -0.004580 0.000000 -0.001965 0.000000
# 2 -0.003501 0.013600 -0.002224 0.000000 0.005121 0.000000
# 3 -0.004580 -0.002224 0.011068 0.000000 -0.002520 0.000000
# 4 0.000000 0.000000 0.000000 0.052027 0.000000 -0.010008
# 5 -0.001965 0.005121 -0.002520 0.000000 0.028076 0.000000
# 6 0.000000 0.000000 0.000000 -0.010008 0.000000 0.046402
#
#
# Mechanical properties :
#
#
# Convention : Reuss Voigt Hill
#
# Bulk Modulus (GPa) = 50.87842 52.27251 51.57546
# Shear Modulus (GPa) = 25.78202 29.16766 27.47484
#
# Velocity S-wave (km/s) = 3.53196 3.75672 3.64607
# Velocity P-wave (km/s) = 6.42268 6.64150 6.53301
#
# Compressibility (1/GPa) = 0.01965470
#
# Stress axis : x y z
#
# Youngs Moduli (GPa) = 64.10878 73.52989 90.35222
#
# Poissons Ratio (x) = 0.25742 0.41385
# Poissons Ratio (y) = 0.22444 0.20098
# Poissons Ratio (z) = 0.29364 0.16356
#
# Static dielectric constant tensor:
#      x y z
#    x 1.818460 0.000000 0.016160 
#    y 0.000000 1.741720 0.000000 
#    z 0.016160 0.000000 1.760160 
# 
# From -- ./inp_files/65447.got.cif
#   From: 2010.05.17/outbox.cif.g08.bks.cpg/sg15_33_cif.got.tgz:65447.got - 2010.06.03 18:47:42.
