data_PCOD9297014
_publ_section_title
;
Structure prediction by ZEFSAII (Michael W. Deem and Ramdas Pophale) SiO2 
 PCOD9297014
Probable space group: C 2/C
;
_chemical_formula_sum "Si O2"
_cell_formula_units_Z 60
_cell_length_a 16.540634
_cell_length_b 10.362510
_cell_length_c 14.906380
_cell_angle_alpha 90.000000
_cell_angle_beta 114.044369
_cell_angle_gamma 90.000000
_cell_volume 2333.294589
_symmetry_space_group_name_H-M "C 2/C"
_symmetry_group_IT_number 15
_symmetry_cell_setting 'monoclinic'
loop_
_space_group_symop_operation_xyz
x,y,z
-x,y,1/2-z
-x,-y,-z
x,-y,1/2+z
1/2+x,1/2+y,z
1/2-x,1/2+y,1/2-z
1/2-x,1/2-y,-z
1/2+x,1/2-y,1/2+z
loop_
_atom_site_type_symbol
_atom_site_label
_atom_site_fract_x
_atom_site_fract_y
_atom_site_fract_z
Si Si1 0.500000 0.836339 0.750000
Si Si2 0.710253 0.489370 0.278586
Si Si3 0.587041 0.406732 0.980632
Si Si4 0.519231 0.609685 0.639851
Si Si5 0.105139 0.423006 0.224682
Si Si6 0.420327 0.856078 0.085204
Si Si7 0.814438 0.409133 0.486871
Si Si8 0.295233 0.638585 0.393759
O O1 0.471800 0.731057 0.662859
O O2 0.434463 0.932628 0.773284
O O3 0.619337 0.411017 0.220789
O O4 0.798919 0.429031 0.274567
O O5 0.734771 0.480554 0.394974
O O6 0.706189 0.619436 0.214891
O O7 0.524012 0.371371 0.035710
O O8 0.651194 0.513819 0.049083
O O9 0.533110 0.474763 0.876050
O O10 0.626017 0.270057 0.973526
O O11 0.108682 0.363901 0.324858
O O12 0.026944 0.351111 0.135744
O O13 0.391715 0.986383 0.022981
O O14 0.790333 0.376973 0.579501
O O15 0.830460 0.275157 0.443601
#
# Coordination Sequence:
#
# PCOD9297014 Si02
#       8
#     4   8   8   8   8   8   8   8
#     4  10  24  42  74  98 136 196 238 290 356 450
#     4  11  25  45  67 113 145 187 241 315 360 426
#     4  10  24  46  70 100 143 188 233 310 357 440
#     4  10  25  44  69 102 141 186 248 293 364 435
#     4  10  25  46  70 107 152 180 244 314 354 448
#     4  10  23  47  69 104 141 196 233 297 378 431
#     4  11  25  43  78 104 144 204 242 304 374 438
#     4  10  25  47  70 109 151 185 258 302 361 452
#
# _framework density 25.714714000000001
#
# number of rings (size 3 to 8) (size 9 to 14) (size 15 to 20)
#    0.000    1.867    1.333    0.000    9.333    6.400 
#    2.400    0.000    0.000    0.000    0.000    0.000 
#    0.000    0.000    0.000    0.000    0.000    0.000 
#
# Total GULP energy -167595.302563 kJ/mol
# GULP energy per Si atom -5586.510085 kJ/mol
# Density = 2.565619 g / cm^3
# Si number density = 25.714714 Si / 1000 Ang^3
#
#
#
# Elastic Constant Matrix: (Units=GPa)
#
#
# Indices 1 2 3 4 5 6 
#
# 1 79.6055 7.8751 0.1487 0.0000 2.6215 0.0000
# 2 7.8751 158.7255 29.0286 0.0000 -7.9602 0.0000
# 3 0.1487 29.0286 94.9841 0.0000 3.2045 0.0000
# 4 0.0000 0.0000 0.0000 39.5969 0.0000 -3.6054
# 5 2.6215 -7.9602 3.2045 0.0000 40.4721 0.0000
# 6 0.0000 0.0000 0.0000 -3.6054 0.0000 3.0757
#
#
#
# Elastic Compliance Matrix: (Units=1/GPa)
#
#
# Indices 1 2 3 4 5 6 
#
# 1 0.012665 -0.000720 0.000233 0.000000 -0.000980 0.000000
# 2 -0.000720 0.006803 -0.002131 0.000000 0.001553 0.000000
# 3 0.000233 -0.002131 0.011223 0.000000 -0.001323 0.000000
# 4 0.000000 0.000000 0.000000 0.028272 0.000000 0.033141
# 5 -0.000980 0.001553 -0.001323 0.000000 0.025182 0.000000
# 6 0.000000 0.000000 0.000000 0.033141 0.000000 0.363982
#
#
# Mechanical properties :
#
#
# Convention : Reuss Voigt Hill
#
# Bulk Modulus (GPa) = 39.28158 45.26885 42.27522
# Shear Modulus (GPa) = 10.82605 36.37979 23.60292
#
# Velocity S-wave (km/s) = 2.05407 3.76539 3.03293
# Velocity P-wave (km/s) = 4.57544 6.04539 5.36103
#
# Compressibility (1/GPa) = 0.02545723
#
# Stress axis : x y z
#
# Youngs Moduli (GPa) = 78.95744 146.98382 89.09904
#
# Poissons Ratio (x) = 0.10586 -0.02079
# Poissons Ratio (y) = 0.05687 0.18983
# Poissons Ratio (z) = -0.01843 0.31315
#
# Static dielectric constant tensor:
#      x y z
#    x 2.106590 0.000000 0.016010 
#    y 0.000000 2.020720 0.000000 
#    z 0.016010 0.000000 2.109280 
# 
# From -- ./inp_files/214325.got.cif
#   From: 2010.05.17/outbox.cif.g08.bks.cpg/sg15_108_cif.got.tgz:214325.got - 2010.06.03 18:47:42.
