data_PCOD9297642
_publ_section_title
;
Structure prediction by ZEFSAII (Michael W. Deem and Ramdas Pophale) SiO2 
 PCOD9297642
Probable space group: C 2/C
;
_chemical_formula_sum "Si O2"
_cell_formula_units_Z 40
_cell_length_a 10.285830
_cell_length_b 19.108848
_cell_length_c 8.843502
_cell_angle_alpha 90.000000
_cell_angle_beta 68.479360
_cell_angle_gamma 90.000000
_cell_volume 1617.016194
_symmetry_space_group_name_H-M "C 2/C"
_symmetry_group_IT_number 15
_symmetry_cell_setting 'monoclinic'
loop_
_space_group_symop_operation_xyz
x,y,z
-x,y,1/2-z
-x,-y,-z
x,-y,1/2+z
1/2+x,1/2+y,z
1/2-x,1/2+y,1/2-z
1/2-x,1/2-y,-z
1/2+x,1/2-y,1/2+z
loop_
_atom_site_type_symbol
_atom_site_label
_atom_site_fract_x
_atom_site_fract_y
_atom_site_fract_z
Si Si1 0.393396 0.717519 0.999251
Si Si2 0.796477 0.069947 0.535314
Si Si3 0.028437 0.582769 0.483851
Si Si4 0.000000 0.165955 0.250000
Si Si5 0.000000 0.670984 0.250000
Si Si6 0.207409 0.917056 0.111070
O O1 0.504899 0.770384 0.881537
O O2 0.386340 0.640442 0.930965
O O3 0.250000 0.750000 0.000000
O O4 0.411452 0.711497 0.169673
O O5 0.637743 0.096321 0.569733
O O6 0.826781 0.071353 0.699234
O O7 0.899863 0.117966 0.394840
O O8 0.802937 0.990821 0.470077
O O9 0.095044 0.612569 0.299200
O O10 0.000000 0.500000 0.500000
O O11 0.869359 0.610613 0.544400
#
# Coordination Sequence:
#
# PCOD9297642 Si02
#       6
#     8   8   8   4   4   8
#     4  12  26  47  73 102 151 193 240 295 369 445
#     4  11  25  43  75 108 147 191 254 308 367 428
#     4  10  24  41  76 106 143 185 248 309 367 427
#     4  12  28  49  71 110 148 198 252 302 368 438
#     4  12  24  45  73 102 142 194 234 296 366 438
#     4  11  24  45  74 108 146 195 242 310 367 433
#
# _framework density 24.736919
#
# number of rings (size 3 to 8) (size 9 to 14) (size 15 to 20)
#    0.000    0.800    2.000    4.200   11.200    5.600 
#    0.000    4.000    0.000    0.000    0.000    0.000 
#    0.000    0.000    0.000    0.000    0.000    0.000 
#
# Total GULP energy -111676.335725 kJ/mol
# GULP energy per Si atom -5583.816786 kJ/mol
# Density = 2.468062 g / cm^3
# Si number density = 24.736919 Si / 1000 Ang^3
#
#
#
# Elastic Constant Matrix: (Units=GPa)
#
#
# Indices 1 2 3 4 5 6 
#
# 1 97.3616 34.8108 36.5116 0.0000 20.8138 0.0000
# 2 34.8108 107.5563 55.7373 0.0000 26.9738 0.0000
# 3 36.5116 55.7373 171.6601 0.0000 44.5139 0.0000
# 4 0.0000 0.0000 0.0000 44.5764 0.0000 5.1473
# 5 20.8138 26.9738 44.5139 0.0000 52.7834 0.0000
# 6 0.0000 0.0000 0.0000 5.1473 0.0000 32.0304
#
#
#
# Elastic Compliance Matrix: (Units=1/GPa)
#
#
# Indices 1 2 3 4 5 6 
#
# 1 0.012191 -0.002777 -0.001040 0.000000 -0.002511 0.000000
# 2 -0.002777 0.012307 -0.002635 0.000000 -0.002972 0.000000
# 3 -0.001040 -0.002635 0.008251 0.000000 -0.005202 0.000000
# 4 0.000000 0.000000 0.000000 0.022858 0.000000 -0.003673
# 5 -0.002511 -0.002972 -0.005202 0.000000 0.025841 0.000000
# 6 0.000000 0.000000 0.000000 -0.003673 0.000000 0.031811
#
#
# Mechanical properties :
#
#
# Convention : Reuss Voigt Hill
#
# Bulk Modulus (GPa) = 50.38947 70.07747 60.23347
# Shear Modulus (GPa) = 37.65730 42.51261 40.08496
#
# Velocity S-wave (km/s) = 3.90591 4.15008 4.02985
# Velocity P-wave (km/s) = 6.38404 7.16623 6.78641
#
# Compressibility (1/GPa) = 0.01984542
#
# Stress axis : x y z
#
# Youngs Moduli (GPa) = 82.03000 81.25526 121.19640
#
# Poissons Ratio (x) = 0.22563 0.12607
# Poissons Ratio (y) = 0.22778 0.31930
# Poissons Ratio (z) = 0.08533 0.21408
#
# Static dielectric constant tensor:
#      x y z
#    x 1.853040 0.000000 -0.085310 
#    y 0.000000 1.965100 0.000000 
#    z -0.085310 0.000000 2.227220 
# 
# From -- ./inp_files/30339.got.cif
#   From: 2010.05.17/outbox.cif.g08.bks.cpg/sg15_16_cif.got.tgz:30339.got - 2010.06.03 18:47:42.
