data_PCOD9297925
_publ_section_title
;
Structure prediction by ZEFSAII (Michael W. Deem and Ramdas Pophale) SiO2 
 PCOD9297925
Probable space group: C 2/C
;
_chemical_formula_sum "Si O2"
_cell_formula_units_Z 52
_cell_length_a 14.765237
_cell_length_b 22.643167
_cell_length_c 9.095132
_cell_angle_alpha 90.000000
_cell_angle_beta 128.338138
_cell_angle_gamma 90.000000
_cell_volume 2385.086080
_symmetry_space_group_name_H-M "C 2/C"
_symmetry_group_IT_number 15
_symmetry_cell_setting 'monoclinic'
loop_
_space_group_symop_operation_xyz
x,y,z
-x,y,1/2-z
-x,-y,-z
x,-y,1/2+z
1/2+x,1/2+y,z
1/2-x,1/2+y,1/2-z
1/2-x,1/2-y,-z
1/2+x,1/2-y,1/2+z
loop_
_atom_site_type_symbol
_atom_site_label
_atom_site_fract_x
_atom_site_fract_y
_atom_site_fract_z
Si Si1 0.697493 0.164657 0.234291
Si Si2 0.500000 0.690320 0.250000
Si Si3 0.128230 0.891821 0.362255
Si Si4 0.868625 0.385008 0.145740
Si Si5 0.500000 0.508299 0.250000
Si Si6 0.000000 0.695314 0.250000
Si Si7 0.349940 0.596298 0.943173
Si Si8 0.638287 0.233171 0.659988
O O1 0.793852 0.132063 0.429373
O O2 0.582262 0.162825 0.216180
O O3 0.742519 0.230534 0.237829
O O4 0.675465 0.133633 0.058426
O O5 0.604483 0.649976 0.411831
O O6 0.449954 0.727940 0.332709
O O7 0.169598 0.880005 0.239840
O O8 0.000000 0.865689 0.250000
O O9 0.105115 0.962540 0.335499
O O10 0.771126 0.427467 0.116154
O O11 0.862940 0.328438 0.251139
O O12 0.000000 0.404780 0.250000
O O13 0.544289 0.550000 0.427412
O O14 0.088928 0.728157 0.446216
#
# Coordination Sequence:
#
# PCOD9297925 Si02
#       8
#     8   4   8   8   4   4   8   8
#     4  12  25  43  64  97 134 184 228 282 330 397
#     4  11  22  36  64  91 131 172 228 264 335 388
#     4  10  24  42  72 104 134 161 218 284 350 394
#     4  12  25  44  65  90 138 189 231 266 328 405
#     4   9  24  45  76 104 134 162 219 288 351 410
#     4  12  26  39  64  89 143 178 229 276 336 384
#     4  11  23  41  69  98 133 175 214 281 337 402
#     4  12  24  41  61  96 133 186 229 277 318 400
#
# _framework density 21.802149
#
# number of rings (size 3 to 8) (size 9 to 14) (size 15 to 20)
#    0.462    0.308    3.846    3.231    7.538    0.000 
#    0.000    0.000    1.692    1.846    0.000    0.000 
#    0.000    0.000    0.000    0.000    0.000    0.000 
#
# Total GULP energy -145125.098232 kJ/mol
# GULP energy per Si atom -5581.734547 kJ/mol
# Density = 2.175253 g / cm^3
# Si number density = 21.802149 Si / 1000 Ang^3
#
#
#
# Elastic Constant Matrix: (Units=GPa)
#
#
# Indices 1 2 3 4 5 6 
#
# 1 133.0685 0.7994 17.8866 0.0000 -1.0688 0.0000
# 2 0.7994 29.7964 5.7713 0.0000 3.3713 0.0000
# 3 17.8866 5.7713 122.6050 0.0000 -11.6161 0.0000
# 4 0.0000 0.0000 0.0000 23.6115 0.0000 -0.3296
# 5 -1.0688 3.3713 -11.6161 0.0000 45.5827 0.0000
# 6 0.0000 0.0000 0.0000 -0.3296 0.0000 21.6542
#
#
#
# Elastic Compliance Matrix: (Units=1/GPa)
#
#
# Indices 1 2 3 4 5 6 
#
# 1 0.007666 0.000026 -0.001130 0.000000 -0.000110 0.000000
# 2 0.000026 0.034271 -0.001903 0.000000 -0.003019 0.000000
# 3 -0.001130 -0.001903 0.008630 0.000000 0.002313 0.000000
# 4 0.000000 0.000000 0.000000 0.042361 0.000000 0.000645
# 5 -0.000110 -0.003019 0.002313 0.000000 0.022748 0.000000
# 6 0.000000 0.000000 0.000000 0.000645 0.000000 0.046190
#
#
# Mechanical properties :
#
#
# Convention : Reuss Voigt Hill
#
# Bulk Modulus (GPa) = 22.44585 37.15383 29.79984
# Shear Modulus (GPa) = 27.36261 35.57054 31.46657
#
# Velocity S-wave (km/s) = 3.54650 4.04358 3.80317
# Velocity P-wave (km/s) = 5.20460 6.23531 5.74312
#
# Compressibility (1/GPa) = 0.04455166
#
# Stress axis : x y z
#
# Youngs Moduli (GPa) = 130.44993 29.17954 115.87640
#
# Poissons Ratio (x) = -0.00075 0.13094
# Poissons Ratio (y) = -0.00335 0.22051
# Poissons Ratio (z) = 0.14741 0.05553
#
# Static dielectric constant tensor:
#      x y z
#    x 1.824950 0.000000 0.032090 
#    y 0.000000 1.845740 0.000000 
#    z 0.032090 0.000000 1.783340 
# 
# From -- ./inp_files/43675.got.cif
#   From: 2010.05.17/outbox.cif.g08.bks.cpg/sg15_22_cif.got.tgz:43675.got - 2010.06.03 18:47:42.
