data_PCOD9297845
_publ_section_title
;
Structure prediction by ZEFSAII (Michael W. Deem and Ramdas Pophale) SiO2 
 PCOD9297845
Probable space group: C 2/C
;
_chemical_formula_sum "Si O2"
_cell_formula_units_Z 32
_cell_length_a 27.881663
_cell_length_b 5.461296
_cell_length_c 9.085235
_cell_angle_alpha 90.000000
_cell_angle_beta 106.551441
_cell_angle_gamma 90.000000
_cell_volume 1326.086428
_symmetry_space_group_name_H-M "C 2/C"
_symmetry_group_IT_number 15
_symmetry_cell_setting 'monoclinic'
loop_
_space_group_symop_operation_xyz
x,y,z
-x,y,1/2-z
-x,-y,-z
x,-y,1/2+z
1/2+x,1/2+y,z
1/2-x,1/2+y,1/2-z
1/2-x,1/2-y,-z
1/2+x,1/2-y,1/2+z
loop_
_atom_site_type_symbol
_atom_site_label
_atom_site_fract_x
_atom_site_fract_y
_atom_site_fract_z
Si Si1 0.883133 0.180291 0.195471
Si Si2 0.232023 0.239831 0.653057
Si Si3 0.361511 0.191246 0.252851
Si Si4 0.943308 0.925809 0.470908
O O1 0.854352 0.432284 0.174485
O O2 0.907649 0.144470 0.379956
O O3 0.851138 0.932023 0.147214
O O4 0.928232 0.158121 0.119674
O O5 0.254052 0.476053 0.761935
O O6 0.250000 0.250000 0.500000
O O7 0.172760 0.273929 0.634624
O O8 0.420524 0.215738 0.344486
O O9 0.000000 0.000000 0.500000
#
# Coordination Sequence:
#
# PCOD9297845 Si02
#       4
#     8   8   8   8
#     4  10  24  42  68  97 138 180 224 286 345 416
#     4  12  28  47  75 108 148 192 249 305 370 440
#     4  10  26  42  72  96 144 177 235 285 357 413
#     4  10  24  44  68 100 135 179 232 282 349 414
#
# _framework density 24.131157999999999
#
# number of rings (size 3 to 8) (size 9 to 14) (size 15 to 20)
#    1.500    0.000    0.000    3.000   10.500    1.000 
#    4.500    0.000    0.000    0.000    0.000    0.000 
#    0.000    0.000    0.000    0.000    0.000    0.000 
#
# Total GULP energy -89204.642712 kJ/mol
# GULP energy per Si atom -5575.290169 kJ/mol
# Density = 2.407623 g / cm^3
# Si number density = 24.131158 Si / 1000 Ang^3
#
#
#
# Elastic Constant Matrix: (Units=GPa)
#
#
# Indices 1 2 3 4 5 6 
#
# 1 125.2921 31.2140 34.5495 0.0000 -20.5900 0.0000
# 2 31.2140 212.9887 55.0974 0.0000 -21.3793 0.0000
# 3 34.5495 55.0974 95.9365 0.0000 -30.6087 0.0000
# 4 0.0000 0.0000 0.0000 23.7424 0.0000 -5.7256
# 5 -20.5900 -21.3793 -30.6087 0.0000 50.4311 0.0000
# 6 0.0000 0.0000 0.0000 -5.7256 0.0000 30.7825
#
#
#
# Elastic Compliance Matrix: (Units=1/GPa)
#
#
# Indices 1 2 3 4 5 6 
#
# 1 0.009092 -0.000526 -0.002305 0.000000 0.002090 0.000000
# 2 -0.000526 0.005556 -0.002875 0.000000 0.000395 0.000000
# 3 -0.002305 -0.002875 0.015149 0.000000 0.007035 0.000000
# 4 0.000000 0.000000 0.000000 0.044097 0.000000 0.008202
# 5 0.002090 0.000395 0.007035 0.000000 0.025120 0.000000
# 6 0.000000 0.000000 0.000000 0.008202 0.000000 0.034012
#
#
# Mechanical properties :
#
#
# Convention : Reuss Voigt Hill
#
# Bulk Modulus (GPa) = 54.39631 75.10436 64.75033
# Shear Modulus (GPa) = 33.20827 41.88164 37.54495
#
# Velocity S-wave (km/s) = 3.71368 4.17055 3.94873
# Velocity P-wave (km/s) = 6.40152 7.37444 6.90514
#
# Compressibility (1/GPa) = 0.01838360
#
# Stress axis : x y z
#
# Youngs Moduli (GPa) = 109.99259 179.99794 66.00969
#
# Poissons Ratio (x) = 0.09474 0.15216
# Poissons Ratio (y) = 0.05789 0.18978
# Poissons Ratio (z) = 0.25355 0.51749
#
# Static dielectric constant tensor:
#      x y z
#    x 1.907670 0.000000 0.039830 
#    y 0.000000 2.028890 0.000000 
#    z 0.039830 0.000000 2.007290 
# 
# From -- ./inp_files/120475.got.cif
#   From: 2010.05.17/outbox.cif.g08.bks.cpg/sg15_61_cif.got.tgz:120475.got - 2010.06.03 18:47:42.
