data_PCOD9297557
_publ_section_title
;
Structure prediction by ZEFSAII (Michael W. Deem and Ramdas Pophale) SiO2 
 PCOD9297557
Probable space group: C 2/C
;
_chemical_formula_sum "Si O2"
_cell_formula_units_Z 40
_cell_length_a 18.343168
_cell_length_b 20.439066
_cell_length_c 9.077031
_cell_angle_alpha 90.000000
_cell_angle_beta 149.789594
_cell_angle_gamma 90.000000
_cell_volume 1712.379065
_symmetry_space_group_name_H-M "C 2/C"
_symmetry_group_IT_number 15
_symmetry_cell_setting 'monoclinic'
loop_
_space_group_symop_operation_xyz
x,y,z
-x,y,1/2-z
-x,-y,-z
x,-y,1/2+z
1/2+x,1/2+y,z
1/2-x,1/2+y,1/2-z
1/2-x,1/2-y,-z
1/2+x,1/2-y,1/2+z
loop_
_atom_site_type_symbol
_atom_site_label
_atom_site_fract_x
_atom_site_fract_y
_atom_site_fract_z
Si Si1 0.155259 0.153134 0.504286
Si Si2 0.637639 0.775005 0.926414
Si Si3 0.155902 0.967916 0.230429
Si Si4 0.688471 0.901980 0.496434
Si Si5 0.385090 0.890699 0.825526
O O1 0.143574 0.087583 0.584605
O O2 0.201709 0.132175 0.423207
O O3 0.271775 0.200446 0.777520
O O4 0.000000 0.186005 0.250000
O O5 0.500000 0.735518 0.750000
O O6 0.577653 0.838640 0.735109
O O7 0.750000 0.750000 0.000000
O O8 0.254755 0.934453 0.530950
O O9 0.249565 0.029133 0.341416
O O10 0.000000 0.000000 0.000000
O O11 0.666625 0.861217 0.607792
O O12 0.540635 0.918705 0.149223
#
# Coordination Sequence:
#
# PCOD9297557 Si02
#       5
#     8   8   8   8   8
#     4  11  23  42  66  99 137 176 220 279 328 404
#     4  11  25  50  73  96 128 174 229 289 355 405
#     4  11  22  37  62  97 145 179 219 259 329 396
#     4  11  21  39  64  95 137 175 221 260 327 393
#     4  10  24  41  64  95 134 176 220 273 326 405
#
# _framework density 23.359314000000001
#
# number of rings (size 3 to 8) (size 9 to 14) (size 15 to 20)
#    0.000    1.200    4.000    1.800    0.000    3.200 
#    3.600    2.000    0.000    0.000    0.000    0.000 
#    0.000    0.000    0.000    0.000    0.000    0.000 
#
# Total GULP energy -111649.475315 kJ/mol
# GULP energy per Si atom -5582.473766 kJ/mol
# Density = 2.330615 g / cm^3
# Si number density = 23.359314 Si / 1000 Ang^3
#
#
#
# Elastic Constant Matrix: (Units=GPa)
#
#
# Indices 1 2 3 4 5 6 
#
# 1 142.8862 0.2466 38.3944 0.0000 12.8350 0.0000
# 2 0.2466 18.2566 1.2161 0.0000 7.6099 0.0000
# 3 38.3944 1.2161 111.6768 0.0000 21.3654 0.0000
# 4 0.0000 0.0000 0.0000 6.6965 0.0000 14.4944
# 5 12.8350 7.6099 21.3654 0.0000 48.2559 0.0000
# 6 0.0000 0.0000 0.0000 14.4944 0.0000 13.1884
#
#
#
# Elastic Compliance Matrix: (Units=1/GPa)
#
#
# Indices 1 2 3 4 5 6 
#
# 1 0.007756 0.000496 -0.002472 0.000000 -0.001047 0.000000
# 2 0.000496 0.058817 0.001080 0.000000 -0.009886 0.000000
# 3 -0.002472 0.001080 0.010597 0.000000 -0.004205 0.000000
# 4 0.000000 0.000000 0.000000 -0.108303 0.000000 0.119029
# 5 -0.001047 -0.009886 -0.004205 0.000000 0.024422 0.000000
# 6 0.000000 0.000000 0.000000 0.119029 0.000000 -0.054992
#
#
# Mechanical properties :
#
#
# Convention : Reuss Voigt Hill
#
# Bulk Modulus (GPa) = 13.26628 39.17041 26.21835
# Shear Modulus (GPa) = -143.73204 29.15900 -57.28652
#
# Velocity S-wave (km/s) = -7.85268 3.53694 -4.95755
# Velocity P-wave (km/s) = 8.74802 5.78662 4.63912
#
# Compressibility (1/GPa) = 0.07537906
#
# Stress axis : x y z
#
# Youngs Moduli (GPa) = 128.93435 17.00195 94.36811
#
# Poissons Ratio (x) = -0.00844 0.23324
# Poissons Ratio (y) = -0.06398 -0.10193
# Poissons Ratio (z) = 0.31867 -0.01836
#
# Static dielectric constant tensor:
#      x y z
#    x 1.958940 0.000000 0.099990 
#    y 0.000000 1.896530 0.000000 
#    z 0.099990 0.000000 1.944770 
# 
# From -- ./inp_files/23474.got.cif
#   From: 2010.05.17/outbox.cif.g08.bks.cpg/sg15_12_cif.got.tgz:23474.got - 2010.06.03 18:47:42.
