data_PCOD9297780
_publ_section_title
;
Structure prediction by ZEFSAII (Michael W. Deem and Ramdas Pophale) SiO2 
 PCOD9297780
Probable space group: C 2/C
;
_chemical_formula_sum "Si O2"
_cell_formula_units_Z 52
_cell_length_a 24.568020
_cell_length_b 8.995133
_cell_length_c 11.366232
_cell_angle_alpha 90.000000
_cell_angle_beta 60.778318
_cell_angle_gamma 90.000000
_cell_volume 2192.188266
_symmetry_space_group_name_H-M "C 2/C"
_symmetry_group_IT_number 15
_symmetry_cell_setting 'monoclinic'
loop_
_space_group_symop_operation_xyz
x,y,z
-x,y,1/2-z
-x,-y,-z
x,-y,1/2+z
1/2+x,1/2+y,z
1/2-x,1/2+y,1/2-z
1/2-x,1/2-y,-z
1/2+x,1/2-y,1/2+z
loop_
_atom_site_type_symbol
_atom_site_label
_atom_site_fract_x
_atom_site_fract_y
_atom_site_fract_z
Si Si1 0.052636 0.277482 0.885139
Si Si2 0.218194 0.166527 0.301997
Si Si3 0.428903 0.898082 0.133913
Si Si4 0.619796 0.431364 0.487056
Si Si5 0.500000 0.445699 0.250000
Si Si6 0.829183 0.278987 0.389942
Si Si7 0.814784 0.536097 0.589388
O O1 0.068859 0.436959 0.814052
O O2 0.034248 0.158760 0.807883
O O3 0.104454 0.199763 0.911057
O O4 0.993344 0.326188 0.026720
O O5 0.212025 0.242917 0.179746
O O6 0.219972 0.305846 0.388399
O O7 0.155712 0.069867 0.391268
O O8 0.276776 0.058034 0.228030
O O9 0.397690 0.794609 0.262341
O O10 0.382655 0.921788 0.070746
O O11 0.554333 0.471891 0.618888
O O12 0.667198 0.362795 0.530810
O O13 0.817181 0.430034 0.474086
#
# Coordination Sequence:
#
# PCOD9297780 Si02
#       7
#     8   8   8   8   4   8   8
#     4  11  24  42  66 100 141 177 231 289 344 411
#     4  11  26  45  70 103 142 181 235 291 345 420
#     4  10  24  42  67 100 136 179 229 285 346 409
#     4  12  24  45  69 103 142 183 228 289 351 409
#     4  12  24  36  68  96 138 174 232 278 342 414
#     4  11  23  44  71  97 138 180 237 280 354 413
#     4  11  23  46  68  98 137 183 229 288 342 412
#
# _framework density 23.720590999999999
#
# number of rings (size 3 to 8) (size 9 to 14) (size 15 to 20)
#    0.000    0.923    1.538    5.538    4.308    1.231 
#    0.000    3.846    0.000    0.000    0.000    0.000 
#    0.000    0.000    0.000    0.000    0.000    0.000 
#
# Total GULP energy -145402.719592 kJ/mol
# GULP energy per Si atom -5592.412292 kJ/mol
# Density = 2.366660 g / cm^3
# Si number density = 23.720591 Si / 1000 Ang^3
#
#
#
# Elastic Constant Matrix: (Units=GPa)
#
#
# Indices 1 2 3 4 5 6 
#
# 1 33.3729 18.5494 24.0635 0.0000 -2.4528 0.0000
# 2 18.5494 108.0459 29.0775 0.0000 5.3629 0.0000
# 3 24.0635 29.0775 59.8167 0.0000 -2.7799 0.0000
# 4 0.0000 0.0000 0.0000 29.8431 0.0000 -15.8431
# 5 -2.4528 5.3629 -2.7799 0.0000 35.7518 0.0000
# 6 0.0000 0.0000 0.0000 -15.8431 0.0000 45.2590
#
#
#
# Elastic Compliance Matrix: (Units=1/GPa)
#
#
# Indices 1 2 3 4 5 6 
#
# 1 0.043294 -0.003319 -0.015699 0.000000 0.002248 0.000000
# 2 -0.003319 0.011048 -0.004138 0.000000 -0.002207 0.000000
# 3 -0.015699 -0.004138 0.025114 0.000000 0.001496 0.000000
# 4 0.000000 0.000000 0.000000 0.041157 0.000000 0.014407
# 5 0.002248 -0.002207 0.001496 0.000000 0.028572 0.000000
# 6 0.000000 0.000000 0.000000 0.014407 0.000000 0.027138
#
#
# Mechanical properties :
#
#
# Convention : Reuss Voigt Hill
#
# Bulk Modulus (GPa) = 30.17079 38.29072 34.23075
# Shear Modulus (GPa) = 21.39637 30.80712 26.10174
#
# Velocity S-wave (km/s) = 3.00662 3.60773 3.32080
# Velocity P-wave (km/s) = 4.97994 5.79066 5.40053
#
# Compressibility (1/GPa) = 0.03314464
#
# Stress axis : x y z
#
# Youngs Moduli (GPa) = 23.09780 90.51127 39.81827
#
# Poissons Ratio (x) = 0.30045 0.62509
# Poissons Ratio (y) = 0.07667 0.16476
# Poissons Ratio (z) = 0.36260 0.37453
#
# Static dielectric constant tensor:
#      x y z
#    x 1.916410 0.000000 -0.028360 
#    y 0.000000 1.882460 0.000000 
#    z -0.028360 0.000000 1.924690 
# 
# From -- ./inp_files/121805.got.cif
#   From: 2010.05.17/outbox.cif.g08.bks.cpg/sg15_61_cif.got.tgz:121805.got - 2010.06.03 18:47:42.
