data_PCOD9297417
_publ_section_title
;
Structure prediction by ZEFSAII (Michael W. Deem and Ramdas Pophale) SiO2 
 PCOD9297417
Probable space group: C 2/C
;
_chemical_formula_sum "Si O2"
_cell_formula_units_Z 56
_cell_length_a 9.314604
_cell_length_b 23.386454
_cell_length_c 18.562230
_cell_angle_alpha 90.000000
_cell_angle_beta 46.063825
_cell_angle_gamma 90.000000
_cell_volume 2911.787502
_symmetry_space_group_name_H-M "C 2/C"
_symmetry_group_IT_number 15
_symmetry_cell_setting 'monoclinic'
loop_
_space_group_symop_operation_xyz
x,y,z
-x,y,1/2-z
-x,-y,-z
x,-y,1/2+z
1/2+x,1/2+y,z
1/2-x,1/2+y,1/2-z
1/2-x,1/2-y,-z
1/2+x,1/2-y,1/2+z
loop_
_atom_site_type_symbol
_atom_site_label
_atom_site_fract_x
_atom_site_fract_y
_atom_site_fract_z
Si Si1 0.000000 0.662916 0.750000
Si Si2 0.235188 0.090867 0.479525
Si Si3 0.903262 0.537504 0.204654
Si Si4 0.280355 0.798499 0.047746
Si Si5 0.019364 0.257360 0.100890
Si Si6 0.818320 0.079437 0.703386
Si Si7 0.732096 0.148979 0.185806
Si Si8 0.500000 0.345482 0.250000
O O1 0.990944 0.703469 0.823833
O O2 0.815619 0.619297 0.801861
O O3 0.404599 0.042881 0.413377
O O4 0.328875 0.142806 0.491781
O O5 0.195796 0.118253 0.413785
O O6 0.033080 0.073167 0.589988
O O7 0.770693 0.481785 0.245685
O O8 0.787986 0.598252 0.248227
O O9 0.000000 0.533572 0.250000
O O10 0.426556 0.785504 0.061661
O O11 0.069588 0.807479 0.160178
O O12 0.250000 0.750000 0.000000
O O13 0.882144 0.199730 0.155431
O O14 0.250000 0.250000 0.000000
O O15 0.836720 0.113511 0.772156
O O16 0.500000 0.167957 0.250000
#
# Coordination Sequence:
#
# PCOD9297417 Si02
#       8
#     4   8   8   8   8   8   8   4
#     4  12  26  40  63  93 144 168 206 276 334 390
#     4   9  20  37  64  95 118 165 226 256 317 395
#     4   9  20  38  62  95 125 167 215 272 325 385
#     4  11  22  39  66  91 123 172 215 262 313 392
#     4  12  26  40  60 102 137 169 212 273 337 385
#     4  11  21  43  63  93 125 171 217 270 327 386
#     4   9  20  38  63  94 127 173 225 257 321 399
#     4  10  24  40  65  91 122 168 230 254 308 396
#
# _framework density 19.232173
#
# number of rings (size 3 to 8) (size 9 to 14) (size 15 to 20)
#    0.000    2.000    3.571    0.857    3.000    4.571 
#    2.571    5.000    0.000    0.000    0.000    0.000 
#    0.000    0.000    0.000    0.000    0.000    0.000 
#
# Total GULP energy -156014.150864 kJ/mol
# GULP energy per Si atom -5571.933959 kJ/mol
# Density = 1.918840 g / cm^3
# Si number density = 19.232173 Si / 1000 Ang^3
#
#
#
# Elastic Constant Matrix: (Units=GPa)
#
#
# Indices 1 2 3 4 5 6 
#
# 1 89.4325 66.8320 36.5825 0.0000 -4.1026 0.0000
# 2 66.8320 139.2530 79.8479 0.0000 -22.4838 0.0000
# 3 36.5825 79.8479 123.4998 0.0000 -9.2570 0.0000
# 4 0.0000 0.0000 0.0000 19.0365 0.0000 -8.5379
# 5 -4.1026 -22.4838 -9.2570 0.0000 31.6455 0.0000
# 6 0.0000 0.0000 0.0000 -8.5379 0.0000 33.8234
#
#
#
# Elastic Compliance Matrix: (Units=1/GPa)
#
#
# Indices 1 2 3 4 5 6 
#
# 1 0.017962 -0.009673 0.000606 0.000000 -0.004367 0.000000
# 2 -0.009673 0.017894 -0.008021 0.000000 0.009113 0.000000
# 3 0.000606 -0.008021 0.012967 0.000000 -0.001827 0.000000
# 4 0.000000 0.000000 0.000000 0.059237 0.000000 0.014953
# 5 -0.004367 0.009113 -0.001827 0.000000 0.036974 0.000000
# 6 0.000000 0.000000 0.000000 0.014953 0.000000 0.033340
#
#
# Mechanical properties :
#
#
# Convention : Reuss Voigt Hill
#
# Bulk Modulus (GPa) = 68.27371 79.85667 74.06519
# Shear Modulus (GPa) = 22.99558 28.16260 25.57909
#
# Velocity S-wave (km/s) = 3.46162 3.83083 3.65089
# Velocity P-wave (km/s) = 7.18010 7.82174 7.50778
#
# Compressibility (1/GPa) = 0.01464693
#
# Stress axis : x y z
#
# Youngs Moduli (GPa) = 55.67303 55.88333 77.12118
#
# Poissons Ratio (x) = 0.54057 -0.04675
# Poissons Ratio (y) = 0.53854 0.61859
# Poissons Ratio (z) = -0.03375 0.44824
#
# Static dielectric constant tensor:
#      x y z
#    x 1.774230 0.000000 -0.030650 
#    y 0.000000 1.760130 0.000000 
#    z -0.030650 0.000000 1.738850 
# 
# From -- ./inp_files/193233.got.cif
#   From: 2010.05.17/outbox.cif.g08.bks.cpg/sg15_97_cif.got.tgz:193233.got - 2010.06.03 18:47:42.
