data_PCOD9297478
_publ_section_title
;
Structure prediction by ZEFSAII (Michael W. Deem and Ramdas Pophale) SiO2 
 PCOD9297478
Probable space group: C 2/C
;
_chemical_formula_sum "Si O2"
_cell_formula_units_Z 36
_cell_length_a 18.483569
_cell_length_b 9.028571
_cell_length_c 20.732136
_cell_angle_alpha 90.000000
_cell_angle_beta 153.793184
_cell_angle_gamma 90.000000
_cell_volume 1527.883867
_symmetry_space_group_name_H-M "C 2/C"
_symmetry_group_IT_number 15
_symmetry_cell_setting 'monoclinic'
loop_
_space_group_symop_operation_xyz
x,y,z
-x,y,1/2-z
-x,-y,-z
x,-y,1/2+z
1/2+x,1/2+y,z
1/2-x,1/2+y,1/2-z
1/2-x,1/2-y,-z
1/2+x,1/2-y,1/2+z
loop_
_atom_site_type_symbol
_atom_site_label
_atom_site_fract_x
_atom_site_fract_y
_atom_site_fract_z
Si Si1 0.929734 0.303089 0.126433
Si Si2 0.500000 0.711714 0.750000
Si Si3 0.402871 0.400200 0.835109
Si Si4 0.638871 0.894418 0.982701
Si Si5 0.576476 0.719409 0.597435
O O1 0.000000 0.360643 0.250000
O O2 0.035488 0.169266 0.182273
O O3 0.750000 0.250000 0.000000
O O4 0.919188 0.436386 0.067049
O O5 0.666006 0.620520 0.869208
O O6 0.449607 0.812042 0.648313
O O7 0.533789 0.346708 0.993462
O O8 0.231267 0.326156 0.716310
O O9 0.394266 0.576464 0.833895
O O10 0.574164 0.811135 0.993880
#
# Coordination Sequence:
#
# PCOD9297478 Si02
#       5
#     8   4   8   8   8
#     4  12  28  45  68 102 147 186 232 285 344 417
#     4  10  24  40  70 102 140 178 232 278 350 408
#     4  11  26  46  71 105 138 181 231 285 348 410
#     4  11  24  44  70 102 139 183 231 286 345 414
#     4  11  25  46  75 102 138 178 232 291 344 413
#
# _framework density 23.562000999999999
#
# number of rings (size 3 to 8) (size 9 to 14) (size 15 to 20)
#    0.000    0.889    1.111    4.000    7.778   10.667 
#    0.000    0.000    0.000    0.000    0.000    0.000 
#    0.000    0.000    0.000    0.000    0.000    0.000 
#
# Total GULP energy -100908.480063 kJ/mol
# GULP energy per Si atom -5606.026670 kJ/mol
# Density = 2.350837 g / cm^3
# Si number density = 23.562001 Si / 1000 Ang^3
#
#
#
# Elastic Constant Matrix: (Units=GPa)
#
#
# Indices 1 2 3 4 5 6 
#
# 1 86.3644 44.6590 5.2386 0.0001 16.8311 0.0000
# 2 44.6590 127.4089 33.7064 0.0001 14.6081 0.0001
# 3 5.2386 33.7064 98.8775 0.0002 13.0474 0.0001
# 4 0.0001 0.0001 0.0002 33.5633 0.0002 -0.2672
# 5 16.8311 14.6081 13.0474 0.0002 44.8513 0.0001
# 6 0.0000 0.0001 0.0001 -0.2672 0.0001 34.2063
#
#
#
# Elastic Compliance Matrix: (Units=1/GPa)
#
#
# Indices 1 2 3 4 5 6 
#
# 1 0.015015 -0.005168 0.001547 0.000000 -0.004401 0.000000
# 2 -0.005168 0.010587 -0.003261 0.000000 -0.000560 0.000000
# 3 0.001547 -0.003261 0.011522 0.000000 -0.002870 0.000000
# 4 0.000000 0.000000 0.000000 0.029796 0.000000 0.000233
# 5 -0.004401 -0.000560 -0.002870 0.000000 0.024965 0.000000
# 6 0.000000 0.000000 0.000000 0.000233 0.000000 0.029236
#
#
# Mechanical properties :
#
#
# Convention : Reuss Voigt Hill
#
# Bulk Modulus (GPa) = 42.80815 53.31765 48.06290
# Shear Modulus (GPa) = 35.04531 37.79395 36.41963
#
# Velocity S-wave (km/s) = 3.86082 4.00937 3.93580
# Velocity P-wave (km/s) = 6.17109 6.64162 6.41067
#
# Compressibility (1/GPa) = 0.02336004
#
# Stress axis : x y z
#
# Youngs Moduli (GPa) = 66.60026 94.45454 86.79019
#
# Poissons Ratio (x) = 0.48810 -0.13425
# Poissons Ratio (y) = 0.34416 0.28305
# Poissons Ratio (z) = -0.10302 0.30805
#
# Static dielectric constant tensor:
#      x y z
#    x 1.826590 0.000000 -0.040190 
#    y 0.000000 1.850930 0.000000 
#    z -0.040190 0.000000 1.853730 
# 
# From -- ./inp_files/203727.got.cif
#   From: 2010.05.17/outbox.cif.g08.bks.cpg/sg15_102_cif.got.tgz:203727.got - 2010.06.03 18:47:42.
