data_PCOD9297548
_publ_section_title
;
Structure prediction by ZEFSAII (Michael W. Deem and Ramdas Pophale) SiO2 
 PCOD9297548
Probable space group: C 2/C
;
_chemical_formula_sum "Si O2"
_cell_formula_units_Z 64
_cell_length_a 9.631443
_cell_length_b 14.998994
_cell_length_c 26.962267
_cell_angle_alpha 90.000000
_cell_angle_beta 130.953344
_cell_angle_gamma 90.000000
_cell_volume 2941.690145
_symmetry_space_group_name_H-M "C 2/C"
_symmetry_group_IT_number 15
_symmetry_cell_setting 'monoclinic'
loop_
_space_group_symop_operation_xyz
x,y,z
-x,y,1/2-z
-x,-y,-z
x,-y,1/2+z
1/2+x,1/2+y,z
1/2-x,1/2+y,1/2-z
1/2-x,1/2-y,-z
1/2+x,1/2-y,1/2+z
loop_
_atom_site_type_symbol
_atom_site_label
_atom_site_fract_x
_atom_site_fract_y
_atom_site_fract_z
Si Si1 0.091859 0.215185 0.499183
Si Si2 0.734663 0.877010 0.364279
Si Si3 0.783829 0.318916 0.407186
Si Si4 0.168602 0.370895 0.190868
Si Si5 0.388597 0.749453 0.814236
Si Si6 0.214696 0.928880 0.808929
Si Si7 0.788494 0.486499 0.935372
Si Si8 0.025025 0.040438 0.060837
O O1 0.250000 0.250000 0.500000
O O2 0.184028 0.165413 0.566308
O O3 0.949486 0.145798 0.439960
O O4 0.952572 0.292934 0.482179
O O5 0.516084 0.876919 0.320002
O O6 0.801427 0.810973 0.337366
O O7 0.822453 0.976158 0.379053
O O8 0.870551 0.332626 0.373072
O O9 0.607545 0.256787 0.367340
O O10 0.710372 0.416062 0.403926
O O11 0.312751 0.302302 0.248359
O O12 0.241384 0.471744 0.200858
O O13 0.322749 0.850450 0.806332
O O14 0.262703 0.929411 0.879140
O O15 0.000000 0.911907 0.750000
O O16 0.664734 0.458791 0.952710
O O17 0.000000 0.500000 0.000000
O O18 0.000000 0.000000 0.000000
#
# Coordination Sequence:
#
# PCOD9297548 Si02
#       8
#     8   8   8   8   8   8   8   8
#     4  11  23  41  67 101 138 182 225 279 351 420
#     4  11  24  43  66  98 142 181 226 288 352 414
#     4  11  24  44  70 101 139 182 230 290 352 420
#     4  11  24  48  70  95 141 184 233 286 356 421
#     4  12  26  47  70 104 139 183 238 300 347 429
#     4  11  27  45  75 105 139 188 245 291 365 438
#     4  11  24  44  73 103 143 190 236 293 358 428
#     4  10  24  41  63  97 143 178 227 281 351 415
#
# _framework density 21.756201000000001
#
# number of rings (size 3 to 8) (size 9 to 14) (size 15 to 20)
#    0.000    1.000    2.500    3.750   10.500    2.500 
#    0.000    1.250    0.000    0.000    0.000    0.000 
#    0.000    0.000    0.000    0.000    0.000    0.000 
#
# Total GULP energy -178768.486902 kJ/mol
# GULP energy per Si atom -5586.515216 kJ/mol
# Density = 2.170668 g / cm^3
# Si number density = 21.756201 Si / 1000 Ang^3
#
#
#
# Elastic Constant Matrix: (Units=GPa)
#
#
# Indices 1 2 3 4 5 6 
#
# 1 88.4412 16.9350 21.2901 0.0000 14.8121 0.0000
# 2 16.9350 107.3852 19.3615 0.0000 3.2512 0.0000
# 3 21.2901 19.3615 79.9660 0.0000 12.3177 0.0000
# 4 0.0000 0.0000 0.0000 31.3759 0.0000 3.9794
# 5 14.8121 3.2512 12.3177 0.0000 40.6554 0.0000
# 6 0.0000 0.0000 0.0000 3.9794 0.0000 27.6130
#
#
#
# Elastic Compliance Matrix: (Units=1/GPa)
#
#
# Indices 1 2 3 4 5 6 
#
# 1 0.012819 -0.001461 -0.002473 0.000000 -0.003804 0.000000
# 2 -0.001461 0.009904 -0.002065 0.000000 0.000366 0.000000
# 3 -0.002473 -0.002065 0.014161 0.000000 -0.003224 0.000000
# 4 0.000000 0.000000 0.000000 0.032465 0.000000 -0.004679
# 5 -0.003804 0.000366 -0.003224 0.000000 0.026931 0.000000
# 6 0.000000 0.000000 0.000000 -0.004679 0.000000 0.036889
#
#
# Mechanical properties :
#
#
# Convention : Reuss Voigt Hill
#
# Bulk Modulus (GPa) = 40.18489 43.44062 41.81276
# Shear Modulus (GPa) = 32.58140 34.47593 33.52867
#
# Velocity S-wave (km/s) = 3.87404 3.98508 3.92995
# Velocity P-wave (km/s) = 6.20658 6.41754 6.31294
#
# Compressibility (1/GPa) = 0.02488497
#
# Stress axis : x y z
#
# Youngs Moduli (GPa) = 78.00830 100.97011 70.61882
#
# Poissons Ratio (x) = 0.14747 0.17466
# Poissons Ratio (y) = 0.11393 0.14586
# Poissons Ratio (z) = 0.19294 0.20855
#
# Static dielectric constant tensor:
#      x y z
#    x 1.711560 0.000000 0.056780 
#    y 0.000000 1.850790 0.000000 
#    z 0.056780 0.000000 1.682720 
# 
# From -- ./inp_files/308280.got.cif
#   From: 2010.05.17/outbox.cif.g08.bks.cpg/sg15_155_cif.got.tgz:308280.got - 2010.06.03 18:47:42.
