data_PCOD9297895
_publ_section_title
;
Structure prediction by ZEFSAII (Michael W. Deem and Ramdas Pophale) SiO2 
 PCOD9297895
Probable space group: C 2/C
;
_chemical_formula_sum "Si O2"
_cell_formula_units_Z 44
_cell_length_a 7.841701
_cell_length_b 16.600353
_cell_length_c 16.808030
_cell_angle_alpha 90.000000
_cell_angle_beta 59.716400
_cell_angle_gamma 90.000000
_cell_volume 1889.412742
_symmetry_space_group_name_H-M "C 2/C"
_symmetry_group_IT_number 15
_symmetry_cell_setting 'monoclinic'
loop_
_space_group_symop_operation_xyz
x,y,z
-x,y,1/2-z
-x,-y,-z
x,-y,1/2+z
1/2+x,1/2+y,z
1/2-x,1/2+y,1/2-z
1/2-x,1/2-y,-z
1/2+x,1/2-y,1/2+z
loop_
_atom_site_type_symbol
_atom_site_label
_atom_site_fract_x
_atom_site_fract_y
_atom_site_fract_z
Si Si1 0.000000 0.082014 0.750000
Si Si2 0.831888 0.318817 0.093583
Si Si3 0.644426 0.552916 0.320222
Si Si4 0.500000 0.696463 0.250000
Si Si5 0.171723 0.145473 0.464905
Si Si6 0.788959 0.669516 0.892358
Si Si7 0.500000 0.970725 0.250000
O O1 0.808336 0.137357 0.808834
O O2 0.988934 0.021129 0.677533
O O3 0.760707 0.227105 0.096155
O O4 0.058138 0.319650 0.070130
O O5 0.795034 0.360454 0.016958
O O6 0.567859 0.635949 0.302493
O O7 0.676402 0.569636 0.405381
O O8 0.855964 0.528108 0.234453
O O9 0.666413 0.755581 0.176461
O O10 0.940940 0.161825 0.537278
O O11 0.863882 0.588473 0.832485
#
# Coordination Sequence:
#
# PCOD9297895 Si02
#       7
#     4   8   8   4   8   8   4
#     4  11  24  46  70  95 144 178 234 267 354 402
#     4  11  24  44  71 106 132 186 223 290 330 411
#     4  11  24  45  64 105 136 182 219 294 330 417
#     4  10  24  42  70  94 136 178 234 272 338 394
#     4  11  26  43  73 101 143 169 238 283 346 387
#     4  11  23  48  70 100 129 189 225 282 332 417
#     4  11  24  42  70  97 136 176 232 267 352 400
#
# _framework density 23.287658
#
# number of rings (size 3 to 8) (size 9 to 14) (size 15 to 20)
#    0.000    1.091    3.636    1.636    2.545    6.545 
#    3.273    1.818    0.000    0.000    0.000    0.000 
#    0.000    0.000    0.000    0.000    0.000    0.000 
#
# Total GULP energy -123016.534919 kJ/mol
# GULP energy per Si atom -5591.660678 kJ/mol
# Density = 2.323465 g / cm^3
# Si number density = 23.287658 Si / 1000 Ang^3
#
#
#
# Elastic Constant Matrix: (Units=GPa)
#
#
# Indices 1 2 3 4 5 6 
#
# 1 72.3251 -4.2937 2.9849 0.0000 10.7393 0.0000
# 2 -4.2937 99.4622 34.5711 0.0000 -12.0338 0.0000
# 3 2.9849 34.5711 50.9901 0.0000 4.7624 0.0000
# 4 0.0000 0.0000 0.0000 22.9120 0.0000 -0.1481
# 5 10.7393 -12.0338 4.7624 0.0000 44.1559 0.0000
# 6 0.0000 0.0000 0.0000 -0.1481 0.0000 33.7450
#
#
#
# Elastic Compliance Matrix: (Units=1/GPa)
#
#
# Indices 1 2 3 4 5 6 
#
# 1 0.014379 0.000542 -0.000906 0.000000 -0.003252 0.000000
# 2 0.000542 0.014166 -0.010086 0.000000 0.004817 0.000000
# 3 -0.000906 -0.010086 0.027011 0.000000 -0.005442 0.000000
# 4 0.000000 0.000000 0.000000 0.043647 0.000000 0.000192
# 5 -0.003252 0.004817 -0.005442 0.000000 0.025337 0.000000
# 6 0.000000 0.000000 0.000000 0.000192 0.000000 0.029635
#
#
# Mechanical properties :
#
#
# Convention : Reuss Voigt Hill
#
# Bulk Modulus (GPa) = 28.85424 32.14465 30.49945
# Shear Modulus (GPa) = 26.79152 32.79692 29.79422
#
# Velocity S-wave (km/s) = 3.39552 3.75686 3.58075
# Velocity P-wave (km/s) = 5.27162 5.71418 5.49736
#
# Compressibility (1/GPa) = 0.03465695
#
# Stress axis : x y z
#
# Youngs Moduli (GPa) = 69.54662 70.59183 37.02168
#
# Poissons Ratio (x) = -0.03826 0.03352
# Poissons Ratio (y) = -0.03770 0.37340
# Poissons Ratio (z) = 0.06298 0.71199
#
# Static dielectric constant tensor:
#      x y z
#    x 1.948970 0.000000 0.042720 
#    y 0.000000 1.849190 0.000000 
#    z 0.042720 0.000000 1.889550 
# 
# From -- ./inp_files/188926.got.cif
#   From: 2010.05.17/outbox.cif.g08.bks.cpg/sg15_95_cif.got.tgz:188926.got - 2010.06.03 18:47:42.
