data_PCOD9297246
_publ_section_title
;
Structure prediction by ZEFSAII (Michael W. Deem and Ramdas Pophale) SiO2 
 PCOD9297246
Probable space group: C 2/C
;
_chemical_formula_sum "Si O2"
_cell_formula_units_Z 52
_cell_length_a 27.946038
_cell_length_b 15.548902
_cell_length_c 13.966851
_cell_angle_alpha 90.000000
_cell_angle_beta 155.498617
_cell_angle_gamma 90.000000
_cell_volume 2516.914324
_symmetry_space_group_name_H-M "C 2/C"
_symmetry_group_IT_number 15
_symmetry_cell_setting 'monoclinic'
loop_
_space_group_symop_operation_xyz
x,y,z
-x,y,1/2-z
-x,-y,-z
x,-y,1/2+z
1/2+x,1/2+y,z
1/2-x,1/2+y,1/2-z
1/2-x,1/2-y,-z
1/2+x,1/2-y,1/2+z
loop_
_atom_site_type_symbol
_atom_site_label
_atom_site_fract_x
_atom_site_fract_y
_atom_site_fract_z
Si Si1 0.841826 0.462514 0.976481
Si Si2 0.114711 0.118986 0.143443
Si Si3 0.000000 0.945657 0.250000
Si Si4 0.038798 0.368421 0.454061
Si Si5 0.893023 0.679297 0.865183
Si Si6 0.500000 0.276085 0.750000
Si Si7 0.500000 0.120230 0.250000
Si Si8 0.349971 0.586092 0.080487
O O1 0.719221 0.437518 0.791844
O O2 0.864589 0.434903 0.906894
O O3 0.925383 0.402989 0.192948
O O4 0.894509 0.556564 0.087416
O O5 0.140614 0.220370 0.210703
O O6 0.094368 0.079585 0.212016
O O7 0.026560 0.109313 0.894187
O O8 0.105041 0.008069 0.404639
O O9 0.064803 0.279417 0.448612
O O10 0.995924 0.351361 0.481875
O O11 0.784799 0.613579 0.656752
O O12 0.947402 0.673349 0.068670
O O13 0.593139 0.331925 0.865842
#
# Coordination Sequence:
#
# PCOD9297246 Si02
#       8
#     8   8   4   8   8   4   4   8
#     4   9  20  37  60  85 126 156 202 240 302 361
#     4  12  22  42  65  93 117 165 206 250 298 368
#     4  11  27  42  59  89 138 152 194 261 317 348
#     4   9  17  33  59  92 117 151 199 258 288 343
#     4  12  21  38  67  93 119 158 210 249 300 360
#     4   9  17  34  57  93 112 146 206 265 275 336
#     4  10  24  38  54  94 134 156 184 258 320 348
#     4  11  22  39  67  87 115 168 211 243 291 371
#
# _framework density 20.660218
#
# number of rings (size 3 to 8) (size 9 to 14) (size 15 to 20)
#    0.000    1.846    3.077    4.154    0.000    2.462 
#    2.769    0.000    0.000    2.769    0.000    0.000 
#    0.000    0.000    0.000    0.000    0.000    0.000 
#
# Total GULP energy -144775.627146 kJ/mol
# GULP energy per Si atom -5568.293352 kJ/mol
# Density = 2.061319 g / cm^3
# Si number density = 20.660218 Si / 1000 Ang^3
#
#
#
# Elastic Constant Matrix: (Units=GPa)
#
#
# Indices 1 2 3 4 5 6 
#
# 1 108.4635 14.6706 26.6907 0.0000 -14.6350 0.0000
# 2 14.6706 59.2262 9.7948 0.0000 -3.6674 0.0000
# 3 26.6907 9.7948 47.5668 0.0000 -24.5455 0.0000
# 4 0.0000 0.0000 0.0000 43.9678 0.0000 3.1652
# 5 -14.6350 -3.6674 -24.5455 0.0000 34.5119 0.0000
# 6 0.0000 0.0000 0.0000 3.1652 0.0000 20.5994
#
#
#
# Elastic Compliance Matrix: (Units=1/GPa)
#
#
# Indices 1 2 3 4 5 6 
#
# 1 0.010874 -0.001757 -0.005461 0.000000 0.000541 0.000000
# 2 -0.001757 0.017790 -0.003296 0.000000 -0.001199 0.000000
# 3 -0.005461 -0.003296 0.036952 0.000000 0.023615 0.000000
# 4 0.000000 0.000000 0.000000 0.022998 0.000000 -0.003534
# 5 0.000541 -0.001199 0.023615 0.000000 0.045873 0.000000
# 6 0.000000 0.000000 0.000000 -0.003534 0.000000 0.049088
#
#
# Mechanical properties :
#
#
# Convention : Reuss Voigt Hill
#
# Bulk Modulus (GPa) = 22.42735 35.28543 28.85639
# Shear Modulus (GPa) = 22.78253 30.75585 26.76919
#
# Velocity S-wave (km/s) = 3.32433 3.86249 3.60347
# Velocity P-wave (km/s) = 5.06101 6.08340 5.59560
#
# Compressibility (1/GPa) = 0.04458841
#
# Stress axis : x y z
#
# Youngs Moduli (GPa) = 91.96157 56.20979 27.06223
#
# Poissons Ratio (x) = 0.09876 0.14779
# Poissons Ratio (y) = 0.16157 0.08920
# Poissons Ratio (z) = 0.50220 0.18527
#
# Static dielectric constant tensor:
#      x y z
#    x 1.773420 0.000000 0.028890 
#    y 0.000000 1.780580 0.000000 
#    z 0.028890 0.000000 1.746200 
# 
# From -- ./inp_files/123946.got.cif
#   From: 2010.05.17/outbox.cif.g08.bks.cpg/sg15_62_cif.got.tgz:123946.got - 2010.06.03 18:47:42.
