data_PCOD9297574
_publ_section_title
;
Structure prediction by ZEFSAII (Michael W. Deem and Ramdas Pophale) SiO2 
 PCOD9297574
Probable space group: C 2/C
;
_chemical_formula_sum "Si O2"
_cell_formula_units_Z 48
_cell_length_a 25.371665
_cell_length_b 7.062543
_cell_length_c 14.200398
_cell_angle_alpha 90.000000
_cell_angle_beta 122.851183
_cell_angle_gamma 90.000000
_cell_volume 2137.629590
_symmetry_space_group_name_H-M "C 2/C"
_symmetry_group_IT_number 15
_symmetry_cell_setting 'monoclinic'
loop_
_space_group_symop_operation_xyz
x,y,z
-x,y,1/2-z
-x,-y,-z
x,-y,1/2+z
1/2+x,1/2+y,z
1/2-x,1/2+y,1/2-z
1/2-x,1/2-y,-z
1/2+x,1/2-y,1/2+z
loop_
_atom_site_type_symbol
_atom_site_label
_atom_site_fract_x
_atom_site_fract_y
_atom_site_fract_z
Si Si1 0.899163 0.040417 0.137985
Si Si2 0.039711 0.619904 0.898758
Si Si3 0.080336 0.620281 0.288824
Si Si4 0.298652 0.619197 0.882269
Si Si5 0.378143 0.064464 0.365405
Si Si6 0.331019 0.306873 0.758250
O O1 0.950168 0.173475 0.135273
O O2 0.873402 0.123424 0.212181
O O3 0.927162 0.834272 0.185397
O O4 0.839259 0.039913 0.008919
O O5 0.093443 0.500270 0.894777
O O6 0.977299 0.501704 0.813637
O O7 0.056390 0.625493 0.023720
O O8 0.128013 0.623823 0.249165
O O9 0.329259 0.815271 0.877316
O O10 0.306667 0.473830 0.802605
O O11 0.227445 0.679023 0.834018
O O12 0.370776 0.839792 0.359907
#
# Coordination Sequence:
#
# PCOD9297574 Si02
#       6
#     8   8   8   8   8   8
#     4  11  24  43  66 100 132 174 219 276 325 389
#     4  10  24  41  66  93 131 172 217 270 323 386
#     4  11  22  43  66  94 129 171 223 265 330 386
#     4  11  24  41  67  98 133 173 220 269 331 394
#     4  11  22  42  65  96 129 171 218 271 324 389
#     4  12  22  43  66  97 134 175 218 268 331 393
#
# _framework density 22.454778999999998
#
# number of rings (size 3 to 8) (size 9 to 14) (size 15 to 20)
#    0.000    1.000    5.000    2.000    0.000    2.667 
#    0.000    2.500    0.000    0.000    0.000    0.000 
#    0.000    0.000    0.000    0.000    0.000    0.000 
#
# Total GULP energy -133872.401017 kJ/mol
# GULP energy per Si atom -5578.016709 kJ/mol
# Density = 2.240367 g / cm^3
# Si number density = 22.454779 Si / 1000 Ang^3
#
#
#
# Elastic Constant Matrix: (Units=GPa)
#
#
# Indices 1 2 3 4 5 6 
#
# 1 30.5398 15.9504 12.4120 0.0000 -1.7546 0.0000
# 2 15.9504 136.1700 25.6868 0.0000 -3.0643 0.0000
# 3 12.4120 25.6868 82.7237 0.0000 1.7525 0.0000
# 4 0.0000 0.0000 0.0000 28.0506 0.0000 -6.4482
# 5 -1.7546 -3.0643 1.7525 0.0000 32.6818 0.0000
# 6 0.0000 0.0000 0.0000 -6.4482 0.0000 34.7424
#
#
#
# Elastic Compliance Matrix: (Units=1/GPa)
#
#
# Indices 1 2 3 4 5 6 
#
# 1 0.036430 -0.003385 -0.004455 0.000000 0.001877 0.000000
# 2 -0.003385 0.008139 -0.002034 0.000000 0.000691 0.000000
# 3 -0.004455 -0.002034 0.013413 0.000000 -0.001149 0.000000
# 4 0.000000 0.000000 0.000000 0.037239 0.000000 0.006911
# 5 0.001877 0.000691 -0.001149 0.000000 0.030825 0.000000
# 6 0.000000 0.000000 0.000000 0.006911 0.000000 0.030066
#
#
# Mechanical properties :
#
#
# Convention : Reuss Voigt Hill
#
# Bulk Modulus (GPa) = 26.15396 39.72578 32.93987
# Shear Modulus (GPa) = 26.51041 32.12058 29.31550
#
# Velocity S-wave (km/s) = 3.43973 3.78624 3.61714
# Velocity P-wave (km/s) = 5.23912 6.06993 5.66976
#
# Compressibility (1/GPa) = 0.03823513
#
# Stress axis : x y z
#
# Youngs Moduli (GPa) = 27.44967 122.85773 74.55547
#
# Poissons Ratio (x) = 0.41584 0.33213
# Poissons Ratio (y) = 0.09291 0.15166
# Poissons Ratio (z) = 0.12228 0.24992
#
# Static dielectric constant tensor:
#      x y z
#    x 1.919920 0.000000 0.035450 
#    y 0.000000 1.813300 0.000000 
#    z 0.035450 0.000000 1.864650 
# 
# From -- ./inp_files/179987.got.cif
#   From: 2010.05.17/outbox.cif.g08.bks.cpg/sg15_90_cif.got.tgz:179987.got - 2010.06.03 18:47:42.
