data_PCOD9297349
_publ_section_title
;
Structure prediction by ZEFSAII (Michael W. Deem and Ramdas Pophale) SiO2 
 PCOD9297349
Probable space group: C 2/C
;
_chemical_formula_sum "Si O2"
_cell_formula_units_Z 40
_cell_length_a 27.499847
_cell_length_b 5.404031
_cell_length_c 10.731578
_cell_angle_alpha 90.000000
_cell_angle_beta 98.605202
_cell_angle_gamma 90.000000
_cell_volume 1576.866874
_symmetry_space_group_name_H-M "C 2/C"
_symmetry_group_IT_number 15
_symmetry_cell_setting 'monoclinic'
loop_
_space_group_symop_operation_xyz
x,y,z
-x,y,1/2-z
-x,-y,-z
x,-y,1/2+z
1/2+x,1/2+y,z
1/2-x,1/2+y,1/2-z
1/2-x,1/2-y,-z
1/2+x,1/2-y,1/2+z
loop_
_atom_site_type_symbol
_atom_site_label
_atom_site_fract_x
_atom_site_fract_y
_atom_site_fract_z
Si Si1 0.194942 0.618792 0.835784
Si Si2 0.554958 0.005252 0.962230
Si Si3 0.553627 0.489202 0.319753
Si Si4 0.871351 0.712700 0.309296
Si Si5 0.274821 0.630294 0.655799
O O1 0.140593 0.522298 0.786059
O O2 0.224763 0.628370 0.714983
O O3 0.205659 0.880869 0.899128
O O4 0.217845 0.384566 0.916880
O O5 0.551299 0.228326 0.860983
O O6 0.564921 0.721664 0.927099
O O7 0.600012 0.098615 0.064836
O O8 0.500000 0.000000 0.000000
O O9 0.500000 0.418949 0.250000
O O10 0.593442 0.422664 0.231446
O O11 0.817057 0.833295 0.283217
#
# Coordination Sequence:
#
# PCOD9297349 Si02
#       5
#     8   8   8   8   8
#     4   8  16  31  59  89 119 166 214 244 323 374
#     4  12  27  44  66  96 130 173 218 267 329 385
#     4  12  27  43  67  95 129 173 219 265 327 390
#     4  10  24  39  70  91 135 167 214 275 312 383
#     4   8  16  31  58  91 116 171 208 249 319 379
#
# _framework density 25.366755999999999
#
# number of rings (size 3 to 8) (size 9 to 14) (size 15 to 20)
#    1.200    0.800    2.000    1.200    5.600    0.000 
#    0.000    0.000    0.000    7.200    0.000    0.000 
#    0.000    0.000    0.000    0.000    0.000    0.000 
#
# Total GULP energy -111491.385645 kJ/mol
# GULP energy per Si atom -5574.569282 kJ/mol
# Density = 2.530902 g / cm^3
# Si number density = 25.366756 Si / 1000 Ang^3
#
#
#
# Elastic Constant Matrix: (Units=GPa)
#
#
# Indices 1 2 3 4 5 6 
#
# 1 82.6706 16.4068 7.2061 0.0000 13.3776 0.0000
# 2 16.4068 174.6374 13.6499 0.0000 3.4900 0.0000
# 3 7.2061 13.6499 44.4126 0.0000 19.2363 0.0000
# 4 0.0000 0.0000 0.0000 37.8232 0.0000 -5.9669
# 5 13.3776 3.4900 19.2363 0.0000 30.5364 0.0000
# 6 0.0000 0.0000 0.0000 -5.9669 0.0000 -9.0109
#
#
#
# Elastic Compliance Matrix: (Units=1/GPa)
#
#
# Indices 1 2 3 4 5 6 
#
# 1 0.013265 -0.001193 0.000925 0.000000 -0.006257 0.000000
# 2 -0.001193 0.005984 -0.002167 0.000000 0.001204 0.000000
# 3 0.000925 -0.002167 0.031768 0.000000 -0.020170 0.000000
# 4 0.000000 0.000000 0.000000 0.023938 0.000000 -0.015852
# 5 -0.006257 0.001204 -0.020170 0.000000 0.048057 0.000000
# 6 0.000000 0.000000 0.000000 -0.015852 0.000000 -0.100481
#
#
# Mechanical properties :
#
#
# Convention : Reuss Voigt Hill
#
# Bulk Modulus (GPa) = 21.67056 41.80513 31.73785
# Shear Modulus (GPa) = 116.86519 29.50028 73.18273
#
# Velocity S-wave (km/s) = 6.79487 3.41391 5.37703
# Velocity P-wave (km/s) = 8.37387 5.66178 7.14764
#
# Compressibility (1/GPa) = 0.04614555
#
# Stress axis : x y z
#
# Youngs Moduli (GPa) = 75.38634 167.12415 31.47814
#
# Poissons Ratio (x) = 0.19945 -0.02911
# Poissons Ratio (y) = 0.08997 0.06821
# Poissons Ratio (z) = -0.06971 0.36213
#
# Static dielectric constant tensor:
#      x y z
#    x 1.935170 0.000000 -0.118250 
#    y 0.000000 2.092530 0.000000 
#    z -0.118250 0.000000 1.763150 
# 
# From -- ./inp_files/175536.got.cif
#   From: 2010.05.17/outbox.cif.g08.bks.cpg/sg15_88_cif.got.tgz:175536.got - 2010.06.03 18:47:42.
