data_PCOD9297067
_publ_section_title
;
Structure prediction by ZEFSAII (Michael W. Deem and Ramdas Pophale) SiO2 
 PCOD9297067
Probable space group: C 2/C
;
_chemical_formula_sum "Si O2"
_cell_formula_units_Z 40
_cell_length_a 13.288173
_cell_length_b 14.799261
_cell_length_c 8.374143
_cell_angle_alpha 90.000000
_cell_angle_beta 104.846915
_cell_angle_gamma 90.000000
_cell_volume 1591.837429
_symmetry_space_group_name_H-M "C 2/C"
_symmetry_group_IT_number 15
_symmetry_cell_setting 'monoclinic'
loop_
_space_group_symop_operation_xyz
x,y,z
-x,y,1/2-z
-x,-y,-z
x,-y,1/2+z
1/2+x,1/2+y,z
1/2-x,1/2+y,1/2-z
1/2-x,1/2-y,-z
1/2+x,1/2-y,1/2+z
loop_
_atom_site_type_symbol
_atom_site_label
_atom_site_fract_x
_atom_site_fract_y
_atom_site_fract_z
Si Si1 0.000000 0.839483 0.750000
Si Si2 0.880101 0.400623 0.210786
Si Si3 0.000000 0.426304 0.750000
Si Si4 0.689068 0.436622 0.977384
Si Si5 0.375001 0.382842 0.190762
Si Si6 0.591057 0.220276 0.513192
O O1 0.021386 0.786215 0.594256
O O2 0.893976 0.894075 0.676267
O O3 0.903607 0.506563 0.253027
O O4 0.807113 0.399101 0.026431
O O5 0.837694 0.334471 0.331322
O O6 0.000000 0.369368 0.250000
O O7 0.970748 0.361279 0.594386
O O8 0.657994 0.408958 0.143832
O O9 0.679345 0.543263 0.945914
O O10 0.500000 0.397333 0.250000
O O11 0.363377 0.283549 0.107370
#
# Coordination Sequence:
#
# PCOD9297067 Si02
#       6
#     4   8   4   8   8   8
#     4  12  23  45  76 108 150 180 248 299 367 426
#     4  10  27  48  74 102 150 195 241 292 358 437
#     4  10  23  47  74  98 156 188 242 293 355 436
#     4  12  26  46  76 109 147 197 231 302 372 423
#     4  12  24  46  74 111 147 183 247 302 363 431
#     4  12  23  47  74 108 145 191 243 304 351 433
#
# _framework density 25.128193
#
# number of rings (size 3 to 8) (size 9 to 14) (size 15 to 20)
#    0.600    0.000    5.000    2.400    2.800    1.600 
#    3.600    0.000    0.000    0.000    0.000    0.000 
#    0.000    0.000    0.000    0.000    0.000    0.000 
#
# Total GULP energy -111660.119397 kJ/mol
# GULP energy per Si atom -5583.005970 kJ/mol
# Density = 2.507100 g / cm^3
# Si number density = 25.128193 Si / 1000 Ang^3
#
#
#
# Elastic Constant Matrix: (Units=GPa)
#
#
# Indices 1 2 3 4 5 6 
#
# 1 77.2091 17.2301 24.7729 0.0000 12.4238 0.0000
# 2 17.2301 119.0481 34.9805 0.0000 5.0429 0.0000
# 3 24.7729 34.9805 85.9678 0.0000 16.1386 0.0000
# 4 0.0000 0.0000 0.0000 50.8209 0.0000 -27.5271
# 5 12.4238 5.0429 16.1386 0.0000 62.4777 0.0000
# 6 0.0000 0.0000 0.0000 -27.5271 0.0000 -21.9606
#
#
#
# Elastic Compliance Matrix: (Units=1/GPa)
#
#
# Indices 1 2 3 4 5 6 
#
# 1 0.014590 -0.001023 -0.003425 0.000000 -0.001934 0.000000
# 2 -0.001023 0.009616 -0.003689 0.000000 0.000380 0.000000
# 3 -0.003425 -0.003689 0.014647 0.000000 -0.002805 0.000000
# 4 0.000000 0.000000 0.000000 0.011720 0.000000 -0.014691
# 5 -0.001934 0.000380 -0.002805 0.000000 0.017084 0.000000
# 6 0.000000 0.000000 0.000000 -0.014691 0.000000 -0.027122
#
#
# Mechanical properties :
#
#
# Convention : Reuss Voigt Hill
#
# Bulk Modulus (GPa) = 44.29085 48.46578 46.37832
# Shear Modulus (GPa) = 77.71645 31.95037 54.83341
#
# Velocity S-wave (km/s) = 5.56733 3.56967 4.67641
# Velocity P-wave (km/s) = 7.68056 6.02655 6.90328
#
# Compressibility (1/GPa) = 0.02257803
#
# Stress axis : x y z
#
# Youngs Moduli (GPa) = 68.53858 103.99324 68.27398
#
# Poissons Ratio (x) = 0.10643 0.23383
# Poissons Ratio (y) = 0.07014 0.25188
# Poissons Ratio (z) = 0.23474 0.38366
#
# Static dielectric constant tensor:
#      x y z
#    x 5.370020 0.000000 0.240390 
#    y 0.000000 1.994010 0.000000 
#    z 0.240390 0.000000 2.006460 
# 
# From -- ./inp_files/38114.got.cif
#   From: 2010.05.17/outbox.cif.g08.bks.cpg/sg15_20_cif.got.tgz:38114.got - 2010.06.03 18:47:42.
