data_PCOD9297035
_publ_section_title
;
Structure prediction by ZEFSAII (Michael W. Deem and Ramdas Pophale) SiO2 
 PCOD9297035
Probable space group: C 2/C
;
_chemical_formula_sum "Si O2"
_cell_formula_units_Z 36
_cell_length_a 13.805243
_cell_length_b 8.317435
_cell_length_c 13.528265
_cell_angle_alpha 90.000000
_cell_angle_beta 73.518791
_cell_angle_gamma 90.000000
_cell_volume 1489.548685
_symmetry_space_group_name_H-M "C 2/C"
_symmetry_group_IT_number 15
_symmetry_cell_setting 'monoclinic'
loop_
_space_group_symop_operation_xyz
x,y,z
-x,y,1/2-z
-x,-y,-z
x,-y,1/2+z
1/2+x,1/2+y,z
1/2-x,1/2+y,1/2-z
1/2-x,1/2-y,-z
1/2+x,1/2-y,1/2+z
loop_
_atom_site_type_symbol
_atom_site_label
_atom_site_fract_x
_atom_site_fract_y
_atom_site_fract_z
Si Si1 0.660464 0.134060 0.359792
Si Si2 0.179246 0.380198 0.198831
Si Si3 0.506162 0.619919 0.859480
Si Si4 0.779574 0.063858 0.992669
Si Si5 0.500000 0.324726 0.750000
O O1 0.740744 0.251798 0.282906
O O2 0.567573 0.254204 0.407429
O O3 0.631243 0.991200 0.295826
O O4 0.719980 0.047545 0.430890
O O5 0.087359 0.282076 0.177850
O O6 0.243677 0.484931 0.104591
O O7 0.500000 0.697316 0.750000
O O8 0.398347 0.571647 0.934522
O O9 0.551380 0.446010 0.814620
O O10 0.750000 0.250000 0.000000
#
# Coordination Sequence:
#
# PCOD9297035 Si02
#       5
#     8   8   8   8   4
#     4  12  25  46  77 103 147 202 237 306 387 428
#     4  12  25  47  73 108 145 192 251 301 369 447
#     4  10  23  47  71 106 150 189 243 311 365 437
#     4  12  27  47  70 110 150 186 255 309 357 457
#     4  10  24  44  76 100 154 188 232 322 354 430
#
# _framework density 24.168392000000001
#
# number of rings (size 3 to 8) (size 9 to 14) (size 15 to 20)
#    0.667    0.000    2.222    6.000    4.667    1.778 
#    4.000    0.000    0.000    0.000    0.000    0.000 
#    0.000    0.000    0.000    0.000    0.000    0.000 
#
# Total GULP energy -100562.878943 kJ/mol
# GULP energy per Si atom -5586.826608 kJ/mol
# Density = 2.411338 g / cm^3
# Si number density = 24.168392 Si / 1000 Ang^3
#
#
#
# Elastic Constant Matrix: (Units=GPa)
#
#
# Indices 1 2 3 4 5 6 
#
# 1 119.3361 69.3564 38.2784 0.0000 -12.8236 0.0000
# 2 69.3564 136.3938 25.3976 0.0000 1.6010 0.0000
# 3 38.2784 25.3976 57.5285 0.0000 -12.2091 0.0000
# 4 0.0000 0.0000 0.0000 27.7342 0.0000 -3.2875
# 5 -12.8236 1.6010 -12.2091 0.0000 25.6821 0.0000
# 6 0.0000 0.0000 0.0000 -3.2875 0.0000 70.7565
#
#
#
# Elastic Compliance Matrix: (Units=1/GPa)
#
#
# Indices 1 2 3 4 5 6 
#
# 1 0.014426 -0.006316 -0.005781 0.000000 0.004848 0.000000
# 2 -0.006316 0.010891 -0.001578 0.000000 -0.004583 0.000000
# 3 -0.005781 -0.001578 0.023729 0.000000 0.008492 0.000000
# 4 0.000000 0.000000 0.000000 0.036256 0.000000 0.001685
# 5 0.004848 -0.004583 0.008492 0.000000 0.045681 0.000000
# 6 0.000000 0.000000 0.000000 0.001685 0.000000 0.014211
#
#
# Mechanical properties :
#
#
# Convention : Reuss Voigt Hill
#
# Bulk Modulus (GPa) = 46.09512 64.36923 55.23218
# Shear Modulus (GPa) = 27.81225 36.84963 32.33094
#
# Velocity S-wave (km/s) = 3.39598 3.90898 3.66148
# Velocity P-wave (km/s) = 5.87289 6.86039 6.38576
#
# Compressibility (1/GPa) = 0.02169427
#
# Stress axis : x y z
#
# Youngs Moduli (GPa) = 69.31997 91.81850 42.14332
#
# Poissons Ratio (x) = 0.57992 0.24365
# Poissons Ratio (y) = 0.43782 0.06651
# Poissons Ratio (z) = 0.40077 0.14492
#
# Static dielectric constant tensor:
#      x y z
#    x 1.993670 0.000000 0.050590 
#    y 0.000000 1.925240 0.000000 
#    z 0.050590 0.000000 1.974850 
# 
# From -- ./inp_files/150165.got.cif
#   From: 2010.05.17/outbox.cif.g08.bks.cpg/sg15_76_cif.got.tgz:150165.got - 2010.06.03 18:47:42.
