data_PCOD9297436
_publ_section_title
;
Structure prediction by ZEFSAII (Michael W. Deem and Ramdas Pophale) SiO2 
 PCOD9297436
Probable space group: C 2/C
;
_chemical_formula_sum "Si O2"
_cell_formula_units_Z 52
_cell_length_a 22.019669
_cell_length_b 16.511024
_cell_length_c 9.388391
_cell_angle_alpha 90.000000
_cell_angle_beta 130.234986
_cell_angle_gamma 90.000000
_cell_volume 2605.728231
_symmetry_space_group_name_H-M "C 2/C"
_symmetry_group_IT_number 15
_symmetry_cell_setting 'monoclinic'
loop_
_space_group_symop_operation_xyz
x,y,z
-x,y,1/2-z
-x,-y,-z
x,-y,1/2+z
1/2+x,1/2+y,z
1/2-x,1/2+y,1/2-z
1/2-x,1/2-y,-z
1/2+x,1/2-y,1/2+z
loop_
_atom_site_type_symbol
_atom_site_label
_atom_site_fract_x
_atom_site_fract_y
_atom_site_fract_z
Si Si1 0.585238 0.298922 0.958344
Si Si2 0.000000 0.505680 0.250000
Si Si3 0.487196 0.727684 0.563323
Si Si4 0.147894 0.906266 0.655621
Si Si5 0.076470 0.399785 0.113721
Si Si6 0.906154 0.972843 0.643206
Si Si7 0.298066 0.824378 0.007574
O O1 0.500000 0.292083 0.750000
O O2 0.620103 0.384564 0.957358
O O3 0.562440 0.305225 0.089515
O O4 0.636350 0.220713 0.991797
O O5 0.958535 0.452680 0.309674
O O6 0.063403 0.556999 0.440937
O O7 0.500000 0.732150 0.750000
O O8 0.410548 0.671018 0.423828
O O9 0.470882 0.816034 0.475530
O O10 0.111735 0.967380 0.717737
O O11 0.236630 0.879526 0.827928
O O12 0.139283 0.952723 0.495257
O O13 0.162332 0.373816 0.302731
O O14 0.000000 0.981829 0.750000
O O15 0.250000 0.750000 0.000000
#
# Coordination Sequence:
#
# PCOD9297436 Si02
#       7
#     8   4   8   8   8   8   8
#     4  11  20  41  70  94 123 175 222 268 325 388
#     4  10  24  40  66  96 120 162 212 274 320 368
#     4  12  23  40  69  99 126 170 226 272 314 391
#     4  12  25  40  65  98 137 174 213 268 332 390
#     4  11  21  41  65  93 125 160 215 265 321 379
#     4  11  22  40  65  98 132 171 219 268 324 390
#     4  12  22  42  69  92 131 174 215 261 332 392
#
# _framework density 19.956033999999999
#
# number of rings (size 3 to 8) (size 9 to 14) (size 15 to 20)
#    0.000    0.615    8.462    1.846    2.154    1.231 
#    0.000    0.769    3.385    0.000    0.000    0.000 
#    0.000    0.000    0.000    0.000    0.000    0.000 
#
# Total GULP energy -145209.764128 kJ/mol
# GULP energy per Si atom -5584.990928 kJ/mol
# Density = 1.991061 g / cm^3
# Si number density = 19.956034 Si / 1000 Ang^3
#
#
#
# Elastic Constant Matrix: (Units=GPa)
#
#
# Indices 1 2 3 4 5 6 
#
# 1 48.8991 10.3066 30.5708 0.0000 -3.8367 0.0000
# 2 10.3066 73.5761 51.5087 0.0000 0.3620 0.0000
# 3 30.5708 51.5087 118.5589 0.0000 -0.8109 0.0000
# 4 0.0000 0.0000 0.0000 37.8956 0.0000 -9.4142
# 5 -3.8367 0.3620 -0.8109 0.0000 35.9809 0.0000
# 6 0.0000 0.0000 0.0000 -9.4142 0.0000 19.8835
#
#
#
# Elastic Compliance Matrix: (Units=1/GPa)
#
#
# Indices 1 2 3 4 5 6 
#
# 1 0.024700 0.001401 -0.006961 0.000000 0.002463 0.000000
# 2 0.001401 0.019617 -0.008886 0.000000 -0.000248 0.000000
# 3 -0.006961 -0.008886 0.014088 0.000000 -0.000335 0.000000
# 4 0.000000 0.000000 0.000000 0.029906 0.000000 0.014159
# 5 0.002463 -0.000248 -0.000335 0.000000 0.028050 0.000000
# 6 0.000000 0.000000 0.000000 0.014159 0.000000 0.056997
#
#
# Mechanical properties :
#
#
# Convention : Reuss Voigt Hill
#
# Bulk Modulus (GPa) = 33.88270 47.31183 40.59727
# Shear Modulus (GPa) = 23.57533 28.66189 26.11861
#
# Velocity S-wave (km/s) = 3.44083 3.79390 3.62167
# Velocity P-wave (km/s) = 5.72724 6.55371 6.15436
#
# Compressibility (1/GPa) = 0.02951358
#
# Stress axis : x y z
#
# Youngs Moduli (GPa) = 40.48583 50.97634 70.98434
#
# Poissons Ratio (x) = -0.07141 0.49411
# Poissons Ratio (y) = -0.05672 0.63074
# Poissons Ratio (z) = 0.28181 0.45296
#
# Static dielectric constant tensor:
#      x y z
#    x 1.725980 0.000000 -0.005190 
#    y 0.000000 1.723940 0.000000 
#    z -0.005190 0.000000 1.716750 
# 
# From -- ./inp_files/57061.got.cif
#   From: 2010.05.17/outbox.cif.g08.bks.cpg/sg15_29_cif.got.tgz:57061.got - 2010.06.03 18:47:42.
