data_PCOD9297731
_publ_section_title
;
Structure prediction by ZEFSAII (Michael W. Deem and Ramdas Pophale) SiO2 
 PCOD9297731
Probable space group: C 2/C
;
_chemical_formula_sum "Si O2"
_cell_formula_units_Z 60
_cell_length_a 5.782597
_cell_length_b 25.911423
_cell_length_c 18.357973
_cell_angle_alpha 90.000000
_cell_angle_beta 94.143161
_cell_angle_gamma 90.000000
_cell_volume 2743.484206
_symmetry_space_group_name_H-M "C 2/C"
_symmetry_group_IT_number 15
_symmetry_cell_setting 'monoclinic'
loop_
_space_group_symop_operation_xyz
x,y,z
-x,y,1/2-z
-x,-y,-z
x,-y,1/2+z
1/2+x,1/2+y,z
1/2-x,1/2+y,1/2-z
1/2-x,1/2-y,-z
1/2+x,1/2-y,1/2+z
loop_
_atom_site_type_symbol
_atom_site_label
_atom_site_fract_x
_atom_site_fract_y
_atom_site_fract_z
Si Si1 0.630790 0.243879 0.332405
Si Si2 0.398362 0.592236 0.003217
Si Si3 0.355434 0.873601 0.671470
Si Si4 0.874435 0.574373 0.926687
Si Si5 0.678770 0.039208 0.128533
Si Si6 0.969614 0.332943 0.331984
Si Si7 0.353723 0.703435 0.953850
Si Si8 0.500000 0.572464 0.250000
O O1 0.500000 0.246797 0.250000
O O2 0.646557 0.184430 0.355659
O O3 0.538245 0.271952 0.403038
O O4 0.859094 0.276379 0.322551
O O5 0.637295 0.574254 0.969441
O O6 0.423898 0.654822 0.006192
O O7 0.135251 0.583254 0.964865
O O8 0.368459 0.559102 0.075391
O O9 0.500000 0.871857 0.750000
O O10 0.478213 0.917167 0.625920
O O11 0.103647 0.890634 0.691059
O O12 0.896749 0.517738 0.892880
O O13 0.831591 0.621655 0.869857
O O14 0.797596 0.039157 0.210474
O O15 0.184091 0.321951 0.389712
O O16 0.000000 0.351237 0.250000
O O17 0.250000 0.750000 0.000000
#
# Coordination Sequence:
#
# PCOD9297731 Si02
#       8
#     8   8   8   8   8   8   8   4
#     4  11  21  40  68  95 139 182 234 290 360 426
#     4  11  25  46  71 104 143 187 238 289 356 427
#     4   9  22  38  60  97 130 180 228 288 345 421
#     4  11  26  46  73 105 141 188 237 290 353 426
#     4  11  24  45  70  98 140 182 241 287 364 418
#     4  11  24  43  69 103 138 186 235 293 357 430
#     4  11  24  43  66 103 142 184 238 295 357 427
#     4  10  24  42  66 100 136 174 238 294 354 418
#
# _framework density 21.870001999999999
#
# number of rings (size 3 to 8) (size 9 to 14) (size 15 to 20)
#    0.000    1.333    2.667    1.600    4.667    4.267 
#    3.600    0.000    0.000    0.000    0.000    0.000 
#    0.000    0.000    0.000    0.000    0.000    0.000 
#
# Total GULP energy -167122.609089 kJ/mol
# GULP energy per Si atom -5570.753636 kJ/mol
# Density = 2.182023 g / cm^3
# Si number density = 21.870002 Si / 1000 Ang^3
#
#
#
# Elastic Constant Matrix: (Units=GPa)
#
#
# Indices 1 2 3 4 5 6 
#
# 1 69.9029 20.2817 4.3536 0.0000 -11.3876 0.0000
# 2 20.2817 152.6121 8.1218 0.0000 -6.3185 0.0000
# 3 4.3536 8.1218 35.3133 0.0000 -4.1395 0.0000
# 4 0.0000 0.0000 0.0000 29.7241 0.0000 -6.7292
# 5 -11.3876 -6.3185 -4.1395 0.0000 39.4625 0.0000
# 6 0.0000 0.0000 0.0000 -6.7292 0.0000 22.5291
#
#
#
# Elastic Compliance Matrix: (Units=1/GPa)
#
#
# Indices 1 2 3 4 5 6 
#
# 1 0.015571 -0.001846 -0.001016 0.000000 0.004091 0.000000
# 2 -0.001846 0.006885 -0.001305 0.000000 0.000433 0.000000
# 3 -0.001016 -0.001305 0.029042 0.000000 0.002544 0.000000
# 4 0.000000 0.000000 0.000000 0.036083 0.000000 0.010778
# 5 0.004091 0.000433 0.002544 0.000000 0.026857 0.000000
# 6 0.000000 0.000000 0.000000 0.010778 0.000000 0.047606
#
#
# Mechanical properties :
#
#
# Convention : Reuss Voigt Hill
#
# Bulk Modulus (GPa) = 23.16728 35.92696 29.54712
# Shear Modulus (GPa) = 27.06136 33.34790 30.20463
#
# Velocity S-wave (km/s) = 3.52145 3.90914 3.72035
# Velocity P-wave (km/s) = 5.21060 6.06946 5.65635
#
# Compressibility (1/GPa) = 0.04316433
#
# Stress axis : x y z
#
# Youngs Moduli (GPa) = 64.22256 145.23789 34.43340
#
# Poissons Ratio (x) = 0.26809 0.03497
# Poissons Ratio (y) = 0.11855 0.04494
# Poissons Ratio (z) = 0.06522 0.18957
#
# Static dielectric constant tensor:
#      x y z
#    x 1.848510 0.000000 -0.005520 
#    y 0.000000 1.855660 0.000000 
#    z -0.005520 0.000000 1.800500 
# 
# From -- ./inp_files/228139.got.cif
#   From: 2010.05.17/outbox.cif.g08.bks.cpg/sg15_115_cif.got.tgz:228139.got - 2010.06.03 18:47:42.
