data_PCOD9297485
_publ_section_title
;
Structure prediction by ZEFSAII (Michael W. Deem and Ramdas Pophale) SiO2 
 PCOD9297485
Probable space group: C 2/C
;
_chemical_formula_sum "Si O2"
_cell_formula_units_Z 36
_cell_length_a 20.859245
_cell_length_b 16.796260
_cell_length_c 8.459669
_cell_angle_alpha 90.000000
_cell_angle_beta 147.067713
_cell_angle_gamma 90.000000
_cell_volume 1611.320532
_symmetry_space_group_name_H-M "C 2/C"
_symmetry_group_IT_number 15
_symmetry_cell_setting 'monoclinic'
loop_
_space_group_symop_operation_xyz
x,y,z
-x,y,1/2-z
-x,-y,-z
x,-y,1/2+z
1/2+x,1/2+y,z
1/2-x,1/2+y,1/2-z
1/2-x,1/2-y,-z
1/2+x,1/2-y,1/2+z
loop_
_atom_site_type_symbol
_atom_site_label
_atom_site_fract_x
_atom_site_fract_y
_atom_site_fract_z
Si Si1 0.500000 0.519587 0.750000
Si Si2 0.322725 0.182361 0.056939
Si Si3 0.261584 0.358706 0.467679
Si Si4 0.058611 0.271090 0.197566
Si Si5 0.325999 0.541892 0.633667
O O1 0.403349 0.569228 0.644834
O O2 0.422094 0.465401 0.472409
O O3 0.458090 0.199743 0.371092
O O4 0.250000 0.250000 0.000000
O O5 0.290253 0.173674 0.805962
O O6 0.278969 0.099672 0.041833
O O7 0.170073 0.330742 0.412664
O O8 0.386208 0.313507 0.738020
O O9 0.280608 0.452721 0.507290
O O10 0.000000 0.267631 0.250000
#
# Coordination Sequence:
#
# PCOD9297485 Si02
#       5
#     4   8   8   8   8
#     4  10  24  40  70 106 142 190 248 308 350 438
#     4  12  26  46  73 106 149 192 238 305 372 434
#     4  11  26  50  71 110 146 192 249 298 374 446
#     4  11  26  45  75 105 146 193 240 305 368 438
#     4  11  25  44  73 107 145 195 247 305 367 434
#
# _framework density 22.341923999999999
#
# number of rings (size 3 to 8) (size 9 to 14) (size 15 to 20)
#    0.000    0.889    4.444    0.667   10.889    0.889 
#    0.000    0.000    0.000    0.000    0.000    0.000 
#    0.000    0.000    0.000    0.000    0.000    0.000 
#
# Total GULP energy -100750.764368 kJ/mol
# GULP energy per Si atom -5597.264687 kJ/mol
# Density = 2.229107 g / cm^3
# Si number density = 22.341924 Si / 1000 Ang^3
#
#
#
# Elastic Constant Matrix: (Units=GPa)
#
#
# Indices 1 2 3 4 5 6 
#
# 1 140.7839 42.8932 32.3799 0.0000 25.0232 0.0000
# 2 42.8932 126.8094 54.8140 0.0000 14.4503 0.0000
# 3 32.3799 54.8140 126.4426 0.0000 14.7128 0.0000
# 4 0.0000 0.0000 0.0000 16.3735 0.0000 3.5582
# 5 25.0232 14.4503 14.7128 0.0000 32.9523 0.0000
# 6 0.0000 0.0000 0.0000 3.5582 0.0000 28.2291
#
#
#
# Elastic Compliance Matrix: (Units=1/GPa)
#
#
# Indices 1 2 3 4 5 6 
#
# 1 0.008879 -0.002055 -0.000742 0.000000 -0.005510 0.000000
# 2 -0.002055 0.010380 -0.003824 0.000000 -0.001284 0.000000
# 3 -0.000742 -0.003824 0.010016 0.000000 -0.002232 0.000000
# 4 0.000000 0.000000 0.000000 0.062794 0.000000 -0.007915
# 5 -0.005510 -0.001284 -0.002232 0.000000 0.036091 0.000000
# 6 0.000000 0.000000 0.000000 -0.007915 0.000000 0.036422
#
#
# Mechanical properties :
#
#
# Convention : Reuss Voigt Hill
#
# Bulk Modulus (GPa) = 62.36841 72.69003 67.52922
# Shear Modulus (GPa) = 27.29714 33.10759 30.20236
#
# Velocity S-wave (km/s) = 3.49920 3.85367 3.68071
# Velocity P-wave (km/s) = 6.65597 7.23926 6.95373
#
# Compressibility (1/GPa) = 0.01603376
#
# Stress axis : x y z
#
# Youngs Moduli (GPa) = 112.62322 96.33640 99.83757
#
# Poissons Ratio (x) = 0.19795 0.07407
# Poissons Ratio (y) = 0.23142 0.38181
# Poissons Ratio (z) = 0.08355 0.36842
#
# Static dielectric constant tensor:
#      x y z
#    x 1.874500 0.000000 -0.044240 
#    y 0.000000 1.800280 0.000000 
#    z -0.044240 0.000000 1.833910 
# 
# From -- ./inp_files/56304.got.cif
#   From: 2010.05.17/outbox.cif.g08.bks.cpg/sg15_29_cif.got.tgz:56304.got - 2010.06.03 18:47:42.
