data_PCOD9297154
_publ_section_title
;
Structure prediction by ZEFSAII (Michael W. Deem and Ramdas Pophale) SiO2 
 PCOD9297154
Probable space group: C 2/C
;
_chemical_formula_sum "Si O2"
_cell_formula_units_Z 48
_cell_length_a 17.494954
_cell_length_b 11.423921
_cell_length_c 11.671680
_cell_angle_alpha 90.000000
_cell_angle_beta 79.325033
_cell_angle_gamma 90.000000
_cell_volume 2292.342963
_symmetry_space_group_name_H-M "C 2/C"
_symmetry_group_IT_number 15
_symmetry_cell_setting 'monoclinic'
loop_
_space_group_symop_operation_xyz
x,y,z
-x,y,1/2-z
-x,-y,-z
x,-y,1/2+z
1/2+x,1/2+y,z
1/2-x,1/2+y,1/2-z
1/2-x,1/2-y,-z
1/2+x,1/2-y,1/2+z
loop_
_atom_site_type_symbol
_atom_site_label
_atom_site_fract_x
_atom_site_fract_y
_atom_site_fract_z
Si Si1 0.151378 0.837253 0.288723
Si Si2 0.916870 0.318798 0.123684
Si Si3 0.311582 0.916674 0.346431
Si Si4 0.681098 0.827006 0.572984
Si Si5 0.907908 0.911078 0.763492
Si Si6 0.094344 0.259416 0.032748
O O1 0.238261 0.847085 0.316103
O O2 0.146296 0.750700 0.183887
O O3 0.096954 0.789066 0.404665
O O4 0.131254 0.967452 0.253659
O O5 0.880322 0.401213 0.232565
O O6 0.893856 0.186949 0.170143
O O7 0.010140 0.311891 0.089511
O O8 0.879589 0.349099 0.012601
O O9 0.342130 0.856664 0.454207
O O10 0.292385 0.050248 0.380132
O O11 0.750000 0.750000 0.500000
O O12 0.885323 0.848449 0.888278
O O13 0.000000 0.931298 0.750000
#
# Coordination Sequence:
#
# PCOD9297154 Si02
#       6
#     8   8   8   8   8   8
#     4  12  26  39  71 102 133 176 231 280 345 406
#     4  10  23  49  68  97 138 180 225 280 341 404
#     4  11  25  46  70  93 139 183 223 277 348 397
#     4  12  27  44  69 100 137 179 227 284 336 408
#     4   9  22  42  68  97 137 174 217 279 346 396
#     4  10  25  45  70  99 135 180 232 282 337 406
#
# _framework density 20.939274000000001
#
# number of rings (size 3 to 8) (size 9 to 14) (size 15 to 20)
#    0.000    1.333    1.667    3.000   11.667    2.000 
#    3.000    0.000    0.000    0.000    0.000    0.000 
#    0.000    0.000    0.000    0.000    0.000    0.000 
#
# Total GULP energy -134180.333238 kJ/mol
# GULP energy per Si atom -5590.847218 kJ/mol
# Density = 2.089162 g / cm^3
# Si number density = 20.939274 Si / 1000 Ang^3
#
#
#
# Elastic Constant Matrix: (Units=GPa)
#
#
# Indices 1 2 3 4 5 6 
#
# 1 44.4716 7.7291 -2.4676 0.0000 -0.4958 0.0000
# 2 7.7291 79.3008 16.3690 0.0000 -5.1811 0.0000
# 3 -2.4676 16.3690 80.5339 0.0000 -1.7288 0.0000
# 4 0.0000 0.0000 0.0000 13.3554 0.0000 8.4100
# 5 -0.4958 -5.1811 -1.7288 0.0000 32.8306 0.0000
# 6 0.0000 0.0000 0.0000 8.4100 0.0000 28.0361
#
#
#
# Elastic Compliance Matrix: (Units=1/GPa)
#
#
# Indices 1 2 3 4 5 6 
#
# 1 0.022986 -0.002489 0.001211 0.000000 0.000018 0.000000
# 2 -0.002489 0.013556 -0.002790 0.000000 0.001955 0.000000
# 3 0.001211 -0.002790 0.013027 0.000000 0.000264 0.000000
# 4 0.000000 0.000000 0.000000 0.092313 0.000000 -0.027691
# 5 0.000018 0.001955 0.000264 0.000000 0.030782 0.000000
# 6 0.000000 0.000000 0.000000 -0.027691 0.000000 0.043975
#
#
# Mechanical properties :
#
#
# Convention : Reuss Voigt Hill
#
# Bulk Modulus (GPa) = 24.13524 27.50748 25.82136
# Shear Modulus (GPa) = 20.95671 27.02282 23.98976
#
# Velocity S-wave (km/s) = 3.16703 3.59630 3.38847
# Velocity P-wave (km/s) = 4.99247 5.51450 5.25997
#
# Compressibility (1/GPa) = 0.04143319
#
# Stress axis : x y z
#
# Youngs Moduli (GPa) = 43.50430 73.76605 76.76410
#
# Poissons Ratio (x) = 0.18361 -0.09293
# Poissons Ratio (y) = 0.10829 0.21415
# Poissons Ratio (z) = -0.05267 0.20579
#
# Static dielectric constant tensor:
#      x y z
#    x 1.761600 0.000000 -0.007040 
#    y 0.000000 1.739490 0.000000 
#    z -0.007040 0.000000 1.762550 
# 
# From -- ./inp_files/103666.got.cif
#   From: 2010.05.17/outbox.cif.g08.bks.cpg/sg15_52_cif.got.tgz:103666.got - 2010.06.03 18:47:42.
