data_PCOD9297272
_publ_section_title
;
Structure prediction by ZEFSAII (Michael W. Deem and Ramdas Pophale) SiO2 
 PCOD9297272
Probable space group: C 2/C
;
_chemical_formula_sum "Si O2"
_cell_formula_units_Z 44
_cell_length_a 15.465581
_cell_length_b 30.109746
_cell_length_c 14.751477
_cell_angle_alpha 90.000000
_cell_angle_beta 160.797384
_cell_angle_gamma 90.000000
_cell_volume 2259.360882
_symmetry_space_group_name_H-M "C 2/C"
_symmetry_group_IT_number 15
_symmetry_cell_setting 'monoclinic'
loop_
_space_group_symop_operation_xyz
x,y,z
-x,y,1/2-z
-x,-y,-z
x,-y,1/2+z
1/2+x,1/2+y,z
1/2-x,1/2+y,1/2-z
1/2-x,1/2-y,-z
1/2+x,1/2-y,1/2+z
loop_
_atom_site_type_symbol
_atom_site_label
_atom_site_fract_x
_atom_site_fract_y
_atom_site_fract_z
Si Si1 0.500000 0.661880 0.250000
Si Si2 0.263568 0.779022 0.161791
Si Si3 0.224187 0.602289 0.125497
Si Si4 0.291160 0.635775 0.785801
Si Si5 0.244540 0.002466 0.310413
Si Si6 0.745789 0.914265 0.059632
O O1 0.683688 0.692631 0.494397
O O2 0.319891 0.631274 0.135539
O O3 0.561403 0.762146 0.460304
O O4 0.208480 0.812175 0.190623
O O5 0.429666 0.615164 0.408556
O O6 0.249313 0.549942 0.133940
O O7 0.933812 0.614701 0.872010
O O8 0.229258 0.622250 0.622506
O O9 0.239399 0.961434 0.373762
O O10 0.500000 0.000000 0.500000
O O11 0.000000 0.000000 0.000000
O O12 0.000000 0.907819 0.250000
O O13 0.500000 0.913514 0.750000
#
# Coordination Sequence:
#
# PCOD9297272 Si02
#       6
#     4   8   8   8   8   8
#     4  10  24  38  62  98 136 166 202 260 316 388
#     4  11  23  41  66  93 125 163 210 258 320 401
#     4  11  22  40  60  90 130 175 210 248 313 376
#     4  11  23  43  64  88 124 169 207 259 328 375
#     4  12  22  42  63  88 128 173 217 262 306 367
#     4  12  25  41  65  95 126 169 222 270 318 368
#
# _framework density 19.474533000000001
#
# number of rings (size 3 to 8) (size 9 to 14) (size 15 to 20)
#    0.000    0.727    3.636    4.909    1.273    5.818 
#    3.273    0.000    0.000    3.273    0.000    0.000 
#    0.000    0.000    0.000    0.000    0.000    0.000 
#
# Total GULP energy -123151.785884 kJ/mol
# GULP energy per Si atom -5597.808449 kJ/mol
# Density = 1.943021 g / cm^3
# Si number density = 19.474533 Si / 1000 Ang^3
#
#
#
# Elastic Constant Matrix: (Units=GPa)
#
#
# Indices 1 2 3 4 5 6 
#
# 1 105.6949 43.2227 18.8430 0.0040 -10.7894 0.0009
# 2 43.2227 95.2094 6.9958 0.0021 -14.3300 -0.0022
# 3 18.8430 6.9958 95.4240 0.0124 -3.7000 0.0098
# 4 0.0040 0.0021 0.0124 30.4806 0.0017 -5.1543
# 5 -10.7894 -14.3300 -3.7000 0.0017 37.3608 0.0008
# 6 0.0009 -0.0022 0.0098 -5.1543 0.0008 31.8628
#
#
#
# Elastic Compliance Matrix: (Units=1/GPa)
#
#
# Indices 1 2 3 4 5 6 
#
# 1 0.012039 -0.005124 -0.001951 -0.000001 0.001318 0.000000
# 2 -0.005124 0.013368 0.000174 0.000000 0.003665 0.000001
# 3 -0.001951 0.000174 0.010874 -0.000005 0.000580 -0.000004
# 4 -0.000001 0.000000 -0.000005 0.033730 -0.000002 0.005456
# 5 0.001318 0.003665 0.000580 -0.000002 0.028610 -0.000001
# 6 0.000000 0.000001 -0.000004 0.005456 -0.000001 0.032267
#
#
# Mechanical properties :
#
#
# Convention : Reuss Voigt Hill
#
# Bulk Modulus (GPa) = 44.48268 48.27236 46.37752
# Shear Modulus (GPa) = 32.85522 35.09196 33.97359
#
# Velocity S-wave (km/s) = 4.11187 4.24953 4.18127
# Velocity P-wave (km/s) = 6.74050 6.99423 6.86854
#
# Compressibility (1/GPa) = 0.02248066
#
# Stress axis : x y z
#
# Youngs Moduli (GPa) = 83.06538 74.80570 91.95852
#
# Poissons Ratio (x) = 0.38327 0.17937
# Poissons Ratio (y) = 0.42559 -0.01598
# Poissons Ratio (z) = 0.16202 -0.01300
#
# Static dielectric constant tensor:
#      x y z
#    x 1.650300 0.000000 -0.005530 
#    y 0.000000 1.698290 0.000000 
#    z -0.005530 0.000000 1.666360 
# 
# From -- ./inp_files/157555.got.cif
#   From: 2010.05.17/outbox.cif.g08.bks.cpg/sg15_79_cif.got.tgz:157555.got - 2010.06.03 18:47:42.
