data_PCOD9297011
_publ_section_title
;
Structure prediction by ZEFSAII (Michael W. Deem and Ramdas Pophale) SiO2 
 PCOD9297011
Probable space group: C 2/C
;
_chemical_formula_sum "Si O2"
_cell_formula_units_Z 40
_cell_length_a 18.122601
_cell_length_b 11.417594
_cell_length_c 14.332604
_cell_angle_alpha 90.000000
_cell_angle_beta 141.542527
_cell_angle_gamma 90.000000
_cell_volume 1844.438744
_symmetry_space_group_name_H-M "C 2/C"
_symmetry_group_IT_number 15
_symmetry_cell_setting 'monoclinic'
loop_
_space_group_symop_operation_xyz
x,y,z
-x,y,1/2-z
-x,-y,-z
x,-y,1/2+z
1/2+x,1/2+y,z
1/2-x,1/2+y,1/2-z
1/2-x,1/2-y,-z
1/2+x,1/2-y,1/2+z
loop_
_atom_site_type_symbol
_atom_site_label
_atom_site_fract_x
_atom_site_fract_y
_atom_site_fract_z
Si Si1 0.548809 0.465730 0.695281
Si Si2 0.884356 0.520940 0.446822
Si Si3 0.248320 0.382246 0.035499
Si Si4 0.752176 0.281713 0.893690
Si Si5 0.211870 0.977680 0.115057
O O1 0.500000 0.435701 0.750000
O O2 0.631067 0.580301 0.790917
O O3 0.636399 0.359722 0.757171
O O4 0.430015 0.488081 0.520056
O O5 0.854037 0.419326 0.492406
O O6 0.869608 0.641458 0.489142
O O7 0.781491 0.534791 0.267911
O O8 0.000000 0.500000 0.500000
O O9 0.250000 0.250000 0.000000
O O10 0.246918 0.466241 0.942691
O O11 0.756093 0.158817 0.846354
O O12 0.750000 0.250000 0.000000
#
# Coordination Sequence:
#
# PCOD9297011 Si02
#       5
#     8   8   8   8   8
#     4   9  19  40  69 100 129 183 237 278 345 421
#     4  11  27  46  67 110 142 185 238 296 361 414
#     4  10  23  47  69 102 142 185 237 287 361 426
#     4  11  21  43  71 100 141 187 234 285 350 428
#     4  11  24  44  71 102 143 184 238 296 353 420
#
# _framework density 21.686813999999998
#
# number of rings (size 3 to 8) (size 9 to 14) (size 15 to 20)
#    0.000    1.600    6.000    0.000    5.600    4.000 
#   10.800    0.000    0.000    0.000    0.000    0.000 
#    0.000    0.000    0.000    0.000    0.000    0.000 
#
# Total GULP energy -111649.073750 kJ/mol
# GULP energy per Si atom -5582.453688 kJ/mol
# Density = 2.163745 g / cm^3
# Si number density = 21.686814 Si / 1000 Ang^3
#
#
#
# Elastic Constant Matrix: (Units=GPa)
#
#
# Indices 1 2 3 4 5 6 
#
# 1 200.2960 60.7553 41.6931 0.0000 19.2398 0.0000
# 2 60.7553 123.7109 33.4908 0.0000 24.7064 0.0000
# 3 41.6931 33.4908 104.3424 0.0000 5.0679 0.0000
# 4 0.0000 0.0000 0.0000 15.3966 0.0000 -2.0231
# 5 19.2398 24.7064 5.0679 0.0000 25.2912 0.0000
# 6 0.0000 0.0000 0.0000 -2.0231 0.0000 38.1163
#
#
#
# Elastic Compliance Matrix: (Units=1/GPa)
#
#
# Indices 1 2 3 4 5 6 
#
# 1 0.006212 -0.002135 -0.001685 0.000000 -0.002303 0.000000
# 2 -0.002135 0.011640 -0.002433 0.000000 -0.009259 0.000000
# 3 -0.001685 -0.002433 0.010967 0.000000 0.001461 0.000000
# 4 0.000000 0.000000 0.000000 0.065406 0.000000 0.003471
# 5 -0.002303 -0.009259 0.001461 0.000000 0.050043 0.000000
# 6 0.000000 0.000000 0.000000 0.003471 0.000000 0.026420
#
#
# Mechanical properties :
#
#
# Convention : Reuss Voigt Hill
#
# Bulk Modulus (GPa) = 61.30261 77.80306 69.55284
# Shear Modulus (GPa) = 26.50675 35.25483 30.88079
#
# Velocity S-wave (km/s) = 3.49986 4.03629 3.77761
# Velocity P-wave (km/s) = 6.68286 7.59446 7.15320
#
# Compressibility (1/GPa) = 0.01631252
#
# Stress axis : x y z
#
# Youngs Moduli (GPa) = 160.97595 85.91390 91.18065
#
# Poissons Ratio (x) = 0.18340 0.15366
# Poissons Ratio (y) = 0.34364 0.22187
# Poissons Ratio (z) = 0.27128 0.20905
#
# Static dielectric constant tensor:
#      x y z
#    x 1.917510 0.000000 -0.056570 
#    y 0.000000 1.833100 0.000000 
#    z -0.056570 0.000000 1.911790 
# 
# From -- ./inp_files/161147.got.cif
#   From: 2010.05.17/outbox.cif.g08.bks.cpg/sg15_81_cif.got.tgz:161147.got - 2010.06.03 18:47:42.
