data_PCOD9297573
_publ_section_title
;
Structure prediction by ZEFSAII (Michael W. Deem and Ramdas Pophale) SiO2 
 PCOD9297573
Probable space group: C 2/C
;
_chemical_formula_sum "Si O2"
_cell_formula_units_Z 24
_cell_length_a 22.009748
_cell_length_b 5.187499
_cell_length_c 20.117513
_cell_angle_alpha 90.000000
_cell_angle_beta 153.774251
_cell_angle_gamma 90.000000
_cell_volume 1015.033260
_symmetry_space_group_name_H-M "C 2/C"
_symmetry_group_IT_number 15
_symmetry_cell_setting 'monoclinic'
loop_
_space_group_symop_operation_xyz
x,y,z
-x,y,1/2-z
-x,-y,-z
x,-y,1/2+z
1/2+x,1/2+y,z
1/2-x,1/2+y,1/2-z
1/2-x,1/2-y,-z
1/2+x,1/2-y,1/2+z
loop_
_atom_site_type_symbol
_atom_site_label
_atom_site_fract_x
_atom_site_fract_y
_atom_site_fract_z
Si Si1 0.059270 0.532315 0.237012
Si Si2 0.160403 0.857648 0.544499
Si Si3 0.912084 0.361275 0.970953
O O1 0.221303 0.564110 0.390470
O O2 0.000000 0.461550 0.250000
O O3 0.012361 0.339374 0.133245
O O4 0.977647 0.786724 0.131245
O O5 0.195995 0.581888 0.613188
O O6 0.146399 0.073775 0.588132
O O7 0.000000 0.500000 0.000000
#
# Coordination Sequence:
#
# PCOD9297573 Si02
#       3
#     8   8   8
#     4  10  24  42  67  96 133 173 217 268 326 386
#     4  10  24  41  67  93 132 167 221 265 324 382
#     4  10  24  41  66  93 130 171 216 266 320 384
#
# _framework density 23.644546999999999
#
# number of rings (size 3 to 8) (size 9 to 14) (size 15 to 20)
#    2.000    0.000    0.000    2.000    4.667    5.333 
#    0.000    0.000    0.000    0.000    0.000    0.000 
#    0.000    0.000    0.000    0.000    0.000    0.000 
#
# Total GULP energy -66807.702081 kJ/mol
# GULP energy per Si atom -5567.308507 kJ/mol
# Density = 2.359073 g / cm^3
# Si number density = 23.644547 Si / 1000 Ang^3
#
#
#
# Elastic Constant Matrix: (Units=GPa)
#
#
# Indices 1 2 3 4 5 6 
#
# 1 114.4210 -19.1389 19.9613 0.0000 -4.2253 0.0000
# 2 -19.1389 82.6582 11.3657 0.0000 -3.6092 0.0000
# 3 19.9613 11.3657 30.0123 0.0000 10.5115 0.0000
# 4 0.0000 0.0000 0.0000 -6.7384 0.0000 -8.5374
# 5 -4.2253 -3.6092 10.5115 0.0000 41.8275 0.0000
# 6 0.0000 0.0000 0.0000 -8.5374 0.0000 10.2919
#
#
#
# Elastic Compliance Matrix: (Units=1/GPa)
#
#
# Indices 1 2 3 4 5 6 
#
# 1 0.011500 0.004330 -0.010774 0.000000 0.004243 0.000000
# 2 0.004330 0.014643 -0.009891 0.000000 0.004187 0.000000
# 3 -0.010774 -0.009891 0.049246 0.000000 -0.014318 0.000000
# 4 0.000000 0.000000 0.000000 -0.072357 0.000000 -0.060022
# 5 0.004243 0.004187 -0.014318 0.000000 0.028296 0.000000
# 6 0.000000 0.000000 0.000000 -0.060022 0.000000 0.047374
#
#
# Mechanical properties :
#
#
# Convention : Reuss Voigt Hill
#
# Bulk Modulus (GPa) = 23.40976 27.94087 25.67532
# Shear Modulus (GPa) = 39.80452 23.40311 31.60381
#
# Velocity S-wave (km/s) = 4.10744 3.14950 3.65995
# Velocity P-wave (km/s) = 5.69359 5.00685 5.36123
#
# Compressibility (1/GPa) = 0.04271722
#
# Stress axis : x y z
#
# Youngs Moduli (GPa) = 86.95506 68.29024 20.30610
#
# Poissons Ratio (x) = -0.29567 0.21879
# Poissons Ratio (y) = -0.37648 0.20086
# Poissons Ratio (z) = 0.93690 0.67549
#
# Static dielectric constant tensor:
#      x y z
#    x 1.898800 0.000000 -0.074260 
#    y 0.000000 2.027320 0.000000 
#    z -0.074260 0.000000 2.278250 
# 
# From -- ./inp_files/59483.got.cif
#   From: 2010.05.17/outbox.cif.g08.bks.cpg/sg15_30_cif.got.tgz:59483.got - 2010.06.03 18:47:42.
