data_PCOD9297260
_publ_section_title
;
Structure prediction by ZEFSAII (Michael W. Deem and Ramdas Pophale) SiO2 
 PCOD9297260
Probable space group: C 2/C
;
_chemical_formula_sum "Si O2"
_cell_formula_units_Z 44
_cell_length_a 21.070170
_cell_length_b 4.604800
_cell_length_c 20.067100
_cell_angle_alpha 90.000000
_cell_angle_beta 89.999795
_cell_angle_gamma 90.000000
_cell_volume 1946.988681
_symmetry_space_group_name_H-M "C 2/C"
_symmetry_group_IT_number 15
_symmetry_cell_setting 'monoclinic'
loop_
_space_group_symop_operation_xyz
x,y,z
-x,y,1/2-z
-x,-y,-z
x,-y,1/2+z
1/2+x,1/2+y,z
1/2-x,1/2+y,1/2-z
1/2-x,1/2-y,-z
1/2+x,1/2-y,1/2+z
loop_
_atom_site_type_symbol
_atom_site_label
_atom_site_fract_x
_atom_site_fract_y
_atom_site_fract_z
Si Si1 0.569700 0.650303 0.925850
Si Si2 0.394661 0.195054 0.340681
Si Si3 0.930300 0.150303 0.425850
Si Si4 0.394661 0.804946 0.159319
Si Si5 0.291718 0.499996 0.250000
Si Si6 0.500000 0.499998 0.750000
O O1 0.499999 0.500003 0.923164
O O2 0.613261 0.378678 0.908394
O O3 0.586639 0.878215 0.867562
O O4 0.576460 0.772558 1.000000
O O5 0.386738 0.378681 0.408394
O O6 0.413362 0.878217 0.367562
O O7 0.335134 0.295294 0.296624
O O8 0.453719 0.307062 0.295961
O O9 0.335134 0.704699 0.203376
O O10 0.453719 0.692942 0.204039
O O11 0.250000 0.749996 0.286214
#
# Coordination Sequence:
#
# PCOD9297260 Si02
#       6
#     8   8   8   8   8   4
#     4  11  23  40  62  97 138 175 215 263 335 419
#     4  11  23  41  65  93 135 172 216 285 331 407
#     4  11  23  40  62  97 138 175 215 263 335 419
#     4  11  23  41  65  93 135 172 216 285 331 407
#     4  11  24  45  70  95 128 179 236 286 342 391
#     4  10  24  38  60  96 134 162 218 264 358 402
#
# _framework density 22.599
#
# number of rings (size 3 to 8) (size 9 to 14) (size 15 to 20)
#    0.000    1.091    1.818    4.364    0.000    8.727 
#    0.000    0.000    0.000   21.818    0.000    0.000 
#    0.000    0.000    0.000    0.000    0.000    0.000 
#
# Total GULP energy -122634.095908 kJ/mol
# GULP energy per Si atom -5574.277087 kJ/mol
# Density = 2.254756 g / cm^3
# Si number density = 22.599000 Si / 1000 Ang^3
#
#
#
# Elastic Constant Matrix: (Units=GPa)
#
#
# Indices 1 2 3 4 5 6 
#
# 1 78.6854 44.1681 31.0304 0.0000 0.0011 0.0000
# 2 44.1681 155.4127 39.6686 0.0000 0.0011 0.0000
# 3 31.0304 39.6686 110.2389 0.0000 0.0012 0.0000
# 4 0.0000 0.0000 0.0000 44.5608 0.0000 0.0002
# 5 0.0011 0.0011 0.0012 0.0000 4.8318 0.0000
# 6 0.0000 0.0000 0.0000 0.0002 0.0000 30.1726
#
#
#
# Elastic Compliance Matrix: (Units=1/GPa)
#
#
# Indices 1 2 3 4 5 6 
#
# 1 0.016068 -0.003757 -0.003171 0.000000 -0.000002 0.000000
# 2 -0.003757 0.007964 -0.001808 0.000000 0.000000 0.000000
# 3 -0.003171 -0.001808 0.010614 0.000000 -0.000001 0.000000
# 4 0.000000 0.000000 0.000000 0.022441 0.000000 0.000000
# 5 -0.000002 0.000000 -0.000001 0.000000 0.206963 0.000000
# 6 0.000000 0.000000 0.000000 0.000000 0.000000 0.033143
#
#
# Mechanical properties :
#
#
# Convention : Reuss Voigt Hill
#
# Bulk Modulus (GPa) = 58.22768 63.78568 61.00668
# Shear Modulus (GPa) = 15.60593 31.21105 23.40849
#
# Velocity S-wave (km/s) = 2.63070 3.72032 3.22191
# Velocity P-wave (km/s) = 5.92022 6.83671 6.39491
#
# Compressibility (1/GPa) = 0.01717396
#
# Stress axis : x y z
#
# Youngs Moduli (GPa) = 62.23414 125.56833 94.21156
#
# Poissons Ratio (x) = 0.47179 0.29874
# Poissons Ratio (y) = 0.23383 0.17034
# Poissons Ratio (z) = 0.19734 0.22704
#
# Static dielectric constant tensor:
#      x y z
#    x 1.949460 0.000000 0.000000 
#    y 0.000000 1.958370 0.000000 
#    z 0.000000 0.000000 1.881730 
# 
# From -- ./inp_files/278411.got.cif
#   From: 2010.05.17/outbox.cif.g08.bks.cpg/sg15_140_cif.got.tgz:278411.got - 2010.06.03 18:47:42.
