data_PCOD9297884
_publ_section_title
;
Structure prediction by ZEFSAII (Michael W. Deem and Ramdas Pophale) SiO2 
 PCOD9297884
Probable space group: C 2/C
;
_chemical_formula_sum "Si O2"
_cell_formula_units_Z 40
_cell_length_a 22.169409
_cell_length_b 8.987995
_cell_length_c 27.801737
_cell_angle_alpha 90.000000
_cell_angle_beta 20.062354
_cell_angle_gamma 90.000000
_cell_volume 1900.364519
_symmetry_space_group_name_H-M "C 2/C"
_symmetry_group_IT_number 15
_symmetry_cell_setting 'monoclinic'
loop_
_space_group_symop_operation_xyz
x,y,z
-x,y,1/2-z
-x,-y,-z
x,-y,1/2+z
1/2+x,1/2+y,z
1/2-x,1/2+y,1/2-z
1/2-x,1/2-y,-z
1/2+x,1/2-y,1/2+z
loop_
_atom_site_type_symbol
_atom_site_label
_atom_site_fract_x
_atom_site_fract_y
_atom_site_fract_z
Si Si1 0.322925 0.878527 0.410263
Si Si2 0.644599 0.370868 0.886635
Si Si3 0.454452 0.640432 0.147703
Si Si4 0.010376 0.528326 0.627873
Si Si5 0.344407 0.054063 0.581781
O O1 0.500000 0.833990 0.250000
O O2 0.250000 0.750000 0.500000
O O3 0.384195 0.004690 0.402126
O O4 0.158964 0.909718 0.497909
O O5 0.613596 0.323791 0.854698
O O6 0.838895 0.432584 0.747723
O O7 0.634550 0.231687 0.930090
O O8 0.500000 0.500000 0.000000
O O9 0.443411 0.800836 0.181538
O O10 0.333081 0.515449 0.262962
O O11 0.129549 0.508254 0.491331
O O12 0.500000 0.000000 0.500000
#
# Coordination Sequence:
#
# PCOD9297884 Si02
#       5
#     8   8   8   8   8
#     4  10  24  42  70 104 141 187 239 287 351 424
#     4  12  24  40  69  97 139 183 234 292 357 413
#     4  11  23  41  71  98 141 179 234 289 348 420
#     4  11  25  43  68  99 141 180 236 294 349 423
#     4  12  24  41  67 106 138 182 238 288 361 425
#
# _framework density 21.048591999999999
#
# number of rings (size 3 to 8) (size 9 to 14) (size 15 to 20)
#    0.000    0.800    4.000    2.400   14.000    0.000 
#    0.000    1.000    4.400    0.000    0.000    0.000 
#    0.000    0.000    0.000    0.000    0.000    0.000 
#
# Total GULP energy -111657.864316 kJ/mol
# GULP energy per Si atom -5582.893216 kJ/mol
# Density = 2.100068 g / cm^3
# Si number density = 21.048592 Si / 1000 Ang^3
#
#
#
# Elastic Constant Matrix: (Units=GPa)
#
#
# Indices 1 2 3 4 5 6 
#
# 1 107.0864 7.3830 31.2978 -0.0005 -16.5650 -0.0003
# 2 7.3830 72.5361 22.1355 -0.0012 -2.6555 -0.0011
# 3 31.2978 22.1355 134.3651 -0.0160 -13.3337 -0.0011
# 4 -0.0005 -0.0012 -0.0160 34.0046 -0.0020 5.5645
# 5 -16.5650 -2.6555 -13.3337 -0.0020 47.1080 -0.0002
# 6 -0.0003 -0.0011 -0.0011 5.5645 -0.0002 18.8060
#
#
#
# Elastic Compliance Matrix: (Units=1/GPa)
#
#
# Indices 1 2 3 4 5 6 
#
# 1 0.010441 -0.000317 -0.002076 -0.000001 0.003066 0.000000
# 2 -0.000317 0.014527 -0.002314 -0.000001 0.000052 0.000001
# 3 -0.002076 -0.002314 0.008459 0.000004 0.001534 -0.000001
# 4 -0.000001 -0.000001 0.000004 0.030904 0.000002 -0.009144
# 5 0.003066 0.000052 0.001534 0.000002 0.022743 0.000000
# 6 0.000000 0.000001 -0.000001 -0.009144 0.000000 0.055880
#
#
# Mechanical properties :
#
#
# Convention : Reuss Voigt Hill
#
# Bulk Modulus (GPa) = 41.64315 48.40223 45.02269
# Shear Modulus (GPa) = 31.17744 36.86181 34.01963
#
# Velocity S-wave (km/s) = 3.85283 4.18936 4.02461
# Velocity P-wave (km/s) = 6.29441 6.81516 6.55995
#
# Compressibility (1/GPa) = 0.02401355
#
# Stress axis : x y z
#
# Youngs Moduli (GPa) = 95.77606 68.83919 118.21272
#
# Poissons Ratio (x) = 0.02183 0.24535
# Poissons Ratio (y) = 0.03037 0.27355
# Poissons Ratio (z) = 0.19879 0.15930
#
# Static dielectric constant tensor:
#      x y z
#    x 1.870740 0.000010 0.007440 
#    y 0.000010 1.845250 0.000020 
#    z 0.007440 0.000020 1.799390 
# 
# From -- ./inp_files/318448.got.cif
#   From: 2010.05.17/outbox.cif.g08.bks.cpg/sg15_160_cif.got.tgz:318448.got - 2010.06.03 18:47:42.
