data_PCOD9297449
_publ_section_title
;
Structure prediction by ZEFSAII (Michael W. Deem and Ramdas Pophale) SiO2 
 PCOD9297449
Probable space group: C 2/C
;
_chemical_formula_sum "Si O2"
_cell_formula_units_Z 56
_cell_length_a 6.320380
_cell_length_b 26.626967
_cell_length_c 17.076887
_cell_angle_alpha 90.000000
_cell_angle_beta 109.502686
_cell_angle_gamma 90.000000
_cell_volume 2709.024522
_symmetry_space_group_name_H-M "C 2/C"
_symmetry_group_IT_number 15
_symmetry_cell_setting 'monoclinic'
loop_
_space_group_symop_operation_xyz
x,y,z
-x,y,1/2-z
-x,-y,-z
x,-y,1/2+z
1/2+x,1/2+y,z
1/2-x,1/2+y,1/2-z
1/2-x,1/2-y,-z
1/2+x,1/2-y,1/2+z
loop_
_atom_site_type_symbol
_atom_site_label
_atom_site_fract_x
_atom_site_fract_y
_atom_site_fract_z
Si Si1 0.096332 0.438444 0.598782
Si Si2 0.562174 0.623296 0.616681
Si Si3 0.834311 0.978627 0.044234
Si Si4 0.811123 0.700330 0.875152
Si Si5 0.887919 0.804602 0.821387
Si Si6 0.500000 0.858318 0.250000
Si Si7 0.000000 0.612804 0.250000
Si Si8 0.718465 0.160728 0.017738
O O1 0.289497 0.478858 0.603822
O O2 0.058334 0.421540 0.682685
O O3 0.136818 0.387796 0.554960
O O4 0.882115 0.464476 0.533623
O O5 0.420223 0.572993 0.591496
O O6 0.407462 0.668166 0.630133
O O7 0.779243 0.612388 0.696541
O O8 0.656110 0.641014 0.544395
O O9 0.000000 0.000000 0.000000
O O10 0.761016 0.756912 0.843134
O O11 0.925888 0.675385 0.813644
O O12 0.002340 0.693922 0.966018
O O13 0.714564 0.851110 0.794423
O O14 0.000000 0.795474 0.750000
O O15 0.097459 0.813312 0.905131
#
# Coordination Sequence:
#
# PCOD9297449 Si02
#       8
#     8   8   8   8   8   4   4   8
#     4  11  24  45  73 107 138 186 237 293 354 423
#     4  11  23  43  73 100 139 184 228 300 347 421
#     4  11  23  45  78  99 136 187 239 286 359 423
#     4  11  24  44  71 102 141 182 237 287 351 417
#     4  12  26  44  72 103 143 191 231 287 351 428
#     4  10  24  40  67  98 144 176 229 288 352 402
#     4  12  28  44  73 104 152 184 233 296 358 416
#     4  11  23  44  71 101 143 181 239 287 347 418
#
# _framework density 20.671648999999999
#
# number of rings (size 3 to 8) (size 9 to 14) (size 15 to 20)
#    0.000    0.857    5.000    1.714    2.000    0.571 
#    0.000    4.286    0.000    0.000    0.000    0.000 
#    0.000    0.000    0.000    0.000    0.000    0.000 
#
# Total GULP energy -156528.457618 kJ/mol
# GULP energy per Si atom -5590.302058 kJ/mol
# Density = 2.062460 g / cm^3
# Si number density = 20.671649 Si / 1000 Ang^3
#
#
#
# Elastic Constant Matrix: (Units=GPa)
#
#
# Indices 1 2 3 4 5 6 
#
# 1 105.9629 51.1178 57.0681 0.0000 -12.4393 0.0000
# 2 51.1178 115.0441 52.6217 0.0000 -22.0107 0.0000
# 3 57.0681 52.6217 129.6178 0.0000 -7.1893 0.0000
# 4 0.0000 0.0000 0.0000 23.1406 0.0000 -9.8939
# 5 -12.4393 -22.0107 -7.1893 0.0000 36.8176 0.0000
# 6 0.0000 0.0000 0.0000 -9.8939 0.0000 33.1514
#
#
#
# Elastic Compliance Matrix: (Units=1/GPa)
#
#
# Indices 1 2 3 4 5 6 
#
# 1 0.013869 -0.003827 -0.004468 0.000000 0.001525 0.000000
# 2 -0.003827 0.013007 -0.003272 0.000000 0.005844 0.000000
# 3 -0.004468 -0.003272 0.010937 0.000000 -0.001330 0.000000
# 4 0.000000 0.000000 0.000000 0.049535 0.000000 0.014783
# 5 0.001525 0.005844 -0.001330 0.000000 0.030911 0.000000
# 6 0.000000 0.000000 0.000000 0.014783 0.000000 0.034577
#
#
# Mechanical properties :
#
#
# Convention : Reuss Voigt Hill
#
# Bulk Modulus (GPa) = 68.12034 74.69335 71.40684
# Shear Modulus (GPa) = 27.64558 31.27639 29.46099
#
# Velocity S-wave (km/s) = 3.66097 3.89396 3.77926
# Velocity P-wave (km/s) = 7.13410 7.51192 7.32544
#
# Compressibility (1/GPa) = 0.01467990
#
# Stress axis : x y z
#
# Youngs Moduli (GPa) = 72.10470 76.87970 91.43644
#
# Poissons Ratio (x) = 0.29420 0.40853
# Poissons Ratio (y) = 0.27593 0.29915
# Poissons Ratio (z) = 0.32216 0.25152
#
# Static dielectric constant tensor:
#      x y z
#    x 1.773290 0.000000 0.035500 
#    y 0.000000 1.803370 0.000000 
#    z 0.035500 0.000000 1.734570 
# 
# From -- ./inp_files/186245.got.cif
#   From: 2010.05.17/outbox.cif.g08.bks.cpg/sg15_94_cif.got.tgz:186245.got - 2010.06.03 18:47:42.
