data_PCOD9297939
_publ_section_title
;
Structure prediction by ZEFSAII (Michael W. Deem and Ramdas Pophale) SiO2 
 PCOD9297939
Probable space group: C 2/C
;
_chemical_formula_sum "Si O2"
_cell_formula_units_Z 60
_cell_length_a 16.828513
_cell_length_b 22.069529
_cell_length_c 8.526223
_cell_angle_alpha 90.000000
_cell_angle_beta 54.350947
_cell_angle_gamma 90.000000
_cell_volume 2573.199318
_symmetry_space_group_name_H-M "C 2/C"
_symmetry_group_IT_number 15
_symmetry_cell_setting 'monoclinic'
loop_
_space_group_symop_operation_xyz
x,y,z
-x,y,1/2-z
-x,-y,-z
x,-y,1/2+z
1/2+x,1/2+y,z
1/2-x,1/2+y,1/2-z
1/2-x,1/2-y,-z
1/2+x,1/2-y,1/2+z
loop_
_atom_site_type_symbol
_atom_site_label
_atom_site_fract_x
_atom_site_fract_y
_atom_site_fract_z
Si Si1 0.777061 0.209793 0.259173
Si Si2 0.086301 0.681080 0.960668
Si Si3 0.672924 0.071401 0.736973
Si Si4 0.106087 0.201675 0.079495
Si Si5 0.879103 0.644085 0.236039
Si Si6 0.093622 0.466894 0.027745
Si Si7 0.608972 0.577578 0.903371
Si Si8 0.500000 0.481087 0.250000
O O1 0.854719 0.257122 0.100775
O O2 0.835274 0.177754 0.333526
O O3 0.684349 0.249591 0.426591
O O4 0.727378 0.166420 0.191107
O O5 0.127036 0.638573 0.775637
O O6 0.111877 0.642853 0.087727
O O7 0.970298 0.688070 0.087094
O O8 0.679920 0.043774 0.555003
O O9 0.775389 0.073935 0.706044
O O10 0.604564 0.028904 0.922238
O O11 0.000000 0.227488 0.250000
O O12 0.084702 0.145672 0.988979
O O13 0.900977 0.584345 0.111328
O O14 0.000000 0.463530 0.250000
O O15 0.568680 0.560764 0.779116
O O16 0.562285 0.526561 0.069758
#
# Coordination Sequence:
#
# PCOD9297939 Si02
#       8
#     8   8   8   8   8   8   8   4
#     4  11  24  44  70  98 132 189 232 288 347 414
#     4  11  24  44  67  98 140 179 227 288 340 417
#     4  12  24  42  68  99 137 178 225 283 347 419
#     4  11  23  42  70 100 136 175 237 291 346 411
#     4  11  25  43  68  99 138 177 228 287 347 411
#     4  12  25  41  69 102 139 179 225 280 352 422
#     4  11  22  45  65 101 135 178 230 290 339 424
#     4  10  24  42  72  94 138 180 226 282 358 398
#
# _framework density 23.317274999999999
#
# number of rings (size 3 to 8) (size 9 to 14) (size 15 to 20)
#    0.000    0.800    3.333    4.000    3.733    0.533 
#    2.400    1.333    0.000    0.000    0.000    0.000 
#    0.000    0.000    0.000    0.000    0.000    0.000 
#
# Total GULP energy -167838.287599 kJ/mol
# GULP energy per Si atom -5594.609587 kJ/mol
# Density = 2.326420 g / cm^3
# Si number density = 23.317275 Si / 1000 Ang^3
#
#
#
# Elastic Constant Matrix: (Units=GPa)
#
#
# Indices 1 2 3 4 5 6 
#
# 1 115.1790 3.9366 8.7315 0.0000 0.6885 0.0000
# 2 3.9366 54.6959 16.9199 0.0000 -6.3092 0.0000
# 3 8.7315 16.9199 46.6167 0.0000 1.2067 0.0000
# 4 0.0000 0.0000 0.0000 28.8509 0.0000 -0.1443
# 5 0.6885 -6.3092 1.2067 0.0000 46.7150 0.0000
# 6 0.0000 0.0000 0.0000 -0.1443 0.0000 41.3942
#
#
#
# Elastic Compliance Matrix: (Units=1/GPa)
#
#
# Indices 1 2 3 4 5 6 
#
# 1 0.008809 -0.000154 -0.001591 0.000000 -0.000110 0.000000
# 2 -0.000154 0.021020 -0.007679 0.000000 0.003040 0.000000
# 3 -0.001591 -0.007679 0.024579 0.000000 -0.001649 0.000000
# 4 0.000000 0.000000 0.000000 0.034662 0.000000 0.000121
# 5 -0.000110 0.003040 -0.001649 0.000000 0.021861 0.000000
# 6 0.000000 0.000000 0.000000 0.000121 0.000000 0.024158
#
#
# Mechanical properties :
#
#
# Convention : Reuss Voigt Hill
#
# Bulk Modulus (GPa) = 28.12228 30.62973 29.37600
# Shear Modulus (GPa) = 30.15834 35.85225 33.00530
#
# Velocity S-wave (km/s) = 3.60028 3.92546 3.76638
# Velocity P-wave (km/s) = 5.41937 5.80605 5.61604
#
# Compressibility (1/GPa) = 0.03555900
#
# Stress axis : x y z
#
# Youngs Moduli (GPa) = 113.52435 47.57343 40.68441
#
# Poissons Ratio (x) = 0.00735 0.06473
# Poissons Ratio (y) = 0.01754 0.31242
# Poissons Ratio (z) = 0.18062 0.36532
#
# Static dielectric constant tensor:
#      x y z
#    x 1.893800 0.000000 0.013740 
#    y 0.000000 1.870360 0.000000 
#    z 0.013740 0.000000 1.905200 
# 
# From -- ./inp_files/50630.got.cif
#   From: 2010.05.17/outbox.cif.g08.bks.cpg/sg15_26_cif.got.tgz:50630.got - 2010.06.03 18:47:42.
