data_PCOD9297428
_publ_section_title
;
Structure prediction by ZEFSAII (Michael W. Deem and Ramdas Pophale) SiO2 
 PCOD9297428
Probable space group: C 2/C
;
_chemical_formula_sum "Si O2"
_cell_formula_units_Z 36
_cell_length_a 22.152825
_cell_length_b 10.498454
_cell_length_c 8.435992
_cell_angle_alpha 90.000000
_cell_angle_beta 56.951526
_cell_angle_gamma 90.000000
_cell_volume 1644.535289
_symmetry_space_group_name_H-M "C 2/C"
_symmetry_group_IT_number 15
_symmetry_cell_setting 'monoclinic'
loop_
_space_group_symop_operation_xyz
x,y,z
-x,y,1/2-z
-x,-y,-z
x,-y,1/2+z
1/2+x,1/2+y,z
1/2-x,1/2+y,1/2-z
1/2-x,1/2-y,-z
1/2+x,1/2-y,1/2+z
loop_
_atom_site_type_symbol
_atom_site_label
_atom_site_fract_x
_atom_site_fract_y
_atom_site_fract_z
Si Si1 0.199619 0.407216 0.216394
Si Si2 0.302107 0.825622 0.648627
Si Si3 0.057471 0.821776 0.443796
Si Si4 0.962649 0.619889 0.473465
Si Si5 0.000000 0.969229 0.250000
O O1 0.250157 0.296996 0.214778
O O2 0.224542 0.552564 0.211965
O O3 0.121972 0.397758 0.410841
O O4 0.190358 0.376619 0.042970
O O5 0.377188 0.771237 0.610039
O O6 0.983798 0.740318 0.551015
O O7 0.048811 0.939443 0.573094
O O8 0.054528 0.884538 0.274731
O O9 0.000000 0.633786 0.250000
O O10 0.000000 0.500000 0.500000
#
# Coordination Sequence:
#
# PCOD9297428 Si02
#       5
#     8   8   8   8   4
#     4  11  26  46  69 109 140 188 238 294 353 428
#     4  11  26  46  71 103 144 187 235 294 360 419
#     4  11  23  43  67 100 135 185 227 292 349 422
#     4  12  24  42  71 102 135 180 241 286 338 412
#     4  10  24  40  66 100 140 176 232 286 358 418
#
# _framework density 21.890682999999999
#
# number of rings (size 3 to 8) (size 9 to 14) (size 15 to 20)
#    0.000    0.889    3.333    2.667    1.556    8.000 
#    0.000    0.000    0.000    0.000    0.000    0.000 
#    0.000    0.000    0.000    0.000    0.000    0.000 
#
# Total GULP energy -100646.036679 kJ/mol
# GULP energy per Si atom -5591.446482 kJ/mol
# Density = 2.184086 g / cm^3
# Si number density = 21.890683 Si / 1000 Ang^3
#
#
#
# Elastic Constant Matrix: (Units=GPa)
#
#
# Indices 1 2 3 4 5 6 
#
# 1 104.2075 71.4040 31.1737 0.0000 11.4301 0.0000
# 2 71.4040 175.0722 31.9173 0.0000 20.2618 0.0000
# 3 31.1737 31.9173 57.3703 0.0000 10.5893 0.0000
# 4 0.0000 0.0000 0.0000 37.4993 0.0000 3.4451
# 5 11.4301 20.2618 10.5893 0.0000 28.3462 0.0000
# 6 0.0000 0.0000 0.0000 3.4451 0.0000 39.8712
#
#
#
# Elastic Compliance Matrix: (Units=1/GPa)
#
#
# Indices 1 2 3 4 5 6 
#
# 1 0.014563 -0.004965 -0.005072 0.000000 -0.000428 0.000000
# 2 -0.004965 0.008382 -0.001320 0.000000 -0.003496 0.000000
# 3 -0.005072 -0.001320 0.021878 0.000000 -0.005184 0.000000
# 4 0.000000 0.000000 0.000000 0.026881 0.000000 -0.002323
# 5 -0.000428 -0.003496 -0.005184 0.000000 0.039887 0.000000
# 6 0.000000 0.000000 0.000000 -0.002323 0.000000 0.025281
#
#
# Mechanical properties :
#
#
# Convention : Reuss Voigt Hill
#
# Bulk Modulus (GPa) = 45.23066 67.29334 56.26200
# Shear Modulus (GPa) = 29.94825 34.62036 32.28430
#
# Velocity S-wave (km/s) = 3.70277 3.98114 3.84447
# Velocity P-wave (km/s) = 6.24401 7.20694 6.74268
#
# Compressibility (1/GPa) = 0.02210890
#
# Stress axis : x y z
#
# Youngs Moduli (GPa) = 68.66886 119.29834 45.70871
#
# Poissons Ratio (x) = 0.59235 0.23181
# Poissons Ratio (y) = 0.34096 0.06034
# Poissons Ratio (z) = 0.34826 0.15748
#
# Static dielectric constant tensor:
#      x y z
#    x 1.840550 0.000000 0.037280 
#    y 0.000000 1.831070 0.000000 
#    z 0.037280 0.000000 1.836690 
# 
# From -- ./inp_files/45884.got.cif
#   From: 2010.05.17/outbox.cif.g08.bks.cpg/sg15_23_cif.got.tgz:45884.got - 2010.06.03 18:47:42.
