data_PCOD9297619
_publ_section_title
;
Structure prediction by ZEFSAII (Michael W. Deem and Ramdas Pophale) SiO2 
 PCOD9297619
Probable space group: C 2/C
;
_chemical_formula_sum "Si O2"
_cell_formula_units_Z 52
_cell_length_a 5.224020
_cell_length_b 17.599373
_cell_length_c 25.201285
_cell_angle_alpha 90.000000
_cell_angle_beta 79.543692
_cell_angle_gamma 90.000000
_cell_volume 2278.516013
_symmetry_space_group_name_H-M "C 2/C"
_symmetry_group_IT_number 15
_symmetry_cell_setting 'monoclinic'
loop_
_space_group_symop_operation_xyz
x,y,z
-x,y,1/2-z
-x,-y,-z
x,-y,1/2+z
1/2+x,1/2+y,z
1/2-x,1/2+y,1/2-z
1/2-x,1/2-y,-z
1/2+x,1/2-y,1/2+z
loop_
_atom_site_type_symbol
_atom_site_label
_atom_site_fract_x
_atom_site_fract_y
_atom_site_fract_z
Si Si1 0.408133 0.246326 0.660815
Si Si2 0.500000 0.644000 0.250000
Si Si3 0.520673 0.370358 0.073588
Si Si4 0.000000 0.810538 0.250000
Si Si5 0.309427 0.096032 0.820444
Si Si6 0.072242 0.413847 0.008379
Si Si7 0.233002 0.718557 0.440565
Si Si8 0.000000 0.539910 0.250000
O O1 0.548583 0.300517 0.698360
O O2 0.510037 0.159476 0.658924
O O3 0.495003 0.278975 0.601046
O O4 0.125265 0.239104 0.698242
O O5 0.748386 0.591284 0.250428
O O6 0.436605 0.410915 0.131053
O O7 0.327567 0.404478 0.035723
O O8 0.450588 0.280746 0.080639
O O9 0.818278 0.379530 0.046627
O O10 0.208598 0.864954 0.270145
O O11 0.440987 0.016845 0.801344
O O12 0.123932 0.365433 0.953062
O O13 0.000000 0.500000 0.000000
O O14 0.250000 0.750000 0.500000
#
# Coordination Sequence:
#
# PCOD9297619 Si02
#       8
#     8   4   8   4   8   8   8   4
#     4  11  23  44  67 100 134 184 228 290 340 419
#     4  12  26  44  63 101 142 180 220 280 356 420
#     4  10  24  41  69  96 130 175 233 284 337 403
#     4  12  20  40  76  94 138 168 248 276 356 396
#     4  11  24  41  69  96 132 181 234 290 341 410
#     4  11  23  44  66  97 139 179 225 278 347 416
#     4   9  22  43  68  99 131 172 231 282 336 398
#     4  12  26  42  63  99 142 174 228 278 344 422
#
# _framework density 22.821871999999999
#
# number of rings (size 3 to 8) (size 9 to 14) (size 15 to 20)
#    0.000    1.231    3.077    1.846    6.462    2.462 
#    2.769    0.000    0.000    0.000    0.000    0.000 
#    0.000    0.000    0.000    0.000    0.000    0.000 
#
# Total GULP energy -145353.459567 kJ/mol
# GULP energy per Si atom -5590.517676 kJ/mol
# Density = 2.276993 g / cm^3
# Si number density = 22.821872 Si / 1000 Ang^3
#
#
#
# Elastic Constant Matrix: (Units=GPa)
#
#
# Indices 1 2 3 4 5 6 
#
# 1 112.7009 37.8141 32.3967 0.0000 -20.4690 0.0000
# 2 37.8141 131.8823 19.1973 0.0000 -0.0982 0.0000
# 3 32.3967 19.1973 128.6721 0.0000 -24.6945 0.0000
# 4 0.0000 0.0000 0.0000 15.1547 0.0000 -4.7884
# 5 -20.4690 -0.0982 -24.6945 0.0000 33.7953 0.0000
# 6 0.0000 0.0000 0.0000 -4.7884 0.0000 36.3704
#
#
#
# Elastic Compliance Matrix: (Units=1/GPa)
#
#
# Indices 1 2 3 4 5 6 
#
# 1 0.011342 -0.003064 -0.001258 0.000000 0.005941 0.000000
# 2 -0.003064 0.008606 -0.001005 0.000000 -0.002565 0.000000
# 3 -0.001258 -0.001005 0.009411 0.000000 0.006112 0.000000
# 4 0.000000 0.000000 0.000000 0.068850 0.000000 0.009065
# 5 0.005941 -0.002565 0.006112 0.000000 0.037647 0.000000
# 6 0.000000 0.000000 0.000000 0.009065 0.000000 0.028688
#
#
# Mechanical properties :
#
#
# Convention : Reuss Voigt Hill
#
# Bulk Modulus (GPa) = 53.46387 61.34129 57.40258
# Shear Modulus (GPa) = 27.55827 35.98724 31.77275
#
# Velocity S-wave (km/s) = 3.47873 3.97530 3.73528
# Velocity P-wave (km/s) = 6.29388 6.92873 6.61892
#
# Compressibility (1/GPa) = 0.01870422
#
# Stress axis : x y z
#
# Youngs Moduli (GPa) = 88.16782 116.20451 106.25446
#
# Poissons Ratio (x) = 0.35611 0.13369
# Poissons Ratio (y) = 0.27019 0.10675
# Poissons Ratio (z) = 0.11093 0.11674
#
# Static dielectric constant tensor:
#      x y z
#    x 1.907230 0.000000 0.005510 
#    y 0.000000 1.855000 0.000000 
#    z 0.005510 0.000000 1.890090 
# 
# From -- ./inp_files/285816.got.cif
#   From: 2010.05.17/outbox.cif.g08.bks.cpg/sg15_143_cif.got.tgz:285816.got - 2010.06.03 18:47:42.
