data_PCOD9297255
_publ_section_title
;
Structure prediction by ZEFSAII (Michael W. Deem and Ramdas Pophale) SiO2 
 PCOD9297255
Probable space group: C 2/C
;
_chemical_formula_sum "Si O2"
_cell_formula_units_Z 44
_cell_length_a 15.589054
_cell_length_b 29.038911
_cell_length_c 15.290936
_cell_angle_alpha 90.000000
_cell_angle_beta 161.358390
_cell_angle_gamma 90.000000
_cell_volume 2212.613220
_symmetry_space_group_name_H-M "C 2/C"
_symmetry_group_IT_number 15
_symmetry_cell_setting 'monoclinic'
loop_
_space_group_symop_operation_xyz
x,y,z
-x,y,1/2-z
-x,-y,-z
x,-y,1/2+z
1/2+x,1/2+y,z
1/2-x,1/2+y,1/2-z
1/2-x,1/2-y,-z
1/2+x,1/2-y,1/2+z
loop_
_atom_site_type_symbol
_atom_site_label
_atom_site_fract_x
_atom_site_fract_y
_atom_site_fract_z
Si Si1 0.116316 0.122988 0.108778
Si Si2 0.852572 0.405921 0.462496
Si Si3 0.929350 0.507391 0.533540
Si Si4 0.278400 0.718751 0.374344
Si Si5 0.079691 0.066245 0.426419
Si Si6 0.500000 0.167128 0.250000
O O1 0.420160 0.105296 0.390717
O O2 0.128025 0.176698 0.096082
O O3 0.982761 0.109332 0.071066
O O4 0.936062 0.097131 0.861705
O O5 0.918284 0.456219 0.562764
O O6 0.876977 0.366109 0.557696
O O7 0.633266 0.527720 0.250414
O O8 0.000000 0.500000 0.500000
O O9 0.132945 0.542676 0.777339
O O10 0.491620 0.759419 0.575278
O O11 0.225378 0.697397 0.419384
O O12 0.000000 0.077001 0.250000
#
# Coordination Sequence:
#
# PCOD9297255 Si02
#       6
#     8   8   8   8   8   4
#     4  11  22  42  60  85 118 162 200 254 316 366
#     4  11  23  37  58  86 124 167 204 241 302 362
#     4  12  22  41  62  87 125 170 213 256 303 362
#     4  11  23  40  64  89 120 159 207 255 317 389
#     4  12  25  40  63  92 123 166 216 262 312 360
#     4  10  24  38  58  92 132 162 198 258 306 376
#
# _framework density 19.885988000000001
#
# number of rings (size 3 to 8) (size 9 to 14) (size 15 to 20)
#    0.000    0.727    3.636    4.909    2.545    5.818 
#    0.000    0.000    0.000    1.091    0.000    0.000 
#    0.000    0.000    0.000    0.000    0.000    0.000 
#
# Total GULP energy -123007.671325 kJ/mol
# GULP energy per Si atom -5591.257787 kJ/mol
# Density = 1.984073 g / cm^3
# Si number density = 19.885988 Si / 1000 Ang^3
#
#
#
# Elastic Constant Matrix: (Units=GPa)
#
#
# Indices 1 2 3 4 5 6 
#
# 1 75.2308 34.1515 -1.6498 -0.0021 -17.0993 -0.0002
# 2 34.1515 101.4250 1.3562 -0.0019 0.0069 0.0000
# 3 -1.6498 1.3562 65.4219 0.0054 0.6981 0.0064
# 4 -0.0021 -0.0019 0.0054 28.1831 0.0033 7.9106
# 5 -17.0993 0.0069 0.6981 0.0033 25.7280 0.0013
# 6 -0.0002 0.0000 0.0064 7.9106 0.0013 32.3832
#
#
#
# Elastic Compliance Matrix: (Units=1/GPa)
#
#
# Indices 1 2 3 4 5 6 
#
# 1 0.019112 -0.006443 0.000480 0.000000 0.012691 0.000000
# 2 -0.006443 0.012034 -0.000366 0.000001 -0.004275 0.000000
# 3 0.000480 -0.000366 0.015306 -0.000002 -0.000096 -0.000002
# 4 0.000000 0.000001 -0.000002 0.038094 -0.000005 -0.009306
# 5 0.012691 -0.004275 -0.000096 -0.000005 0.047307 -0.000001
# 6 0.000000 0.000000 -0.000002 -0.009306 -0.000001 0.033153
#
#
# Mechanical properties :
#
#
# Convention : Reuss Voigt Hill
#
# Bulk Modulus (GPa) = 29.59051 34.42151 32.00601
# Shear Modulus (GPa) = 26.46489 31.14017 28.80253
#
# Velocity S-wave (km/s) = 3.65201 3.96148 3.80989
# Velocity P-wave (km/s) = 5.71798 6.18639 5.95679
#
# Compressibility (1/GPa) = 0.03379462
#
# Stress axis : x y z
#
# Youngs Moduli (GPa) = 52.32244 83.09749 65.33331
#
# Poissons Ratio (x) = 0.53537 -0.03137
# Poissons Ratio (y) = 0.33710 0.02393
# Poissons Ratio (z) = -0.02512 0.03044
#
# Static dielectric constant tensor:
#      x y z
#    x 1.743070 0.000000 -0.010600 
#    y 0.000000 1.725900 0.000010 
#    z -0.010600 0.000010 1.688080 
# 
# From -- ./inp_files/157561.got.cif
#   From: 2010.05.17/outbox.cif.g08.bks.cpg/sg15_79_cif.got.tgz:157561.got - 2010.06.03 18:47:42.
