data_PCOD9297813
_publ_section_title
;
Structure prediction by ZEFSAII (Michael W. Deem and Ramdas Pophale) SiO2 
 PCOD9297813
Probable space group: C 2/C
;
_chemical_formula_sum "Si O2"
_cell_formula_units_Z 44
_cell_length_a 31.292639
_cell_length_b 10.351474
_cell_length_c 5.148174
_cell_angle_alpha 90.000000
_cell_angle_beta 74.892897
_cell_angle_gamma 90.000000
_cell_volume 1609.989482
_symmetry_space_group_name_H-M "C 2/C"
_symmetry_group_IT_number 15
_symmetry_cell_setting 'monoclinic'
loop_
_space_group_symop_operation_xyz
x,y,z
-x,y,1/2-z
-x,-y,-z
x,-y,1/2+z
1/2+x,1/2+y,z
1/2-x,1/2+y,1/2-z
1/2-x,1/2-y,-z
1/2+x,1/2-y,1/2+z
loop_
_atom_site_type_symbol
_atom_site_label
_atom_site_fract_x
_atom_site_fract_y
_atom_site_fract_z
Si Si1 0.500000 0.203564 0.750000
Si Si2 0.645474 0.319928 0.443658
Si Si3 0.946306 0.919464 0.122183
Si Si4 0.591147 0.922602 0.251623
Si Si5 0.204231 0.837293 0.840381
Si Si6 0.715395 0.956935 0.272177
O O1 0.524867 0.297217 0.506779
O O2 0.460093 0.121799 0.694097
O O3 0.604648 0.389437 0.365895
O O4 0.622147 0.193482 0.602291
O O5 0.670801 0.374843 0.659443
O O6 0.681011 0.313953 0.154713
O O7 0.954295 0.965074 0.402174
O O8 0.597335 0.959657 0.540910
O O9 0.223379 0.694457 0.746819
O O10 0.242429 0.945307 0.793297
O O11 0.689363 0.994085 0.567686
#
# Coordination Sequence:
#
# PCOD9297813 Si02
#       6
#     4   8   8   8   8   8
#     4  10  24  42  68 102 144 182 228 278 336 410
#     4  11  26  44  70 100 136 181 230 287 350 413
#     4  11  24  43  68 102 138 183 230 279 341 408
#     4  11  24  43  68 102 138 183 230 279 341 408
#     4  12  26  47  72 102 138 181 234 298 358 425
#     4  12  26  46  70 100 134 176 230 288 362 430
#
# _framework density 27.329373
#
# number of rings (size 3 to 8) (size 9 to 14) (size 15 to 20)
#    0.000    0.727    0.000    6.545    0.000   14.545 
#    0.000    0.000    0.000    0.000    0.000    0.000 
#    0.000    0.000    0.000    0.000    0.000    0.000 
#
# Total GULP energy -123474.373529 kJ/mol
# GULP energy per Si atom -5612.471524 kJ/mol
# Density = 2.726717 g / cm^3
# Si number density = 27.329373 Si / 1000 Ang^3
#
#
#
# Elastic Constant Matrix: (Units=GPa)
#
#
# Indices 1 2 3 4 5 6 
#
# 1 172.5966 49.2527 36.9164 0.0000 10.6434 0.0000
# 2 49.2527 114.5544 10.1378 0.0000 -20.3464 0.0000
# 3 36.9164 10.1378 143.3797 0.0000 7.7218 0.0000
# 4 0.0000 0.0000 0.0000 24.9821 0.0000 0.0825
# 5 10.6434 -20.3464 7.7218 0.0000 23.8030 0.0000
# 6 0.0000 0.0000 0.0000 0.0825 0.0000 65.9286
#
#
#
# Elastic Compliance Matrix: (Units=1/GPa)
#
#
# Indices 1 2 3 4 5 6 
#
# 1 0.007763 -0.004435 -0.001317 0.000000 -0.006835 0.000000
# 2 -0.004435 0.013041 -0.000496 0.000000 0.013291 0.000000
# 3 -0.001317 -0.000496 0.007470 0.000000 -0.002258 0.000000
# 4 0.000000 0.000000 0.000000 0.040029 0.000000 -0.000050
# 5 -0.006835 0.013291 -0.002258 0.000000 0.057161 0.000000
# 6 0.000000 0.000000 0.000000 -0.000050 0.000000 0.015168
#
#
# Mechanical properties :
#
#
# Convention : Reuss Voigt Hill
#
# Bulk Modulus (GPa) = 63.37976 69.23829 66.30902
# Shear Modulus (GPa) = 31.56826 45.22432 38.39629
#
# Velocity S-wave (km/s) = 3.40237 4.07232 3.75233
# Velocity P-wave (km/s) = 6.21902 6.89213 6.56421
#
# Compressibility (1/GPa) = 0.01577791
#
# Stress axis : x y z
#
# Youngs Moduli (GPa) = 128.82329 76.68221 133.86373
#
# Poissons Ratio (x) = 0.34008 0.17630
# Poissons Ratio (y) = 0.57132 0.06640
# Poissons Ratio (z) = 0.16966 0.03803
#
# Static dielectric constant tensor:
#      x y z
#    x 2.162500 0.000000 0.025680 
#    y 0.000000 2.121140 0.000000 
#    z 0.025680 0.000000 2.210130 
# 
# From -- ./inp_files/18033.got.cif
#   From: 2010.05.17/outbox.cif.g08.bks.cpg/sg15_10_cif.got.tgz:18033.got - 2010.06.03 18:47:42.
