data_PCOD9297147
_publ_section_title
;
Structure prediction by ZEFSAII (Michael W. Deem and Ramdas Pophale) SiO2 
 PCOD9297147
Probable space group: C 2/C
;
_chemical_formula_sum "Si O2"
_cell_formula_units_Z 44
_cell_length_a 5.525610
_cell_length_b 23.024742
_cell_length_c 12.694015
_cell_angle_alpha 90.000000
_cell_angle_beta 77.450948
_cell_angle_gamma 90.000000
_cell_volume 1576.423597
_symmetry_space_group_name_H-M "C 2/C"
_symmetry_group_IT_number 15
_symmetry_cell_setting 'monoclinic'
loop_
_space_group_symop_operation_xyz
x,y,z
-x,y,1/2-z
-x,-y,-z
x,-y,1/2+z
1/2+x,1/2+y,z
1/2-x,1/2+y,1/2-z
1/2-x,1/2-y,-z
1/2+x,1/2-y,1/2+z
loop_
_atom_site_type_symbol
_atom_site_label
_atom_site_fract_x
_atom_site_fract_y
_atom_site_fract_z
Si Si1 0.176666 0.728250 0.629512
Si Si2 0.000000 0.544107 0.750000
Si Si3 0.405881 0.660166 0.072718
Si Si4 0.420975 0.878884 0.074964
Si Si5 0.953873 0.027691 0.128888
Si Si6 0.000000 0.500000 0.500000
Si Si7 0.000000 0.710285 0.250000
O O1 0.141027 0.664144 0.587221
O O2 0.427086 0.750176 0.658659
O O3 0.000000 0.725821 0.750000
O O4 0.072239 0.781753 0.569782
O O5 0.847119 0.587141 0.689086
O O6 0.173482 0.504899 0.655267
O O7 0.471256 0.593257 0.086923
O O8 0.216784 0.670286 0.187765
O O9 0.273304 0.658274 0.971786
O O10 0.515603 0.929497 0.990345
O O11 0.811685 0.006032 0.942209
O O12 0.000000 0.028403 0.250000
#
# Coordination Sequence:
#
# PCOD9297147 Si02
#       7
#     8   4   8   8   8   4   4
#     4  10  23  50  79 120 166 219 278 355 439 512
#     4  12  27  54  84 116 170 237 284 362 430 512
#     4  11  26  45  85 118 167 221 283 362 430 518
#     4  12  26  51  79 122 169 221 291 355 428 523
#     4  12  27  56  83 118 176 223 296 361 436 523
#     4  12  30  54  80 130 164 234 290 354 444 524
#     4  10  23  48  78 130 162 221 284 350 448 514
#
# _framework density 27.911279
#
# number of rings (size 3 to 8) (size 9 to 14) (size 15 to 20)
#    0.000    0.727    2.727    3.818    5.091    3.636 
#   14.727    0.000    0.000    0.000    0.000    0.000 
#    0.000    0.000    0.000    0.000    0.000    0.000 
#
# Total GULP energy -122761.603426 kJ/mol
# GULP energy per Si atom -5580.072883 kJ/mol
# Density = 2.784775 g / cm^3
# Si number density = 27.911279 Si / 1000 Ang^3
#
#
#
# Elastic Constant Matrix: (Units=GPa)
#
#
# Indices 1 2 3 4 5 6 
#
# 1 129.5879 76.6334 19.2162 0.0000 -4.8198 0.0000
# 2 76.6334 230.4039 64.6068 0.0000 9.0496 0.0000
# 3 19.2162 64.6068 109.0496 0.0000 2.1538 0.0000
# 4 0.0000 0.0000 0.0000 28.9355 0.0000 -16.7578
# 5 -4.8198 9.0496 2.1538 0.0000 54.3095 0.0000
# 6 0.0000 0.0000 0.0000 -16.7578 0.0000 53.5718
#
#
#
# Elastic Compliance Matrix: (Units=1/GPa)
#
#
# Indices 1 2 3 4 5 6 
#
# 1 0.009718 -0.003357 0.000249 0.000000 0.001412 0.000000
# 2 -0.003357 0.006395 -0.003173 0.000000 -0.001238 0.000000
# 3 0.000249 -0.003173 0.011004 0.000000 0.000114 0.000000
# 4 0.000000 0.000000 0.000000 0.042206 0.000000 0.013202
# 5 0.001412 -0.001238 0.000114 0.000000 0.018740 0.000000
# 6 0.000000 0.000000 0.000000 0.013202 0.000000 0.022796
#
#
# Mechanical properties :
#
#
# Convention : Reuss Voigt Hill
#
# Bulk Modulus (GPa) = 68.70967 87.77267 78.24117
# Shear Modulus (GPa) = 38.97938 47.93570 43.45754
#
# Velocity S-wave (km/s) = 3.74109 4.14869 3.95015
# Velocity P-wave (km/s) = 6.58268 7.37998 6.99270
#
# Compressibility (1/GPa) = 0.01455399
#
# Stress axis : x y z
#
# Youngs Moduli (GPa) = 102.90343 156.36774 90.87804
#
# Poissons Ratio (x) = 0.52499 -0.02261
# Poissons Ratio (y) = 0.34549 0.28834
# Poissons Ratio (z) = -0.02560 0.49612
#
# Static dielectric constant tensor:
#      x y z
#    x 2.434270 0.000000 0.084160 
#    y 0.000000 1.959570 0.000000 
#    z 0.084160 0.000000 2.560720 
# 
# From -- ./inp_files/129522.got.cif
#   From: 2010.05.17/outbox.cif.g08.bks.cpg/sg15_65_cif.got.tgz:129522.got - 2010.06.03 18:47:42.
