data_PCOD9297976
_publ_section_title
;
Structure prediction by ZEFSAII (Michael W. Deem and Ramdas Pophale) SiO2 
 PCOD9297976
Probable space group: C 2/C
;
_chemical_formula_sum "Si O2"
_cell_formula_units_Z 48
_cell_length_a 13.915083
_cell_length_b 24.176916
_cell_length_c 7.046191
_cell_angle_alpha 90.000000
_cell_angle_beta 46.151412
_cell_angle_gamma 90.000000
_cell_volume 1709.545181
_symmetry_space_group_name_H-M "C 2/C"
_symmetry_group_IT_number 15
_symmetry_cell_setting 'monoclinic'
loop_
_space_group_symop_operation_xyz
x,y,z
-x,y,1/2-z
-x,-y,-z
x,-y,1/2+z
1/2+x,1/2+y,z
1/2-x,1/2+y,1/2-z
1/2-x,1/2-y,-z
1/2+x,1/2-y,1/2+z
loop_
_atom_site_type_symbol
_atom_site_label
_atom_site_fract_x
_atom_site_fract_y
_atom_site_fract_z
Si Si1 0.000000 0.379669 0.250000
Si Si2 0.658490 0.450838 0.165119
Si Si3 0.956955 0.240718 0.997322
Si Si4 0.783299 0.858769 0.725185
Si Si5 0.623569 0.090597 0.952148
Si Si6 0.294276 0.687384 0.617141
Si Si7 0.000000 0.053679 0.250000
O O1 0.080487 0.412745 0.296021
O O2 0.877707 0.350747 0.533861
O O3 0.317844 0.412065 0.551833
O O4 0.797167 0.460694 0.079873
O O5 0.610240 0.510298 0.169025
O O6 0.559448 0.425289 0.464967
O O7 0.081365 0.219847 0.957074
O O8 0.000000 0.272990 0.750000
O O9 0.869731 0.191109 0.022919
O O10 0.837623 0.275762 0.258116
O O11 0.833008 0.849510 0.878204
O O12 0.724719 0.141961 0.844740
O O13 0.500000 0.099690 0.250000
#
# Coordination Sequence:
#
# PCOD9297976 Si02
#       7
#     4   8   8   8   8   8   4
#     4  10  24  42  76 113 162 214 270 355 378 512
#     4  11  25  51  86 120 162 213 262 349 434 519
#     4  12  26  45  72 118 170 232 290 360 413 489
#     4  11  25  45  79 112 164 220 286 329 424 498
#     4  11  23  47  77 116 162 221 286 330 422 501
#     4  11  27  44  74 119 174 225 287 358 410 490
#     4  10  28  54  88 125 166 198 268 363 440 520
#
# _framework density 28.077642000000001
#
# number of rings (size 3 to 8) (size 9 to 14) (size 15 to 20)
#    0.000    1.000    1.667    3.000    8.167    5.333 
#    0.000    0.833    1.833    0.000    0.000    0.000 
#    0.000    0.000    0.000    0.000    0.000    0.000 
#
# Total GULP energy -134050.194285 kJ/mol
# GULP energy per Si atom -5585.424762 kJ/mol
# Density = 2.801374 g / cm^3
# Si number density = 28.077642 Si / 1000 Ang^3
#
#
#
# Elastic Constant Matrix: (Units=GPa)
#
#
# Indices 1 2 3 4 5 6 
#
# 1 225.8835 44.5622 67.2679 0.0000 -17.8222 0.0000
# 2 44.5622 52.9775 61.5812 0.0000 -6.8824 0.0000
# 3 67.2679 61.5812 237.5044 0.0000 0.0596 0.0000
# 4 0.0000 0.0000 0.0000 53.1672 0.0000 -3.8388
# 5 -17.8222 -6.8824 0.0596 0.0000 58.0938 0.0000
# 6 0.0000 0.0000 0.0000 -3.8388 0.0000 14.8077
#
#
#
# Elastic Compliance Matrix: (Units=1/GPa)
#
#
# Indices 1 2 3 4 5 6 
#
# 1 0.005432 -0.003753 -0.000566 0.000000 0.001223 0.000000
# 2 -0.003753 0.030224 -0.006774 0.000000 0.002436 0.000000
# 3 -0.000566 -0.006774 0.006127 0.000000 -0.000982 0.000000
# 4 0.000000 0.000000 0.000000 0.019167 0.000000 0.004969
# 5 0.001223 0.002436 -0.000982 0.000000 0.017878 0.000000
# 6 0.000000 0.000000 0.000000 0.004969 0.000000 0.068821
#
#
# Mechanical properties :
#
#
# Convention : Reuss Voigt Hill
#
# Bulk Modulus (GPa) = 51.02707 95.90979 73.46843
# Shear Modulus (GPa) = 28.34984 48.07735 38.21360
#
# Velocity S-wave (km/s) = 3.18102 4.14248 3.69317
# Velocity P-wave (km/s) = 5.63070 7.55733 6.66401
#
# Compressibility (1/GPa) = 0.01959744
#
# Stress axis : x y z
#
# Youngs Moduli (GPa) = 184.08064 33.08683 163.20162
#
# Poissons Ratio (x) = 0.12417 0.09235
# Poissons Ratio (y) = 0.69084 1.10555
# Poissons Ratio (z) = 0.10416 0.22414
#
# Static dielectric constant tensor:
#      x y z
#    x 2.284530 0.000000 0.023670 
#    y 0.000000 2.319060 0.000000 
#    z 0.023670 0.000000 2.414100 
# 
# From -- ./inp_files/43884.got.cif
#   From: 2010.05.17/outbox.cif.g08.bks.cpg/sg15_22_cif.got.tgz:43884.got - 2010.06.03 18:47:42.
