data_PCOD9297296
_publ_section_title
;
Structure prediction by ZEFSAII (Michael W. Deem and Ramdas Pophale) SiO2 
 PCOD9297296
Probable space group: C 2/C
;
_chemical_formula_sum "Si O2"
_cell_formula_units_Z 28
_cell_length_a 9.725333
_cell_length_b 23.828749
_cell_length_c 5.471118
_cell_angle_alpha 90.000000
_cell_angle_beta 71.469487
_cell_angle_gamma 90.000000
_cell_volume 1202.156291
_symmetry_space_group_name_H-M "C 2/C"
_symmetry_group_IT_number 15
_symmetry_cell_setting 'monoclinic'
loop_
_space_group_symop_operation_xyz
x,y,z
-x,y,1/2-z
-x,-y,-z
x,-y,1/2+z
1/2+x,1/2+y,z
1/2-x,1/2+y,1/2-z
1/2-x,1/2-y,-z
1/2+x,1/2-y,1/2+z
loop_
_atom_site_type_symbol
_atom_site_label
_atom_site_fract_x
_atom_site_fract_y
_atom_site_fract_z
Si Si1 0.000000 0.780637 0.750000
Si Si2 0.827059 0.023560 0.887070
Si Si3 0.545786 0.173471 0.969825
Si Si4 0.346151 0.653316 0.969330
O O1 0.030129 0.734424 0.521651
O O2 0.872978 0.820118 0.720741
O O3 0.811980 0.087405 0.984894
O O4 0.000000 0.011978 0.750000
O O5 0.768501 0.013540 0.645808
O O6 0.500000 0.146990 0.250000
O O7 0.500000 0.141921 0.750000
O O8 0.716889 0.182393 0.896362
O O9 0.500000 0.658718 0.750000
#
# Coordination Sequence:
#
# PCOD9297296 Si02
#       4
#     4   8   8   8
#     4  10  24  38  66  92 128 164 204 256 298 378
#     4   9  20  36  57  88 123 151 197 258 308 353
#     4  10  25  43  61  87 135 165 202 249 308 368
#     4  11  24  38  67  95 122 163 211 253 308 363
#
# _framework density 23.291481000000001
#
# number of rings (size 3 to 8) (size 9 to 14) (size 15 to 20)
#    0.857    1.143    0.000    1.714   14.000    2.286 
#    0.000    0.000    0.000    5.143    0.000    0.000 
#    0.000    0.000    0.000    0.000    0.000    0.000 
#
# Total GULP energy -78021.674370 kJ/mol
# GULP energy per Si atom -5572.976741 kJ/mol
# Density = 2.323847 g / cm^3
# Si number density = 23.291481 Si / 1000 Ang^3
#
#
#
# Elastic Constant Matrix: (Units=GPa)
#
#
# Indices 1 2 3 4 5 6 
#
# 1 107.5068 20.8999 54.7660 0.0000 18.6583 0.0000
# 2 20.8999 23.6506 24.2885 0.0000 6.5298 0.0000
# 3 54.7660 24.2885 165.2726 0.0000 31.4719 0.0000
# 4 0.0000 0.0000 0.0000 4.8721 0.0000 4.0038
# 5 18.6583 6.5298 31.4719 0.0000 32.6874 0.0000
# 6 0.0000 0.0000 0.0000 4.0038 0.0000 6.0209
#
#
#
# Elastic Compliance Matrix: (Units=1/GPa)
#
#
# Indices 1 2 3 4 5 6 
#
# 1 0.012613 -0.007756 -0.002405 0.000000 -0.003335 0.000000
# 2 -0.007756 0.054906 -0.005208 0.000000 -0.001527 0.000000
# 3 -0.002405 -0.005208 0.008759 0.000000 -0.006021 0.000000
# 4 0.000000 0.000000 0.000000 0.452578 0.000000 -0.300958
# 5 -0.003335 -0.001527 -0.006021 0.000000 0.038598 0.000000
# 6 0.000000 0.000000 0.000000 -0.300958 0.000000 0.366221
#
#
# Mechanical properties :
#
#
# Convention : Reuss Voigt Hill
#
# Bulk Modulus (GPa) = 21.95821 55.14875 38.55348
# Shear Modulus (GPa) = 5.10415 21.81445 13.45930
#
# Velocity S-wave (km/s) = 1.48195 3.06369 2.40649
# Velocity P-wave (km/s) = 3.51799 6.02030 4.93053
#
# Compressibility (1/GPa) = 0.04554106
#
# Stress axis : x y z
#
# Youngs Moduli (GPa) = 79.28077 18.21285 114.16385
#
# Poissons Ratio (x) = 0.14126 0.27454
# Poissons Ratio (y) = 0.61490 0.59460
# Poissons Ratio (z) = 0.19065 0.09486
#
# Static dielectric constant tensor:
#      x y z
#    x 1.911350 0.000000 0.012340 
#    y 0.000000 1.861140 0.000000 
#    z 0.012340 0.000000 2.024410 
# 
# From -- ./inp_files/2050.got.cif
#   From: 2010.05.17/outbox.cif.g08.bks.cpg/sg15_2_cif.got.tgz:2050.got - 2010.06.03 18:47:42.
