data_PCOD9297187
_publ_section_title
;
Structure prediction by ZEFSAII (Michael W. Deem and Ramdas Pophale) SiO2 
 PCOD9297187
Probable space group: C 2/C
;
_chemical_formula_sum "Si O2"
_cell_formula_units_Z 56
_cell_length_a 9.498054
_cell_length_b 11.330107
_cell_length_c 27.953634
_cell_angle_alpha 90.000000
_cell_angle_beta 57.370449
_cell_angle_gamma 90.000000
_cell_volume 2533.430297
_symmetry_space_group_name_H-M "C 2/C"
_symmetry_group_IT_number 15
_symmetry_cell_setting 'monoclinic'
loop_
_space_group_symop_operation_xyz
x,y,z
-x,y,1/2-z
-x,-y,-z
x,-y,1/2+z
1/2+x,1/2+y,z
1/2-x,1/2+y,1/2-z
1/2-x,1/2-y,-z
1/2+x,1/2-y,1/2+z
loop_
_atom_site_type_symbol
_atom_site_label
_atom_site_fract_x
_atom_site_fract_y
_atom_site_fract_z
Si Si1 0.023310 0.913779 0.566952
Si Si2 0.258204 0.970879 0.272218
Si Si3 0.500000 0.766075 0.250000
Si Si4 0.783975 0.690432 0.340818
Si Si5 0.470208 0.057358 0.143780
Si Si6 0.500000 0.378775 0.250000
Si Si7 0.777665 0.895221 0.065620
Si Si8 0.176012 0.150843 0.132633
O O1 0.147634 0.885866 0.501100
O O2 0.115296 0.930639 0.600288
O O3 0.895586 0.805540 0.601178
O O4 0.909953 0.024666 0.571325
O O5 0.336470 0.849149 0.277327
O O6 0.081250 0.949002 0.279044
O O7 0.270488 0.073762 0.309375
O O8 0.383051 0.006288 0.206849
O O9 0.530947 0.690957 0.196480
O O10 0.849792 0.797171 0.297148
O O11 0.921823 0.667082 0.356281
O O12 0.323664 0.091770 0.135259
O O13 0.604015 0.966503 0.098305
O O14 0.746256 0.769804 0.095320
#
# Coordination Sequence:
#
# PCOD9297187 Si02
#       8
#     8   8   4   8   8   4   8   8
#     4  10  24  44  74  95 133 179 225 275 329 394
#     4  12  23  42  62  96 135 175 214 273 322 405
#     4  12  21  41  68  92 140 178 209 267 354 386
#     4  11  22  45  61  96 135 171 214 272 324 395
#     4  11  23  42  66  94 134 171 222 272 330 386
#     4  12  25  37  66  92 130 174 217 265 336 382
#     4  10  23  51  68  94 135 180 222 277 334 385
#     4  12  25  41  68 103 129 177 224 276 328 401
#
# _framework density 22.104417999999999
#
# number of rings (size 3 to 8) (size 9 to 14) (size 15 to 20)
#    0.000    0.857    4.286    3.000    4.000    0.571 
#    0.000    7.857    0.000    0.000    0.000    0.000 
#    0.000    0.000    0.000    0.000    0.000    0.000 
#
# Total GULP energy -156789.414456 kJ/mol
# GULP energy per Si atom -5599.621945 kJ/mol
# Density = 2.205411 g / cm^3
# Si number density = 22.104418 Si / 1000 Ang^3
#
#
#
# Elastic Constant Matrix: (Units=GPa)
#
#
# Indices 1 2 3 4 5 6 
#
# 1 119.9920 15.6284 16.0878 0.0000 23.0111 0.0000
# 2 15.6284 57.3422 28.4144 0.0000 4.1878 0.0000
# 3 16.0878 28.4144 167.0300 0.0000 2.0572 0.0000
# 4 0.0000 0.0000 0.0000 10.8801 0.0000 2.3836
# 5 23.0111 4.1878 2.0572 0.0000 31.4673 0.0000
# 6 0.0000 0.0000 0.0000 2.3836 0.0000 26.5533
#
#
#
# Elastic Compliance Matrix: (Units=1/GPa)
#
#
# Indices 1 2 3 4 5 6 
#
# 1 0.010007 -0.001944 -0.000547 0.000000 -0.007024 0.000000
# 2 -0.001944 0.019593 -0.003134 0.000000 -0.000981 0.000000
# 3 -0.000547 -0.003134 0.006568 0.000000 0.000388 0.000000
# 4 0.000000 0.000000 0.000000 0.093755 0.000000 -0.008416
# 5 -0.007024 -0.000981 0.000388 0.000000 0.037020 0.000000
# 6 0.000000 0.000000 0.000000 -0.008416 0.000000 0.038416
#
#
# Mechanical properties :
#
#
# Convention : Reuss Voigt Hill
#
# Bulk Modulus (GPa) = 40.12788 51.62506 45.87647
# Shear Modulus (GPa) = 22.23065 32.72904 27.47985
#
# Velocity S-wave (km/s) = 3.17473 3.85210 3.52971
# Velocity P-wave (km/s) = 5.62421 6.57197 6.11647
#
# Compressibility (1/GPa) = 0.02492033
#
# Stress axis : x y z
#
# Youngs Moduli (GPa) = 99.92738 51.03749 152.25441
#
# Poissons Ratio (x) = 0.09919 0.08324
# Poissons Ratio (y) = 0.19422 0.47715
# Poissons Ratio (z) = 0.05463 0.15994
#
# Static dielectric constant tensor:
#      x y z
#    x 1.856630 0.000000 -0.018740 
#    y 0.000000 1.835090 0.000000 
#    z -0.018740 0.000000 1.789210 
# 
# From -- ./inp_files/287976.got.cif
#   From: 2010.05.17/outbox.cif.g08.bks.cpg/sg15_144_cif.got.tgz:287976.got - 2010.06.03 18:47:42.
