data_PCOD9297442
_publ_section_title
;
Structure prediction by ZEFSAII (Michael W. Deem and Ramdas Pophale) SiO2 
 PCOD9297442
Probable space group: C 2/C
;
_chemical_formula_sum "Si O2"
_cell_formula_units_Z 40
_cell_length_a 5.312135
_cell_length_b 25.720258
_cell_length_c 13.576497
_cell_angle_alpha 90.000000
_cell_angle_beta 73.421477
_cell_angle_gamma 90.000000
_cell_volume 1777.838751
_symmetry_space_group_name_H-M "C 2/C"
_symmetry_group_IT_number 15
_symmetry_cell_setting 'monoclinic'
loop_
_space_group_symop_operation_xyz
x,y,z
-x,y,1/2-z
-x,-y,-z
x,-y,1/2+z
1/2+x,1/2+y,z
1/2-x,1/2+y,1/2-z
1/2-x,1/2-y,-z
1/2+x,1/2-y,1/2+z
loop_
_atom_site_type_symbol
_atom_site_label
_atom_site_fract_x
_atom_site_fract_y
_atom_site_fract_z
Si Si1 0.126730 0.965772 0.335597
Si Si2 0.666453 0.041626 0.042444
Si Si3 0.482366 0.844876 0.869269
Si Si4 0.410018 0.696703 0.465806
Si Si5 0.284248 0.346740 0.193344
O O1 0.236013 0.909257 0.297073
O O2 0.000000 0.985870 0.250000
O O3 0.926822 0.953869 0.447204
O O4 0.298642 0.011771 0.359222
O O5 0.568365 0.099331 0.073582
O O6 0.500000 0.000000 0.000000
O O7 0.500000 0.850516 0.750000
O O8 0.753182 0.826333 0.889512
O O9 0.226352 0.807445 0.916553
O O10 0.250000 0.750000 0.500000
O O11 0.359991 0.666365 0.573712
O O12 0.500000 0.329898 0.250000
O O13 0.000000 0.323547 0.250000
#
# Coordination Sequence:
#
# PCOD9297442 Si02
#       5
#     8   8   8   8   8
#     4  10  24  40  66  99 141 183 243 279 354 418
#     4  11  25  42  67 104 147 195 235 289 351 436
#     4  12  28  48  75 107 152 193 244 300 373 438
#     4  12  27  51  75 105 140 187 244 311 368 439
#     4  11  24  43  72 103 139 182 237 301 359 423
#
# _framework density 22.499227999999999
#
# number of rings (size 3 to 8) (size 9 to 14) (size 15 to 20)
#    0.000    0.800    2.000    3.600   14.000    2.400 
#    0.000    0.000    0.000    0.000    0.000    0.000 
#    0.000    0.000    0.000    0.000    0.000    0.000 
#
# Total GULP energy -111709.272520 kJ/mol
# GULP energy per Si atom -5585.463626 kJ/mol
# Density = 2.244802 g / cm^3
# Si number density = 22.499228 Si / 1000 Ang^3
#
#
#
# Elastic Constant Matrix: (Units=GPa)
#
#
# Indices 1 2 3 4 5 6 
#
# 1 111.1455 5.3917 37.7397 0.0000 10.7984 0.0000
# 2 5.3917 65.9087 -15.1167 0.0000 21.9041 0.0000
# 3 37.7397 -15.1167 113.8193 0.0000 26.7131 0.0000
# 4 0.0000 0.0000 0.0000 37.8643 0.0000 -9.9913
# 5 10.7984 21.9041 26.7131 0.0000 52.1444 0.0000
# 6 0.0000 0.0000 0.0000 -9.9913 0.0000 32.1385
#
#
#
# Elastic Compliance Matrix: (Units=1/GPa)
#
#
# Indices 1 2 3 4 5 6 
#
# 1 0.010330 -0.001936 -0.003832 0.000000 0.000637 0.000000
# 2 -0.001936 0.020451 0.006002 0.000000 -0.011265 0.000000
# 3 -0.003832 0.006002 0.012798 0.000000 -0.008284 0.000000
# 4 0.000000 0.000000 0.000000 0.028770 0.000000 0.008944
# 5 0.000637 -0.011265 -0.008284 0.000000 0.028021 0.000000
# 6 0.000000 0.000000 0.000000 0.008944 0.000000 0.033896
#
#
# Mechanical properties :
#
#
# Convention : Reuss Voigt Hill
#
# Bulk Modulus (GPa) = 22.70263 38.54476 30.62370
# Shear Modulus (GPa) = 33.67454 41.95338 37.81396
#
# Velocity S-wave (km/s) = 3.87291 4.32285 4.10405
# Velocity P-wave (km/s) = 5.48740 6.48729 6.00818
#
# Compressibility (1/GPa) = 0.04404776
#
# Stress axis : x y z
#
# Youngs Moduli (GPa) = 96.80229 48.89725 78.13924
#
# Poissons Ratio (x) = 0.09464 0.29941
# Poissons Ratio (y) = 0.18737 -0.46897
# Poissons Ratio (z) = 0.37093 -0.29347
#
# Static dielectric constant tensor:
#      x y z
#    x 1.854930 0.000000 -0.046380 
#    y 0.000000 7.145990 0.000000 
#    z -0.046380 0.000000 1.778980 
# 
# From -- ./inp_files/73084.got.cif
#   From: 2010.05.17/outbox.cif.g08.bks.cpg/sg15_37_cif.got.tgz:73084.got - 2010.06.03 18:47:42.
