data_PCOD9297799
_publ_section_title
;
Structure prediction by ZEFSAII (Michael W. Deem and Ramdas Pophale) SiO2 
 PCOD9297799
Probable space group: C 2/C
;
_chemical_formula_sum "Si O2"
_cell_formula_units_Z 28
_cell_length_a 11.396025
_cell_length_b 23.060284
_cell_length_c 4.842922
_cell_angle_alpha 90.000000
_cell_angle_beta 73.326095
_cell_angle_gamma 90.000000
_cell_volume 1219.185656
_symmetry_space_group_name_H-M "C 2/C"
_symmetry_group_IT_number 15
_symmetry_cell_setting 'monoclinic'
loop_
_space_group_symop_operation_xyz
x,y,z
-x,y,1/2-z
-x,-y,-z
x,-y,1/2+z
1/2+x,1/2+y,z
1/2-x,1/2+y,1/2-z
1/2-x,1/2-y,-z
1/2+x,1/2-y,1/2+z
loop_
_atom_site_type_symbol
_atom_site_label
_atom_site_fract_x
_atom_site_fract_y
_atom_site_fract_z
Si Si1 0.762338 0.187005 0.626315
Si Si2 0.663983 0.539231 0.488906
Si Si3 0.142602 0.630733 0.212595
Si Si4 0.500000 0.373505 0.750000
O O1 0.750000 0.250000 0.500000
O O2 0.673165 0.146365 0.505682
O O3 0.899998 0.164558 0.480783
O O4 0.717069 0.176416 0.967969
O O5 0.646684 0.517366 0.810275
O O6 0.797367 0.568170 0.382909
O O7 0.575309 0.587365 0.417067
O O8 0.000000 0.633852 0.250000
#
# Coordination Sequence:
#
# PCOD9297799 Si02
#       4
#     8   8   8   4
#     4  11  25  44  67  98 130 179 223 276 335 386
#     4  11  23  41  67  99 134 177 219 276 336 384
#     4  11  25  44  66  97 138 173 227 272 321 408
#     4  10  24  42  68 100 134 170 232 276 328 404
#
# _framework density 22.966149000000001
#
# number of rings (size 3 to 8) (size 9 to 14) (size 15 to 20)
#    0.000    1.143    0.000    6.000    4.000   10.286 
#    0.000    0.000    0.000    0.000    0.000    0.000 
#    0.000    0.000    0.000    0.000    0.000    0.000 
#
# Total GULP energy -78403.588324 kJ/mol
# GULP energy per Si atom -5600.256309 kJ/mol
# Density = 2.291388 g / cm^3
# Si number density = 22.966149 Si / 1000 Ang^3
#
#
#
# Elastic Constant Matrix: (Units=GPa)
#
#
# Indices 1 2 3 4 5 6 
#
# 1 126.8693 22.4778 16.5282 0.0000 -30.7808 0.0000
# 2 22.4778 85.5154 9.3042 0.0000 -18.9466 0.0000
# 3 16.5282 9.3042 84.2264 0.0000 0.2704 0.0000
# 4 0.0000 0.0000 0.0000 22.2776 0.0000 5.2784
# 5 -30.7808 -18.9466 0.2704 0.0000 40.1238 0.0000
# 6 0.0000 0.0000 0.0000 5.2784 0.0000 19.6191
#
#
#
# Elastic Compliance Matrix: (Units=1/GPa)
#
#
# Indices 1 2 3 4 5 6 
#
# 1 0.010056 -0.000808 -0.001908 0.000000 0.007346 0.000000
# 2 -0.000808 0.013308 -0.001330 0.000000 0.005673 0.000000
# 3 -0.001908 -0.001330 0.012401 0.000000 -0.002175 0.000000
# 4 0.000000 0.000000 0.000000 0.047944 0.000000 -0.012899
# 5 0.007346 0.005673 -0.002175 0.000000 0.033251 0.000000
# 6 0.000000 0.000000 0.000000 -0.012899 0.000000 0.054441
#
#
# Mechanical properties :
#
#
# Convention : Reuss Voigt Hill
#
# Bulk Modulus (GPa) = 36.13534 43.69239 39.91386
# Shear Modulus (GPa) = 26.49464 32.95751 29.72607
#
# Velocity S-wave (km/s) = 3.40021 3.79231 3.60160
# Velocity P-wave (km/s) = 5.58423 6.18397 5.89173
#
# Compressibility (1/GPa) = 0.02767374
#
# Stress axis : x y z
#
# Youngs Moduli (GPa) = 99.44290 75.14391 80.63883
#
# Poissons Ratio (x) = 0.06073 0.15383
# Poissons Ratio (y) = 0.08037 0.10722
# Poissons Ratio (z) = 0.18970 0.09992
#
# Static dielectric constant tensor:
#      x y z
#    x 1.820140 0.000000 -0.025260 
#    y 0.000000 1.870290 0.000000 
#    z -0.025260 0.000000 1.828310 
# 
# From -- ./inp_files/3638.got.cif
#   From: 2010.05.17/outbox.cif.g08.bks.cpg/sg15_2_cif.got.tgz:3638.got - 2010.06.03 18:47:42.
