data_PCOD9297332
_publ_section_title
;
Structure prediction by ZEFSAII (Michael W. Deem and Ramdas Pophale) SiO2 
 PCOD9297332
Probable space group: C 2/C
;
_chemical_formula_sum "Si O2"
_cell_formula_units_Z 48
_cell_length_a 12.454870
_cell_length_b 16.972259
_cell_length_c 11.701162
_cell_angle_alpha 90.000000
_cell_angle_beta 109.742422
_cell_angle_gamma 90.000000
_cell_volume 2328.087567
_symmetry_space_group_name_H-M "C 2/C"
_symmetry_group_IT_number 15
_symmetry_cell_setting 'monoclinic'
loop_
_space_group_symop_operation_xyz
x,y,z
-x,y,1/2-z
-x,-y,-z
x,-y,1/2+z
1/2+x,1/2+y,z
1/2-x,1/2+y,1/2-z
1/2-x,1/2-y,-z
1/2+x,1/2-y,1/2+z
loop_
_atom_site_type_symbol
_atom_site_label
_atom_site_fract_x
_atom_site_fract_y
_atom_site_fract_z
Si Si1 0.931623 0.128346 0.976969
Si Si2 0.523586 0.200940 0.119090
Si Si3 0.135547 0.948688 0.272670
Si Si4 0.664326 0.392635 0.677754
Si Si5 0.281119 0.843109 0.499543
Si Si6 0.734262 0.318778 0.899697
O O1 0.970819 0.211305 0.933697
O O2 0.863931 0.087769 0.852173
O O3 0.844295 0.127415 0.049666
O O4 0.047101 0.091941 0.068551
O O5 0.500000 0.205437 0.250000
O O6 0.642378 0.165145 0.113691
O O7 0.415789 0.156034 0.026942
O O8 0.203361 0.891146 0.382286
O O9 0.000000 0.953691 0.250000
O O10 0.186402 0.035178 0.270854
O O11 0.756781 0.381107 0.613706
O O12 0.659492 0.314129 0.755510
O O13 0.250000 0.750000 0.500000
O O14 0.750000 0.250000 0.000000
#
# Coordination Sequence:
#
# PCOD9297332 Si02
#       6
#     8   8   8   8   8   8
#     4  11  22  40  68 100 137 169 218 287 345 400
#     4  11  21  41  67  97 129 178 232 273 322 408
#     4  12  25  41  68 104 138 174 223 282 350 408
#     4  12  24  41  68  99 138 174 216 286 346 397
#     4  12  24  43  71 100 131 181 237 274 331 412
#     4  10  24  39  64  97 133 174 222 275 336 399
#
# _framework density 20.61778
#
# number of rings (size 3 to 8) (size 9 to 14) (size 15 to 20)
#    0.000    0.667    5.000    3.500    4.667    0.000 
#    0.000    1.667    3.667    0.000    0.000    0.000 
#    0.000    0.000    0.000    0.000    0.000    0.000 
#
# Total GULP energy -133609.084165 kJ/mol
# GULP energy per Si atom -5567.045174 kJ/mol
# Density = 2.057085 g / cm^3
# Si number density = 20.617780 Si / 1000 Ang^3
#
#
#
# Elastic Constant Matrix: (Units=GPa)
#
#
# Indices 1 2 3 4 5 6 
#
# 1 155.0234 33.4197 43.7474 0.0000 -18.6295 0.0000
# 2 33.4197 71.2013 29.7564 0.0000 8.9649 0.0000
# 3 43.7474 29.7564 115.1359 0.0000 -3.9393 0.0000
# 4 0.0000 0.0000 0.0000 15.6419 0.0000 18.5025
# 5 -18.6295 8.9649 -3.9393 0.0000 30.6835 0.0000
# 6 0.0000 0.0000 0.0000 18.5025 0.0000 3.0696
#
#
#
# Elastic Compliance Matrix: (Units=1/GPa)
#
#
# Indices 1 2 3 4 5 6 
#
# 1 0.008617 -0.003964 -0.002040 0.000000 0.006128 0.000000
# 2 -0.003964 0.018421 -0.003537 0.000000 -0.008243 0.000000
# 3 -0.002040 -0.003537 0.010413 0.000000 0.001132 0.000000
# 4 0.000000 0.000000 0.000000 -0.010429 0.000000 0.062863
# 5 0.006128 -0.008243 0.001132 0.000000 0.038865 0.000000
# 6 0.000000 0.000000 0.000000 0.062863 0.000000 -0.053144
#
#
# Mechanical properties :
#
#
# Convention : Reuss Voigt Hill
#
# Bulk Modulus (GPa) = 54.43541 61.68973 58.06257
# Shear Modulus (GPa) = 131.75851 25.50814 78.63333
#
# Velocity S-wave (km/s) = 8.00275 3.52119 6.18235
# Velocity P-wave (km/s) = 10.57599 6.82036 8.89856
#
# Compressibility (1/GPa) = 0.01837039
#
# Stress axis : x y z
#
# Youngs Moduli (GPa) = 116.04587 54.28573 96.03029
#
# Poissons Ratio (x) = 0.21517 0.19592
# Poissons Ratio (y) = 0.45996 0.33964
# Poissons Ratio (z) = 0.23676 0.19200
#
# Static dielectric constant tensor:
#      x y z
#    x 1.747420 0.000000 -0.033050 
#    y 0.000000 1.923620 0.000000 
#    z -0.033050 0.000000 1.589900 
# 
# From -- ./inp_files/87886.got.cif
#   From: 2010.05.17/outbox.cif.g08.bks.cpg/sg15_44_cif.got.tgz:87886.got - 2010.06.03 18:47:42.
