data_PCOD9297177
_publ_section_title
;
Structure prediction by ZEFSAII (Michael W. Deem and Ramdas Pophale) SiO2 
 PCOD9297177
Probable space group: C 2/C
;
_chemical_formula_sum "Si O2"
_cell_formula_units_Z 40
_cell_length_a 16.686103
_cell_length_b 15.725870
_cell_length_c 8.151291
_cell_angle_alpha 90.000000
_cell_angle_beta 53.915302
_cell_angle_gamma 90.000000
_cell_volume 1728.568036
_symmetry_space_group_name_H-M "C 2/C"
_symmetry_group_IT_number 15
_symmetry_cell_setting 'monoclinic'
loop_
_space_group_symop_operation_xyz
x,y,z
-x,y,1/2-z
-x,-y,-z
x,-y,1/2+z
1/2+x,1/2+y,z
1/2-x,1/2+y,1/2-z
1/2-x,1/2-y,-z
1/2+x,1/2-y,1/2+z
loop_
_atom_site_type_symbol
_atom_site_label
_atom_site_fract_x
_atom_site_fract_y
_atom_site_fract_z
Si Si1 0.500000 0.845345 0.750000
Si Si2 0.290808 0.878680 0.533000
Si Si3 0.572079 0.604475 0.355212
Si Si4 0.940571 0.741226 0.980130
Si Si5 0.000000 0.051493 0.750000
Si Si6 0.112457 0.465434 0.403083
O O1 0.526748 0.794298 0.882599
O O2 0.592018 0.904175 0.582935
O O3 0.174154 0.863404 0.660208
O O4 0.333650 0.793474 0.564485
O O5 0.339732 0.911433 0.303193
O O6 0.319612 0.955890 0.622693
O O7 0.474148 0.660860 0.441792
O O8 0.575642 0.602599 0.547562
O O9 0.559593 0.510850 0.297478
O O10 0.000000 0.704059 0.750000
O O11 0.000000 0.500000 0.500000
#
# Coordination Sequence:
#
# PCOD9297177 Si02
#       6
#     4   8   8   8   4   8
#     4  12  23  40  69 100 144 186 218 288 363 404
#     4  12  23  41  72 107 138 187 240 282 355 430
#     4  11  25  46  73 100 137 189 235 294 354 421
#     4  12  24  45  66 101 147 183 224 294 355 411
#     4  10  23  50  71  96 142 180 240 300 351 412
#     4  12  20  39  70 102 141 179 226 296 344 406
#
# _framework density 23.140540000000001
#
# number of rings (size 3 to 8) (size 9 to 14) (size 15 to 20)
#    0.000    0.400    7.000    1.800    0.000    0.800 
#    0.000    4.000    0.000    0.000    0.000    0.000 
#    0.000    0.000    0.000    0.000    0.000    0.000 
#
# Total GULP energy -111633.530008 kJ/mol
# GULP energy per Si atom -5581.676500 kJ/mol
# Density = 2.308787 g / cm^3
# Si number density = 23.140540 Si / 1000 Ang^3
#
#
#
# Elastic Constant Matrix: (Units=GPa)
#
#
# Indices 1 2 3 4 5 6 
#
# 1 76.4098 22.5478 45.3090 0.0000 2.6246 0.0000
# 2 22.5478 85.8984 37.9867 0.0000 4.0770 0.0000
# 3 45.3090 37.9867 137.6222 0.0000 22.9825 0.0000
# 4 0.0000 0.0000 0.0000 16.9747 0.0000 6.4438
# 5 2.6246 4.0770 22.9825 0.0000 45.1494 0.0000
# 6 0.0000 0.0000 0.0000 6.4438 0.0000 28.9969
#
#
#
# Elastic Compliance Matrix: (Units=1/GPa)
#
#
# Indices 1 2 3 4 5 6 
#
# 1 0.016769 -0.002176 -0.005235 0.000000 0.001887 0.000000
# 2 -0.002176 0.013565 -0.003108 0.000000 0.000484 0.000000
# 3 -0.005235 -0.003108 0.010656 0.000000 -0.004839 0.000000
# 4 0.000000 0.000000 0.000000 0.064339 0.000000 -0.014298
# 5 0.001887 0.000484 -0.004839 0.000000 0.024459 0.000000
# 6 0.000000 0.000000 0.000000 -0.014298 0.000000 0.037664
#
#
# Mechanical properties :
#
#
# Convention : Reuss Voigt Hill
#
# Bulk Modulus (GPa) = 50.12558 56.84640 53.48599
# Shear Modulus (GPa) = 25.62256 31.16332 28.39294
#
# Velocity S-wave (km/s) = 3.33116 3.67372 3.50663
# Velocity P-wave (km/s) = 6.04185 6.52794 6.28959
#
# Compressibility (1/GPa) = 0.01994989
#
# Stress axis : x y z
#
# Youngs Moduli (GPa) = 59.63370 73.72141 93.84396
#
# Poissons Ratio (x) = 0.16043 0.49129
# Poissons Ratio (y) = 0.12977 0.29171
# Poissons Ratio (z) = 0.31220 0.22916
#
# Static dielectric constant tensor:
#      x y z
#    x 1.890830 0.000000 0.060730 
#    y 0.000000 1.946440 0.000000 
#    z 0.060730 0.000000 1.916890 
# 
# From -- ./inp_files/48314.got.cif
#   From: 2010.05.17/outbox.cif.g08.bks.cpg/sg15_25_cif.got.tgz:48314.got - 2010.06.03 18:47:42.
