data_PCOD9297617
_publ_section_title
;
Structure prediction by ZEFSAII (Michael W. Deem and Ramdas Pophale) SiO2 
 PCOD9297617
Probable space group: C 2/C
;
_chemical_formula_sum "Si O2"
_cell_formula_units_Z 64
_cell_length_a 28.280310
_cell_length_b 13.891617
_cell_length_c 21.108682
_cell_angle_alpha 90.000000
_cell_angle_beta 160.162705
_cell_angle_gamma 90.000000
_cell_volume 2814.143925
_symmetry_space_group_name_H-M "C 2/C"
_symmetry_group_IT_number 15
_symmetry_cell_setting 'monoclinic'
loop_
_space_group_symop_operation_xyz
x,y,z
-x,y,1/2-z
-x,-y,-z
x,-y,1/2+z
1/2+x,1/2+y,z
1/2-x,1/2+y,1/2-z
1/2-x,1/2-y,-z
1/2+x,1/2-y,1/2+z
loop_
_atom_site_type_symbol
_atom_site_label
_atom_site_fract_x
_atom_site_fract_y
_atom_site_fract_z
Si Si1 0.406198 0.828078 0.442554
Si Si2 0.260061 0.437788 0.697335
Si Si3 0.882436 0.944398 0.057079
Si Si4 0.618327 0.298865 0.749997
Si Si5 0.518298 0.948371 0.840682
Si Si6 0.717941 0.898715 0.428018
Si Si7 0.365175 0.575064 0.925200
Si Si8 0.813570 0.677222 0.274854
O O1 0.297318 0.898086 0.268462
O O2 0.298238 0.754416 0.339875
O O3 0.533608 0.794130 0.558506
O O4 0.476800 0.882812 0.590908
O O5 0.325384 0.347962 0.743107
O O6 0.161809 0.493059 0.525063
O O7 0.360031 0.520649 0.851535
O O8 0.177561 0.397355 0.654975
O O9 0.000000 0.899592 0.250000
O O10 0.764918 0.873173 0.883260
O O11 0.820155 0.034322 0.016781
O O12 0.933860 0.996070 0.057812
O O13 0.651539 0.187648 0.803210
O O14 0.456944 0.329678 0.548680
O O15 0.698066 0.351005 0.908520
O O16 0.500000 0.897264 0.750000
O O17 0.400967 0.029566 0.698375
#
# Coordination Sequence:
#
# PCOD9297617 Si02
#       8
#     8   8   8   8   8   8   8   8
#     4  11  27  48  72 104 138 187 242 295 354 422
#     4  10  24  41  69 100 144 189 237 288 356 419
#     4  11  23  46  70  99 138 189 230 295 361 425
#     4  11  23  42  65 113 144 190 233 289 349 432
#     4  11  23  46  70  99 138 189 230 295 361 425
#     4  11  24  40  70 101 149 184 232 288 363 424
#     4  10  24  41  69 100 144 189 237 288 356 419
#     4  11  27  48  72 104 138 187 242 295 354 422
#
# _framework density 22.742260999999999
#
# number of rings (size 3 to 8) (size 9 to 14) (size 15 to 20)
#    0.000    1.250    3.750    0.375    7.000    2.000 
#    4.500    1.250    0.000    0.000    0.000    0.000 
#    0.000    0.000    0.000    0.000    0.000    0.000 
#
# Total GULP energy -178729.385864 kJ/mol
# GULP energy per Si atom -5585.293308 kJ/mol
# Density = 2.269050 g / cm^3
# Si number density = 22.742261 Si / 1000 Ang^3
#
#
#
# Elastic Constant Matrix: (Units=GPa)
#
#
# Indices 1 2 3 4 5 6 
#
# 1 77.1080 30.8303 63.4438 0.0018 3.2113 0.0048
# 2 30.8303 75.1857 33.6613 0.0001 6.4076 -0.0001
# 3 63.4438 33.6613 140.3470 0.0009 -13.9129 0.0024
# 4 0.0018 0.0001 0.0009 53.4484 0.0018 24.6891
# 5 3.2113 6.4076 -13.9129 0.0018 49.9275 0.0047
# 6 0.0048 -0.0001 0.0024 24.6891 0.0047 137.0886
#
#
#
# Elastic Compliance Matrix: (Units=1/GPa)
#
#
# Indices 1 2 3 4 5 6 
#
# 1 0.022891 -0.004815 -0.009541 0.000000 -0.003513 0.000000
# 2 -0.004815 0.016361 -0.001979 0.000000 -0.002342 0.000000
# 3 -0.009541 -0.001979 0.012340 0.000000 0.004306 0.000000
# 4 0.000000 0.000000 0.000000 0.020407 0.000000 -0.003675
# 5 -0.003513 -0.002342 0.004306 0.000000 0.021756 -0.000001
# 6 0.000000 0.000000 0.000000 -0.003675 -0.000001 0.007956
#
#
# Mechanical properties :
#
#
# Convention : Reuss Voigt Hill
#
# Bulk Modulus (GPa) = 52.85500 60.94572 56.90036
# Shear Modulus (GPa) = 35.53937 59.07325 47.30631
#
# Velocity S-wave (km/s) = 3.95739 5.10211 4.56577
# Velocity P-wave (km/s) = 6.64625 7.84635 7.27110
#
# Compressibility (1/GPa) = 0.01891969
#
# Stress axis : x y z
#
# Youngs Moduli (GPa) = 43.68561 61.12194 81.03830
#
# Poissons Ratio (x) = 0.29433 0.77319
# Poissons Ratio (y) = 0.21037 0.16040
# Poissons Ratio (z) = 0.41681 0.12098
#
# Static dielectric constant tensor:
#      x y z
#    x 1.928910 0.000000 0.019540 
#    y 0.000000 1.882310 0.000000 
#    z 0.019540 0.000000 1.852830 
# 
# From -- ./inp_files/259467.got.cif
#   From: 2010.05.17/outbox.cif.g08.bks.cpg/sg15_130_cif.got.tgz:259467.got - 2010.06.03 18:47:42.
