data_PCOD9297488
_publ_section_title
;
Structure prediction by ZEFSAII (Michael W. Deem and Ramdas Pophale) SiO2 
 PCOD9297488
Probable space group: C 2/C
;
_chemical_formula_sum "Si O2"
_cell_formula_units_Z 36
_cell_length_a 15.983170
_cell_length_b 9.540939
_cell_length_c 17.190219
_cell_angle_alpha 90.000000
_cell_angle_beta 31.169138
_cell_angle_gamma 90.000000
_cell_volume 1356.754755
_symmetry_space_group_name_H-M "C 2/C"
_symmetry_group_IT_number 15
_symmetry_cell_setting 'monoclinic'
loop_
_space_group_symop_operation_xyz
x,y,z
-x,y,1/2-z
-x,-y,-z
x,-y,1/2+z
1/2+x,1/2+y,z
1/2-x,1/2+y,1/2-z
1/2-x,1/2-y,-z
1/2+x,1/2-y,1/2+z
loop_
_atom_site_type_symbol
_atom_site_label
_atom_site_fract_x
_atom_site_fract_y
_atom_site_fract_z
Si Si1 0.622782 0.404875 0.327875
Si Si2 0.216096 0.366195 0.462823
Si Si3 0.655337 0.579700 0.027967
Si Si4 0.000000 0.311254 0.250000
Si Si5 0.096954 0.394846 0.867418
O O1 0.713269 0.341740 0.179105
O O2 0.456559 0.475414 0.432239
O O3 0.732122 0.529259 0.274476
O O4 0.606216 0.264545 0.392117
O O5 0.250000 0.250000 0.500000
O O6 0.305609 0.504211 0.420934
O O7 0.024065 0.384407 0.609169
O O8 0.558976 0.718157 0.129649
O O9 0.836418 0.609989 0.854414
O O10 0.000000 0.500000 0.000000
#
# Coordination Sequence:
#
# PCOD9297488 Si02
#       5
#     8   8   8   4   8
#     4  11  23  47  76 113 154 206 257 337 396 482
#     4  11  22  43  77 111 144 197 270 326 391 470
#     4  11  22  45  74 110 155 197 267 320 401 462
#     4  10  24  40  70 118 150 202 244 336 386 474
#     4  10  25  46  72 112 154 204 259 325 401 476
#
# _framework density 26.533902999999999
#
# number of rings (size 3 to 8) (size 9 to 14) (size 15 to 20)
#    0.000    1.333    4.444    0.000    0.000    5.333 
#    4.000    4.444    0.000    0.000    0.000    0.000 
#    0.000    0.000    0.000    0.000    0.000    0.000 
#
# Total GULP energy -100841.217895 kJ/mol
# GULP energy per Si atom -5602.289883 kJ/mol
# Density = 2.647351 g / cm^3
# Si number density = 26.533903 Si / 1000 Ang^3
#
#
#
# Elastic Constant Matrix: (Units=GPa)
#
#
# Indices 1 2 3 4 5 6 
#
# 1 120.5563 56.8982 57.0697 -0.0001 -44.9703 0.0000
# 2 56.8982 166.6247 72.8347 -0.0003 -39.8000 0.0001
# 3 57.0697 72.8347 155.0806 -0.0005 -30.5889 0.0003
# 4 -0.0001 -0.0003 -0.0005 58.9128 0.0002 -13.4357
# 5 -44.9703 -39.8000 -30.5889 0.0002 64.0297 -0.0001
# 6 0.0000 0.0001 0.0003 -13.4357 -0.0001 49.8866
#
#
#
# Elastic Compliance Matrix: (Units=1/GPa)
#
#
# Indices 1 2 3 4 5 6 
#
# 1 0.012817 -0.001618 -0.002627 0.000000 0.006741 0.000000
# 2 -0.001618 0.008451 -0.002828 0.000000 0.002765 0.000000
# 3 -0.002627 -0.002828 0.008868 0.000000 0.000634 0.000000
# 4 0.000000 0.000000 0.000000 0.018085 0.000000 0.004871
# 5 0.006741 0.002765 0.000634 0.000000 0.022374 0.000000
# 6 0.000000 0.000000 0.000000 0.004871 0.000000 0.021357
#
#
# Mechanical properties :
#
#
# Convention : Reuss Voigt Hill
#
# Bulk Modulus (GPa) = 62.54186 90.65189 76.59687
# Shear Modulus (GPa) = 44.87213 51.59641 48.23427
#
# Velocity S-wave (km/s) = 4.11679 4.41449 4.26823
# Velocity P-wave (km/s) = 6.79846 7.76030 7.29525
#
# Compressibility (1/GPa) = 0.01598929
#
# Stress axis : x y z
#
# Youngs Moduli (GPa) = 78.02371 118.33201 112.76270
#
# Poissons Ratio (x) = 0.19148 0.29622
# Poissons Ratio (y) = 0.12626 0.31890
# Poissons Ratio (z) = 0.20496 0.33465
#
# Static dielectric constant tensor:
#      x y z
#    x 2.114420 0.000000 0.059540 
#    y 0.000000 2.189230 0.000000 
#    z 0.059540 0.000000 2.112480 
# 
# From -- ./inp_files/247742.got.cif
#   From: 2010.05.17/outbox.cif.g08.bks.cpg/sg15_124_cif.got.tgz:247742.got - 2010.06.03 18:47:42.
