data_PCOD9297744
_publ_section_title
;
Structure prediction by ZEFSAII (Michael W. Deem and Ramdas Pophale) SiO2 
 PCOD9297744
Probable space group: C 2/C
;
_chemical_formula_sum "Si O2"
_cell_formula_units_Z 40
_cell_length_a 8.401486
_cell_length_b 11.995140
_cell_length_c 20.209434
_cell_angle_alpha 90.000000
_cell_angle_beta 108.542669
_cell_angle_gamma 90.000000
_cell_volume 1930.917920
_symmetry_space_group_name_H-M "C 2/C"
_symmetry_group_IT_number 15
_symmetry_cell_setting 'monoclinic'
loop_
_space_group_symop_operation_xyz
x,y,z
-x,y,1/2-z
-x,-y,-z
x,-y,1/2+z
1/2+x,1/2+y,z
1/2-x,1/2+y,1/2-z
1/2-x,1/2-y,-z
1/2+x,1/2-y,1/2+z
loop_
_atom_site_type_symbol
_atom_site_label
_atom_site_fract_x
_atom_site_fract_y
_atom_site_fract_z
Si Si1 0.133128 0.082777 0.485767
Si Si2 0.000000 0.876058 0.250000
Si Si3 0.000000 0.207495 0.250000
Si Si4 0.927082 0.696511 0.601829
Si Si5 0.860571 0.343785 0.782705
Si Si6 0.711636 0.016963 0.622766
O O1 0.056703 0.188519 0.436614
O O2 0.259546 0.134415 0.556086
O O3 0.235306 0.016140 0.443309
O O4 0.000000 0.000000 0.500000
O O5 0.097598 0.787838 0.215352
O O6 0.128192 0.945355 0.311904
O O7 0.926293 0.276353 0.179265
O O8 0.837592 0.146182 0.260422
O O9 0.083192 0.617927 0.607176
O O10 0.872549 0.409790 0.852755
O O11 0.000000 0.392048 0.750000
#
# Coordination Sequence:
#
# PCOD9297744 Si02
#       6
#     8   4   4   8   8   8
#     4  11  28  45  69 101 143 189 242 285 358 433
#     4  10  25  39  68 108 136 186 239 299 358 424
#     4  12  21  47  74 100 146 178 239 303 360 418
#     4  11  26  46  70 101 140 189 228 306 351 422
#     4  10  24  42  66 108 141 180 235 300 359 420
#     4  12  24  44  72 100 145 189 240 293 359 430
#
# _framework density 20.715534999999999
#
# number of rings (size 3 to 8) (size 9 to 14) (size 15 to 20)
#    0.600    0.400    4.000    1.200    4.200    4.000 
#    0.000    0.000    0.000    0.000    0.000    0.000 
#    0.000    0.000    0.000    0.000    0.000    0.000 
#
# Total GULP energy -111631.112930 kJ/mol
# GULP energy per Si atom -5581.555646 kJ/mol
# Density = 2.066839 g / cm^3
# Si number density = 20.715535 Si / 1000 Ang^3
#
#
#
# Elastic Constant Matrix: (Units=GPa)
#
#
# Indices 1 2 3 4 5 6 
#
# 1 133.4489 54.0133 68.1990 0.0000 -22.3474 0.0000
# 2 54.0133 71.5382 40.9952 0.0000 7.8304 0.0000
# 3 68.1990 40.9952 138.5151 0.0000 1.5756 0.0000
# 4 0.0000 0.0000 0.0000 -27.5308 0.0000 -15.7334
# 5 -22.3474 7.8304 1.5756 0.0000 39.4162 0.0000
# 6 0.0000 0.0000 0.0000 -15.7334 0.0000 30.9250
#
#
#
# Elastic Compliance Matrix: (Units=1/GPa)
#
#
# Indices 1 2 3 4 5 6 
#
# 1 0.016335 -0.010740 -0.004996 0.000000 0.011595 0.000000
# 2 -0.010740 0.024294 -0.001779 0.000000 -0.010844 0.000000
# 3 -0.004996 -0.001779 0.010239 0.000000 -0.002889 0.000000
# 4 0.000000 0.000000 0.000000 -0.028141 0.000000 -0.014317
# 5 0.011595 -0.010844 -0.002889 0.000000 0.034214 0.000000
# 6 0.000000 0.000000 0.000000 -0.014317 0.000000 0.025052
#
#
# Mechanical properties :
#
#
# Convention : Reuss Voigt Hill
#
# Bulk Modulus (GPa) = 63.13857 74.43524 68.78690
# Shear Modulus (GPa) = 40.88253 20.58174 30.73214
#
# Velocity S-wave (km/s) = 4.44725 3.15547 3.85584
# Velocity P-wave (km/s) = 7.54425 7.02040 7.28704
#
# Compressibility (1/GPa) = 0.01583818
#
# Stress axis : x y z
#
# Youngs Moduli (GPa) = 61.21695 41.16300 97.66888
#
# Poissons Ratio (x) = 0.44208 0.48797
# Poissons Ratio (y) = 0.65745 0.17374
# Poissons Ratio (z) = 0.30585 0.07322
#
# Static dielectric constant tensor:
#      x y z
#    x 2.377880 0.000000 -0.483940 
#    y 0.000000 1.761680 0.000000 
#    z -0.483940 0.000000 2.105450 
# 
# From -- ./inp_files/187981.got.cif
#   From: 2010.05.17/outbox.cif.g08.bks.cpg/sg15_94_cif.got.tgz:187981.got - 2010.06.03 18:47:42.
