data_PCOD9297305
_publ_section_title
;
Structure prediction by ZEFSAII (Michael W. Deem and Ramdas Pophale) SiO2 
 PCOD9297305
Probable space group: C 2/C
;
_chemical_formula_sum "Si O2"
_cell_formula_units_Z 60
_cell_length_a 11.358811
_cell_length_b 18.228659
_cell_length_c 14.453523
_cell_angle_alpha 90.000000
_cell_angle_beta 116.814828
_cell_angle_gamma 90.000000
_cell_volume 2670.880773
_symmetry_space_group_name_H-M "C 2/C"
_symmetry_group_IT_number 15
_symmetry_cell_setting 'monoclinic'
loop_
_space_group_symop_operation_xyz
x,y,z
-x,y,1/2-z
-x,-y,-z
x,-y,1/2+z
1/2+x,1/2+y,z
1/2-x,1/2+y,1/2-z
1/2-x,1/2-y,-z
1/2+x,1/2-y,1/2+z
loop_
_atom_site_type_symbol
_atom_site_label
_atom_site_fract_x
_atom_site_fract_y
_atom_site_fract_z
Si Si1 0.249834 0.750487 0.276410
Si Si2 0.348103 0.119310 0.368310
Si Si3 0.086993 0.550775 0.376264
Si Si4 0.500000 0.215882 0.750000
Si Si5 0.180665 0.384237 0.433955
Si Si6 0.400484 0.378598 0.356518
Si Si7 0.597069 0.452468 0.699844
Si Si8 0.348313 0.647303 0.451477
O O1 0.151516 0.690033 0.197998
O O2 0.378291 0.743901 0.255242
O O3 0.180565 0.828851 0.244554
O O4 0.300226 0.724418 0.393363
O O5 0.489340 0.081299 0.419608
O O6 0.299155 0.137732 0.453160
O O7 0.244557 0.062785 0.287409
O O8 0.134662 0.468299 0.409917
O O9 0.217244 0.600392 0.422865
O O10 0.000000 0.554451 0.250000
O O11 0.434526 0.165227 0.649025
O O12 0.308712 0.374327 0.415417
O O13 0.415754 0.462992 0.333360
O O14 0.545080 0.347838 0.430236
O O15 0.500000 0.435942 0.750000
O O16 0.580223 0.399134 0.606103
#
# Coordination Sequence:
#
# PCOD9297305 Si02
#       8
#     8   8   8   4   8   8   8   8
#     4  10  25  42  63 101 131 174 222 272 332 398
#     4  11  25  41  68  96 134 173 224 279 328 401
#     4  12  21  45  67  94 133 176 222 268 337 394
#     4  10  24  38  68  94 134 174 214 284 340 384
#     4  11  23  41  70  98 131 167 227 283 334 400
#     4  11  24  45  68  99 133 176 220 279 340 391
#     4  11  23  41  68 100 133 167 225 280 328 392
#     4  11  24  43  74  91 137 180 217 273 339 402
#
# _framework density 22.464499
#
# number of rings (size 3 to 8) (size 9 to 14) (size 15 to 20)
#    0.000    1.067    4.667    1.600   11.200    1.067 
#    2.400    0.667    0.000    0.000    0.000    0.000 
#    0.000    0.000    0.000    0.000    0.000    0.000 
#
# Total GULP energy -167867.518663 kJ/mol
# GULP energy per Si atom -5595.583955 kJ/mol
# Density = 2.241337 g / cm^3
# Si number density = 22.464499 Si / 1000 Ang^3
#
#
#
# Elastic Constant Matrix: (Units=GPa)
#
#
# Indices 1 2 3 4 5 6 
#
# 1 71.5855 7.9308 1.4362 0.0000 10.3452 0.0000
# 2 7.9308 44.5787 4.9211 0.0000 17.0535 0.0000
# 3 1.4362 4.9211 62.8163 0.0000 16.8873 0.0000
# 4 0.0000 0.0000 0.0000 26.9962 0.0000 -19.0862
# 5 10.3452 17.0535 16.8873 0.0000 28.8769 0.0000
# 6 0.0000 0.0000 0.0000 -19.0862 0.0000 27.4206
#
#
#
# Elastic Compliance Matrix: (Units=1/GPa)
#
#
# Indices 1 2 3 4 5 6 
#
# 1 0.014832 -0.000602 0.001235 0.000000 -0.005680 0.000000
# 2 -0.000602 0.029414 0.002754 0.000000 -0.018766 0.000000
# 3 0.001235 0.002754 0.019260 0.000000 -0.013332 0.000000
# 4 0.000000 0.000000 0.000000 0.072933 0.000000 0.050765
# 5 -0.005680 -0.018766 -0.013332 0.000000 0.055544 0.000000
# 6 0.000000 0.000000 0.000000 0.050765 0.000000 0.071804
#
#
# Mechanical properties :
#
#
# Convention : Reuss Voigt Hill
#
# Bulk Modulus (GPa) = 14.22864 23.06185 18.64525
# Shear Modulus (GPa) = 17.82925 27.63826 22.73376
#
# Velocity S-wave (km/s) = 2.82026 3.51138 3.18462
# Velocity P-wave (km/s) = 4.11737 5.16991 4.67336
#
# Compressibility (1/GPa) = 0.07028076
#
# Stress axis : x y z
#
# Youngs Moduli (GPa) = 67.42116 33.99734 51.92221
#
# Poissons Ratio (x) = 0.02047 -0.06413
# Poissons Ratio (y) = 0.04059 -0.14301
# Poissons Ratio (z) = -0.08328 -0.09364
#
# Static dielectric constant tensor:
#      x y z
#    x 1.858130 0.000000 -0.000590 
#    y 0.000000 1.804240 0.000000 
#    z -0.000590 0.000000 1.856290 
# 
# From -- ./inp_files/147202.got.cif
#   From: 2010.05.17/outbox.cif.g08.bks.cpg/sg15_74_cif.got.tgz:147202.got - 2010.06.03 18:47:42.
