data_PCOD9297218
_publ_section_title
;
Structure prediction by ZEFSAII (Michael W. Deem and Ramdas Pophale) SiO2 
 PCOD9297218
Probable space group: C 2/C
;
_chemical_formula_sum "Si O2"
_cell_formula_units_Z 44
_cell_length_a 11.939575
_cell_length_b 22.822418
_cell_length_c 9.238238
_cell_angle_alpha 90.000000
_cell_angle_beta 109.310925
_cell_angle_gamma 90.000000
_cell_volume 2375.697126
_symmetry_space_group_name_H-M "C 2/C"
_symmetry_group_IT_number 15
_symmetry_cell_setting 'monoclinic'
loop_
_space_group_symop_operation_xyz
x,y,z
-x,y,1/2-z
-x,-y,-z
x,-y,1/2+z
1/2+x,1/2+y,z
1/2-x,1/2+y,1/2-z
1/2-x,1/2-y,-z
1/2+x,1/2-y,1/2+z
loop_
_atom_site_type_symbol
_atom_site_label
_atom_site_fract_x
_atom_site_fract_y
_atom_site_fract_z
Si Si1 0.383173 0.300552 0.799118
Si Si2 0.074226 0.420437 0.017478
Si Si3 0.649572 0.158562 0.052302
Si Si4 0.216277 0.331735 0.255587
Si Si5 0.000000 0.501714 0.250000
Si Si6 0.462142 0.277432 0.388365
O O1 0.500000 0.309030 0.750000
O O2 0.272050 0.337915 0.694167
O O3 0.339570 0.233209 0.776323
O O4 0.429782 0.307522 0.981925
O O5 0.167763 0.371460 0.105732
O O6 0.059968 0.462446 0.151202
O O7 0.091714 0.458427 0.881103
O O8 0.948812 0.387240 0.939946
O O9 0.591574 0.223625 0.041452
O O10 0.676227 0.145510 0.895919
O O11 0.356619 0.322920 0.317800
O O12 0.500000 0.252459 0.250000
#
# Coordination Sequence:
#
# PCOD9297218 Si02
#       6
#     8   8   8   8   4   8
#     4  11  18  33  54  80 110 151 187 204 256 358
#     4  11  21  39  58  86 109 142 184 237 283 318
#     4  11  20  33  58  77 113 154 181 221 272 333
#     4  11  19  35  58  75 115 154 181 221 273 331
#     4  10  24  36  58  84 110 136 192 240 284 318
#     4  11  23  33  50  86 118 149 183 219 265 339
#
# _framework density 18.520879999999998
#
# number of rings (size 3 to 8) (size 9 to 14) (size 15 to 20)
#    0.000    1.091    7.273    1.091    1.273    4.364 
#    0.000    0.000    0.000    0.000    0.000   25.455 
#    0.000    0.000    0.000    0.000    0.000    0.000 
#
# Total GULP energy -122762.746090 kJ/mol
# GULP energy per Si atom -5580.124822 kJ/mol
# Density = 1.847873 g / cm^3
# Si number density = 18.520880 Si / 1000 Ang^3
#
#
#
# Elastic Constant Matrix: (Units=GPa)
#
#
# Indices 1 2 3 4 5 6 
#
# 1 35.8370 14.2722 30.9315 0.0000 30.1008 0.0000
# 2 14.2722 57.6933 31.8544 0.0000 12.3178 0.0000
# 3 30.9315 31.8544 117.7022 0.0000 22.8742 0.0000
# 4 0.0000 0.0000 0.0000 41.9482 0.0000 8.8728
# 5 30.1008 12.3178 22.8742 0.0000 33.0157 0.0000
# 6 0.0000 0.0000 0.0000 8.8728 0.0000 0.6572
#
#
#
# Elastic Compliance Matrix: (Units=1/GPa)
#
#
# Indices 1 2 3 4 5 6 
#
# 1 0.135402 -0.002083 -0.012919 0.000000 -0.113720 0.000000
# 2 -0.002083 0.020971 -0.004595 0.000000 -0.002741 0.000000
# 3 -0.012919 -0.004595 0.012148 0.000000 0.005076 0.000000
# 4 0.000000 0.000000 0.000000 -0.012846 0.000000 0.173436
# 5 -0.113720 -0.002741 0.005076 0.000000 0.131474 0.000000
# 6 0.000000 0.000000 0.000000 0.173436 0.000000 -0.819959
#
#
# Mechanical properties :
#
#
# Convention : Reuss Voigt Hill
#
# Bulk Modulus (GPa) = 7.73238 40.59431 24.16335
# Shear Modulus (GPa) = -11.09862 24.06917 6.48528
#
# Velocity S-wave (km/s) = -2.45061 3.60887 1.87329
# Velocity P-wave (km/s) = 1.95533 6.27144 4.21353
#
# Compressibility (1/GPa) = 0.12932624
#
# Stress axis : x y z
#
# Youngs Moduli (GPa) = 7.38542 47.68537 82.31683
#
# Poissons Ratio (x) = 0.09934 1.06344
# Poissons Ratio (y) = 0.01539 0.37827
# Poissons Ratio (z) = 0.09541 0.21913
#
# Static dielectric constant tensor:
#      x y z
#    x 1.636490 0.000000 -0.006750 
#    y 0.000000 1.657420 0.000000 
#    z -0.006750 0.000000 1.690580 
# 
# From -- ./inp_files/31013.got.cif
#   From: 2010.05.17/outbox.cif.g08.bks.cpg/sg15_16_cif.got.tgz:31013.got - 2010.06.03 18:47:42.
