data_PCOD9297672
_publ_section_title
;
Structure prediction by ZEFSAII (Michael W. Deem and Ramdas Pophale) SiO2 
 PCOD9297672
Probable space group: C 2/C
;
_chemical_formula_sum "Si O2"
_cell_formula_units_Z 44
_cell_length_a 13.296465
_cell_length_b 29.785563
_cell_length_c 5.266905
_cell_angle_alpha 90.000000
_cell_angle_beta 115.950132
_cell_angle_gamma 90.000000
_cell_volume 1875.606961
_symmetry_space_group_name_H-M "C 2/C"
_symmetry_group_IT_number 15
_symmetry_cell_setting 'monoclinic'
loop_
_space_group_symop_operation_xyz
x,y,z
-x,y,1/2-z
-x,-y,-z
x,-y,1/2+z
1/2+x,1/2+y,z
1/2-x,1/2+y,1/2-z
1/2-x,1/2-y,-z
1/2+x,1/2-y,1/2+z
loop_
_atom_site_type_symbol
_atom_site_label
_atom_site_fract_x
_atom_site_fract_y
_atom_site_fract_z
Si Si1 0.671976 0.029957 0.976353
Si Si2 0.390915 0.723346 0.960457
Si Si3 0.500000 0.345914 0.250000
Si Si4 0.668287 0.816699 0.454124
Si Si5 0.205820 0.897571 0.640244
Si Si6 0.395740 0.106250 0.946864
O O1 0.603981 0.071715 0.786100
O O2 0.653187 0.994818 0.724978
O O3 0.784736 0.057678 0.178173
O O4 0.500000 0.712723 0.250000
O O5 0.387793 0.777290 0.942078
O O6 0.409353 0.690213 0.748313
O O7 0.274496 0.707255 0.944643
O O8 0.579759 0.379601 0.492216
O O9 0.720389 0.856967 0.669007
O O10 0.600293 0.843183 0.161030
O O11 0.275454 0.903869 0.452940
O O12 0.500000 0.099035 0.250000
#
# Coordination Sequence:
#
# PCOD9297672 Si02
#       6
#     8   8   4   8   8   8
#     4  11  24  49  78 111 148 187 242 305 375 455
#     4  11  23  41  65  99 138 195 249 304 356 427
#     4  12  24  44  74 102 142 200 250 306 364 428
#     4  10  24  42  63 100 146 187 251 300 364 424
#     4  11  24  45  72 106 145 189 244 306 370 438
#     4  11  25  44  73 106 149 194 235 304 373 443
#
# _framework density 23.459071999999999
#
# number of rings (size 3 to 8) (size 9 to 14) (size 15 to 20)
#    0.000    1.091    5.455    0.000    2.545    5.091 
#    0.000    0.909    0.000    0.000    0.000    0.000 
#    0.000    0.000    0.000    0.000    0.000    0.000 
#
# Total GULP energy -122506.020441 kJ/mol
# GULP energy per Si atom -5568.455475 kJ/mol
# Density = 2.340568 g / cm^3
# Si number density = 23.459072 Si / 1000 Ang^3
#
#
#
# Elastic Constant Matrix: (Units=GPa)
#
#
# Indices 1 2 3 4 5 6 
#
# 1 65.7750 37.6663 19.5091 0.0000 -4.7713 0.0000
# 2 37.6663 103.4448 37.3700 0.0000 6.8898 0.0000
# 3 19.5091 37.3700 92.4579 0.0000 4.4652 0.0000
# 4 0.0000 0.0000 0.0000 50.2651 0.0000 -12.5975
# 5 -4.7713 6.8898 4.4652 0.0000 30.3456 0.0000
# 6 0.0000 0.0000 0.0000 -12.5975 0.0000 4.0335
#
#
#
# Elastic Compliance Matrix: (Units=1/GPa)
#
#
# Indices 1 2 3 4 5 6 
#
# 1 0.020093 -0.007061 -0.001627 0.000000 0.005002 0.000000
# 2 -0.007061 0.013913 -0.003955 0.000000 -0.003687 0.000000
# 3 -0.001627 -0.003955 0.012818 0.000000 -0.001244 0.000000
# 4 0.000000 0.000000 0.000000 0.091568 0.000000 0.285982
# 5 0.005002 -0.003687 -0.001244 0.000000 0.034760 0.000000
# 6 0.000000 0.000000 0.000000 0.285982 0.000000 1.141093
#
#
# Mechanical properties :
#
#
# Convention : Reuss Voigt Hill
#
# Bulk Modulus (GPa) = 46.43496 50.08538 48.26017
# Shear Modulus (GPa) = 3.71275 28.07099 15.89187
#
# Velocity S-wave (km/s) = 1.25940 3.46294 2.60557
# Velocity P-wave (km/s) = 4.68527 6.11438 5.44690
#
# Compressibility (1/GPa) = 0.02153550
#
# Stress axis : x y z
#
# Youngs Moduli (GPa) = 49.76966 71.87723 78.01680
#
# Poissons Ratio (x) = 0.50756 0.12694
# Poissons Ratio (y) = 0.35145 0.30857
# Poissons Ratio (z) = 0.08098 0.28429
#
# Static dielectric constant tensor:
#      x y z
#    x -5.838700 0.000000 1.772160 
#    y 0.000000 1.938930 0.000000 
#    z 1.772160 0.000000 1.541910 
# 
# From -- ./inp_files/8877.got.cif
#   From: 2010.05.17/outbox.cif.g08.bks.cpg/sg15_5_cif.got.tgz:8877.got - 2010.06.03 18:47:42.
