data_PCOD9297713
_publ_section_title
;
Structure prediction by ZEFSAII (Michael W. Deem and Ramdas Pophale) SiO2 
 PCOD9297713
Probable space group: C 2/C
;
_chemical_formula_sum "Si O2"
_cell_formula_units_Z 64
_cell_length_a 11.997619
_cell_length_b 20.995366
_cell_length_c 22.188162
_cell_angle_alpha 90.000000
_cell_angle_beta 141.638150
_cell_angle_gamma 90.000000
_cell_volume 3468.723542
_symmetry_space_group_name_H-M "C 2/C"
_symmetry_group_IT_number 15
_symmetry_cell_setting 'monoclinic'
loop_
_space_group_symop_operation_xyz
x,y,z
-x,y,1/2-z
-x,-y,-z
x,-y,1/2+z
1/2+x,1/2+y,z
1/2-x,1/2+y,1/2-z
1/2-x,1/2-y,-z
1/2+x,1/2-y,1/2+z
loop_
_atom_site_type_symbol
_atom_site_label
_atom_site_fract_x
_atom_site_fract_y
_atom_site_fract_z
Si Si1 0.579296 0.545321 0.121220
Si Si2 0.600138 0.623625 0.356657
Si Si3 0.516461 0.596607 0.552259
Si Si4 0.442736 0.809055 0.975505
Si Si5 0.107773 0.368004 0.736126
Si Si6 0.797648 0.675251 0.014770
Si Si7 0.596849 0.265440 0.651645
Si Si8 0.201237 0.296587 0.309475
O O1 0.439425 0.568468 0.112218
O O2 0.564423 0.470998 0.102132
O O3 0.768606 0.571548 0.226673
O O4 0.547990 0.580965 0.043422
O O5 0.500000 0.615658 0.250000
O O6 0.810228 0.633831 0.435475
O O7 0.520703 0.687482 0.355660
O O8 0.366856 0.633877 0.528533
O O9 0.689956 0.641728 0.624079
O O10 0.625106 0.830887 0.020190
O O11 0.320517 0.763797 0.880882
O O12 0.486408 0.765875 0.051577
O O13 0.243991 0.309699 0.805458
O O14 0.000000 0.383686 0.750000
O O15 0.968304 0.345669 0.627036
O O16 0.750000 0.750000 0.000000
O O17 0.679253 0.210886 0.728698
O O18 0.000000 0.295349 0.250000
#
# Coordination Sequence:
#
# PCOD9297713 Si02
#       8
#     8   8   8   8   8   8   8   8
#     4  10  24  42  65  88 124 176 217 272 303 385
#     4  11  20  39  62  91 124 166 215 257 314 386
#     4  11  24  45  61  92 131 166 220 265 325 373
#     4  12  21  36  61  96 132 162 204 264 330 387
#     4  11  19  35  60  91 118 165 221 249 314 386
#     4  12  22  39  65  94 135 168 204 273 330 392
#     4  11  21  33  58  95 128 158 201 262 325 382
#     4  12  22  37  59  93 127 159 202 268 322 378
#
# _framework density 18.450590999999999
#
# number of rings (size 3 to 8) (size 9 to 14) (size 15 to 20)
#    0.000    0.750    6.250    3.375    1.750    0.500 
#    0.000    1.875    0.000    0.000    0.000    0.000 
#    0.000    0.000    0.000    0.000    0.000    0.000 
#
# Total GULP energy -178636.124991 kJ/mol
# GULP energy per Si atom -5582.378906 kJ/mol
# Density = 1.840860 g / cm^3
# Si number density = 18.450591 Si / 1000 Ang^3
#
#
#
# Elastic Constant Matrix: (Units=GPa)
#
#
# Indices 1 2 3 4 5 6 
#
# 1 97.1208 30.9190 12.4455 0.0000 7.2405 0.0000
# 2 30.9190 80.3165 20.4438 0.0000 6.7594 0.0000
# 3 12.4455 20.4438 70.9066 -0.0001 2.6947 -0.0001
# 4 0.0000 0.0000 -0.0001 13.0733 0.0000 -8.8198
# 5 7.2405 6.7594 2.6947 0.0000 29.4798 0.0000
# 6 0.0000 0.0000 -0.0001 -8.8198 0.0000 25.0073
#
#
#
# Elastic Compliance Matrix: (Units=1/GPa)
#
#
# Indices 1 2 3 4 5 6 
#
# 1 0.011880 -0.004212 -0.000799 0.000000 -0.001879 0.000000
# 2 -0.004212 0.015154 -0.003549 0.000000 -0.002116 0.000000
# 3 -0.000799 -0.003549 0.015281 0.000000 -0.000387 0.000000
# 4 0.000000 0.000000 0.000000 0.100375 0.000000 0.035401
# 5 -0.001879 -0.002116 -0.000387 0.000000 0.034903 0.000000
# 6 0.000000 0.000000 0.000000 0.035401 0.000000 0.052474
#
#
# Mechanical properties :
#
#
# Convention : Reuss Voigt Hill
#
# Bulk Modulus (GPa) = 39.69234 41.77337 40.73286
# Shear Modulus (GPa) = 19.56290 25.81445 22.68867
#
# Velocity S-wave (km/s) = 3.25974 3.74453 3.51051
# Velocity P-wave (km/s) = 5.97723 6.43313 6.20937
#
# Compressibility (1/GPa) = 0.02519378
#
# Stress axis : x y z
#
# Youngs Moduli (GPa) = 84.17657 65.99081 65.43879
#
# Poissons Ratio (x) = 0.27793 0.05231
# Poissons Ratio (y) = 0.35452 0.23227
# Poissons Ratio (z) = 0.06729 0.23423
#
# Static dielectric constant tensor:
#      x y z
#    x 1.696780 0.000000 0.012500 
#    y 0.000000 1.616330 0.000000 
#    z 0.012500 0.000000 1.690370 
# 
# From -- ./inp_files/240425.got.cif
#   From: 2010.05.17/outbox.cif.g08.bks.cpg/sg15_121_cif.got.tgz:240425.got - 2010.06.03 18:47:42.
