data_PCOD9297204
_publ_section_title
;
Structure prediction by ZEFSAII (Michael W. Deem and Ramdas Pophale) SiO2 
 PCOD9297204
Probable space group: C 2/C
;
_chemical_formula_sum "Si O2"
_cell_formula_units_Z 56
_cell_length_a 21.845366
_cell_length_b 17.564396
_cell_length_c 8.773360
_cell_angle_alpha 90.000000
_cell_angle_beta 50.255599
_cell_angle_gamma 90.000000
_cell_volume 2588.396439
_symmetry_space_group_name_H-M "C 2/C"
_symmetry_group_IT_number 15
_symmetry_cell_setting 'monoclinic'
loop_
_space_group_symop_operation_xyz
x,y,z
-x,y,1/2-z
-x,-y,-z
x,-y,1/2+z
1/2+x,1/2+y,z
1/2-x,1/2+y,1/2-z
1/2-x,1/2-y,-z
1/2+x,1/2-y,1/2+z
loop_
_atom_site_type_symbol
_atom_site_label
_atom_site_fract_x
_atom_site_fract_y
_atom_site_fract_z
Si Si1 0.235249 0.641707 0.284622
Si Si2 0.387950 0.960608 0.673555
Si Si3 0.816320 0.188349 0.640486
Si Si4 0.943690 0.108417 0.607376
Si Si5 0.000000 0.001693 0.250000
Si Si6 0.838158 0.632147 0.760124
Si Si7 0.500000 0.998073 0.250000
Si Si8 0.893022 0.802470 0.680443
O O1 0.194653 0.582262 0.232014
O O2 0.206750 0.725739 0.285825
O O3 0.195882 0.628057 0.513588
O O4 0.328522 0.652523 0.178230
O O5 0.436076 0.952581 0.754842
O O6 0.378146 0.051567 0.671763
O O7 0.450908 0.943095 0.440529
O O8 0.865655 0.155234 0.699914
O O9 0.737204 0.141496 0.730643
O O10 0.866637 0.186926 0.400542
O O11 0.940529 0.053383 0.755753
O O12 0.020727 0.162885 0.488147
O O13 0.956778 0.053439 0.441718
O O14 0.886222 0.711359 0.665833
#
# Coordination Sequence:
#
# PCOD9297204 Si02
#       8
#     8   8   8   8   4   8   4   8
#     4   9  19  36  59  86 116 152 195 233 279 350
#     4  11  20  40  56  87 114 152 184 245 288 322
#     4   9  18  36  60  86 114 152 198 232 279 348
#     4  11  20  40  57  90 115 156 184 246 285 328
#     4  10  24  34  56  84 122 136 198 232 280 348
#     4   9  19  36  59  86 116 152 195 233 279 350
#     4  10  24  34  54  82 116 138 196 228 274 348
#     4   9  18  36  60  86 114 152 198 232 279 348
#
# _framework density 21.635016
#
# number of rings (size 3 to 8) (size 9 to 14) (size 15 to 20)
#    0.000    2.286    2.857    1.714    0.000    4.571 
#    0.000    4.286    0.000    3.429    0.000    0.000 
#    0.000    0.000    0.000    0.000    0.000    0.000 
#
# Total GULP energy -156276.509805 kJ/mol
# GULP energy per Si atom -5581.303922 kJ/mol
# Density = 2.158577 g / cm^3
# Si number density = 21.635016 Si / 1000 Ang^3
#
#
#
# Elastic Constant Matrix: (Units=GPa)
#
#
# Indices 1 2 3 4 5 6 
#
# 1 161.3175 74.6270 12.9469 0.0000 8.4574 0.0000
# 2 74.6270 83.6745 16.8141 0.0000 -7.0276 0.0000
# 3 12.9469 16.8141 18.3865 0.0000 7.4455 0.0000
# 4 0.0000 0.0000 0.0000 6.3673 0.0000 10.4654
# 5 8.4574 -7.0276 7.4455 0.0000 23.0886 0.0000
# 6 0.0000 0.0000 0.0000 10.4654 0.0000 34.6088
#
#
#
# Elastic Compliance Matrix: (Units=1/GPa)
#
#
# Indices 1 2 3 4 5 6 
#
# 1 0.012535 -0.013866 0.008537 0.000000 -0.011565 0.000000
# 2 -0.013866 0.032357 -0.029757 0.000000 0.024524 0.000000
# 3 0.008537 -0.029757 0.092616 0.000000 -0.042051 0.000000
# 4 0.000000 0.000000 0.000000 0.312246 0.000000 -0.094421
# 5 -0.011565 0.024524 -0.042051 0.000000 0.068572 0.000000
# 6 0.000000 0.000000 0.000000 -0.094421 0.000000 0.057447
#
#
# Mechanical properties :
#
#
# Convention : Reuss Voigt Hill
#
# Bulk Modulus (GPa) = 14.85075 52.46162 33.65618
# Shear Modulus (GPa) = 7.48066 23.41232 15.44649
#
# Velocity S-wave (km/s) = 1.86150 3.29317 2.67490
# Velocity P-wave (km/s) = 3.39107 6.22584 5.01301
#
# Compressibility (1/GPa) = 0.06733666
#
# Stress axis : x y z
#
# Youngs Moduli (GPa) = 79.77822 30.90508 10.79724
#
# Poissons Ratio (x) = 0.42854 -0.09218
# Poissons Ratio (y) = 1.10622 0.32129
# Poissons Ratio (z) = -0.68108 0.91963
#
# Static dielectric constant tensor:
#      x y z
#    x 1.823020 0.000000 0.005440 
#    y 0.000000 1.758660 0.000000 
#    z 0.005440 0.000000 1.854200 
# 
# From -- ./inp_files/56522.got.cif
#   From: 2010.05.17/outbox.cif.g08.bks.cpg/sg15_29_cif.got.tgz:56522.got - 2010.06.03 18:47:42.
