data_PCOD9297101
_publ_section_title
;
Structure prediction by ZEFSAII (Michael W. Deem and Ramdas Pophale) SiO2 
 PCOD9297101
Probable space group: C 2/C
;
_chemical_formula_sum "Si O2"
_cell_formula_units_Z 48
_cell_length_a 7.422841
_cell_length_b 11.737898
_cell_length_c 23.212473
_cell_angle_alpha 90.000000
_cell_angle_beta 114.291487
_cell_angle_gamma 90.000000
_cell_volume 1843.408628
_symmetry_space_group_name_H-M "C 2/C"
_symmetry_group_IT_number 15
_symmetry_cell_setting 'monoclinic'
loop_
_space_group_symop_operation_xyz
x,y,z
-x,y,1/2-z
-x,-y,-z
x,-y,1/2+z
1/2+x,1/2+y,z
1/2-x,1/2+y,1/2-z
1/2-x,1/2-y,-z
1/2+x,1/2-y,1/2+z
loop_
_atom_site_type_symbol
_atom_site_label
_atom_site_fract_x
_atom_site_fract_y
_atom_site_fract_z
Si Si1 0.542128 0.552616 0.929428
Si Si2 0.445176 0.128372 0.010410
Si Si3 0.459295 0.702897 0.406369
Si Si4 0.002197 0.635122 0.354048
Si Si5 0.112456 0.605188 0.849737
Si Si6 0.592139 0.358214 0.202580
O O1 0.707007 0.616462 0.987555
O O2 0.569461 0.417072 0.930463
O O3 0.314175 0.581424 0.914018
O O4 0.560684 0.601796 0.867196
O O5 0.490361 0.212362 0.964123
O O6 0.534158 0.162104 0.083520
O O7 0.500000 0.000000 0.000000
O O8 0.231313 0.664271 0.370955
O O9 0.521787 0.776688 0.358823
O O10 0.972119 0.501736 0.341872
O O11 0.885360 0.721778 0.298734
O O12 0.203596 0.598183 0.797474
O O13 0.500000 0.394017 0.250000
#
# Coordination Sequence:
#
# PCOD9297101 Si02
#       6
#     8   8   8   8   8   8
#     4   9  24  41  62  92 129 167 211 260 319 389
#     4  12  24  39  65  96 139 171 205 257 328 391
#     4  11  21  41  65  94 130 168 206 259 319 389
#     4  11  23  43  62  96 130 167 212 264 315 388
#     4   9  22  42  63  95 127 160 220 255 319 386
#     4  10  23  48  66  86 126 170 215 273 322 367
#
# _framework density 26.038720000000001
#
# number of rings (size 3 to 8) (size 9 to 14) (size 15 to 20)
#    1.000    0.667    3.333    0.500    2.333    4.667 
#    3.000    0.833    0.000    0.000    0.000    0.000 
#    0.000    0.000    0.000    0.000    0.000    0.000 
#
# Total GULP energy -134384.084351 kJ/mol
# GULP energy per Si atom -5599.336848 kJ/mol
# Density = 2.597945 g / cm^3
# Si number density = 26.038720 Si / 1000 Ang^3
#
#
#
# Elastic Constant Matrix: (Units=GPa)
#
#
# Indices 1 2 3 4 5 6 
#
# 1 63.6023 16.3884 14.6299 0.0000 -4.9292 0.0000
# 2 16.3884 148.4053 12.5457 0.0000 -6.1427 0.0000
# 3 14.6299 12.5457 96.9078 0.0000 -28.1495 0.0000
# 4 0.0000 0.0000 0.0000 12.2713 0.0000 -11.8347
# 5 -4.9292 -6.1427 -28.1495 0.0000 33.9345 0.0000
# 6 0.0000 0.0000 0.0000 -11.8347 0.0000 45.4338
#
#
#
# Elastic Compliance Matrix: (Units=1/GPa)
#
#
# Indices 1 2 3 4 5 6 
#
# 1 0.016679 -0.001642 -0.002224 0.000000 0.000281 0.000000
# 2 -0.001642 0.006986 -0.000472 0.000000 0.000634 0.000000
# 3 -0.002224 -0.000472 0.013961 0.000000 0.011173 0.000000
# 4 0.000000 0.000000 0.000000 0.108831 0.000000 0.028349
# 5 0.000281 0.000634 0.011173 0.000000 0.038892 0.000000
# 6 0.000000 0.000000 0.000000 0.028349 0.000000 0.029394
#
#
# Mechanical properties :
#
#
# Convention : Reuss Voigt Hill
#
# Bulk Modulus (GPa) = 34.54261 44.00483 39.27372
# Shear Modulus (GPa) = 21.45268 36.01798 28.73533
#
# Velocity S-wave (km/s) = 2.87344 3.72324 3.32559
# Velocity P-wave (km/s) = 4.92986 5.95145 5.46458
#
# Compressibility (1/GPa) = 0.02894975
#
# Stress axis : x y z
#
# Youngs Moduli (GPa) = 59.95503 143.14679 71.62600
#
# Poissons Ratio (x) = 0.23509 0.15929
# Poissons Ratio (y) = 0.09846 0.03382
# Poissons Ratio (z) = 0.13333 0.06760
#
# Static dielectric constant tensor:
#      x y z
#    x 2.103370 0.000000 0.050640 
#    y 0.000000 2.025560 0.000000 
#    z 0.050640 0.000000 2.075290 
# 
# From -- ./inp_files/263169.got.cif
#   From: 2010.05.17/outbox.cif.g08.bks.cpg/sg15_132_cif.got.tgz:263169.got - 2010.06.03 18:47:42.
