data_PCOD9297948
_publ_section_title
;
Structure prediction by ZEFSAII (Michael W. Deem and Ramdas Pophale) SiO2 
 PCOD9297948
Probable space group: C 2/C
;
_chemical_formula_sum "Si O2"
_cell_formula_units_Z 40
_cell_length_a 9.537715
_cell_length_b 21.735597
_cell_length_c 9.403081
_cell_angle_alpha 90.000000
_cell_angle_beta 106.211621
_cell_angle_gamma 90.000000
_cell_volume 1871.822070
_symmetry_space_group_name_H-M "C 2/C"
_symmetry_group_IT_number 15
_symmetry_cell_setting 'monoclinic'
loop_
_space_group_symop_operation_xyz
x,y,z
-x,y,1/2-z
-x,-y,-z
x,-y,1/2+z
1/2+x,1/2+y,z
1/2-x,1/2+y,1/2-z
1/2-x,1/2-y,-z
1/2+x,1/2-y,1/2+z
loop_
_atom_site_type_symbol
_atom_site_label
_atom_site_fract_x
_atom_site_fract_y
_atom_site_fract_z
Si Si1 0.241639 0.290865 0.355572
Si Si2 0.500000 0.295364 0.750000
Si Si3 0.500000 0.334505 0.250000
Si Si4 0.950303 0.100874 0.458559
Si Si5 0.771328 0.432061 0.068901
Si Si6 0.344712 0.952195 0.765156
O O1 0.250000 0.250000 0.500000
O O2 0.124390 0.251562 0.236549
O O3 0.386889 0.294391 0.305067
O O4 0.201122 0.361254 0.379994
O O5 0.485046 0.342145 0.614927
O O6 0.579124 0.377424 0.389029
O O7 0.801925 0.079629 0.340808
O O8 0.094893 0.058337 0.506210
O O9 0.830573 0.478157 0.204261
O O10 0.837396 0.446428 0.932998
O O11 0.500000 0.927644 0.750000
#
# Coordination Sequence:
#
# PCOD9297948 Si02
#       6
#     8   4   4   8   8   8
#     4  11  23  46  69 101 146 177 237 294 348 425
#     4  12  22  46  75  98 143 192 230 300 354 414
#     4  10  24  42  73 108 131 186 246 278 362 412
#     4  11  23  47  71 105 137 190 242 287 353 428
#     4  11  25  46  71 102 145 190 234 290 359 425
#     4  12  26  44  70 105 144 183 240 294 355 415
#
# _framework density 21.369551000000001
#
# number of rings (size 3 to 8) (size 9 to 14) (size 15 to 20)
#    0.000    0.800    6.000    1.200    7.000    2.400 
#    7.200    0.000    0.000    0.000    0.000    0.000 
#    0.000    0.000    0.000    0.000    0.000    0.000 
#
# Total GULP energy -111634.044543 kJ/mol
# GULP energy per Si atom -5581.702227 kJ/mol
# Density = 2.132091 g / cm^3
# Si number density = 21.369551 Si / 1000 Ang^3
#
#
#
# Elastic Constant Matrix: (Units=GPa)
#
#
# Indices 1 2 3 4 5 6 
#
# 1 110.0037 32.5763 12.7388 0.0000 -21.9425 0.0000
# 2 32.5763 92.0565 30.5780 0.0000 -10.6432 0.0000
# 3 12.7388 30.5780 73.3967 0.0000 -30.9817 0.0000
# 4 0.0000 0.0000 0.0000 37.6090 0.0000 5.6403
# 5 -21.9425 -10.6432 -30.9817 0.0000 37.8201 0.0000
# 6 0.0000 0.0000 0.0000 5.6403 0.0000 38.1340
#
#
#
# Elastic Compliance Matrix: (Units=1/GPa)
#
#
# Indices 1 2 3 4 5 6 
#
# 1 0.011597 -0.004220 0.003186 0.000000 0.008151 0.000000
# 2 -0.004220 0.014176 -0.006914 0.000000 -0.004122 0.000000
# 3 0.003186 -0.006914 0.024321 0.000000 0.019826 0.000000
# 4 0.000000 0.000000 0.000000 0.027193 0.000000 -0.004022
# 5 0.008151 -0.004122 0.019826 0.000000 0.046251 0.000000
# 6 0.000000 0.000000 0.000000 -0.004022 0.000000 0.026818
#
#
# Mechanical properties :
#
#
# Convention : Reuss Voigt Hill
#
# Bulk Modulus (GPa) = 29.24109 47.47147 38.35628
# Shear Modulus (GPa) = 28.14515 36.01686 32.08101
#
# Velocity S-wave (km/s) = 3.63308 4.10985 3.87880
# Velocity P-wave (km/s) = 5.59574 6.69208 6.16831
#
# Compressibility (1/GPa) = 0.03419845
#
# Stress axis : x y z
#
# Youngs Moduli (GPa) = 86.22823 70.54174 41.11710
#
# Poissons Ratio (x) = 0.29767 -0.13099
# Poissons Ratio (y) = 0.36386 0.28427
# Poissons Ratio (z) = -0.27469 0.48770
#
# Static dielectric constant tensor:
#      x y z
#    x 1.860620 0.000000 0.114390 
#    y 0.000000 1.790420 0.000000 
#    z 0.114390 0.000000 1.832990 
# 
# From -- ./inp_files/23820.got.cif
#   From: 2010.05.17/outbox.cif.g08.bks.cpg/sg15_12_cif.got.tgz:23820.got - 2010.06.03 18:47:42.
