data_PCOD9297078
_publ_section_title
;
Structure prediction by ZEFSAII (Michael W. Deem and Ramdas Pophale) SiO2 
 PCOD9297078
Probable space group: C 2/C
;
_chemical_formula_sum "Si O2"
_cell_formula_units_Z 20
_cell_length_a 8.305529
_cell_length_b 10.691398
_cell_length_c 11.245805
_cell_angle_alpha 90.000000
_cell_angle_beta 136.529344
_cell_angle_gamma 90.000000
_cell_volume 687.021048
_symmetry_space_group_name_H-M "C 2/C"
_symmetry_group_IT_number 15
_symmetry_cell_setting 'monoclinic'
loop_
_space_group_symop_operation_xyz
x,y,z
-x,y,1/2-z
-x,-y,-z
x,-y,1/2+z
1/2+x,1/2+y,z
1/2-x,1/2+y,1/2-z
1/2-x,1/2-y,-z
1/2+x,1/2-y,1/2+z
loop_
_atom_site_type_symbol
_atom_site_label
_atom_site_fract_x
_atom_site_fract_y
_atom_site_fract_z
Si Si1 0.200104 0.526871 0.952051
Si Si2 0.724066 0.238235 0.139552
Si Si3 0.000000 0.176680 0.750000
O O1 0.352009 0.628532 0.958189
O O2 0.000000 0.494836 0.750000
O O3 0.120254 0.616386 0.019421
O O4 0.336214 0.413026 0.082735
O O5 0.653841 0.246444 0.238325
O O6 0.000000 0.232805 0.250000
#
# Coordination Sequence:
#
# PCOD9297078 Si02
#       3
#     8   8   4
#     4  10  23  48  74 108 159 193 248 331 375 447
#     4  10  23  47  76 108 153 200 249 320 383 453
#     4  12  24  48  80 108 144 210 256 302 392 466
#
# _framework density 29.111189
#
# number of rings (size 3 to 8) (size 9 to 14) (size 15 to 20)
#    0.000    1.600    2.000    1.200    2.800    6.400 
#   10.800   18.000    0.000    0.000    0.000    0.000 
#    0.000    0.000    0.000    0.000    0.000    0.000 
#
# Total GULP energy -56077.060251 kJ/mol
# GULP energy per Si atom -5607.706025 kJ/mol
# Density = 2.904493 g / cm^3
# Si number density = 29.111189 Si / 1000 Ang^3
#
#
#
# Elastic Constant Matrix: (Units=GPa)
#
#
# Indices 1 2 3 4 5 6 
#
# 1 268.1369 104.5917 120.6169 0.0004 -41.9708 0.0005
# 2 104.5917 165.7708 105.8689 0.0001 -15.7662 0.0001
# 3 120.6169 105.8689 262.9361 0.0005 -24.3993 0.0007
# 4 0.0004 0.0001 0.0005 48.3555 0.0004 2.0384
# 5 -41.9708 -15.7662 -24.3993 0.0004 50.6778 0.0006
# 6 0.0005 0.0001 0.0007 2.0384 0.0006 43.8680
#
#
#
# Elastic Compliance Matrix: (Units=1/GPa)
#
#
# Indices 1 2 3 4 5 6 
#
# 1 0.005850 -0.002497 -0.001362 0.000000 0.003413 0.000000
# 2 -0.002497 0.009235 -0.002615 0.000000 -0.000454 0.000000
# 3 -0.001362 -0.002615 0.005548 0.000000 0.000730 0.000000
# 4 0.000000 0.000000 0.000000 0.020721 0.000000 -0.000963
# 5 0.003413 -0.000454 0.000730 0.000000 0.022769 0.000000
# 6 0.000000 0.000000 0.000000 -0.000963 0.000000 0.022840
#
#
# Mechanical properties :
#
#
# Convention : Reuss Voigt Hill
#
# Bulk Modulus (GPa) = 130.10186 150.99987 140.55086
# Shear Modulus (GPa) = 48.79359 52.96469 50.87914
#
# Velocity S-wave (km/s) = 4.09848 4.27006 4.18515
# Velocity P-wave (km/s) = 8.19665 8.73464 8.46992
#
# Compressibility (1/GPa) = 0.00768629
#
# Stress axis : x y z
#
# Youngs Moduli (GPa) = 170.93875 108.28706 180.23038
#
# Poissons Ratio (x) = 0.27038 0.24539
# Poissons Ratio (y) = 0.42682 0.47130
# Poissons Ratio (z) = 0.23274 0.28317
#
# Static dielectric constant tensor:
#      x y z
#    x 2.253650 0.000000 0.044390 
#    y 0.000000 2.256000 0.000000 
#    z 0.044390 0.000000 2.411190 
# 
# From -- ./inp_files/20595.got.cif
#   From: 2010.05.17/outbox.cif.g08.bks.cpg/sg15_11_cif.got.tgz:20595.got - 2010.06.03 18:47:42.
