data_PCOD9297639
_publ_section_title
;
Structure prediction by ZEFSAII (Michael W. Deem and Ramdas Pophale) SiO2 
 PCOD9297639
Probable space group: C 2/C
;
_chemical_formula_sum "Si O2"
_cell_formula_units_Z 60
_cell_length_a 10.537037
_cell_length_b 16.198396
_cell_length_c 15.759935
_cell_angle_alpha 90.000000
_cell_angle_beta 70.981438
_cell_angle_gamma 90.000000
_cell_volume 2543.118123
_symmetry_space_group_name_H-M "C 2/C"
_symmetry_group_IT_number 15
_symmetry_cell_setting 'monoclinic'
loop_
_space_group_symop_operation_xyz
x,y,z
-x,y,1/2-z
-x,-y,-z
x,-y,1/2+z
1/2+x,1/2+y,z
1/2-x,1/2+y,1/2-z
1/2-x,1/2-y,-z
1/2+x,1/2-y,1/2+z
loop_
_atom_site_type_symbol
_atom_site_label
_atom_site_fract_x
_atom_site_fract_y
_atom_site_fract_z
Si Si1 0.716025 0.563563 0.182450
Si Si2 0.382403 0.079276 0.441586
Si Si3 0.000000 0.702785 0.750000
Si Si4 0.976192 0.753471 0.354615
Si Si5 0.262597 0.771372 0.597863
Si Si6 0.070495 0.429933 0.374318
Si Si7 0.549281 0.439813 0.869896
Si Si8 0.919689 0.902091 0.464679
O O1 0.794262 0.632864 0.113379
O O2 0.789226 0.476913 0.166996
O O3 0.577805 0.562225 0.162788
O O4 0.680253 0.582089 0.287654
O O5 0.410648 0.164648 0.387158
O O6 0.435837 0.093176 0.525663
O O7 0.225023 0.057003 0.483741
O O8 0.459395 0.001653 0.384086
O O9 0.876253 0.751751 0.820878
O O10 0.945612 0.644382 0.686673
O O11 0.887041 0.828205 0.409023
O O12 0.000000 0.761344 0.250000
O O13 0.112462 0.769650 0.379793
O O14 0.250000 0.750000 0.500000
O O15 0.531462 0.533694 0.907385
O O16 0.533426 0.377642 0.951273
#
# Coordination Sequence:
#
# PCOD9297639 Si02
#       8
#     8   8   4   8   8   8   8   8
#     4  11  23  47  73 101 146 188 246 302 372 442
#     4  11  25  47  69 103 145 189 241 307 384 438
#     4  12  30  44  84 114 148 202 266 310 382 462
#     4  12  29  45  72 105 148 197 243 311 383 455
#     4  12  28  52  76 110 156 201 254 315 382 464
#     4  11  26  45  75 105 140 191 244 314 367 448
#     4  10  24  41  73 103 134 190 237 302 368 449
#     4  11  25  43  70 105 145 183 245 301 378 447
#
# _framework density 23.593084999999999
#
# number of rings (size 3 to 8) (size 9 to 14) (size 15 to 20)
#    0.000    0.800    2.667    2.800   12.133    2.133 
#    0.000    0.000    0.000    0.000    0.000    0.000 
#    0.000    0.000    0.000    0.000    0.000    0.000 
#
# Total GULP energy -167658.168681 kJ/mol
# GULP energy per Si atom -5588.605623 kJ/mol
# Density = 2.353939 g / cm^3
# Si number density = 23.593085 Si / 1000 Ang^3
#
#
#
# Elastic Constant Matrix: (Units=GPa)
#
#
# Indices 1 2 3 4 5 6 
#
# 1 65.2752 21.3354 24.4304 0.0000 -4.8495 0.0000
# 2 21.3354 60.6737 40.7924 0.0000 4.6358 0.0000
# 3 24.4304 40.7924 154.2504 0.0000 4.1312 0.0000
# 4 0.0000 0.0000 0.0000 36.2332 0.0000 -25.5530
# 5 -4.8495 4.6358 4.1312 0.0000 29.4337 0.0000
# 6 0.0000 0.0000 0.0000 -25.5530 0.0000 -461.1897
#
#
#
# Elastic Compliance Matrix: (Units=1/GPa)
#
#
# Indices 1 2 3 4 5 6 
#
# 1 0.018021 -0.005662 -0.001466 0.000000 0.004067 0.000000
# 2 -0.005662 0.021998 -0.004821 0.000000 -0.003721 0.000000
# 3 -0.001466 -0.004821 0.008006 0.000000 -0.000606 0.000000
# 4 0.000000 0.000000 0.000000 0.026561 0.000000 -0.001472
# 5 0.004067 -0.003721 -0.000606 0.000000 0.035316 0.000000
# 6 0.000000 0.000000 0.000000 -0.001472 0.000000 -0.002087
#
#
# Mechanical properties :
#
#
# Convention : Reuss Voigt Hill
#
# Bulk Modulus (GPa) = 41.44633 50.36840 45.90737
# Shear Modulus (GPa) = 35.77643 -66.19515 -15.20936
#
# Velocity S-wave (km/s) = 3.89832 -5.30263 -2.54176
# Velocity P-wave (km/s) = 6.15368 4.01191 3.29942
#
# Compressibility (1/GPa) = 0.02412759
#
# Stress axis : x y z
#
# Youngs Moduli (GPa) = 55.49024 45.45791 124.90146
#
# Poissons Ratio (x) = 0.25740 0.18307
# Poissons Ratio (y) = 0.31420 0.60217
# Poissons Ratio (z) = 0.08133 0.21916
#
# Static dielectric constant tensor:
#      x y z
#    x 2.048120 0.000000 -0.105160 
#    y 0.000000 1.943590 0.000000 
#    z -0.105160 0.000000 2.048460 
# 
# From -- ./inp_files/146046.got.cif
#   From: 2010.05.17/outbox.cif.g08.bks.cpg/sg15_74_cif.got.tgz:146046.got - 2010.06.03 18:47:42.
