data_PCOD9297952
_publ_section_title
;
Structure prediction by ZEFSAII (Michael W. Deem and Ramdas Pophale) SiO2 
 PCOD9297952
Probable space group: C 2/C
;
_chemical_formula_sum "Si O2"
_cell_formula_units_Z 44
_cell_length_a 6.646146
_cell_length_b 28.348009
_cell_length_c 11.811101
_cell_angle_alpha 90.000000
_cell_angle_beta 89.813847
_cell_angle_gamma 90.000000
_cell_volume 2225.258817
_symmetry_space_group_name_H-M "C 2/C"
_symmetry_group_IT_number 15
_symmetry_cell_setting 'monoclinic'
loop_
_space_group_symop_operation_xyz
x,y,z
-x,y,1/2-z
-x,-y,-z
x,-y,1/2+z
1/2+x,1/2+y,z
1/2-x,1/2+y,1/2-z
1/2-x,1/2-y,-z
1/2+x,1/2-y,1/2+z
loop_
_atom_site_type_symbol
_atom_site_label
_atom_site_fract_x
_atom_site_fract_y
_atom_site_fract_z
Si Si1 0.301624 0.642489 0.557716
Si Si2 0.036126 0.366281 0.617843
Si Si3 0.818260 0.530604 0.455298
Si Si4 0.787570 0.197929 0.952680
Si Si5 0.000000 0.669354 0.750000
Si Si6 0.469662 0.547290 0.623975
O O1 0.483813 0.679887 0.570503
O O2 0.380482 0.589387 0.550249
O O3 0.165689 0.649533 0.447705
O O4 0.151659 0.642680 0.665584
O O5 0.098675 0.420988 0.597515
O O6 0.206614 0.336853 0.551415
O O7 0.000000 0.357528 0.750000
O O8 0.681816 0.538263 0.565989
O O9 0.674024 0.498475 0.376393
O O10 0.000000 0.500000 0.500000
O O11 0.650622 0.194333 0.839398
O O12 0.750000 0.250000 0.000000
O O13 0.500000 0.565025 0.750000
#
# Coordination Sequence:
#
# PCOD9297952 Si02
#       6
#     8   8   8   8   4   8
#     4  11  23  44  67 100 133 174 226 280 336 399
#     4  11  26  43  66  98 139 182 225 283 340 409
#     4  11  24  42  60  96 134 177 226 268 338 397
#     4  11  25  46  71  99 135 174 226 278 344 409
#     4  10  24  42  74 100 132 168 216 284 334 400
#     4  11  24  38  67  95 132 177 228 277 326 403
#
# _framework density 19.772981999999999
#
# number of rings (size 3 to 8) (size 9 to 14) (size 15 to 20)
#    0.000    1.091    3.636    1.636    5.091    6.545 
#    0.000    0.000    0.000    0.000    0.000    0.000 
#    0.000    0.000    0.000    0.000    0.000    0.000 
#
# Total GULP energy -122719.823171 kJ/mol
# GULP energy per Si atom -5578.173781 kJ/mol
# Density = 1.972798 g / cm^3
# Si number density = 19.772982 Si / 1000 Ang^3
#
#
#
# Elastic Constant Matrix: (Units=GPa)
#
#
# Indices 1 2 3 4 5 6 
#
# 1 134.0420 31.9059 47.7226 0.0000 -15.7716 0.0000
# 2 31.9059 86.7124 20.6338 0.0000 -11.5502 0.0000
# 3 47.7226 20.6338 110.0059 0.0000 5.2109 0.0000
# 4 0.0000 0.0000 0.0000 25.8846 0.0000 10.5026
# 5 -15.7716 -11.5502 5.2109 0.0000 16.2392 0.0000
# 6 0.0000 0.0000 0.0000 10.5026 0.0000 17.0765
#
#
#
# Elastic Compliance Matrix: (Units=1/GPa)
#
#
# Indices 1 2 3 4 5 6 
#
# 1 0.010877 -0.001315 -0.005004 0.000000 0.011234 0.000000
# 2 -0.001315 0.013852 -0.002472 0.000000 0.009368 0.000000
# 3 -0.005004 -0.002472 0.012224 0.000000 -0.010540 0.000000
# 4 0.000000 0.000000 0.000000 0.051480 0.000000 -0.031662
# 5 0.011234 0.009368 -0.010540 0.000000 0.082535 0.000000
# 6 0.000000 0.000000 0.000000 -0.031662 0.000000 0.078033
#
#
# Mechanical properties :
#
#
# Convention : Reuss Voigt Hill
#
# Bulk Modulus (GPa) = 51.62099 59.03165 55.32632
# Shear Modulus (GPa) = 18.31234 27.20658 22.75946
#
# Velocity S-wave (km/s) = 3.04654 3.71340 3.39638
# Velocity P-wave (km/s) = 6.20795 6.95020 6.58954
#
# Compressibility (1/GPa) = 0.01937197
#
# Stress axis : x y z
#
# Youngs Moduli (GPa) = 91.93942 72.19045 81.80537
#
# Poissons Ratio (x) = 0.09493 0.40936
# Poissons Ratio (y) = 0.12090 0.20219
# Poissons Ratio (z) = 0.46007 0.17842
#
# Static dielectric constant tensor:
#      x y z
#    x 4.021850 0.000000 -0.258220 
#    y 0.000000 1.856160 0.000000 
#    z -0.258220 0.000000 1.710020 
# 
# From -- ./inp_files/73874.got.cif
#   From: 2010.05.17/outbox.cif.g08.bks.cpg/sg15_37_cif.got.tgz:73874.got - 2010.06.03 18:47:42.
