data_PCOD9297649
_publ_section_title
;
Structure prediction by ZEFSAII (Michael W. Deem and Ramdas Pophale) SiO2 
 PCOD9297649
Probable space group: C 2/C
;
_chemical_formula_sum "Si O2"
_cell_formula_units_Z 60
_cell_length_a 18.856169
_cell_length_b 5.029912
_cell_length_c 32.181265
_cell_angle_alpha 90.000000
_cell_angle_beta 121.784722
_cell_angle_gamma 90.000000
_cell_volume 2594.494992
_symmetry_space_group_name_H-M "C 2/C"
_symmetry_group_IT_number 15
_symmetry_cell_setting 'monoclinic'
loop_
_space_group_symop_operation_xyz
x,y,z
-x,y,1/2-z
-x,-y,-z
x,-y,1/2+z
1/2+x,1/2+y,z
1/2-x,1/2+y,1/2-z
1/2-x,1/2-y,-z
1/2+x,1/2-y,1/2+z
loop_
_atom_site_type_symbol
_atom_site_label
_atom_site_fract_x
_atom_site_fract_y
_atom_site_fract_z
Si Si1 0.059073 0.154653 0.199729
Si Si2 0.547023 0.748998 0.033342
Si Si3 0.764673 0.726492 0.899794
Si Si4 0.552867 0.995848 0.623626
Si Si5 0.217376 0.892786 0.260271
Si Si6 0.785394 0.232996 0.853738
Si Si7 0.500000 0.013053 0.250000
Si Si8 0.076407 0.772750 0.356039
O O1 0.093654 0.329771 0.172877
O O2 0.117405 0.900477 0.224099
O O3 0.059143 0.320917 0.241671
O O4 0.965524 0.065136 0.159261
O O5 0.645043 0.718871 0.052293
O O6 0.540671 0.810014 0.080775
O O7 0.500000 0.500000 0.000000
O O8 0.500000 0.000000 0.000000
O O9 0.771946 0.417256 0.889878
O O10 0.674563 0.752671 0.892800
O O11 0.763157 0.935727 0.860451
O O12 0.617583 0.769161 0.629069
O O13 0.473181 0.871139 0.621934
O O14 0.252717 0.090928 0.234955
O O15 0.238087 0.080764 0.305689
O O16 0.551042 0.165257 0.301843
#
# Coordination Sequence:
#
# PCOD9297649 Si02
#       8
#     8   8   8   8   8   8   4   8
#     4  11  24  40  64  94 144 190 240 279 346 401
#     4  11  25  49  78 103 134 171 228 299 370 438
#     4  11  26  44  72 103 136 179 229 285 360 418
#     4  10  24  44  69 101 134 183 228 287 358 422
#     4  12  24  37  59  94 133 181 237 283 322 384
#     4  11  23  42  66  98 140 182 235 284 334 407
#     4  10  24  42  58  98 138 198 238 270 328 394
#     4  11  25  42  70  98 147 192 232 286 337 417
#
# _framework density 23.125886999999999
#
# number of rings (size 3 to 8) (size 9 to 14) (size 15 to 20)
#    0.000    1.067    1.333    4.400   16.800    0.000 
#    0.000    1.333    0.000    0.000    0.000    0.000 
#    0.000    0.000    0.000    0.000    0.000    0.000 
#
# Total GULP energy -167581.188919 kJ/mol
# GULP energy per Si atom -5586.039631 kJ/mol
# Density = 2.307325 g / cm^3
# Si number density = 23.125887 Si / 1000 Ang^3
#
#
#
# Elastic Constant Matrix: (Units=GPa)
#
#
# Indices 1 2 3 4 5 6 
#
# 1 172.7078 32.0850 35.5056 -0.0008 22.7349 0.0003
# 2 32.0850 119.0064 13.5605 -0.0052 -3.7696 0.0004
# 3 35.5056 13.5605 55.4655 -0.0011 4.3803 0.0007
# 4 -0.0008 -0.0052 -0.0011 29.6635 0.0004 2.5143
# 5 22.7349 -3.7696 4.3803 0.0004 39.8261 -0.0004
# 6 0.0003 0.0004 0.0007 2.5143 -0.0004 29.0343
#
#
#
# Elastic Compliance Matrix: (Units=1/GPa)
#
#
# Indices 1 2 3 4 5 6 
#
# 1 0.007456 -0.001675 -0.004050 0.000000 -0.003970 0.000000
# 2 -0.001675 0.009064 -0.001299 0.000001 0.001957 0.000000
# 3 -0.004050 -0.001299 0.020949 0.000001 -0.000115 -0.000001
# 4 0.000000 0.000001 0.000001 0.033961 0.000000 -0.002941
# 5 -0.003970 0.001957 -0.000115 0.000000 0.027573 0.000000
# 6 0.000000 0.000000 -0.000001 -0.002941 0.000000 0.034697
#
#
# Mechanical properties :
#
#
# Convention : Reuss Voigt Hill
#
# Bulk Modulus (GPa) = 42.69430 56.60909 49.65169
# Shear Modulus (GPa) = 32.14317 37.44004 34.79160
#
# Velocity S-wave (km/s) = 3.73221 4.02800 3.88292
# Velocity P-wave (km/s) = 6.08887 6.79448 6.45132
#
# Compressibility (1/GPa) = 0.02342233
#
# Stress axis : x y z
#
# Youngs Moduli (GPa) = 134.11277 110.32249 47.73609
#
# Poissons Ratio (x) = 0.18474 0.19334
# Poissons Ratio (y) = 0.22458 0.06199
# Poissons Ratio (z) = 0.54319 0.14327
#
# Static dielectric constant tensor:
#      x y z
#    x 1.913740 0.000000 0.011410 
#    y 0.000000 1.860470 0.000000 
#    z 0.011410 0.000000 1.917410 
# 
# From -- ./inp_files/315116.got.cif
#   From: 2010.05.17/outbox.cif.g08.bks.cpg/sg15_158_cif.got.tgz:315116.got - 2010.06.03 18:47:42.
