data_PCOD9297841
_publ_section_title
;
Structure prediction by ZEFSAII (Michael W. Deem and Ramdas Pophale) SiO2 
 PCOD9297841
Probable space group: C 2/C
;
_chemical_formula_sum "Si O2"
_cell_formula_units_Z 56
_cell_length_a 25.775971
_cell_length_b 13.202802
_cell_length_c 8.696962
_cell_angle_alpha 90.000000
_cell_angle_beta 73.882518
_cell_angle_gamma 90.000000
_cell_volume 2843.374208
_symmetry_space_group_name_H-M "C 2/C"
_symmetry_group_IT_number 15
_symmetry_cell_setting 'monoclinic'
loop_
_space_group_symop_operation_xyz
x,y,z
-x,y,1/2-z
-x,-y,-z
x,-y,1/2+z
1/2+x,1/2+y,z
1/2-x,1/2+y,1/2-z
1/2-x,1/2-y,-z
1/2+x,1/2-y,1/2+z
loop_
_atom_site_type_symbol
_atom_site_label
_atom_site_fract_x
_atom_site_fract_y
_atom_site_fract_z
Si Si1 0.507365 0.610413 0.425145
Si Si2 0.042760 0.531862 0.341100
Si Si3 0.738038 0.363560 0.933947
Si Si4 0.292535 0.959162 0.589695
Si Si5 0.120173 0.808106 0.960629
Si Si6 0.359481 0.894460 0.247888
Si Si7 0.555141 0.249265 0.306364
O O1 0.500000 0.610585 0.250000
O O2 0.500000 0.500000 0.500000
O O3 0.567740 0.643772 0.423527
O O4 0.461159 0.680848 0.538338
O O5 0.082562 0.443090 0.259448
O O6 0.070870 0.637954 0.353630
O O7 0.000000 0.561427 0.250000
O O8 0.000000 0.500000 0.500000
O O9 0.768031 0.388972 0.746173
O O10 0.675012 0.369353 0.941130
O O11 0.750000 0.250000 0.000000
O O12 0.754596 0.454607 0.038314
O O13 0.320431 0.897351 0.427531
O O14 0.336632 0.027635 0.640140
O O15 0.134476 0.711182 0.843847
O O16 0.100922 0.779575 0.148422
O O17 0.500000 0.256430 0.250000
#
# Coordination Sequence:
#
# PCOD9297841 Si02
#       7
#     8   8   8   8   8   8   8
#     4  11  24  43  65  92 131 168 221 277 331 404
#     4  11  21  33  56  90 131 162 204 259 316 404
#     4  11  24  47  69  98 135 174 232 290 347 412
#     4  10  24  42  68  97 132 177 223 284 343 412
#     4  11  23  42  67  93 129 177 221 274 339 392
#     4  11  21  40  63  95 132 174 218 268 343 402
#     4   9  20  38  60  89 126 169 211 263 329 393
#
# _framework density 19.69491
#
# number of rings (size 3 to 8) (size 9 to 14) (size 15 to 20)
#    0.000    1.429    1.429    5.571    2.000    6.286 
#    0.000    0.000    0.000    0.000    0.000    0.000 
#    0.000    0.000    0.000    0.000    0.000    0.000 
#
# Total GULP energy -156008.828403 kJ/mol
# GULP energy per Si atom -5571.743872 kJ/mol
# Density = 1.965008 g / cm^3
# Si number density = 19.694910 Si / 1000 Ang^3
#
#
#
# Elastic Constant Matrix: (Units=GPa)
#
#
# Indices 1 2 3 4 5 6 
#
# 1 76.1269 37.6003 34.4487 0.0000 -10.8644 0.0000
# 2 37.6003 79.0328 70.6145 0.0000 2.0605 0.0000
# 3 34.4487 70.6145 164.7018 0.0000 1.5456 0.0000
# 4 0.0000 0.0000 0.0000 34.7624 0.0000 3.7467
# 5 -10.8644 2.0605 1.5456 0.0000 24.6389 0.0000
# 6 0.0000 0.0000 0.0000 3.7467 0.0000 9.7773
#
#
#
# Elastic Compliance Matrix: (Units=1/GPa)
#
#
# Indices 1 2 3 4 5 6 
#
# 1 0.019038 -0.009177 -0.000133 0.000000 0.009171 0.000000
# 2 -0.009177 0.024967 -0.008733 0.000000 -0.005587 0.000000
# 3 -0.000133 -0.008733 0.009843 0.000000 0.000054 0.000000
# 4 0.000000 0.000000 0.000000 0.030006 0.000000 -0.011498
# 5 0.009171 -0.005587 0.000054 0.000000 0.045094 0.000000
# 6 0.000000 0.000000 0.000000 -0.011498 0.000000 0.106683
#
#
# Mechanical properties :
#
#
# Convention : Reuss Voigt Hill
#
# Bulk Modulus (GPa) = 56.30103 67.24317 61.77210
# Shear Modulus (GPa) = 18.00904 25.64894 21.82899
#
# Velocity S-wave (km/s) = 3.02719 3.61267 3.33281
# Velocity P-wave (km/s) = 6.39274 7.18459 6.80020
#
# Compressibility (1/GPa) = 0.01776167
#
# Stress axis : x y z
#
# Youngs Moduli (GPa) = 52.52674 40.05254 101.59578
#
# Poissons Ratio (x) = 0.36758 0.01354
# Poissons Ratio (y) = 0.48206 0.88719
# Poissons Ratio (z) = 0.00700 0.34976
#
# Static dielectric constant tensor:
#      x y z
#    x 1.771100 0.000000 0.006730 
#    y 0.000000 1.762870 0.000000 
#    z 0.006730 0.000000 1.695220 
# 
# From -- ./inp_files/65405.got.cif
#   From: 2010.05.17/outbox.cif.g08.bks.cpg/sg15_33_cif.got.tgz:65405.got - 2010.06.03 18:47:42.
