data_PCOD9297306
_publ_section_title
;
Structure prediction by ZEFSAII (Michael W. Deem and Ramdas Pophale) SiO2 
 PCOD9297306
Probable space group: C 2/C
;
_chemical_formula_sum "Si O2"
_cell_formula_units_Z 44
_cell_length_a 16.331990
_cell_length_b 11.189371
_cell_length_c 26.889896
_cell_angle_alpha 90.000000
_cell_angle_beta 21.565845
_cell_angle_gamma 90.000000
_cell_volume 1806.234917
_symmetry_space_group_name_H-M "C 2/C"
_symmetry_group_IT_number 15
_symmetry_cell_setting 'monoclinic'
loop_
_space_group_symop_operation_xyz
x,y,z
-x,y,1/2-z
-x,-y,-z
x,-y,1/2+z
1/2+x,1/2+y,z
1/2-x,1/2+y,1/2-z
1/2-x,1/2-y,-z
1/2+x,1/2-y,1/2+z
loop_
_atom_site_type_symbol
_atom_site_label
_atom_site_fract_x
_atom_site_fract_y
_atom_site_fract_z
Si Si1 0.521763 0.622332 0.017391
Si Si2 0.515864 0.838646 0.537869
Si Si3 0.500000 0.340350 0.250000
Si Si4 0.536720 0.661430 0.289110
Si Si5 0.550537 0.832529 0.815598
Si Si6 0.357365 0.095761 0.914490
O O1 0.312416 0.642560 0.171098
O O2 0.500000 0.500000 0.000000
O O3 0.509363 0.732012 0.986895
O O4 0.733768 0.617072 0.932303
O O5 0.273397 0.900678 0.669327
O O6 0.530932 0.788190 0.585214
O O7 0.755371 0.901037 0.392262
O O8 0.487800 0.256179 0.208295
O O9 0.500000 0.659552 0.250000
O O10 0.538135 0.797633 0.311019
O O11 0.320239 0.609840 0.440242
O O12 0.447074 0.962475 0.864565
#
# Coordination Sequence:
#
# PCOD9297306 Si02
#       6
#     8   8   4   8   8   8
#     4  11  22  39  69 101 131 177 234 282 330 415
#     4  11  22  42  65  98 137 174 227 285 352 399
#     4  10  24  38  68  94 136 182 224 276 344 422
#     4  11  23  42  69  95 134 178 232 283 344 408
#     4  11  23  41  63 101 136 177 231 282 348 409
#     4  11  23  40  66  99 131 178 227 284 338 407
#
# _framework density 24.360064999999999
#
# number of rings (size 3 to 8) (size 9 to 14) (size 15 to 20)
#    0.000    1.091    3.636    3.818    1.273    0.000 
#    1.636    2.727    0.000    0.000    0.000    0.000 
#    0.000    0.000    0.000    0.000    0.000    0.000 
#
# Total GULP energy -123036.921552 kJ/mol
# GULP energy per Si atom -5592.587343 kJ/mol
# Density = 2.430462 g / cm^3
# Si number density = 24.360065 Si / 1000 Ang^3
#
#
#
# Elastic Constant Matrix: (Units=GPa)
#
#
# Indices 1 2 3 4 5 6 
#
# 1 132.6877 16.6111 42.9911 -0.0053 19.7560 0.0021
# 2 16.6111 45.3830 5.3043 0.0018 7.5825 0.0023
# 3 42.9911 5.3043 172.1787 -0.0018 -7.5063 0.0129
# 4 -0.0053 0.0018 -0.0018 7.9367 0.0065 6.1502
# 5 19.7560 7.5825 -7.5063 0.0065 55.0545 -0.0031
# 6 0.0021 0.0023 0.0129 6.1502 -0.0031 22.1789
#
#
#
# Elastic Compliance Matrix: (Units=1/GPa)
#
#
# Indices 1 2 3 4 5 6 
#
# 1 0.009088 -0.002514 -0.002333 0.000011 -0.003233 -0.000003
# 2 -0.002514 0.023369 -0.000194 -0.000004 -0.002343 -0.000001
# 3 -0.002333 -0.000194 0.006473 0.000001 0.001746 -0.000004
# 4 0.000011 -0.000004 0.000001 0.160482 -0.000025 -0.044502
# 5 -0.003233 -0.002343 0.001746 -0.000025 0.019885 0.000009
# 6 -0.000003 -0.000001 -0.000004 -0.044502 0.000009 0.057428
#
#
# Mechanical properties :
#
#
# Convention : Reuss Voigt Hill
#
# Bulk Modulus (GPa) = 34.66439 53.34026 44.00232
# Shear Modulus (GPa) = 16.86782 36.05687 26.46235
#
# Velocity S-wave (km/s) = 2.63428 3.85146 3.29948
# Velocity P-wave (km/s) = 4.84907 6.45929 5.71121
#
# Compressibility (1/GPa) = 0.02884805
#
# Stress axis : x y z
#
# Youngs Moduli (GPa) = 110.03037 42.79182 154.49946
#
# Poissons Ratio (x) = 0.10757 0.36041
# Poissons Ratio (y) = 0.27658 0.03004
# Poissons Ratio (z) = 0.25668 0.00832
#
# Static dielectric constant tensor:
#      x y z
#    x 1.886590 -0.000030 -0.045680 
#    y -0.000030 5.125720 -0.000990 
#    z -0.045680 -0.000990 2.051080 
# 
# From -- ./inp_files/299138.got.cif
#   From: 2010.05.17/outbox.cif.g08.bks.cpg/sg15_150_cif.got.tgz:299138.got - 2010.06.03 18:47:42.
