data_PCOD9297476
_publ_section_title
;
Structure prediction by ZEFSAII (Michael W. Deem and Ramdas Pophale) SiO2 
 PCOD9297476
Probable space group: C 2/C
;
_chemical_formula_sum "Si O2"
_cell_formula_units_Z 64
_cell_length_a 23.324484
_cell_length_b 8.757791
_cell_length_c 16.594992
_cell_angle_alpha 90.000000
_cell_angle_beta 51.417479
_cell_angle_gamma 90.000000
_cell_volume 2649.901672
_symmetry_space_group_name_H-M "C 2/C"
_symmetry_group_IT_number 15
_symmetry_cell_setting 'monoclinic'
loop_
_space_group_symop_operation_xyz
x,y,z
-x,y,1/2-z
-x,-y,-z
x,-y,1/2+z
1/2+x,1/2+y,z
1/2-x,1/2+y,1/2-z
1/2-x,1/2-y,-z
1/2+x,1/2-y,1/2+z
loop_
_atom_site_type_symbol
_atom_site_label
_atom_site_fract_x
_atom_site_fract_y
_atom_site_fract_z
Si Si1 0.055132 0.816135 0.437043
Si Si2 0.035249 0.780227 0.630729
Si Si3 0.315559 0.439462 0.681383
Si Si4 0.679863 0.855162 0.998922
Si Si5 0.836511 0.325786 0.041765
Si Si6 0.687048 0.221039 0.675628
Si Si7 0.856144 0.508255 0.169603
Si Si8 0.954358 0.872718 0.369366
O O1 0.007547 0.798419 0.561610
O O2 0.102218 0.666134 0.371363
O O3 0.003337 0.853838 0.406847
O O4 0.118304 0.945407 0.394813
O O5 0.093952 0.649981 0.560518
O O6 0.000000 0.745867 0.750000
O O7 0.068185 0.949683 0.616781
O O8 0.301245 0.314460 0.623038
O O9 0.338552 0.356918 0.744767
O O10 0.232856 0.500569 0.767333
O O11 0.680746 0.780539 0.086110
O O12 0.724324 0.745449 0.898971
O O13 0.704678 0.030920 0.964969
O O14 0.883682 0.403678 0.072289
O O15 0.886591 0.240853 0.933995
O O16 0.642853 0.075534 0.745887
O O17 0.000000 0.838012 0.250000
#
# Coordination Sequence:
#
# PCOD9297476 Si02
#       8
#     8   8   8   8   8   8   8   8
#     4  12  24  46  72 101 140 182 235 288 347 424
#     4  11  24  44  70  93 134 182 237 277 348 408
#     4  11  22  42  74 100 136 178 226 285 357 424
#     4  11  23  46  64 102 138 178 228 291 345 422
#     4  11  23  42  67  95 141 171 227 286 344 402
#     4  10  24  40  70 100 136 175 229 280 363 420
#     4  11  23  43  70 105 132 177 224 287 361 417
#     4  11  28  45  67  99 138 188 241 286 340 410
#
# _framework density 24.151841000000001
#
# number of rings (size 3 to 8) (size 9 to 14) (size 15 to 20)
#    0.000    1.000    3.750    2.625    5.250    2.000 
#    0.000    0.625    0.000    0.000    0.000    0.000 
#    0.000    0.000    0.000    0.000    0.000    0.000 
#
# Total GULP energy -178174.031012 kJ/mol
# GULP energy per Si atom -5567.938469 kJ/mol
# Density = 2.409687 g / cm^3
# Si number density = 24.151841 Si / 1000 Ang^3
#
#
#
# Elastic Constant Matrix: (Units=GPa)
#
#
# Indices 1 2 3 4 5 6 
#
# 1 37.2868 -8.2632 12.8562 -0.0001 12.7895 0.0001
# 2 -8.2632 61.4561 49.3037 0.0000 -18.1908 -0.0002
# 3 12.8562 49.3037 173.9166 0.0000 23.8866 -0.0001
# 4 -0.0001 0.0000 0.0000 45.5756 0.0000 -4.7803
# 5 12.7895 -18.1908 23.8866 0.0000 32.9398 0.0001
# 6 0.0001 -0.0002 -0.0001 -4.7803 0.0001 15.9310
#
#
#
# Elastic Compliance Matrix: (Units=1/GPa)
#
#
# Indices 1 2 3 4 5 6 
#
# 1 0.031272 0.003107 -0.001955 0.000000 -0.009008 0.000000
# 2 0.003107 0.038088 -0.015271 0.000000 0.030902 0.000000
# 3 -0.001955 -0.015271 0.012525 0.000000 -0.016757 0.000000
# 4 0.000000 0.000000 0.000000 0.022655 0.000000 0.006798
# 5 -0.009008 0.030902 -0.016757 0.000000 0.063073 0.000000
# 6 0.000000 0.000000 0.000000 0.006798 0.000000 0.064810
#
#
# Mechanical properties :
#
#
# Convention : Reuss Voigt Hill
#
# Bulk Modulus (GPa) = 18.64094 42.27254 30.45674
# Shear Modulus (GPa) = 17.95047 33.47347 25.71197
#
# Velocity S-wave (km/s) = 2.72919 3.72689 3.26636
# Velocity P-wave (km/s) = 4.20313 6.00503 5.18299
#
# Compressibility (1/GPa) = 0.05364536
#
# Stress axis : x y z
#
# Youngs Moduli (GPa) = 31.97782 26.25500 79.83873
#
# Poissons Ratio (x) = -0.08157 0.15610
# Poissons Ratio (y) = -0.09935 1.21925
# Poissons Ratio (z) = 0.06252 0.40095
#
# Static dielectric constant tensor:
#      x y z
#    x 2.100930 0.000000 -0.024340 
#    y 0.000000 1.965400 0.000000 
#    z -0.024340 0.000000 1.923810 
# 
# From -- ./inp_files/224592.got.cif
#   From: 2010.05.17/outbox.cif.g08.bks.cpg/sg15_113_cif.got.tgz:224592.got - 2010.06.03 18:47:42.
