data_PCOD9297896
_publ_section_title
;
Structure prediction by ZEFSAII (Michael W. Deem and Ramdas Pophale) SiO2 
 PCOD9297896
Probable space group: C 2/C
;
_chemical_formula_sum "Si O2"
_cell_formula_units_Z 52
_cell_length_a 11.716431
_cell_length_b 14.619887
_cell_length_c 23.652547
_cell_angle_alpha 90.000000
_cell_angle_beta 142.092409
_cell_angle_gamma 90.000000
_cell_volume 2489.208200
_symmetry_space_group_name_H-M "C 2/C"
_symmetry_group_IT_number 15
_symmetry_cell_setting 'monoclinic'
loop_
_space_group_symop_operation_xyz
x,y,z
-x,y,1/2-z
-x,-y,-z
x,-y,1/2+z
1/2+x,1/2+y,z
1/2-x,1/2+y,1/2-z
1/2-x,1/2-y,-z
1/2+x,1/2-y,1/2+z
loop_
_atom_site_type_symbol
_atom_site_label
_atom_site_fract_x
_atom_site_fract_y
_atom_site_fract_z
Si Si1 0.870353 0.086797 0.949016
Si Si2 0.446183 0.604642 0.105788
Si Si3 0.703413 0.225244 0.729066
Si Si4 0.372971 0.919005 0.927406
Si Si5 0.500000 0.873524 0.250000
Si Si6 0.147581 0.962252 0.257532
Si Si7 0.958231 0.248185 0.559404
O O1 0.671484 0.070757 0.842330
O O2 0.975833 0.163606 0.953506
O O3 0.848071 0.108637 0.006630
O O4 0.000000 0.000000 0.000000
O O5 0.595916 0.687140 0.162810
O O6 0.288901 0.612754 0.092888
O O7 0.547632 0.508397 0.163636
O O8 0.577403 0.191679 0.731712
O O9 0.742544 0.131798 0.709828
O O10 0.902317 0.251714 0.832847
O O11 0.504199 0.835936 0.963899
O O12 0.276191 0.958106 0.833253
O O13 0.500000 0.000000 0.000000
O O14 0.000000 0.944794 0.250000
O O15 0.750000 0.250000 0.500000
#
# Coordination Sequence:
#
# PCOD9297896 Si02
#       7
#     8   8   8   8   4   8   8
#     4  11  26  46  70 103 140 185 236 288 356 422
#     4  11  23  45  73 100 137 184 244 285 343 431
#     4  11  23  43  71  99 135 184 231 287 345 414
#     4  11  26  43  71 102 137 187 235 291 355 420
#     4  10  24  42  70  94 140 178 226 286 354 400
#     4  10  24  43  69 101 139 180 232 288 349 417
#     4  11  26  45  67 101 148 182 229 298 359 408
#
# _framework density 20.890177999999999
#
# number of rings (size 3 to 8) (size 9 to 14) (size 15 to 20)
#    0.000    1.231    1.538    3.692   11.846    1.231 
#    2.769    0.000    1.692    0.000    0.000    0.000 
#    0.000    0.000    0.000    0.000    0.000    0.000 
#
# Total GULP energy -145281.667666 kJ/mol
# GULP energy per Si atom -5587.756449 kJ/mol
# Density = 2.084263 g / cm^3
# Si number density = 20.890178 Si / 1000 Ang^3
#
#
#
# Elastic Constant Matrix: (Units=GPa)
#
#
# Indices 1 2 3 4 5 6 
#
# 1 95.5055 58.5121 43.7545 0.0000 17.2114 0.0000
# 2 58.5121 129.8607 48.6681 0.0000 13.6784 0.0000
# 3 43.7545 48.6681 123.9778 -0.0001 7.9371 0.0000
# 4 0.0000 0.0000 -0.0001 34.1338 0.0000 9.8714
# 5 17.2114 13.6784 7.9371 0.0000 37.7522 0.0000
# 6 0.0000 0.0000 0.0000 9.8714 0.0000 17.4209
#
#
#
# Elastic Compliance Matrix: (Units=1/GPa)
#
#
# Indices 1 2 3 4 5 6 
#
# 1 0.016231 -0.005610 -0.003226 0.000000 -0.004689 0.000000
# 2 -0.005610 0.011219 -0.002359 0.000000 -0.001011 0.000000
# 3 -0.003226 -0.002359 0.010118 0.000000 0.000198 0.000000
# 4 0.000000 0.000000 0.000000 0.035038 0.000000 -0.019854
# 5 -0.004689 -0.001011 0.000198 0.000000 0.028951 0.000000
# 6 0.000000 0.000000 0.000000 -0.019854 0.000000 0.068653
#
#
# Mechanical properties :
#
#
# Convention : Reuss Voigt Hill
#
# Bulk Modulus (GPa) = 65.88961 72.35705 69.12333
# Shear Modulus (GPa) = 25.29611 31.08867 28.19239
#
# Velocity S-wave (km/s) = 3.48359 3.86190 3.67761
# Velocity P-wave (km/s) = 6.91303 7.38903 7.15499
#
# Compressibility (1/GPa) = 0.01517690
#
# Stress axis : x y z
#
# Youngs Moduli (GPa) = 61.61214 89.13296 98.83532
#
# Poissons Ratio (x) = 0.50007 0.31880
# Poissons Ratio (y) = 0.34567 0.23319
# Poissons Ratio (z) = 0.19873 0.21030
#
# Static dielectric constant tensor:
#      x y z
#    x 1.758560 0.000000 -0.026070 
#    y 0.000000 1.715820 0.000000 
#    z -0.026070 0.000000 1.792630 
# 
# From -- ./inp_files/269997.got.cif
#   From: 2010.05.17/outbox.cif.g08.bks.cpg/sg15_135_cif.got.tgz:269997.got - 2010.06.03 18:47:42.
