data_PCOD9297540
_publ_section_title
;
Structure prediction by ZEFSAII (Michael W. Deem and Ramdas Pophale) SiO2 
 PCOD9297540
Probable space group: C 2/C
;
_chemical_formula_sum "Si O2"
_cell_formula_units_Z 52
_cell_length_a 17.740803
_cell_length_b 31.836457
_cell_length_c 5.223081
_cell_angle_alpha 90.000000
_cell_angle_beta 121.889800
_cell_angle_gamma 90.000000
_cell_volume 2504.759811
_symmetry_space_group_name_H-M "C 2/C"
_symmetry_group_IT_number 15
_symmetry_cell_setting 'monoclinic'
loop_
_space_group_symop_operation_xyz
x,y,z
-x,y,1/2-z
-x,-y,-z
x,-y,1/2+z
1/2+x,1/2+y,z
1/2-x,1/2+y,1/2-z
1/2-x,1/2-y,-z
1/2+x,1/2-y,1/2+z
loop_
_atom_site_type_symbol
_atom_site_label
_atom_site_fract_x
_atom_site_fract_y
_atom_site_fract_z
Si Si1 0.168578 0.657074 0.549096
Si Si2 0.401750 0.668478 0.687969
Si Si3 0.345156 0.749974 0.311404
Si Si4 0.500000 0.102281 0.250000
Si Si5 0.500000 0.952561 0.250000
Si Si6 0.752886 0.879234 0.694311
Si Si7 0.500000 0.715515 0.250000
Si Si8 0.802529 0.524223 0.475446
O O1 0.152015 0.706505 0.530880
O O2 0.192563 0.642078 0.306801
O O3 0.081820 0.631336 0.472398
O O4 0.239492 0.643445 0.895629
O O5 0.500000 0.668367 0.750000
O O6 0.347379 0.708569 0.488420
O O7 0.349214 0.628420 0.494342
O O8 0.424606 0.682990 0.013927
O O9 0.437581 0.744987 0.315740
O O10 0.250000 0.750000 0.000000
O O11 0.477392 0.074662 0.457475
O O12 0.589801 0.976427 0.337878
O O13 0.727793 0.927821 0.614696
O O14 0.771894 0.504854 0.687440
#
# Coordination Sequence:
#
# PCOD9297540 Si02
#       8
#     8   8   8   4   4   8   4   8
#     4  12  25  39  63  96 136 185 220 267 314 381
#     4  10  24  44  65  97 127 174 230 273 334 390
#     4  11  23  40  63  93 135 183 223 279 324 382
#     4  12  22  39  58  94 139 176 221 252 312 373
#     4  12  22  42  62  92 132 176 212 260 314 390
#     4  12  25  45  68  93 132 170 223 276 330 393
#     4  10  24  41  62  96 133 178 233 274 328 387
#     4  12  24  43  66  96 127 168 214 268 332 402
#
# _framework density 20.760472
#
# number of rings (size 3 to 8) (size 9 to 14) (size 15 to 20)
#    0.000    0.615    4.615    3.231    7.538    1.846 
#    0.000    0.000    0.000    0.923    0.000    0.000 
#    0.000    0.000    0.000    0.000    0.000    0.000 
#
# Total GULP energy -145176.377105 kJ/mol
# GULP energy per Si atom -5583.706812 kJ/mol
# Density = 2.071322 g / cm^3
# Si number density = 20.760472 Si / 1000 Ang^3
#
#
#
# Elastic Constant Matrix: (Units=GPa)
#
#
# Indices 1 2 3 4 5 6 
#
# 1 39.2200 16.2697 13.3050 0.0000 12.4223 0.0000
# 2 16.2697 107.0074 33.1344 0.0000 3.8440 0.0000
# 3 13.3050 33.1344 101.8327 0.0000 8.4023 0.0000
# 4 0.0000 0.0000 0.0000 40.2712 0.0000 3.4228
# 5 12.4223 3.8440 8.4023 0.0000 31.1889 0.0000
# 6 0.0000 0.0000 0.0000 3.4228 0.0000 22.2699
#
#
#
# Elastic Compliance Matrix: (Units=1/GPa)
#
#
# Indices 1 2 3 4 5 6 
#
# 1 0.031353 -0.003758 -0.001924 0.000000 -0.011506 0.000000
# 2 -0.003758 0.010847 -0.003121 0.000000 0.001001 0.000000
# 3 -0.001924 -0.003121 0.011242 0.000000 -0.001877 0.000000
# 4 0.000000 0.000000 0.000000 0.025160 0.000000 -0.003867
# 5 -0.011506 0.001001 -0.001877 0.000000 0.037028 0.000000
# 6 0.000000 0.000000 0.000000 -0.003867 0.000000 0.045498
#
#
# Mechanical properties :
#
#
# Convention : Reuss Voigt Hill
#
# Bulk Modulus (GPa) = 27.90507 41.49759 34.70133
# Shear Modulus (GPa) = 26.22194 31.10273 28.66233
#
# Velocity S-wave (km/s) = 3.55783 3.87482 3.71970
# Velocity P-wave (km/s) = 5.50891 6.32860 5.93293
#
# Compressibility (1/GPa) = 0.03583579
#
# Stress axis : x y z
#
# Youngs Moduli (GPa) = 31.89456 92.19182 88.95311
#
# Poissons Ratio (x) = 0.34644 0.17118
# Poissons Ratio (y) = 0.11985 0.27762
# Poissons Ratio (z) = 0.06138 0.28773
#
# Static dielectric constant tensor:
#      x y z
#    x 1.774710 0.000000 0.012840 
#    y 0.000000 1.712880 0.000000 
#    z 0.012840 0.000000 1.812810 
# 
# From -- ./inp_files/12099.got.cif
#   From: 2010.05.17/outbox.cif.g08.bks.cpg/sg15_7_cif.got.tgz:12099.got - 2010.06.03 18:47:42.
