data_PCOD9297977
_publ_section_title
;
Structure prediction by ZEFSAII (Michael W. Deem and Ramdas Pophale) SiO2 
 PCOD9297977
Probable space group: C 2/C
;
_chemical_formula_sum "Si O2"
_cell_formula_units_Z 28
_cell_length_a 8.843966
_cell_length_b 17.502217
_cell_length_c 14.802430
_cell_angle_alpha 90.000000
_cell_angle_beta 144.576491
_cell_angle_gamma 90.000000
_cell_volume 1328.046231
_symmetry_space_group_name_H-M "C 2/C"
_symmetry_group_IT_number 15
_symmetry_cell_setting 'monoclinic'
loop_
_space_group_symop_operation_xyz
x,y,z
-x,y,1/2-z
-x,-y,-z
x,-y,1/2+z
1/2+x,1/2+y,z
1/2-x,1/2+y,1/2-z
1/2-x,1/2-y,-z
1/2+x,1/2-y,1/2+z
loop_
_atom_site_type_symbol
_atom_site_label
_atom_site_fract_x
_atom_site_fract_y
_atom_site_fract_z
Si Si1 0.516626 0.090677 0.509387
Si Si2 0.716168 0.829480 0.931660
Si Si3 0.500000 0.310720 0.750000
Si Si4 0.705581 0.840758 0.280620
O O1 0.624814 0.113284 0.464571
O O2 0.242316 0.135292 0.391926
O O3 0.696011 0.121701 0.678060
O O4 0.500000 0.000000 0.500000
O O5 0.500000 0.824839 0.750000
O O6 0.750000 0.750000 0.000000
O O7 0.006582 0.847080 0.038577
O O8 0.390933 0.248395 0.769936
O O9 0.500000 0.877577 0.250000
#
# Coordination Sequence:
#
# PCOD9297977 Si02
#       4
#     8   8   4   8
#     4  12  27  44  72 109 149 182 237 309 365 414
#     4  12  25  44  72 106 143 188 244 294 355 434
#     4  10  24  42  76  96 144 186 244 276 362 420
#     4  10  24  45  75  98 140 191 249 279 356 440
#
# _framework density 21.083603
#
# number of rings (size 3 to 8) (size 9 to 14) (size 15 to 20)
#    0.857    0.000    2.857    3.429    8.000    1.143 
#    0.000    2.857    0.000    0.000    0.000    0.000 
#    0.000    0.000    0.000    0.000    0.000    0.000 
#
# Total GULP energy -78213.771549 kJ/mol
# GULP energy per Si atom -5586.697968 kJ/mol
# Density = 2.103562 g / cm^3
# Si number density = 21.083603 Si / 1000 Ang^3
#
#
#
# Elastic Constant Matrix: (Units=GPa)
#
#
# Indices 1 2 3 4 5 6 
#
# 1 117.0719 38.8576 75.9930 0.0005 9.2626 0.0000
# 2 38.8576 160.8736 44.9132 0.0003 -11.8150 0.0000
# 3 75.9930 44.9132 175.2321 0.0020 12.4968 0.0004
# 4 0.0005 0.0003 0.0020 12.8579 0.0010 -6.4589
# 5 9.2626 -11.8150 12.4968 0.0010 44.4094 0.0000
# 6 0.0000 0.0000 0.0004 -6.4589 0.0000 30.3017
#
#
#
# Elastic Compliance Matrix: (Units=1/GPa)
#
#
# Indices 1 2 3 4 5 6 
#
# 1 0.012376 -0.001777 -0.004790 0.000001 -0.001706 0.000000
# 2 -0.001777 0.007191 -0.001261 0.000000 0.002639 0.000000
# 3 -0.004790 -0.001261 0.008225 -0.000001 -0.001651 0.000000
# 4 0.000001 0.000000 -0.000001 0.087099 -0.000002 0.018565
# 5 -0.001706 0.002639 -0.001651 -0.000002 0.024040 0.000000
# 6 0.000000 0.000000 0.000000 0.018565 0.000000 0.036959
#
#
# Mechanical properties :
#
#
# Convention : Reuss Voigt Hill
#
# Bulk Modulus (GPa) = 82.39755 85.85611 84.12683
# Shear Modulus (GPa) = 25.56360 37.07471 31.31916
#
# Velocity S-wave (km/s) = 3.48586 4.19795 3.85837
# Velocity P-wave (km/s) = 7.44095 8.01918 7.73547
#
# Compressibility (1/GPa) = 0.01213628
#
# Stress axis : x y z
#
# Youngs Moduli (GPa) = 80.80281 139.06156 121.58485
#
# Poissons Ratio (x) = 0.24716 0.58237
# Poissons Ratio (y) = 0.14361 0.15326
# Poissons Ratio (z) = 0.38703 0.17529
#
# Static dielectric constant tensor:
#      x y z
#    x 1.822980 0.000000 0.032840 
#    y 0.000000 1.822460 0.000000 
#    z 0.032840 0.000000 1.760630 
# 
# From -- ./inp_files/134698.got.cif
#   From: 2010.05.17/outbox.cif.g08.bks.cpg/sg15_68_cif.got.tgz:134698.got - 2010.06.03 18:47:42.
