data_PCOD9297018
_publ_section_title
;
Structure prediction by ZEFSAII (Michael W. Deem and Ramdas Pophale) SiO2 
 PCOD9297018
Probable space group: C 2/C
;
_chemical_formula_sum "Si O2"
_cell_formula_units_Z 48
_cell_length_a 11.639111
_cell_length_b 12.606685
_cell_length_c 15.160367
_cell_angle_alpha 90.000000
_cell_angle_beta 53.268875
_cell_angle_gamma 90.000000
_cell_volume 1782.819329
_symmetry_space_group_name_H-M "C 2/C"
_symmetry_group_IT_number 15
_symmetry_cell_setting 'monoclinic'
loop_
_space_group_symop_operation_xyz
x,y,z
-x,y,1/2-z
-x,-y,-z
x,-y,1/2+z
1/2+x,1/2+y,z
1/2-x,1/2+y,1/2-z
1/2-x,1/2-y,-z
1/2+x,1/2-y,1/2+z
loop_
_atom_site_type_symbol
_atom_site_label
_atom_site_fract_x
_atom_site_fract_y
_atom_site_fract_z
Si Si1 0.256424 0.552592 0.618059
Si Si2 0.703626 0.416026 0.206470
Si Si3 0.372205 0.341852 0.747867
Si Si4 0.933610 0.711715 0.159819
Si Si5 0.599759 0.977314 0.539206
Si Si6 0.573813 0.654365 0.464330
O O1 0.208412 0.581633 0.739497
O O2 0.158927 0.569180 0.576907
O O3 0.415271 0.602639 0.535870
O O4 0.296765 0.428097 0.591248
O O5 0.618995 0.528485 0.260536
O O6 0.621009 0.304033 0.250519
O O7 0.768227 0.430198 0.079516
O O8 0.500000 0.305387 0.750000
O O9 0.205363 0.314463 0.839040
O O10 0.405878 0.292155 0.638072
O O11 0.004453 0.598968 0.145935
O O12 0.062553 0.765572 0.047798
O O13 0.500000 0.000000 0.500000
#
# Coordination Sequence:
#
# PCOD9297018 Si02
#       6
#     8   8   8   8   8   8
#     4   9  21  43  71  97 136 187 221 286 345 411
#     4  10  23  47  69  99 141 185 233 280 352 419
#     4  11  22  42  68  95 135 188 231 284 348 415
#     4  11  24  43  65 105 136 177 239 289 342 419
#     4  12  24  44  71 103 143 179 231 293 350 401
#     4   9  20  42  65  92 137 177 232 274 345 414
#
# _framework density 26.923649000000001
#
# number of rings (size 3 to 8) (size 9 to 14) (size 15 to 20)
#    0.000    1.667    1.667    3.000    0.000    2.000 
#    9.000    6.667    0.000    0.000    0.000    0.000 
#    0.000    0.000    0.000    0.000    0.000    0.000 
#
# Total GULP energy -133889.187632 kJ/mol
# GULP energy per Si atom -5578.716151 kJ/mol
# Density = 2.686237 g / cm^3
# Si number density = 26.923649 Si / 1000 Ang^3
#
#
#
# Elastic Constant Matrix: (Units=GPa)
#
#
# Indices 1 2 3 4 5 6 
#
# 1 133.6210 17.5562 25.7087 0.0000 18.2847 0.0000
# 2 17.5562 73.6378 21.1026 0.0000 -5.1660 0.0000
# 3 25.7087 21.1026 120.0853 0.0000 21.4999 0.0000
# 4 0.0000 0.0000 0.0000 25.3214 0.0000 -32.1789
# 5 18.2847 -5.1660 21.4999 0.0000 36.8724 0.0000
# 6 0.0000 0.0000 0.0000 -32.1789 0.0000 -2.4394
#
#
#
# Elastic Compliance Matrix: (Units=1/GPa)
#
#
# Indices 1 2 3 4 5 6 
#
# 1 0.008453 -0.002097 -0.000713 0.000000 -0.004070 0.000000
# 2 -0.002097 0.015333 -0.003145 0.000000 0.005022 0.000000
# 3 -0.000713 -0.003145 0.010103 0.000000 -0.005978 0.000000
# 4 0.000000 0.000000 0.000000 0.002223 0.000000 -0.029327
# 5 -0.004070 0.005022 -0.005978 0.000000 0.033328 0.000000
# 6 0.000000 0.000000 0.000000 -0.029327 0.000000 -0.023077
#
#
# Mechanical properties :
#
#
# Convention : Reuss Voigt Hill
#
# Bulk Modulus (GPa) = 45.49259 50.67545 48.08402
# Shear Modulus (GPa) = 76.22023 29.48265 52.85144
#
# Velocity S-wave (km/s) = 5.32646 3.31274 4.43540
# Velocity P-wave (km/s) = 7.40013 5.78749 6.64293
#
# Compressibility (1/GPa) = 0.02198160
#
# Stress axis : x y z
#
# Youngs Moduli (GPa) = 118.29546 65.21736 98.98147
#
# Poissons Ratio (x) = 0.13674 0.07053
# Poissons Ratio (y) = 0.24803 0.31127
# Poissons Ratio (z) = 0.08429 0.20509
#
# Static dielectric constant tensor:
#      x y z
#    x 2.293910 0.000000 0.004680 
#    y 0.000000 2.197820 0.000000 
#    z 0.004680 0.000000 2.120790 
# 
# From -- ./inp_files/144066.got.cif
#   From: 2010.05.17/outbox.cif.g08.bks.cpg/sg15_73_cif.got.tgz:144066.got - 2010.06.03 18:47:42.
