data_PCOD9297301
_publ_section_title
;
Structure prediction by ZEFSAII (Michael W. Deem and Ramdas Pophale) SiO2 
 PCOD9297301
Probable space group: C 2/C
;
_chemical_formula_sum "Si O2"
_cell_formula_units_Z 32
_cell_length_a 13.398010
_cell_length_b 23.649045
_cell_length_c 7.337112
_cell_angle_alpha 90.000000
_cell_angle_beta 139.204171
_cell_angle_gamma 90.000000
_cell_volume 1518.921218
_symmetry_space_group_name_H-M "C 2/C"
_symmetry_group_IT_number 15
_symmetry_cell_setting 'monoclinic'
loop_
_space_group_symop_operation_xyz
x,y,z
-x,y,1/2-z
-x,-y,-z
x,-y,1/2+z
1/2+x,1/2+y,z
1/2-x,1/2+y,1/2-z
1/2-x,1/2-y,-z
1/2+x,1/2-y,1/2+z
loop_
_atom_site_type_symbol
_atom_site_label
_atom_site_fract_x
_atom_site_fract_y
_atom_site_fract_z
Si Si1 0.824085 0.730273 0.840672
Si Si2 0.000000 0.165247 0.750000
Si Si3 0.719859 0.878701 0.041315
Si Si4 0.000000 0.264439 0.250000
Si Si5 0.014215 0.432953 0.053945
O O1 0.829469 0.687018 0.012220
O O2 0.649003 0.732020 0.531528
O O3 0.927037 0.704915 0.820937
O O4 0.891721 0.791406 0.985784
O O5 0.102390 0.126484 0.760472
O O6 0.662881 0.909630 0.147433
O O7 0.628440 0.906014 0.749972
O O8 0.000000 0.421936 0.250000
O O9 0.000000 0.500000 0.000000
#
# Coordination Sequence:
#
# PCOD9297301 Si02
#       5
#     8   4   8   4   8
#     4  11  23  43  64 104 152 189 229 285 335 426
#     4  12  24  44  62 105 153 184 224 284 354 422
#     4  11  25  42  74 103 138 191 225 291 354 411
#     4  10  24  38  66  99 153 194 236 268 334 410
#     4  11  24  48  76  99 130 177 247 299 351 419
#
# _framework density 21.067584
#
# number of rings (size 3 to 8) (size 9 to 14) (size 15 to 20)
#    0.000    1.000    5.000    2.250    8.750    2.000 
#    0.000    1.250    0.000    0.000    0.000    0.000 
#    0.000    0.000    0.000    0.000    0.000    0.000 
#
# Total GULP energy -89315.903486 kJ/mol
# GULP energy per Si atom -5582.243968 kJ/mol
# Density = 2.101963 g / cm^3
# Si number density = 21.067584 Si / 1000 Ang^3
#
#
#
# Elastic Constant Matrix: (Units=GPa)
#
#
# Indices 1 2 3 4 5 6 
#
# 1 224.5485 62.1087 62.6607 0.0000 7.2013 0.0000
# 2 62.1087 99.9793 49.2069 0.0000 3.7198 0.0000
# 3 62.6607 49.2069 122.4341 0.0000 -4.0806 0.0000
# 4 0.0000 0.0000 0.0000 22.9146 0.0000 -12.4902
# 5 7.2013 3.7198 -4.0806 0.0000 50.0933 0.0000
# 6 0.0000 0.0000 0.0000 -12.4902 0.0000 22.6311
#
#
#
# Elastic Compliance Matrix: (Units=1/GPa)
#
#
# Indices 1 2 3 4 5 6 
#
# 1 0.005729 -0.002585 -0.001920 0.000000 -0.000788 0.000000
# 2 -0.002585 0.013725 -0.004226 0.000000 -0.000992 0.000000
# 3 -0.001920 -0.004226 0.010898 0.000000 0.001477 0.000000
# 4 0.000000 0.000000 0.000000 0.062417 0.000000 0.034448
# 5 -0.000788 -0.000992 0.001477 0.000000 0.020270 0.000000
# 6 0.000000 0.000000 0.000000 0.034448 0.000000 0.063199
#
#
# Mechanical properties :
#
#
# Convention : Reuss Voigt Hill
#
# Bulk Modulus (GPa) = 77.57648 88.32384 82.95016
# Shear Modulus (GPa) = 25.25298 37.32683 31.28990
#
# Velocity S-wave (km/s) = 3.46593 4.21380 3.85803
# Velocity P-wave (km/s) = 7.27458 8.10493 7.70095
#
# Compressibility (1/GPa) = 0.01289050
#
# Stress axis : x y z
#
# Youngs Moduli (GPa) = 174.54086 72.86055 91.76167
#
# Poissons Ratio (x) = 0.18835 0.17614
# Poissons Ratio (y) = 0.45120 0.38780
# Poissons Ratio (z) = 0.33503 0.30792
#
# Static dielectric constant tensor:
#      x y z
#    x 1.836880 0.000000 -0.007570 
#    y 0.000000 1.752940 0.000000 
#    z -0.007570 0.000000 1.777830 
# 
# From -- ./inp_files/40488.got.cif
#   From: 2010.05.17/outbox.cif.g08.bks.cpg/sg15_21_cif.got.tgz:40488.got - 2010.06.03 18:47:42.
