data_PCOD9297181
_publ_section_title
;
Structure prediction by ZEFSAII (Michael W. Deem and Ramdas Pophale) SiO2 
 PCOD9297181
Probable space group: C 2/C
;
_chemical_formula_sum "Si O2"
_cell_formula_units_Z 44
_cell_length_a 5.179430
_cell_length_b 31.433104
_cell_length_c 11.585280
_cell_angle_alpha 90.000000
_cell_angle_beta 73.472666
_cell_angle_gamma 90.000000
_cell_volume 1808.220175
_symmetry_space_group_name_H-M "C 2/C"
_symmetry_group_IT_number 15
_symmetry_cell_setting 'monoclinic'
loop_
_space_group_symop_operation_xyz
x,y,z
-x,y,1/2-z
-x,-y,-z
x,-y,1/2+z
1/2+x,1/2+y,z
1/2-x,1/2+y,1/2-z
1/2-x,1/2-y,-z
1/2+x,1/2-y,1/2+z
loop_
_atom_site_type_symbol
_atom_site_label
_atom_site_fract_x
_atom_site_fract_y
_atom_site_fract_z
Si Si1 0.302206 0.843374 0.862742
Si Si2 0.023722 0.777838 0.470152
Si Si3 0.741250 0.562899 0.361489
Si Si4 0.000000 0.560797 0.750000
Si Si5 0.000000 0.831783 0.250000
Si Si6 0.412459 0.108497 0.557748
Si Si7 0.500000 0.496732 0.250000
O O1 0.500000 0.820769 0.750000
O O2 0.194425 0.888374 0.829275
O O3 0.058625 0.815998 0.935718
O O4 0.484175 0.857902 0.949474
O O5 0.250000 0.750000 0.500000
O O6 0.750000 0.750000 0.500000
O O7 0.801969 0.570164 0.489180
O O8 0.512835 0.529462 0.356897
O O9 0.000000 0.550082 0.250000
O O10 0.399357 0.699803 0.661008
O O11 0.893123 0.588793 0.871596
O O12 0.207535 0.863924 0.161702
O O13 0.256918 0.033229 0.731713
#
# Coordination Sequence:
#
# PCOD9297181 Si02
#       7
#     8   8   8   4   4   8   4
#     4   8  19  47  77 106 141 196 253 297 360 445
#     4  11  26  48  76 115 153 190 234 313 372 433
#     4   9  20  48  71 104 139 195 245 305 362 438
#     4  12  26  44  68 111 145 198 243 307 382 424
#     4  10  23  50  76 111 146 196 248 299 354 456
#     4   9  21  45  75 103 141 200 253 302 354 447
#     4  12  25  46  68 108 153 182 247 316 372 434
#
# _framework density 24.333321999999999
#
# number of rings (size 3 to 8) (size 9 to 14) (size 15 to 20)
#    1.091    1.091    0.909    0.545    1.273    5.091 
#   13.091    0.000    0.000    0.000    0.000    0.000 
#    0.000    0.000    0.000    0.000    0.000    0.000 
#
# Total GULP energy -122723.198830 kJ/mol
# GULP energy per Si atom -5578.327220 kJ/mol
# Density = 2.427794 g / cm^3
# Si number density = 24.333322 Si / 1000 Ang^3
#
#
#
# Elastic Constant Matrix: (Units=GPa)
#
#
# Indices 1 2 3 4 5 6 
#
# 1 122.7885 61.3591 58.7681 0.0000 22.7626 0.0000
# 2 61.3591 95.9712 56.4642 0.0000 12.5623 0.0000
# 3 58.7681 56.4642 180.0284 0.0000 19.3275 0.0000
# 4 0.0000 0.0000 0.0000 35.6242 0.0000 4.4599
# 5 22.7626 12.5623 19.3275 0.0000 25.4837 0.0000
# 6 0.0000 0.0000 0.0000 4.4599 0.0000 28.8824
#
#
#
# Elastic Compliance Matrix: (Units=1/GPa)
#
#
# Indices 1 2 3 4 5 6 
#
# 1 0.013737 -0.006892 -0.001492 0.000000 -0.007742 0.000000
# 2 -0.006892 0.016537 -0.002964 0.000000 0.000252 0.000000
# 3 -0.001492 -0.002964 0.007263 0.000000 -0.002715 0.000000
# 4 0.000000 0.000000 0.000000 0.028624 0.000000 -0.004420
# 5 -0.007742 0.000252 -0.002715 0.000000 0.048091 0.000000
# 6 0.000000 0.000000 0.000000 -0.004420 0.000000 0.035306
#
#
# Mechanical properties :
#
#
# Convention : Reuss Voigt Hill
#
# Bulk Modulus (GPa) = 67.37692 83.55232 75.46462
# Shear Modulus (GPa) = 28.21683 32.81118 30.51400
#
# Velocity S-wave (km/s) = 3.40898 3.67605 3.54503
# Velocity P-wave (km/s) = 6.57603 7.24078 6.91639
#
# Compressibility (1/GPa) = 0.01484188
#
# Stress axis : x y z
#
# Youngs Moduli (GPa) = 72.79554 60.47064 137.69053
#
# Poissons Ratio (x) = 0.41676 0.20538
# Poissons Ratio (y) = 0.50170 0.40811
# Poissons Ratio (z) = 0.10858 0.17923
#
# Static dielectric constant tensor:
#      x y z
#    x 1.905620 0.000000 0.011470 
#    y 0.000000 1.960410 0.000000 
#    z 0.011470 0.000000 1.973630 
# 
# From -- ./inp_files/73947.got.cif
#   From: 2010.05.17/outbox.cif.g08.bks.cpg/sg15_37_cif.got.tgz:73947.got - 2010.06.03 18:47:42.
