data_PCOD9297493
_publ_section_title
;
Structure prediction by ZEFSAII (Michael W. Deem and Ramdas Pophale) SiO2 
 PCOD9297493
Probable space group: C 2/C
;
_chemical_formula_sum "Si O2"
_cell_formula_units_Z 52
_cell_length_a 20.048273
_cell_length_b 12.049592
_cell_length_c 12.187547
_cell_angle_alpha 90.000000
_cell_angle_beta 58.125916
_cell_angle_gamma 90.000000
_cell_volume 2500.236158
_symmetry_space_group_name_H-M "C 2/C"
_symmetry_group_IT_number 15
_symmetry_cell_setting 'monoclinic'
loop_
_space_group_symop_operation_xyz
x,y,z
-x,y,1/2-z
-x,-y,-z
x,-y,1/2+z
1/2+x,1/2+y,z
1/2-x,1/2+y,1/2-z
1/2-x,1/2-y,-z
1/2+x,1/2-y,1/2+z
loop_
_atom_site_type_symbol
_atom_site_label
_atom_site_fract_x
_atom_site_fract_y
_atom_site_fract_z
Si Si1 0.500000 0.781106 0.250000
Si Si2 0.186472 0.844149 0.096036
Si Si3 0.824615 0.005376 0.598810
Si Si4 0.406332 0.311916 0.635698
Si Si5 0.932838 0.421710 0.506024
Si Si6 0.191652 0.591081 0.830645
Si Si7 0.428601 0.691402 0.619570
O O1 0.556797 0.706416 0.276080
O O2 0.457625 0.862849 0.372352
O O3 0.234788 0.886877 0.157259
O O4 0.103617 0.816741 0.228208
O O5 0.250000 0.750000 0.000000
O O6 0.169367 0.934779 0.017941
O O7 0.848697 0.914812 0.670495
O O8 0.734052 0.043931 0.685948
O O9 0.882258 0.109173 0.574755
O O10 0.359859 0.199574 0.646663
O O11 0.479428 0.327791 0.487810
O O12 0.859383 0.500935 0.563057
O O13 0.913754 0.318781 0.600741
O O14 0.000000 0.500000 0.500000
#
# Coordination Sequence:
#
# PCOD9297493 Si02
#       7
#     4   8   8   8   8   8   8
#     4  10  24  40  70  96 134 182 228 284 354 400
#     4  11  23  43  69 102 138 185 232 281 355 416
#     4  11  25  44  70 101 143 180 231 292 350 420
#     4  11  23  47  65 101 136 177 235 289 342 414
#     4  11  22  43  64  98 138 177 234 284 340 418
#     4  11  24  41  64  98 138 178 226 291 340 412
#     4  10  24  43  70 101 135 182 232 293 343 411
#
# _framework density 20.798034999999999
#
# number of rings (size 3 to 8) (size 9 to 14) (size 15 to 20)
#    0.000    1.231    4.615    1.385    4.308    6.769 
#    0.000    1.538    0.000    0.000    0.000    0.000 
#    0.000    0.000    0.000    0.000    0.000    0.000 
#
# Total GULP energy -144942.712359 kJ/mol
# GULP energy per Si atom -5574.719706 kJ/mol
# Density = 2.075070 g / cm^3
# Si number density = 20.798035 Si / 1000 Ang^3
#
#
#
# Elastic Constant Matrix: (Units=GPa)
#
#
# Indices 1 2 3 4 5 6 
#
# 1 69.5364 16.2553 31.9160 0.0000 1.0365 0.0000
# 2 16.2553 90.4685 35.9567 0.0000 4.4954 0.0000
# 3 31.9160 35.9567 131.8176 0.0000 -7.9198 0.0000
# 4 0.0000 0.0000 0.0000 27.4726 0.0000 -5.0632
# 5 1.0365 4.4954 -7.9198 0.0000 35.0863 0.0000
# 6 0.0000 0.0000 0.0000 -5.0632 0.0000 29.8986
#
#
#
# Elastic Compliance Matrix: (Units=1/GPa)
#
#
# Indices 1 2 3 4 5 6 
#
# 1 0.016409 -0.001443 -0.003647 0.000000 -0.001123 0.000000
# 2 -0.001443 0.012724 -0.003261 0.000000 -0.002324 0.000000
# 3 -0.003647 -0.003261 0.009519 0.000000 0.002674 0.000000
# 4 0.000000 0.000000 0.000000 0.037573 0.000000 0.006363
# 5 -0.001123 -0.002324 0.002674 0.000000 0.029436 0.000000
# 6 0.000000 0.000000 0.000000 0.006363 0.000000 0.034524
#
#
# Mechanical properties :
#
#
# Convention : Reuss Voigt Hill
#
# Bulk Modulus (GPa) = 45.55662 51.11984 48.33823
# Shear Modulus (GPa) = 30.44995 32.33780 31.39388
#
# Velocity S-wave (km/s) = 3.83048 3.94744 3.88940
# Velocity P-wave (km/s) = 6.44323 6.73861 6.59258
#
# Compressibility (1/GPa) = 0.02195070
#
# Stress axis : x y z
#
# Youngs Moduli (GPa) = 60.94274 78.58865 105.04818
#
# Poissons Ratio (x) = 0.11341 0.38309
# Poissons Ratio (y) = 0.08795 0.34258
# Poissons Ratio (z) = 0.22224 0.25629
#
# Static dielectric constant tensor:
#      x y z
#    x 1.818380 0.000000 -0.053310 
#    y 0.000000 1.760850 0.000000 
#    z -0.053310 0.000000 1.907670 
# 
# From -- ./inp_files/111510.got.cif
#   From: 2010.05.17/outbox.cif.g08.bks.cpg/sg15_56_cif.got.tgz:111510.got - 2010.06.03 18:47:42.
