data_PCOD9297684
_publ_section_title
;
Structure prediction by ZEFSAII (Michael W. Deem and Ramdas Pophale) SiO2 
 PCOD9297684
Probable space group: C 2/C
;
_chemical_formula_sum "Si O2"
_cell_formula_units_Z 40
_cell_length_a 17.327788
_cell_length_b 6.474437
_cell_length_c 15.097287
_cell_angle_alpha 90.000000
_cell_angle_beta 114.587974
_cell_angle_gamma 90.000000
_cell_volume 1540.147956
_symmetry_space_group_name_H-M "C 2/C"
_symmetry_group_IT_number 15
_symmetry_cell_setting 'monoclinic'
loop_
_space_group_symop_operation_xyz
x,y,z
-x,y,1/2-z
-x,-y,-z
x,-y,1/2+z
1/2+x,1/2+y,z
1/2-x,1/2+y,1/2-z
1/2-x,1/2-y,-z
1/2+x,1/2-y,1/2+z
loop_
_atom_site_type_symbol
_atom_site_label
_atom_site_fract_x
_atom_site_fract_y
_atom_site_fract_z
Si Si1 0.852941 0.161570 0.313771
Si Si2 0.001661 0.254599 0.509184
Si Si3 0.116405 0.947110 0.954158
Si Si4 0.292477 0.669429 0.638516
Si Si5 0.097665 0.438335 0.313279
O O1 0.947140 0.175130 0.398763
O O2 0.792387 0.222429 0.366598
O O3 0.852525 0.356723 0.248510
O O4 0.827925 0.969634 0.238361
O O5 0.000000 0.500000 0.500000
O O6 0.098398 0.173187 0.539204
O O7 0.949146 0.142487 0.562789
O O8 0.097672 0.756156 0.879104
O O9 0.202505 0.029926 0.948409
O O10 0.355057 0.853083 0.643654
O O11 0.000000 0.487160 0.250000
#
# Coordination Sequence:
#
# PCOD9297684 Si02
#       5
#     8   8   8   8   8
#     4  11  24  43  67 100 134 175 226 279 343 397
#     4  11  24  45  66  99 139 182 223 278 339 413
#     4  10  24  42  64 101 133 173 231 266 341 404
#     4  11  24  43  68 102 134 172 228 285 335 400
#     4  11  22  40  68  98 131 176 226 284 335 396
#
# _framework density 25.971530000000001
#
# number of rings (size 3 to 8) (size 9 to 14) (size 15 to 20)
#    0.000    1.200    4.000    1.200    2.800    2.400 
#    0.000    2.000    0.000    0.000    0.000    0.000 
#    0.000    0.000    0.000    0.000    0.000    0.000 
#
# Total GULP energy -111402.578612 kJ/mol
# GULP energy per Si atom -5570.128931 kJ/mol
# Density = 2.591242 g / cm^3
# Si number density = 25.971530 Si / 1000 Ang^3
#
#
#
# Elastic Constant Matrix: (Units=GPa)
#
#
# Indices 1 2 3 4 5 6 
#
# 1 142.3824 82.8360 32.6797 0.0000 -46.0938 0.0000
# 2 82.8360 138.6687 24.2305 0.0000 -10.1006 0.0000
# 3 32.6797 24.2305 82.1556 0.0000 -23.3055 0.0000
# 4 0.0000 0.0000 0.0000 21.1101 0.0000 -30.1475
# 5 -46.0938 -10.1006 -23.3055 0.0000 55.8764 0.0000
# 6 0.0000 0.0000 0.0000 -30.1475 0.0000 33.2172
#
#
#
# Elastic Compliance Matrix: (Units=1/GPa)
#
#
# Indices 1 2 3 4 5 6 
#
# 1 0.015698 -0.008462 -0.000577 0.000000 0.011179 0.000000
# 2 -0.008462 0.012177 -0.001793 0.000000 -0.005528 0.000000
# 3 -0.000577 -0.001793 0.014408 0.000000 0.005209 0.000000
# 4 0.000000 0.000000 0.000000 -0.159964 0.000000 -0.145182
# 5 0.011179 -0.005528 0.005209 0.000000 0.028292 0.000000
# 6 0.000000 0.000000 0.000000 -0.145182 0.000000 -0.101660
#
#
# Mechanical properties :
#
#
# Convention : Reuss Voigt Hill
#
# Bulk Modulus (GPa) = 48.50184 71.41099 59.95641
# Shear Modulus (GPa) = -30.76743 36.93810 3.08533
#
# Velocity S-wave (km/s) = -3.44562 3.77537 1.09112
# Velocity P-wave (km/s) = 1.69876 6.82350 4.97222
#
# Compressibility (1/GPa) = 0.02061778
#
# Stress axis : x y z
#
# Youngs Moduli (GPa) = 63.70102 82.11953 69.40444
#
# Poissons Ratio (x) = 0.69493 0.04006
# Poissons Ratio (y) = 0.53907 0.12447
# Poissons Ratio (z) = 0.03677 0.14727
#
# Static dielectric constant tensor:
#      x y z
#    x 2.179400 0.000000 0.007630 
#    y 0.000000 2.078760 0.000000 
#    z 0.007630 0.000000 2.237530 
# 
# From -- ./inp_files/208100.got.cif
#   From: 2010.05.17/outbox.cif.g08.bks.cpg/sg15_105_cif.got.tgz:208100.got - 2010.06.03 18:47:42.
