data_PCOD9297590
_publ_section_title
;
Structure prediction by ZEFSAII (Michael W. Deem and Ramdas Pophale) SiO2 
 PCOD9297590
Probable space group: C 2/C
;
_chemical_formula_sum "Si O2"
_cell_formula_units_Z 64
_cell_length_a 17.864838
_cell_length_b 5.332052
_cell_length_c 28.989680
_cell_angle_alpha 90.000000
_cell_angle_beta 88.890175
_cell_angle_gamma 90.000000
_cell_volume 2760.930033
_symmetry_space_group_name_H-M "C 2/C"
_symmetry_group_IT_number 15
_symmetry_cell_setting 'monoclinic'
loop_
_space_group_symop_operation_xyz
x,y,z
-x,y,1/2-z
-x,-y,-z
x,-y,1/2+z
1/2+x,1/2+y,z
1/2-x,1/2+y,1/2-z
1/2-x,1/2-y,-z
1/2+x,1/2-y,1/2+z
loop_
_atom_site_type_symbol
_atom_site_label
_atom_site_fract_x
_atom_site_fract_y
_atom_site_fract_z
Si Si1 0.933938 0.751043 0.140814
Si Si2 0.953235 0.007669 0.048151
Si Si3 0.902014 0.078573 0.405390
Si Si4 0.068234 0.164019 0.279189
Si Si5 0.168058 0.202149 0.720866
Si Si6 0.916384 0.448264 0.850017
Si Si7 0.196975 0.457377 0.809952
Si Si8 0.698966 0.503209 0.503474
O O1 0.846813 0.687998 0.149962
O O2 0.993727 0.541656 0.156249
O O3 0.945192 0.785464 0.085902
O O4 0.949557 0.985008 0.175845
O O5 0.014973 0.162853 0.076785
O O6 0.867701 0.048317 0.033542
O O7 0.000000 0.000000 0.000000
O O8 0.880325 0.319962 0.376574
O O9 0.846640 0.024679 0.448164
O O10 0.907809 0.819930 0.376591
O O11 0.133909 0.348003 0.294164
O O12 0.000000 0.273218 0.250000
O O13 0.105318 0.980706 0.240579
O O14 0.125319 0.427465 0.697566
O O15 0.212604 0.278635 0.766181
O O16 0.225774 0.094619 0.682863
O O17 0.750000 0.250000 0.500000
O O18 0.750000 0.750000 0.500000
#
# Coordination Sequence:
#
# PCOD9297590 Si02
#       8
#     8   8   8   8   8   8   8   8
#     4  10  24  41  67 106 128 186 247 295 353 433
#     4   9  22  47  76  99 144 186 234 302 367 438
#     4  10  24  45  68 105 134 185 234 292 354 432
#     4  11  23  42  67  96 138 183 244 293 353 421
#     4  11  24  42  62  94 136 194 226 298 364 423
#     4  11  24  42  71  98 141 176 243 293 352 424
#     4  11  25  40  64  93 139 181 243 290 360 434
#     4  11  24  46  73 105 142 184 234 292 368 439
#
# _framework density 23.180595
#
# number of rings (size 3 to 8) (size 9 to 14) (size 15 to 20)
#    0.000    1.500    2.500    0.750    7.000    3.000 
#    4.500    7.500    0.000    0.000    0.000    0.000 
#    0.000    0.000    0.000    0.000    0.000    0.000 
#
# Total GULP energy -178376.629631 kJ/mol
# GULP energy per Si atom -5574.269676 kJ/mol
# Density = 2.312783 g / cm^3
# Si number density = 23.180595 Si / 1000 Ang^3
#
#
#
# Elastic Constant Matrix: (Units=GPa)
#
#
# Indices 1 2 3 4 5 6 
#
# 1 128.6469 33.6129 38.7825 0.0000 -1.8961 0.0000
# 2 33.6129 87.8375 33.5773 0.0000 -5.6538 0.0000
# 3 38.7825 33.5773 77.5375 0.0000 -14.6075 0.0000
# 4 0.0000 0.0000 0.0000 30.3695 0.0000 -10.2931
# 5 -1.8961 -5.6538 -14.6075 0.0000 34.7906 0.0000
# 6 0.0000 0.0000 0.0000 -10.2931 0.0000 38.4996
#
#
#
# Elastic Compliance Matrix: (Units=1/GPa)
#
#
# Indices 1 2 3 4 5 6 
#
# 1 0.009567 -0.002181 -0.004137 0.000000 -0.001570 0.000000
# 2 -0.002181 0.014143 -0.005020 0.000000 0.000072 0.000000
# 3 -0.004137 -0.005020 0.018399 0.000000 0.006684 0.000000
# 4 0.000000 0.000000 0.000000 0.036209 0.000000 0.009681
# 5 -0.001570 0.000072 0.006684 0.000000 0.031476 0.000000
# 6 0.000000 0.000000 0.000000 0.009681 0.000000 0.028562
#
#
# Mechanical properties :
#
#
# Convention : Reuss Voigt Hill
#
# Bulk Modulus (GPa) = 51.45651 56.21861 53.83756
# Shear Modulus (GPa) = 29.84913 33.26854 31.55884
#
# Velocity S-wave (km/s) = 3.59232 3.79250 3.69376
# Velocity P-wave (km/s) = 6.28113 6.59413 6.43953
#
# Compressibility (1/GPa) = 0.01943389
#
# Stress axis : x y z
#
# Youngs Moduli (GPa) = 104.52732 70.70710 54.35025
#
# Poissons Ratio (x) = 0.15420 0.22482
# Poissons Ratio (y) = 0.22795 0.27285
# Poissons Ratio (z) = 0.43238 0.35497
#
# Static dielectric constant tensor:
#      x y z
#    x 1.931870 0.000000 -0.032650 
#    y 0.000000 1.949210 0.000000 
#    z -0.032650 0.000000 1.921630 
# 
# From -- ./inp_files/315088.got.cif
#   From: 2010.05.17/outbox.cif.g08.bks.cpg/sg15_158_cif.got.tgz:315088.got - 2010.06.03 18:47:42.
