data_PCOD9297583
_publ_section_title
;
Structure prediction by ZEFSAII (Michael W. Deem and Ramdas Pophale) SiO2 
 PCOD9297583
Probable space group: C 2/C
;
_chemical_formula_sum "Si O2"
_cell_formula_units_Z 32
_cell_length_a 28.846249
_cell_length_b 5.358158
_cell_length_c 9.249408
_cell_angle_alpha 90.000000
_cell_angle_beta 98.054676
_cell_angle_gamma 90.000000
_cell_volume 1415.510611
_symmetry_space_group_name_H-M "C 2/C"
_symmetry_group_IT_number 15
_symmetry_cell_setting 'monoclinic'
loop_
_space_group_symop_operation_xyz
x,y,z
-x,y,1/2-z
-x,-y,-z
x,-y,1/2+z
1/2+x,1/2+y,z
1/2-x,1/2+y,1/2-z
1/2-x,1/2-y,-z
1/2+x,1/2-y,1/2+z
loop_
_atom_site_type_symbol
_atom_site_label
_atom_site_fract_x
_atom_site_fract_y
_atom_site_fract_z
Si Si1 0.875569 0.320156 0.166009
Si Si2 0.766971 0.259732 0.174531
Si Si3 0.924236 0.361647 0.902406
Si Si4 0.538969 0.365639 0.644751
O O1 0.823138 0.284630 0.192875
O O2 0.899254 0.571299 0.240587
O O3 0.910748 0.117992 0.248972
O O4 0.883391 0.318365 0.999390
O O5 0.747279 0.505632 0.247906
O O6 0.750000 0.250000 0.000000
O O7 0.951561 0.620627 0.945801
O O8 0.961050 0.136426 0.926921
O O9 0.500000 0.326871 0.750000
#
# Coordination Sequence:
#
# PCOD9297583 Si02
#       4
#     8   8   8   8
#     4  10  26  43  71  94 142 167 233 268 348 392
#     4  12  28  47  75 106 142 186 238 293 355 420
#     4  10  24  41  67  94 135 174 218 273 335 393
#     4  10  24  41  66  99 133 175 223 274 334 400
#
# _framework density 22.606683
#
# number of rings (size 3 to 8) (size 9 to 14) (size 15 to 20)
#    1.500    0.000    0.000    3.000   10.500    2.000 
#    0.000    0.000    0.000    0.000    0.000    0.000 
#    0.000    0.000    0.000    0.000    0.000    0.000 
#
# Total GULP energy -89264.654922 kJ/mol
# GULP energy per Si atom -5579.040933 kJ/mol
# Density = 2.255523 g / cm^3
# Si number density = 22.606683 Si / 1000 Ang^3
#
#
#
# Elastic Constant Matrix: (Units=GPa)
#
#
# Indices 1 2 3 4 5 6 
#
# 1 148.2173 39.2804 -10.6267 0.0000 -28.4801 0.0000
# 2 39.2804 160.7693 14.1765 0.0000 -23.7232 0.0000
# 3 -10.6267 14.1765 66.1233 0.0000 -18.5245 0.0000
# 4 0.0000 0.0000 0.0000 20.3213 0.0000 16.1538
# 5 -28.4801 -23.7232 -18.5245 0.0000 44.5183 0.0000
# 6 0.0000 0.0000 0.0000 16.1538 0.0000 -7.4080
#
#
#
# Elastic Compliance Matrix: (Units=1/GPa)
#
#
# Indices 1 2 3 4 5 6 
#
# 1 0.008557 -0.001491 0.003403 0.000000 0.006096 0.000000
# 2 -0.001491 0.007025 -0.001092 0.000000 0.002335 0.000000
# 3 0.003403 -0.001092 0.018509 0.000000 0.009297 0.000000
# 4 0.000000 0.000000 0.000000 0.018003 0.000000 0.039257
# 5 0.006096 0.002335 0.009297 0.000000 0.031475 0.000000
# 6 0.000000 0.000000 0.000000 0.039257 0.000000 -0.049385
#
#
# Mechanical properties :
#
#
# Convention : Reuss Voigt Hill
#
# Bulk Modulus (GPa) = 27.98709 51.19671 39.59190
# Shear Modulus (GPa) = 112.47237 33.63829 73.05533
#
# Velocity S-wave (km/s) = 7.06115 3.86162 5.69087
# Velocity P-wave (km/s) = 8.88182 6.52523 7.79312
#
# Compressibility (1/GPa) = 0.03573076
#
# Stress axis : x y z
#
# Youngs Moduli (GPa) = 116.85872 142.34180 54.02879
#
# Poissons Ratio (x) = 0.21228 -0.18384
# Poissons Ratio (y) = 0.17428 0.05898
# Poissons Ratio (z) = -0.39764 0.15538
#
# Static dielectric constant tensor:
#      x y z
#    x 1.857560 0.000000 0.130610 
#    y 0.000000 1.947730 0.000000 
#    z 0.130610 0.000000 1.926650 
# 
# From -- ./inp_files/67964.got.cif
#   From: 2010.05.17/outbox.cif.g08.bks.cpg/sg15_34_cif.got.tgz:67964.got - 2010.06.03 18:47:42.
