data_PCOD9297733
_publ_section_title
;
Structure prediction by ZEFSAII (Michael W. Deem and Ramdas Pophale) SiO2 
 PCOD9297733
Probable space group: C 2/C
;
_chemical_formula_sum "Si O2"
_cell_formula_units_Z 40
_cell_length_a 7.525397
_cell_length_b 30.942594
_cell_length_c 9.649376
_cell_angle_alpha 90.000000
_cell_angle_beta 59.016561
_cell_angle_gamma 90.000000
_cell_volume 1926.310807
_symmetry_space_group_name_H-M "C 2/C"
_symmetry_group_IT_number 15
_symmetry_cell_setting 'monoclinic'
loop_
_space_group_symop_operation_xyz
x,y,z
-x,y,1/2-z
-x,-y,-z
x,-y,1/2+z
1/2+x,1/2+y,z
1/2-x,1/2+y,1/2-z
1/2-x,1/2-y,-z
1/2+x,1/2-y,1/2+z
loop_
_atom_site_type_symbol
_atom_site_label
_atom_site_fract_x
_atom_site_fract_y
_atom_site_fract_z
Si Si1 0.462816 0.956954 0.101687
Si Si2 0.633662 0.597609 0.579709
Si Si3 0.000000 0.358896 0.750000
Si Si4 0.185365 0.691160 0.431399
Si Si5 0.500000 0.766597 0.250000
Si Si6 0.144724 0.102483 0.062746
O O1 0.500000 0.966046 0.250000
O O2 0.246710 0.938218 0.129448
O O3 0.634564 0.919946 0.004328
O O4 0.500000 0.000000 0.000000
O O5 0.500000 0.624113 0.750000
O O6 0.465899 0.585546 0.530362
O O7 0.820035 0.616622 0.409341
O O8 0.888988 0.330586 0.678574
O O9 0.307418 0.734284 0.341424
O O10 0.324121 0.654495 0.452116
O O11 0.005881 0.704055 0.611005
O O12 0.000000 0.092083 0.250000
#
# Coordination Sequence:
#
# PCOD9297733 Si02
#       6
#     8   8   4   8   4   8
#     4  12  29  47  70 107 146 182 241 305 360 431
#     4  12  25  45  73 108 138 192 242 292 358 429
#     4  12  24  44  74 107 144 186 247 296 350 434
#     4  11  23  43  69 102 142 191 236 298 363 423
#     4  10  24  42  66 101 146 188 233 304 362 426
#     4  12  24  46  75 100 143 191 243 293 361 434
#
# _framework density 20.765083000000001
#
# number of rings (size 3 to 8) (size 9 to 14) (size 15 to 20)
#    0.000    0.400    7.000    0.000    8.400    2.400 
#    0.000    0.000    0.000    0.000    0.000    0.000 
#    0.000    0.000    0.000    0.000    0.000    0.000 
#
# Total GULP energy -111530.867405 kJ/mol
# GULP energy per Si atom -5576.543370 kJ/mol
# Density = 2.071782 g / cm^3
# Si number density = 20.765083 Si / 1000 Ang^3
#
#
#
# Elastic Constant Matrix: (Units=GPa)
#
#
# Indices 1 2 3 4 5 6 
#
# 1 123.7851 30.7255 39.1332 0.0000 28.5483 0.0000
# 2 30.7255 56.9864 53.6172 0.0000 15.7774 0.0000
# 3 39.1332 53.6172 185.8903 0.0000 17.0174 0.0000
# 4 0.0000 0.0000 0.0000 32.6846 0.0000 4.2047
# 5 28.5483 15.7774 17.0174 0.0000 40.2917 0.0000
# 6 0.0000 0.0000 0.0000 4.2047 0.0000 0.8071
#
#
#
# Elastic Compliance Matrix: (Units=1/GPa)
#
#
# Indices 1 2 3 4 5 6 
#
# 1 0.010478 -0.003386 -0.000698 0.000000 -0.005803 0.000000
# 2 -0.003386 0.027088 -0.006604 0.000000 -0.005418 0.000000
# 3 -0.000698 -0.006604 0.007437 0.000000 -0.000060 0.000000
# 4 0.000000 0.000000 0.000000 0.092752 0.000000 -0.483170
# 5 -0.005803 -0.005418 -0.000060 0.000000 0.031078 0.000000
# 6 0.000000 0.000000 0.000000 -0.483170 0.000000 3.755890
#
#
# Mechanical properties :
#
#
# Convention : Reuss Voigt Hill
#
# Bulk Modulus (GPa) = 42.32584 68.17927 55.25256
# Shear Modulus (GPa) = 1.26455 30.96909 16.11682
#
# Velocity S-wave (km/s) = 0.78122 3.86606 2.78897
# Velocity P-wave (km/s) = 4.60881 7.26866 6.08583
#
# Compressibility (1/GPa) = 0.02362623
#
# Stress axis : x y z
#
# Youngs Moduli (GPa) = 95.43743 36.91733 134.46604
#
# Poissons Ratio (x) = 0.12501 0.09384
# Poissons Ratio (y) = 0.32316 0.88803
# Poissons Ratio (z) = 0.06660 0.24381
#
# Static dielectric constant tensor:
#      x y z
#    x 1.756670 0.000000 -0.041880 
#    y 0.000000 1.725750 0.000000 
#    z -0.041880 0.000000 1.790120 
# 
# From -- ./inp_files/25401.got.cif
#   From: 2010.05.17/outbox.cif.g08.bks.cpg/sg15_13_cif.got.tgz:25401.got - 2010.06.03 18:47:42.
