data_PCOD9297826
_publ_section_title
;
Structure prediction by ZEFSAII (Michael W. Deem and Ramdas Pophale) SiO2 
 PCOD9297826
Probable space group: C 2/C
;
_chemical_formula_sum "Si O2"
_cell_formula_units_Z 40
_cell_length_a 21.638127
_cell_length_b 21.156375
_cell_length_c 9.223447
_cell_angle_alpha 90.000000
_cell_angle_beta 152.794869
_cell_angle_gamma 90.000000
_cell_volume 1930.363504
_symmetry_space_group_name_H-M "C 2/C"
_symmetry_group_IT_number 15
_symmetry_cell_setting 'monoclinic'
loop_
_space_group_symop_operation_xyz
x,y,z
-x,y,1/2-z
-x,-y,-z
x,-y,1/2+z
1/2+x,1/2+y,z
1/2-x,1/2+y,1/2-z
1/2-x,1/2-y,-z
1/2+x,1/2-y,1/2+z
loop_
_atom_site_type_symbol
_atom_site_label
_atom_site_fract_x
_atom_site_fract_y
_atom_site_fract_z
Si Si1 0.734548 0.542280 0.650426
Si Si2 0.000000 0.035228 0.750000
Si Si3 0.500000 0.245724 0.250000
Si Si4 0.159689 0.567918 0.310904
Si Si5 0.207399 0.144750 0.154842
Si Si6 0.888599 0.641950 0.801467
O O1 0.584256 0.512634 0.322338
O O2 0.833575 0.490986 0.784088
O O3 0.771727 0.607987 0.652336
O O4 0.766415 0.549006 0.886726
O O5 0.881904 0.086060 0.465066
O O6 0.618578 0.293160 0.451974
O O7 0.553272 0.201082 0.489406
O O8 0.238803 0.621706 0.387358
O O9 0.011861 0.593349 0.037508
O O10 0.326981 0.157266 0.517045
#
# Coordination Sequence:
#
# PCOD9297826 Si02
#       6
#     8   4   4   8   8   8
#     4  11  22  39  66  96 138 166 212 265 327 386
#     4   9  22  40  60  96 126 169 210 262 316 385
#     4  11  24  46  68  92 132 169 226 266 312 389
#     4  11  23  41  65 100 131 170 212 266 326 387
#     4  10  24  42  68  90 129 176 217 265 321 375
#     4  12  23  43  65  98 129 173 214 270 324 380
#
# _framework density 20.721485999999999
#
# number of rings (size 3 to 8) (size 9 to 14) (size 15 to 20)
#    0.000    1.200    2.000    4.200    0.000   12.800 
#    0.000    0.000    0.000    0.000    0.000    0.000 
#    0.000    0.000    0.000    0.000    0.000    0.000 
#
# Total GULP energy -111676.245832 kJ/mol
# GULP energy per Si atom -5583.812292 kJ/mol
# Density = 2.067432 g / cm^3
# Si number density = 20.721486 Si / 1000 Ang^3
#
#
#
# Elastic Constant Matrix: (Units=GPa)
#
#
# Indices 1 2 3 4 5 6 
#
# 1 119.3901 58.2806 46.2735 0.0000 -8.6895 0.0000
# 2 58.2806 97.3420 27.2298 0.0000 5.4513 0.0000
# 3 46.2735 27.2298 82.3516 0.0000 -9.0503 0.0000
# 4 0.0000 0.0000 0.0000 -20.3035 0.0000 90.6802
# 5 -8.6895 5.4513 -9.0503 0.0000 43.9563 0.0000
# 6 0.0000 0.0000 0.0000 90.6802 0.0000 -140.3909
#
#
#
# Elastic Compliance Matrix: (Units=1/GPa)
#
#
# Indices 1 2 3 4 5 6 
#
# 1 0.014071 -0.007092 -0.005279 0.000000 0.002574 0.000000
# 2 -0.007092 0.015112 -0.001403 0.000000 -0.003565 0.000000
# 3 -0.005279 -0.001403 0.015836 0.000000 0.002391 0.000000
# 4 0.000000 0.000000 0.000000 0.026132 0.000000 0.016879
# 5 0.002574 -0.003565 0.002391 0.000000 0.024193 0.000000
# 6 0.000000 0.000000 0.000000 0.016879 0.000000 0.003779
#
#
# Mechanical properties :
#
#
# Convention : Reuss Voigt Hill
#
# Bulk Modulus (GPa) = 57.24025 62.51684 59.87855
# Shear Modulus (GPa) = 37.73732 -12.19432 12.77150
#
# Velocity S-wave (km/s) = 4.27214 -2.42851 2.48531
# Velocity P-wave (km/s) = 7.21239 4.72991 6.09879
#
# Compressibility (1/GPa) = 0.01747022
#
# Stress axis : x y z
#
# Youngs Moduli (GPa) = 71.06635 66.17438 63.14758
#
# Poissons Ratio (x) = 0.46933 0.33334
# Poissons Ratio (y) = 0.50403 0.08861
# Poissons Ratio (z) = 0.37514 0.09286
#
# Static dielectric constant tensor:
#      x y z
#    x 1.744550 0.000000 0.014750 
#    y 0.000000 1.737450 0.000000 
#    z 0.014750 0.000000 1.739190 
# 
# From -- ./inp_files/58710.got.cif
#   From: 2010.05.17/outbox.cif.g08.bks.cpg/sg15_30_cif.got.tgz:58710.got - 2010.06.03 18:47:42.
