data_PCOD9297435
_publ_section_title
;
Structure prediction by ZEFSAII (Michael W. Deem and Ramdas Pophale) SiO2 
 PCOD9297435
Probable space group: C 2/C
;
_chemical_formula_sum "Si O2"
_cell_formula_units_Z 48
_cell_length_a 9.394262
_cell_length_b 11.892551
_cell_length_c 25.420153
_cell_angle_alpha 90.000000
_cell_angle_beta 123.084029
_cell_angle_gamma 90.000000
_cell_volume 2379.539741
_symmetry_space_group_name_H-M "C 2/C"
_symmetry_group_IT_number 15
_symmetry_cell_setting 'monoclinic'
loop_
_space_group_symop_operation_xyz
x,y,z
-x,y,1/2-z
-x,-y,-z
x,-y,1/2+z
1/2+x,1/2+y,z
1/2-x,1/2+y,1/2-z
1/2-x,1/2-y,-z
1/2+x,1/2-y,1/2+z
loop_
_atom_site_type_symbol
_atom_site_label
_atom_site_fract_x
_atom_site_fract_y
_atom_site_fract_z
Si Si1 0.743573 0.382760 0.807710
Si Si2 0.649404 0.601219 0.992558
Si Si3 0.913682 0.256116 0.607563
Si Si4 0.119720 0.145949 0.468312
Si Si5 0.959146 0.195613 0.323519
Si Si6 0.306148 0.361844 0.188626
O O1 0.659591 0.390606 0.732934
O O2 0.625863 0.302334 0.820261
O O3 0.739740 0.508064 0.830184
O O4 0.924445 0.324765 0.841043
O O5 0.556162 0.646002 0.921529
O O6 0.708018 0.475165 0.991328
O O7 0.814368 0.665770 0.046401
O O8 0.517045 0.629654 0.012541
O O9 0.809296 0.212659 0.636458
O O10 0.250000 0.250000 0.500000
O O11 0.023116 0.158837 0.393492
O O12 0.840175 0.305625 0.304874
O O13 0.500000 0.357066 0.250000
#
# Coordination Sequence:
#
# PCOD9297435 Si02
#       6
#     8   8   8   8   8   8
#     4  11  25  43  66  97 132 172 218 276 335 387
#     4  10  24  40  66  94 131 175 219 271 327 392
#     4  11  23  44  66  97 130 174 224 268 331 398
#     4  11  23  42  62  96 135 172 220 274 327 393
#     4  11  23  42  65  96 128 169 222 264 333 392
#     4  12  23  43  69  95 133 171 214 279 329 392
#
# _framework density 20.171968
#
# number of rings (size 3 to 8) (size 9 to 14) (size 15 to 20)
#    0.000    1.000    5.000    2.000    2.333    0.000 
#    0.000    7.500    0.000    0.000    0.000    0.000 
#    0.000    0.000    0.000    0.000    0.000    0.000 
#
# Total GULP energy -133736.119642 kJ/mol
# GULP energy per Si atom -5572.338318 kJ/mol
# Density = 2.012606 g / cm^3
# Si number density = 20.171968 Si / 1000 Ang^3
#
#
#
# Elastic Constant Matrix: (Units=GPa)
#
#
# Indices 1 2 3 4 5 6 
#
# 1 67.6409 50.4455 20.4684 0.0000 -3.8722 0.0000
# 2 50.4455 127.5306 40.8912 0.0000 6.9767 0.0000
# 3 20.4684 40.8912 93.8586 0.0000 -0.9273 0.0000
# 4 0.0000 0.0000 0.0000 12.7781 0.0000 3.2907
# 5 -3.8722 6.9767 -0.9273 0.0000 19.6463 0.0000
# 6 0.0000 0.0000 0.0000 3.2907 0.0000 31.4173
#
#
#
# Elastic Compliance Matrix: (Units=1/GPa)
#
#
# Indices 1 2 3 4 5 6 
#
# 1 0.022087 -0.008862 -0.000882 0.000000 0.007459 0.000000
# 2 -0.008862 0.012906 -0.003755 0.000000 -0.006507 0.000000
# 3 -0.000882 -0.003755 0.012500 0.000000 0.001749 0.000000
# 4 0.000000 0.000000 0.000000 0.080428 0.000000 -0.008424
# 5 0.007459 -0.006507 0.001749 0.000000 0.054764 0.000000
# 6 0.000000 0.000000 0.000000 -0.008424 0.000000 0.032712
#
#
# Mechanical properties :
#
#
# Convention : Reuss Voigt Hill
#
# Bulk Modulus (GPa) = 48.79026 56.96004 52.87515
# Shear Modulus (GPa) = 20.06211 24.58334 22.32272
#
# Velocity S-wave (km/s) = 3.15708 3.49476 3.33020
# Velocity P-wave (km/s) = 6.12611 6.67705 6.40750
#
# Compressibility (1/GPa) = 0.02049589
#
# Stress axis : x y z
#
# Youngs Moduli (GPa) = 45.27583 77.48062 80.00140
#
# Poissons Ratio (x) = 0.68661 0.07057
# Poissons Ratio (y) = 0.40122 0.30038
# Poissons Ratio (z) = 0.03994 0.29091
#
# Static dielectric constant tensor:
#      x y z
#    x 1.734120 0.000000 -0.011110 
#    y 0.000000 1.775290 0.000000 
#    z -0.011110 0.000000 1.729580 
# 
# From -- ./inp_files/287768.got.cif
#   From: 2010.05.17/outbox.cif.g08.bks.cpg/sg15_144_cif.got.tgz:287768.got - 2010.06.03 18:47:42.
