data_PCOD9297513
_publ_section_title
;
Structure prediction by ZEFSAII (Michael W. Deem and Ramdas Pophale) SiO2 
 PCOD9297513
Probable space group: C 2/C
;
_chemical_formula_sum "Si O2"
_cell_formula_units_Z 48
_cell_length_a 14.179200
_cell_length_b 8.768028
_cell_length_c 22.589955
_cell_angle_alpha 90.000000
_cell_angle_beta 44.812511
_cell_angle_gamma 90.000000
_cell_volume 1979.375643
_symmetry_space_group_name_H-M "C 2/C"
_symmetry_group_IT_number 15
_symmetry_cell_setting 'monoclinic'
loop_
_space_group_symop_operation_xyz
x,y,z
-x,y,1/2-z
-x,-y,-z
x,-y,1/2+z
1/2+x,1/2+y,z
1/2-x,1/2+y,1/2-z
1/2-x,1/2-y,-z
1/2+x,1/2-y,1/2+z
loop_
_atom_site_type_symbol
_atom_site_label
_atom_site_fract_x
_atom_site_fract_y
_atom_site_fract_z
Si Si1 0.103171 0.764693 0.537078
Si Si2 0.000000 0.021851 0.750000
Si Si3 0.864035 0.259841 0.998677
Si Si4 0.867374 0.426315 0.195756
Si Si5 0.000000 0.000000 0.500000
Si Si6 0.212479 0.440566 0.895328
Si Si7 0.607678 0.753126 0.801012
O O1 0.250000 0.750000 0.500000
O O2 0.132141 0.700760 0.457641
O O3 0.002069 0.664280 0.620909
O O4 0.036535 0.925010 0.550224
O O5 0.872868 0.924617 0.828116
O O6 0.945633 0.133427 0.723284
O O7 0.999323 0.259733 0.900832
O O8 0.750000 0.250000 0.000000
O O9 0.881648 0.129541 0.040457
O O10 0.834736 0.418880 0.043471
O O11 0.823247 0.506735 0.154102
O O12 0.748415 0.310369 0.263385
O O13 0.880629 0.575520 0.230678
#
# Coordination Sequence:
#
# PCOD9297513 Si02
#       7
#     8   4   8   8   4   8   8
#     4  12  26  45  73 105 143 190 249 304 371 447
#     4  10  24  40  74 104 144 186 252 294 372 446
#     4  12  23  44  78 105 143 193 245 297 376 442
#     4  11  25  45  68  98 147 186 241 301 376 436
#     4  12  28  42  74 118 142 180 256 314 352 456
#     4  11  22  47  70 101 143 192 233 303 373 439
#     4  11  25  43  68 101 142 195 235 306 368 439
#
# _framework density 24.250070000000001
#
# number of rings (size 3 to 8) (size 9 to 14) (size 15 to 20)
#    0.000    0.667    5.000    2.500    2.333    1.333 
#    0.000    0.000    0.000    1.000    0.000    0.000 
#    0.000    0.000    0.000    0.000    0.000    0.000 
#
# Total GULP energy -133791.099979 kJ/mol
# GULP energy per Si atom -5574.629166 kJ/mol
# Density = 2.419488 g / cm^3
# Si number density = 24.250070 Si / 1000 Ang^3
#
#
#
# Elastic Constant Matrix: (Units=GPa)
#
#
# Indices 1 2 3 4 5 6 
#
# 1 119.3725 -2.8450 13.7011 0.0000 -25.0495 0.0000
# 2 -2.8450 43.7937 16.7254 0.0000 -15.0128 0.0001
# 3 13.7011 16.7254 129.4563 0.0000 -39.2128 0.0000
# 4 0.0000 0.0000 0.0000 31.3876 0.0000 6.7900
# 5 -25.0495 -15.0128 -39.2128 0.0000 44.3237 0.0000
# 6 0.0000 0.0001 0.0000 6.7900 0.0000 31.4323
#
#
#
# Elastic Compliance Matrix: (Units=1/GPa)
#
#
# Indices 1 2 3 4 5 6 
#
# 1 0.009871 0.002820 0.000779 0.000000 0.007222 0.000000
# 2 0.002820 0.026723 -0.000719 0.000000 0.010008 0.000000
# 3 0.000779 -0.000719 0.010648 0.000000 0.009617 0.000000
# 4 0.000000 0.000000 0.000000 0.033422 0.000000 -0.007220
# 5 0.007222 0.010008 0.009617 0.000000 0.038541 0.000000
# 6 0.000000 0.000000 0.000000 -0.007220 0.000000 0.033374
#
#
# Mechanical properties :
#
#
# Convention : Reuss Voigt Hill
#
# Bulk Modulus (GPa) = 18.86801 38.64284 28.75543
# Shear Modulus (GPa) = 30.39759 39.09812 34.74785
#
# Velocity S-wave (km/s) = 3.54433 4.01969 3.78947
# Velocity P-wave (km/s) = 4.95451 6.12483 5.57049
#
# Compressibility (1/GPa) = 0.05299975
#
# Stress axis : x y z
#
# Youngs Moduli (GPa) = 101.31194 37.42064 93.91372
#
# Poissons Ratio (x) = -0.10551 -0.07313
# Poissons Ratio (y) = -0.28567 0.06756
# Poissons Ratio (z) = -0.07889 0.02692
#
# Static dielectric constant tensor:
#      x y z
#    x 1.868630 0.000000 0.120090 
#    y 0.000000 1.766270 0.000000 
#    z 0.120090 0.000000 1.822130 
# 
# From -- ./inp_files/295429.got.cif
#   From: 2010.05.17/outbox.cif.g08.bks.cpg/sg15_148_cif.got.tgz:295429.got - 2010.06.03 18:47:42.
