data_PCOD9297062
_publ_section_title
;
Structure prediction by ZEFSAII (Michael W. Deem and Ramdas Pophale) SiO2 
 PCOD9297062
Probable space group: C 2/C
;
_chemical_formula_sum "Si O2"
_cell_formula_units_Z 40
_cell_length_a 7.309880
_cell_length_b 28.095300
_cell_length_c 9.610299
_cell_angle_alpha 90.000000
_cell_angle_beta 129.132380
_cell_angle_gamma 90.000000
_cell_volume 1530.977958
_symmetry_space_group_name_H-M "C 2/C"
_symmetry_group_IT_number 15
_symmetry_cell_setting 'monoclinic'
loop_
_space_group_symop_operation_xyz
x,y,z
-x,y,1/2-z
-x,-y,-z
x,-y,1/2+z
1/2+x,1/2+y,z
1/2-x,1/2+y,1/2-z
1/2-x,1/2-y,-z
1/2+x,1/2-y,1/2+z
loop_
_atom_site_type_symbol
_atom_site_label
_atom_site_fract_x
_atom_site_fract_y
_atom_site_fract_z
Si Si1 0.638927 0.893702 0.012000
Si Si2 0.500000 0.683424 0.750000
Si Si3 0.723719 0.668202 0.298847
Si Si4 0.500000 0.931031 0.250000
Si Si5 0.978271 0.755836 0.008736
Si Si6 0.758896 0.002862 0.546907
O O1 0.580144 0.902552 0.149905
O O2 0.748990 0.941546 0.003236
O O3 0.824970 0.851751 0.088555
O O4 0.399704 0.872443 0.835166
O O5 0.365578 0.714550 0.802125
O O6 0.500000 0.640756 0.250000
O O7 0.888152 0.706865 0.460328
O O8 0.589936 0.705329 0.135627
O O9 0.715974 0.965323 0.402807
O O10 0.750000 0.750000 0.000000
O O11 0.000000 0.994033 0.750000
O O12 0.500000 0.000000 0.500000
#
# Coordination Sequence:
#
# PCOD9297062 Si02
#       6
#     8   4   8   4   8   8
#     4  11  25  45  68 107 137 186 241 294 362 436
#     4  12  24  42  69 100 140 182 243 288 352 416
#     4  12  26  44  71 106 146 190 242 298 366 435
#     4  10  26  48  73 104 154 184 241 312 378 442
#     4  12  23  45  69  98 145 190 239 291 354 431
#     4  10  23  47  74 105 143 189 242 300 377 445
#
# _framework density 26.127091
#
# number of rings (size 3 to 8) (size 9 to 14) (size 15 to 20)
#    0.000    0.800    5.000    0.600    2.800    8.000 
#    1.800    0.000    0.000    0.000    0.000    0.000 
#    0.000    0.000    0.000    0.000    0.000    0.000 
#
# Total GULP energy -111604.363811 kJ/mol
# GULP energy per Si atom -5580.218191 kJ/mol
# Density = 2.606762 g / cm^3
# Si number density = 26.127091 Si / 1000 Ang^3
#
#
#
# Elastic Constant Matrix: (Units=GPa)
#
#
# Indices 1 2 3 4 5 6 
#
# 1 95.3266 20.1965 36.4604 0.0000 27.0236 0.0000
# 2 20.1965 108.8699 15.7840 0.0000 6.3245 0.0000
# 3 36.4604 15.7840 131.3368 0.0000 33.6354 0.0000
# 4 0.0000 0.0000 0.0000 -160.7932 0.0000 -128.8920
# 5 27.0236 6.3245 33.6354 0.0000 40.2941 0.0000
# 6 0.0000 0.0000 0.0000 -128.8920 0.0000 -57.8633
#
#
#
# Elastic Compliance Matrix: (Units=1/GPa)
#
#
# Indices 1 2 3 4 5 6 
#
# 1 0.013633 -0.001856 -0.001647 0.000000 -0.007477 0.000000
# 2 -0.001856 0.009615 -0.000728 0.000000 0.000343 0.000000
# 3 -0.001647 -0.000728 0.009980 0.000000 -0.007112 0.000000
# 4 0.000000 0.000000 0.000000 0.007917 0.000000 -0.017634
# 5 -0.007477 0.000343 -0.007112 0.000000 0.035715 0.000000
# 6 0.000000 0.000000 0.000000 -0.017634 0.000000 0.021999
#
#
# Mechanical properties :
#
#
# Convention : Reuss Voigt Hill
#
# Bulk Modulus (GPa) = 40.37723 53.37945 46.87834
# Shear Modulus (GPa) = 43.26151 -18.13297 12.56427
#
# Velocity S-wave (km/s) = 4.07358 -2.63730 2.19530
# Velocity P-wave (km/s) = 6.13295 3.34682 4.94036
#
# Compressibility (1/GPa) = 0.02476643
#
# Stress axis : x y z
#
# Youngs Moduli (GPa) = 73.35172 104.00192 100.19931
#
# Poissons Ratio (x) = 0.19302 0.16500
# Poissons Ratio (y) = 0.13614 0.07297
# Poissons Ratio (z) = 0.12079 0.07574
#
# Static dielectric constant tensor:
#      x y z
#    x 2.229470 0.000000 -0.013050 
#    y 0.000000 2.129940 0.000000 
#    z -0.013050 0.000000 2.330390 
# 
# From -- ./inp_files/82408.got.cif
#   From: 2010.05.17/outbox.cif.g08.bks.cpg/sg15_42_cif.got.tgz:82408.got - 2010.06.03 18:47:42.
