data_PCOD9297072
_publ_section_title
;
Structure prediction by ZEFSAII (Michael W. Deem and Ramdas Pophale) SiO2 
 PCOD9297072
Probable space group: C 2/C
;
_chemical_formula_sum "Si O2"
_cell_formula_units_Z 36
_cell_length_a 12.388842
_cell_length_b 8.433850
_cell_length_c 13.951035
_cell_angle_alpha 90.000000
_cell_angle_beta 108.296642
_cell_angle_gamma 90.000000
_cell_volume 1383.987966
_symmetry_space_group_name_H-M "C 2/C"
_symmetry_group_IT_number 15
_symmetry_cell_setting 'monoclinic'
loop_
_space_group_symop_operation_xyz
x,y,z
-x,y,1/2-z
-x,-y,-z
x,-y,1/2+z
1/2+x,1/2+y,z
1/2-x,1/2+y,1/2-z
1/2-x,1/2-y,-z
1/2+x,1/2-y,1/2+z
loop_
_atom_site_type_symbol
_atom_site_label
_atom_site_fract_x
_atom_site_fract_y
_atom_site_fract_z
Si Si1 0.731325 0.993372 0.967699
Si Si2 0.607852 0.788191 0.059441
Si Si3 0.373651 0.969896 0.245415
Si Si4 0.000000 0.226771 0.750000
Si Si5 0.056596 0.923138 0.867825
O O1 0.804906 0.846097 0.949141
O O2 0.705479 0.085078 0.863232
O O3 0.613668 0.922498 0.978096
O O4 0.810456 0.075201 0.068781
O O5 0.653409 0.886995 0.163478
O O6 0.501082 0.686927 0.067668
O O7 0.500000 0.925885 0.250000
O O8 0.393083 0.161131 0.248399
O O9 0.973966 0.111925 0.652155
O O10 0.000000 0.877430 0.750000
#
# Coordination Sequence:
#
# PCOD9297072 Si02
#       5
#     8   8   8   4   8
#     4  11  25  45  74 110 143 199 241 298 393 424
#     4  11  24  45  75 103 148 187 251 304 349 460
#     4  10  24  47  68 106 148 185 243 308 364 437
#     4   8  20  40  74  94 144 188 226 304 366 404
#     4  10  23  47  75 107 147 195 246 304 366 445
#
# _framework density 26.011787000000002
#
# number of rings (size 3 to 8) (size 9 to 14) (size 15 to 20)
#    1.333    0.444    0.000    4.000    3.111    0.889 
#    4.000    4.444    0.000    4.000    0.000    0.000 
#    0.000    0.000    0.000    0.000    0.000    0.000 
#
# Total GULP energy -100316.252837 kJ/mol
# GULP energy per Si atom -5573.125158 kJ/mol
# Density = 2.595258 g / cm^3
# Si number density = 26.011787 Si / 1000 Ang^3
#
#
#
# Elastic Constant Matrix: (Units=GPa)
#
#
# Indices 1 2 3 4 5 6 
#
# 1 70.6121 18.4876 10.5551 0.0000 -5.0713 0.0000
# 2 18.4876 128.3650 30.2875 0.0000 -5.3007 0.0000
# 3 10.5551 30.2875 125.7484 0.0000 10.7981 0.0000
# 4 0.0000 0.0000 0.0000 524.7226 0.0000 321.6783
# 5 -5.0713 -5.3007 10.7981 0.0000 46.4215 0.0000
# 6 0.0000 0.0000 0.0000 321.6783 0.0000 244.4349
#
#
#
# Elastic Compliance Matrix: (Units=1/GPa)
#
#
# Indices 1 2 3 4 5 6 
#
# 1 0.014907 -0.001856 -0.000945 0.000000 0.001636 0.000000
# 2 -0.001856 0.008586 -0.002019 0.000000 0.001247 0.000000
# 3 -0.000945 -0.002019 0.008721 0.000000 -0.002362 0.000000
# 4 0.000000 0.000000 0.000000 0.009863 0.000000 -0.012979
# 5 0.001636 0.001247 -0.002362 0.000000 0.022412 0.000000
# 6 0.000000 0.000000 0.000000 -0.012979 0.000000 0.021172
#
#
# Mechanical properties :
#
#
# Convention : Reuss Voigt Hill
#
# Bulk Modulus (GPa) = 44.30149 49.26511 46.78330
# Shear Modulus (GPa) = 48.62625 180.80882 114.71753
#
# Velocity S-wave (km/s) = 4.32834 8.34633 6.64815
# Velocity P-wave (km/s) = 6.48441 10.57650 8.77240
#
# Compressibility (1/GPa) = 0.02257260
#
# Stress axis : x y z
#
# Youngs Moduli (GPa) = 67.08422 116.47431 114.66749
#
# Poissons Ratio (x) = 0.21623 0.10831
# Poissons Ratio (y) = 0.12454 0.23153
# Poissons Ratio (z) = 0.06337 0.23518
#
# Static dielectric constant tensor:
#      x y z
#    x 2.070160 0.000000 -0.112760 
#    y 0.000000 2.210850 0.000000 
#    z -0.112760 0.000000 2.322040 
# 
# From -- ./inp_files/150396.got.cif
#   From: 2010.05.17/outbox.cif.g08.bks.cpg/sg15_76_cif.got.tgz:150396.got - 2010.06.03 18:47:42.
