data_PCOD9297745
_publ_section_title
;
Structure prediction by ZEFSAII (Michael W. Deem and Ramdas Pophale) SiO2 
 PCOD9297745
Probable space group: C 2/C
;
_chemical_formula_sum "Si O2"
_cell_formula_units_Z 32
_cell_length_a 12.657590
_cell_length_b 18.335384
_cell_length_c 5.161294
_cell_angle_alpha 90.000000
_cell_angle_beta 99.142362
_cell_angle_gamma 90.000000
_cell_volume 1182.625596
_symmetry_space_group_name_H-M "C 2/C"
_symmetry_group_IT_number 15
_symmetry_cell_setting 'monoclinic'
loop_
_space_group_symop_operation_xyz
x,y,z
-x,y,1/2-z
-x,-y,-z
x,-y,1/2+z
1/2+x,1/2+y,z
1/2-x,1/2+y,1/2-z
1/2-x,1/2-y,-z
1/2+x,1/2-y,1/2+z
loop_
_atom_site_type_symbol
_atom_site_label
_atom_site_fract_x
_atom_site_fract_y
_atom_site_fract_z
Si Si1 0.784030 0.335485 0.018398
Si Si2 0.619200 0.583434 0.813306
Si Si3 0.178945 0.542783 0.339927
Si Si4 0.000000 0.310525 0.250000
Si Si5 0.500000 0.281273 0.250000
O O1 0.688412 0.386816 0.094311
O O2 0.885450 0.346975 0.250390
O O3 0.750000 0.250000 0.000000
O O4 0.823815 0.374639 0.769594
O O5 0.500000 0.550172 0.750000
O O6 0.587930 0.664355 0.906666
O O7 0.693816 0.539832 0.037574
O O8 0.135896 0.505068 0.583328
O O9 0.029634 0.265622 0.516494
#
# Coordination Sequence:
#
# PCOD9297745 Si02
#       5
#     8   8   8   4   4
#     4  12  25  48  79 109 150 189 254 305 364 438
#     4  10  24  44  75 106 151 187 241 298 372 437
#     4  12  27  49  72 109 150 199 244 301 371 443
#     4  12  26  42  74 110 144 198 230 318 372 414
#     4  10  24  42  66 114 146 176 248 286 382 430
#
# _framework density 27.058437000000001
#
# number of rings (size 3 to 8) (size 9 to 14) (size 15 to 20)
#    0.750    0.000    5.000    1.500    3.500    4.000 
#    0.000    1.250    0.000    0.000    0.000    0.000 
#    0.000    0.000    0.000    0.000    0.000    0.000 
#
# Total GULP energy -89084.830046 kJ/mol
# GULP energy per Si atom -5567.801878 kJ/mol
# Density = 2.699685 g / cm^3
# Si number density = 27.058437 Si / 1000 Ang^3
#
#
#
# Elastic Constant Matrix: (Units=GPa)
#
#
# Indices 1 2 3 4 5 6 
#
# 1 92.5024 6.0661 20.0719 0.0000 18.1205 0.0000
# 2 6.0661 187.4784 68.4080 0.0000 1.4322 0.0000
# 3 20.0719 68.4080 170.6651 0.0000 -17.3973 0.0000
# 4 0.0000 0.0000 0.0000 38.2842 0.0000 11.6704
# 5 18.1205 1.4322 -17.3973 0.0000 38.3445 0.0000
# 6 0.0000 0.0000 0.0000 11.6704 0.0000 22.9774
#
#
#
# Elastic Compliance Matrix: (Units=1/GPa)
#
#
# Indices 1 2 3 4 5 6 
#
# 1 0.012699 0.000531 -0.002433 0.000000 -0.007125 0.000000
# 2 0.000531 0.006346 -0.002785 0.000000 -0.001752 0.000000
# 3 -0.002433 -0.002785 0.007748 0.000000 0.004769 0.000000
# 4 0.000000 0.000000 0.000000 0.030906 0.000000 -0.015697
# 5 -0.007125 -0.001752 0.004769 0.000000 0.031676 0.000000
# 6 0.000000 0.000000 0.000000 -0.015697 0.000000 0.051494
#
#
# Mechanical properties :
#
#
# Convention : Reuss Voigt Hill
#
# Bulk Modulus (GPa) = 57.40293 71.08202 64.24247
# Shear Modulus (GPa) = 32.04140 43.66120 37.85130
#
# Velocity S-wave (km/s) = 3.44489 4.02131 3.74421
# Velocity P-wave (km/s) = 6.08962 6.92012 6.51811
#
# Compressibility (1/GPa) = 0.01742071
#
# Stress axis : x y z
#
# Youngs Moduli (GPa) = 78.74448 157.57267 129.06657
#
# Poissons Ratio (x) = -0.08371 0.31399
# Poissons Ratio (y) = -0.04183 0.35943
# Poissons Ratio (z) = 0.19157 0.43881
#
# Static dielectric constant tensor:
#      x y z
#    x 2.268070 0.000000 -0.063720 
#    y 0.000000 2.167720 0.000000 
#    z -0.063720 0.000000 2.085200 
# 
# From -- ./inp_files/6744.got.cif
#   From: 2010.05.17/outbox.cif.g08.bks.cpg/sg15_4_cif.got.tgz:6744.got - 2010.06.03 18:47:42.
