data_PCOD9297655
_publ_section_title
;
Structure prediction by ZEFSAII (Michael W. Deem and Ramdas Pophale) SiO2 
 PCOD9297655
Probable space group: C 2/C
;
_chemical_formula_sum "Si O2"
_cell_formula_units_Z 44
_cell_length_a 8.962689
_cell_length_b 11.823065
_cell_length_c 23.181331
_cell_angle_alpha 90.000000
_cell_angle_beta 137.766159
_cell_angle_gamma 90.000000
_cell_volume 1651.118169
_symmetry_space_group_name_H-M "C 2/C"
_symmetry_group_IT_number 15
_symmetry_cell_setting 'monoclinic'
loop_
_space_group_symop_operation_xyz
x,y,z
-x,y,1/2-z
-x,-y,-z
x,-y,1/2+z
1/2+x,1/2+y,z
1/2-x,1/2+y,1/2-z
1/2-x,1/2-y,-z
1/2+x,1/2-y,1/2+z
loop_
_atom_site_type_symbol
_atom_site_label
_atom_site_fract_x
_atom_site_fract_y
_atom_site_fract_z
Si Si1 0.584085 0.317465 0.499939
Si Si2 0.000000 0.838944 0.250000
Si Si3 0.652276 0.302615 0.859534
Si Si4 0.928660 0.332210 0.831048
Si Si5 0.576741 0.542111 0.438807
Si Si6 0.533626 0.077446 0.636359
O O1 0.406354 0.218596 0.455724
O O2 0.509070 0.412850 0.431736
O O3 0.561994 0.381925 0.556009
O O4 0.846381 0.300073 0.570103
O O5 0.067400 0.755894 0.218300
O O6 0.228480 0.905877 0.326341
O O7 0.715255 0.319278 0.810769
O O8 0.535889 0.186590 0.846589
O O9 0.556756 0.406182 0.869602
O O10 0.945978 0.463740 0.820161
O O11 0.831411 0.553447 0.534338
#
# Coordination Sequence:
#
# PCOD9297655 Si02
#       6
#     8   4   8   8   8   8
#     4   9  18  36  62  94 124 152 187 240 309 365
#     4  12  26  44  60  78 120 168 208 246 288 342
#     4  11  21  37  65  93 121 152 191 246 308 358
#     4  11  25  40  62  91 118 158 204 245 294 353
#     4   9  18  36  63  93 124 152 188 243 305 363
#     4  10  24  42  61  88 119 157 201 245 292 351
#
# _framework density 26.648607999999999
#
# number of rings (size 3 to 8) (size 9 to 14) (size 15 to 20)
#    0.000    1.818    0.000    6.000    0.000    8.000 
#    0.000    0.000    0.000    2.182    0.000    0.000 
#    0.000    0.000    0.000    0.000    0.000    0.000 
#
# Total GULP energy -123202.595293 kJ/mol
# GULP energy per Si atom -5600.117968 kJ/mol
# Density = 2.658795 g / cm^3
# Si number density = 26.648608 Si / 1000 Ang^3
#
#
#
# Elastic Constant Matrix: (Units=GPa)
#
#
# Indices 1 2 3 4 5 6 
#
# 1 138.5538 22.4956 20.2706 0.0000 26.0206 0.0000
# 2 22.4956 58.3584 3.4165 0.0000 -14.3035 0.0000
# 3 20.2706 3.4165 47.6463 0.0000 26.7874 0.0000
# 4 0.0000 0.0000 0.0000 -10.6682 0.0000 -9.3149
# 5 26.0206 -14.3035 26.7874 0.0000 62.3921 0.0000
# 6 0.0000 0.0000 0.0000 -9.3149 0.0000 46.1299
#
#
#
# Elastic Compliance Matrix: (Units=1/GPa)
#
#
# Indices 1 2 3 4 5 6 
#
# 1 0.008889 -0.004407 -0.001072 0.000000 -0.004257 0.000000
# 2 -0.004407 0.021214 -0.004500 0.000000 0.008633 0.000000
# 3 -0.001072 -0.004500 0.029126 0.000000 -0.013089 0.000000
# 4 0.000000 0.000000 0.000000 -0.079687 0.000000 -0.016091
# 5 -0.004257 0.008633 -0.013089 0.000000 0.025402 0.000000
# 6 0.000000 0.000000 0.000000 -0.016091 0.000000 0.018429
#
#
# Mechanical properties :
#
#
# Convention : Reuss Voigt Hill
#
# Bulk Modulus (GPa) = 25.46479 37.43601 31.45040
# Shear Modulus (GPa) = 88.61743 32.79581 60.70662
#
# Velocity S-wave (km/s) = 5.77289 3.51191 4.77806
# Velocity P-wave (km/s) = 7.34925 5.52478 6.50133
#
# Compressibility (1/GPa) = 0.03926992
#
# Stress axis : x y z
#
# Youngs Moduli (GPa) = 112.49359 47.13900 34.33377
#
# Poissons Ratio (x) = 0.20776 0.03682
# Poissons Ratio (y) = 0.49579 0.15450
# Poissons Ratio (z) = 0.12063 0.21212
#
# Static dielectric constant tensor:
#      x y z
#    x 1.931150 0.000000 0.002920 
#    y 0.000000 2.084300 0.000000 
#    z 0.002920 0.000000 2.203420 
# 
# From -- ./inp_files/288150.got.cif
#   From: 2010.05.17/outbox.cif.g08.bks.cpg/sg15_145_cif.got.tgz:288150.got - 2010.06.03 18:47:42.
