data_PCOD9297808
_publ_section_title
;
Structure prediction by ZEFSAII (Michael W. Deem and Ramdas Pophale) SiO2 
 PCOD9297808
Probable space group: C 2/C
;
_chemical_formula_sum "Si O2"
_cell_formula_units_Z 40
_cell_length_a 20.998479
_cell_length_b 9.491557
_cell_length_c 9.621913
_cell_angle_alpha 90.000000
_cell_angle_beta 74.496664
_cell_angle_gamma 90.000000
_cell_volume 1847.950046
_symmetry_space_group_name_H-M "C 2/C"
_symmetry_group_IT_number 15
_symmetry_cell_setting 'monoclinic'
loop_
_space_group_symop_operation_xyz
x,y,z
-x,y,1/2-z
-x,-y,-z
x,-y,1/2+z
1/2+x,1/2+y,z
1/2-x,1/2+y,1/2-z
1/2-x,1/2-y,-z
1/2+x,1/2-y,1/2+z
loop_
_atom_site_type_symbol
_atom_site_label
_atom_site_fract_x
_atom_site_fract_y
_atom_site_fract_z
Si Si1 0.280446 0.625070 0.895710
Si Si2 0.911686 0.289765 0.397532
Si Si3 0.584557 0.710110 0.802035
Si Si4 0.773307 0.625792 0.886954
Si Si5 0.500000 0.531282 0.250000
Si Si6 0.500000 0.028425 0.250000
O O1 0.358404 0.651580 0.830714
O O2 0.249093 0.882074 0.242669
O O3 0.250000 0.750000 0.000000
O O4 0.257907 0.499315 0.006309
O O5 0.887177 0.246785 0.563899
O O6 0.852776 0.355621 0.341778
O O7 0.942857 0.144159 0.321756
O O8 0.966476 0.414973 0.374502
O O9 0.530153 0.583839 0.841191
O O10 0.554336 0.858551 0.769142
O O11 0.750000 0.750000 0.000000
#
# Coordination Sequence:
#
# PCOD9297808 Si02
#       6
#     8   8   8   8   4   4
#     4  12  27  47  73 104 141 184 234 295 355 421
#     4  11  23  44  70 101 140 182 235 288 348 419
#     4  11  23  45  68 102 140 181 237 286 350 418
#     4  12  25  46  72 103 140 185 235 290 356 418
#     4  10  24  44  66 102 136 190 230 288 348 412
#     4  10  24  42  68 102 136 190 232 288 346 410
#
# _framework density 21.645606999999998
#
# number of rings (size 3 to 8) (size 9 to 14) (size 15 to 20)
#    0.000    0.800    2.000    4.800    2.800    0.000 
#   14.400    0.000    0.000    0.000    0.000    0.000 
#    0.000    0.000    0.000    0.000    0.000    0.000 
#
# Total GULP energy -111489.906805 kJ/mol
# GULP energy per Si atom -5574.495340 kJ/mol
# Density = 2.159634 g / cm^3
# Si number density = 21.645607 Si / 1000 Ang^3
#
#
#
# Elastic Constant Matrix: (Units=GPa)
#
#
# Indices 1 2 3 4 5 6 
#
# 1 79.4158 22.3016 31.7327 0.0000 -3.1571 0.0000
# 2 22.3016 190.7674 59.5881 0.0000 -9.2429 0.0000
# 3 31.7327 59.5881 120.0048 0.0000 9.3872 0.0000
# 4 0.0000 0.0000 0.0000 39.9468 0.0000 -13.5653
# 5 -3.1571 -9.2429 9.3872 0.0000 36.6808 0.0000
# 6 0.0000 0.0000 0.0000 -13.5653 0.0000 30.5551
#
#
#
# Elastic Compliance Matrix: (Units=1/GPa)
#
#
# Indices 1 2 3 4 5 6 
#
# 1 0.014282 -0.000400 -0.003741 0.000000 0.002086 0.000000
# 2 -0.000400 0.006430 -0.003276 0.000000 0.002424 0.000000
# 3 -0.003741 -0.003276 0.011264 0.000000 -0.004030 0.000000
# 4 0.000000 0.000000 0.000000 0.029477 0.000000 0.013087
# 5 0.002086 0.002424 -0.004030 0.000000 0.029084 0.000000
# 6 0.000000 0.000000 0.000000 0.013087 0.000000 0.038538
#
#
# Mechanical properties :
#
#
# Convention : Reuss Voigt Hill
#
# Bulk Modulus (GPa) = 58.33984 68.60363 63.47173
# Shear Modulus (GPa) = 33.41705 39.87425 36.64565
#
# Velocity S-wave (km/s) = 3.93342 4.29667 4.11905
# Velocity P-wave (km/s) = 6.90216 7.50853 7.21172
#
# Compressibility (1/GPa) = 0.01714095
#
# Stress axis : x y z
#
# Youngs Moduli (GPa) = 70.01788 155.52956 88.77483
#
# Poissons Ratio (x) = 0.06221 0.33212
# Poissons Ratio (y) = 0.02801 0.29087
# Poissons Ratio (z) = 0.26195 0.50959
#
# Static dielectric constant tensor:
#      x y z
#    x 1.906100 0.000000 -0.014680 
#    y 0.000000 1.702490 0.000000 
#    z -0.014680 0.000000 1.717660 
# 
# From -- ./inp_files/109616.got.cif
#   From: 2010.05.17/outbox.cif.g08.bks.cpg/sg15_55_cif.got.tgz:109616.got - 2010.06.03 18:47:42.
