data_PCOD9297783
_publ_section_title
;
Structure prediction by ZEFSAII (Michael W. Deem and Ramdas Pophale) SiO2 
 PCOD9297783
Probable space group: C 2/C
;
_chemical_formula_sum "Si O2"
_cell_formula_units_Z 40
_cell_length_a 16.212350
_cell_length_b 10.129971
_cell_length_c 9.812086
_cell_angle_alpha 90.000000
_cell_angle_beta 72.007655
_cell_angle_gamma 90.000000
_cell_volume 1532.641897
_symmetry_space_group_name_H-M "C 2/C"
_symmetry_group_IT_number 15
_symmetry_cell_setting 'monoclinic'
loop_
_space_group_symop_operation_xyz
x,y,z
-x,y,1/2-z
-x,-y,-z
x,-y,1/2+z
1/2+x,1/2+y,z
1/2-x,1/2+y,1/2-z
1/2-x,1/2-y,-z
1/2+x,1/2-y,1/2+z
loop_
_atom_site_type_symbol
_atom_site_label
_atom_site_fract_x
_atom_site_fract_y
_atom_site_fract_z
Si Si1 0.278851 0.153238 0.172120
Si Si2 0.677218 0.010480 0.599544
Si Si3 0.636695 0.758308 0.438632
Si Si4 0.940145 0.016159 0.898219
Si Si5 0.560470 0.773967 0.059711
O O1 0.294666 0.029296 0.264570
O O2 0.205727 0.238578 0.282225
O O3 0.372052 0.223380 0.102381
O O4 0.260734 0.098580 0.029329
O O5 0.661689 0.873786 0.528385
O O6 0.590614 0.099521 0.631273
O O7 0.633178 0.619047 0.522460
O O8 0.538516 0.782201 0.437445
O O9 0.922104 0.863839 0.871989
O O10 0.000000 0.074907 0.750000
O O11 0.000000 0.000000 0.000000
#
# Coordination Sequence:
#
# PCOD9297783 Si02
#       5
#     8   8   8   8   8
#     4  10  25  43  75 106 145 184 252 299 372 426
#     4  10  24  44  70 108 144 188 244 306 363 440
#     4  11  23  44  74 102 147 189 241 300 374 439
#     4  10  24  42  67 101 138 188 239 292 363 437
#     4   9  24  45  70 104 143 189 242 303 368 436
#
# _framework density 26.098724000000001
#
# number of rings (size 3 to 8) (size 9 to 14) (size 15 to 20)
#    1.200    0.800    0.000    1.200    8.400    6.400 
#    0.000    2.000    0.000    0.000    0.000    0.000 
#    0.000    0.000    0.000    0.000    0.000    0.000 
#
# Total GULP energy -111946.995747 kJ/mol
# GULP energy per Si atom -5597.349787 kJ/mol
# Density = 2.603932 g / cm^3
# Si number density = 26.098724 Si / 1000 Ang^3
#
#
#
# Elastic Constant Matrix: (Units=GPa)
#
#
# Indices 1 2 3 4 5 6 
#
# 1 114.4342 14.9167 35.8156 0.0000 -28.7705 0.0000
# 2 14.9167 138.9001 24.8814 0.0000 -12.9372 0.0000
# 3 35.8156 24.8814 184.7798 0.0000 -37.5396 0.0000
# 4 0.0000 0.0000 0.0000 40.5101 0.0000 -6.0009
# 5 -28.7705 -12.9372 -37.5396 0.0000 46.0042 0.0000
# 6 0.0000 0.0000 0.0000 -6.0009 0.0000 42.2696
#
#
#
# Elastic Compliance Matrix: (Units=1/GPa)
#
#
# Indices 1 2 3 4 5 6 
#
# 1 0.010503 -0.000445 -0.000799 0.000000 0.005791 0.000000
# 2 -0.000445 0.007485 -0.000660 0.000000 0.001288 0.000000
# 3 -0.000799 -0.000660 0.006613 0.000000 0.004710 0.000000
# 4 0.000000 0.000000 0.000000 0.025215 0.000000 0.003580
# 5 0.005791 0.001288 0.004710 0.000000 0.029565 0.000000
# 6 0.000000 0.000000 0.000000 0.003580 0.000000 0.024166
#
#
# Mechanical properties :
#
#
# Convention : Reuss Voigt Hill
#
# Bulk Modulus (GPa) = 48.09650 65.48239 56.78944
# Shear Modulus (GPa) = 43.74969 49.92349 46.83659
#
# Velocity S-wave (km/s) = 4.09872 4.37838 4.24086
# Velocity P-wave (km/s) = 6.39281 7.12075 6.76658
#
# Compressibility (1/GPa) = 0.02079153
#
# Stress axis : x y z
#
# Youngs Moduli (GPa) = 95.21303 133.59288 151.22619
#
# Poissons Ratio (x) = 0.05950 0.12088
# Poissons Ratio (y) = 0.04240 0.09980
# Poissons Ratio (z) = 0.07610 0.08817
#
# Static dielectric constant tensor:
#      x y z
#    x 2.065520 0.000000 -0.023680 
#    y 0.000000 2.089310 0.000000 
#    z -0.023680 0.000000 2.039440 
# 
# From -- ./inp_files/103586.got.cif
#   From: 2010.05.17/outbox.cif.g08.bks.cpg/sg15_52_cif.got.tgz:103586.got - 2010.06.03 18:47:42.
