data_PCOD9297290
_publ_section_title
;
Structure prediction by ZEFSAII (Michael W. Deem and Ramdas Pophale) SiO2 
 PCOD9297290
Probable space group: C 2/C
;
_chemical_formula_sum "Si O2"
_cell_formula_units_Z 48
_cell_length_a 8.309017
_cell_length_b 25.941021
_cell_length_c 13.055933
_cell_angle_alpha 90.000000
_cell_angle_beta 134.955484
_cell_angle_gamma 90.000000
_cell_volume 1991.438005
_symmetry_space_group_name_H-M "C 2/C"
_symmetry_group_IT_number 15
_symmetry_cell_setting 'monoclinic'
loop_
_space_group_symop_operation_xyz
x,y,z
-x,y,1/2-z
-x,-y,-z
x,-y,1/2+z
1/2+x,1/2+y,z
1/2-x,1/2+y,1/2-z
1/2-x,1/2-y,-z
1/2+x,1/2-y,1/2+z
loop_
_atom_site_type_symbol
_atom_site_label
_atom_site_fract_x
_atom_site_fract_y
_atom_site_fract_z
Si Si1 0.277331 0.952373 0.290073
Si Si2 0.803690 0.693223 0.983521
Si Si3 0.303521 0.706782 0.234451
Si Si4 0.906933 0.186356 0.935831
Si Si5 0.500000 0.542697 0.250000
Si Si6 0.000000 0.858905 0.250000
Si Si7 0.722476 0.579505 0.547892
O O1 0.195264 0.904566 0.320457
O O2 0.539744 0.943831 0.381840
O O3 0.154615 0.948733 0.123163
O O4 0.207750 0.004602 0.314621
O O5 0.057827 0.678505 0.123076
O O6 0.750000 0.750000 0.000000
O O7 0.583700 0.660509 0.929310
O O8 0.713358 0.686758 0.830113
O O9 0.500000 0.685477 0.250000
O O10 0.231370 0.762313 0.154250
O O11 0.415081 0.704113 0.395897
O O12 0.760159 0.139640 0.912809
O O13 0.553883 0.573944 0.376927
#
# Coordination Sequence:
#
# PCOD9297290 Si02
#       7
#     8   8   8   8   4   4   8
#     4  10  24  44  73  98 134 182 226 282 362 423
#     4  10  24  38  65  89 137 179 238 278 337 392
#     4  11  26  41  64  96 141 187 233 282 340 394
#     4  11  25  43  65 100 138 191 233 286 335 405
#     4  11  24  46  72 106 136 172 226 296 369 406
#     4  11  22  42  66  98 130 186 234 282 339 424
#     4  11  24  43  73 102 139 175 237 286 341 427
#
# _framework density 24.103186999999998
#
# number of rings (size 3 to 8) (size 9 to 14) (size 15 to 20)
#    0.000    1.333    1.667    2.000   15.167    0.000 
#    0.000    0.000    3.667    0.000    0.000    0.000 
#    0.000    0.000    0.000    0.000    0.000    0.000 
#
# Total GULP energy -133688.966890 kJ/mol
# GULP energy per Si atom -5570.373620 kJ/mol
# Density = 2.404833 g / cm^3
# Si number density = 24.103187 Si / 1000 Ang^3
#
#
#
# Elastic Constant Matrix: (Units=GPa)
#
#
# Indices 1 2 3 4 5 6 
#
# 1 95.2582 8.9046 22.5895 0.0000 13.0100 0.0000
# 2 8.9046 76.9836 13.7581 0.0000 -5.2665 0.0000
# 3 22.5895 13.7581 121.2458 0.0000 -3.1637 0.0000
# 4 0.0000 0.0000 0.0000 14.1935 0.0000 -17.1677
# 5 13.0100 -5.2665 -3.1637 0.0000 37.2492 0.0000
# 6 0.0000 0.0000 0.0000 -17.1677 0.0000 15.5851
#
#
#
# Elastic Compliance Matrix: (Units=1/GPa)
#
#
# Indices 1 2 3 4 5 6 
#
# 1 0.011739 -0.001277 -0.002159 0.000000 -0.004464 0.000000
# 2 -0.001277 0.013513 -0.001237 0.000000 0.002252 0.000000
# 3 -0.002159 -0.001237 0.008825 0.000000 0.001329 0.000000
# 4 0.000000 0.000000 0.000000 -0.211978 0.000000 -0.233503
# 5 -0.004464 0.002252 0.001329 0.000000 0.028836 0.000000
# 6 0.000000 0.000000 0.000000 -0.233503 0.000000 -0.193050
#
#
# Mechanical properties :
#
#
# Convention : Reuss Voigt Hill
#
# Bulk Modulus (GPa) = 40.43502 42.66580 41.55041
# Shear Modulus (GPa) = -15.40708 29.95459 7.27376
#
# Velocity S-wave (km/s) = -2.53101 3.52911 1.73905
# Velocity P-wave (km/s) = 2.87591 5.86054 4.61610
#
# Compressibility (1/GPa) = 0.02473103
#
# Stress axis : x y z
#
# Youngs Moduli (GPa) = 85.18796 74.00518 113.31625
#
# Poissons Ratio (x) = 0.09454 0.24460
# Poissons Ratio (y) = 0.10882 0.14012
# Poissons Ratio (z) = 0.18389 0.09151
#
# Static dielectric constant tensor:
#      x y z
#    x 2.334220 0.000000 -0.413290 
#    y 0.000000 1.945090 0.000000 
#    z -0.413290 0.000000 2.594980 
# 
# From -- ./inp_files/139098.got.cif
#   From: 2010.05.17/outbox.cif.g08.bks.cpg/sg15_70_cif.got.tgz:139098.got - 2010.06.03 18:47:42.
