data_PCOD9297500
_publ_section_title
;
Structure prediction by ZEFSAII (Michael W. Deem and Ramdas Pophale) SiO2 
 PCOD9297500
Probable space group: C 2/C
;
_chemical_formula_sum "Si O2"
_cell_formula_units_Z 56
_cell_length_a 17.762108
_cell_length_b 15.580083
_cell_length_c 9.073467
_cell_angle_alpha 90.000000
_cell_angle_beta 100.016677
_cell_angle_gamma 90.000000
_cell_volume 2472.673008
_symmetry_space_group_name_H-M "C 2/C"
_symmetry_group_IT_number 15
_symmetry_cell_setting 'monoclinic'
loop_
_space_group_symop_operation_xyz
x,y,z
-x,y,1/2-z
-x,-y,-z
x,-y,1/2+z
1/2+x,1/2+y,z
1/2-x,1/2+y,1/2-z
1/2-x,1/2-y,-z
1/2+x,1/2-y,1/2+z
loop_
_atom_site_type_symbol
_atom_site_label
_atom_site_fract_x
_atom_site_fract_y
_atom_site_fract_z
Si Si1 0.500000 0.836205 0.250000
Si Si2 0.104474 0.479997 0.424924
Si Si3 0.077473 0.891544 0.098008
Si Si4 0.141008 0.264193 0.776424
Si Si5 0.500000 0.117326 0.250000
Si Si6 0.295253 0.063709 0.271182
Si Si7 0.875543 0.945136 0.713894
Si Si8 0.072887 0.797459 0.547375
O O1 0.566042 0.897216 0.338092
O O2 0.464779 0.777093 0.366482
O O3 0.179667 0.513114 0.365336
O O4 0.135137 0.460049 0.596055
O O5 0.042097 0.556073 0.383011
O O6 0.137549 0.820446 0.176770
O O7 0.081760 0.972769 0.205688
O O8 0.098237 0.921933 0.940753
O O9 0.994746 0.847169 0.061687
O O10 0.064627 0.319030 0.714349
O O11 0.205253 0.334240 0.762806
O O12 0.131085 0.238359 0.944259
O O13 0.214604 0.036657 0.308155
O O14 0.891939 0.865509 0.827605
#
# Coordination Sequence:
#
# PCOD9297500 Si02
#       8
#     4   8   8   8   4   8   8   8
#     4  11  24  42  73 108 134 168 233 280 342 393
#     4  10  24  40  71  98 140 178 221 273 341 405
#     4  12  24  46  70 101 131 181 231 290 333 394
#     4  11  24  42  73 100 140 172 225 285 344 394
#     4   9  20  40  67 100 132 168 217 286 332 385
#     4  11  26  47  64 104 140 188 219 270 342 418
#     4  12  27  46  69  96 144 181 229 272 342 408
#     4  12  24  45  71 107 131 175 229 293 330 395
#
# _framework density 22.647556000000002
#
# number of rings (size 3 to 8) (size 9 to 14) (size 15 to 20)
#    0.000    0.857    2.857    3.000    6.000    5.143 
#    2.571    0.000    0.000    0.000    0.000    0.000 
#    0.000    0.000    0.000    0.000    0.000    0.000 
#
# Total GULP energy -156810.886823 kJ/mol
# GULP energy per Si atom -5600.388815 kJ/mol
# Density = 2.259601 g / cm^3
# Si number density = 22.647556 Si / 1000 Ang^3
#
#
#
# Elastic Constant Matrix: (Units=GPa)
#
#
# Indices 1 2 3 4 5 6 
#
# 1 55.6618 15.2878 3.8165 0.0000 4.8680 0.0000
# 2 15.2878 135.5821 63.0547 0.0000 9.1035 0.0000
# 3 3.8165 63.0547 129.0499 0.0000 -4.3787 0.0000
# 4 0.0000 0.0000 0.0000 52.1904 0.0000 -5.3023
# 5 4.8680 9.1035 -4.3787 0.0000 11.4730 0.0000
# 6 0.0000 0.0000 0.0000 -5.3023 0.0000 15.6227
#
#
#
# Elastic Compliance Matrix: (Units=1/GPa)
#
#
# Indices 1 2 3 4 5 6 
#
# 1 0.019019 -0.001719 0.000051 0.000000 -0.006686 0.000000
# 2 -0.001719 0.010838 -0.005584 0.000000 -0.010001 0.000000
# 3 0.000051 -0.005584 0.010765 0.000000 0.008518 0.000000
# 4 0.000000 0.000000 0.000000 0.019845 0.000000 0.006735
# 5 -0.006686 -0.010001 0.008518 0.000000 0.101184 0.000000
# 6 0.000000 0.000000 0.000000 0.006735 0.000000 0.066295
#
#
# Mechanical properties :
#
#
# Convention : Reuss Voigt Hill
#
# Bulk Modulus (GPa) = 38.28943 53.84577 46.06760
# Shear Modulus (GPa) = 19.90790 31.73289 25.82039
#
# Velocity S-wave (km/s) = 2.96806 3.74727 3.38019
# Velocity P-wave (km/s) = 5.35623 6.52303 5.96821
#
# Compressibility (1/GPa) = 0.02611687
#
# Stress axis : x y z
#
# Youngs Moduli (GPa) = 52.57871 92.26889 92.89522
#
# Poissons Ratio (x) = 0.15862 -0.00470
# Poissons Ratio (y) = 0.09039 0.51872
# Poissons Ratio (z) = -0.00266 0.51523
#
# Static dielectric constant tensor:
#      x y z
#    x 1.850160 0.000000 -0.004390 
#    y 0.000000 1.839200 0.000000 
#    z -0.004390 0.000000 1.840850 
# 
# From -- ./inp_files/55666.got.cif
#   From: 2010.05.17/outbox.cif.g08.bks.cpg/sg15_28_cif.got.tgz:55666.got - 2010.06.03 18:47:42.
