data_PCOD9297812
_publ_section_title
;
Structure prediction by ZEFSAII (Michael W. Deem and Ramdas Pophale) SiO2 
 PCOD9297812
Probable space group: C 2/C
;
_chemical_formula_sum "Si O2"
_cell_formula_units_Z 44
_cell_length_a 28.018106
_cell_length_b 15.172359
_cell_length_c 14.829490
_cell_angle_alpha 90.000000
_cell_angle_beta 19.508253
_cell_angle_gamma 90.000000
_cell_volume 2105.183563
_symmetry_space_group_name_H-M "C 2/C"
_symmetry_group_IT_number 15
_symmetry_cell_setting 'monoclinic'
loop_
_space_group_symop_operation_xyz
x,y,z
-x,y,1/2-z
-x,-y,-z
x,-y,1/2+z
1/2+x,1/2+y,z
1/2-x,1/2+y,1/2-z
1/2-x,1/2-y,-z
1/2+x,1/2-y,1/2+z
loop_
_atom_site_type_symbol
_atom_site_label
_atom_site_fract_x
_atom_site_fract_y
_atom_site_fract_z
Si Si1 0.619200 0.058073 0.899597
Si Si2 0.755406 0.423949 0.680370
Si Si3 0.000000 0.876501 0.250000
Si Si4 0.699697 0.965115 0.570028
Si Si5 0.383459 0.308624 0.287802
Si Si6 0.702599 0.752851 0.189929
O O1 0.701784 0.150972 0.739593
O O2 0.650493 0.990111 0.925674
O O3 0.662772 0.002812 0.733586
O O4 0.449337 0.078235 0.198392
O O5 0.762542 0.459975 0.567321
O O6 0.780355 0.319387 0.616672
O O7 0.600478 0.429856 0.003714
O O8 0.897956 0.818128 0.369616
O O9 0.835017 0.902235 0.335625
O O10 0.250000 0.250000 0.500000
O O11 0.536010 0.276095 0.983096
O O12 0.750000 0.750000 0.000000
#
# Coordination Sequence:
#
# PCOD9297812 Si02
#       6
#     8   8   4   8   8   8
#     4  11  23  45  70 104 150 187 251 302 365 453
#     4  11  24  43  71 106 146 189 242 309 367 438
#     4  10  24  42  68 102 142 182 244 302 364 440
#     4  11  23  42  74 101 142 199 239 306 377 430
#     4  11  23  44  72 102 145 193 243 301 368 439
#     4  11  24  45  75 107 145 193 248 306 371 440
#
# _framework density 20.900791000000002
#
# number of rings (size 3 to 8) (size 9 to 14) (size 15 to 20)
#    0.000    1.091    5.455    0.545    0.000    7.273 
#    3.273    0.000    4.000    0.000    0.000    0.000 
#    0.000    0.000    0.000    0.000    0.000    0.000 
#
# Total GULP energy -122624.661839 kJ/mol
# GULP energy per Si atom -5573.848265 kJ/mol
# Density = 2.085322 g / cm^3
# Si number density = 20.900791 Si / 1000 Ang^3
#
#
#
# Elastic Constant Matrix: (Units=GPa)
#
#
# Indices 1 2 3 4 5 6 
#
# 1 82.0856 37.5642 19.2841 0.0000 -11.6630 0.0000
# 2 37.5642 120.1583 13.1122 -0.0001 -16.6418 0.0000
# 3 19.2841 13.1122 74.3699 -0.0001 7.5182 0.0000
# 4 0.0000 -0.0001 -0.0001 27.7656 0.0001 -5.7804
# 5 -11.6630 -16.6418 7.5182 0.0001 38.2672 0.0000
# 6 0.0000 0.0000 0.0000 -5.7804 0.0000 31.4459
#
#
#
# Elastic Compliance Matrix: (Units=1/GPa)
#
#
# Indices 1 2 3 4 5 6 
#
# 1 0.015349 -0.003884 -0.003670 0.000000 0.003710 0.000000
# 2 -0.003884 0.010137 -0.001129 0.000000 0.003446 0.000000
# 3 -0.003670 -0.001129 0.015059 0.000000 -0.004568 0.000000
# 4 0.000000 0.000000 0.000000 0.037449 0.000000 0.006884
# 5 0.003710 0.003446 -0.004568 0.000000 0.029659 0.000000
# 6 0.000000 0.000000 0.000000 0.006884 0.000000 0.033066
#
#
# Mechanical properties :
#
#
# Convention : Reuss Voigt Hill
#
# Bulk Modulus (GPa) = 43.14219 46.28164 44.71192
# Shear Modulus (GPa) = 30.15473 33.27263 31.71368
#
# Velocity S-wave (km/s) = 3.80248 3.99423 3.89954
# Velocity P-wave (km/s) = 6.32177 6.59268 6.45864
#
# Compressibility (1/GPa) = 0.02317917
#
# Stress axis : x y z
#
# Youngs Moduli (GPa) = 65.14964 98.64755 66.40659
#
# Poissons Ratio (x) = 0.38316 0.24373
# Poissons Ratio (y) = 0.25305 0.07494
# Poissons Ratio (z) = 0.23912 0.11133
#
# Static dielectric constant tensor:
#      x y z
#    x 1.753170 0.000000 -0.025280 
#    y 0.000000 1.895790 0.000000 
#    z -0.025280 0.000000 1.746610 
# 
# From -- ./inp_files/178784.got.cif
#   From: 2010.05.17/outbox.cif.g08.bks.cpg/sg15_90_cif.got.tgz:178784.got - 2010.06.03 18:47:42.
