data_PCOD9297403
_publ_section_title
;
Structure prediction by ZEFSAII (Michael W. Deem and Ramdas Pophale) SiO2 
 PCOD9297403
Probable space group: C 2/C
;
_chemical_formula_sum "Si O2"
_cell_formula_units_Z 56
_cell_length_a 27.574709
_cell_length_b 9.896120
_cell_length_c 8.752865
_cell_angle_alpha 90.000000
_cell_angle_beta 107.143726
_cell_angle_gamma 90.000000
_cell_volume 2282.379571
_symmetry_space_group_name_H-M "C 2/C"
_symmetry_group_IT_number 15
_symmetry_cell_setting 'monoclinic'
loop_
_space_group_symop_operation_xyz
x,y,z
-x,y,1/2-z
-x,-y,-z
x,-y,1/2+z
1/2+x,1/2+y,z
1/2-x,1/2+y,1/2-z
1/2-x,1/2-y,-z
1/2+x,1/2-y,1/2+z
loop_
_atom_site_type_symbol
_atom_site_label
_atom_site_fract_x
_atom_site_fract_y
_atom_site_fract_z
Si Si1 0.329275 0.322861 0.290797
Si Si2 0.464082 0.158046 0.911650
Si Si3 0.500000 0.547221 0.750000
Si Si4 0.144096 0.307068 0.268521
Si Si5 0.182888 0.455615 0.594990
Si Si6 0.205293 0.049349 0.435851
Si Si7 0.054788 0.159396 0.510065
Si Si8 0.500000 0.925950 0.750000
O O1 0.313268 0.166337 0.276774
O O2 0.323291 0.410137 0.132182
O O3 0.297356 0.404154 0.390664
O O4 0.386446 0.324091 0.407627
O O5 0.414065 0.236295 0.814182
O O6 0.464184 0.014059 0.828422
O O7 0.519337 0.217812 0.922686
O O8 0.464064 0.146392 0.094673
O O9 0.530682 0.625648 0.651206
O O10 0.459417 0.458865 0.618973
O O11 0.147809 0.395190 0.427371
O O12 0.162567 0.408028 0.152357
O O13 0.178786 0.175156 0.322951
O O14 0.237461 0.468139 0.566580
#
# Coordination Sequence:
#
# PCOD9297403 Si02
#       8
#     8   8   4   8   8   8   8   4
#     4  11  25  42  71  99 133 179 225 273 347 402
#     4  11  24  41  64  95 134 176 218 272 325 404
#     4  10  24  40  64  88 136 170 222 262 330 380
#     4  11  25  42  71  99 133 179 225 273 347 402
#     4  11  24  46  69  99 135 173 228 287 339 398
#     4  11  24  46  69  99 135 173 228 287 339 398
#     4  11  24  41  64  95 134 176 218 272 325 404
#     4  10  24  40  64  88 136 170 222 262 330 380
#
# _framework density 24.535796000000001
#
# number of rings (size 3 to 8) (size 9 to 14) (size 15 to 20)
#    0.000    1.143    0.000    6.000   16.000    1.143 
#    5.143    2.857    0.000    0.000    0.000    0.000 
#    0.000    0.000    0.000    0.000    0.000    0.000 
#
# Total GULP energy -156791.951904 kJ/mol
# GULP energy per Si atom -5599.712568 kJ/mol
# Density = 2.447995 g / cm^3
# Si number density = 24.535796 Si / 1000 Ang^3
#
#
#
# Elastic Constant Matrix: (Units=GPa)
#
#
# Indices 1 2 3 4 5 6 
#
# 1 75.2631 22.6479 9.8344 0.0000 3.6171 0.0000
# 2 22.6479 40.9144 11.0932 0.0000 -10.3229 0.0000
# 3 9.8344 11.0932 88.7913 0.0000 -0.4681 0.0000
# 4 0.0000 0.0000 0.0000 39.4902 0.0000 -8.3626
# 5 3.6171 -10.3229 -0.4681 0.0000 28.4847 0.0000
# 6 0.0000 0.0000 0.0000 -8.3626 0.0000 31.6788
#
#
#
# Elastic Compliance Matrix: (Units=1/GPa)
#
#
# Indices 1 2 3 4 5 6 
#
# 1 0.016873 -0.010709 -0.000563 0.000000 -0.006033 0.000000
# 2 -0.010709 0.034707 -0.003077 0.000000 0.013887 0.000000
# 3 -0.000563 -0.003077 0.011705 0.000000 -0.000851 0.000000
# 4 0.000000 0.000000 0.000000 0.026822 0.000000 0.007081
# 5 -0.006033 0.013887 -0.000851 0.000000 0.040891 0.000000
# 6 0.000000 0.000000 0.000000 0.007081 0.000000 0.033436
#
#
# Mechanical properties :
#
#
# Convention : Reuss Voigt Hill
#
# Bulk Modulus (GPa) = 28.91252 32.45778 30.68515
# Shear Modulus (GPa) = 24.43060 30.69030 27.56045
#
# Velocity S-wave (km/s) = 3.15891 3.54056 3.35517
# Velocity P-wave (km/s) = 5.01143 5.47462 5.24814
#
# Compressibility (1/GPa) = 0.03458709
#
# Stress axis : x y z
#
# Youngs Moduli (GPa) = 59.26683 28.81223 85.43653
#
# Poissons Ratio (x) = 0.30856 0.04807
# Poissons Ratio (y) = 0.63472 0.26287
# Poissons Ratio (z) = 0.03334 0.08865
#
# Static dielectric constant tensor:
#      x y z
#    x 1.921920 0.000000 -0.011260 
#    y 0.000000 2.024160 0.000000 
#    z -0.011260 0.000000 1.972910 
# 
# From -- ./inp_files/65582.got.cif
#   From: 2010.05.17/outbox.cif.g08.bks.cpg/sg15_33_cif.got.tgz:65582.got - 2010.06.03 18:47:42.
