data_PCOD9297005
_publ_section_title
;
Structure prediction by ZEFSAII (Michael W. Deem and Ramdas Pophale) SiO2 
 PCOD9297005
Probable space group: C 2/C
;
_chemical_formula_sum "Si O2"
_cell_formula_units_Z 40
_cell_length_a 18.654523
_cell_length_b 6.813208
_cell_length_c 17.703082
_cell_angle_alpha 90.000000
_cell_angle_beta 133.380521
_cell_angle_gamma 90.000000
_cell_volume 1635.326625
_symmetry_space_group_name_H-M "C 2/C"
_symmetry_group_IT_number 15
_symmetry_cell_setting 'monoclinic'
loop_
_space_group_symop_operation_xyz
x,y,z
-x,y,1/2-z
-x,-y,-z
x,-y,1/2+z
1/2+x,1/2+y,z
1/2-x,1/2+y,1/2-z
1/2-x,1/2-y,-z
1/2+x,1/2-y,1/2+z
loop_
_atom_site_type_symbol
_atom_site_label
_atom_site_fract_x
_atom_site_fract_y
_atom_site_fract_z
Si Si1 0.129673 0.265112 0.701540
Si Si2 0.079832 0.928916 0.468809
Si Si3 0.390775 0.815723 0.646196
Si Si4 0.334917 0.835028 0.007489
Si Si5 0.828446 0.610547 0.862379
O O1 0.160784 0.316140 0.810551
O O2 0.106601 0.468027 0.642765
O O3 0.230430 0.167911 0.745388
O O4 0.035182 0.125307 0.625957
O O5 0.139117 0.840947 0.438718
O O6 0.116044 0.800897 0.565834
O O7 0.103505 0.157430 0.484487
O O8 0.500000 0.758353 0.750000
O O9 0.250000 0.250000 0.500000
O O10 0.395345 0.022241 0.606890
O O11 0.300123 0.974143 0.913899
#
# Coordination Sequence:
#
# PCOD9297005 Si02
#       5
#     8   8   8   8   8
#     4  11  24  45  68  98 144 178 229 284 341 407
#     4  10  23  47  68  96 136 179 225 285 345 403
#     4   9  21  41  65  94 125 168 223 279 330 401
#     4  11  23  40  68  96 131 177 222 279 343 404
#     4  11  26  43  64 102 134 181 226 283 341 407
#
# _framework density 24.459945999999999
#
# number of rings (size 3 to 8) (size 9 to 14) (size 15 to 20)
#    0.000    1.600    0.000    3.000    5.600    8.000 
#    7.200    0.000    0.000    0.000    0.000    0.000 
#    0.000    0.000    0.000    0.000    0.000    0.000 
#
# Total GULP energy -111882.500661 kJ/mol
# GULP energy per Si atom -5594.125033 kJ/mol
# Density = 2.440427 g / cm^3
# Si number density = 24.459946 Si / 1000 Ang^3
#
#
#
# Elastic Constant Matrix: (Units=GPa)
#
#
# Indices 1 2 3 4 5 6 
#
# 1 64.0448 27.9210 15.0613 0.0000 -11.9268 0.0000
# 2 27.9210 160.9167 52.2580 0.0000 -8.1756 0.0000
# 3 15.0613 52.2580 104.1958 0.0000 -1.0105 0.0000
# 4 0.0000 0.0000 0.0000 38.1340 0.0000 -3.8216
# 5 -11.9268 -8.1756 -1.0105 0.0000 30.4115 0.0000
# 6 0.0000 0.0000 0.0000 -3.8216 0.0000 39.9411
#
#
#
# Elastic Compliance Matrix: (Units=1/GPa)
#
#
# Indices 1 2 3 4 5 6 
#
# 1 0.018174 -0.002381 -0.001370 0.000000 0.006442 0.000000
# 2 -0.002381 0.007844 -0.003579 0.000000 0.001056 0.000000
# 3 -0.001370 -0.003579 0.011580 0.000000 -0.001115 0.000000
# 4 0.000000 0.000000 0.000000 0.026477 0.000000 0.002533
# 5 0.006442 0.001056 -0.001115 0.000000 0.035655 0.000000
# 6 0.000000 0.000000 0.000000 0.002533 0.000000 0.025279
#
#
# Mechanical properties :
#
#
# Convention : Reuss Voigt Hill
#
# Bulk Modulus (GPa) = 43.60015 57.73754 50.66884
# Shear Modulus (GPa) = 33.94055 37.29177 35.61616
#
# Velocity S-wave (km/s) = 3.72909 3.90886 3.82003
# Velocity P-wave (km/s) = 6.03368 6.63539 6.34167
#
# Compressibility (1/GPa) = 0.02293570
#
# Stress axis : x y z
#
# Youngs Moduli (GPa) = 55.02356 127.49208 86.35727
#
# Poissons Ratio (x) = 0.30357 0.11834
# Poissons Ratio (y) = 0.13102 0.30911
# Poissons Ratio (z) = 0.07540 0.45635
#
# Static dielectric constant tensor:
#      x y z
#    x 2.138630 0.000000 -0.028140 
#    y 0.000000 1.886220 0.000000 
#    z -0.028140 0.000000 1.918050 
# 
# From -- ./inp_files/125091.got.cif
#   From: 2010.05.17/outbox.cif.g08.bks.cpg/sg15_63_cif.got.tgz:125091.got - 2010.06.03 18:47:42.
