data_PCOD9297861
_publ_section_title
;
Structure prediction by ZEFSAII (Michael W. Deem and Ramdas Pophale) SiO2 
 PCOD9297861
Probable space group: C 2/C
;
_chemical_formula_sum "Si O2"
_cell_formula_units_Z 60
_cell_length_a 10.871609
_cell_length_b 27.851822
_cell_length_c 15.949102
_cell_angle_alpha 90.000000
_cell_angle_beta 147.213197
_cell_angle_gamma 90.000000
_cell_volume 2615.133301
_symmetry_space_group_name_H-M "C 2/C"
_symmetry_group_IT_number 15
_symmetry_cell_setting 'monoclinic'
loop_
_space_group_symop_operation_xyz
x,y,z
-x,y,1/2-z
-x,-y,-z
x,-y,1/2+z
1/2+x,1/2+y,z
1/2-x,1/2+y,1/2-z
1/2-x,1/2-y,-z
1/2+x,1/2-y,1/2+z
loop_
_atom_site_type_symbol
_atom_site_label
_atom_site_fract_x
_atom_site_fract_y
_atom_site_fract_z
Si Si1 0.977106 0.585949 0.866315
Si Si2 0.870417 0.487960 0.516448
Si Si3 0.484437 0.459390 0.064892
Si Si4 0.000000 0.671575 0.750000
Si Si5 0.456160 0.886018 0.912814
Si Si6 0.736610 0.796671 0.117206
Si Si7 0.752573 0.866421 0.864597
Si Si8 0.891634 0.213327 0.887783
O O1 0.713033 0.570403 0.717956
O O2 0.011585 0.632615 0.830990
O O3 0.093653 0.599394 0.021039
O O4 0.077361 0.534556 0.897186
O O5 0.611836 0.479126 0.401246
O O6 0.976756 0.435748 0.593377
O O7 0.000000 0.500000 0.500000
O O8 0.500000 0.500000 0.000000
O O9 0.321426 0.419145 0.932714
O O10 0.779707 0.704835 0.633705
O O11 0.259777 0.863641 0.743533
O O12 0.665400 0.848890 0.042201
O O13 0.735284 0.791952 0.216568
O O14 0.000000 0.785489 0.250000
O O15 0.546707 0.760444 0.974259
O O16 0.500000 0.854129 0.750000
O O17 0.929373 0.829793 0.004775
#
# Coordination Sequence:
#
# PCOD9297861 Si02
#       8
#     8   8   8   4   8   8   8   8
#     4  11  24  46  70 105 150 199 254 306 372 450
#     4  10  24  42  69 106 150 190 251 310 370 450
#     4  12  24  41  72 104 146 204 250 307 383 448
#     4  12  24  50  78 106 156 198 262 300 384 456
#     4  11  23  42  70 105 148 192 239 311 366 448
#     4  12  25  47  77 112 147 188 251 318 391 451
#     4  12  23  43  70 105 147 182 247 305 376 439
#     4  12  27  48  76 111 142 199 241 317 380 460
#
# _framework density 22.943380000000001
#
# number of rings (size 3 to 8) (size 9 to 14) (size 15 to 20)
#    0.000    0.533    4.000    4.000    1.867    2.133 
#    0.000    0.667    0.000    0.000    0.000    0.000 
#    0.000    0.000    0.000    0.000    0.000    0.000 
#
# Total GULP energy -167252.636732 kJ/mol
# GULP energy per Si atom -5575.087891 kJ/mol
# Density = 2.289116 g / cm^3
# Si number density = 22.943380 Si / 1000 Ang^3
#
#
#
# Elastic Constant Matrix: (Units=GPa)
#
#
# Indices 1 2 3 4 5 6 
#
# 1 55.6936 7.6067 3.0541 0.0000 3.5489 0.0000
# 2 7.6067 102.2412 12.7766 0.0000 8.2663 0.0000
# 3 3.0541 12.7766 58.4626 0.0000 -18.1786 0.0000
# 4 0.0000 0.0000 0.0000 25.2457 0.0000 10.3316
# 5 3.5489 8.2663 -18.1786 0.0000 46.5480 0.0000
# 6 0.0000 0.0000 0.0000 10.3316 0.0000 20.6764
#
#
#
# Elastic Compliance Matrix: (Units=1/GPa)
#
#
# Indices 1 2 3 4 5 6 
#
# 1 0.018277 -0.001067 -0.001247 0.000000 -0.001691 0.000000
# 2 -0.001067 0.010502 -0.003180 0.000000 -0.003026 0.000000
# 3 -0.001247 -0.003180 0.020568 0.000000 0.008692 0.000000
# 4 0.000000 0.000000 0.000000 0.049793 0.000000 -0.024881
# 5 -0.001691 -0.003026 0.008692 0.000000 0.025544 0.000000
# 6 0.000000 0.000000 0.000000 -0.024881 0.000000 0.060797
#
#
# Mechanical properties :
#
#
# Convention : Reuss Voigt Hill
#
# Bulk Modulus (GPa) = 26.07036 29.25247 27.66142
# Shear Modulus (GPa) = 23.89407 31.35803 27.62605
#
# Velocity S-wave (km/s) = 3.23063 3.70098 3.47377
# Velocity P-wave (km/s) = 5.03026 5.57140 5.30773
#
# Compressibility (1/GPa) = 0.03835773
#
# Stress axis : x y z
#
# Youngs Moduli (GPa) = 54.71265 95.21775 48.61924
#
# Poissons Ratio (x) = 0.10162 0.06065
# Poissons Ratio (y) = 0.05839 0.15462
# Poissons Ratio (z) = 0.06825 0.30282
#
# Static dielectric constant tensor:
#      x y z
#    x 2.018530 0.000000 -0.025160 
#    y 0.000000 1.861640 0.000000 
#    z -0.025160 0.000000 1.879640 
# 
# From -- ./inp_files/201275.got.cif
#   From: 2010.05.17/outbox.cif.g08.bks.cpg/sg15_101_cif.got.tgz:201275.got - 2010.06.03 18:47:42.
