data_PCOD9297094
_publ_section_title
;
Structure prediction by ZEFSAII (Michael W. Deem and Ramdas Pophale) SiO2 
 PCOD9297094
Probable space group: C 2/C
;
_chemical_formula_sum "Si O2"
_cell_formula_units_Z 40
_cell_length_a 13.246757
_cell_length_b 11.726909
_cell_length_c 9.916361
_cell_angle_alpha 90.000000
_cell_angle_beta 115.080443
_cell_angle_gamma 90.000000
_cell_volume 1395.199505
_symmetry_space_group_name_H-M "C 2/C"
_symmetry_group_IT_number 15
_symmetry_cell_setting 'monoclinic'
loop_
_space_group_symop_operation_xyz
x,y,z
-x,y,1/2-z
-x,-y,-z
x,-y,1/2+z
1/2+x,1/2+y,z
1/2-x,1/2+y,1/2-z
1/2-x,1/2-y,-z
1/2+x,1/2-y,1/2+z
loop_
_atom_site_type_symbol
_atom_site_label
_atom_site_fract_x
_atom_site_fract_y
_atom_site_fract_z
Si Si1 0.371294 0.358230 0.833126
Si Si2 0.129635 0.482695 0.074479
Si Si3 0.084872 0.120800 0.637580
Si Si4 0.689109 0.144938 0.871390
Si Si5 0.869014 0.326296 0.659421
O O1 0.397885 0.489680 0.806749
O O2 0.370827 0.259466 0.718446
O O3 0.247204 0.353539 0.826384
O O4 0.469239 0.345912 0.000149
O O5 0.171732 0.590571 0.009266
O O6 0.112538 0.801658 0.279876
O O7 0.158998 0.370887 0.004645
O O8 0.000000 0.500000 0.000000
O O9 0.179239 0.151206 0.580777
O O10 0.653212 0.050109 0.741675
O O11 0.000000 0.369750 0.750000
#
# Coordination Sequence:
#
# PCOD9297094 Si02
#       5
#     8   8   8   8   8
#     4  10  23  47  82 125 170 222 279 350 430 506
#     4  12  26  48  84 120 161 217 285 352 413 496
#     4  10  23  47  80 125 166 224 275 350 425 512
#     4  11  25  49  85 122 165 217 286 347 421 507
#     4  11  23  44  81 118 160 220 281 341 415 500
#
# _framework density 28.669733999999998
#
# number of rings (size 3 to 8) (size 9 to 14) (size 15 to 20)
#    0.000    1.200    2.000    3.000    0.000    7.200 
#    0.000    3.000    0.000    1.200    0.000    0.000 
#    0.000    0.000    0.000    0.000    0.000    0.000 
#
# Total GULP energy -111851.790475 kJ/mol
# GULP energy per Si atom -5592.589524 kJ/mol
# Density = 2.860448 g / cm^3
# Si number density = 28.669734 Si / 1000 Ang^3
#
#
#
# Elastic Constant Matrix: (Units=GPa)
#
#
# Indices 1 2 3 4 5 6 
#
# 1 191.4280 50.6808 74.8071 0.0000 24.5666 0.0000
# 2 50.6808 244.8928 86.7183 0.0000 16.2673 0.0000
# 3 74.8071 86.7183 164.9723 0.0000 26.4921 0.0000
# 4 0.0000 0.0000 0.0000 54.6127 0.0000 -8.5008
# 5 24.5666 16.2673 26.4921 0.0000 51.7399 0.0000
# 6 0.0000 0.0000 0.0000 -8.5008 0.0000 41.9807
#
#
#
# Elastic Compliance Matrix: (Units=1/GPa)
#
#
# Indices 1 2 3 4 5 6 
#
# 1 0.006510 -0.000351 -0.002494 0.000000 -0.001704 0.000000
# 2 -0.000351 0.005039 -0.002465 0.000000 -0.000156 0.000000
# 3 -0.002494 -0.002465 0.008906 0.000000 -0.002601 0.000000
# 4 0.000000 0.000000 0.000000 0.018907 0.000000 0.003828
# 5 -0.001704 -0.000156 -0.002601 0.000000 0.021517 0.000000
# 6 0.000000 0.000000 0.000000 0.003828 0.000000 0.024596
#
#
# Mechanical properties :
#
#
# Convention : Reuss Voigt Hill
#
# Bulk Modulus (GPa) = 101.66965 113.96728 107.81846
# Shear Modulus (GPa) = 50.31591 55.60580 52.96085
#
# Velocity S-wave (km/s) = 4.19384 4.40879 4.30266
# Velocity P-wave (km/s) = 7.68052 8.10892 7.89763
#
# Compressibility (1/GPa) = 0.00983578
#
# Stress axis : x y z
#
# Youngs Moduli (GPa) = 153.60878 198.44560 112.28718
#
# Poissons Ratio (x) = 0.06965 0.28003
# Poissons Ratio (y) = 0.05391 0.27675
# Poissons Ratio (z) = 0.38309 0.48911
#
# Static dielectric constant tensor:
#      x y z
#    x 2.204040 0.000000 -0.012940 
#    y 0.000000 2.460880 0.000000 
#    z -0.012940 0.000000 2.296410 
# 
# From -- ./inp_files/151507.got.cif
#   From: 2010.05.17/outbox.cif.g08.bks.cpg/sg15_76_cif.got.tgz:151507.got - 2010.06.03 18:47:42.
