data_PCOD9297346
_publ_section_title
;
Structure prediction by ZEFSAII (Michael W. Deem and Ramdas Pophale) SiO2 
 PCOD9297346
Probable space group: C 2/C
;
_chemical_formula_sum "Si O2"
_cell_formula_units_Z 36
_cell_length_a 10.865884
_cell_length_b 19.215664
_cell_length_c 8.671471
_cell_angle_alpha 90.000000
_cell_angle_beta 104.359201
_cell_angle_gamma 90.000000
_cell_volume 1753.999382
_symmetry_space_group_name_H-M "C 2/C"
_symmetry_group_IT_number 15
_symmetry_cell_setting 'monoclinic'
loop_
_space_group_symop_operation_xyz
x,y,z
-x,y,1/2-z
-x,-y,-z
x,-y,1/2+z
1/2+x,1/2+y,z
1/2-x,1/2+y,1/2-z
1/2-x,1/2-y,-z
1/2+x,1/2-y,1/2+z
loop_
_atom_site_type_symbol
_atom_site_label
_atom_site_fract_x
_atom_site_fract_y
_atom_site_fract_z
Si Si1 0.749104 0.773633 0.327157
Si Si2 0.000000 0.199432 0.750000
Si Si3 0.677554 0.313679 0.564678
Si Si4 0.356812 0.071047 0.269122
Si Si5 0.642864 0.919420 0.356122
O O1 0.750000 0.750000 0.500000
O O2 0.641279 0.729912 0.204973
O O3 0.725259 0.855799 0.316634
O O4 0.889061 0.758042 0.301291
O O5 0.928467 0.161101 0.587653
O O6 0.750000 0.250000 0.500000
O O7 0.765644 0.375064 0.653339
O O8 0.500000 0.081230 0.250000
O O9 0.354181 0.078329 0.455178
O O10 0.318459 0.993263 0.204592
O O11 0.500000 0.907259 0.250000
#
# Coordination Sequence:
#
# PCOD9297346 Si02
#       5
#     8   4   8   8   8
#     4  11  24  43  67 100 133 176 222 277 328 402
#     4  10  26  42  64 100 132 180 218 268 338 390
#     4  10  24  39  69  93 136 172 220 273 329 403
#     4  11  24  43  67 100 130 175 224 281 338 383
#     4  11  25  40  70  97 135 171 224 283 332 395
#
# _framework density 20.524524
#
# number of rings (size 3 to 8) (size 9 to 14) (size 15 to 20)
#    0.000    1.333    2.222    2.667   21.778    0.000 
#    0.000    1.111    0.000    0.000    0.000    0.000 
#    0.000    0.000    0.000    0.000    0.000    0.000 
#
# Total GULP energy -100321.539729 kJ/mol
# GULP energy per Si atom -5573.418874 kJ/mol
# Density = 2.047781 g / cm^3
# Si number density = 20.524524 Si / 1000 Ang^3
#
#
#
# Elastic Constant Matrix: (Units=GPa)
#
#
# Indices 1 2 3 4 5 6 
#
# 1 64.8635 39.9108 42.0661 0.0000 -1.6837 0.0000
# 2 39.9108 132.1884 50.1764 0.0000 22.7471 0.0000
# 3 42.0661 50.1764 192.5691 0.0000 26.7176 0.0000
# 4 0.0000 0.0000 0.0000 38.6472 0.0000 2.1402
# 5 -1.6837 22.7471 26.7176 0.0000 33.0909 0.0000
# 6 0.0000 0.0000 0.0000 2.1402 0.0000 19.7387
#
#
#
# Elastic Compliance Matrix: (Units=1/GPa)
#
#
# Indices 1 2 3 4 5 6 
#
# 1 0.022772 -0.006790 -0.004520 0.000000 0.009476 0.000000
# 2 -0.006790 0.011064 -0.000334 0.000000 -0.007681 0.000000
# 3 -0.004520 -0.000334 0.007058 0.000000 -0.005699 0.000000
# 4 0.000000 0.000000 0.000000 0.026031 0.000000 -0.002822
# 5 0.009476 -0.007681 -0.005699 0.000000 0.040584 0.000000
# 6 0.000000 0.000000 0.000000 -0.002822 0.000000 0.050968
#
#
# Mechanical properties :
#
#
# Convention : Reuss Voigt Hill
#
# Bulk Modulus (GPa) = 56.79917 72.65862 64.72889
# Shear Modulus (GPa) = 26.64761 35.45987 31.05374
#
# Velocity S-wave (km/s) = 3.60714 4.16105 3.89396
# Velocity P-wave (km/s) = 6.71435 7.65268 7.19882
#
# Compressibility (1/GPa) = 0.01760589
#
# Stress axis : x y z
#
# Youngs Moduli (GPa) = 43.91263 90.38613 141.68362
#
# Poissons Ratio (x) = 0.61377 0.64040
# Poissons Ratio (y) = 0.29819 0.04728
# Poissons Ratio (z) = 0.19848 0.03016
#
# Static dielectric constant tensor:
#      x y z
#    x 1.761840 0.000000 -0.008550 
#    y 0.000000 1.755170 0.000000 
#    z -0.008550 0.000000 1.792480 
# 
# From -- ./inp_files/29420.got.cif
#   From: 2010.05.17/outbox.cif.g08.bks.cpg/sg15_15_cif.got.tgz:29420.got - 2010.06.03 18:47:42.
