data_PCOD9297670
_publ_section_title
;
Structure prediction by ZEFSAII (Michael W. Deem and Ramdas Pophale) SiO2 
 PCOD9297670
Probable space group: C 2/C
;
_chemical_formula_sum "Si O2"
_cell_formula_units_Z 48
_cell_length_a 12.849454
_cell_length_b 23.222627
_cell_length_c 8.130320
_cell_angle_alpha 90.000000
_cell_angle_beta 114.474795
_cell_angle_gamma 90.000000
_cell_volume 2208.073799
_symmetry_space_group_name_H-M "C 2/C"
_symmetry_group_IT_number 15
_symmetry_cell_setting 'monoclinic'
loop_
_space_group_symop_operation_xyz
x,y,z
-x,y,1/2-z
-x,-y,-z
x,-y,1/2+z
1/2+x,1/2+y,z
1/2-x,1/2+y,1/2-z
1/2-x,1/2-y,-z
1/2+x,1/2-y,1/2+z
loop_
_atom_site_type_symbol
_atom_site_label
_atom_site_fract_x
_atom_site_fract_y
_atom_site_fract_z
Si Si1 0.261288 0.528400 0.196987
Si Si2 0.112569 0.180367 0.572532
Si Si3 0.122575 0.448608 0.911197
Si Si4 0.088740 0.948569 0.013062
Si Si5 0.500000 0.234336 0.250000
Si Si6 0.500000 0.754978 0.250000
Si Si7 0.641013 0.168959 0.591511
O O1 0.217303 0.562579 0.327907
O O2 0.309653 0.468586 0.300785
O O3 0.156079 0.509187 0.015370
O O4 0.359345 0.551620 0.138271
O O5 0.057091 0.116745 0.530190
O O6 0.041549 0.222930 0.638059
O O7 0.236180 0.175956 0.740142
O O8 0.098385 0.212295 0.387251
O O9 0.000000 0.451975 0.750000
O O10 0.120845 0.397869 0.042318
O O11 0.000000 0.000000 0.000000
O O12 0.606388 0.197437 0.391694
O O13 0.445539 0.798491 0.345083
#
# Coordination Sequence:
#
# PCOD9297670 Si02
#       7
#     8   8   8   8   4   4   8
#     4  10  24  42  62  98 131 174 222 270 335 410
#     4  11  24  44  66  96 133 178 218 282 342 394
#     4  11  22  43  68  94 135 175 221 275 338 399
#     4  11  24  41  66  96 134 173 220 273 337 412
#     4  10  24  42  69  97 128 176 234 278 332 400
#     4  10  26  44  67  97 132 174 234 276 336 400
#     4  11  22  46  67  97 130 178 224 283 334 399
#
# _framework density 21.738405
#
# number of rings (size 3 to 8) (size 9 to 14) (size 15 to 20)
#    0.000    1.333    2.500    2.000    4.667    1.333 
#    7.500    0.000    0.000    0.000    0.000    0.000 
#    0.000    0.000    0.000    0.000    0.000    0.000 
#
# Total GULP energy -133720.153880 kJ/mol
# GULP energy per Si atom -5571.673078 kJ/mol
# Density = 2.168893 g / cm^3
# Si number density = 21.738405 Si / 1000 Ang^3
#
#
#
# Elastic Constant Matrix: (Units=GPa)
#
#
# Indices 1 2 3 4 5 6 
#
# 1 44.9917 25.6972 20.8622 0.0000 11.8746 0.0000
# 2 25.6972 99.1141 32.4225 0.0000 16.4013 0.0000
# 3 20.8622 32.4225 95.9000 0.0000 16.7035 0.0000
# 4 0.0000 0.0000 0.0000 32.7528 0.0000 -0.5238
# 5 11.8746 16.4013 16.7035 0.0000 24.8300 0.0000
# 6 0.0000 0.0000 0.0000 -0.5238 0.0000 31.9488
#
#
#
# Elastic Compliance Matrix: (Units=1/GPa)
#
#
# Indices 1 2 3 4 5 6 
#
# 1 0.028750 -0.005065 -0.003092 0.000000 -0.008323 0.000000
# 2 -0.005065 0.012958 -0.002504 0.000000 -0.004453 0.000000
# 3 -0.003092 -0.002504 0.012914 0.000000 -0.005555 0.000000
# 4 0.000000 0.000000 0.000000 0.030540 0.000000 0.000501
# 5 -0.008323 -0.004453 -0.005555 0.000000 0.050933 0.000000
# 6 0.000000 0.000000 0.000000 0.000501 0.000000 0.031308
#
#
# Mechanical properties :
#
#
# Convention : Reuss Voigt Hill
#
# Bulk Modulus (GPa) = 30.02920 44.21884 37.12402
# Shear Modulus (GPa) = 25.02187 28.64125 26.83156
#
# Velocity S-wave (km/s) = 3.39639 3.63373 3.51706
# Velocity P-wave (km/s) = 5.40597 6.16367 5.79721
#
# Compressibility (1/GPa) = 0.03330092
#
# Stress axis : x y z
#
# Youngs Moduli (GPa) = 34.78284 77.16947 77.43422
#
# Poissons Ratio (x) = 0.39087 0.23943
# Poissons Ratio (y) = 0.17618 0.19386
# Poissons Ratio (z) = 0.10755 0.19320
#
# Static dielectric constant tensor:
#      x y z
#    x 1.809430 0.000000 0.017900 
#    y 0.000000 1.739650 0.000000 
#    z 0.017900 0.000000 1.992750 
# 
# From -- ./inp_files/32694.got.cif
#   From: 2010.05.17/outbox.cif.g08.bks.cpg/sg15_17_cif.got.tgz:32694.got - 2010.06.03 18:47:42.
