data_PCOD9297394
_publ_section_title
;
Structure prediction by ZEFSAII (Michael W. Deem and Ramdas Pophale) SiO2 
 PCOD9297394
Probable space group: C 2/C
;
_chemical_formula_sum "Si O2"
_cell_formula_units_Z 44
_cell_length_a 11.984208
_cell_length_b 12.386638
_cell_length_c 20.531435
_cell_angle_alpha 90.000000
_cell_angle_beta 39.596205
_cell_angle_gamma 90.000000
_cell_volume 1942.565711
_symmetry_space_group_name_H-M "C 2/C"
_symmetry_group_IT_number 15
_symmetry_cell_setting 'monoclinic'
loop_
_space_group_symop_operation_xyz
x,y,z
-x,y,1/2-z
-x,-y,-z
x,-y,1/2+z
1/2+x,1/2+y,z
1/2-x,1/2+y,1/2-z
1/2-x,1/2-y,-z
1/2+x,1/2-y,1/2+z
loop_
_atom_site_type_symbol
_atom_site_label
_atom_site_fract_x
_atom_site_fract_y
_atom_site_fract_z
Si Si1 0.419904 0.170731 0.061456
Si Si2 0.592335 0.636608 0.144824
Si Si3 0.695425 0.604158 0.588432
Si Si4 0.731850 0.408395 0.776795
Si Si5 0.983858 0.917137 0.066564
Si Si6 0.500000 0.209333 0.250000
O O1 0.294756 0.167607 0.054687
O O2 0.325997 0.111477 0.165260
O O3 0.438786 0.296318 0.068690
O O4 0.610208 0.117919 0.972262
O O5 0.500000 0.687450 0.250000
O O6 0.611766 0.508078 0.147964
O O7 0.457833 0.650855 0.146238
O O8 0.667069 0.592277 0.523576
O O9 0.589179 0.709054 0.658589
O O10 0.670650 0.530371 0.819647
O O11 0.854579 0.360593 0.777706
O O12 0.000000 0.000000 0.000000
#
# Coordination Sequence:
#
# PCOD9297394 Si02
#       6
#     8   8   8   8   8   4
#     4  11  22  42  69  98 130 177 224 271 336 399
#     4   9  20  42  60  93 131 168 216 278 329 387
#     4  11  22  40  69  97 127 174 228 270 328 401
#     4  10  24  40  63  94 134 173 219 273 332 389
#     4  11  24  44  62  96 138 171 217 282 328 388
#     4  12  22  42  68  94 128 178 228 268 330 404
#
# _framework density 22.650455999999998
#
# number of rings (size 3 to 8) (size 9 to 14) (size 15 to 20)
#    0.000    1.455    2.727    2.182    2.545    0.000 
#    4.909   10.000    0.000    0.000    0.000    0.000 
#    0.000    0.000    0.000    0.000    0.000    0.000 
#
# Total GULP energy -122755.186035 kJ/mol
# GULP energy per Si atom -5579.781183 kJ/mol
# Density = 2.259890 g / cm^3
# Si number density = 22.650456 Si / 1000 Ang^3
#
#
#
# Elastic Constant Matrix: (Units=GPa)
#
#
# Indices 1 2 3 4 5 6 
#
# 1 183.7759 15.0398 28.2896 0.0000 -50.0176 0.0000
# 2 15.0398 40.9809 15.4923 0.0000 -5.9176 0.0000
# 3 28.2896 15.4923 61.8173 -0.0001 -18.7300 0.0000
# 4 0.0000 0.0000 -0.0001 34.8695 0.0000 -6.6510
# 5 -50.0176 -5.9176 -18.7300 0.0000 42.6054 0.0000
# 6 0.0000 0.0000 0.0000 -6.6510 0.0000 8.3262
#
#
#
# Elastic Compliance Matrix: (Units=1/GPa)
#
#
# Indices 1 2 3 4 5 6 
#
# 1 0.008120 -0.001441 -0.000608 0.000000 0.009065 0.000000
# 2 -0.001441 0.027241 -0.006384 0.000000 -0.000715 0.000000
# 3 -0.000608 -0.006384 0.020270 0.000000 0.007310 0.000000
# 4 0.000000 0.000000 0.000000 0.033833 0.000000 0.027026
# 5 0.009065 -0.000715 0.007310 0.000000 0.037228 0.000000
# 6 0.000000 0.000000 0.000000 0.027026 0.000000 0.141691
#
#
# Mechanical properties :
#
#
# Convention : Reuss Voigt Hill
#
# Bulk Modulus (GPa) = 25.79696 44.91306 35.35501
# Shear Modulus (GPa) = 16.76889 32.34372 24.55630
#
# Velocity S-wave (km/s) = 2.72386 3.78292 3.29620
# Velocity P-wave (km/s) = 4.61589 6.24119 5.48903
#
# Compressibility (1/GPa) = 0.03876425
#
# Stress axis : x y z
#
# Youngs Moduli (GPa) = 123.14849 36.70977 49.33424
#
# Poissons Ratio (x) = 0.05290 0.03000
# Poissons Ratio (y) = 0.17747 0.31495
# Poissons Ratio (z) = 0.07490 0.23435
#
# Static dielectric constant tensor:
#      x y z
#    x 1.931070 0.000000 0.024890 
#    y 0.000000 1.803540 0.000000 
#    z 0.024890 0.000000 1.889110 
# 
# From -- ./inp_files/142228.got.cif
#   From: 2010.05.17/outbox.cif.g08.bks.cpg/sg15_72_cif.got.tgz:142228.got - 2010.06.03 18:47:42.
