data_PCOD9297045
_publ_section_title
;
Structure prediction by ZEFSAII (Michael W. Deem and Ramdas Pophale) SiO2 
 PCOD9297045
Probable space group: C 2/C
;
_chemical_formula_sum "Si O2"
_cell_formula_units_Z 52
_cell_length_a 26.774384
_cell_length_b 5.268203
_cell_length_c 17.785963
_cell_angle_alpha 90.000000
_cell_angle_beta 57.931224
_cell_angle_gamma 90.000000
_cell_volume 2125.953050
_symmetry_space_group_name_H-M "C 2/C"
_symmetry_group_IT_number 15
_symmetry_cell_setting 'monoclinic'
loop_
_space_group_symop_operation_xyz
x,y,z
-x,y,1/2-z
-x,-y,-z
x,-y,1/2+z
1/2+x,1/2+y,z
1/2-x,1/2+y,1/2-z
1/2-x,1/2-y,-z
1/2+x,1/2-y,1/2+z
loop_
_atom_site_type_symbol
_atom_site_label
_atom_site_fract_x
_atom_site_fract_y
_atom_site_fract_z
Si Si1 0.312021 0.520248 0.606948
Si Si2 0.111322 0.334980 0.068450
Si Si3 0.500000 0.649209 0.250000
Si Si4 0.079940 0.717187 0.964276
Si Si5 0.349059 0.639782 0.728523
Si Si6 0.472127 0.463517 0.611325
Si Si7 0.318189 0.884023 0.342073
O O1 0.356830 0.624042 0.507979
O O2 0.349753 0.273647 0.602812
O O3 0.305799 0.665954 0.691488
O O4 0.249054 0.530528 0.618579
O O5 0.162624 0.406505 0.086439
O O6 0.055833 0.282700 0.166947
O O7 0.084248 0.517695 0.027287
O O8 0.526749 0.510157 0.300205
O O9 0.046042 0.689926 0.910801
O O10 0.033568 0.928460 0.033619
O O11 0.412374 0.607896 0.637927
O O12 0.331949 0.394637 0.794330
O O13 0.352817 0.894408 0.772268
#
# Coordination Sequence:
#
# PCOD9297045 Si02
#       7
#     8   8   4   8   8   8   8
#     4  11  26  49  73 104 150 195 248 305 376 450
#     4  12  28  43  75 105 148 197 247 310 375 444
#     4  12  24  44  68 104 144 182 248 304 364 432
#     4  10  25  45  72 105 139 198 242 308 372 452
#     4  11  27  48  78 108 146 198 247 309 370 443
#     4  10  23  47  72 103 150 183 254 302 378 436
#     4  12  28  48  75 113 148 195 251 310 366 445
#
# _framework density 24.459620999999999
#
# number of rings (size 3 to 8) (size 9 to 14) (size 15 to 20)
#    0.000    0.923    3.077    1.385   12.923    1.231 
#    0.000    0.000    0.000    0.000    0.000    0.000 
#    0.000    0.000    0.000    0.000    0.000    0.000 
#
# Total GULP energy -144840.859210 kJ/mol
# GULP energy per Si atom -5570.802277 kJ/mol
# Density = 2.440395 g / cm^3
# Si number density = 24.459621 Si / 1000 Ang^3
#
#
#
# Elastic Constant Matrix: (Units=GPa)
#
#
# Indices 1 2 3 4 5 6 
#
# 1 151.5484 8.8652 11.0226 0.0221 -2.7510 -0.0330
# 2 8.8652 48.4664 13.4407 0.0556 -7.1345 -0.2707
# 3 11.0226 13.4407 78.4728 -0.0274 0.5491 0.0262
# 4 0.0221 0.0556 -0.0274 22.8657 0.0479 5.4274
# 5 -2.7510 -7.1345 0.5491 0.0479 38.1380 -0.0514
# 6 -0.0330 -0.2707 0.0262 5.4274 -0.0514 25.8356
#
#
#
# Elastic Compliance Matrix: (Units=1/GPa)
#
#
# Indices 1 2 3 4 5 6 
#
# 1 0.006718 -0.000966 -0.000780 -0.000006 0.000315 0.000001
# 2 -0.000966 0.022465 -0.003742 -0.000132 0.004187 0.000274
# 3 -0.000780 -0.003742 0.013500 0.000043 -0.000951 -0.000065
# 4 -0.000006 -0.000132 0.000043 0.046030 -0.000097 -0.009671
# 5 0.000315 0.004187 -0.000951 -0.000097 0.027041 0.000119
# 6 0.000001 0.000274 -0.000065 -0.009671 0.000119 0.040741
#
#
# Mechanical properties :
#
#
# Convention : Reuss Voigt Hill
#
# Bulk Modulus (GPa) = 31.53826 38.34940 34.94383
# Shear Modulus (GPa) = 28.08365 33.71181 30.89773
#
# Velocity S-wave (km/s) = 3.39213 3.71653 3.55803
# Velocity P-wave (km/s) = 5.31640 5.84204 5.58541
#
# Compressibility (1/GPa) = 0.03170752
#
# Stress axis : x y z
#
# Youngs Moduli (GPa) = 148.86419 44.51322 74.07182
#
# Poissons Ratio (x) = 0.04300 0.05780
# Poissons Ratio (y) = 0.14379 0.27714
# Poissons Ratio (z) = 0.11616 0.16655
#
# Static dielectric constant tensor:
#      x y z
#    x 2.058680 0.000070 0.078870 
#    y 0.000070 2.138930 0.000030 
#    z 0.078870 0.000030 2.069440 
# 
# From -- ./inp_files/221141.got.cif
#   From: 2010.05.17/outbox.cif.g08.bks.cpg/sg15_111_cif.got.tgz:221141.got - 2010.06.03 18:47:42.
