data_PCOD9297656
_publ_section_title
;
Structure prediction by ZEFSAII (Michael W. Deem and Ramdas Pophale) SiO2 
 PCOD9297656
Probable space group: C 2/C
;
_chemical_formula_sum "Si O2"
_cell_formula_units_Z 44
_cell_length_a 6.521420
_cell_length_b 13.542733
_cell_length_c 22.900428
_cell_angle_alpha 90.000000
_cell_angle_beta 75.020290
_cell_angle_gamma 90.000000
_cell_volume 1953.786232
_symmetry_space_group_name_H-M "C 2/C"
_symmetry_group_IT_number 15
_symmetry_cell_setting 'monoclinic'
loop_
_space_group_symop_operation_xyz
x,y,z
-x,y,1/2-z
-x,-y,-z
x,-y,1/2+z
1/2+x,1/2+y,z
1/2-x,1/2+y,1/2-z
1/2-x,1/2-y,-z
1/2+x,1/2-y,1/2+z
loop_
_atom_site_type_symbol
_atom_site_label
_atom_site_fract_x
_atom_site_fract_y
_atom_site_fract_z
Si Si1 0.567034 0.758493 0.936314
Si Si2 0.431342 0.707300 0.694182
Si Si3 0.000000 0.590975 0.750000
Si Si4 0.789828 0.091447 0.009009
Si Si5 0.881187 0.907650 0.928223
Si Si6 0.824980 0.995880 0.308983
O O1 0.548507 0.763294 0.867710
O O2 0.478802 0.652817 0.962784
O O3 0.799717 0.795247 0.937610
O O4 0.413153 0.839857 0.975995
O O5 0.500000 0.759099 0.750000
O O6 0.588322 0.612965 0.680546
O O7 0.195104 0.660519 0.715569
O O8 0.897458 0.523075 0.706926
O O9 0.767661 0.987190 0.979140
O O10 0.876912 0.082600 0.068573
O O11 0.831344 0.941661 0.866754
O O12 0.000000 0.035417 0.250000
#
# Coordination Sequence:
#
# PCOD9297656 Si02
#       6
#     8   8   4   8   8   8
#     4  11  22  41  62  91 121 163 208 253 312 372
#     4   9  19  38  60  88 121 157 201 251 305 364
#     4   8  18  36  64  86 116 168 194 240 324 362
#     4  10  24  42  61  88 126 159 204 264 300 366
#     4  11  22  41  62  91 121 163 208 253 312 372
#     4   9  19  38  60  88 121 157 201 251 305 364
#
# _framework density 22.520375999999999
#
# number of rings (size 3 to 8) (size 9 to 14) (size 15 to 20)
#    0.000    2.545    1.818    1.091    0.000    5.818 
#    9.818    0.000    0.000    0.000    0.000    0.000 
#    0.000    0.000    0.000    0.000    0.000    0.000 
#
# Total GULP energy -122772.811402 kJ/mol
# GULP energy per Si atom -5580.582336 kJ/mol
# Density = 2.246912 g / cm^3
# Si number density = 22.520376 Si / 1000 Ang^3
#
#
#
# Elastic Constant Matrix: (Units=GPa)
#
#
# Indices 1 2 3 4 5 6 
#
# 1 93.5024 17.2881 31.6736 0.0000 22.6967 0.0000
# 2 17.2881 62.8800 28.0501 0.0000 6.5866 0.0000
# 3 31.6736 28.0501 107.4254 0.0000 28.5227 0.0000
# 4 0.0000 0.0000 0.0000 -0.5471 0.0000 15.0823
# 5 22.6967 6.5866 28.5227 0.0000 20.4470 0.0000
# 6 0.0000 0.0000 0.0000 15.0823 0.0000 28.7769
#
#
#
# Elastic Compliance Matrix: (Units=1/GPa)
#
#
# Indices 1 2 3 4 5 6 
#
# 1 0.015034 -0.002702 0.000751 0.000000 -0.016865 0.000000
# 2 -0.002702 0.018504 -0.005160 0.000000 0.004236 0.000000
# 3 0.000751 -0.005160 0.016223 0.000000 -0.021802 0.000000
# 4 0.000000 0.000000 0.000000 -0.118316 0.000000 0.062011
# 5 -0.016865 0.004236 -0.021802 0.000000 0.096676 0.000000
# 6 0.000000 0.000000 0.000000 0.062011 0.000000 0.002249
#
#
# Mechanical properties :
#
#
# Convention : Reuss Voigt Hill
#
# Bulk Modulus (GPa) = 28.13742 46.42570 37.28156
# Shear Modulus (GPa) = 88.59227 22.18845 55.39036
#
# Velocity S-wave (km/s) = 6.27886 3.14229 4.96478
# Velocity P-wave (km/s) = 8.06764 5.81593 7.03249
#
# Compressibility (1/GPa) = 0.03553986
#
# Stress axis : x y z
#
# Youngs Moduli (GPa) = 66.51637 54.04203 61.63899
#
# Poissons Ratio (x) = 0.14600 -0.04627
# Poissons Ratio (y) = 0.17970 0.31804
# Poissons Ratio (z) = -0.04993 0.27884
#
# Static dielectric constant tensor:
#      x y z
#    x 1.860240 0.000000 0.013860 
#    y 0.000000 1.827630 0.000000 
#    z 0.013860 0.000000 1.881540 
# 
# From -- ./inp_files/260378.got.cif
#   From: 2010.05.17/outbox.cif.g08.bks.cpg/sg15_131_cif.got.tgz:260378.got - 2010.06.03 18:47:42.
