data_PCOD9297534
_publ_section_title
;
Structure prediction by ZEFSAII (Michael W. Deem and Ramdas Pophale) SiO2 
 PCOD9297534
Probable space group: C 2/C
;
_chemical_formula_sum "Si O2"
_cell_formula_units_Z 64
_cell_length_a 16.622485
_cell_length_b 9.007732
_cell_length_c 19.731023
_cell_angle_alpha 90.000000
_cell_angle_beta 97.755773
_cell_angle_gamma 90.000000
_cell_volume 2927.318201
_symmetry_space_group_name_H-M "C 2/C"
_symmetry_group_IT_number 15
_symmetry_cell_setting 'monoclinic'
loop_
_space_group_symop_operation_xyz
x,y,z
-x,y,1/2-z
-x,-y,-z
x,-y,1/2+z
1/2+x,1/2+y,z
1/2-x,1/2+y,1/2-z
1/2-x,1/2-y,-z
1/2+x,1/2-y,1/2+z
loop_
_atom_site_type_symbol
_atom_site_label
_atom_site_fract_x
_atom_site_fract_y
_atom_site_fract_z
Si Si1 0.793524 0.747080 0.669757
Si Si2 0.209744 0.750026 0.569092
Si Si3 0.085060 0.341440 0.427367
Si Si4 0.650420 0.915124 0.580754
Si Si5 0.231197 0.976527 0.735379
Si Si6 0.475305 0.166587 0.114916
Si Si7 0.548975 0.352712 0.520417
Si Si8 0.344989 0.758452 0.699290
O O1 0.869035 0.731855 0.629455
O O2 0.730834 0.852294 0.623819
O O3 0.749703 0.589054 0.675564
O O4 0.813999 0.824227 0.744943
O O5 0.250000 0.750000 0.500000
O O6 0.164736 0.592630 0.578218
O O7 0.138001 0.871167 0.561643
O O8 0.279793 0.779045 0.631020
O O9 0.137239 0.356378 0.502472
O O10 0.061877 0.505633 0.402359
O O11 0.005626 0.250303 0.438305
O O12 0.571224 0.857740 0.612996
O O13 0.181613 0.098755 0.774407
O O14 0.321494 0.895934 0.746318
O O15 0.434976 0.228555 0.178992
O O16 0.443706 0.270381 0.050643
O O17 0.500000 0.500000 0.500000
#
# Coordination Sequence:
#
# PCOD9297534 Si02
#       8
#     8   8   8   8   8   8   8   8
#     4  11  23  41  68  93 121 175 217 264 311 384
#     4  12  22  38  68  97 131 166 211 261 327 387
#     4  11  21  40  66  94 134 164 202 259 332 388
#     4  11  22  40  66  98 127 163 217 258 324 398
#     4  10  24  41  62  90 125 167 224 264 305 371
#     4  11  21  43  63  92 134 170 196 265 328 389
#     4  11  24  37  60 101 137 161 199 263 332 383
#     4  11  22  42  69  90 125 170 218 264 321 372
#
# _framework density 21.863015999999998
#
# number of rings (size 3 to 8) (size 9 to 14) (size 15 to 20)
#    0.000    1.000    6.250    1.125    3.500    2.000 
#    0.000    2.500    5.500    1.500    0.000    0.000 
#    0.000    0.000    0.000    0.000    0.000    0.000 
#
# Total GULP energy -178265.291712 kJ/mol
# GULP energy per Si atom -5570.790366 kJ/mol
# Density = 2.181325 g / cm^3
# Si number density = 21.863016 Si / 1000 Ang^3
#
#
#
# Elastic Constant Matrix: (Units=GPa)
#
#
# Indices 1 2 3 4 5 6 
#
# 1 66.0194 30.2051 19.6038 0.0000 -24.2767 0.0000
# 2 30.2051 85.3958 4.1774 0.0000 -20.3831 0.0000
# 3 19.6038 4.1774 46.3743 0.0000 -24.2687 0.0000
# 4 0.0000 0.0000 0.0000 36.8032 0.0000 -4.0561
# 5 -24.2767 -20.3831 -24.2687 0.0000 48.6539 0.0000
# 6 0.0000 0.0000 0.0000 -4.0561 0.0000 28.2888
#
#
#
# Elastic Compliance Matrix: (Units=1/GPa)
#
#
# Indices 1 2 3 4 5 6 
#
# 1 0.021618 -0.006087 -0.005792 0.000000 0.005348 0.000000
# 2 -0.006087 0.014905 0.003936 0.000000 0.005171 0.000000
# 3 -0.005792 0.003936 0.031136 0.000000 0.014290 0.000000
# 4 0.000000 0.000000 0.000000 0.027608 0.000000 0.003958
# 5 0.005348 0.005171 0.014290 0.000000 0.032516 0.000000
# 6 0.000000 0.000000 0.000000 0.003958 0.000000 0.035917
#
#
# Mechanical properties :
#
#
# Convention : Reuss Voigt Hill
#
# Bulk Modulus (GPa) = 19.31467 33.97355 26.64411
# Shear Modulus (GPa) = 25.40118 32.33608 28.86863
#
# Velocity S-wave (km/s) = 3.41227 3.84999 3.63772
# Velocity P-wave (km/s) = 4.93744 5.94443 5.46418
#
# Compressibility (1/GPa) = 0.05177411
#
# Stress axis : x y z
#
# Youngs Moduli (GPa) = 46.25746 67.09296 32.11763
#
# Poissons Ratio (x) = 0.40837 0.18602
# Poissons Ratio (y) = 0.28155 -0.12642
# Poissons Ratio (z) = 0.26791 -0.26410
#
# Static dielectric constant tensor:
#      x y z
#    x 1.448000 0.000000 0.194190 
#    y 0.000000 1.314380 0.000000 
#    z 0.194190 0.000000 1.818030 
# 
# From -- ./inp_files/273153.got.cif
#   From: 2010.05.17/outbox.cif.g08.bks.cpg/sg15_137_cif.got.tgz:273153.got - 2010.06.03 18:47:42.
