data_PCOD9297024
_publ_section_title
;
Structure prediction by ZEFSAII (Michael W. Deem and Ramdas Pophale) SiO2 
 PCOD9297024
Probable space group: C 2/C
;
_chemical_formula_sum "Si O2"
_cell_formula_units_Z 36
_cell_length_a 13.696108
_cell_length_b 5.004897
_cell_length_c 23.636302
_cell_angle_alpha 90.000000
_cell_angle_beta 128.476987
_cell_angle_gamma 90.000000
_cell_volume 1268.396140
_symmetry_space_group_name_H-M "C 2/C"
_symmetry_group_IT_number 15
_symmetry_cell_setting 'monoclinic'
loop_
_space_group_symop_operation_xyz
x,y,z
-x,y,1/2-z
-x,-y,-z
x,-y,1/2+z
1/2+x,1/2+y,z
1/2-x,1/2+y,1/2-z
1/2-x,1/2-y,-z
1/2+x,1/2-y,1/2+z
loop_
_atom_site_type_symbol
_atom_site_label
_atom_site_fract_x
_atom_site_fract_y
_atom_site_fract_z
Si Si1 0.083506 0.614669 0.127432
Si Si2 0.607643 0.514872 0.900784
Si Si3 0.258742 0.597496 0.333738
Si Si4 0.145546 0.228285 0.533035
Si Si5 0.500000 0.391019 0.250000
O O1 0.149655 0.332803 0.152633
O O2 0.057225 0.682329 0.052079
O O3 0.193224 0.831629 0.180813
O O4 0.957517 0.696639 0.113612
O O5 0.752486 0.456180 0.942575
O O6 0.540383 0.430483 0.818251
O O7 0.588142 0.364237 0.953479
O O8 0.281893 0.509796 0.407652
O O9 0.119401 0.706819 0.278832
#
# Coordination Sequence:
#
# PCOD9297024 Si02
#       5
#     8   8   8   8   4
#     4  10  23  47  70 108 135 198 241 319 354 471
#     4  11  23  45  78 100 154 190 253 301 398 431
#     4  10  24  45  71 100 149 172 263 286 388 429
#     4   9  23  47  71 110 140 197 247 318 362 478
#     4  12  24  44  68 106 140 198 230 322 370 470
#
# _framework density 28.382299
#
# number of rings (size 3 to 8) (size 9 to 14) (size 15 to 20)
#    1.333    0.444    2.222    0.667    0.000    8.889 
#    0.000    0.000    0.000    0.000    0.000    0.000 
#    0.000    0.000    0.000    0.000    0.000    0.000 
#
# Total GULP energy -100714.329830 kJ/mol
# GULP energy per Si atom -5595.240546 kJ/mol
# Density = 2.831770 g / cm^3
# Si number density = 28.382299 Si / 1000 Ang^3
#
#
#
# Elastic Constant Matrix: (Units=GPa)
#
#
# Indices 1 2 3 4 5 6 
#
# 1 155.3912 43.5841 50.0495 0.0003 19.1389 0.0000
# 2 43.5841 134.5266 45.2228 0.0003 31.6042 0.0000
# 3 50.0495 45.2228 214.2579 0.0001 -7.7568 0.0000
# 4 0.0003 0.0003 0.0001 31.7818 -0.0002 1.4839
# 5 19.1389 31.6042 -7.7568 -0.0002 64.9894 0.0001
# 6 0.0000 0.0000 0.0000 1.4839 0.0001 23.3378
#
#
#
# Elastic Compliance Matrix: (Units=1/GPa)
#
#
# Indices 1 2 3 4 5 6 
#
# 1 0.007557 -0.001559 -0.001496 0.000000 -0.001646 0.000000
# 2 -0.001559 0.009589 -0.001820 0.000000 -0.004421 0.000000
# 3 -0.001496 -0.001820 0.005472 0.000000 0.001979 0.000000
# 4 0.000000 0.000000 0.000000 0.031558 0.000000 -0.002007
# 5 -0.001646 -0.004421 0.001979 0.000000 0.018258 0.000000
# 6 0.000000 0.000000 0.000000 -0.002007 0.000000 0.042976
#
#
# Mechanical properties :
#
#
# Convention : Reuss Voigt Hill
#
# Bulk Modulus (GPa) = 77.70344 86.87648 82.28996
# Shear Modulus (GPa) = 38.62490 48.37643 43.50067
#
# Velocity S-wave (km/s) = 3.69301 4.13299 3.91918
# Velocity P-wave (km/s) = 6.75436 7.31104 7.03820
#
# Compressibility (1/GPa) = 0.01286944
#
# Stress axis : x y z
#
# Youngs Moduli (GPa) = 132.32551 104.28686 182.73366
#
# Poissons Ratio (x) = 0.16256 0.27335
# Poissons Ratio (y) = 0.20627 0.33255
# Poissons Ratio (z) = 0.19794 0.18979
#
# Static dielectric constant tensor:
#      x y z
#    x 2.146920 0.000000 -0.065880 
#    y 0.000000 2.261860 0.000000 
#    z -0.065880 0.000000 2.210510 
# 
# From -- ./inp_files/314956.got.cif
#   From: 2010.05.17/outbox.cif.g08.bks.cpg/sg15_158_cif.got.tgz:314956.got - 2010.06.03 18:47:42.
