data_PCOD9297165
_publ_section_title
;
Structure prediction by ZEFSAII (Michael W. Deem and Ramdas Pophale) SiO2 
 PCOD9297165
Probable space group: C 2/C
;
_chemical_formula_sum "Si O2"
_cell_formula_units_Z 44
_cell_length_a 8.152531
_cell_length_b 11.772290
_cell_length_c 23.940076
_cell_angle_alpha 90.000000
_cell_angle_beta 50.723462
_cell_angle_gamma 90.000000
_cell_volume 1778.589511
_symmetry_space_group_name_H-M "C 2/C"
_symmetry_group_IT_number 15
_symmetry_cell_setting 'monoclinic'
loop_
_space_group_symop_operation_xyz
x,y,z
-x,y,1/2-z
-x,-y,-z
x,-y,1/2+z
1/2+x,1/2+y,z
1/2-x,1/2+y,1/2-z
1/2-x,1/2-y,-z
1/2+x,1/2-y,1/2+z
loop_
_atom_site_type_symbol
_atom_site_label
_atom_site_fract_x
_atom_site_fract_y
_atom_site_fract_z
Si Si1 0.000000 0.013630 0.750000
Si Si2 0.808119 0.630414 0.829691
Si Si3 0.246337 0.099289 0.384189
Si Si4 0.034323 0.284294 0.014752
Si Si5 0.354763 0.863366 0.630694
Si Si6 0.337716 0.186724 0.664221
O O1 0.133602 0.930638 0.681654
O O2 0.178839 0.103180 0.730040
O O3 0.675067 0.523226 0.878258
O O4 0.678425 0.737439 0.835913
O O5 0.000000 0.587737 0.750000
O O6 0.941553 0.688123 0.851255
O O7 0.468902 0.081335 0.367419
O O8 0.250222 0.187955 0.331272
O O9 0.095369 0.165639 0.460185
O O10 0.894600 0.356703 0.089140
O O11 0.250000 0.250000 0.000000
O O12 0.066466 0.344060 0.949165
#
# Coordination Sequence:
#
# PCOD9297165 Si02
#       6
#     4   8   8   8   8   8
#     4  12  26  44  76 106 154 184 244 306 362 444
#     4  12  26  44  73 106 147 189 238 300 365 433
#     4  10  26  47  73 107 148 186 249 300 361 436
#     4  10  23  49  74 107 150 193 248 303 363 443
#     4  12  24  46  74 111 144 194 244 299 370 434
#     4  10  26  48  69 107 148 190 242 300 363 433
#
# _framework density 24.738703999999998
#
# number of rings (size 3 to 8) (size 9 to 14) (size 15 to 20)
#    1.091    0.000    4.545    0.545    3.818    4.364 
#    0.000    0.000    0.000    0.000    0.000    0.000 
#    0.000    0.000    0.000    0.000    0.000    0.000 
#
# Total GULP energy -122810.696915 kJ/mol
# GULP energy per Si atom -5582.304405 kJ/mol
# Density = 2.468240 g / cm^3
# Si number density = 24.738704 Si / 1000 Ang^3
#
#
#
# Elastic Constant Matrix: (Units=GPa)
#
#
# Indices 1 2 3 4 5 6 
#
# 1 56.6060 19.4570 11.4691 0.0001 -0.5589 0.0000
# 2 19.4570 111.8752 21.4982 0.0001 1.7861 0.0000
# 3 11.4691 21.4982 86.2127 0.0003 2.6628 -0.0001
# 4 0.0001 0.0001 0.0003 51.3591 -0.0001 -5.6201
# 5 -0.5589 1.7861 2.6628 -0.0001 28.5910 0.0000
# 6 0.0000 0.0000 -0.0001 -5.6201 0.0000 24.9034
#
#
#
# Elastic Compliance Matrix: (Units=1/GPa)
#
#
# Indices 1 2 3 4 5 6 
#
# 1 0.019065 -0.002978 -0.001816 0.000000 0.000728 0.000000
# 2 -0.002978 0.009858 -0.002047 0.000000 -0.000483 0.000000
# 3 -0.001816 -0.002047 0.012384 0.000000 -0.001061 0.000000
# 4 0.000000 0.000000 0.000000 0.019964 0.000000 0.004505
# 5 0.000728 -0.000483 -0.001061 0.000000 0.035119 0.000000
# 6 0.000000 0.000000 0.000000 0.004505 0.000000 0.041172
#
#
# Mechanical properties :
#
#
# Convention : Reuss Voigt Hill
#
# Bulk Modulus (GPa) = 36.20074 39.94916 38.07495
# Shear Modulus (GPa) = 31.16197 34.45534 32.80865
#
# Velocity S-wave (km/s) = 3.55300 3.73603 3.64566
# Velocity P-wave (km/s) = 5.61219 5.89865 5.75720
#
# Compressibility (1/GPa) = 0.02762374
#
# Stress axis : x y z
#
# Youngs Moduli (GPa) = 52.45257 101.44473 80.74926
#
# Poissons Ratio (x) = 0.30214 0.14664
# Poissons Ratio (y) = 0.15622 0.16529
# Poissons Ratio (z) = 0.09526 0.20765
#
# Static dielectric constant tensor:
#      x y z
#    x 1.968260 0.000000 0.019900 
#    y 0.000000 1.962500 0.000000 
#    z 0.019900 0.000000 2.025210 
# 
# From -- ./inp_files/287876.got.cif
#   From: 2010.05.17/outbox.cif.g08.bks.cpg/sg15_144_cif.got.tgz:287876.got - 2010.06.03 18:47:42.
