data_PCOD9297685
_publ_section_title
;
Structure prediction by ZEFSAII (Michael W. Deem and Ramdas Pophale) SiO2 
 PCOD9297685
Probable space group: C 2/C
;
_chemical_formula_sum "Si O2"
_cell_formula_units_Z 44
_cell_length_a 13.187582
_cell_length_b 19.870541
_cell_length_c 9.566638
_cell_angle_alpha 90.000000
_cell_angle_beta 122.061689
_cell_angle_gamma 90.000000
_cell_volume 2124.526502
_symmetry_space_group_name_H-M "C 2/C"
_symmetry_group_IT_number 15
_symmetry_cell_setting 'monoclinic'
loop_
_space_group_symop_operation_xyz
x,y,z
-x,y,1/2-z
-x,-y,-z
x,-y,1/2+z
1/2+x,1/2+y,z
1/2-x,1/2+y,1/2-z
1/2-x,1/2-y,-z
1/2+x,1/2-y,1/2+z
loop_
_atom_site_type_symbol
_atom_site_label
_atom_site_fract_x
_atom_site_fract_y
_atom_site_fract_z
Si Si1 0.745083 0.634580 0.823837
Si Si2 0.772490 0.229354 0.176657
Si Si3 0.737011 0.887100 0.847293
Si Si4 0.087170 0.522540 0.686692
Si Si5 0.000000 0.839600 0.750000
Si Si6 0.515472 0.420448 0.024069
O O1 0.747215 0.707181 0.754700
O O2 0.831861 0.584244 0.803733
O O3 0.612421 0.602509 0.708932
O O4 0.787903 0.639299 0.015114
O O5 0.706775 0.165023 0.199766
O O6 0.910491 0.207267 0.269455
O O7 0.750000 0.250000 0.000000
O O8 0.671540 0.958534 0.782910
O O9 0.880365 0.895992 0.948376
O O10 0.000000 0.540336 0.750000
O O11 0.000000 0.500000 0.500000
O O12 0.939776 0.888091 0.590645
O O13 0.500000 0.500000 0.000000
#
# Coordination Sequence:
#
# PCOD9297685 Si02
#       6
#     8   8   8   8   4   8
#     4  12  25  45  73 102 141 184 230 289 353 417
#     4  11  25  45  69  99 138 184 233 281 347 416
#     4  11  26  46  69 104 142 179 236 291 348 416
#     4  12  27  46  71 105 139 186 235 288 351 419
#     4  10  24  42  64 106 134 178 230 286 336 420
#     4  11  23  40  73 102 137 175 229 286 352 405
#
# _framework density 20.710495999999999
#
# number of rings (size 3 to 8) (size 9 to 14) (size 15 to 20)
#    0.000    0.727    5.455    1.091    6.364    0.000 
#    0.000    0.000    0.000    0.000    0.000    0.000 
#    0.000    0.000    0.000    0.000    0.000    0.000 
#
# Total GULP energy -122875.746940 kJ/mol
# GULP energy per Si atom -5585.261225 kJ/mol
# Density = 2.066336 g / cm^3
# Si number density = 20.710496 Si / 1000 Ang^3
#
#
#
# Elastic Constant Matrix: (Units=GPa)
#
#
# Indices 1 2 3 4 5 6 
#
# 1 97.6812 36.1556 13.7277 0.0000 -7.0027 0.0000
# 2 36.1556 103.1336 -0.8616 0.0000 -11.9464 0.0000
# 3 13.7277 -0.8616 77.3911 0.0000 -18.1687 0.0000
# 4 0.0000 0.0000 0.0000 31.7177 0.0000 -3.0445
# 5 -7.0027 -11.9464 -18.1687 0.0000 38.1168 0.0000
# 6 0.0000 0.0000 0.0000 -3.0445 0.0000 28.3170
#
#
#
# Elastic Compliance Matrix: (Units=1/GPa)
#
#
# Indices 1 2 3 4 5 6 
#
# 1 0.012128 -0.004292 -0.002243 0.000000 -0.000186 0.000000
# 2 -0.004292 0.011644 0.001759 0.000000 0.003700 0.000000
# 3 -0.002243 0.001759 0.015056 0.000000 0.007316 0.000000
# 4 0.000000 0.000000 0.000000 0.031857 0.000000 0.003425
# 5 -0.000186 0.003700 0.007316 0.000000 0.030848 0.000000
# 6 0.000000 0.000000 0.000000 0.003425 0.000000 0.035683
#
#
# Mechanical properties :
#
#
# Convention : Reuss Voigt Hill
#
# Bulk Modulus (GPa) = 34.15553 41.80549 37.98051
# Shear Modulus (GPa) = 31.94371 34.90924 33.42648
#
# Velocity S-wave (km/s) = 3.93159 4.11004 4.02180
# Velocity P-wave (km/s) = 6.09406 6.53855 6.32022
#
# Compressibility (1/GPa) = 0.02927783
#
# Stress axis : x y z
#
# Youngs Moduli (GPa) = 82.45486 85.88087 66.41714
#
# Poissons Ratio (x) = 0.36860 0.14896
# Poissons Ratio (y) = 0.35389 -0.11686
# Poissons Ratio (z) = 0.18492 -0.15111
#
# Static dielectric constant tensor:
#      x y z
#    x 1.703700 0.000000 -0.049060 
#    y 0.000000 1.765870 0.000000 
#    z -0.049060 0.000000 1.690400 
# 
# From -- ./inp_files/39747.got.cif
#   From: 2010.05.17/outbox.cif.g08.bks.cpg/sg15_20_cif.got.tgz:39747.got - 2010.06.03 18:47:42.
