data_PCOD9297665
_publ_section_title
;
Structure prediction by ZEFSAII (Michael W. Deem and Ramdas Pophale) SiO2 
 PCOD9297665
Probable space group: C 2/C
;
_chemical_formula_sum "Si O2"
_cell_formula_units_Z 44
_cell_length_a 23.255997
_cell_length_b 17.390756
_cell_length_c 13.739016
_cell_angle_alpha 90.000000
_cell_angle_beta 157.520877
_cell_angle_gamma 90.000000
_cell_volume 2124.547671
_symmetry_space_group_name_H-M "C 2/C"
_symmetry_group_IT_number 15
_symmetry_cell_setting 'monoclinic'
loop_
_space_group_symop_operation_xyz
x,y,z
-x,y,1/2-z
-x,-y,-z
x,-y,1/2+z
1/2+x,1/2+y,z
1/2-x,1/2+y,1/2-z
1/2-x,1/2-y,-z
1/2+x,1/2-y,1/2+z
loop_
_atom_site_type_symbol
_atom_site_label
_atom_site_fract_x
_atom_site_fract_y
_atom_site_fract_z
Si Si1 0.442572 0.131841 0.549885
Si Si2 0.014408 0.086410 0.126254
Si Si3 0.771606 0.787818 0.245083
Si Si4 0.881222 0.922843 0.927541
Si Si5 0.723331 0.177127 0.885606
Si Si6 0.000000 0.207509 0.750000
O O1 0.500000 0.128293 0.750000
O O2 0.387619 0.217954 0.439213
O O3 0.587591 0.123016 0.709070
O O4 0.291621 0.081015 0.306433
O O5 0.122713 0.129536 0.370262
O O6 0.109948 0.083389 0.175403
O O7 0.964375 0.002179 0.080095
O O8 0.865851 0.136199 0.871229
O O9 0.695638 0.795917 0.232601
O O10 0.645999 0.761536 0.972251
O O11 0.966594 0.850582 0.108920
O O12 0.750000 0.250000 0.000000
#
# Coordination Sequence:
#
# PCOD9297665 Si02
#       6
#     8   8   8   8   8   4
#     4  11  19  38  63  93 125 158 210 267 313 376
#     4  11  22  41  67  96 125 163 224 265 314 387
#     4  11  23  38  64  94 124 167 217 266 310 379
#     4  10  24  42  62  91 133 177 200 259 337 382
#     4  12  20  36  68  99 120 155 219 277 310 363
#     4  10  24  44  58  88 138 174 204 256 332 384
#
# _framework density 20.710290000000001
#
# number of rings (size 3 to 8) (size 9 to 14) (size 15 to 20)
#    0.000    1.091    5.455    1.636    2.545    0.727 
#    4.909    0.909    0.000    0.000    0.000    0.000 
#    0.000    0.000    0.000    0.000    0.000    0.000 
#
# Total GULP energy -122895.452543 kJ/mol
# GULP energy per Si atom -5586.156934 kJ/mol
# Density = 2.066315 g / cm^3
# Si number density = 20.710290 Si / 1000 Ang^3
#
#
#
# Elastic Constant Matrix: (Units=GPa)
#
#
# Indices 1 2 3 4 5 6 
#
# 1 41.9332 7.1476 33.3608 0.0000 23.4379 0.0000
# 2 7.1476 79.5753 42.0373 0.0000 12.4510 0.0000
# 3 33.3608 42.0373 132.6783 0.0000 13.5451 0.0000
# 4 0.0000 0.0000 0.0000 22.2517 0.0000 5.0454
# 5 23.4379 12.4510 13.5451 0.0000 34.3679 0.0000
# 6 0.0000 0.0000 0.0000 5.0454 0.0000 24.4977
#
#
#
# Elastic Compliance Matrix: (Units=1/GPa)
#
#
# Indices 1 2 3 4 5 6 
#
# 1 0.049293 0.006429 -0.011213 0.000000 -0.031526 0.000000
# 2 0.006429 0.016405 -0.006001 0.000000 -0.007962 0.000000
# 3 -0.011213 -0.006001 0.011727 0.000000 0.005199 0.000000
# 4 0.000000 0.000000 0.000000 0.047142 0.000000 -0.009709
# 5 -0.031526 -0.007962 0.005199 0.000000 0.051433 0.000000
# 6 0.000000 0.000000 0.000000 -0.009709 0.000000 0.042820
#
#
# Mechanical properties :
#
#
# Convention : Reuss Voigt Hill
#
# Bulk Modulus (GPa) = 17.90351 46.58647 32.24499
# Shear Modulus (GPa) = 19.30431 27.66619 23.48525
#
# Velocity S-wave (km/s) = 3.05636 3.65892 3.37113
# Velocity P-wave (km/s) = 4.59550 6.35558 5.54581
#
# Compressibility (1/GPa) = 0.05585496
#
# Stress axis : x y z
#
# Youngs Moduli (GPa) = 20.28671 60.95518 85.27298
#
# Poissons Ratio (x) = -0.39186 0.95614
# Poissons Ratio (y) = -0.13041 0.51176
# Poissons Ratio (z) = 0.22747 0.36582
#
# Static dielectric constant tensor:
#      x y z
#    x 1.761960 0.000000 0.016000 
#    y 0.000000 1.735770 0.000000 
#    z 0.016000 0.000000 1.747380 
# 
# From -- ./inp_files/145438.got.cif
#   From: 2010.05.17/outbox.cif.g08.bks.cpg/sg15_73_cif.got.tgz:145438.got - 2010.06.03 18:47:42.
