data_PCOD9297071
_publ_section_title
;
Structure prediction by ZEFSAII (Michael W. Deem and Ramdas Pophale) SiO2 
 PCOD9297071
Probable space group: C 2/C
;
_chemical_formula_sum "Si O2"
_cell_formula_units_Z 52
_cell_length_a 15.029553
_cell_length_b 32.172555
_cell_length_c 4.967243
_cell_angle_alpha 90.000000
_cell_angle_beta 62.652397
_cell_angle_gamma 90.000000
_cell_volume 2133.414922
_symmetry_space_group_name_H-M "C 2/C"
_symmetry_group_IT_number 15
_symmetry_cell_setting 'monoclinic'
loop_
_space_group_symop_operation_xyz
x,y,z
-x,y,1/2-z
-x,-y,-z
x,-y,1/2+z
1/2+x,1/2+y,z
1/2-x,1/2+y,1/2-z
1/2-x,1/2-y,-z
1/2+x,1/2-y,1/2+z
loop_
_atom_site_type_symbol
_atom_site_label
_atom_site_fract_x
_atom_site_fract_y
_atom_site_fract_z
Si Si1 0.362576 0.722843 0.122367
Si Si2 0.879486 0.473486 0.416374
Si Si3 0.000000 0.030490 0.750000
Si Si4 0.139307 0.896072 0.209993
Si Si5 0.500000 0.773965 0.750000
Si Si6 0.500000 0.661116 0.250000
Si Si7 0.276120 0.887519 0.533452
Si Si8 0.363646 0.198639 0.982892
O O1 0.413807 0.688535 0.232729
O O2 0.396203 0.768723 0.199294
O O3 0.245054 0.716604 0.275951
O O4 0.418488 0.733560 0.770339
O O5 0.847191 0.507801 0.677116
O O6 0.837499 0.428085 0.532497
O O7 0.000000 0.471045 0.250000
O O8 0.906176 0.061349 0.841425
O O9 0.000000 0.000000 0.500000
O O10 0.050430 0.868062 0.454372
O O11 0.213012 0.900259 0.360292
O O12 0.201959 0.876164 0.881718
O O13 0.560459 0.805060 0.875602
O O14 0.341592 0.846567 0.391123
#
# Coordination Sequence:
#
# PCOD9297071 Si02
#       8
#     8   8   4   8   4   4   8   8
#     4  11  25  45  70 100 146 204 257 323 381 468
#     4  10  23  47  75 107 143 191 243 299 382 466
#     4  12  27  49  78 112 154 188 240 314 378 460
#     4  12  28  47  74 114 146 203 249 306 388 464
#     4  12  24  41  72 102 141 201 256 330 397 448
#     4  12  23  48  72 100 155 207 268 312 385 466
#     4  12  27  46  76 110 154 192 253 322 374 466
#     4  11  26  45  66 109 149 193 265 317 396 456
#
# _framework density 24.374065999999999
#
# number of rings (size 3 to 8) (size 9 to 14) (size 15 to 20)
#    0.000    0.615    3.077    3.692    4.308    4.923 
#    4.154    0.000    0.000    0.000    0.000    0.000 
#    0.000    0.000    0.000    0.000    0.000    0.000 
#
# Total GULP energy -145368.567175 kJ/mol
# GULP energy per Si atom -5591.098737 kJ/mol
# Density = 2.431859 g / cm^3
# Si number density = 24.374066 Si / 1000 Ang^3
#
#
#
# Elastic Constant Matrix: (Units=GPa)
#
#
# Indices 1 2 3 4 5 6 
#
# 1 147.4882 41.1093 28.4603 0.0000 4.3179 0.0000
# 2 41.1093 136.3919 31.1180 0.0000 -11.1056 0.0000
# 3 28.4603 31.1180 96.9890 0.0000 14.2466 0.0000
# 4 0.0000 0.0000 0.0000 37.8700 0.0000 6.6045
# 5 4.3179 -11.1056 14.2466 0.0000 38.1893 0.0000
# 6 0.0000 0.0000 0.0000 6.6045 0.0000 37.1831
#
#
#
# Elastic Compliance Matrix: (Units=1/GPa)
#
#
# Indices 1 2 3 4 5 6 
#
# 1 0.007660 -0.002052 -0.001454 0.000000 -0.000920 0.000000
# 2 -0.002052 0.008911 -0.002826 0.000000 0.003878 0.000000
# 3 -0.001454 -0.002826 0.012421 0.000000 -0.005291 0.000000
# 4 0.000000 0.000000 0.000000 0.027250 0.000000 -0.004840
# 5 -0.000920 0.003878 -0.005291 0.000000 0.029391 0.000000
# 6 0.000000 0.000000 0.000000 -0.004840 0.000000 0.027754
#
#
# Mechanical properties :
#
#
# Convention : Reuss Voigt Hill
#
# Bulk Modulus (GPa) = 61.24887 64.69382 62.97135
# Shear Modulus (GPa) = 38.02459 41.32724 39.67591
#
# Velocity S-wave (km/s) = 3.95402 4.12216 4.03897
# Velocity P-wave (km/s) = 6.78447 7.01826 6.90235
#
# Compressibility (1/GPa) = 0.01632683
#
# Stress axis : x y z
#
# Youngs Moduli (GPa) = 130.55423 112.22271 80.50730
#
# Poissons Ratio (x) = 0.23026 0.11707
# Poissons Ratio (y) = 0.26787 0.22755
# Poissons Ratio (z) = 0.18985 0.31719
#
# Static dielectric constant tensor:
#      x y z
#    x 2.024260 0.000000 0.122350 
#    y 0.000000 1.959670 0.000000 
#    z 0.122350 0.000000 0.539530 
# 
# From -- ./inp_files/9044.got.cif
#   From: 2010.05.17/outbox.cif.g08.bks.cpg/sg15_5_cif.got.tgz:9044.got - 2010.06.03 18:47:42.
