data_PCOD9297322
_publ_section_title
;
Structure prediction by ZEFSAII (Michael W. Deem and Ramdas Pophale) SiO2 
 PCOD9297322
Probable space group: C 2/C
;
_chemical_formula_sum "Si O2"
_cell_formula_units_Z 24
_cell_length_a 12.425212
_cell_length_b 23.512418
_cell_length_c 5.139364
_cell_angle_alpha 90.000000
_cell_angle_beta 52.875919
_cell_angle_gamma 90.000000
_cell_volume 1197.150542
_symmetry_space_group_name_H-M "C 2/C"
_symmetry_group_IT_number 15
_symmetry_cell_setting 'monoclinic'
loop_
_space_group_symop_operation_xyz
x,y,z
-x,y,1/2-z
-x,-y,-z
x,-y,1/2+z
1/2+x,1/2+y,z
1/2-x,1/2+y,1/2-z
1/2-x,1/2-y,-z
1/2+x,1/2-y,1/2+z
loop_
_atom_site_type_symbol
_atom_site_label
_atom_site_fract_x
_atom_site_fract_y
_atom_site_fract_z
Si Si1 0.916444 0.654348 0.116018
Si Si2 0.375000 0.633285 0.129782
Si Si3 0.500000 0.540577 0.250000
Si Si4 0.000000 0.234180 0.250000
O O1 0.763824 0.633992 0.322985
O O2 0.000000 0.641637 0.250000
O O3 0.922075 0.722692 0.055263
O O4 0.000000 0.630185 0.750000
O O5 0.381612 0.585052 0.343975
O O6 0.400721 0.693150 0.236454
O O7 0.500000 0.624325 0.750000
O O8 0.500000 0.500000 0.500000
#
# Coordination Sequence:
#
# PCOD9297322 Si02
#       4
#     8   8   4   4
#     4  10  24  39  58  91 139 166 198 243 308 370
#     4  11  23  39  69  93 121 165 214 253 304 364
#     4  11  24  44  66  94 118 152 210 275 310 356
#     4   9  22  36  62  90 136 164 210 237 304 360
#
# _framework density 20.047604
#
# number of rings (size 3 to 8) (size 9 to 14) (size 15 to 20)
#    1.000    0.667    1.667    2.000    9.333    2.667 
#    0.000    0.000    0.000    6.000    0.000    0.000 
#    0.000    0.000    0.000    0.000    0.000    0.000 
#
# Total GULP energy -66887.066601 kJ/mol
# GULP energy per Si atom -5573.922217 kJ/mol
# Density = 2.000197 g / cm^3
# Si number density = 20.047604 Si / 1000 Ang^3
#
#
#
# Elastic Constant Matrix: (Units=GPa)
#
#
# Indices 1 2 3 4 5 6 
#
# 1 240.2969 52.1795 86.8153 0.0000 -1.1521 0.0000
# 2 52.1795 72.4321 21.7045 0.0000 -0.5155 0.0000
# 3 86.8153 21.7045 100.9991 0.0000 2.5716 0.0000
# 4 0.0000 0.0000 0.0000 183.6250 0.0000 159.9862
# 5 -1.1521 -0.5155 2.5716 0.0000 43.7117 0.0000
# 6 0.0000 0.0000 0.0000 159.9862 0.0000 134.6120
#
#
#
# Elastic Compliance Matrix: (Units=1/GPa)
#
#
# Indices 1 2 3 4 5 6 
#
# 1 0.006716 -0.003315 -0.005071 0.000000 0.000436 0.000000
# 2 -0.003315 0.016398 -0.000678 0.000000 0.000146 0.000000
# 3 -0.005071 -0.000678 0.014431 0.000000 -0.000991 0.000000
# 4 0.000000 0.000000 0.000000 -0.153414 0.000000 0.182332
# 5 0.000436 0.000146 -0.000991 0.000000 0.022949 0.000000
# 6 0.000000 0.000000 0.000000 0.182332 0.000000 -0.209272
#
#
# Mechanical properties :
#
#
# Convention : Reuss Voigt Hill
#
# Bulk Modulus (GPa) = 51.50337 81.68073 66.59205
# Shear Modulus (GPa) = -18.01212 89.25834 35.62311
#
# Velocity S-wave (km/s) = -3.00070 6.67981 4.21993
# Velocity P-wave (km/s) = 3.70685 10.01624 7.55201
#
# Compressibility (1/GPa) = 0.01941620
#
# Stress axis : x y z
#
# Youngs Moduli (GPa) = 148.90643 60.98120 69.29504
#
# Poissons Ratio (x) = 0.20216 0.35141
# Poissons Ratio (y) = 0.49365 0.04699
# Poissons Ratio (z) = 0.75513 0.04135
#
# Static dielectric constant tensor:
#      x y z
#    x 1.695340 0.000000 0.028200 
#    y 0.000000 1.730280 0.000000 
#    z 0.028200 0.000000 1.761850 
# 
# From -- ./inp_files/1838.got.cif
#   From: 2010.05.17/outbox.cif.g08.bks.cpg/sg15_1_cif.got.tgz:1838.got - 2010.06.03 18:47:42.
