data_PCOD9297294
_publ_section_title
;
Structure prediction by ZEFSAII (Michael W. Deem and Ramdas Pophale) SiO2 
 PCOD9297294
Probable space group: C 2/C
;
_chemical_formula_sum "Si O2"
_cell_formula_units_Z 36
_cell_length_a 13.392808
_cell_length_b 12.128549
_cell_length_c 15.775928
_cell_angle_alpha 90.000000
_cell_angle_beta 149.267149
_cell_angle_gamma 90.000000
_cell_volume 1309.564104
_symmetry_space_group_name_H-M "C 2/C"
_symmetry_group_IT_number 15
_symmetry_cell_setting 'monoclinic'
loop_
_space_group_symop_operation_xyz
x,y,z
-x,y,1/2-z
-x,-y,-z
x,-y,1/2+z
1/2+x,1/2+y,z
1/2-x,1/2+y,1/2-z
1/2-x,1/2-y,-z
1/2+x,1/2-y,1/2+z
loop_
_atom_site_type_symbol
_atom_site_label
_atom_site_fract_x
_atom_site_fract_y
_atom_site_fract_z
Si Si1 0.114540 0.391114 0.654870
Si Si2 0.600779 0.911753 0.239246
Si Si3 0.000000 0.195268 0.250000
Si Si4 0.657828 0.700516 0.018050
Si Si5 0.031425 0.038557 0.403279
O O1 0.028752 0.513239 0.610501
O O2 0.314025 0.415214 0.750944
O O3 0.964730 0.295298 0.522259
O O4 0.187936 0.344945 0.800905
O O5 0.500000 0.960601 0.250000
O O6 0.565171 0.782839 0.225461
O O7 0.833605 0.930107 0.418273
O O8 0.870398 0.109269 0.101814
O O9 0.539570 0.592218 0.900376
O O10 0.750000 0.750000 0.000000
#
# Coordination Sequence:
#
# PCOD9297294 Si02
#       5
#     8   8   4   8   8
#     4  11  24  42  69  97 132 176 221 271 334 393
#     4   9  20  41  65  86 125 175 208 257 340 388
#     4  10  24  38  66  90 134 162 228 260 328 386
#     4  11  24  44  70  98 137 174 221 274 337 400
#     4  11  24  41  66  96 133 169 224 273 330 388
#
# _framework density 27.490062000000002
#
# number of rings (size 3 to 8) (size 9 to 14) (size 15 to 20)
#    0.667    0.889    0.000    6.667    9.333    0.000 
#    0.000    1.111    0.000    0.000    0.000    0.000 
#    0.000    0.000    0.000    0.000    0.000    0.000 
#
# Total GULP energy -100626.455386 kJ/mol
# GULP energy per Si atom -5590.358633 kJ/mol
# Density = 2.742749 g / cm^3
# Si number density = 27.490062 Si / 1000 Ang^3
#
#
#
# Elastic Constant Matrix: (Units=GPa)
#
#
# Indices 1 2 3 4 5 6 
#
# 1 106.5948 52.4576 13.3130 0.0002 13.2201 -0.0001
# 2 52.4576 249.8006 30.0203 0.0005 26.0210 0.0002
# 3 13.3130 30.0203 79.9293 0.0010 10.3297 0.0006
# 4 0.0002 0.0005 0.0010 9.6889 0.0004 6.5758
# 5 13.2201 26.0210 10.3297 0.0004 44.7588 0.0001
# 6 -0.0001 0.0002 0.0006 6.5758 0.0001 55.7048
#
#
#
# Elastic Compliance Matrix: (Units=1/GPa)
#
#
# Indices 1 2 3 4 5 6 
#
# 1 0.010670 -0.001953 -0.000807 0.000000 -0.001830 0.000000
# 2 -0.001953 0.004758 -0.001215 0.000000 -0.001909 0.000000
# 3 -0.000807 -0.001215 0.013379 -0.000001 -0.002143 0.000000
# 4 0.000000 0.000000 -0.000001 0.112200 -0.000001 -0.013245
# 5 -0.001830 -0.001909 -0.002143 -0.000001 0.024487 0.000000
# 6 0.000000 0.000000 0.000000 -0.013245 0.000000 0.019515
#
#
# Mechanical properties :
#
#
# Convention : Reuss Voigt Hill
#
# Bulk Modulus (GPa) = 47.94681 69.76738 58.85710
# Shear Modulus (GPa) = 25.01094 44.73276 34.87185
#
# Velocity S-wave (km/s) = 3.01959 4.03828 3.56550
# Velocity P-wave (km/s) = 5.44395 6.86861 6.19735
#
# Compressibility (1/GPa) = 0.02085645
#
# Stress axis : x y z
#
# Youngs Moduli (GPa) = 93.71857 210.16266 74.74511
#
# Poissons Ratio (x) = 0.41047 0.06033
# Poissons Ratio (y) = 0.18304 0.09082
# Poissons Ratio (z) = 0.07565 0.25537
#
# Static dielectric constant tensor:
#      x y z
#    x 2.256170 0.000000 0.006990 
#    y 0.000000 2.126810 0.000000 
#    z 0.006990 0.000000 2.253380 
# 
# From -- ./inp_files/203375.got.cif
#   From: 2010.05.17/outbox.cif.g08.bks.cpg/sg15_102_cif.got.tgz:203375.got - 2010.06.03 18:47:42.
