data_PCOD9297192
_publ_section_title
;
Structure prediction by ZEFSAII (Michael W. Deem and Ramdas Pophale) SiO2 
 PCOD9297192
Probable space group: C 2/C
;
_chemical_formula_sum "Si O2"
_cell_formula_units_Z 44
_cell_length_a 15.905343
_cell_length_b 13.483347
_cell_length_c 9.651569
_cell_angle_alpha 90.000000
_cell_angle_beta 130.937284
_cell_angle_gamma 90.000000
_cell_volume 1563.620363
_symmetry_space_group_name_H-M "C 2/C"
_symmetry_group_IT_number 15
_symmetry_cell_setting 'monoclinic'
loop_
_space_group_symop_operation_xyz
x,y,z
-x,y,1/2-z
-x,-y,-z
x,-y,1/2+z
1/2+x,1/2+y,z
1/2-x,1/2+y,1/2-z
1/2-x,1/2-y,-z
1/2+x,1/2-y,1/2+z
loop_
_atom_site_type_symbol
_atom_site_label
_atom_site_fract_x
_atom_site_fract_y
_atom_site_fract_z
Si Si1 0.668429 0.454955 0.635606
Si Si2 0.687175 0.240274 0.786342
Si Si3 0.500000 0.538382 0.250000
Si Si4 0.596648 0.350614 0.119121
Si Si5 0.393531 0.975527 0.475194
Si Si6 0.000000 0.362735 0.250000
Si Si7 0.000000 0.703848 0.250000
O O1 0.671889 0.345073 0.694936
O O2 0.611255 0.532967 0.680426
O O3 0.530456 0.623978 0.404476
O O4 0.791413 0.498831 0.764955
O O5 0.781550 0.187426 0.794477
O O6 0.567754 0.191638 0.698867
O O7 0.750000 0.250000 0.000000
O O8 0.403395 0.465595 0.078531
O O9 0.551328 0.274352 0.185108
O O10 0.400747 0.066276 0.590097
O O11 0.500000 0.000000 0.500000
O O12 0.412978 0.872960 0.580779
#
# Coordination Sequence:
#
# PCOD9297192 Si02
#       7
#     8   8   4   8   8   4   4
#     4  10  23  53  92 136 197 256 320 400 488 572
#     4  12  25  50  95 140 191 256 324 397 495 576
#     4   8  24  55  93 136 200 258 306 398 482 586
#     4  10  25  54  92 145 193 255 324 397 487 580
#     4  11  23  48  89 142 195 253 328 413 480 574
#     4  11  26  46  88 145 188 251 329 397 497 574
#     4  11  26  47  93 149 204 249 325 409 491 578
#
# _framework density 28.139823
#
# number of rings (size 3 to 8) (size 9 to 14) (size 15 to 20)
#    1.091    0.364    1.818    2.182    0.000    3.636 
#    3.273    1.818    0.000   15.273    0.000    1.273 
#    0.000    0.182    0.000    0.000    0.000    0.000 
#
# Total GULP energy -122688.451089 kJ/mol
# GULP energy per Si atom -5576.747777 kJ/mol
# Density = 2.807578 g / cm^3
# Si number density = 28.139823 Si / 1000 Ang^3
#
#
#
# Elastic Constant Matrix: (Units=GPa)
#
#
# Indices 1 2 3 4 5 6 
#
# 1 153.8646 111.0653 97.9853 0.0000 12.6890 0.0000
# 2 111.0653 274.2227 111.4610 0.0000 -4.5376 0.0000
# 3 97.9853 111.4610 248.8440 0.0000 11.4000 0.0000
# 4 0.0000 0.0000 0.0000 91.0820 0.0000 -132.7677
# 5 12.6890 -4.5376 11.4000 0.0000 58.1213 0.0000
# 6 0.0000 0.0000 0.0000 -132.7677 0.0000 560.0452
#
#
#
# Elastic Compliance Matrix: (Units=1/GPa)
#
#
# Indices 1 2 3 4 5 6 
#
# 1 0.010751 -0.003310 -0.002656 0.000000 -0.002085 0.000000
# 2 -0.003310 0.005509 -0.001228 0.000000 0.001394 0.000000
# 3 -0.002656 -0.001228 0.005643 0.000000 -0.000623 0.000000
# 4 0.000000 0.000000 0.000000 0.016776 0.000000 0.003977
# 5 -0.002085 0.001394 -0.000623 0.000000 0.017892 0.000000
# 6 0.000000 0.000000 0.000000 0.003977 0.000000 0.002728
#
#
# Mechanical properties :
#
#
# Convention : Reuss Voigt Hill
#
# Bulk Modulus (GPa) = 133.03794 146.43938 139.73866
# Shear Modulus (GPa) = 65.62309 165.61103 115.61706
#
# Velocity S-wave (km/s) = 4.83436 7.67989 6.41684
# Velocity P-wave (km/s) = 8.86236 11.43651 10.23072
#
# Compressibility (1/GPa) = 0.00751665
#
# Stress axis : x y z
#
# Youngs Moduli (GPa) = 93.01267 181.50501 177.21092
#
# Poissons Ratio (x) = 0.60071 0.47058
# Poissons Ratio (y) = 0.30783 0.21769
# Poissons Ratio (z) = 0.24700 0.22297
#
# Static dielectric constant tensor:
#      x y z
#    x 6.851930 0.000000 -1.605630 
#    y 0.000000 2.387890 0.000000 
#    z -1.605630 0.000000 2.802250 
# 
# From -- ./inp_files/96617.got.cif
#   From: 2010.05.17/outbox.cif.g08.bks.cpg/sg15_49_cif.got.tgz:96617.got - 2010.06.03 18:47:42.
