data_PCOD9297992
_publ_section_title
;
Structure prediction by ZEFSAII (Michael W. Deem and Ramdas Pophale) SiO2 
 PCOD9297992
Probable space group: C 2/C
;
_chemical_formula_sum "Si O2"
_cell_formula_units_Z 48
_cell_length_a 8.833954
_cell_length_b 10.888532
_cell_length_c 26.198755
_cell_angle_alpha 90.000000
_cell_angle_beta 59.073281
_cell_angle_gamma 90.000000
_cell_volume 2161.742620
_symmetry_space_group_name_H-M "C 2/C"
_symmetry_group_IT_number 15
_symmetry_cell_setting 'monoclinic'
loop_
_space_group_symop_operation_xyz
x,y,z
-x,y,1/2-z
-x,-y,-z
x,-y,1/2+z
1/2+x,1/2+y,z
1/2-x,1/2+y,1/2-z
1/2-x,1/2-y,-z
1/2+x,1/2-y,1/2+z
loop_
_atom_site_type_symbol
_atom_site_label
_atom_site_fract_x
_atom_site_fract_y
_atom_site_fract_z
Si Si1 0.716590 0.652733 0.815944
Si Si2 0.941686 0.320226 0.178609
Si Si3 0.924955 0.455194 0.077687
Si Si4 0.554048 0.792045 0.579550
Si Si5 0.449890 0.438157 0.891949
Si Si6 0.548617 0.706439 0.470994
O O1 0.787501 0.679130 0.747215
O O2 0.607605 0.769626 0.855137
O O3 0.584919 0.539835 0.847462
O O4 0.885466 0.630179 0.822430
O O5 0.888719 0.404811 0.140577
O O6 0.001407 0.187326 0.146772
O O7 0.053764 0.570525 0.058783
O O8 0.744486 0.508125 0.084994
O O9 0.020572 0.340048 0.034205
O O10 0.528561 0.701025 0.535511
O O11 0.741261 0.775522 0.573731
O O12 0.477415 0.398857 0.946508
#
# Coordination Sequence:
#
# PCOD9297992 Si02
#       6
#     8   8   8   8   8   8
#     4  11  23  42  64  94 121 172 207 258 323 369
#     4  10  25  42  63  91 129 161 212 262 314 378
#     4  11  22  43  66  93 126 169 206 264 316 374
#     4  11  22  42  66  91 130 167 212 261 317 374
#     4  11  23  43  64  93 129 163 214 258 319 378
#     4  10  24  43  62  95 128 167 212 260 315 381
#
# _framework density 22.204311000000001
#
# number of rings (size 3 to 8) (size 9 to 14) (size 15 to 20)
#    0.000    1.333    3.333    1.500    2.333    2.000 
#    3.000    0.000    0.000    0.000    0.000    0.000 
#    0.000    0.000    0.000    0.000    0.000    0.000 
#
# Total GULP energy -134181.032767 kJ/mol
# GULP energy per Si atom -5590.876365 kJ/mol
# Density = 2.215377 g / cm^3
# Si number density = 22.204311 Si / 1000 Ang^3
#
#
#
# Elastic Constant Matrix: (Units=GPa)
#
#
# Indices 1 2 3 4 5 6 
#
# 1 45.5835 5.4485 20.7714 0.0000 14.3642 0.0000
# 2 5.4485 89.8636 -13.3014 0.0000 3.9084 0.0000
# 3 20.7714 -13.3014 85.6098 0.0000 5.8962 0.0000
# 4 0.0000 0.0000 0.0000 23.3656 0.0000 -6.4478
# 5 14.3642 3.9084 5.8962 0.0000 33.5821 0.0000
# 6 0.0000 0.0000 0.0000 -6.4478 0.0000 30.1065
#
#
#
# Elastic Compliance Matrix: (Units=1/GPa)
#
#
# Indices 1 2 3 4 5 6 
#
# 1 0.028595 -0.002231 -0.006539 0.000000 -0.010823 0.000000
# 2 -0.002231 0.011656 0.002409 0.000000 -0.000825 0.000000
# 3 -0.006539 0.002409 0.013633 0.000000 0.000123 0.000000
# 4 0.000000 0.000000 0.000000 0.045486 0.000000 0.009742
# 5 -0.010823 -0.000825 0.000123 0.000000 0.034482 0.000000
# 6 0.000000 0.000000 0.000000 0.009742 0.000000 0.035302
#
#
# Mechanical properties :
#
#
# Convention : Reuss Voigt Hill
#
# Bulk Modulus (GPa) = 24.29426 27.43264 25.86345
# Shear Modulus (GPa) = 25.56292 31.28675 28.42484
#
# Velocity S-wave (km/s) = 3.39670 3.75779 3.58180
# Velocity P-wave (km/s) = 5.13307 5.58654 5.36460
#
# Compressibility (1/GPa) = 0.04116199
#
# Stress axis : x y z
#
# Youngs Moduli (GPa) = 34.97147 85.79481 73.34968
#
# Poissons Ratio (x) = 0.19140 0.47964
# Poissons Ratio (y) = 0.07802 -0.17671
# Poissons Ratio (z) = 0.22868 -0.20669
#
# Static dielectric constant tensor:
#      x y z
#    x 1.795610 0.000000 0.035430 
#    y 0.000000 1.838580 0.000000 
#    z 0.035430 0.000000 1.809800 
# 
# From -- ./inp_files/263255.got.cif
#   From: 2010.05.17/outbox.cif.g08.bks.cpg/sg15_132_cif.got.tgz:263255.got - 2010.06.03 18:47:42.
