data_PCOD9297293
_publ_section_title
;
Structure prediction by ZEFSAII (Michael W. Deem and Ramdas Pophale) SiO2 
 PCOD9297293
Probable space group: C 2/C
;
_chemical_formula_sum "Si O2"
_cell_formula_units_Z 48
_cell_length_a 14.940775
_cell_length_b 19.629412
_cell_length_c 11.838515
_cell_angle_alpha 90.000000
_cell_angle_beta 142.380915
_cell_angle_gamma 90.000000
_cell_volume 2119.330072
_symmetry_space_group_name_H-M "C 2/C"
_symmetry_group_IT_number 15
_symmetry_cell_setting 'monoclinic'
loop_
_space_group_symop_operation_xyz
x,y,z
-x,y,1/2-z
-x,-y,-z
x,-y,1/2+z
1/2+x,1/2+y,z
1/2-x,1/2+y,1/2-z
1/2-x,1/2-y,-z
1/2+x,1/2-y,1/2+z
loop_
_atom_site_type_symbol
_atom_site_label
_atom_site_fract_x
_atom_site_fract_y
_atom_site_fract_z
Si Si1 0.750188 0.682433 0.847576
Si Si2 0.749823 0.980585 0.154722
Si Si3 0.000000 0.249992 0.250000
Si Si4 0.249891 0.708333 0.159206
Si Si5 0.500000 0.456034 0.250000
Si Si6 0.500000 0.749964 0.750000
Si Si7 0.500000 0.956085 0.750000
Si Si8 0.749873 0.410657 0.657884
O O1 0.750231 0.601232 0.833291
O O2 0.749959 0.720414 0.727326
O O3 0.609234 0.708092 0.777305
O O4 0.891268 0.708147 0.059035
O O5 0.893395 0.998218 0.225055
O O6 0.750045 0.019786 0.271268
O O7 0.606112 0.998272 0.938075
O O8 0.107197 0.293486 0.437387
O O9 0.107428 0.206495 0.277356
O O10 0.249936 0.650840 0.254786
O O11 0.608327 0.412493 0.436878
O O12 0.391196 0.912532 0.719409
#
# Coordination Sequence:
#
# PCOD9297293 Si02
#       8
#     8   8   4   8   4   4   4   8
#     4  11  24  39  69 100 140 178 223 278 346 405
#     4  11  24  44  68 102 139 182 226 286 341 410
#     4  10  26  52  62 104 134 182 234 280 328 426
#     4  11  26  46  72  94 141 179 235 275 345 399
#     4  10  25  45  67 106 142 167 238 280 345 407
#     4  10  24  38  66 108 140 172 214 292 346 400
#     4  10  25  45  67 106 142 167 238 280 345 407
#     4  11  26  47  72 101 138 185 224 288 341 406
#
# _framework density 22.648667
#
# number of rings (size 3 to 8) (size 9 to 14) (size 15 to 20)
#    0.000    1.333    0.000    3.000   18.667    1.333 
#   12.000    0.000    0.000    0.000    0.000    0.000 
#    0.000    0.000    0.000    0.000    0.000    0.000 
#
# Total GULP energy -134452.633168 kJ/mol
# GULP energy per Si atom -5602.193049 kJ/mol
# Density = 2.259712 g / cm^3
# Si number density = 22.648667 Si / 1000 Ang^3
#
#
#
# Elastic Constant Matrix: (Units=GPa)
#
#
# Indices 1 2 3 4 5 6 
#
# 1 143.3847 47.1916 119.9703 0.0000 1.3006 0.0000
# 2 47.1916 95.3088 42.9187 0.0000 -10.4514 0.0000
# 3 119.9703 42.9187 156.0230 0.0000 16.8404 0.0000
# 4 0.0000 0.0000 0.0000 27.4843 0.0000 -20.0908
# 5 1.3006 -10.4514 16.8404 0.0000 45.8212 0.0000
# 6 0.0000 0.0000 0.0000 -20.0908 0.0000 36.6737
#
#
#
# Elastic Compliance Matrix: (Units=1/GPa)
#
#
# Indices 1 2 3 4 5 6 
#
# 1 0.021402 -0.002786 -0.016198 0.000000 0.004710 0.000000
# 2 -0.002786 0.013129 -0.001875 0.000000 0.003763 0.000000
# 3 -0.016198 -0.001875 0.020177 0.000000 -0.007384 0.000000
# 4 0.000000 0.000000 0.000000 0.060687 0.000000 0.033246
# 5 0.004710 0.003763 -0.007384 0.000000 0.025262 0.000000
# 6 0.000000 0.000000 0.000000 0.033246 0.000000 0.045481
#
#
# Mechanical properties :
#
#
# Convention : Reuss Voigt Hill
#
# Bulk Modulus (GPa) = 76.99124 90.54196 83.76660
# Shear Modulus (GPa) = 21.53440 34.30490 27.91965
#
# Velocity S-wave (km/s) = 3.08685 3.89608 3.51483
# Velocity P-wave (km/s) = 6.83903 7.76548 7.31694
#
# Compressibility (1/GPa) = 0.01298849
#
# Stress axis : x y z
#
# Youngs Moduli (GPa) = 46.72524 76.16818 49.56018
#
# Poissons Ratio (x) = 0.21221 0.80279
# Poissons Ratio (y) = 0.13018 0.09294
# Poissons Ratio (z) = 0.75687 0.14284
#
# Static dielectric constant tensor:
#      x y z
#    x 1.859520 0.000000 0.067230 
#    y 0.000000 1.832830 0.000000 
#    z 0.067230 0.000000 1.890390 
# 
# From -- ./inp_files/100110.got.cif
#   From: 2010.05.17/outbox.cif.g08.bks.cpg/sg15_51_cif.got.tgz:100110.got - 2010.06.03 18:47:42.
