data_PCOD9297420
_publ_section_title
;
Structure prediction by ZEFSAII (Michael W. Deem and Ramdas Pophale) SiO2 
 PCOD9297420
Probable space group: C 2/C
;
_chemical_formula_sum "Si O2"
_cell_formula_units_Z 56
_cell_length_a 21.658142
_cell_length_b 16.462983
_cell_length_c 17.989251
_cell_angle_alpha 90.000000
_cell_angle_beta 26.428366
_cell_angle_gamma 90.000000
_cell_volume 2854.825029
_symmetry_space_group_name_H-M "C 2/C"
_symmetry_group_IT_number 15
_symmetry_cell_setting 'monoclinic'
loop_
_space_group_symop_operation_xyz
x,y,z
-x,y,1/2-z
-x,-y,-z
x,-y,1/2+z
1/2+x,1/2+y,z
1/2-x,1/2+y,1/2-z
1/2-x,1/2-y,-z
1/2+x,1/2-y,1/2+z
loop_
_atom_site_type_symbol
_atom_site_label
_atom_site_fract_x
_atom_site_fract_y
_atom_site_fract_z
Si Si1 0.214489 0.948835 0.647300
Si Si2 0.190110 0.834709 0.820051
Si Si3 0.565731 0.489563 0.010944
Si Si4 0.647202 0.070097 0.762690
Si Si5 0.656098 0.171751 0.609961
Si Si6 0.999894 0.679522 0.036256
Si Si7 0.031257 0.565352 0.128522
O O1 0.211701 0.886647 0.720610
O O2 0.276355 0.899493 0.511820
O O3 0.319566 0.023364 0.546912
O O4 0.059901 0.982752 0.801249
O O5 0.090927 0.757693 0.917756
O O6 0.340207 0.807930 0.687252
O O7 0.119466 0.897385 0.954238
O O8 0.500000 0.500000 0.000000
O O9 0.700257 0.545207 0.875657
O O10 0.652638 0.143013 0.698165
O O11 0.554755 0.102320 0.929773
O O12 0.577795 0.995107 0.794078
O O13 0.500000 0.185562 0.750000
O O14 0.750000 0.250000 0.500000
O O15 0.019147 0.651478 0.100514
O O16 0.000000 0.568385 0.250000
#
# Coordination Sequence:
#
# PCOD9297420 Si02
#       7
#     8   8   8   8   8   8   8
#     4  11  22  42  65  94 136 170 219 275 320 394
#     4  11  24  41  63 100 129 170 221 272 329 389
#     4  10  24  40  65  96 128 169 228 273 321 388
#     4  12  22  44  69  95 128 180 222 266 327 400
#     4  12  25  41  63 100 143 176 212 263 340 406
#     4  12  25  40  69  94 133 172 217 276 331 386
#     4  12  23  46  71  94 127 179 227 271 323 391
#
# _framework density 19.615914
#
# number of rings (size 3 to 8) (size 9 to 14) (size 15 to 20)
#    0.000    0.571    5.714    3.000    8.000    0.000 
#    0.000    0.714    3.143    0.000    0.000    0.000 
#    0.000    0.000    0.000    0.000    0.000    0.000 
#
# Total GULP energy -156534.135062 kJ/mol
# GULP energy per Si atom -5590.504824 kJ/mol
# Density = 1.957127 g / cm^3
# Si number density = 19.615914 Si / 1000 Ang^3
#
#
#
# Elastic Constant Matrix: (Units=GPa)
#
#
# Indices 1 2 3 4 5 6 
#
# 1 87.4880 32.7594 52.0651 0.0002 -12.5595 -0.0001
# 2 32.7594 61.3907 37.8929 0.0002 -5.2572 -0.0004
# 3 52.0651 37.8929 128.1311 0.0003 -26.3444 -0.0005
# 4 0.0002 0.0002 0.0003 37.0844 -0.0001 -6.3474
# 5 -12.5595 -5.2572 -26.3444 -0.0001 45.2903 0.0002
# 6 -0.0001 -0.0004 -0.0005 -6.3474 0.0002 21.1896
#
#
#
# Elastic Compliance Matrix: (Units=1/GPa)
#
#
# Indices 1 2 3 4 5 6 
#
# 1 0.016629 -0.005811 -0.004804 0.000000 0.001143 0.000000
# 2 -0.005811 0.022021 -0.004495 0.000000 -0.001670 0.000000
# 3 -0.004804 -0.004495 0.012159 0.000000 0.005219 0.000000
# 4 0.000000 0.000000 0.000000 0.028423 0.000000 0.008514
# 5 0.001143 -0.001670 0.005219 0.000000 0.025238 0.000000
# 6 0.000000 0.000000 0.000000 0.008514 0.000000 0.049743
#
#
# Mechanical properties :
#
#
# Convention : Reuss Voigt Hill
#
# Bulk Modulus (GPa) = 48.56551 58.04941 53.30746
# Shear Modulus (GPa) = 26.13780 30.99901 28.56841
#
# Velocity S-wave (km/s) = 3.65427 3.97961 3.82041
# Velocity P-wave (km/s) = 6.52816 7.12556 6.83340
#
# Compressibility (1/GPa) = 0.02059074
#
# Stress axis : x y z
#
# Youngs Moduli (GPa) = 60.13746 45.41111 82.24649
#
# Poissons Ratio (x) = 0.26386 0.39508
# Poissons Ratio (y) = 0.34943 0.36966
# Poissons Ratio (z) = 0.28887 0.20410
#
# Static dielectric constant tensor:
#      x y z
#    x 1.662280 0.000000 -0.005270 
#    y 0.000000 1.694780 0.000000 
#    z -0.005270 0.000000 1.681230 
# 
# From -- ./inp_files/49169.got.cif
#   From: 2010.05.17/outbox.cif.g08.bks.cpg/sg15_25_cif.got.tgz:49169.got - 2010.06.03 18:47:42.
