data_PCOD9297541
_publ_section_title
;
Structure prediction by ZEFSAII (Michael W. Deem and Ramdas Pophale) SiO2 
 PCOD9297541
Probable space group: C 2/C
;
_chemical_formula_sum "Si O2"
_cell_formula_units_Z 48
_cell_length_a 16.813029
_cell_length_b 8.258202
_cell_length_c 31.052281
_cell_angle_alpha 90.000000
_cell_angle_beta 33.189874
_cell_angle_gamma 90.000000
_cell_volume 2360.162622
_symmetry_space_group_name_H-M "C 2/C"
_symmetry_group_IT_number 15
_symmetry_cell_setting 'monoclinic'
loop_
_space_group_symop_operation_xyz
x,y,z
-x,y,1/2-z
-x,-y,-z
x,-y,1/2+z
1/2+x,1/2+y,z
1/2-x,1/2+y,1/2-z
1/2-x,1/2-y,-z
1/2+x,1/2-y,1/2+z
loop_
_atom_site_type_symbol
_atom_site_label
_atom_site_fract_x
_atom_site_fract_y
_atom_site_fract_z
Si Si1 0.368221 0.785103 0.649438
Si Si2 0.146920 0.183105 0.083880
Si Si3 0.860828 0.186226 0.082501
Si Si4 0.301804 0.155778 0.519439
Si Si5 0.312041 0.309009 0.084482
Si Si6 0.659801 0.596531 0.314701
O O1 0.526144 0.856644 0.567468
O O2 0.285807 0.783908 0.640950
O O3 0.374881 0.593215 0.659532
O O4 0.289555 0.882938 0.722383
O O5 0.182345 0.286362 0.110102
O O6 0.982907 0.173496 0.142371
O O7 0.250000 0.250000 0.000000
O O8 0.208579 0.005115 0.064374
O O9 0.806548 0.193350 0.156229
O O10 0.842183 0.995926 0.080932
O O11 0.790216 0.266133 0.072345
O O12 0.030362 0.242165 0.006217
O O13 0.250000 0.250000 0.500000
#
# Coordination Sequence:
#
# PCOD9297541 Si02
#       6
#     8   8   8   8   8   8
#     4  10  24  41  63  89 130 165 203 255 321 367
#     4  12  23  37  66  96 120 157 217 261 300 366
#     4   9  19  40  63  84 125 164 207 244 313 371
#     4  11  22  41  66  93 119 163 214 260 300 369
#     4   9  19  38  62  91 120 165 202 254 302 373
#     4  11  23  42  62  92 126 167 202 259 315 368
#
# _framework density 20.337582000000001
#
# number of rings (size 3 to 8) (size 9 to 14) (size 15 to 20)
#    0.000    1.667    3.333    2.000    2.333    4.667 
#    0.000    0.833    0.000    0.000    0.000    0.000 
#    0.000    0.000    0.000    0.000    0.000    0.000 
#
# Total GULP energy -133872.786490 kJ/mol
# GULP energy per Si atom -5578.032770 kJ/mol
# Density = 2.029129 g / cm^3
# Si number density = 20.337582 Si / 1000 Ang^3
#
#
#
# Elastic Constant Matrix: (Units=GPa)
#
#
# Indices 1 2 3 4 5 6 
#
# 1 131.3441 11.0638 29.4442 -0.0007 18.4190 -0.0042
# 2 11.0638 18.0753 7.8762 -0.0016 3.8913 -0.0065
# 3 29.4442 7.8762 75.2581 0.0009 25.0493 -0.0004
# 4 -0.0007 -0.0016 0.0009 22.5064 0.0002 5.2759
# 5 18.4190 3.8913 25.0493 0.0002 28.1481 -0.0006
# 6 -0.0042 -0.0065 -0.0004 5.2759 -0.0006 38.1438
#
#
#
# Elastic Compliance Matrix: (Units=1/GPa)
#
#
# Indices 1 2 3 4 5 6 
#
# 1 0.008861 -0.003834 -0.001864 0.000000 -0.003609 0.000000
# 2 -0.003834 0.059902 -0.004046 0.000002 -0.002171 0.000009
# 3 -0.001864 -0.004046 0.019676 -0.000001 -0.015731 -0.000001
# 4 0.000000 0.000002 -0.000001 0.045921 0.000000 -0.006352
# 5 -0.003609 -0.002171 -0.015731 0.000000 0.052187 0.000000
# 6 0.000000 0.000009 -0.000001 -0.006352 0.000000 0.027095
#
#
# Mechanical properties :
#
#
# Convention : Reuss Voigt Hill
#
# Bulk Modulus (GPa) = 14.50340 35.71623 25.10982
# Shear Modulus (GPa) = 19.52253 29.51254 24.51753
#
# Velocity S-wave (km/s) = 3.10162 3.81351 3.47584
# Velocity P-wave (km/s) = 4.46918 6.08196 5.33685
#
# Compressibility (1/GPa) = 0.06894934
#
# Stress axis : x y z
#
# Youngs Moduli (GPa) = 112.85953 16.69402 50.82224
#
# Poissons Ratio (x) = 0.06401 0.09474
# Poissons Ratio (y) = 0.43274 0.20564
# Poissons Ratio (z) = 0.21038 0.06755
#
# Static dielectric constant tensor:
#      x y z
#    x 1.812170 -0.000010 0.026540 
#    y -0.000010 1.797860 0.000000 
#    z 0.026540 0.000000 1.696320 
# 
# From -- ./inp_files/209300.got.cif
#   From: 2010.05.17/outbox.cif.g08.bks.cpg/sg15_105_cif.got.tgz:209300.got - 2010.06.03 18:47:42.
