data_PCOD9297186
_publ_section_title
;
Structure prediction by ZEFSAII (Michael W. Deem and Ramdas Pophale) SiO2 
 PCOD9297186
Probable space group: C 2/C
;
_chemical_formula_sum "Si O2"
_cell_formula_units_Z 44
_cell_length_a 16.940205
_cell_length_b 17.849561
_cell_length_c 5.099829
_cell_angle_alpha 90.000000
_cell_angle_beta 113.630933
_cell_angle_gamma 90.000000
_cell_volume 1412.754569
_symmetry_space_group_name_H-M "C 2/C"
_symmetry_group_IT_number 15
_symmetry_cell_setting 'monoclinic'
loop_
_space_group_symop_operation_xyz
x,y,z
-x,y,1/2-z
-x,-y,-z
x,-y,1/2+z
1/2+x,1/2+y,z
1/2-x,1/2+y,1/2-z
1/2-x,1/2-y,-z
1/2+x,1/2-y,1/2+z
loop_
_atom_site_type_symbol
_atom_site_label
_atom_site_fract_x
_atom_site_fract_y
_atom_site_fract_z
Si Si1 0.821082 0.288687 0.404601
Si Si2 0.042169 0.416900 0.546222
Si Si3 0.881322 0.833960 0.673019
Si Si4 0.872619 0.036331 0.743413
Si Si5 0.775445 0.578163 0.474321
Si Si6 0.000000 0.225580 0.750000
O O1 0.750000 0.250000 0.500000
O O2 0.657641 0.250751 0.850628
O O3 0.910096 0.269430 0.679639
O O4 0.804476 0.373658 0.275351
O O5 0.141019 0.426464 0.597295
O O6 0.000000 0.372799 0.250000
O O7 0.000000 0.500000 0.500000
O O8 0.000000 0.386745 0.750000
O O9 0.875754 0.885003 0.404201
O O10 0.804093 0.872885 0.741780
O O11 0.032093 0.823653 0.541713
O O12 0.776804 0.999715 0.554284
O O13 0.914112 0.019238 0.517946
#
# Coordination Sequence:
#
# PCOD9297186 Si02
#       6
#     8   8   8   8   8   4
#     4  10  23  50  90 135 182 254 328 414 501 591
#     4  10  25  44  71 117 182 242 302 383 462 577
#     4   9  22  46  81 122 176 243 304 399 475 575
#     4  10  24  44  81 125 170 240 301 380 476 584
#     4  11  24  46  82 126 180 244 329 392 492 589
#     4   8  22  50  84 122 190 234 316 398 486 584
#
# _framework density 31.144826999999999
#
# number of rings (size 3 to 8) (size 9 to 14) (size 15 to 20)
#    1.091    1.091    0.000    0.545   10.182    7.273 
#    4.909    5.455    0.000    1.091    0.000    1.273 
#    0.000    0.000    0.000    0.000    0.000    0.000 
#
# Total GULP energy -122552.042031 kJ/mol
# GULP energy per Si atom -5570.547365 kJ/mol
# Density = 3.107394 g / cm^3
# Si number density = 31.144827 Si / 1000 Ang^3
#
#
#
# Elastic Constant Matrix: (Units=GPa)
#
#
# Indices 1 2 3 4 5 6 
#
# 1 285.3233 75.4257 97.2995 0.0000 35.6033 0.0000
# 2 75.4257 161.2560 38.8701 0.0000 4.8269 0.0000
# 3 97.2995 38.8701 232.7633 0.0000 -7.2663 0.0000
# 4 0.0000 0.0000 0.0000 53.5162 0.0000 29.8296
# 5 35.6033 4.8269 -7.2663 0.0000 81.1709 0.0000
# 6 0.0000 0.0000 0.0000 29.8296 0.0000 -4.8241
#
#
#
# Elastic Compliance Matrix: (Units=1/GPa)
#
#
# Indices 1 2 3 4 5 6 
#
# 1 0.004862 -0.001774 -0.001805 0.000000 -0.002189 0.000000
# 2 -0.001774 0.007127 -0.000439 0.000000 0.000315 0.000000
# 3 -0.001805 -0.000439 0.005164 0.000000 0.001280 0.000000
# 4 0.000000 0.000000 0.000000 0.004202 0.000000 0.025985
# 5 -0.002189 0.000315 0.001280 0.000000 0.013376 0.000000
# 6 0.000000 0.000000 0.000000 0.025985 0.000000 -0.046618
#
#
# Mechanical properties :
#
#
# Convention : Reuss Voigt Hill
#
# Bulk Modulus (GPa) = 109.66363 122.50370 116.08366
# Shear Modulus (GPa) = -6152.90805 57.15574 -3047.87615
#
# Velocity S-wave (km/s) = -44.49571 4.28852 -31.31674
# Velocity P-wave (km/s) = 51.03467 7.99630 35.64124
#
# Compressibility (1/GPa) = 0.00911879
#
# Stress axis : x y z
#
# Youngs Moduli (GPa) = 205.66815 140.30481 193.65470
#
# Poissons Ratio (x) = 0.24886 0.34947
# Poissons Ratio (y) = 0.36480 0.08500
# Poissons Ratio (z) = 0.37115 0.06159
#
# Static dielectric constant tensor:
#      x y z
#    x 2.616990 0.000000 -0.205720 
#    y 0.000000 1.548330 0.000000 
#    z -0.205720 0.000000 3.139500 
# 
# From -- ./inp_files/7637.got.cif
#   From: 2010.05.17/outbox.cif.g08.bks.cpg/sg15_4_cif.got.tgz:7637.got - 2010.06.03 18:47:42.
