data_PCOD9297711
_publ_section_title
;
Structure prediction by ZEFSAII (Michael W. Deem and Ramdas Pophale) SiO2 
 PCOD9297711
Probable space group: C 2/C
;
_chemical_formula_sum "Si O2"
_cell_formula_units_Z 40
_cell_length_a 21.608395
_cell_length_b 8.336218
_cell_length_c 13.485253
_cell_angle_alpha 90.000000
_cell_angle_beta 44.927838
_cell_angle_gamma 90.000000
_cell_volume 1715.489272
_symmetry_space_group_name_H-M "C 2/C"
_symmetry_group_IT_number 15
_symmetry_cell_setting 'monoclinic'
loop_
_space_group_symop_operation_xyz
x,y,z
-x,y,1/2-z
-x,-y,-z
x,-y,1/2+z
1/2+x,1/2+y,z
1/2-x,1/2+y,1/2-z
1/2-x,1/2-y,-z
1/2+x,1/2-y,1/2+z
loop_
_atom_site_type_symbol
_atom_site_label
_atom_site_fract_x
_atom_site_fract_y
_atom_site_fract_z
Si Si1 0.141870 0.089639 0.338378
Si Si2 0.472452 0.378538 0.171355
Si Si3 0.261017 0.371940 0.117411
Si Si4 0.000293 0.525060 0.384113
Si Si5 0.632716 0.102815 0.598762
O O1 0.056971 0.121892 0.503022
O O2 0.192068 0.244613 0.240998
O O3 0.208242 0.992529 0.333578
O O4 0.103939 0.981786 0.291730
O O5 0.500000 0.431556 0.250000
O O6 0.450763 0.189234 0.199051
O O7 0.215773 0.447183 0.071074
O O8 0.341693 0.265573 0.985639
O O9 0.904667 0.515759 0.442940
O O10 0.000000 0.500000 0.500000
O O11 0.055295 0.386172 0.267530
#
# Coordination Sequence:
#
# PCOD9297711 Si02
#       5
#     8   8   8   8   8
#     4  11  28  46  72 101 150 178 242 285 356 416
#     4  11  25  46  68 103 135 188 231 291 339 421
#     4  11  26  46  69 106 142 189 222 302 351 410
#     4  11  22  43  73  99 135 186 233 280 342 432
#     4  10  24  42  65 107 139 174 237 284 353 407
#
# _framework density 23.316963999999999
#
# number of rings (size 3 to 8) (size 9 to 14) (size 15 to 20)
#    0.000    1.200    2.000    2.400   14.000    4.800 
#    0.000    3.000    0.000    0.000    0.000    0.000 
#    0.000    0.000    0.000    0.000    0.000    0.000 
#
# Total GULP energy -111864.345476 kJ/mol
# GULP energy per Si atom -5593.217274 kJ/mol
# Density = 2.326389 g / cm^3
# Si number density = 23.316964 Si / 1000 Ang^3
#
#
#
# Elastic Constant Matrix: (Units=GPa)
#
#
# Indices 1 2 3 4 5 6 
#
# 1 148.4868 50.9375 24.8326 0.0010 37.4546 -0.0005
# 2 50.9375 58.3772 14.6115 0.0009 -4.4877 -0.0006
# 3 24.8326 14.6115 98.5547 0.0010 13.6228 -0.0005
# 4 0.0010 0.0009 0.0010 26.7225 -0.0002 -2.5986
# 5 37.4546 -4.4877 13.6228 -0.0002 41.5042 0.0001
# 6 -0.0005 -0.0006 -0.0005 -2.5986 0.0001 46.5947
#
#
#
# Elastic Compliance Matrix: (Units=1/GPa)
#
#
# Indices 1 2 3 4 5 6 
#
# 1 0.016032 -0.015364 0.000490 0.000000 -0.016290 0.000000
# 2 -0.015364 0.032858 -0.003570 0.000000 0.018589 0.000000
# 3 0.000490 -0.003570 0.011174 0.000000 -0.004496 0.000000
# 4 0.000000 0.000000 0.000000 0.037626 0.000001 0.002098
# 5 -0.016290 0.018589 -0.004496 0.000001 0.042280 0.000000
# 6 0.000000 0.000000 0.000000 0.002098 0.000000 0.021579
#
#
# Mechanical properties :
#
#
# Convention : Reuss Voigt Hill
#
# Bulk Modulus (GPa) = 43.14652 54.02020 48.58336
# Shear Modulus (GPa) = 24.25278 37.30009 30.77643
#
# Velocity S-wave (km/s) = 3.22861 4.00396 3.63701
# Velocity P-wave (km/s) = 5.69588 6.67785 6.20632
#
# Compressibility (1/GPa) = 0.02317684
#
# Stress axis : x y z
#
# Youngs Moduli (GPa) = 62.37467 30.43364 89.49447
#
# Poissons Ratio (x) = 0.46758 -0.04384
# Poissons Ratio (y) = 0.95832 0.31948
# Poissons Ratio (z) = -0.03056 0.10864
#
# Static dielectric constant tensor:
#      x y z
#    x 1.890670 0.000000 -0.034140 
#    y 0.000000 1.892110 0.000000 
#    z -0.034140 0.000000 1.904020 
# 
# From -- ./inp_files/166024.got.cif
#   From: 2010.05.17/outbox.cif.g08.bks.cpg/sg15_84_cif.got.tgz:166024.got - 2010.06.03 18:47:42.
