data_PCOD9297127
_publ_section_title
;
Structure prediction by ZEFSAII (Michael W. Deem and Ramdas Pophale) SiO2 
 PCOD9297127
Probable space group: C 2/C
;
_chemical_formula_sum "Si O2"
_cell_formula_units_Z 24
_cell_length_a 11.785520
_cell_length_b 10.188461
_cell_length_c 8.975051
_cell_angle_alpha 90.000000
_cell_angle_beta 62.082799
_cell_angle_gamma 90.000000
_cell_volume 952.274842
_symmetry_space_group_name_H-M "C 2/C"
_symmetry_group_IT_number 15
_symmetry_cell_setting 'monoclinic'
loop_
_space_group_symop_operation_xyz
x,y,z
-x,y,1/2-z
-x,-y,-z
x,-y,1/2+z
1/2+x,1/2+y,z
1/2-x,1/2+y,1/2-z
1/2-x,1/2-y,-z
1/2+x,1/2-y,1/2+z
loop_
_atom_site_type_symbol
_atom_site_label
_atom_site_fract_x
_atom_site_fract_y
_atom_site_fract_z
Si Si1 0.341860 0.925187 0.438501
Si Si2 0.575564 0.169372 0.935657
Si Si3 0.909525 0.068188 0.937650
O O1 0.360098 0.884532 0.255942
O O2 0.423697 0.820858 0.485632
O O3 0.409445 0.061317 0.445527
O O4 0.194872 0.963923 0.555647
O O5 0.641453 0.302828 0.947582
O O6 0.000000 0.116409 0.750000
O O7 0.000000 0.000000 0.000000
#
# Coordination Sequence:
#
# PCOD9297127 Si02
#       3
#     8   8   8
#     4  10  23  48  73 105 142 197 246 291 372 434
#     4  10  24  47  78 102 148 195 247 301 367 438
#     4  12  28  47  72 113 151 189 242 309 372 435
#
# _framework density 25.202808999999998
#
# number of rings (size 3 to 8) (size 9 to 14) (size 15 to 20)
#    0.000    1.333    0.000    3.000   14.000    1.333 
#    6.000    0.000    0.000    0.000    0.000    0.000 
#    0.000    0.000    0.000    0.000    0.000    0.000 
#
# Total GULP energy -67105.770935 kJ/mol
# GULP energy per Si atom -5592.147578 kJ/mol
# Density = 2.514545 g / cm^3
# Si number density = 25.202809 Si / 1000 Ang^3
#
#
#
# Elastic Constant Matrix: (Units=GPa)
#
#
# Indices 1 2 3 4 5 6 
#
# 1 128.4456 5.1121 8.8233 0.0000 -2.7886 0.0000
# 2 5.1121 80.5487 17.1312 0.0000 12.2011 0.0000
# 3 8.8233 17.1312 104.0474 0.0000 16.7762 0.0000
# 4 0.0000 0.0000 0.0000 28.7229 0.0000 2.9729
# 5 -2.7886 12.2011 16.7762 0.0000 31.6464 0.0000
# 6 0.0000 0.0000 0.0000 2.9729 0.0000 19.5771
#
#
#
# Elastic Compliance Matrix: (Units=1/GPa)
#
#
# Indices 1 2 3 4 5 6 
#
# 1 0.007890 -0.000532 -0.000795 0.000000 0.001322 0.000000
# 2 -0.000532 0.013432 -0.001448 0.000000 -0.004458 0.000000
# 3 -0.000795 -0.001448 0.010758 0.000000 -0.005215 0.000000
# 4 0.000000 0.000000 0.000000 0.035371 0.000000 -0.005371
# 5 0.001322 -0.004458 -0.005215 0.000000 0.036199 0.000000
# 6 0.000000 0.000000 0.000000 -0.005371 0.000000 0.051896
#
#
# Mechanical properties :
#
#
# Convention : Reuss Voigt Hill
#
# Bulk Modulus (GPa) = 37.69186 41.68607 39.68897
# Shear Modulus (GPa) = 29.42269 34.78761 32.10515
#
# Velocity S-wave (km/s) = 3.42048 3.71928 3.57301
# Velocity P-wave (km/s) = 5.53060 5.91779 5.72746
#
# Compressibility (1/GPa) = 0.02653093
#
# Stress axis : x y z
#
# Youngs Moduli (GPa) = 126.74525 74.45033 92.95830
#
# Poissons Ratio (x) = 0.03960 0.07386
# Poissons Ratio (y) = 0.06742 0.13457
# Poissons Ratio (z) = 0.10071 0.10778
#
# Static dielectric constant tensor:
#      x y z
#    x 2.141260 0.000000 -0.315190 
#    y 0.000000 1.983990 0.000000 
#    z -0.315190 0.000000 2.691050 
# 
# From -- ./inp_files/26819.got.cif
#   From: 2010.05.17/outbox.cif.g08.bks.cpg/sg15_14_cif.got.tgz:26819.got - 2010.06.03 18:47:42.
