data_PCOD9297650
_publ_section_title
;
Structure prediction by ZEFSAII (Michael W. Deem and Ramdas Pophale) SiO2 
 PCOD9297650
Probable space group: C 2/C
;
_chemical_formula_sum "Si O2"
_cell_formula_units_Z 60
_cell_length_a 27.038799
_cell_length_b 13.843364
_cell_length_c 9.293757
_cell_angle_alpha 90.000000
_cell_angle_beta 55.052970
_cell_angle_gamma 90.000000
_cell_volume 2851.449792
_symmetry_space_group_name_H-M "C 2/C"
_symmetry_group_IT_number 15
_symmetry_cell_setting 'monoclinic'
loop_
_space_group_symop_operation_xyz
x,y,z
-x,y,1/2-z
-x,-y,-z
x,-y,1/2+z
1/2+x,1/2+y,z
1/2-x,1/2+y,1/2-z
1/2-x,1/2-y,-z
1/2+x,1/2-y,1/2+z
loop_
_atom_site_type_symbol
_atom_site_label
_atom_site_fract_x
_atom_site_fract_y
_atom_site_fract_z
Si Si1 0.466750 0.365862 0.055580
Si Si2 0.169174 0.389320 0.219728
Si Si3 0.191139 0.116972 0.966995
Si Si4 0.103120 0.200008 0.345731
Si Si5 0.816541 0.100464 0.068224
Si Si6 0.183496 0.414203 0.867550
Si Si7 0.500000 0.492142 0.750000
Si Si8 0.340535 0.279493 0.265180
O O1 0.467208 0.441660 0.186629
O O2 0.411790 0.294567 0.168111
O O3 0.532406 0.316232 0.942788
O O4 0.459454 0.423492 0.917920
O O5 0.124242 0.307325 0.352050
O O6 0.166158 0.487009 0.317020
O O7 0.239433 0.357103 0.114285
O O8 0.156435 0.406733 0.071883
O O9 0.142828 0.176548 0.138916
O O10 0.181523 0.143725 0.817046
O O11 0.179329 0.003584 0.013863
O O12 0.127502 0.125753 0.424440
O O13 0.756099 0.090725 0.262676
O O14 0.810099 0.187256 0.964520
O O15 0.169211 0.325112 0.786188
#
# Coordination Sequence:
#
# PCOD9297650 Si02
#       8
#     8   8   8   8   8   8   4   8
#     4  11  26  40  64  94 129 174 210 250 312 380
#     4  11  25  45  67  92 125 166 218 271 321 371
#     4  11  23  40  64  96 130 168 208 261 317 390
#     4  12  23  42  67  91 132 171 214 257 318 375
#     4  11  25  37  67 100 129 170 206 262 321 387
#     4  11  25  46  65  94 124 167 218 272 319 370
#     4  10  24  42  60  88 138 166 212 248 300 372
#     4  12  25  41  65  95 136 167 216 259 313 378
#
# _framework density 21.041926
#
# number of rings (size 3 to 8) (size 9 to 14) (size 15 to 20)
#    0.000    0.800    2.667    4.000   18.667    0.000 
#    0.000    0.667    0.000    0.000    0.000    0.000 
#    0.000    0.000    0.000    0.000    0.000    0.000 
#
# Total GULP energy -167873.879573 kJ/mol
# GULP energy per Si atom -5595.795986 kJ/mol
# Density = 2.099403 g / cm^3
# Si number density = 21.041926 Si / 1000 Ang^3
#
#
#
# Elastic Constant Matrix: (Units=GPa)
#
#
# Indices 1 2 3 4 5 6 
#
# 1 78.6742 42.1476 10.1197 0.0000 -8.1488 0.0000
# 2 42.1476 98.6833 10.5443 0.0000 -15.9090 0.0000
# 3 10.1197 10.5443 61.5707 0.0000 7.1154 0.0000
# 4 0.0000 0.0000 0.0000 25.1409 0.0000 7.2882
# 5 -8.1488 -15.9090 7.1154 0.0000 31.0995 0.0000
# 6 0.0000 0.0000 0.0000 7.2882 0.0000 22.9918
#
#
#
# Elastic Compliance Matrix: (Units=1/GPa)
#
#
# Indices 1 2 3 4 5 6 
#
# 1 0.016673 -0.006720 -0.001743 0.000000 0.001330 0.000000
# 2 -0.006720 0.014178 -0.002011 0.000000 0.005952 0.000000
# 3 -0.001743 -0.002011 0.017507 0.000000 -0.005491 0.000000
# 4 0.000000 0.000000 0.000000 0.043801 0.000000 -0.013884
# 5 0.001330 0.005952 -0.005491 0.000000 0.036804 0.000000
# 6 0.000000 0.000000 0.000000 -0.013884 0.000000 0.047895
#
#
# Mechanical properties :
#
#
# Convention : Reuss Voigt Hill
#
# Bulk Modulus (GPa) = 36.48523 40.50571 38.49547
# Shear Modulus (GPa) = 24.16110 27.58754 25.87432
#
# Velocity S-wave (km/s) = 3.39224 3.62481 3.51045
# Velocity P-wave (km/s) = 5.72014 6.06719 5.89622
#
# Compressibility (1/GPa) = 0.02740835
#
# Stress axis : x y z
#
# Youngs Moduli (GPa) = 59.97785 70.53091 57.11988
#
# Poissons Ratio (x) = 0.47399 0.09956
# Poissons Ratio (y) = 0.40307 0.11489
# Poissons Ratio (z) = 0.10455 0.14187
#
# Static dielectric constant tensor:
#      x y z
#    x 1.748730 0.000000 0.009210 
#    y 0.000000 1.749710 0.000000 
#    z 0.009210 0.000000 1.758760 
# 
# From -- ./inp_files/61876.got.cif
#   From: 2010.05.17/outbox.cif.g08.bks.cpg/sg15_31_cif.got.tgz:61876.got - 2010.06.03 18:47:42.
