data_PCOD9297689
_publ_section_title
;
Structure prediction by ZEFSAII (Michael W. Deem and Ramdas Pophale) SiO2 
 PCOD9297689
Probable space group: C 2/C
;
_chemical_formula_sum "Si O2"
_cell_formula_units_Z 44
_cell_length_a 7.790995
_cell_length_b 11.299691
_cell_length_c 26.668919
_cell_angle_alpha 90.000000
_cell_angle_beta 106.967340
_cell_angle_gamma 90.000000
_cell_volume 2245.622909
_symmetry_space_group_name_H-M "C 2/C"
_symmetry_group_IT_number 15
_symmetry_cell_setting 'monoclinic'
loop_
_space_group_symop_operation_xyz
x,y,z
-x,y,1/2-z
-x,-y,-z
x,-y,1/2+z
1/2+x,1/2+y,z
1/2-x,1/2+y,1/2-z
1/2-x,1/2-y,-z
1/2+x,1/2-y,1/2+z
loop_
_atom_site_type_symbol
_atom_site_label
_atom_site_fract_x
_atom_site_fract_y
_atom_site_fract_z
Si Si1 0.626299 0.067713 0.839784
Si Si2 0.000000 0.762276 0.750000
Si Si3 0.487495 0.439812 0.075112
Si Si4 0.679009 0.176502 0.289631
Si Si5 0.672141 0.148309 0.613194
Si Si6 0.449051 0.306090 0.518392
O O1 0.589961 0.178007 0.799801
O O2 0.817609 0.071145 0.883303
O O3 0.471363 0.070640 0.868542
O O4 0.623633 0.949334 0.807103
O O5 0.840704 0.833430 0.763431
O O6 0.335918 0.422072 0.103556
O O7 0.455990 0.568293 0.047911
O O8 0.481903 0.339890 0.031185
O O9 0.500000 0.231095 0.250000
O O10 0.750941 0.256937 0.340846
O O11 0.572124 0.216014 0.559675
O O12 0.250000 0.250000 0.500000
#
# Coordination Sequence:
#
# PCOD9297689 Si02
#       6
#     8   4   8   8   8   8
#     4  11  22  43  63  94 125 159 215 255 304 382
#     4  10  24  42  64  90 126 160 204 264 308 364
#     4  11  24  41  65  91 127 167 206 256 313 367
#     4  11  23  43  66  92 126 163 207 257 314 371
#     4  11  24  42  66  93 124 168 207 257 315 364
#     4  11  23  43  63  93 130 163 211 259 302 374
#
# _framework density 19.593672999999999
#
# number of rings (size 3 to 8) (size 9 to 14) (size 15 to 20)
#    0.000    1.091    4.545    1.636    0.000    3.636 
#    1.636    0.000    0.000    0.000    0.000    0.000 
#    0.000    0.000    0.000    0.000    0.000    0.000 
#
# Total GULP energy -122972.729027 kJ/mol
# GULP energy per Si atom -5589.669501 kJ/mol
# Density = 1.954908 g / cm^3
# Si number density = 19.593673 Si / 1000 Ang^3
#
#
#
# Elastic Constant Matrix: (Units=GPa)
#
#
# Indices 1 2 3 4 5 6 
#
# 1 174.6401 46.3718 66.2141 0.0000 -13.3050 0.0000
# 2 46.3718 51.6014 16.5231 0.0000 -8.7658 0.0000
# 3 66.2141 16.5231 102.9450 0.0000 7.4426 0.0000
# 4 0.0000 0.0000 0.0000 6.1169 0.0000 -16.0900
# 5 -13.3050 -8.7658 7.4426 0.0000 47.7845 0.0000
# 6 0.0000 0.0000 0.0000 -16.0900 0.0000 15.9796
#
#
#
# Elastic Compliance Matrix: (Units=1/GPa)
#
#
# Indices 1 2 3 4 5 6 
#
# 1 0.009675 -0.006594 -0.005332 0.000000 0.002315 0.000000
# 2 -0.006594 0.025839 -0.000117 0.000000 0.002922 0.000000
# 3 -0.005332 -0.000117 0.013422 0.000000 -0.003597 0.000000
# 4 0.000000 0.000000 0.000000 -0.099165 0.000000 -0.099850
# 5 0.002315 0.002922 -0.003597 0.000000 0.022668 0.000000
# 6 0.000000 0.000000 0.000000 -0.099850 0.000000 -0.037960
#
#
# Mechanical properties :
#
#
# Convention : Reuss Voigt Hill
#
# Bulk Modulus (GPa) = 40.24169 65.26717 52.75443
# Shear Modulus (GPa) = -150.82472 27.31471 -61.75501
#
# Velocity S-wave (km/s) = -8.78313 3.73776 -5.62016
# Velocity P-wave (km/s) = 9.07056 7.21183 3.89003
#
# Compressibility (1/GPa) = 0.02484985
#
# Stress axis : x y z
#
# Youngs Moduli (GPa) = 103.36156 38.70136 74.50334
#
# Poissons Ratio (x) = 0.25519 0.39724
# Poissons Ratio (y) = 0.68154 0.00875
# Poissons Ratio (z) = 0.55111 0.00454
#
# Static dielectric constant tensor:
#      x y z
#    x 1.668050 0.000000 0.017390 
#    y 0.000000 1.663410 0.000000 
#    z 0.017390 0.000000 1.732440 
# 
# From -- ./inp_files/304923.got.cif
#   From: 2010.05.17/outbox.cif.g08.bks.cpg/sg15_153_cif.got.tgz:304923.got - 2010.06.03 18:47:42.
