data_PCOD9297679
_publ_section_title
;
Structure prediction by ZEFSAII (Michael W. Deem and Ramdas Pophale) SiO2 
 PCOD9297679
Probable space group: C 2/C
;
_chemical_formula_sum "Si O2"
_cell_formula_units_Z 48
_cell_length_a 22.539114
_cell_length_b 7.152125
_cell_length_c 12.443050
_cell_angle_alpha 90.000000
_cell_angle_beta 83.646453
_cell_angle_gamma 90.000000
_cell_volume 1993.531517
_symmetry_space_group_name_H-M "C 2/C"
_symmetry_group_IT_number 15
_symmetry_cell_setting 'monoclinic'
loop_
_space_group_symop_operation_xyz
x,y,z
-x,y,1/2-z
-x,-y,-z
x,-y,1/2+z
1/2+x,1/2+y,z
1/2-x,1/2+y,1/2-z
1/2-x,1/2-y,-z
1/2+x,1/2-y,1/2+z
loop_
_atom_site_type_symbol
_atom_site_label
_atom_site_fract_x
_atom_site_fract_y
_atom_site_fract_z
Si Si1 0.497424 0.300335 0.943615
Si Si2 0.331190 0.220987 0.447290
Si Si3 0.461019 0.797537 0.847570
Si Si4 0.742801 0.984161 0.903285
Si Si5 0.417647 0.195328 0.768989
Si Si6 0.216471 0.387627 0.185536
O O1 0.440640 0.287267 0.875927
O O2 0.550393 0.264409 0.846266
O O3 0.500000 0.500000 0.000000
O O4 0.500975 0.173683 0.051168
O O5 0.398074 0.275847 0.405153
O O6 0.320250 0.077430 0.548644
O O7 0.291870 0.407502 0.464756
O O8 0.303888 0.083042 0.362369
O O9 0.500000 0.689031 0.750000
O O10 0.439468 0.982523 0.787515
O O11 0.753560 0.058904 0.781590
O O12 0.747748 0.762404 0.892181
O O13 0.346904 0.209573 0.776262
#
# Coordination Sequence:
#
# PCOD9297679 Si02
#       6
#     8   8   8   8   8   8
#     4  11  24  41  64  97 136 171 219 278 332 395
#     4  10  24  42  63  98 126 175 215 269 326 396
#     4  11  23  43  70  92 131 174 225 266 336 397
#     4  11  22  42  66  91 134 166 219 269 330 384
#     4  10  24  44  63  95 135 173 222 271 334 409
#     4  11  22  42  67  95 128 169 220 269 330 396
#
# _framework density 24.077873
#
# number of rings (size 3 to 8) (size 9 to 14) (size 15 to 20)
#    0.000    1.333    3.333    2.000    4.667    0.000 
#    3.000    1.667    0.000    0.000    0.000    0.000 
#    0.000    0.000    0.000    0.000    0.000    0.000 
#
# Total GULP energy -133839.162480 kJ/mol
# GULP energy per Si atom -5576.631770 kJ/mol
# Density = 2.402307 g / cm^3
# Si number density = 24.077873 Si / 1000 Ang^3
#
#
#
# Elastic Constant Matrix: (Units=GPa)
#
#
# Indices 1 2 3 4 5 6 
#
# 1 71.3236 16.0883 22.8926 0.0000 -14.0510 0.0000
# 2 16.0883 64.7448 9.3590 0.0000 -6.8010 0.0000
# 3 22.8926 9.3590 141.1674 0.0000 -1.3584 0.0000
# 4 0.0000 0.0000 0.0000 37.6737 0.0000 2.6541
# 5 -14.0510 -6.8010 -1.3584 0.0000 27.5662 0.0000
# 6 0.0000 0.0000 0.0000 2.6541 0.0000 26.1734
#
#
#
# Elastic Compliance Matrix: (Units=1/GPa)
#
#
# Indices 1 2 3 4 5 6 
#
# 1 0.017047 -0.003056 -0.002487 0.000000 0.007813 0.000000
# 2 -0.003056 0.016550 -0.000578 0.000000 0.002497 0.000000
# 3 -0.002487 -0.000578 0.007515 0.000000 -0.001040 0.000000
# 4 0.000000 0.000000 0.000000 0.026735 0.000000 -0.002711
# 5 0.007813 0.002497 -0.001040 0.000000 0.040823 0.000000
# 6 0.000000 0.000000 0.000000 -0.002711 0.000000 0.038482
#
#
# Mechanical properties :
#
#
# Convention : Reuss Voigt Hill
#
# Bulk Modulus (GPa) = 34.63507 41.54617 38.09062
# Shear Modulus (GPa) = 29.58276 33.54239 31.56257
#
# Velocity S-wave (km/s) = 3.50898 3.73645 3.62450
# Velocity P-wave (km/s) = 5.55276 5.99225 5.77669
#
# Compressibility (1/GPa) = 0.02887247
#
# Stress axis : x y z
#
# Youngs Moduli (GPa) = 58.66062 60.42147 133.06118
#
# Poissons Ratio (x) = 0.18464 0.33088
# Poissons Ratio (y) = 0.17926 0.07686
# Poissons Ratio (z) = 0.14587 0.03490
#
# Static dielectric constant tensor:
#      x y z
#    x 1.935830 0.000000 -0.019070 
#    y 0.000000 2.020510 0.000000 
#    z -0.019070 0.000000 2.019150 
# 
# From -- ./inp_files/116296.got.cif
#   From: 2010.05.17/outbox.cif.g08.bks.cpg/sg15_59_cif.got.tgz:116296.got - 2010.06.03 18:47:42.
