data_PCOD9297126
_publ_section_title
;
Structure prediction by ZEFSAII (Michael W. Deem and Ramdas Pophale) SiO2 
 PCOD9297126
Probable space group: C 2/C
;
_chemical_formula_sum "Si O2"
_cell_formula_units_Z 44
_cell_length_a 6.057243
_cell_length_b 28.087518
_cell_length_c 11.978177
_cell_angle_alpha 90.000000
_cell_angle_beta 82.047556
_cell_angle_gamma 90.000000
_cell_volume 2018.284431
_symmetry_space_group_name_H-M "C 2/C"
_symmetry_group_IT_number 15
_symmetry_cell_setting 'monoclinic'
loop_
_space_group_symop_operation_xyz
x,y,z
-x,y,1/2-z
-x,-y,-z
x,-y,1/2+z
1/2+x,1/2+y,z
1/2-x,1/2+y,1/2-z
1/2-x,1/2-y,-z
1/2+x,1/2-y,1/2+z
loop_
_atom_site_type_symbol
_atom_site_label
_atom_site_fract_x
_atom_site_fract_y
_atom_site_fract_z
Si Si1 0.450935 0.712881 0.968704
Si Si2 0.911746 0.543358 0.635511
Si Si3 0.784032 0.772592 0.827222
Si Si4 0.836954 0.964546 0.945968
Si Si5 0.000000 0.357280 0.750000
Si Si6 0.696355 0.391447 0.967322
O O1 0.593820 0.733399 0.856811
O O2 0.250000 0.750000 0.000000
O O3 0.623567 0.713119 0.058909
O O4 0.353757 0.660437 0.980048
O O5 0.772868 0.493400 0.649880
O O6 0.760876 0.578385 0.572324
O O7 0.000000 0.558039 0.750000
O O8 0.130779 0.540740 0.543869
O O9 0.691304 0.820312 0.776515
O O10 0.000000 0.752974 0.750000
O O11 0.982571 0.916749 0.923161
O O12 0.000000 0.000000 0.000000
O O13 0.893392 0.386532 0.860673
#
# Coordination Sequence:
#
# PCOD9297126 Si02
#       6
#     8   8   8   8   4   8
#     4  11  23  42  66  97 144 190 242 293 356 433
#     4  10  23  48  73 102 146 182 228 299 370 439
#     4  11  22  41  68  93 141 193 236 303 354 409
#     4   9  22  47  67 102 135 183 230 287 359 430
#     4  12  24  44  68 106 144 184 246 306 348 422
#     4  11  24  43  72 104 142 186 247 292 360 436
#
# _framework density 21.800692999999999
#
# number of rings (size 3 to 8) (size 9 to 14) (size 15 to 20)
#    0.000    1.455    3.636    0.000    2.545    2.909 
#   18.000    9.091    0.000    0.000    0.000    0.000 
#    0.000    0.000    0.000    0.000    0.000    0.000 
#
# Total GULP energy -122791.398497 kJ/mol
# GULP energy per Si atom -5581.427204 kJ/mol
# Density = 2.175107 g / cm^3
# Si number density = 21.800693 Si / 1000 Ang^3
#
#
#
# Elastic Constant Matrix: (Units=GPa)
#
#
# Indices 1 2 3 4 5 6 
#
# 1 108.0708 56.3692 31.0417 0.0000 -8.4888 0.0000
# 2 56.3692 135.1982 35.4417 0.0000 -6.5953 0.0000
# 3 31.0417 35.4417 99.8033 0.0000 10.6649 0.0000
# 4 0.0000 0.0000 0.0000 24.2244 0.0000 -7.1445
# 5 -8.4888 -6.5953 10.6649 0.0000 50.1488 0.0000
# 6 0.0000 0.0000 0.0000 -7.1445 0.0000 19.9373
#
#
#
# Elastic Compliance Matrix: (Units=1/GPa)
#
#
# Indices 1 2 3 4 5 6 
#
# 1 0.012449 -0.004430 -0.002519 0.000000 0.002060 0.000000
# 2 -0.004430 0.009881 -0.002241 0.000000 0.001026 0.000000
# 3 -0.002519 -0.002241 0.011948 0.000000 -0.003262 0.000000
# 4 0.000000 0.000000 0.000000 0.046159 0.000000 0.016541
# 5 0.002060 0.001026 -0.003262 0.000000 0.021118 0.000000
# 6 0.000000 0.000000 0.000000 0.016541 0.000000 0.056085
#
#
# Mechanical properties :
#
#
# Convention : Reuss Voigt Hill
#
# Bulk Modulus (GPa) = 62.89940 65.41972 64.15956
# Shear Modulus (GPa) = 27.57588 33.54342 30.55965
#
# Velocity S-wave (km/s) = 3.56041 3.92681 3.74809
# Velocity P-wave (km/s) = 6.76880 7.11569 6.94441
#
# Compressibility (1/GPa) = 0.01589840
#
# Stress axis : x y z
#
# Youngs Moduli (GPa) = 80.32713 101.20551 83.69912
#
# Poissons Ratio (x) = 0.44830 0.21085
# Poissons Ratio (y) = 0.35582 0.18755
# Poissons Ratio (z) = 0.20236 0.22678
#
# Static dielectric constant tensor:
#      x y z
#    x 1.861770 0.000000 -0.004250 
#    y 0.000000 1.826450 0.000000 
#    z -0.004250 0.000000 1.824380 
# 
# From -- ./inp_files/73850.got.cif
#   From: 2010.05.17/outbox.cif.g08.bks.cpg/sg15_37_cif.got.tgz:73850.got - 2010.06.03 18:47:42.
