data_PCOD9297924
_publ_section_title
;
Structure prediction by ZEFSAII (Michael W. Deem and Ramdas Pophale) SiO2 
 PCOD9297924
Probable space group: C 2/C
;
_chemical_formula_sum "Si O2"
_cell_formula_units_Z 48
_cell_length_a 8.090475
_cell_length_b 15.010023
_cell_length_c 26.429611
_cell_angle_alpha 90.000000
_cell_angle_beta 139.410229
_cell_angle_gamma 90.000000
_cell_volume 2088.266926
_symmetry_space_group_name_H-M "C 2/C"
_symmetry_group_IT_number 15
_symmetry_cell_setting 'monoclinic'
loop_
_space_group_symop_operation_xyz
x,y,z
-x,y,1/2-z
-x,-y,-z
x,-y,1/2+z
1/2+x,1/2+y,z
1/2-x,1/2+y,1/2-z
1/2-x,1/2-y,-z
1/2+x,1/2-y,1/2+z
loop_
_atom_site_type_symbol
_atom_site_label
_atom_site_fract_x
_atom_site_fract_y
_atom_site_fract_z
Si Si1 0.365962 0.959046 0.273528
Si Si2 0.799938 0.079033 0.957106
Si Si3 0.496547 0.304155 0.334403
Si Si4 0.495642 0.896901 0.013229
Si Si5 0.336347 0.655266 0.264702
Si Si6 0.679737 0.752594 0.595779
O O1 0.500000 0.948942 0.250000
O O2 0.563909 0.951206 0.366037
O O3 0.173122 0.877279 0.233031
O O4 0.217987 0.052739 0.236851
O O5 0.726017 0.102920 0.997015
O O6 0.896341 0.172393 0.957915
O O7 0.000000 0.000000 0.000000
O O8 0.768176 0.349216 0.404245
O O9 0.433375 0.206975 0.297307
O O10 0.383042 0.286368 0.364150
O O11 0.464798 0.841275 0.954516
O O12 0.500000 0.000000 0.000000
O O13 0.500000 0.654835 0.250000
O O14 0.528125 0.715696 0.342276
#
# Coordination Sequence:
#
# PCOD9297924 Si02
#       6
#     8   8   8   8   8   8
#     4  12  25  46  73 100 142 189 241 297 358 431
#     4  12  28  46  71 102 146 191 240 295 368 432
#     4  11  23  47  71 104 139 186 238 297 361 426
#     4  12  28  43  73 107 143 185 239 296 359 441
#     4  10  24  42  72 103 138 183 236 294 358 424
#     4  11  23  49  70 101 146 187 227 296 367 433
#
# _framework density 22.985565999999999
#
# number of rings (size 3 to 8) (size 9 to 14) (size 15 to 20)
#    0.000    0.667    3.333    3.500   11.667    1.333 
#    0.000    0.000    0.000    0.000    0.000    0.000 
#    0.000    0.000    0.000    0.000    0.000    0.000 
#
# Total GULP energy -134029.645551 kJ/mol
# GULP energy per Si atom -5584.568565 kJ/mol
# Density = 2.293325 g / cm^3
# Si number density = 22.985566 Si / 1000 Ang^3
#
#
#
# Elastic Constant Matrix: (Units=GPa)
#
#
# Indices 1 2 3 4 5 6 
#
# 1 39.6336 12.1602 -5.9862 0.0000 -3.1058 0.0000
# 2 12.1602 173.4649 22.8841 0.0000 4.7897 0.0000
# 3 -5.9862 22.8841 68.1060 0.0001 10.1333 0.0000
# 4 0.0000 0.0000 0.0001 37.6557 0.0000 4.4298
# 5 -3.1058 4.7897 10.1333 0.0000 29.1046 0.0000
# 6 0.0000 0.0000 0.0000 4.4298 0.0000 34.9265
#
#
#
# Elastic Compliance Matrix: (Units=1/GPa)
#
#
# Indices 1 2 3 4 5 6 
#
# 1 0.026526 -0.002286 0.002766 0.000000 0.002244 0.000000
# 2 -0.002286 0.006232 -0.002221 0.000000 -0.000496 0.000000
# 3 0.002766 -0.002221 0.016425 0.000000 -0.005058 0.000000
# 4 0.000000 0.000000 0.000000 0.026959 0.000000 -0.003419
# 5 0.002244 -0.000496 -0.005058 0.000000 0.036441 0.000000
# 6 0.000000 0.000000 0.000000 -0.003419 0.000000 0.029065
#
#
# Mechanical properties :
#
#
# Convention : Reuss Voigt Hill
#
# Bulk Modulus (GPa) = 21.88189 37.70231 29.79210
# Shear Modulus (GPa) = 31.17902 37.14713 34.16308
#
# Velocity S-wave (km/s) = 3.68701 4.02444 3.85942
# Velocity P-wave (km/s) = 5.25984 6.16710 5.73145
#
# Compressibility (1/GPa) = 0.04569990
#
# Stress axis : x y z
#
# Youngs Moduli (GPa) = 37.69856 160.46610 60.88301
#
# Poissons Ratio (x) = 0.36689 -0.16840
# Poissons Ratio (y) = 0.08619 0.13523
# Poissons Ratio (z) = -0.10427 0.35641
#
# Static dielectric constant tensor:
#      x y z
#    x 1.955200 0.000000 -0.060650 
#    y 0.000000 1.964800 0.000000 
#    z -0.060650 0.000000 2.024440 
# 
# From -- ./inp_files/289090.got.cif
#   From: 2010.05.17/outbox.cif.g08.bks.cpg/sg15_145_cif.got.tgz:289090.got - 2010.06.03 18:47:42.
