data_PCOD9297963
_publ_section_title
;
Structure prediction by ZEFSAII (Michael W. Deem and Ramdas Pophale) SiO2 
 PCOD9297963
Probable space group: C 2/C
;
_chemical_formula_sum "Si O2"
_cell_formula_units_Z 60
_cell_length_a 10.216543
_cell_length_b 9.932354
_cell_length_c 24.554875
_cell_angle_alpha 90.000000
_cell_angle_beta 99.209614
_cell_angle_gamma 90.000000
_cell_volume 2459.569975
_symmetry_space_group_name_H-M "C 2/C"
_symmetry_group_IT_number 15
_symmetry_cell_setting 'monoclinic'
loop_
_space_group_symop_operation_xyz
x,y,z
-x,y,1/2-z
-x,-y,-z
x,-y,1/2+z
1/2+x,1/2+y,z
1/2-x,1/2+y,1/2-z
1/2-x,1/2-y,-z
1/2+x,1/2-y,1/2+z
loop_
_atom_site_type_symbol
_atom_site_label
_atom_site_fract_x
_atom_site_fract_y
_atom_site_fract_z
Si Si1 0.768414 0.088624 0.510657
Si Si2 0.216209 0.549958 0.626445
Si Si3 0.467920 0.877665 0.571212
Si Si4 0.500000 0.900422 0.250000
Si Si5 0.254457 0.358329 0.337782
Si Si6 0.165082 0.378994 0.711652
Si Si7 0.734099 0.159302 0.340700
Si Si8 0.827758 0.831180 0.458857
O O1 0.750000 0.250000 0.500000
O O2 0.797370 0.058872 0.575543
O O3 0.621494 0.048573 0.479793
O O4 0.851294 0.985412 0.478955
O O5 0.085375 0.472483 0.598938
O O6 0.271676 0.458867 0.680290
O O7 0.189587 0.703053 0.642725
O O8 0.372208 0.850736 0.617111
O O9 0.537673 0.745864 0.549523
O O10 0.626240 0.836483 0.289628
O O11 0.440135 0.001988 0.290260
O O12 0.364063 0.257534 0.321898
O O13 0.300694 0.512497 0.342082
O O14 0.234426 0.324568 0.399164
O O15 0.185725 0.333229 0.774991
O O16 0.750000 0.750000 0.500000
#
# Coordination Sequence:
#
# PCOD9297963 Si02
#       8
#     8   8   8   4   8   8   8   8
#     4  12  25  48  72 107 147 186 246 298 359 445
#     4  12  23  45  75 103 143 194 237 297 364 428
#     4  12  25  44  77 102 144 195 231 297 377 411
#     4  10  24  42  74  94 142 188 230 300 362 412
#     4  11  22  43  71 103 138 185 242 288 361 430
#     4  11  23  41  74 103 137 191 238 290 360 430
#     4  11  24  44  71 104 142 184 242 292 356 436
#     4  12  25  42  71 109 141 182 243 295 354 441
#
# _framework density 24.394507999999998
#
# number of rings (size 3 to 8) (size 9 to 14) (size 15 to 20)
#    0.000    0.533    5.333    3.600    0.000    0.533 
#    0.000    0.000   14.667    2.400    0.000    0.000 
#    0.000    0.000    0.000    0.000    0.000    0.000 
#
# Total GULP energy -167271.873378 kJ/mol
# GULP energy per Si atom -5575.729113 kJ/mol
# Density = 2.433898 g / cm^3
# Si number density = 24.394508 Si / 1000 Ang^3
#
#
#
# Elastic Constant Matrix: (Units=GPa)
#
#
# Indices 1 2 3 4 5 6 
#
# 1 49.5390 31.4578 9.8784 0.0000 -2.7804 0.0000
# 2 31.4578 148.5297 28.6561 0.0000 -21.0853 0.0000
# 3 9.8784 28.6561 146.0967 0.0000 -23.8206 0.0000
# 4 0.0000 0.0000 0.0000 60.1136 0.0000 -8.7426
# 5 -2.7804 -21.0853 -23.8206 0.0000 37.8501 0.0000
# 6 0.0000 0.0000 0.0000 -8.7426 0.0000 32.3054
#
#
#
# Elastic Compliance Matrix: (Units=1/GPa)
#
#
# Indices 1 2 3 4 5 6 
#
# 1 0.023463 -0.005033 -0.000864 0.000000 -0.001624 0.000000
# 2 -0.005033 0.008488 -0.000684 0.000000 0.003928 0.000000
# 3 -0.000864 -0.000684 0.007761 0.000000 0.004440 0.000000
# 4 0.000000 0.000000 0.000000 0.017317 0.000000 0.004686
# 5 -0.001624 0.003928 0.004440 0.000000 0.031283 0.000000
# 6 0.000000 0.000000 0.000000 0.004686 0.000000 0.032223
#
#
# Mechanical properties :
#
#
# Convention : Reuss Voigt Hill
#
# Bulk Modulus (GPa) = 37.66449 53.79447 45.72948
# Shear Modulus (GPa) = 35.07567 44.33202 39.70384
#
# Velocity S-wave (km/s) = 3.79601 4.26760 4.03870
# Velocity P-wave (km/s) = 5.88950 6.81050 6.36668
#
# Compressibility (1/GPa) = 0.02655021
#
# Stress axis : x y z
#
# Youngs Moduli (GPa) = 42.61944 117.80860 128.84438
#
# Poissons Ratio (x) = 0.59297 0.11133
# Poissons Ratio (y) = 0.21452 0.08814
# Poissons Ratio (z) = 0.03683 0.08059
#
# Static dielectric constant tensor:
#      x y z
#    x 2.065920 0.000000 -0.014890 
#    y 0.000000 1.978440 0.000000 
#    z -0.014890 0.000000 2.043700 
# 
# From -- ./inp_files/291573.got.cif
#   From: 2010.05.17/outbox.cif.g08.bks.cpg/sg15_146_cif.got.tgz:291573.got - 2010.06.03 18:47:42.
