data_PCOD9297199
_publ_section_title
;
Structure prediction by ZEFSAII (Michael W. Deem and Ramdas Pophale) SiO2 
 PCOD9297199
Probable space group: C 2/C
;
_chemical_formula_sum "Si O2"
_cell_formula_units_Z 44
_cell_length_a 19.718228
_cell_length_b 13.399536
_cell_length_c 8.750088
_cell_angle_alpha 90.000000
_cell_angle_beta 108.272331
_cell_angle_gamma 90.000000
_cell_volume 2195.332217
_symmetry_space_group_name_H-M "C 2/C"
_symmetry_group_IT_number 15
_symmetry_cell_setting 'monoclinic'
loop_
_space_group_symop_operation_xyz
x,y,z
-x,y,1/2-z
-x,-y,-z
x,-y,1/2+z
1/2+x,1/2+y,z
1/2-x,1/2+y,1/2-z
1/2-x,1/2-y,-z
1/2+x,1/2-y,1/2+z
loop_
_atom_site_type_symbol
_atom_site_label
_atom_site_fract_x
_atom_site_fract_y
_atom_site_fract_z
Si Si1 0.725687 0.855712 0.247430
Si Si2 0.031142 0.858384 0.021346
Si Si3 0.500000 0.490957 0.750000
Si Si4 0.359989 0.225360 0.271592
Si Si5 0.731807 0.944125 0.909261
Si Si6 0.133402 0.187295 0.067221
O O1 0.797417 0.790693 0.302928
O O2 0.662168 0.775280 0.196590
O O3 0.724584 0.939213 0.375300
O O4 0.726638 0.911650 0.082713
O O5 0.069692 0.755223 0.085552
O O6 0.042935 0.935220 0.169194
O O7 0.051154 0.919895 0.885057
O O8 0.945951 0.845866 0.950287
O O9 0.330490 0.114317 0.227885
O O10 0.368705 0.266161 0.104917
O O11 0.806965 0.899572 0.899415
#
# Coordination Sequence:
#
# PCOD9297199 Si02
#       6
#     8   8   4   8   8   8
#     4   9  19  34  52  75 102 135 170 205 248 297
#     4  11  20  36  51  78 103 130 170 203 257 297
#     4  10  24  30  52  82 102 132 160 208 262 302
#     4   9  18  34  54  74 103 136 166 204 252 305
#     4   9  19  34  52  75 102 135 170 205 248 297
#     4   9  18  34  54  74 103 136 166 204 252 305
#
# _framework density 20.042522999999999
#
# number of rings (size 3 to 8) (size 9 to 14) (size 15 to 20)
#    0.000    2.545    1.818    2.182    5.091    0.000 
#    3.273    2.727    0.000    0.000    0.000    0.000 
#    0.000    0.000    0.000    0.000    0.000    0.000 
#
# Total GULP energy -122736.553985 kJ/mol
# GULP energy per Si atom -5578.934272 kJ/mol
# Density = 1.999691 g / cm^3
# Si number density = 20.042523 Si / 1000 Ang^3
#
#
#
# Elastic Constant Matrix: (Units=GPa)
#
#
# Indices 1 2 3 4 5 6 
#
# 1 66.9446 7.2572 5.1902 0.0000 16.2399 0.0000
# 2 7.2572 28.0135 -12.7334 0.0000 2.0830 0.0000
# 3 5.1902 -12.7334 26.9427 0.0000 3.8744 0.0000
# 4 0.0000 0.0000 0.0000 38.3453 0.0000 3.4657
# 5 16.2399 2.0830 3.8744 0.0000 15.1905 0.0000
# 6 0.0000 0.0000 0.0000 3.4657 0.0000 12.5191
#
#
#
# Elastic Compliance Matrix: (Units=1/GPa)
#
#
# Indices 1 2 3 4 5 6 
#
# 1 0.020807 -0.005528 -0.003666 0.000000 -0.020551 0.000000
# 2 -0.005528 0.049205 0.025371 0.000000 -0.007308 0.000000
# 3 -0.003666 0.025371 0.051643 0.000000 -0.012732 0.000000
# 4 0.000000 0.000000 0.000000 0.026748 0.000000 -0.007405
# 5 -0.020551 -0.007308 -0.012732 0.000000 0.092051 0.000000
# 6 0.000000 0.000000 0.000000 -0.007405 0.000000 0.081928
#
#
# Mechanical properties :
#
#
# Convention : Reuss Voigt Hill
#
# Bulk Modulus (GPa) = 6.49319 13.48098 9.98709
# Shear Modulus (GPa) = 14.64713 21.35677 18.00195
#
# Velocity S-wave (km/s) = 2.70627 3.26785 3.00023
# Velocity P-wave (km/s) = 3.60721 4.58031 4.12257
#
# Compressibility (1/GPa) = 0.15400748
#
# Stress axis : x y z
#
# Youngs Moduli (GPa) = 48.06148 20.32327 19.36362
#
# Poissons Ratio (x) = 0.11235 0.07098
# Poissons Ratio (y) = 0.26570 -0.49127
# Poissons Ratio (z) = 0.17618 -0.51561
#
# Static dielectric constant tensor:
#      x y z
#    x 1.727200 0.000000 -0.000910 
#    y 0.000000 1.710170 0.000000 
#    z -0.000910 0.000000 1.766900 
# 
# From -- ./inp_files/47181.got.cif
#   From: 2010.05.17/outbox.cif.g08.bks.cpg/sg15_24_cif.got.tgz:47181.got - 2010.06.03 18:47:42.
