data_PCOD9297942
_publ_section_title
;
Structure prediction by ZEFSAII (Michael W. Deem and Ramdas Pophale) SiO2 
 PCOD9297942
Probable space group: C 2/C
;
_chemical_formula_sum "Si O2"
_cell_formula_units_Z 40
_cell_length_a 18.255603
_cell_length_b 9.322905
_cell_length_c 26.095472
_cell_angle_alpha 90.000000
_cell_angle_beta 157.214893
_cell_angle_gamma 90.000000
_cell_volume 1720.018539
_symmetry_space_group_name_H-M "C 2/C"
_symmetry_group_IT_number 15
_symmetry_cell_setting 'monoclinic'
loop_
_space_group_symop_operation_xyz
x,y,z
-x,y,1/2-z
-x,-y,-z
x,-y,1/2+z
1/2+x,1/2+y,z
1/2-x,1/2+y,1/2-z
1/2-x,1/2-y,-z
1/2+x,1/2-y,1/2+z
loop_
_atom_site_type_symbol
_atom_site_label
_atom_site_fract_x
_atom_site_fract_y
_atom_site_fract_z
Si Si1 0.828198 0.879236 0.103665
Si Si2 0.991139 0.195183 0.888118
Si Si3 0.253187 0.594700 0.877649
Si Si4 0.127683 0.386040 0.409326
Si Si5 0.854242 0.102052 0.351534
O O1 0.000000 0.932473 0.250000
O O2 0.941573 0.817347 0.127634
O O3 0.682723 0.765732 0.035235
O O4 0.684527 0.998605 0.988356
O O5 0.813587 0.302889 0.778534
O O6 0.918084 0.039998 0.860648
O O7 0.185062 0.554539 0.890426
O O8 0.293966 0.460031 0.867675
O O9 0.085573 0.666532 0.737477
O O10 0.446334 0.682266 0.010238
O O11 0.250000 0.250000 0.500000
#
# Coordination Sequence:
#
# PCOD9297942 Si02
#       5
#     8   8   8   8   8
#     4  11  26  45  69 103 140 189 230 289 344 429
#     4  11  26  46  70 103 146 180 240 281 356 410
#     4  10  24  42  72  96 136 186 232 276 362 408
#     4  11  24  46  69 103 137 187 236 287 340 434
#     4  11  24  44  73 102 133 186 228 299 340 419
#
# _framework density 23.255562999999999
#
# number of rings (size 3 to 8) (size 9 to 14) (size 15 to 20)
#    0.000    1.200    4.000    0.000   11.200    0.000 
#    0.000    1.000    0.000    0.000    0.000    0.000 
#    0.000    0.000    0.000    0.000    0.000    0.000 
#
# Total GULP energy -111591.065870 kJ/mol
# GULP energy per Si atom -5579.553294 kJ/mol
# Density = 2.320263 g / cm^3
# Si number density = 23.255563 Si / 1000 Ang^3
#
#
#
# Elastic Constant Matrix: (Units=GPa)
#
#
# Indices 1 2 3 4 5 6 
#
# 1 75.2806 26.3551 33.9822 -0.0012 7.2379 0.0000
# 2 26.3551 100.7117 62.5895 0.0009 13.0223 -0.0008
# 3 33.9822 62.5895 216.1381 0.0010 10.5309 -0.0010
# 4 -0.0012 0.0009 0.0010 30.0600 -0.0007 5.9795
# 5 7.2379 13.0223 10.5309 -0.0007 30.1963 -0.0001
# 6 0.0000 -0.0008 -0.0010 5.9795 -0.0001 16.2271
#
#
#
# Elastic Compliance Matrix: (Units=1/GPa)
#
#
# Indices 1 2 3 4 5 6 
#
# 1 0.015110 -0.002792 -0.001474 0.000001 -0.001904 0.000000
# 2 -0.002792 0.013136 -0.003176 -0.000001 -0.003888 0.000001
# 3 -0.001474 -0.003176 0.005793 0.000000 -0.000297 0.000000
# 4 0.000001 -0.000001 0.000000 0.035898 0.000001 -0.013228
# 5 -0.001904 -0.003888 -0.000297 0.000001 0.035354 0.000000
# 6 0.000000 0.000001 0.000000 -0.013228 0.000000 0.066500
#
#
# Mechanical properties :
#
#
# Convention : Reuss Voigt Hill
#
# Bulk Modulus (GPa) = 52.20551 70.88711 61.54631
# Shear Modulus (GPa) = 25.89899 33.24359 29.57129
#
# Velocity S-wave (km/s) = 3.34079 3.78496 3.56979
# Velocity P-wave (km/s) = 6.11380 7.04622 6.59650
#
# Compressibility (1/GPa) = 0.01915507
#
# Stress axis : x y z
#
# Youngs Moduli (GPa) = 66.18339 76.12555 172.63450
#
# Poissons Ratio (x) = 0.21250 0.25455
# Poissons Ratio (y) = 0.18475 0.54823
# Poissons Ratio (z) = 0.09759 0.24175
#
# Static dielectric constant tensor:
#      x y z
#    x 1.925330 -0.000010 0.023890 
#    y -0.000010 1.907420 -0.000020 
#    z 0.023890 -0.000020 2.112890 
# 
# From -- ./inp_files/317622.got.cif
#   From: 2010.05.17/outbox.cif.g08.bks.cpg/sg15_159_cif.got.tgz:317622.got - 2010.06.03 18:47:42.
