data_PCOD9297498
_publ_section_title
;
Structure prediction by ZEFSAII (Michael W. Deem and Ramdas Pophale) SiO2 
 PCOD9297498
Probable space group: C 2/C
;
_chemical_formula_sum "Si O2"
_cell_formula_units_Z 36
_cell_length_a 16.185179
_cell_length_b 11.065377
_cell_length_c 8.834528
_cell_angle_alpha 90.000000
_cell_angle_beta 70.508814
_cell_angle_gamma 90.000000
_cell_volume 1491.548149
_symmetry_space_group_name_H-M "C 2/C"
_symmetry_group_IT_number 15
_symmetry_cell_setting 'monoclinic'
loop_
_space_group_symop_operation_xyz
x,y,z
-x,y,1/2-z
-x,-y,-z
x,-y,1/2+z
1/2+x,1/2+y,z
1/2-x,1/2+y,1/2-z
1/2-x,1/2-y,-z
1/2+x,1/2-y,1/2+z
loop_
_atom_site_type_symbol
_atom_site_label
_atom_site_fract_x
_atom_site_fract_y
_atom_site_fract_z
Si Si1 0.695523 0.859196 0.946737
Si Si2 0.550284 0.400758 0.061838
Si Si3 0.500000 0.974371 0.750000
Si Si4 0.747635 0.609901 0.438684
Si Si5 0.015322 0.664869 0.957861
O O1 0.729478 0.875605 0.753151
O O2 0.590377 0.829067 0.996028
O O3 0.750000 0.750000 0.000000
O O4 0.703344 0.991315 0.021835
O O5 0.500000 0.371461 0.250000
O O6 0.554822 0.294471 0.934408
O O7 0.500000 0.500000 0.000000
O O8 0.648933 0.432311 0.034824
O O9 0.446898 0.068039 0.680322
O O10 0.459003 0.886138 0.894962
O O11 0.750000 0.750000 0.500000
#
# Coordination Sequence:
#
# PCOD9297498 Si02
#       5
#     8   8   4   8   8
#     4  12  26  46  71 102 142 185 232 283 353 417
#     4  12  26  45  68  98 137 181 228 278 341 409
#     4  10  24  40  70  98 130 170 226 288 332 394
#     4  12  27  45  71 103 143 181 231 291 350 408
#     4  11  24  43  71  98 135 173 235 276 341 404
#
# _framework density 24.135998000000001
#
# number of rings (size 3 to 8) (size 9 to 14) (size 15 to 20)
#    0.000    0.444    1.111    6.667   10.889    0.000 
#    0.000    0.000    0.000    0.000    0.000    0.000 
#    0.000    0.000    0.000    0.000    0.000    0.000 
#
# Total GULP energy -100437.134784 kJ/mol
# GULP energy per Si atom -5579.840821 kJ/mol
# Density = 2.408106 g / cm^3
# Si number density = 24.135998 Si / 1000 Ang^3
#
#
#
# Elastic Constant Matrix: (Units=GPa)
#
#
# Indices 1 2 3 4 5 6 
#
# 1 137.9816 16.5037 4.3571 0.0000 -17.8564 0.0000
# 2 16.5037 156.5407 28.6440 0.0000 31.3372 0.0000
# 3 4.3571 28.6440 150.1556 0.0000 3.8741 0.0000
# 4 0.0000 0.0000 0.0000 52.4719 0.0000 23.7635
# 5 -17.8564 31.3372 3.8741 0.0000 31.4597 0.0000
# 6 0.0000 0.0000 0.0000 23.7635 0.0000 54.4446
#
#
#
# Elastic Compliance Matrix: (Units=1/GPa)
#
#
# Indices 1 2 3 4 5 6 
#
# 1 0.008441 -0.002312 0.000013 0.000000 0.007093 0.000000
# 2 -0.002312 0.008883 -0.001370 0.000000 -0.009992 0.000000
# 3 0.000013 -0.001370 0.006907 0.000000 0.000521 0.000000
# 4 0.000000 0.000000 0.000000 0.023753 0.000000 -0.010368
# 5 0.007093 -0.009992 0.000521 0.000000 0.045701 0.000000
# 6 0.000000 0.000000 0.000000 -0.010368 0.000000 0.022892
#
#
# Mechanical properties :
#
#
# Convention : Reuss Voigt Hill
#
# Bulk Modulus (GPa) = 59.19296 60.40973 59.80135
# Shear Modulus (GPa) = 38.59603 54.02012 46.30808
#
# Velocity S-wave (km/s) = 4.00322 4.73605 4.38497
# Velocity P-wave (km/s) = 6.77833 7.41553 7.10408
#
# Compressibility (1/GPa) = 0.01689390
#
# Stress axis : x y z
#
# Youngs Moduli (GPa) = 118.46373 112.57787 144.77650
#
# Poissons Ratio (x) = 0.26031 -0.00190
# Poissons Ratio (y) = 0.27392 0.19829
# Poissons Ratio (z) = -0.00156 0.15419
#
# Static dielectric constant tensor:
#      x y z
#    x 2.041400 0.000000 -0.042040 
#    y 0.000000 1.942440 0.000000 
#    z -0.042040 0.000000 1.984020 
# 
# From -- ./inp_files/45885.got.cif
#   From: 2010.05.17/outbox.cif.g08.bks.cpg/sg15_23_cif.got.tgz:45885.got - 2010.06.03 18:47:42.
