data_PCOD9297330
_publ_section_title
;
Structure prediction by ZEFSAII (Michael W. Deem and Ramdas Pophale) SiO2 
 PCOD9297330
Probable space group: C 2/C
;
_chemical_formula_sum "Si O2"
_cell_formula_units_Z 64
_cell_length_a 25.356052
_cell_length_b 15.147741
_cell_length_c 22.806216
_cell_angle_alpha 90.000000
_cell_angle_beta 18.652950
_cell_angle_gamma 90.000000
_cell_volume 2801.617231
_symmetry_space_group_name_H-M "C 2/C"
_symmetry_group_IT_number 15
_symmetry_cell_setting 'monoclinic'
loop_
_space_group_symop_operation_xyz
x,y,z
-x,y,1/2-z
-x,-y,-z
x,-y,1/2+z
1/2+x,1/2+y,z
1/2-x,1/2+y,1/2-z
1/2-x,1/2-y,-z
1/2+x,1/2-y,1/2+z
loop_
_atom_site_type_symbol
_atom_site_label
_atom_site_fract_x
_atom_site_fract_y
_atom_site_fract_z
Si Si1 0.440485 0.023246 0.892790
Si Si2 0.117147 0.448708 0.920678
Si Si3 0.128745 0.250891 0.763386
Si Si4 0.804633 0.102880 0.520075
Si Si5 0.906724 0.333874 0.903958
Si Si6 0.602579 0.783217 0.310007
Si Si7 0.134340 0.161598 0.390756
Si Si8 0.651940 0.644173 0.155534
O O1 0.638034 0.043951 0.685231
O O2 0.389254 0.937448 0.911220
O O3 0.381189 0.000973 0.020536
O O4 0.326907 0.105002 0.992397
O O5 0.293975 0.430988 0.705998
O O6 0.000000 0.500000 0.000000
O O7 0.039362 0.353512 0.022955
O O8 0.237599 0.212283 0.596857
O O9 0.232316 0.301234 0.703460
O O10 0.008338 0.317700 0.856882
O O11 0.033898 0.172704 0.896820
O O12 0.756300 0.154897 0.630102
O O13 0.821539 0.159908 0.441988
O O14 0.996762 0.074647 0.324362
O O15 0.000000 0.294797 0.750000
O O16 0.623469 0.722397 0.344412
O O17 0.595252 0.723408 0.258459
#
# Coordination Sequence:
#
# PCOD9297330 Si02
#       8
#     8   8   8   8   8   8   8   8
#     4  11  24  44  68  98 137 182 224 276 354 404
#     4  11  23  40  65  96 138 182 219 279 340 394
#     4  10  24  40  70  98 125 166 226 281 339 405
#     4  10  24  39  63  99 138 177 228 283 326 397
#     4  11  23  47  71  97 130 170 222 284 352 418
#     4  11  22  39  65  96 132 184 225 274 336 398
#     4  11  20  41  64  96 133 170 220 275 332 404
#     4  11  22  42  63  99 136 179 234 275 331 409
#
# _framework density 22.843948999999999
#
# number of rings (size 3 to 8) (size 9 to 14) (size 15 to 20)
#    0.000    1.250    2.500    3.375    3.500    0.000 
#    9.000    0.625    0.000    0.000    0.000    0.000 
#    0.000    0.000    0.000    0.000    0.000    0.000 
#
# Total GULP energy -178379.886976 kJ/mol
# GULP energy per Si atom -5574.371468 kJ/mol
# Density = 2.279196 g / cm^3
# Si number density = 22.843949 Si / 1000 Ang^3
#
#
#
# Elastic Constant Matrix: (Units=GPa)
#
#
# Indices 1 2 3 4 5 6 
#
# 1 83.2322 -2.4120 3.8624 0.0010 24.4693 0.0046
# 2 -2.4120 47.4868 13.4472 -0.0069 2.9359 0.0053
# 3 3.8624 13.4472 112.4659 -0.0070 17.6235 0.0112
# 4 0.0010 -0.0069 -0.0070 33.7093 -0.0002 6.3459
# 5 24.4693 2.9359 17.6235 -0.0002 47.9863 -0.0035
# 6 0.0046 0.0053 0.0112 6.3459 -0.0035 23.7656
#
#
#
# Elastic Compliance Matrix: (Units=1/GPa)
#
#
# Indices 1 2 3 4 5 6 
#
# 1 0.014231 0.001027 0.000568 0.000001 -0.007528 -0.000005
# 2 0.001027 0.021878 -0.002503 0.000005 -0.000943 -0.000005
# 3 0.000568 -0.002503 0.009754 0.000002 -0.003719 -0.000005
# 4 0.000001 0.000005 0.000002 0.031236 -0.000002 -0.008341
# 5 -0.007528 -0.000943 -0.003719 -0.000002 0.026102 0.000008
# 6 -0.000005 -0.000005 -0.000005 -0.008341 0.000008 0.044305
#
#
# Mechanical properties :
#
#
# Convention : Reuss Voigt Hill
#
# Bulk Modulus (GPa) = 22.70276 30.33111 26.51694
# Shear Modulus (GPa) = 30.48720 36.31140 33.39930
#
# Velocity S-wave (km/s) = 3.65716 3.99123 3.82784
# Velocity P-wave (km/s) = 5.27189 5.87761 5.58297
#
# Compressibility (1/GPa) = 0.04404750
#
# Stress axis : x y z
#
# Youngs Moduli (GPa) = 70.26803 45.70833 102.52056
#
# Poissons Ratio (x) = -0.04696 -0.05824
# Poissons Ratio (y) = -0.07219 0.25665
# Poissons Ratio (z) = -0.03992 0.11443
#
# Static dielectric constant tensor:
#      x y z
#    x 1.865600 -0.000010 -0.017780 
#    y -0.000010 1.889640 -0.000030 
#    z -0.017780 -0.000030 2.086670 
# 
# From -- ./inp_files/255975.got.cif
#   From: 2010.05.17/outbox.cif.g08.bks.cpg/sg15_128_cif.got.tgz:255975.got - 2010.06.03 18:47:42.
