data_PCOD9297315
_publ_section_title
;
Structure prediction by ZEFSAII (Michael W. Deem and Ramdas Pophale) SiO2 
 PCOD9297315
Probable space group: C 2/C
;
_chemical_formula_sum "Si O2"
_cell_formula_units_Z 28
_cell_length_a 17.308088
_cell_length_b 7.471832
_cell_length_c 9.108886
_cell_angle_alpha 90.000000
_cell_angle_beta 57.444199
_cell_angle_gamma 90.000000
_cell_volume 992.889468
_symmetry_space_group_name_H-M "C 2/C"
_symmetry_group_IT_number 15
_symmetry_cell_setting 'monoclinic'
loop_
_space_group_symop_operation_xyz
x,y,z
-x,y,1/2-z
-x,-y,-z
x,-y,1/2+z
1/2+x,1/2+y,z
1/2-x,1/2+y,1/2-z
1/2-x,1/2-y,-z
1/2+x,1/2-y,1/2+z
loop_
_atom_site_type_symbol
_atom_site_label
_atom_site_fract_x
_atom_site_fract_y
_atom_site_fract_z
Si Si1 0.500000 0.919123 0.750000
Si Si2 0.054935 0.730158 0.903106
Si Si3 0.157127 0.786085 0.395086
Si Si4 0.287122 0.516089 0.390598
O O1 0.557245 0.801976 0.575468
O O2 0.555784 0.047091 0.806065
O O3 0.131412 0.861066 0.763954
O O4 0.951682 0.801241 0.981571
O O5 0.194444 0.601450 0.421704
O O6 0.203794 0.937611 0.449013
O O7 0.191837 0.823058 0.195953
#
# Coordination Sequence:
#
# PCOD9297315 Si02
#       4
#     4   8   8   8
#     4  10  24  38  74  92 128 168 220 254 328 364
#     4  11  23  44  65  96 131 169 210 267 313 384
#     4  11  26  43  66  96 130 168 215 263 318 381
#     4  11  26  43  66  96 130 168 215 263 318 381
#
# _framework density 28.200520000000001
#
# number of rings (size 3 to 8) (size 9 to 14) (size 15 to 20)
#    0.000    1.143    2.857    0.857   12.000    1.143 
#    0.000    0.000    0.000    0.000    0.000    0.000 
#    0.000    0.000    0.000    0.000    0.000    0.000 
#
# Total GULP energy -78583.835867 kJ/mol
# GULP energy per Si atom -5613.131133 kJ/mol
# Density = 2.813633 g / cm^3
# Si number density = 28.200520 Si / 1000 Ang^3
#
#
#
# Elastic Constant Matrix: (Units=GPa)
#
#
# Indices 1 2 3 4 5 6 
#
# 1 142.4802 17.4177 39.6696 0.0000 4.5452 0.0000
# 2 17.4177 38.2732 -1.1590 0.0000 -0.0413 0.0000
# 3 39.6696 -1.1590 147.2189 0.0000 21.3526 0.0000
# 4 0.0000 0.0000 0.0000 69.5860 0.0000 3.8361
# 5 4.5452 -0.0413 21.3526 0.0000 62.3300 0.0000
# 6 0.0000 0.0000 0.0000 3.8361 0.0000 36.4005
#
#
#
# Elastic Compliance Matrix: (Units=1/GPa)
#
#
# Indices 1 2 3 4 5 6 
#
# 1 0.008094 -0.003751 -0.002236 0.000000 0.000173 0.000000
# 2 -0.003751 0.027873 0.001250 0.000000 -0.000136 0.000000
# 3 -0.002236 0.001250 0.007767 0.000000 -0.002497 0.000000
# 4 0.000000 0.000000 0.000000 0.014455 0.000000 -0.001523
# 5 0.000173 -0.000136 -0.002497 0.000000 0.016886 0.000000
# 6 0.000000 0.000000 0.000000 -0.001523 0.000000 0.027633
#
#
# Mechanical properties :
#
#
# Convention : Reuss Voigt Hill
#
# Bulk Modulus (GPa) = 29.18837 48.86987 39.02912
# Shear Modulus (GPa) = 40.45281 51.79958 46.12620
#
# Velocity S-wave (km/s) = 3.79155 4.29048 4.04871
# Velocity P-wave (km/s) = 5.43512 6.47389 5.97712
#
# Compressibility (1/GPa) = 0.03426023
#
# Stress axis : x y z
#
# Youngs Moduli (GPa) = 123.54839 35.87746 128.74954
#
# Poissons Ratio (x) = 0.13458 0.28784
# Poissons Ratio (y) = 0.46343 -0.16093
# Poissons Ratio (z) = 0.27621 -0.04484
#
# Static dielectric constant tensor:
#      x y z
#    x 2.153330 0.000000 0.003070 
#    y 0.000000 2.227990 0.000000 
#    z 0.003070 0.000000 2.147060 
# 
# From -- ./inp_files/53269.got.cif
#   From: 2010.05.17/outbox.cif.g08.bks.cpg/sg15_27_cif.got.tgz:53269.got - 2010.06.03 18:47:42.
