data_PCOD9297970
_publ_section_title
;
Structure prediction by ZEFSAII (Michael W. Deem and Ramdas Pophale) SiO2 
 PCOD9297970
Probable space group: C 2/C
;
_chemical_formula_sum "Si O2"
_cell_formula_units_Z 48
_cell_length_a 22.219276
_cell_length_b 9.328159
_cell_length_c 9.462745
_cell_angle_alpha 90.000000
_cell_angle_beta 85.377219
_cell_angle_gamma 90.000000
_cell_volume 1954.915003
_symmetry_space_group_name_H-M "C 2/C"
_symmetry_group_IT_number 15
_symmetry_cell_setting 'monoclinic'
loop_
_space_group_symop_operation_xyz
x,y,z
-x,y,1/2-z
-x,-y,-z
x,-y,1/2+z
1/2+x,1/2+y,z
1/2-x,1/2+y,1/2-z
1/2-x,1/2-y,-z
1/2+x,1/2-y,1/2+z
loop_
_atom_site_type_symbol
_atom_site_label
_atom_site_fract_x
_atom_site_fract_y
_atom_site_fract_z
Si Si1 0.342515 0.313845 0.520386
Si Si2 0.563026 0.835147 0.968704
Si Si3 0.779549 0.664430 0.775358
Si Si4 0.171072 0.129249 0.988263
Si Si5 0.882088 0.554472 0.317555
Si Si6 0.526770 0.368579 0.902756
O O1 0.290547 0.247305 0.628205
O O2 0.327066 0.467154 0.458773
O O3 0.362322 0.195599 0.404728
O O4 0.401021 0.353007 0.607412
O O5 0.572751 0.906382 0.816325
O O6 0.606324 0.695157 0.964543
O O7 0.497869 0.776690 0.020132
O O8 0.587224 0.943514 0.081701
O O9 0.803640 0.767611 0.895467
O O10 0.822580 0.524445 0.765518
O O11 0.712683 0.632070 0.841038
O O12 0.500000 0.378674 0.750000
O O13 0.500000 0.500000 0.000000
#
# Coordination Sequence:
#
# PCOD9297970 Si02
#       6
#     8   8   8   8   8   8
#     4  12  26  44  76 103 139 190 247 286 370 424
#     4  11  25  49  70 105 150 185 246 292 366 420
#     4  10  24  47  63 109 147 183 239 294 364 427
#     4  10  24  42  75  99 146 189 233 304 351 431
#     4  11  25  46  72 106 142 194 234 300 358 443
#     4  12  28  48  76 106 144 186 241 300 352 426
#
# _framework density 24.553497
#
# number of rings (size 3 to 8) (size 9 to 14) (size 15 to 20)
#    0.000    1.000    3.333    2.000    7.000    2.667 
#    3.000    0.000    0.000    0.000    0.000    0.000 
#    0.000    0.000    0.000    0.000    0.000    0.000 
#
# Total GULP energy -134625.019037 kJ/mol
# GULP energy per Si atom -5609.375793 kJ/mol
# Density = 2.449761 g / cm^3
# Si number density = 24.553497 Si / 1000 Ang^3
#
#
#
# Elastic Constant Matrix: (Units=GPa)
#
#
# Indices 1 2 3 4 5 6 
#
# 1 59.7927 20.0109 18.6694 0.0000 -11.0316 0.0000
# 2 20.0109 142.4743 35.3414 0.0000 -10.0640 0.0000
# 3 18.6694 35.3414 135.6569 0.0000 -18.2527 0.0000
# 4 0.0000 0.0000 0.0000 31.3003 0.0000 -18.3726
# 5 -11.0316 -10.0640 -18.2527 0.0000 27.5977 0.0000
# 6 0.0000 0.0000 0.0000 -18.3726 0.0000 26.3241
#
#
#
# Elastic Compliance Matrix: (Units=1/GPa)
#
#
# Indices 1 2 3 4 5 6 
#
# 1 0.018872 -0.001906 -0.001294 0.000000 0.005993 0.000000
# 2 -0.001906 0.007760 -0.001626 0.000000 0.000993 0.000000
# 3 -0.001294 -0.001626 0.008588 0.000000 0.004570 0.000000
# 4 0.000000 0.000000 0.000000 0.054120 0.000000 0.037773
# 5 0.005993 0.000993 0.004570 0.000000 0.042015 0.000000
# 6 0.000000 0.000000 0.000000 0.037773 0.000000 0.064351
#
#
# Mechanical properties :
#
#
# Convention : Reuss Voigt Hill
#
# Bulk Modulus (GPa) = 39.11205 53.99637 46.55421
# Shear Modulus (GPa) = 23.37744 34.63791 29.00767
#
# Velocity S-wave (km/s) = 3.08896 3.76002 3.44089
# Velocity P-wave (km/s) = 5.35595 6.39448 5.89812
#
# Compressibility (1/GPa) = 0.02556757
#
# Stress axis : x y z
#
# Youngs Moduli (GPa) = 52.98802 128.86708 116.44064
#
# Poissons Ratio (x) = 0.24566 0.15071
# Poissons Ratio (y) = 0.10101 0.18930
# Poissons Ratio (z) = 0.06858 0.20950
#
# Static dielectric constant tensor:
#      x y z
#    x 1.971310 0.000000 0.040750 
#    y 0.000000 1.913300 0.000000 
#    z 0.040750 0.000000 1.890940 
# 
# From -- ./inp_files/116354.got.cif
#   From: 2010.05.17/outbox.cif.g08.bks.cpg/sg15_59_cif.got.tgz:116354.got - 2010.06.03 18:47:42.
