data_PCOD9297003
_publ_section_title
;
Structure prediction by ZEFSAII (Michael W. Deem and Ramdas Pophale) SiO2 
 PCOD9297003
Probable space group: C 2/C
;
_chemical_formula_sum "Si O2"
_cell_formula_units_Z 40
_cell_length_a 19.040928
_cell_length_b 11.179160
_cell_length_c 8.869450
_cell_angle_alpha 90.000000
_cell_angle_beta 49.132585
_cell_angle_gamma 90.000000
_cell_volume 1427.727780
_symmetry_space_group_name_H-M "C 2/C"
_symmetry_group_IT_number 15
_symmetry_cell_setting 'monoclinic'
loop_
_space_group_symop_operation_xyz
x,y,z
-x,y,1/2-z
-x,-y,-z
x,-y,1/2+z
1/2+x,1/2+y,z
1/2-x,1/2+y,1/2-z
1/2-x,1/2-y,-z
1/2+x,1/2-y,1/2+z
loop_
_atom_site_type_symbol
_atom_site_label
_atom_site_fract_x
_atom_site_fract_y
_atom_site_fract_z
Si Si1 0.755683 0.833472 0.816317
Si Si2 0.500000 0.953847 0.250000
Si Si3 0.058541 0.739745 0.464269
Si Si4 0.297217 0.485664 0.491348
Si Si5 0.000000 0.950884 0.750000
Si Si6 0.144889 0.340386 0.539147
O O1 0.654245 0.784860 0.920874
O O2 0.729834 0.615817 0.036478
O O3 0.768082 0.956543 0.701978
O O4 0.830891 0.744396 0.635081
O O5 0.508737 0.865730 0.380692
O O6 0.413233 0.038951 0.404552
O O7 0.021224 0.864387 0.578005
O O8 0.083587 0.723189 0.255691
O O9 0.407662 0.479545 0.337434
O O10 0.241233 0.383151 0.481079
#
# Coordination Sequence:
#
# PCOD9297003 Si02
#       6
#     8   4   8   8   4   8
#     4  11  26  48  77 103 150 193 244 300 366 440
#     4  11  22  43  74 110 144 191 242 311 354 434
#     4  10  23  47  68 113 144 187 246 301 362 437
#     4  11  26  50  72 107 148 196 237 303 367 431
#     4  11  28  43  78 108 154 183 248 299 368 438
#     4  11  25  46  76 105 148 192 245 296 373 433
#
# _framework density 28.016544
#
# number of rings (size 3 to 8) (size 9 to 14) (size 15 to 20)
#    0.000    1.200    2.000    3.000    8.400    2.400 
#    0.000    0.000    0.000    0.000    0.000    0.000 
#    0.000    0.000    0.000    0.000    0.000    0.000 
#
# Total GULP energy -112278.988572 kJ/mol
# GULP energy per Si atom -5613.949429 kJ/mol
# Density = 2.795278 g / cm^3
# Si number density = 28.016544 Si / 1000 Ang^3
#
#
#
# Elastic Constant Matrix: (Units=GPa)
#
#
# Indices 1 2 3 4 5 6 
#
# 1 95.8332 33.8458 43.1181 0.0000 -13.8443 0.0000
# 2 33.8458 134.1669 74.3057 0.0000 7.0089 0.0000
# 3 43.1181 74.3057 183.9581 0.0000 2.9437 0.0000
# 4 0.0000 0.0000 0.0000 71.5944 0.0000 -9.2226
# 5 -13.8443 7.0089 2.9437 0.0000 49.8712 0.0000
# 6 0.0000 0.0000 0.0000 -9.2226 0.0000 41.3140
#
#
#
# Elastic Compliance Matrix: (Units=1/GPa)
#
#
# Indices 1 2 3 4 5 6 
#
# 1 0.012770 -0.002237 -0.002153 0.000000 0.003986 0.000000
# 2 -0.002237 0.010056 -0.003508 0.000000 -0.001827 0.000000
# 3 -0.002153 -0.003508 0.007367 0.000000 -0.000539 0.000000
# 4 0.000000 0.000000 0.000000 0.014381 0.000000 0.003210
# 5 0.003986 -0.001827 -0.000539 0.000000 0.021447 0.000000
# 6 0.000000 0.000000 0.000000 0.003210 0.000000 0.024922
#
#
# Mechanical properties :
#
#
# Convention : Reuss Voigt Hill
#
# Bulk Modulus (GPa) = 69.46910 79.61083 74.53997
# Shear Modulus (GPa) = 44.82795 50.06849 47.44822
#
# Velocity S-wave (km/s) = 4.00441 4.23200 4.11978
# Velocity P-wave (km/s) = 6.79926 7.23582 7.02093
#
# Compressibility (1/GPa) = 0.01439489
#
# Stress axis : x y z
#
# Youngs Moduli (GPa) = 78.31131 99.44063 135.74968
#
# Poissons Ratio (x) = 0.22245 0.29230
# Poissons Ratio (y) = 0.17519 0.47627
# Poissons Ratio (z) = 0.16862 0.34888
#
# Static dielectric constant tensor:
#      x y z
#    x 2.216930 0.000000 0.035340 
#    y 0.000000 2.207180 0.000000 
#    z 0.035340 0.000000 2.163330 
# 
# From -- ./inp_files/94710.got.cif
#   From: 2010.05.17/outbox.cif.g08.bks.cpg/sg15_48_cif.got.tgz:94710.got - 2010.06.03 18:47:42.
