data_PCOD9297735
_publ_section_title
;
Structure prediction by ZEFSAII (Michael W. Deem and Ramdas Pophale) SiO2 
 PCOD9297735
Probable space group: C 2/C
;
_chemical_formula_sum "Si O2"
_cell_formula_units_Z 60
_cell_length_a 17.035267
_cell_length_b 27.464739
_cell_length_c 11.533126
_cell_angle_alpha 90.000000
_cell_angle_beta 31.993959
_cell_angle_gamma 90.000000
_cell_volume 2858.958674
_symmetry_space_group_name_H-M "C 2/C"
_symmetry_group_IT_number 15
_symmetry_cell_setting 'monoclinic'
loop_
_space_group_symop_operation_xyz
x,y,z
-x,y,1/2-z
-x,-y,-z
x,-y,1/2+z
1/2+x,1/2+y,z
1/2-x,1/2+y,1/2-z
1/2-x,1/2-y,-z
1/2+x,1/2-y,1/2+z
loop_
_atom_site_type_symbol
_atom_site_label
_atom_site_fract_x
_atom_site_fract_y
_atom_site_fract_z
Si Si1 0.863381 0.876637 0.210208
Si Si2 0.178156 0.766609 0.241148
Si Si3 0.439132 0.892242 0.048526
Si Si4 0.406040 0.813746 0.483097
Si Si5 0.500000 0.773122 0.750000
Si Si6 0.239398 0.572562 0.087795
Si Si7 0.856290 0.466732 0.353628
Si Si8 0.678417 0.600906 0.253239
O O1 0.893790 0.819440 0.186309
O O2 0.711650 0.883736 0.330672
O O3 0.838588 0.901039 0.366915
O O4 0.001960 0.897639 0.966442
O O5 0.136449 0.737531 0.408522
O O6 0.113771 0.733961 0.217886
O O7 0.354014 0.775499 0.017358
O O8 0.495124 0.846636 0.053468
O O9 0.412778 0.936501 0.171690
O O10 0.573152 0.905247 0.794002
O O11 0.500000 0.808267 0.250000
O O12 0.259672 0.846758 0.644710
O O13 0.227273 0.515555 0.077468
O O14 0.290474 0.581887 0.155175
O O15 0.754653 0.432749 0.561713
O O16 0.000000 0.479919 0.250000
#
# Coordination Sequence:
#
# PCOD9297735 Si02
#       8
#     8   8   8   8   4   8   8   8
#     4  12  27  43  63 107 142 180 224 287 347 412
#     4  11  25  42  72  98 140 179 232 279 355 403
#     4  11  23  44  71 102 132 176 238 287 332 414
#     4  11  22  49  73  98 132 187 238 284 337 415
#     4  10  24  42  66 102 128 180 224 290 332 418
#     4  11  26  42  75  97 134 181 233 279 348 411
#     4  12  22  47  74  98 131 187 232 287 341 414
#     4  11  25  46  69  99 144 179 226 288 346 408
#
# _framework density 20.986663
#
# number of rings (size 3 to 8) (size 9 to 14) (size 15 to 20)
#    0.000    0.800    4.000    3.600   13.067    1.067 
#    4.800    2.000    0.000    0.000    0.000    0.000 
#    0.000    0.000    0.000    0.000    0.000    0.000 
#
# Total GULP energy -167324.699824 kJ/mol
# GULP energy per Si atom -5577.489994 kJ/mol
# Density = 2.093890 g / cm^3
# Si number density = 20.986663 Si / 1000 Ang^3
#
#
#
# Elastic Constant Matrix: (Units=GPa)
#
#
# Indices 1 2 3 4 5 6 
#
# 1 30.6182 -13.1357 13.9402 0.0003 -2.1441 0.0000
# 2 -13.1357 89.5288 24.9568 0.0001 23.6683 0.0000
# 3 13.9402 24.9568 140.7636 0.0002 1.6694 -0.0001
# 4 0.0003 0.0001 0.0002 21.3632 -0.0003 18.9232
# 5 -2.1441 23.6683 1.6694 -0.0003 43.2566 0.0000
# 6 0.0000 0.0000 -0.0001 18.9232 0.0000 16.3692
#
#
#
# Elastic Compliance Matrix: (Units=1/GPa)
#
#
# Indices 1 2 3 4 5 6 
#
# 1 0.038067 0.007542 -0.005083 0.000015 -0.002044 -0.000017
# 2 0.007542 0.015293 -0.003365 0.000006 -0.007864 -0.000007
# 3 -0.005083 -0.003365 0.008189 0.000002 0.001273 -0.000002
# 4 0.000015 0.000006 0.000002 -1.950739 -0.000014 2.255109
# 5 -0.002044 -0.007864 0.001273 -0.000014 0.027270 0.000016
# 6 -0.000017 -0.000007 -0.000002 2.255109 0.000016 -2.545879
#
#
# Mechanical properties :
#
#
# Convention : Reuss Voigt Hill
#
# Bulk Modulus (GPa) = 16.73965 34.71481 25.72723
# Shear Modulus (GPa) = -1.13997 31.87442 15.36722
#
# Velocity S-wave (km/s) = -0.73781 3.90140 2.70892
# Velocity P-wave (km/s) = 2.69589 6.07222 4.69785
#
# Compressibility (1/GPa) = 0.05973841
#
# Stress axis : x y z
#
# Youngs Moduli (GPa) = 26.26932 65.38813 122.11495
#
# Poissons Ratio (x) = -0.49319 0.62070
# Poissons Ratio (y) = -0.19814 0.41093
# Poissons Ratio (z) = 0.13352 0.22004
#
# Static dielectric constant tensor:
#      x y z
#    x 1.744350 0.000000 -0.009560 
#    y 0.000000 1.707720 0.000000 
#    z -0.009560 0.000000 1.737200 
# 
# From -- ./inp_files/108417.got.cif
#   From: 2010.05.17/outbox.cif.g08.bks.cpg/sg15_55_cif.got.tgz:108417.got - 2010.06.03 18:47:42.
