data_PCOD9297615
_publ_section_title
;
Structure prediction by ZEFSAII (Michael W. Deem and Ramdas Pophale) SiO2 
 PCOD9297615
Probable space group: C 2/C
;
_chemical_formula_sum "Si O2"
_cell_formula_units_Z 48
_cell_length_a 8.343776
_cell_length_b 30.795742
_cell_length_c 8.823824
_cell_angle_alpha 90.000000
_cell_angle_beta 86.543133
_cell_angle_gamma 90.000000
_cell_volume 2263.180622
_symmetry_space_group_name_H-M "C 2/C"
_symmetry_group_IT_number 15
_symmetry_cell_setting 'monoclinic'
loop_
_space_group_symop_operation_xyz
x,y,z
-x,y,1/2-z
-x,-y,-z
x,-y,1/2+z
1/2+x,1/2+y,z
1/2-x,1/2+y,1/2-z
1/2-x,1/2-y,-z
1/2+x,1/2-y,1/2+z
loop_
_atom_site_type_symbol
_atom_site_label
_atom_site_fract_x
_atom_site_fract_y
_atom_site_fract_z
Si Si1 0.924024 0.687746 0.000743
Si Si2 0.744537 0.824134 0.296383
Si Si3 0.163179 0.924537 0.148124
Si Si4 0.500000 0.256101 0.250000
Si Si5 0.126292 0.497786 0.856035
Si Si6 0.167490 0.929236 0.797806
Si Si7 0.000000 0.619774 0.250000
O O1 0.785528 0.680664 0.883624
O O2 0.084860 0.690139 0.892198
O O3 0.951028 0.646268 0.103772
O O4 0.917154 0.726473 0.124784
O O5 0.793042 0.873530 0.336382
O O6 0.876091 0.788925 0.334177
O O7 0.000000 0.932208 0.250000
O O8 0.310566 0.954764 0.194506
O O9 0.141072 0.940914 0.975900
O O10 0.282324 0.467286 0.824719
O O11 0.000000 0.476943 0.750000
O O12 0.000000 0.500000 0.000000
O O13 0.327149 0.900739 0.797438
O O14 0.000000 0.909255 0.750000
#
# Coordination Sequence:
#
# PCOD9297615 Si02
#       7
#     8   8   8   4   8   8   4
#     4  10  24  41  69 100 140 184 230 294 360 427
#     4  11  23  43  69 102 137 186 234 290 362 430
#     4  12  27  45  67 105 144 183 242 303 354 428
#     4  11  22  44  70 100 138 178 240 296 358 435
#     4  12  26  46  74 102 141 192 239 297 355 426
#     4  12  27  46  71 104 144 192 245 292 360 424
#     4  11  22  46  68 102 150 184 242 300 352 421
#
# _framework density 21.209088999999999
#
# number of rings (size 3 to 8) (size 9 to 14) (size 15 to 20)
#    0.000    0.667    5.000    1.500    7.000    1.333 
#    0.000    0.000    0.000    0.000    0.000    0.000 
#    0.000    0.000    0.000    0.000    0.000    0.000 
#
# Total GULP energy -133605.279566 kJ/mol
# GULP energy per Si atom -5566.886649 kJ/mol
# Density = 2.116082 g / cm^3
# Si number density = 21.209089 Si / 1000 Ang^3
#
#
#
# Elastic Constant Matrix: (Units=GPa)
#
#
# Indices 1 2 3 4 5 6 
#
# 1 101.8535 34.8949 16.7807 0.0000 -18.5873 0.0000
# 2 34.8949 77.8643 8.4522 0.0000 -17.3988 0.0000
# 3 16.7807 8.4522 82.8685 0.0000 -17.6157 0.0000
# 4 0.0000 0.0000 0.0000 8.3185 0.0000 -4.8862
# 5 -18.5873 -17.3988 -17.6157 0.0000 39.7174 0.0000
# 6 0.0000 0.0000 0.0000 -4.8862 0.0000 20.8454
#
#
#
# Elastic Compliance Matrix: (Units=1/GPa)
#
#
# Indices 1 2 3 4 5 6 
#
# 1 0.012187 -0.004627 -0.001341 0.000000 0.003081 0.000000
# 2 -0.004627 0.015995 0.000370 0.000000 0.005005 0.000000
# 3 -0.001341 0.000370 0.013472 0.000000 0.005510 0.000000
# 4 0.000000 0.000000 0.000000 0.139409 0.000000 0.032678
# 5 0.003081 0.005005 0.005510 0.000000 0.031256 0.000000
# 6 0.000000 0.000000 0.000000 0.032678 0.000000 0.055632
#
#
# Mechanical properties :
#
#
# Convention : Reuss Voigt Hill
#
# Bulk Modulus (GPa) = 32.83339 42.53800 37.68570
# Shear Modulus (GPa) = 17.28309 27.27350 22.27829
#
# Velocity S-wave (km/s) = 2.85773 3.58988 3.24452
# Velocity P-wave (km/s) = 5.13841 6.10598 5.64297
#
# Compressibility (1/GPa) = 0.03045680
#
# Stress axis : x y z
#
# Youngs Moduli (GPa) = 82.05750 62.51996 74.22616
#
# Poissons Ratio (x) = 0.28930 0.09952
# Poissons Ratio (y) = 0.37971 -0.02743
# Poissons Ratio (z) = 0.11002 -0.02311
#
# Static dielectric constant tensor:
#      x y z
#    x 1.870300 0.000000 -0.013700 
#    y 0.000000 1.824510 0.000000 
#    z -0.013700 0.000000 1.903760 
# 
# From -- ./inp_files/26170.got.cif
#   From: 2010.05.17/outbox.cif.g08.bks.cpg/sg15_14_cif.got.tgz:26170.got - 2010.06.03 18:47:42.
