data_PCOD9297824
_publ_section_title
;
Structure prediction by ZEFSAII (Michael W. Deem and Ramdas Pophale) SiO2 
 PCOD9297824
Probable space group: C 2/C
;
_chemical_formula_sum "Si O2"
_cell_formula_units_Z 60
_cell_length_a 8.104704
_cell_length_b 14.861349
_cell_length_c 23.315811
_cell_angle_alpha 90.000000
_cell_angle_beta 90.661941
_cell_angle_gamma 90.000000
_cell_volume 2808.128218
_symmetry_space_group_name_H-M "C 2/C"
_symmetry_group_IT_number 15
_symmetry_cell_setting 'monoclinic'
loop_
_space_group_symop_operation_xyz
x,y,z
-x,y,1/2-z
-x,-y,-z
x,-y,1/2+z
1/2+x,1/2+y,z
1/2-x,1/2+y,1/2-z
1/2-x,1/2-y,-z
1/2+x,1/2-y,1/2+z
loop_
_atom_site_type_symbol
_atom_site_label
_atom_site_fract_x
_atom_site_fract_y
_atom_site_fract_z
Si Si1 0.567374 0.235483 0.945602
Si Si2 0.900206 0.227416 0.334266
Si Si3 0.555188 0.601425 0.989112
Si Si4 0.500000 0.084126 0.250000
Si Si5 0.637771 0.357851 0.117474
Si Si6 0.803564 0.547741 0.143558
Si Si7 0.432911 0.907932 0.526427
Si Si8 0.763009 0.256741 0.780444
O O1 0.427170 0.224855 0.895505
O O2 0.736204 0.205380 0.917243
O O3 0.550756 0.335920 0.968723
O O4 0.535405 0.171883 0.999348
O O5 0.826028 0.127857 0.344502
O O6 0.781909 0.270432 0.285311
O O7 0.084864 0.225004 0.308718
O O8 0.520711 0.631541 0.923585
O O9 0.500000 0.500000 0.000000
O O10 0.744953 0.609098 0.006632
O O11 0.406486 0.028688 0.201271
O O12 0.632312 0.151899 0.222136
O O13 0.717001 0.457140 0.122170
O O14 0.636349 0.314279 0.180597
O O15 0.925765 0.583475 0.094678
O O16 0.500000 0.000000 0.500000
#
# Coordination Sequence:
#
# PCOD9297824 Si02
#       8
#     8   8   8   4   8   8   8   8
#     4  11  22  39  65  93 129 171 212 261 328 384
#     4   9  19  40  65  89 124 170 213 265 325 389
#     4  12  23  40  62  92 130 172 211 267 318 387
#     4  10  24  42  68  90 120 168 214 272 318 382
#     4  11  23  41  62  95 130 168 212 270 318 398
#     4  11  22  43  62  90 134 164 218 266 320 383
#     4  12  24  42  62  96 132 170 215 264 321 390
#     4   9  21  40  65  91 122 164 220 264 328 384
#
# _framework density 21.366544000000001
#
# number of rings (size 3 to 8) (size 9 to 14) (size 15 to 20)
#    0.000    1.333    4.000    0.800    1.867    3.200 
#    4.800    2.667    0.000    0.000    0.000    0.000 
#    0.000    0.000    0.000    0.000    0.000    0.000 
#
# Total GULP energy -167634.419286 kJ/mol
# GULP energy per Si atom -5587.813976 kJ/mol
# Density = 2.131791 g / cm^3
# Si number density = 21.366544 Si / 1000 Ang^3
#
#
#
# Elastic Constant Matrix: (Units=GPa)
#
#
# Indices 1 2 3 4 5 6 
#
# 1 44.9265 0.9994 19.7204 0.0000 13.7147 0.0000
# 2 0.9994 70.2720 30.0899 0.0000 -8.5919 0.0000
# 3 19.7204 30.0899 136.0554 0.0000 20.5038 0.0000
# 4 0.0000 0.0000 0.0000 32.1039 0.0000 -0.9104
# 5 13.7147 -8.5919 20.5038 0.0000 30.9260 0.0000
# 6 0.0000 0.0000 0.0000 -0.9104 0.0000 23.2043
#
#
#
# Elastic Compliance Matrix: (Units=1/GPa)
#
#
# Indices 1 2 3 4 5 6 
#
# 1 0.026405 -0.000783 -0.002063 0.000000 -0.010560 0.000000
# 2 -0.000783 0.017437 -0.005027 0.000000 0.008525 0.000000
# 3 -0.002063 -0.005027 0.009814 0.000000 -0.006989 0.000000
# 4 0.000000 0.000000 0.000000 0.031184 0.000000 0.001223
# 5 -0.010560 0.008525 -0.006989 0.000000 0.044020 0.000000
# 6 0.000000 0.000000 0.000000 0.001223 0.000000 0.043143
#
#
# Mechanical properties :
#
#
# Convention : Reuss Voigt Hill
#
# Bulk Modulus (GPa) = 26.37922 39.20815 32.79369
# Shear Modulus (GPa) = 24.95187 30.60978 27.78082
#
# Velocity S-wave (km/s) = 3.42102 3.78908 3.60974
# Velocity P-wave (km/s) = 5.28936 6.12641 5.72321
#
# Compressibility (1/GPa) = 0.03790863
#
# Stress axis : x y z
#
# Youngs Moduli (GPa) = 37.87161 57.35079 101.89558
#
# Poissons Ratio (x) = 0.04493 0.21017
# Poissons Ratio (y) = 0.02967 0.51227
# Poissons Ratio (z) = 0.07811 0.28833
#
# Static dielectric constant tensor:
#      x y z
#    x 1.807610 0.000000 -0.043140 
#    y 0.000000 1.732630 0.000000 
#    z -0.043140 0.000000 1.931550 
# 
# From -- ./inp_files/264352.got.cif
#   From: 2010.05.17/outbox.cif.g08.bks.cpg/sg15_133_cif.got.tgz:264352.got - 2010.06.03 18:47:42.
