data_PCOD9297522
_publ_section_title
;
Structure prediction by ZEFSAII (Michael W. Deem and Ramdas Pophale) SiO2 
 PCOD9297522
Probable space group: C 2/C
;
_chemical_formula_sum "Si O2"
_cell_formula_units_Z 40
_cell_length_a 14.504286
_cell_length_b 13.113774
_cell_length_c 19.804447
_cell_angle_alpha 90.000000
_cell_angle_beta 154.280685
_cell_angle_gamma 90.000000
_cell_volume 1634.704638
_symmetry_space_group_name_H-M "C 2/C"
_symmetry_group_IT_number 15
_symmetry_cell_setting 'monoclinic'
loop_
_space_group_symop_operation_xyz
x,y,z
-x,y,1/2-z
-x,-y,-z
x,-y,1/2+z
1/2+x,1/2+y,z
1/2-x,1/2+y,1/2-z
1/2-x,1/2-y,-z
1/2+x,1/2-y,1/2+z
loop_
_atom_site_type_symbol
_atom_site_label
_atom_site_fract_x
_atom_site_fract_y
_atom_site_fract_z
Si Si1 0.926920 0.942497 0.883968
Si Si2 0.638207 0.334689 0.200811
Si Si3 0.993572 0.557321 0.324418
Si Si4 0.328312 0.165717 0.683067
Si Si5 0.246376 0.690799 0.581001
O O1 0.547982 0.062563 0.710958
O O2 0.894676 0.041770 0.816680
O O3 0.123161 0.867048 0.002335
O O4 0.000000 0.000000 0.000000
O O5 0.703940 0.102242 0.262305
O O6 0.738494 0.298336 0.195602
O O7 0.794952 0.314606 0.366282
O O8 0.407587 0.279095 0.049650
O O9 0.000000 0.591250 0.250000
O O10 0.186987 0.591145 0.498392
O O11 0.500000 0.223539 0.750000
O O12 0.500000 0.702239 0.750000
#
# Coordination Sequence:
#
# PCOD9297522 Si02
#       5
#     8   8   8   8   8
#     4   8  18  36  67  83 119 156 206 251 297 357
#     4  10  24  41  54  94 126 168 198 245 312 367
#     4   9  20  38  67  91 119 161 203 256 308 366
#     4   9  20  39  72  85 114 164 216 252 297 356
#     4  12  27  35  61  93 137 160 194 252 317 381
#
# _framework density 24.469252000000001
#
# number of rings (size 3 to 8) (size 9 to 14) (size 15 to 20)
#    0.000    2.800    0.000    0.600   19.600    4.800 
#    0.000    1.000    0.000    0.000    0.000    0.000 
#    0.000    0.000    0.000    0.000    0.000    0.000 
#
# Total GULP energy -111473.207968 kJ/mol
# GULP energy per Si atom -5573.660398 kJ/mol
# Density = 2.441356 g / cm^3
# Si number density = 24.469252 Si / 1000 Ang^3
#
#
#
# Elastic Constant Matrix: (Units=GPa)
#
#
# Indices 1 2 3 4 5 6 
#
# 1 106.9948 9.4834 70.2973 -0.0056 15.1181 0.0003
# 2 9.4834 44.2461 31.5441 0.0028 -12.3103 0.0018
# 3 70.2973 31.5441 143.9638 0.0122 -6.9790 0.0045
# 4 -0.0056 0.0028 0.0122 24.3033 0.0040 -1.8288
# 5 15.1181 -12.3103 -6.9790 0.0040 59.3302 0.0008
# 6 0.0003 0.0018 0.0045 -1.8288 0.0008 26.5613
#
#
#
# Elastic Compliance Matrix: (Units=1/GPa)
#
#
# Indices 1 2 3 4 5 6 
#
# 1 0.014999 0.001075 -0.007779 0.000008 -0.004514 0.000002
# 2 0.001075 0.028354 -0.006503 -0.000001 0.004844 -0.000001
# 3 -0.007779 -0.006503 0.012270 -0.000008 0.002076 -0.000002
# 4 0.000008 -0.000001 -0.000008 0.041361 -0.000006 0.002848
# 5 -0.004514 0.004844 0.002076 -0.000006 0.019254 -0.000002
# 6 0.000002 -0.000001 -0.000002 0.002848 -0.000002 0.037845
#
#
# Mechanical properties :
#
#
# Convention : Reuss Voigt Hill
#
# Bulk Modulus (GPa) = 34.23416 57.53939 45.88677
# Shear Modulus (GPa) = 26.28346 34.29760 30.29053
#
# Velocity S-wave (km/s) = 3.28097 3.74794 3.52220
# Velocity P-wave (km/s) = 5.32673 6.50349 5.94430
#
# Compressibility (1/GPa) = 0.02921059
#
# Stress axis : x y z
#
# Youngs Moduli (GPa) = 66.66923 35.26808 81.50036
#
# Poissons Ratio (x) = -0.03790 0.63395
# Poissons Ratio (y) = -0.07165 0.52997
# Poissons Ratio (z) = 0.51859 0.22934
#
# Static dielectric constant tensor:
#      x y z
#    x 2.119070 0.000000 0.083660 
#    y 0.000000 2.271340 -0.000010 
#    z 0.083660 -0.000010 1.975390 
# 
# From -- ./inp_files/200459.got.cif
#   From: 2010.05.17/outbox.cif.g08.bks.cpg/sg15_101_cif.got.tgz:200459.got - 2010.06.03 18:47:42.
