data_PCOD9297467
_publ_section_title
;
Structure prediction by ZEFSAII (Michael W. Deem and Ramdas Pophale) SiO2 
 PCOD9297467
Probable space group: C 2/C
;
_chemical_formula_sum "Si O2"
_cell_formula_units_Z 44
_cell_length_a 13.826620
_cell_length_b 21.342502
_cell_length_c 9.040150
_cell_angle_alpha 90.000000
_cell_angle_beta 132.777049
_cell_angle_gamma 90.000000
_cell_volume 1958.097081
_symmetry_space_group_name_H-M "C 2/C"
_symmetry_group_IT_number 15
_symmetry_cell_setting 'monoclinic'
loop_
_space_group_symop_operation_xyz
x,y,z
-x,y,1/2-z
-x,-y,-z
x,-y,1/2+z
1/2+x,1/2+y,z
1/2-x,1/2+y,1/2-z
1/2-x,1/2-y,-z
1/2+x,1/2-y,1/2+z
loop_
_atom_site_type_symbol
_atom_site_label
_atom_site_fract_x
_atom_site_fract_y
_atom_site_fract_z
Si Si1 0.000000 0.967203 0.750000
Si Si2 0.644670 0.434075 0.609523
Si Si3 0.459845 0.815595 0.364466
Si Si4 0.195061 0.772001 0.197370
Si Si5 0.956924 0.436133 0.875092
Si Si6 0.367103 0.685233 0.581878
O O1 0.911089 0.008076 0.544723
O O2 0.096381 0.933677 0.730305
O O3 0.801059 0.431122 0.747065
O O4 0.590480 0.373390 0.469632
O O5 0.500000 0.843811 0.250000
O O6 0.310115 0.791339 0.206382
O O7 0.560902 0.757350 0.496335
O O8 0.479348 0.871416 0.500309
O O9 0.259598 0.719549 0.371488
O O10 0.180854 0.828008 0.302176
O O11 0.000000 0.441922 0.750000
O O12 0.000000 0.500000 0.000000
O O13 0.500000 0.725592 0.750000
#
# Coordination Sequence:
#
# PCOD9297467 Si02
#       6
#     4   8   8   8   8   8
#     4  10  24  40  68  96 140 178 230 278 344 406
#     4  11  22  44  65 100 136 180 228 285 337 416
#     4  12  26  46  69 104 142 183 231 290 346 418
#     4  11  24  43  70 100 136 182 230 288 349 412
#     4  12  26  46  72 101 138 185 233 287 348 414
#     4  11  21  40  70  98 132 173 233 282 345 406
#
# _framework density 22.470797000000001
#
# number of rings (size 3 to 8) (size 9 to 14) (size 15 to 20)
#    0.000    0.727    4.545    3.273    2.545    0.000 
#    4.909    0.000    0.000    0.000    0.000    0.000 
#    0.000    0.000    0.000    0.000    0.000    0.000 
#
# Total GULP energy -122768.848951 kJ/mol
# GULP energy per Si atom -5580.402225 kJ/mol
# Density = 2.241965 g / cm^3
# Si number density = 22.470797 Si / 1000 Ang^3
#
#
#
# Elastic Constant Matrix: (Units=GPa)
#
#
# Indices 1 2 3 4 5 6 
#
# 1 180.5490 42.9529 45.8984 0.0000 -25.8515 0.0000
# 2 42.9529 72.6718 20.8295 0.0000 -11.8403 0.0000
# 3 45.8984 20.8295 55.2374 0.0000 -15.2977 0.0000
# 4 0.0000 0.0000 0.0000 36.0142 0.0000 5.1034
# 5 -25.8515 -11.8403 -15.2977 0.0000 54.8037 0.0000
# 6 0.0000 0.0000 0.0000 5.1034 0.0000 10.0423
#
#
#
# Elastic Compliance Matrix: (Units=1/GPa)
#
#
# Indices 1 2 3 4 5 6 
#
# 1 0.007695 -0.002890 -0.004847 0.000000 0.001653 0.000000
# 2 -0.002890 0.016689 -0.003545 0.000000 0.001253 0.000000
# 3 -0.004847 -0.003545 0.024518 0.000000 0.003792 0.000000
# 4 0.000000 0.000000 0.000000 0.029922 0.000000 -0.015206
# 5 0.001653 0.001253 0.003792 0.000000 0.020356 0.000000
# 6 0.000000 0.000000 0.000000 -0.015206 0.000000 0.107307
#
#
# Mechanical properties :
#
#
# Convention : Reuss Voigt Hill
#
# Bulk Modulus (GPa) = 37.96687 58.64663 48.30675
# Shear Modulus (GPa) = 21.02366 33.42385 27.22376
#
# Velocity S-wave (km/s) = 3.06207 3.86091 3.48446
# Velocity P-wave (km/s) = 5.42536 6.78463 6.14271
#
# Compressibility (1/GPa) = 0.02633875
#
# Stress axis : x y z
#
# Youngs Moduli (GPa) = 129.95798 59.92093 40.78688
#
# Poissons Ratio (x) = 0.17315 0.19767
# Poissons Ratio (y) = 0.37553 0.14459
# Poissons Ratio (z) = 0.62984 0.21242
#
# Static dielectric constant tensor:
#      x y z
#    x 1.978210 0.000000 0.070910 
#    y 0.000000 1.878990 0.000000 
#    z 0.070910 0.000000 1.891390 
# 
# From -- ./inp_files/32730.got.cif
#   From: 2010.05.17/outbox.cif.g08.bks.cpg/sg15_17_cif.got.tgz:32730.got - 2010.06.03 18:47:42.
