data_PCOD9297351
_publ_section_title
;
Structure prediction by ZEFSAII (Michael W. Deem and Ramdas Pophale) SiO2 
 PCOD9297351
Probable space group: C 2/C
;
_chemical_formula_sum "Si O2"
_cell_formula_units_Z 48
_cell_length_a 16.703457
_cell_length_b 16.525841
_cell_length_c 14.502620
_cell_angle_alpha 90.000000
_cell_angle_beta 148.635657
_cell_angle_gamma 90.000000
_cell_volume 2083.622608
_symmetry_space_group_name_H-M "C 2/C"
_symmetry_group_IT_number 15
_symmetry_cell_setting 'monoclinic'
loop_
_space_group_symop_operation_xyz
x,y,z
-x,y,1/2-z
-x,-y,-z
x,-y,1/2+z
1/2+x,1/2+y,z
1/2-x,1/2+y,1/2-z
1/2-x,1/2-y,-z
1/2+x,1/2-y,1/2+z
loop_
_atom_site_type_symbol
_atom_site_label
_atom_site_fract_x
_atom_site_fract_y
_atom_site_fract_z
Si Si1 0.265912 0.335533 0.763094
Si Si2 0.524539 0.745647 0.408938
Si Si3 0.319167 0.514147 0.598375
Si Si4 0.337643 0.677873 0.538960
Si Si5 0.221402 0.370717 0.388710
Si Si6 0.817282 0.982866 0.309813
O O1 0.122638 0.281547 0.591071
O O2 0.233083 0.430686 0.736575
O O3 0.397572 0.318237 0.817599
O O4 0.337759 0.308820 0.930590
O O5 0.645649 0.696505 0.467197
O O6 0.434325 0.821625 0.279134
O O7 0.500000 0.499011 0.750000
O O8 0.264154 0.590080 0.484163
O O9 0.228723 0.434557 0.478490
O O10 0.300363 0.539946 0.685908
O O11 0.500000 0.672897 0.750000
O O12 0.250000 0.750000 0.500000
O O13 0.263184 0.419806 0.334675
O O14 0.000000 0.000000 0.500000
#
# Coordination Sequence:
#
# PCOD9297351 Si02
#       6
#     8   8   8   8   8   8
#     4  11  21  42  62  96 126 177 217 269 345 393
#     4  10  24  39  71  92 131 175 220 285 328 403
#     4  11  22  40  67  97 128 178 223 269 334 403
#     4  11  23  38  61  95 131 168 219 276 328 398
#     4  11  23  46  67 101 132 174 232 275 341 399
#     4  12  21  40  69  92 130 174 219 271 330 411
#
# _framework density 23.036801000000001
#
# number of rings (size 3 to 8) (size 9 to 14) (size 15 to 20)
#    0.000    1.000    5.000    2.000    4.667    0.667 
#    0.000   10.000    0.000    0.000    0.000    0.000 
#    0.000    0.000    0.000    0.000    0.000    0.000 
#
# Total GULP energy -134343.220452 kJ/mol
# GULP energy per Si atom -5597.634185 kJ/mol
# Density = 2.298437 g / cm^3
# Si number density = 23.036801 Si / 1000 Ang^3
#
#
#
# Elastic Constant Matrix: (Units=GPa)
#
#
# Indices 1 2 3 4 5 6 
#
# 1 89.1673 17.8848 23.0671 0.0000 -24.0765 0.0000
# 2 17.8848 128.3154 39.1351 0.0000 9.1746 0.0000
# 3 23.0671 39.1351 87.2813 0.0000 -12.1222 0.0000
# 4 0.0000 0.0000 0.0000 48.3407 0.0000 -1.3936
# 5 -24.0765 9.1746 -12.1222 0.0000 25.1189 0.0000
# 6 0.0000 0.0000 0.0000 -1.3936 0.0000 29.1356
#
#
#
# Elastic Compliance Matrix: (Units=1/GPa)
#
#
# Indices 1 2 3 4 5 6 
#
# 1 0.016577 -0.003352 -0.000537 0.000000 0.016854 0.000000
# 2 -0.003352 0.010514 -0.005154 0.000000 -0.009540 0.000000
# 3 -0.000537 -0.005154 0.015113 0.000000 0.008661 0.000000
# 4 0.000000 0.000000 0.000000 0.020715 0.000000 0.000991
# 5 0.016854 -0.009540 0.008661 0.000000 0.063629 0.000000
# 6 0.000000 0.000000 0.000000 0.000991 0.000000 0.034370
#
#
# Mechanical properties :
#
#
# Convention : Reuss Voigt Hill
#
# Bulk Modulus (GPa) = 41.46148 51.65980 46.56064
# Shear Modulus (GPa) = 26.73178 35.49751 31.11465
#
# Velocity S-wave (km/s) = 3.41015 3.92969 3.67911
# Velocity P-wave (km/s) = 5.79159 6.56228 6.18895
#
# Compressibility (1/GPa) = 0.02411877
#
# Stress axis : x y z
#
# Youngs Moduli (GPa) = 60.32459 95.10782 66.16881
#
# Poissons Ratio (x) = 0.31877 0.03556
# Poissons Ratio (y) = 0.20219 0.34101
# Poissons Ratio (z) = 0.03242 0.49015
#
# Static dielectric constant tensor:
#      x y z
#    x 1.885720 0.000000 -0.019430 
#    y 0.000000 1.871580 0.000000 
#    z -0.019430 0.000000 1.777930 
# 
# From -- ./inp_files/163322.got.cif
#   From: 2010.05.17/outbox.cif.g08.bks.cpg/sg15_82_cif.got.tgz:163322.got - 2010.06.03 18:47:42.
