data_PCOD9297545
_publ_section_title
;
Structure prediction by ZEFSAII (Michael W. Deem and Ramdas Pophale) SiO2 
 PCOD9297545
Probable space group: C 2/C
;
_chemical_formula_sum "Si O2"
_cell_formula_units_Z 36
_cell_length_a 20.393033
_cell_length_b 9.773221
_cell_length_c 6.778419
_cell_angle_alpha 90.000000
_cell_angle_beta 100.723598
_cell_angle_gamma 90.000000
_cell_volume 1327.383858
_symmetry_space_group_name_H-M "C 2/C"
_symmetry_group_IT_number 15
_symmetry_cell_setting 'monoclinic'
loop_
_space_group_symop_operation_xyz
x,y,z
-x,y,1/2-z
-x,-y,-z
x,-y,1/2+z
1/2+x,1/2+y,z
1/2-x,1/2+y,1/2-z
1/2-x,1/2-y,-z
1/2+x,1/2-y,1/2+z
loop_
_atom_site_type_symbol
_atom_site_label
_atom_site_fract_x
_atom_site_fract_y
_atom_site_fract_z
Si Si1 0.460835 0.638768 0.914298
Si Si2 0.000000 0.645201 0.750000
Si Si3 0.365497 0.830200 0.313565
Si Si4 0.725342 0.005451 0.989364
Si Si5 0.331100 0.522372 0.298966
O O1 0.500000 0.695005 0.750000
O O2 0.386435 0.596562 0.823088
O O3 0.500000 0.500000 0.000000
O O4 0.463423 0.753988 0.078276
O O5 0.064572 0.587667 0.670884
O O6 0.324091 0.881618 0.480163
O O7 0.368980 0.667631 0.330226
O O8 0.317709 0.863785 0.100691
O O9 0.809879 0.006164 0.036017
O O10 0.744820 0.038947 0.251194
#
# Coordination Sequence:
#
# PCOD9297545 Si02
#       5
#     8   4   8   8   8
#     4  12  22  40  67 108 138 167 219 285 345 406
#     4  12  26  44  70 102 142 176 228 278 340 406
#     4  11  23  43  64  92 133 180 223 279 335 397
#     4  10  24  41  63  95 133 175 228 270 331 417
#     4  11  21  40  68  96 133 169 221 287 344 392
#
# _framework density 27.121016999999998
#
# number of rings (size 3 to 8) (size 9 to 14) (size 15 to 20)
#    0.000    0.889    3.333    4.000    0.000    2.667 
#    8.000    0.000    0.000    0.000    0.000    0.000 
#    0.000    0.000    0.000    0.000    0.000    0.000 
#
# Total GULP energy -100604.866961 kJ/mol
# GULP energy per Si atom -5589.159276 kJ/mol
# Density = 2.705929 g / cm^3
# Si number density = 27.121017 Si / 1000 Ang^3
#
#
#
# Elastic Constant Matrix: (Units=GPa)
#
#
# Indices 1 2 3 4 5 6 
#
# 1 235.4161 10.5875 77.3031 0.0000 -22.2967 0.0000
# 2 10.5875 37.6928 19.3133 0.0000 -3.0406 0.0000
# 3 77.3031 19.3133 167.5885 0.0000 -12.4772 0.0000
# 4 0.0000 0.0000 0.0000 32.2044 0.0000 2.1072
# 5 -22.2967 -3.0406 -12.4772 0.0000 67.6799 0.0000
# 6 0.0000 0.0000 0.0000 2.1072 0.0000 29.3883
#
#
#
# Elastic Compliance Matrix: (Units=1/GPa)
#
#
# Indices 1 2 3 4 5 6 
#
# 1 0.005112 -0.000185 -0.002243 0.000000 0.001262 0.000000
# 2 -0.000185 0.028232 -0.003121 0.000000 0.000632 0.000000
# 3 -0.002243 -0.003121 0.007397 0.000000 0.000485 0.000000
# 4 0.000000 0.000000 0.000000 0.031198 0.000000 -0.002237
# 5 0.001262 0.000632 0.000485 0.000000 0.015309 0.000000
# 6 0.000000 0.000000 0.000000 -0.002237 0.000000 0.034187
#
#
# Mechanical properties :
#
#
# Convention : Reuss Voigt Hill
#
# Bulk Modulus (GPa) = 33.73356 72.78944 53.26150
# Shear Modulus (GPa) = 35.10849 48.08742 41.59796
#
# Velocity S-wave (km/s) = 3.60184 4.21535 3.92061
# Velocity P-wave (km/s) = 5.45553 7.11261 6.33846
#
# Compressibility (1/GPa) = 0.02964407
#
# Stress axis : x y z
#
# Youngs Moduli (GPa) = 195.61323 35.42019 135.18470
#
# Poissons Ratio (x) = 0.00655 0.30319
# Poissons Ratio (y) = 0.03618 0.42194
# Poissons Ratio (z) = 0.43871 0.11055
#
# Static dielectric constant tensor:
#      x y z
#    x 2.231420 0.000000 -0.209790 
#    y 0.000000 2.002270 0.000000 
#    z -0.209790 0.000000 2.523060 
# 
# From -- ./inp_files/46337.got.cif
#   From: 2010.05.17/outbox.cif.g08.bks.cpg/sg15_24_cif.got.tgz:46337.got - 2010.06.03 18:47:42.
