data_PCOD9297278
_publ_section_title
;
Structure prediction by ZEFSAII (Michael W. Deem and Ramdas Pophale) SiO2 
 PCOD9297278
Probable space group: C 2/C
;
_chemical_formula_sum "Si O2"
_cell_formula_units_Z 28
_cell_length_a 4.826327
_cell_length_b 9.121959
_cell_length_c 25.290699
_cell_angle_alpha 90.000000
_cell_angle_beta 80.684132
_cell_angle_gamma 90.000000
_cell_volume 1098.751902
_symmetry_space_group_name_H-M "C 2/C"
_symmetry_group_IT_number 15
_symmetry_cell_setting 'monoclinic'
loop_
_space_group_symop_operation_xyz
x,y,z
-x,y,1/2-z
-x,-y,-z
x,-y,1/2+z
1/2+x,1/2+y,z
1/2-x,1/2+y,1/2-z
1/2-x,1/2-y,-z
1/2+x,1/2-y,1/2+z
loop_
_atom_site_type_symbol
_atom_site_label
_atom_site_fract_x
_atom_site_fract_y
_atom_site_fract_z
Si Si1 0.000000 0.341790 0.250000
Si Si2 0.878343 0.939471 0.699850
Si Si3 0.133862 0.241150 0.444333
Si Si4 0.667394 0.932002 0.906095
O O1 0.815145 0.224215 0.221998
O O2 0.874954 0.448704 0.299200
O O3 0.000000 0.007900 0.750000
O O4 0.113553 0.933954 0.648593
O O5 0.250000 0.250000 0.500000
O O6 0.389632 0.163515 0.404496
O O7 0.916171 0.595551 0.575088
O O8 0.854761 0.144326 0.446382
#
# Coordination Sequence:
#
# PCOD9297278 Si02
#       4
#     4   8   8   8
#     4  10  24  38  64  86 138 164 224 264 334 384
#     4  10  26  40  66  95 135 172 224 271 335 406
#     4  12  26  47  71 103 137 179 233 289 340 404
#     4  12  26  43  74  98 139 179 228 278 353 404
#
# _framework density 25.483457000000001
#
# number of rings (size 3 to 8) (size 9 to 14) (size 15 to 20)
#    0.857    0.000    0.000    6.000   10.000    0.000 
#    0.000    0.000    0.000    0.000    0.000    0.000 
#    0.000    0.000    0.000    0.000    0.000    0.000 
#
# Total GULP energy -78322.699228 kJ/mol
# GULP energy per Si atom -5594.478516 kJ/mol
# Density = 2.542546 g / cm^3
# Si number density = 25.483457 Si / 1000 Ang^3
#
#
#
# Elastic Constant Matrix: (Units=GPa)
#
#
# Indices 1 2 3 4 5 6 
#
# 1 94.4460 35.2250 -17.5386 0.0000 -8.4605 0.0000
# 2 35.2250 204.0591 8.7368 0.0000 -18.7280 0.0000
# 3 -17.5386 8.7368 78.0153 0.0000 -12.0205 0.0000
# 4 0.0000 0.0000 0.0000 561.1024 0.0000 28.1261
# 5 -8.4605 -18.7280 -12.0205 0.0000 40.0990 0.0000
# 6 0.0000 0.0000 0.0000 28.1261 0.0000 4.3129
#
#
#
# Elastic Compliance Matrix: (Units=1/GPa)
#
#
# Indices 1 2 3 4 5 6 
#
# 1 0.012201 -0.002008 0.003376 0.000000 0.002649 0.000000
# 2 -0.002008 0.005454 -0.000770 0.000000 0.001893 0.000000
# 3 0.003376 -0.000770 0.014382 0.000000 0.004664 0.000000
# 4 0.000000 0.000000 0.000000 0.002648 0.000000 -0.017267
# 5 0.002649 0.001893 0.004664 0.000000 0.027779 0.000000
# 6 0.000000 0.000000 0.000000 -0.017267 0.000000 0.344468
#
#
# Mechanical properties :
#
#
# Convention : Reuss Voigt Hill
#
# Bulk Modulus (GPa) = 30.09147 47.70743 38.89945
# Shear Modulus (GPa) = 11.99579 144.44268 78.21924
#
# Velocity S-wave (km/s) = 2.17198 7.53684 5.54624
# Velocity P-wave (km/s) = 4.25721 9.72112 7.50414
#
# Compressibility (1/GPa) = 0.03323201
#
# Stress axis : x y z
#
# Youngs Moduli (GPa) = 81.96057 183.35895 69.53252
#
# Poissons Ratio (x) = 0.36811 -0.23473
# Poissons Ratio (y) = 0.16454 0.05357
# Poissons Ratio (z) = -0.27668 0.14127
#
# Static dielectric constant tensor:
#      x y z
#    x -8.408660 0.000000 -0.154300 
#    y 0.000000 1.930170 0.000000 
#    z -0.154300 0.000000 2.058870 
# 
# From -- ./inp_files/226124.got.cif
#   From: 2010.05.17/outbox.cif.g08.bks.cpg/sg15_114_cif.got.tgz:226124.got - 2010.06.03 18:47:42.
