data_PCOD9297354
_publ_section_title
;
Structure prediction by ZEFSAII (Michael W. Deem and Ramdas Pophale) SiO2 
 PCOD9297354
Probable space group: C 2/C
;
_chemical_formula_sum "Si O2"
_cell_formula_units_Z 36
_cell_length_a 11.793973
_cell_length_b 7.378044
_cell_length_c 22.273521
_cell_angle_alpha 90.000000
_cell_angle_beta 60.428133
_cell_angle_gamma 90.000000
_cell_volume 1685.692560
_symmetry_space_group_name_H-M "C 2/C"
_symmetry_group_IT_number 15
_symmetry_cell_setting 'monoclinic'
loop_
_space_group_symop_operation_xyz
x,y,z
-x,y,1/2-z
-x,-y,-z
x,-y,1/2+z
1/2+x,1/2+y,z
1/2-x,1/2+y,1/2-z
1/2-x,1/2-y,-z
1/2+x,1/2-y,1/2+z
loop_
_atom_site_type_symbol
_atom_site_label
_atom_site_fract_x
_atom_site_fract_y
_atom_site_fract_z
Si Si1 0.500000 0.052731 0.750000
Si Si2 0.138598 0.545890 0.026724
Si Si3 0.750926 0.564507 0.379982
Si Si4 0.582083 0.155065 0.851674
Si Si5 0.643486 0.838584 0.909593
O O1 0.608197 0.932151 0.688635
O O2 0.565465 0.171273 0.785239
O O3 0.230613 0.620814 0.055073
O O4 0.059545 0.382173 0.081655
O O5 0.014679 0.671034 0.041452
O O6 0.195704 0.455576 0.952332
O O7 0.653321 0.687071 0.367978
O O8 0.703191 0.357465 0.390602
O O9 0.657397 0.966573 0.847674
#
# Coordination Sequence:
#
# PCOD9297354 Si02
#       5
#     4   8   8   8   8
#     4  10  24  40  50  84 118 136 206 238 246 338
#     4   8  19  40  54  90 120 128 187 241 262 347
#     4  11  21  38  60  79 113 156 180 230 282 321
#     4   9  21  39  56  82 111 149 186 227 281 329
#     4   9  19  40  58  86 117 139 182 235 278 333
#
# _framework density 21.356207000000001
#
# number of rings (size 3 to 8) (size 9 to 14) (size 15 to 20)
#    1.333    1.333    0.000    0.667    3.111    1.778 
#    8.000    2.222    0.000    0.000    0.000    0.000 
#    0.000    0.000    0.000    0.000    0.000    0.000 
#
# Total GULP energy -100341.234770 kJ/mol
# GULP energy per Si atom -5574.513043 kJ/mol
# Density = 2.130760 g / cm^3
# Si number density = 21.356207 Si / 1000 Ang^3
#
#
#
# Elastic Constant Matrix: (Units=GPa)
#
#
# Indices 1 2 3 4 5 6 
#
# 1 86.0549 21.1690 45.5777 0.0000 38.9130 0.0000
# 2 21.1690 44.4086 15.2971 0.0000 11.0617 0.0000
# 3 45.5777 15.2971 91.0945 0.0000 40.1731 0.0000
# 4 0.0000 0.0000 0.0000 17.4447 0.0000 9.8909
# 5 38.9130 11.0617 40.1731 0.0000 55.6186 0.0000
# 6 0.0000 0.0000 0.0000 9.8909 0.0000 38.2827
#
#
#
# Elastic Compliance Matrix: (Units=1/GPa)
#
#
# Indices 1 2 3 4 5 6 
#
# 1 0.019691 -0.005416 -0.004904 0.000000 -0.009157 0.000000
# 2 -0.005416 0.025674 -0.001498 0.000000 -0.000235 0.000000
# 3 -0.004904 -0.001498 0.017665 0.000000 -0.009031 0.000000
# 4 0.000000 0.000000 0.000000 0.067163 0.000000 -0.017353
# 5 -0.009157 -0.000235 -0.009031 0.000000 0.030956 0.000000
# 6 0.000000 0.000000 0.000000 -0.017353 0.000000 0.030605
#
#
# Mechanical properties :
#
#
# Convention : Reuss Voigt Hill
#
# Bulk Modulus (GPa) = 25.38440 42.84953 34.11696
# Shear Modulus (GPa) = 21.87970 31.57013 26.72492
#
# Velocity S-wave (km/s) = 3.20427 3.84899 3.54133
# Velocity P-wave (km/s) = 5.05982 6.31354 5.72113
#
# Compressibility (1/GPa) = 0.03939428
#
# Stress axis : x y z
#
# Youngs Moduli (GPa) = 50.78451 38.94923 56.60764
#
# Poissons Ratio (x) = 0.21096 0.27762
# Poissons Ratio (y) = 0.27506 0.08479
# Poissons Ratio (z) = 0.24906 0.05834
#
# Static dielectric constant tensor:
#      x y z
#    x 1.823650 0.000000 0.002490 
#    y 0.000000 1.762720 0.000000 
#    z 0.002490 0.000000 1.821870 
# 
# From -- ./inp_files/235451.got.cif
#   From: 2010.05.17/outbox.cif.g08.bks.cpg/sg15_118_cif.got.tgz:235451.got - 2010.06.03 18:47:42.
