data_PCOD9297714
_publ_section_title
;
Structure prediction by ZEFSAII (Michael W. Deem and Ramdas Pophale) SiO2 
 PCOD9297714
Probable space group: C 2/C
;
_chemical_formula_sum "Si O2"
_cell_formula_units_Z 40
_cell_length_a 13.672813
_cell_length_b 4.899572
_cell_length_c 21.821863
_cell_angle_alpha 90.000000
_cell_angle_beta 82.793784
_cell_angle_gamma 90.000000
_cell_volume 1450.319791
_symmetry_space_group_name_H-M "C 2/C"
_symmetry_group_IT_number 15
_symmetry_cell_setting 'monoclinic'
loop_
_space_group_symop_operation_xyz
x,y,z
-x,y,1/2-z
-x,-y,-z
x,-y,1/2+z
1/2+x,1/2+y,z
1/2-x,1/2+y,1/2-z
1/2-x,1/2-y,-z
1/2+x,1/2-y,1/2+z
loop_
_atom_site_type_symbol
_atom_site_label
_atom_site_fract_x
_atom_site_fract_y
_atom_site_fract_z
Si Si1 0.397445 0.236784 0.973176
Si Si2 0.622785 0.598349 0.784511
Si Si3 0.680045 0.239674 0.089082
Si Si4 0.599887 0.629221 0.413540
Si Si5 0.641370 0.092733 0.709761
O O1 0.362285 0.472574 0.928366
O O2 0.511717 0.190651 0.947160
O O3 0.333353 0.968882 0.966805
O O4 0.389684 0.377581 0.039827
O O5 0.573409 0.485129 0.849074
O O6 0.599117 0.903984 0.767279
O O7 0.739804 0.598176 0.790903
O O8 0.608852 0.398546 0.727433
O O9 0.793831 0.270502 0.099059
O O10 0.627096 0.068646 0.147629
#
# Coordination Sequence:
#
# PCOD9297714 Si02
#       5
#     8   8   8   8   8
#     4  11  25  41  63  95 122 161 211 248 302 371
#     4   9  18  34  58  85 116 158 196 243 304 353
#     4  11  23  42  65  91 125 162 202 255 307 359
#     4  10  24  42  65  90 127 163 202 256 305 359
#     4   9  18  34  58  86 116 154 201 243 297 364
#
# _framework density 27.580126
#
# number of rings (size 3 to 8) (size 9 to 14) (size 15 to 20)
#    0.000    2.000    0.000    2.400    0.000   12.800 
#    0.000    6.000    0.000    0.000    0.000    0.000 
#    0.000    0.000    0.000    0.000    0.000    0.000 
#
# Total GULP energy -112263.012152 kJ/mol
# GULP energy per Si atom -5613.150608 kJ/mol
# Density = 2.751735 g / cm^3
# Si number density = 27.580126 Si / 1000 Ang^3
#
#
#
# Elastic Constant Matrix: (Units=GPa)
#
#
# Indices 1 2 3 4 5 6 
#
# 1 128.0745 13.1974 11.3175 0.0000 -2.3382 0.0000
# 2 13.1974 131.9246 -8.4990 0.0000 9.2236 0.0000
# 3 11.3175 -8.4990 98.3655 0.0000 5.0923 0.0000
# 4 0.0000 0.0000 0.0000 26.3266 0.0000 3.4078
# 5 -2.3382 9.2236 5.0923 0.0000 41.1976 0.0000
# 6 0.0000 0.0000 0.0000 3.4078 0.0000 26.8331
#
#
#
# Elastic Compliance Matrix: (Units=1/GPa)
#
#
# Indices 1 2 3 4 5 6 
#
# 1 0.008010 -0.000924 -0.001042 0.000000 0.000790 0.000000
# 2 -0.000924 0.007864 0.000885 0.000000 -0.001922 0.000000
# 3 -0.001042 0.000885 0.010443 0.000000 -0.001548 0.000000
# 4 0.000000 0.000000 0.000000 0.038619 0.000000 -0.004905
# 5 0.000790 -0.001922 -0.001548 0.000000 0.024940 0.000000
# 6 0.000000 0.000000 0.000000 -0.004905 0.000000 0.037890
#
#
# Mechanical properties :
#
#
# Convention : Reuss Voigt Hill
#
# Bulk Modulus (GPa) = 41.39935 43.37738 42.38836
# Shear Modulus (GPa) = 36.23742 41.69469 38.96605
#
# Velocity S-wave (km/s) = 3.62870 3.89236 3.76284
# Velocity P-wave (km/s) = 5.70962 5.99688 5.85501
#
# Compressibility (1/GPa) = 0.02415497
#
# Stress axis : x y z
#
# Youngs Moduli (GPa) = 124.84921 127.16285 95.76044
#
# Poissons Ratio (x) = 0.11746 0.09981
# Poissons Ratio (y) = 0.11532 -0.08477
# Poissons Ratio (z) = 0.13013 -0.11257
#
# Static dielectric constant tensor:
#      x y z
#    x 2.166730 0.000000 0.023050 
#    y 0.000000 2.017430 0.000000 
#    z 0.023050 0.000000 2.165490 
# 
# From -- ./inp_files/271831.got.cif
#   From: 2010.05.17/outbox.cif.g08.bks.cpg/sg15_136_cif.got.tgz:271831.got - 2010.06.03 18:47:42.
