data_PCOD9297102
_publ_section_title
;
Structure prediction by ZEFSAII (Michael W. Deem and Ramdas Pophale) SiO2 
 PCOD9297102
Probable space group: C 2/C
;
_chemical_formula_sum "Si O2"
_cell_formula_units_Z 40
_cell_length_a 23.519793
_cell_length_b 11.087502
_cell_length_c 12.003774
_cell_angle_alpha 90.000000
_cell_angle_beta 145.917385
_cell_angle_gamma 90.000000
_cell_volume 1754.177846
_symmetry_space_group_name_H-M "C 2/C"
_symmetry_group_IT_number 15
_symmetry_cell_setting 'monoclinic'
loop_
_space_group_symop_operation_xyz
x,y,z
-x,y,1/2-z
-x,-y,-z
x,-y,1/2+z
1/2+x,1/2+y,z
1/2-x,1/2+y,1/2-z
1/2-x,1/2-y,-z
1/2+x,1/2-y,1/2+z
loop_
_atom_site_type_symbol
_atom_site_label
_atom_site_fract_x
_atom_site_fract_y
_atom_site_fract_z
Si Si1 0.318526 0.216577 0.215530
Si Si2 0.154494 0.783834 0.621110
Si Si3 0.402107 0.986930 0.417055
Si Si4 0.000000 0.049561 0.750000
Si Si5 0.500000 0.853794 0.250000
Si Si6 0.968235 0.839662 0.876436
O O1 0.263638 0.240219 0.244545
O O2 0.426927 0.288369 0.395127
O O3 0.324929 0.070584 0.224790
O O4 0.250000 0.250000 0.000000
O O5 0.115610 0.649732 0.582807
O O6 0.092512 0.861248 0.429289
O O7 0.124455 0.850222 0.687516
O O8 0.500000 0.000000 0.500000
O O9 0.421757 0.059679 0.562018
O O10 0.015809 0.960894 0.669462
O O11 0.447410 0.766642 0.253895
#
# Coordination Sequence:
#
# PCOD9297102 Si02
#       6
#     8   8   8   4   4   8
#     4  11  26  44  70 108 140 179 236 291 345 421
#     4  12  24  42  73  99 136 189 228 284 356 404
#     4  11  23  45  71 102 142 184 234 285 347 421
#     4  11  25  44  72  96 141 189 230 288 346 425
#     4   9  19  40  72  96 135 183 228 284 338 411
#     4  10  23  48  66  99 142 182 229 287 353 414
#
# _framework density 22.802707000000002
#
# number of rings (size 3 to 8) (size 9 to 14) (size 15 to 20)
#    0.000    1.200    4.000    2.400    5.600    0.000 
#    0.000    9.000    0.000    0.000    0.000    0.000 
#    0.000    0.000    0.000    0.000    0.000    0.000 
#
# Total GULP energy -111603.818706 kJ/mol
# GULP energy per Si atom -5580.190935 kJ/mol
# Density = 2.275081 g / cm^3
# Si number density = 22.802707 Si / 1000 Ang^3
#
#
#
# Elastic Constant Matrix: (Units=GPa)
#
#
# Indices 1 2 3 4 5 6 
#
# 1 126.7851 13.0477 20.7744 0.0000 6.5592 0.0000
# 2 13.0477 158.5963 32.4071 0.0000 -11.1974 0.0000
# 3 20.7744 32.4071 69.3078 0.0000 -25.5448 0.0000
# 4 0.0000 0.0000 0.0000 41.1111 0.0000 -2.7531
# 5 6.5592 -11.1974 -25.5448 0.0000 31.0888 0.0000
# 6 0.0000 0.0000 0.0000 -2.7531 0.0000 28.9001
#
#
#
# Elastic Compliance Matrix: (Units=1/GPa)
#
#
# Indices 1 2 3 4 5 6 
#
# 1 0.008995 -0.000178 -0.004785 0.000000 -0.005894 0.000000
# 2 -0.000178 0.006976 -0.003254 0.000000 -0.000123 0.000000
# 3 -0.004785 -0.003254 0.024850 0.000000 0.020256 0.000000
# 4 0.000000 0.000000 0.000000 0.024481 0.000000 0.002332
# 5 -0.005894 -0.000123 0.020256 0.000000 0.050009 0.000000
# 6 0.000000 0.000000 0.000000 0.002332 0.000000 0.034824
#
#
# Mechanical properties :
#
#
# Convention : Reuss Voigt Hill
#
# Bulk Modulus (GPa) = 41.00663 54.12752 47.56707
# Shear Modulus (GPa) = 28.62099 39.45066 34.03583
#
# Velocity S-wave (km/s) = 3.54666 4.16394 3.86764
# Velocity P-wave (km/s) = 5.89865 6.84885 6.39143
#
# Compressibility (1/GPa) = 0.02438630
#
# Stress axis : x y z
#
# Youngs Moduli (GPa) = 111.17729 143.34487 40.24175
#
# Poissons Ratio (x) = 0.02557 0.19255
# Poissons Ratio (y) = 0.01983 0.13095
# Poissons Ratio (z) = 0.53197 0.46644
#
# Static dielectric constant tensor:
#      x y z
#    x 1.883910 0.000000 -0.084970 
#    y 0.000000 2.069460 0.000000 
#    z -0.084970 0.000000 1.675320 
# 
# From -- ./inp_files/111891.got.cif
#   From: 2010.05.17/outbox.cif.g08.bks.cpg/sg15_56_cif.got.tgz:111891.got - 2010.06.03 18:47:42.
