data_PCOD9297517
_publ_section_title
;
Structure prediction by ZEFSAII (Michael W. Deem and Ramdas Pophale) SiO2 
 PCOD9297517
Probable space group: C 2/C
;
_chemical_formula_sum "Si O2"
_cell_formula_units_Z 28
_cell_length_a 8.212230
_cell_length_b 13.393607
_cell_length_c 19.821273
_cell_angle_alpha 90.000000
_cell_angle_beta 33.083809
_cell_angle_gamma 90.000000
_cell_volume 1190.078518
_symmetry_space_group_name_H-M "C 2/C"
_symmetry_group_IT_number 15
_symmetry_cell_setting 'monoclinic'
loop_
_space_group_symop_operation_xyz
x,y,z
-x,y,1/2-z
-x,-y,-z
x,-y,1/2+z
1/2+x,1/2+y,z
1/2-x,1/2+y,1/2-z
1/2-x,1/2-y,-z
1/2+x,1/2-y,1/2+z
loop_
_atom_site_type_symbol
_atom_site_label
_atom_site_fract_x
_atom_site_fract_y
_atom_site_fract_z
Si Si1 0.263933 0.231450 0.916688
Si Si2 0.000000 0.575697 0.750000
Si Si3 0.811473 0.444995 0.623128
Si Si4 0.186120 0.608759 0.125638
O O1 0.956003 0.175006 0.007139
O O2 0.250000 0.250000 0.000000
O O3 0.519527 0.153687 0.804632
O O4 0.274768 0.337268 0.877420
O O5 0.257113 0.495002 0.641931
O O6 0.500000 0.497835 0.750000
O O7 0.000000 0.500000 0.500000
O O8 0.992323 0.425643 0.629243
O O9 0.000000 0.664096 0.250000
#
# Coordination Sequence:
#
# PCOD9297517 Si02
#       4
#     8   4   8   8
#     4  12  24  46  73 104 143 194 243 304 374 451
#     4  10  24  40  76  96 150 176 246 288 386 420
#     4  12  27  47  73 108 152 195 254 307 371 447
#     4  10  25  44  72 105 144 188 242 305 378 439
#
# _framework density 23.527857999999998
#
# number of rings (size 3 to 8) (size 9 to 14) (size 15 to 20)
#    0.857    0.000    1.429    5.143    4.000    1.143 
#    0.000    0.000    0.000    0.000    0.000    0.000 
#    0.000    0.000    0.000    0.000    0.000    0.000 
#
# Total GULP energy -78136.799445 kJ/mol
# GULP energy per Si atom -5581.199960 kJ/mol
# Density = 2.347431 g / cm^3
# Si number density = 23.527858 Si / 1000 Ang^3
#
#
#
# Elastic Constant Matrix: (Units=GPa)
#
#
# Indices 1 2 3 4 5 6 
#
# 1 127.2082 -5.9157 47.1049 -0.0094 20.9555 -0.0007
# 2 -5.9157 90.9626 37.1778 -0.0321 12.7465 0.0014
# 3 47.1049 37.1778 150.5003 -0.0742 23.1301 -0.0005
# 4 -0.0094 -0.0321 -0.0742 50.4496 0.0016 13.1677
# 5 20.9555 12.7465 23.1301 0.0016 39.8659 0.0013
# 6 -0.0007 0.0014 -0.0005 13.1677 0.0013 20.5283
#
#
#
# Elastic Compliance Matrix: (Units=1/GPa)
#
#
# Indices 1 2 3 4 5 6 
#
# 1 0.009784 0.002459 -0.003029 -0.000001 -0.004172 0.000001
# 2 0.002459 0.013053 -0.003463 0.000005 -0.003457 -0.000004
# 3 -0.003029 -0.003463 0.008819 0.000012 -0.002418 -0.000007
# 4 -0.000001 0.000005 0.000012 0.023808 -0.000008 -0.015271
# 5 -0.004172 -0.003457 -0.002418 -0.000008 0.029785 0.000004
# 6 0.000001 -0.000004 -0.000007 -0.015271 0.000004 0.058509
#
#
# Mechanical properties :
#
#
# Convention : Reuss Voigt Hill
#
# Bulk Modulus (GPa) = 42.38790 58.37836 50.38313
# Shear Modulus (GPa) = 31.31111 41.52236 36.41674
#
# Velocity S-wave (km/s) = 3.65198 4.20553 3.93849
# Velocity P-wave (km/s) = 5.98647 6.96048 6.49177
#
# Compressibility (1/GPa) = 0.02359164
#
# Stress axis : x y z
#
# Youngs Moduli (GPa) = 102.20555 76.60996 113.38636
#
# Poissons Ratio (x) = -0.18836 0.34339
# Poissons Ratio (y) = -0.25130 0.39263
# Poissons Ratio (z) = 0.30953 0.26528
#
# Static dielectric constant tensor:
#      x y z
#    x 2.049990 0.000180 1.342930 
#    y 0.000180 1.917310 0.001700 
#    z 1.342930 0.001700 13.752240 
# 
# From -- ./inp_files/75113.got.cif
#   From: 2010.05.17/outbox.cif.g08.bks.cpg/sg15_38_cif.got.tgz:75113.got - 2010.06.03 18:47:42.
