data_PCOD9297652
_publ_section_title
;
Structure prediction by ZEFSAII (Michael W. Deem and Ramdas Pophale) SiO2 
 PCOD9297652
Probable space group: C 2/C
;
_chemical_formula_sum "Si O2"
_cell_formula_units_Z 44
_cell_length_a 19.922478
_cell_length_b 6.586070
_cell_length_c 15.832879
_cell_angle_alpha 90.000000
_cell_angle_beta 94.808431
_cell_angle_gamma 90.000000
_cell_volume 2070.133774
_symmetry_space_group_name_H-M "C 2/C"
_symmetry_group_IT_number 15
_symmetry_cell_setting 'monoclinic'
loop_
_space_group_symop_operation_xyz
x,y,z
-x,y,1/2-z
-x,-y,-z
x,-y,1/2+z
1/2+x,1/2+y,z
1/2-x,1/2+y,1/2-z
1/2-x,1/2-y,-z
1/2+x,1/2-y,1/2+z
loop_
_atom_site_type_symbol
_atom_site_label
_atom_site_fract_x
_atom_site_fract_y
_atom_site_fract_z
Si Si1 0.061442 0.948442 0.392351
Si Si2 0.103106 0.436661 0.166009
Si Si3 0.833553 0.717999 0.186287
Si Si4 0.583566 0.704087 0.556965
Si Si5 0.500000 0.305619 0.750000
Si Si6 0.692887 0.540568 0.175546
O O1 0.078603 0.120340 0.462194
O O2 0.054043 0.051651 0.300093
O O3 0.120897 0.787296 0.387169
O O4 0.988562 0.854798 0.408113
O O5 0.120432 0.594068 0.242503
O O6 0.096825 0.560797 0.078773
O O7 0.158172 0.260696 0.174891
O O8 0.033330 0.329365 0.181738
O O9 0.769629 0.579919 0.156629
O O10 0.807104 0.914422 0.236574
O O11 0.645216 0.585924 0.607746
#
# Coordination Sequence:
#
# PCOD9297652 Si02
#       6
#     8   8   8   8   4   8
#     4  11  22  42  63  93 128 161 209 263 312 379
#     4  11  21  38  64  91 119 164 207 259 307 366
#     4  11  22  39  66  92 123 165 214 261 306 374
#     4  10  24  42  60  91 134 162 200 265 322 368
#     4  12  20  38  70  92 116 166 222 254 306 374
#     4  11  21  39  63  91 124 164 210 255 307 374
#
# _framework density 21.254663999999998
#
# number of rings (size 3 to 8) (size 9 to 14) (size 15 to 20)
#    0.000    1.091    5.455    2.182    0.000    1.455 
#    3.273    0.909    0.000    0.000    0.000    0.000 
#    0.000    0.000    0.000    0.000    0.000    0.000 
#
# Total GULP energy -122904.938226 kJ/mol
# GULP energy per Si atom -5586.588101 kJ/mol
# Density = 2.120629 g / cm^3
# Si number density = 21.254664 Si / 1000 Ang^3
#
#
#
# Elastic Constant Matrix: (Units=GPa)
#
#
# Indices 1 2 3 4 5 6 
#
# 1 114.5473 6.4289 12.2630 0.0000 6.0750 0.0000
# 2 6.4289 52.4508 -5.5379 0.0000 -1.7289 0.0000
# 3 12.2630 -5.5379 44.8882 0.0000 3.6207 0.0000
# 4 0.0000 0.0000 0.0000 6.6554 0.0000 -8.6040
# 5 6.0750 -1.7289 3.6207 0.0000 16.5828 0.0000
# 6 0.0000 0.0000 0.0000 -8.6040 0.0000 31.7199
#
#
#
# Elastic Compliance Matrix: (Units=1/GPa)
#
#
# Indices 1 2 3 4 5 6 
#
# 1 0.009237 -0.001491 -0.002465 0.000000 -0.003001 0.000000
# 2 -0.001491 0.019596 0.002663 0.000000 0.002008 0.000000
# 3 -0.002465 0.002663 0.023600 0.000000 -0.003972 0.000000
# 4 0.000000 0.000000 0.000000 0.231399 0.000000 0.062767
# 5 -0.003001 0.002008 -0.003972 0.000000 0.062479 0.000000
# 6 0.000000 0.000000 0.000000 0.062767 0.000000 0.048552
#
#
# Mechanical properties :
#
#
# Convention : Reuss Voigt Hill
#
# Bulk Modulus (GPa) = 20.06217 26.46603 23.26410
# Shear Modulus (GPa) = 12.07539 24.24043 18.15791
#
# Velocity S-wave (km/s) = 2.38613 3.38076 2.92602
# Velocity P-wave (km/s) = 4.12928 5.26481 4.73124
#
# Compressibility (1/GPa) = 0.04984505
#
# Stress axis : x y z
#
# Youngs Moduli (GPa) = 108.26245 51.03175 42.37289
#
# Poissons Ratio (x) = 0.07611 0.10446
# Poissons Ratio (y) = 0.16146 -0.11284
# Poissons Ratio (z) = 0.26690 -0.13590
#
# Static dielectric constant tensor:
#      x y z
#    x 1.786510 0.000000 -0.006660 
#    y 0.000000 1.794850 0.000000 
#    z -0.006660 0.000000 1.739880 
# 
# From -- ./inp_files/170867.got.cif
#   From: 2010.05.17/outbox.cif.g08.bks.cpg/sg15_86_cif.got.tgz:170867.got - 2010.06.03 18:47:42.
