data_PCOD9297453
_publ_section_title
;
Structure prediction by ZEFSAII (Michael W. Deem and Ramdas Pophale) SiO2 
 PCOD9297453
Probable space group: C 2/C
;
_chemical_formula_sum "Si O2"
_cell_formula_units_Z 32
_cell_length_a 26.056082
_cell_length_b 9.071521
_cell_length_c 19.820169
_cell_angle_alpha 90.000000
_cell_angle_beta 18.145000
_cell_angle_gamma 90.000000
_cell_volume 1458.972394
_symmetry_space_group_name_H-M "C 2/C"
_symmetry_group_IT_number 15
_symmetry_cell_setting 'monoclinic'
loop_
_space_group_symop_operation_xyz
x,y,z
-x,y,1/2-z
-x,-y,-z
x,-y,1/2+z
1/2+x,1/2+y,z
1/2-x,1/2+y,1/2-z
1/2-x,1/2-y,-z
1/2+x,1/2-y,1/2+z
loop_
_atom_site_type_symbol
_atom_site_label
_atom_site_fract_x
_atom_site_fract_y
_atom_site_fract_z
Si Si1 0.787190 0.001695 0.334820
Si Si2 0.992288 0.498667 0.407908
Si Si3 0.322942 0.405263 0.936180
Si Si4 0.995308 0.751393 0.004369
O O1 0.595904 0.002195 0.553973
O O2 0.830916 0.996906 0.358586
O O3 0.866598 0.149763 0.204204
O O4 0.867363 0.865696 0.195310
O O5 0.928221 0.360125 0.531496
O O6 0.950558 0.643417 0.502928
O O7 0.187480 0.475998 0.155045
O O8 0.500000 0.387561 0.750000
O O9 0.250000 0.250000 0.000000
#
# Coordination Sequence:
#
# PCOD9297453 Si02
#       4
#     8   8   8   8
#     4  11  23  43  69  98 133 173 218 270 325 388
#     4  11  23  43  69  98 133 173 218 270 325 388
#     4  12  26  43  66  95 130 174 220 270 328 393
#     4  10  24  40  68 102 134 168 218 268 326 388
#
# _framework density 21.933243999999998
#
# number of rings (size 3 to 8) (size 9 to 14) (size 15 to 20)
#    0.000    1.000    2.500    3.750    0.000   11.000 
#    0.000    0.000    0.000    0.000    0.000    0.000 
#    0.000    0.000    0.000    0.000    0.000    0.000 
#
# Total GULP energy -89455.586283 kJ/mol
# GULP energy per Si atom -5590.974143 kJ/mol
# Density = 2.188332 g / cm^3
# Si number density = 21.933244 Si / 1000 Ang^3
#
#
#
# Elastic Constant Matrix: (Units=GPa)
#
#
# Indices 1 2 3 4 5 6 
#
# 1 140.6190 25.1062 37.4125 0.0000 -13.8033 0.0000
# 2 25.1062 105.0544 23.9391 -0.0001 4.8405 0.0000
# 3 37.4125 23.9391 53.1655 0.0000 2.3977 0.0000
# 4 0.0000 -0.0001 0.0000 9.3820 0.0000 9.2166
# 5 -13.8033 4.8405 2.3977 0.0000 44.8922 0.0000
# 6 0.0000 0.0000 0.0000 9.2166 0.0000 12.5141
#
#
#
# Elastic Compliance Matrix: (Units=1/GPa)
#
#
# Indices 1 2 3 4 5 6 
#
# 1 0.009263 -0.000943 -0.006242 0.000000 0.003283 0.000000
# 2 -0.000943 0.010739 -0.004117 0.000000 -0.001228 0.000000
# 3 -0.006242 -0.004117 0.025182 0.000000 -0.002820 0.000000
# 4 0.000000 0.000000 0.000000 0.385500 0.000000 -0.283918
# 5 0.003283 -0.001228 -0.002820 0.000000 0.023568 0.000000
# 6 0.000000 0.000000 0.000000 -0.283918 0.000000 0.289013
#
#
# Mechanical properties :
#
#
# Convention : Reuss Voigt Hill
#
# Bulk Modulus (GPa) = 44.28375 52.41718 48.35046
# Shear Modulus (GPa) = 6.46501 27.51640 16.99071
#
# Velocity S-wave (km/s) = 1.71872 3.54581 2.78628
# Velocity P-wave (km/s) = 4.91658 6.38076 5.69591
#
# Compressibility (1/GPa) = 0.02258165
#
# Stress axis : x y z
#
# Youngs Moduli (GPa) = 107.96077 93.12023 39.71030
#
# Poissons Ratio (x) = 0.08777 0.24786
# Poissons Ratio (y) = 0.10176 0.16348
# Poissons Ratio (z) = 0.67386 0.38336
#
# Static dielectric constant tensor:
#      x y z
#    x 1.811620 0.000000 -0.001860 
#    y 0.000000 1.812140 0.000000 
#    z -0.001860 0.000000 1.781130 
# 
# From -- ./inp_files/257096.got.cif
#   From: 2010.05.17/outbox.cif.g08.bks.cpg/sg15_129_cif.got.tgz:257096.got - 2010.06.03 18:47:42.
