data_PCOD9297575
_publ_section_title
;
Structure prediction by ZEFSAII (Michael W. Deem and Ramdas Pophale) SiO2 
 PCOD9297575
Probable space group: C 2/C
;
_chemical_formula_sum "Si O2"
_cell_formula_units_Z 40
_cell_length_a 18.661221
_cell_length_b 12.053166
_cell_length_c 9.000152
_cell_angle_alpha 90.000000
_cell_angle_beta 94.141664
_cell_angle_gamma 90.000000
_cell_volume 2019.088740
_symmetry_space_group_name_H-M "C 2/C"
_symmetry_group_IT_number 15
_symmetry_cell_setting 'monoclinic'
loop_
_space_group_symop_operation_xyz
x,y,z
-x,y,1/2-z
-x,-y,-z
x,-y,1/2+z
1/2+x,1/2+y,z
1/2-x,1/2+y,1/2-z
1/2-x,1/2-y,-z
1/2+x,1/2-y,1/2+z
loop_
_atom_site_type_symbol
_atom_site_label
_atom_site_fract_x
_atom_site_fract_y
_atom_site_fract_z
Si Si1 0.002756 0.119798 0.076113
Si Si2 0.577843 0.743219 0.842676
Si Si3 0.214242 0.364770 0.939703
Si Si4 0.261316 0.916003 0.887310
Si Si5 0.857798 0.796449 0.441229
O O1 0.000000 0.103549 0.250000
O O2 0.933515 0.194815 0.032219
O O3 0.065884 0.180978 0.996083
O O4 0.000000 0.000000 0.000000
O O5 0.500000 0.764026 0.750000
O O6 0.630210 0.845190 0.886584
O O7 0.623786 0.673915 0.727421
O O8 0.251144 0.402349 0.790410
O O9 0.250000 0.250000 0.000000
O O10 0.220252 0.459818 0.063279
O O11 0.323587 0.826055 0.934919
O O12 0.195277 0.876666 0.979307
#
# Coordination Sequence:
#
# PCOD9297575 Si02
#       5
#     8   8   8   8   8
#     4  11  23  36  62  90 125 171 215 271 324 386
#     4   9  21  44  62  91 131 164 219 263 323 385
#     4  11  26  41  68  99 133 172 221 271 330 397
#     4  10  24  41  66  93 133 168 217 268 332 384
#     4   9  21  42  62  89 129 170 211 269 322 381
#
# _framework density 19.810917
#
# number of rings (size 3 to 8) (size 9 to 14) (size 15 to 20)
#    0.000    2.000    0.000    1.800   14.000    0.000 
#    0.000   10.000    0.000    0.000    0.000    0.000 
#    0.000    0.000    0.000    0.000    0.000    0.000 
#
# Total GULP energy -111499.559943 kJ/mol
# GULP energy per Si atom -5574.977997 kJ/mol
# Density = 1.976583 g / cm^3
# Si number density = 19.810917 Si / 1000 Ang^3
#
#
#
# Elastic Constant Matrix: (Units=GPa)
#
#
# Indices 1 2 3 4 5 6 
#
# 1 69.5404 16.5921 41.6484 0.0000 -29.0102 0.0000
# 2 16.5921 68.1034 50.8709 0.0000 -12.1688 0.0000
# 3 41.6484 50.8709 182.7058 0.0000 -27.2238 0.0000
# 4 0.0000 0.0000 0.0000 41.5421 0.0000 5.9684
# 5 -29.0102 -12.1688 -27.2238 0.0000 31.1224 0.0000
# 6 0.0000 0.0000 0.0000 5.9684 0.0000 1.3035
#
#
#
# Elastic Compliance Matrix: (Units=1/GPa)
#
#
# Indices 1 2 3 4 5 6 
#
# 1 0.024505 -0.000521 -0.002378 0.000000 0.020558 0.000000
# 2 -0.000521 0.018822 -0.004712 0.000000 0.002752 0.000000
# 3 -0.002378 -0.004712 0.007730 0.000000 0.002703 0.000000
# 4 0.000000 0.000000 0.000000 0.070347 0.000000 -0.322093
# 5 0.020558 0.002752 0.002703 0.000000 0.054735 0.000000
# 6 0.000000 0.000000 0.000000 -0.322093 0.000000 2.241876
#
#
# Mechanical properties :
#
#
# Convention : Reuss Voigt Hill
#
# Bulk Modulus (GPa) = 27.90486 59.84137 43.87312
# Shear Modulus (GPa) = 2.04484 28.87616 15.46050
#
# Velocity S-wave (km/s) = 1.01706 3.82198 2.79660
# Velocity P-wave (km/s) = 3.93642 7.05326 5.71156
#
# Compressibility (1/GPa) = 0.03583605
#
# Stress axis : x y z
#
# Youngs Moduli (GPa) = 40.80865 53.13013 129.36722
#
# Poissons Ratio (x) = 0.02766 0.30760
# Poissons Ratio (y) = 0.02125 0.60954
# Poissons Ratio (z) = 0.09703 0.25033
#
# Static dielectric constant tensor:
#      x y z
#    x 1.753210 0.000000 0.003850 
#    y 0.000000 1.674460 0.000000 
#    z 0.003850 0.000000 1.755360 
# 
# From -- ./inp_files/46087.got.cif
#   From: 2010.05.17/outbox.cif.g08.bks.cpg/sg15_24_cif.got.tgz:46087.got - 2010.06.03 18:47:42.
