data_PCOD9297554
_publ_section_title
;
Structure prediction by ZEFSAII (Michael W. Deem and Ramdas Pophale) SiO2 
 PCOD9297554
Probable space group: C 2/C
;
_chemical_formula_sum "Si O2"
_cell_formula_units_Z 56
_cell_length_a 6.010175
_cell_length_b 18.825412
_cell_length_c 24.673813
_cell_angle_alpha 90.000000
_cell_angle_beta 104.473315
_cell_angle_gamma 90.000000
_cell_volume 2703.097604
_symmetry_space_group_name_H-M "C 2/C"
_symmetry_group_IT_number 15
_symmetry_cell_setting 'monoclinic'
loop_
_space_group_symop_operation_xyz
x,y,z
-x,y,1/2-z
-x,-y,-z
x,-y,1/2+z
1/2+x,1/2+y,z
1/2-x,1/2+y,1/2-z
1/2-x,1/2-y,-z
1/2+x,1/2-y,1/2+z
loop_
_atom_site_type_symbol
_atom_site_label
_atom_site_fract_x
_atom_site_fract_y
_atom_site_fract_z
Si Si1 0.655400 0.666561 0.433781
Si Si2 0.500000 0.580798 0.250000
Si Si3 0.249920 0.226588 0.162378
Si Si4 0.106087 0.836515 0.155955
Si Si5 0.183846 0.485696 0.307220
Si Si6 0.512058 0.710965 0.972657
Si Si7 0.000000 0.256403 0.250000
Si Si8 0.093550 0.397039 0.647083
O O1 0.474214 0.712547 0.387591
O O2 0.530556 0.651831 0.483249
O O3 0.849393 0.720669 0.463425
O O4 0.781654 0.608619 0.403783
O O5 0.359306 0.535875 0.286044
O O6 0.700573 0.613165 0.298388
O O7 0.377845 0.302861 0.170042
O O8 0.166350 0.215437 0.218408
O O9 0.427484 0.169701 0.148494
O O10 0.170551 0.918822 0.164098
O O11 0.044697 0.820132 0.089775
O O12 0.325640 0.798922 0.199010
O O13 0.000000 0.462535 0.250000
O O14 0.047303 0.532128 0.344234
O O15 0.750000 0.750000 0.000000
#
# Coordination Sequence:
#
# PCOD9297554 Si02
#       8
#     8   4   8   8   8   8   4   8
#     4  11  22  40  67  98 131 173 228 285 341 405
#     4  10  24  41  64  92 135 184 222 272 335 416
#     4  12  24  40  66 100 136 172 223 289 336 414
#     4  12  24  42  66  99 137 176 224 284 346 416
#     4  10  24  42  64  92 138 186 224 271 355 423
#     4  11  22  43  67  99 133 178 227 288 352 402
#     4  12  26  39  62 104 137 166 218 278 347 400
#     4  11  23  43  64  96 134 181 228 281 342 418
#
# _framework density 20.716972999999999
#
# number of rings (size 3 to 8) (size 9 to 14) (size 15 to 20)
#    0.000    0.857    5.000    1.286    2.000   10.857 
#    0.000    0.714    0.000    6.000    0.000    0.000 
#    0.000    0.000    0.000    0.000    0.000    0.000 
#
# Total GULP energy -156030.042546 kJ/mol
# GULP energy per Si atom -5572.501520 kJ/mol
# Density = 2.066982 g / cm^3
# Si number density = 20.716973 Si / 1000 Ang^3
#
#
#
# Elastic Constant Matrix: (Units=GPa)
#
#
# Indices 1 2 3 4 5 6 
#
# 1 113.0487 25.1555 50.8167 0.0000 13.7924 0.0000
# 2 25.1555 58.0144 23.1939 0.0000 7.0159 0.0000
# 3 50.8167 23.1939 135.9082 0.0000 -0.8093 0.0000
# 4 0.0000 0.0000 0.0000 24.4012 0.0000 7.8060
# 5 13.7924 7.0159 -0.8093 0.0000 43.0908 0.0000
# 6 0.0000 0.0000 0.0000 7.8060 0.0000 23.4472
#
#
#
# Elastic Compliance Matrix: (Units=1/GPa)
#
#
# Indices 1 2 3 4 5 6 
#
# 1 0.011675 -0.003123 -0.003852 0.000000 -0.003301 0.000000
# 2 -0.003123 0.019750 -0.002216 0.000000 -0.002258 0.000000
# 3 -0.003852 -0.002216 0.009187 0.000000 0.001766 0.000000
# 4 0.000000 0.000000 0.000000 0.045866 0.000000 -0.015270
# 5 -0.003301 -0.002258 0.001766 0.000000 0.024664 0.000000
# 6 0.000000 0.000000 0.000000 -0.015270 0.000000 0.047733
#
#
# Mechanical properties :
#
#
# Convention : Reuss Voigt Hill
#
# Bulk Modulus (GPa) = 44.98534 56.14481 50.56507
# Shear Modulus (GPa) = 27.07563 32.04153 29.55858
#
# Velocity S-wave (km/s) = 3.61907 3.93699 3.78137
# Velocity P-wave (km/s) = 6.26298 6.91565 6.59739
#
# Compressibility (1/GPa) = 0.02222946
#
# Stress axis : x y z
#
# Youngs Moduli (GPa) = 85.65373 50.63189 108.85053
#
# Poissons Ratio (x) = 0.15813 0.41929
# Poissons Ratio (y) = 0.26751 0.24124
# Poissons Ratio (z) = 0.32993 0.11221
#
# Static dielectric constant tensor:
#      x y z
#    x 1.890930 0.000000 -0.115810 
#    y 0.000000 1.822710 0.000000 
#    z -0.115810 0.000000 1.845340 
# 
# From -- ./inp_files/261427.got.cif
#   From: 2010.05.17/outbox.cif.g08.bks.cpg/sg15_131_cif.got.tgz:261427.got - 2010.06.03 18:47:42.
