data_PCOD9297958
_publ_section_title
;
Structure prediction by ZEFSAII (Michael W. Deem and Ramdas Pophale) SiO2 
 PCOD9297958
Probable space group: C 2/C
;
_chemical_formula_sum "Si O2"
_cell_formula_units_Z 44
_cell_length_a 11.577206
_cell_length_b 12.146360
_cell_length_c 13.610480
_cell_angle_alpha 90.000000
_cell_angle_beta 80.741530
_cell_angle_gamma 90.000000
_cell_volume 1888.984719
_symmetry_space_group_name_H-M "C 2/C"
_symmetry_group_IT_number 15
_symmetry_cell_setting 'monoclinic'
loop_
_space_group_symop_operation_xyz
x,y,z
-x,y,1/2-z
-x,-y,-z
x,-y,1/2+z
1/2+x,1/2+y,z
1/2-x,1/2+y,1/2-z
1/2-x,1/2-y,-z
1/2+x,1/2-y,1/2+z
loop_
_atom_site_type_symbol
_atom_site_label
_atom_site_fract_x
_atom_site_fract_y
_atom_site_fract_z
Si Si1 0.431515 0.685771 0.474681
Si Si2 0.103405 0.468680 0.661904
Si Si3 0.500000 0.635028 0.250000
Si Si4 0.643949 0.723498 0.589853
Si Si5 0.716628 0.525864 0.719820
Si Si6 0.191171 0.414880 0.973124
O O1 0.477490 0.698147 0.355655
O O2 0.537173 0.675987 0.537900
O O3 0.329996 0.592443 0.483698
O O4 0.363401 0.794923 0.515379
O O5 0.115823 0.337087 0.650151
O O6 0.213774 0.537048 0.689839
O O7 0.108941 0.509481 0.550100
O O8 0.000000 0.496253 0.750000
O O9 0.391123 0.554684 0.247111
O O10 0.750000 0.750000 0.500000
O O11 0.679656 0.634267 0.666686
O O12 0.804831 0.460454 0.636703
#
# Coordination Sequence:
#
# PCOD9297958 Si02
#       6
#     8   8   4   8   8   8
#     4  10  24  45  75 102 142 189 237 282 362 415
#     4  12  28  44  71 104 143 186 238 293 361 418
#     4  10  24  42  74 108 136 186 238 298 336 430
#     4  12  26  45  74 101 143 191 237 291 351 434
#     4  11  26  45  70 104 143 183 239 294 352 420
#     4  10  24  47  68 103 144 186 225 304 348 422
#
# _framework density 23.292937999999999
#
# number of rings (size 3 to 8) (size 9 to 14) (size 15 to 20)
#    0.000    1.091    1.818    2.182    7.636    7.273 
#    0.000    0.000    0.000    0.000    0.000    0.000 
#    0.000    0.000    0.000    0.000    0.000    0.000 
#
# Total GULP energy -123017.633724 kJ/mol
# GULP energy per Si atom -5591.710624 kJ/mol
# Density = 2.323992 g / cm^3
# Si number density = 23.292938 Si / 1000 Ang^3
#
#
#
# Elastic Constant Matrix: (Units=GPa)
#
#
# Indices 1 2 3 4 5 6 
#
# 1 113.9976 -4.1909 40.2368 0.0000 22.0260 0.0000
# 2 -4.1909 38.1929 -6.5938 0.0000 15.6869 0.0000
# 3 40.2368 -6.5938 94.6872 0.0000 -7.1876 0.0000
# 4 0.0000 0.0000 0.0000 51.3313 0.0000 0.5326
# 5 22.0260 15.6869 -7.1876 0.0000 45.1539 0.0000
# 6 0.0000 0.0000 0.0000 0.5326 0.0000 24.2953
#
#
#
# Elastic Compliance Matrix: (Units=1/GPa)
#
#
# Indices 1 2 3 4 5 6 
#
# 1 0.012536 0.003822 -0.005695 0.000000 -0.008349 0.000000
# 2 0.003822 0.031874 -0.000391 0.000000 -0.013000 0.000000
# 3 -0.005695 -0.000391 0.013336 0.000000 0.005037 0.000000
# 4 0.000000 0.000000 0.000000 0.019486 0.000000 -0.000427
# 5 -0.008349 -0.013000 0.005037 0.000000 0.031537 0.000000
# 6 0.000000 0.000000 0.000000 -0.000427 0.000000 0.041170
#
#
# Mechanical properties :
#
#
# Convention : Reuss Voigt Hill
#
# Bulk Modulus (GPa) = 18.79083 33.97578 26.38331
# Shear Modulus (GPa) = 29.03502 38.65114 33.84308
#
# Velocity S-wave (km/s) = 3.53443 4.07793 3.81587
# Velocity P-wave (km/s) = 4.97403 6.06553 5.54670
#
# Compressibility (1/GPa) = 0.05321744
#
# Stress axis : x y z
#
# Youngs Moduli (GPa) = 79.77177 31.37352 74.98452
#
# Poissons Ratio (x) = -0.11990 0.42701
# Poissons Ratio (y) = -0.30485 0.02933
# Poissons Ratio (z) = 0.45427 0.01227
#
# Static dielectric constant tensor:
#      x y z
#    x 1.983200 0.000000 0.047410 
#    y 0.000000 1.846420 0.000000 
#    z 0.047410 0.000000 1.830760 
# 
# From -- ./inp_files/142250.got.cif
#   From: 2010.05.17/outbox.cif.g08.bks.cpg/sg15_72_cif.got.tgz:142250.got - 2010.06.03 18:47:42.
