data_PCOD9297444
_publ_section_title
;
Structure prediction by ZEFSAII (Michael W. Deem and Ramdas Pophale) SiO2 
 PCOD9297444
Probable space group: C 2/C
;
_chemical_formula_sum "Si O2"
_cell_formula_units_Z 60
_cell_length_a 20.735984
_cell_length_b 15.042794
_cell_length_c 8.249661
_cell_angle_alpha 90.000000
_cell_angle_beta 79.271070
_cell_angle_gamma 90.000000
_cell_volume 2528.309193
_symmetry_space_group_name_H-M "C 2/C"
_symmetry_group_IT_number 15
_symmetry_cell_setting 'monoclinic'
loop_
_space_group_symop_operation_xyz
x,y,z
-x,y,1/2-z
-x,-y,-z
x,-y,1/2+z
1/2+x,1/2+y,z
1/2-x,1/2+y,1/2-z
1/2-x,1/2-y,-z
1/2+x,1/2-y,1/2+z
loop_
_atom_site_type_symbol
_atom_site_label
_atom_site_fract_x
_atom_site_fract_y
_atom_site_fract_z
Si Si1 0.654911 0.008622 0.645666
Si Si2 0.444058 0.925897 0.044122
Si Si3 0.135246 0.945214 0.316309
Si Si4 0.684166 0.721552 0.624693
Si Si5 0.141013 0.129886 0.174911
Si Si6 0.000000 0.888978 0.250000
Si Si7 0.785420 0.368014 0.654888
Si Si8 0.942585 0.770859 0.547592
O O1 0.602542 0.057779 0.782093
O O2 0.687099 0.082549 0.516300
O O3 0.608302 0.939270 0.574212
O O4 0.707133 0.949125 0.718336
O O5 0.471769 0.827382 0.041208
O O6 0.500000 0.000000 0.000000
O O7 0.182990 0.878887 0.194502
O O8 0.130870 0.909427 0.500873
O O9 0.065471 0.941697 0.256846
O O10 0.150607 0.048361 0.296288
O O11 0.750000 0.750000 0.500000
O O12 0.675009 0.787134 0.782558
O O13 0.624224 0.732189 0.528706
O O14 0.213633 0.171291 0.150351
O O15 0.082061 0.189680 0.270242
O O16 0.989005 0.831749 0.417216
#
# Coordination Sequence:
#
# PCOD9297444 Si02
#       8
#     8   8   8   8   8   4   8   8
#     4  10  24  40  67 100 137 193 233 290 363 428
#     4  11  24  43  66  98 143 189 248 292 344 423
#     4  11  27  46  73 103 140 182 242 297 369 433
#     4  11  23  43  71 101 145 191 236 294 371 440
#     4  12  26  46  73 108 138 186 239 303 372 442
#     4  10  26  48  72  96 136 188 232 300 358 430
#     4  11  23  42  69 102 147 180 233 297 361 439
#     4  11  25  44  71 100 140 190 244 294 366 428
#
# _framework density 23.731275
#
# number of rings (size 3 to 8) (size 9 to 14) (size 15 to 20)
#    0.000    1.067    2.667    2.800    5.600    5.333 
#    2.400    0.000    0.000    0.000    0.000    0.000 
#    0.000    0.000    0.000    0.000    0.000    0.000 
#
# Total GULP energy -167840.516530 kJ/mol
# GULP energy per Si atom -5594.683884 kJ/mol
# Density = 2.367726 g / cm^3
# Si number density = 23.731275 Si / 1000 Ang^3
#
#
#
# Elastic Constant Matrix: (Units=GPa)
#
#
# Indices 1 2 3 4 5 6 
#
# 1 76.8490 4.6537 -0.0952 0.0000 -1.9238 0.0000
# 2 4.6537 69.5868 16.0475 0.0000 -23.2772 0.0000
# 3 -0.0952 16.0475 114.9482 0.0000 -19.4750 0.0000
# 4 0.0000 0.0000 0.0000 11.1925 0.0000 0.6587
# 5 -1.9238 -23.2772 -19.4750 0.0000 45.8391 0.0000
# 6 0.0000 0.0000 0.0000 0.6587 0.0000 22.6857
#
#
#
# Elastic Compliance Matrix: (Units=1/GPa)
#
#
# Indices 1 2 3 4 5 6 
#
# 1 0.013069 -0.000849 0.000161 0.000000 0.000186 0.000000
# 2 -0.000849 0.017473 -0.001016 0.000000 0.008406 0.000000
# 3 0.000161 -0.001016 0.009434 0.000000 0.003499 0.000000
# 4 0.000000 0.000000 0.000000 0.089498 0.000000 -0.002599
# 5 0.000186 0.008406 0.003499 0.000000 0.027578 0.000000
# 6 0.000000 0.000000 0.000000 -0.002599 0.000000 0.044156
#
#
# Mechanical properties :
#
#
# Convention : Reuss Voigt Hill
#
# Bulk Modulus (GPa) = 27.34611 33.62179 30.48395
# Shear Modulus (GPa) = 23.06202 31.99534 27.52868
#
# Velocity S-wave (km/s) = 3.12075 3.67582 3.40960
# Velocity P-wave (km/s) = 4.95315 5.67573 5.32671
#
# Compressibility (1/GPa) = 0.03656827
#
# Stress axis : x y z
#
# Youngs Moduli (GPa) = 76.51816 57.22992 105.99545
#
# Poissons Ratio (x) = 0.04859 -0.01704
# Poissons Ratio (y) = 0.06496 0.10769
# Poissons Ratio (z) = -0.01230 0.05814
#
# Static dielectric constant tensor:
#      x y z
#    x 1.896850 0.000000 -0.013570 
#    y 0.000000 1.886360 0.000000 
#    z -0.013570 0.000000 1.896110 
# 
# From -- ./inp_files/61533.got.cif
#   From: 2010.05.17/outbox.cif.g08.bks.cpg/sg15_31_cif.got.tgz:61533.got - 2010.06.03 18:47:42.
