data_PCOD9297911
_publ_section_title
;
Structure prediction by ZEFSAII (Michael W. Deem and Ramdas Pophale) SiO2 
 PCOD9297911
Probable space group: C 2/C
;
_chemical_formula_sum "Si O2"
_cell_formula_units_Z 44
_cell_length_a 8.541151
_cell_length_b 15.073369
_cell_length_c 15.043604
_cell_angle_alpha 90.000000
_cell_angle_beta 67.519041
_cell_angle_gamma 90.000000
_cell_volume 1789.590741
_symmetry_space_group_name_H-M "C 2/C"
_symmetry_group_IT_number 15
_symmetry_cell_setting 'monoclinic'
loop_
_space_group_symop_operation_xyz
x,y,z
-x,y,1/2-z
-x,-y,-z
x,-y,1/2+z
1/2+x,1/2+y,z
1/2-x,1/2+y,1/2-z
1/2-x,1/2-y,-z
1/2+x,1/2-y,1/2+z
loop_
_atom_site_type_symbol
_atom_site_label
_atom_site_fract_x
_atom_site_fract_y
_atom_site_fract_z
Si Si1 0.746770 0.990105 0.006435
Si Si2 0.397837 0.528930 0.655024
Si Si3 0.700664 0.266068 0.807538
Si Si4 0.000000 0.100177 0.250000
Si Si5 0.492172 0.734756 0.624836
Si Si6 0.039613 0.354780 0.459820
O O1 0.661282 0.079194 0.987623
O O2 0.759096 0.988325 0.110289
O O3 0.636070 0.905497 0.005381
O O4 0.932010 0.985823 0.924065
O O5 0.358996 0.476049 0.753942
O O6 0.450419 0.631622 0.651221
O O7 0.546790 0.332298 0.820066
O O8 0.818790 0.278916 0.695852
O O9 0.615257 0.171360 0.847961
O O10 0.846287 0.268285 0.853051
O O11 0.523677 0.762835 0.517263
#
# Coordination Sequence:
#
# PCOD9297911 Si02
#       6
#     8   8   8   4   8   8
#     4  10  24  42  71  99 137 175 231 275 352 404
#     4  11  24  43  66  99 136 184 220 283 342 411
#     4  11  25  42  67 103 133 181 231 284 338 406
#     4  12  26  42  66  96 138 174 234 282 334 408
#     4  11  24  45  71  98 142 180 227 283 349 400
#     4  11  23  45  71 103 135 181 228 285 337 412
#
# _framework density 24.586625999999999
#
# number of rings (size 3 to 8) (size 9 to 14) (size 15 to 20)
#    0.000    1.091    1.818    3.818    7.636    0.727 
#    0.000    0.000    0.000    0.000    0.000    0.000 
#    0.000    0.000    0.000    0.000    0.000    0.000 
#
# Total GULP energy -122632.861396 kJ/mol
# GULP energy per Si atom -5574.220973 kJ/mol
# Density = 2.453067 g / cm^3
# Si number density = 24.586626 Si / 1000 Ang^3
#
#
#
# Elastic Constant Matrix: (Units=GPa)
#
#
# Indices 1 2 3 4 5 6 
#
# 1 78.9240 54.7203 25.9281 0.0000 17.6722 0.0000
# 2 54.7203 135.3693 27.5835 0.0000 26.9319 0.0000
# 3 25.9281 27.5835 69.1140 0.0000 13.7025 0.0000
# 4 0.0000 0.0000 0.0000 34.5143 0.0000 4.5451
# 5 17.6722 26.9319 13.7025 0.0000 44.4409 0.0000
# 6 0.0000 0.0000 0.0000 4.5451 0.0000 12.9586
#
#
#
# Elastic Compliance Matrix: (Units=1/GPa)
#
#
# Indices 1 2 3 4 5 6 
#
# 1 0.018961 -0.006346 -0.004099 0.000000 -0.002430 0.000000
# 2 -0.006346 0.010948 -0.001250 0.000000 -0.003726 0.000000
# 3 -0.004099 -0.001250 0.017076 0.000000 -0.002878 0.000000
# 4 0.000000 0.000000 0.000000 0.030376 0.000000 -0.010654
# 5 -0.002430 -0.003726 -0.002878 0.000000 0.026614 0.000000
# 6 0.000000 0.000000 0.000000 -0.010654 0.000000 0.080906
#
#
# Mechanical properties :
#
#
# Convention : Reuss Voigt Hill
#
# Bulk Modulus (GPa) = 42.38038 55.54124 48.96081
# Shear Modulus (GPa) = 23.13361 30.06111 26.59736
#
# Velocity S-wave (km/s) = 3.07074 3.50045 3.29261
# Velocity P-wave (km/s) = 5.46326 6.24312 5.86617
#
# Compressibility (1/GPa) = 0.02359582
#
# Stress axis : x y z
#
# Youngs Moduli (GPa) = 52.74017 91.33748 58.56205
#
# Poissons Ratio (x) = 0.57961 0.24003
# Poissons Ratio (y) = 0.33468 0.07321
# Poissons Ratio (z) = 0.21616 0.11419
#
# Static dielectric constant tensor:
#      x y z
#    x 1.943780 0.000000 0.041210 
#    y 0.000000 1.944920 0.000000 
#    z 0.041210 0.000000 2.144930 
# 
# From -- ./inp_files/188836.got.cif
#   From: 2010.05.17/outbox.cif.g08.bks.cpg/sg15_95_cif.got.tgz:188836.got - 2010.06.03 18:47:42.
