data_PCOD9297765
_publ_section_title
;
Structure prediction by ZEFSAII (Michael W. Deem and Ramdas Pophale) SiO2 
 PCOD9297765
Probable space group: C 2/C
;
_chemical_formula_sum "Si O2"
_cell_formula_units_Z 44
_cell_length_a 13.054081
_cell_length_b 6.461197
_cell_length_c 22.173300
_cell_angle_alpha 90.000000
_cell_angle_beta 89.487430
_cell_angle_gamma 90.000000
_cell_volume 1870.131907
_symmetry_space_group_name_H-M "C 2/C"
_symmetry_group_IT_number 15
_symmetry_cell_setting 'monoclinic'
loop_
_space_group_symop_operation_xyz
x,y,z
-x,y,1/2-z
-x,-y,-z
x,-y,1/2+z
1/2+x,1/2+y,z
1/2-x,1/2+y,1/2-z
1/2-x,1/2-y,-z
1/2+x,1/2-y,1/2+z
loop_
_atom_site_type_symbol
_atom_site_label
_atom_site_fract_x
_atom_site_fract_y
_atom_site_fract_z
Si Si1 0.863657 0.161640 0.818357
Si Si2 0.500000 0.366823 0.750000
Si Si3 0.858025 0.501297 0.214453
Si Si4 0.927215 0.808658 0.980588
Si Si5 0.060066 0.500916 0.407411
Si Si6 0.274617 0.367194 0.438780
O O1 0.863697 0.351480 0.772248
O O2 0.852968 0.224038 0.888724
O O3 0.760278 0.029712 0.803302
O O4 0.957268 0.010556 0.803335
O O5 0.591145 0.218578 0.770833
O O6 0.930488 0.588372 0.159998
O O7 0.972374 0.657237 0.928748
O O8 0.823384 0.912875 0.957184
O O9 0.923632 0.668998 0.040411
O O10 0.000000 0.000000 0.000000
O O11 0.164568 0.369037 0.408684
O O12 0.250000 0.250000 0.500000
#
# Coordination Sequence:
#
# PCOD9297765 Si02
#       6
#     8   4   8   8   8   8
#     4  11  25  45  70  99 138 180 230 284 344 411
#     4  12  24  46  72  98 136 186 226 280 350 402
#     4  11  24  45  69 101 135 179 229 286 342 411
#     4  11  22  41  65  98 132 178 221 272 331 404
#     4  10  24  42  66  97 135 173 222 277 337 398
#     4  11  23  44  67  97 133 177 222 275 339 397
#
# _framework density 23.527752
#
# number of rings (size 3 to 8) (size 9 to 14) (size 15 to 20)
#    0.000    1.091    3.636    2.182    0.000    5.818 
#    3.273    0.000    0.000    0.000    0.000    0.000 
#    0.000    0.000    0.000    0.000    0.000    0.000 
#
# Total GULP energy -122997.814047 kJ/mol
# GULP energy per Si atom -5590.809729 kJ/mol
# Density = 2.347420 g / cm^3
# Si number density = 23.527752 Si / 1000 Ang^3
#
#
#
# Elastic Constant Matrix: (Units=GPa)
#
#
# Indices 1 2 3 4 5 6 
#
# 1 47.5975 24.6989 25.9621 0.0000 -18.7835 0.0000
# 2 24.6989 93.4200 69.3369 0.0000 -32.3280 0.0000
# 3 25.9621 69.3369 198.1269 0.0000 -50.1812 0.0000
# 4 0.0000 0.0000 0.0000 40.0792 0.0000 2.9523
# 5 -18.7835 -32.3280 -50.1812 0.0000 42.8563 0.0000
# 6 0.0000 0.0000 0.0000 2.9523 0.0000 48.1391
#
#
#
# Elastic Compliance Matrix: (Units=1/GPa)
#
#
# Indices 1 2 3 4 5 6 
#
# 1 0.026488 -0.004121 0.000177 0.000000 0.008708 0.000000
# 2 -0.004121 0.016791 -0.003676 0.000000 0.006556 0.000000
# 3 0.000177 -0.003676 0.008001 0.000000 0.006673 0.000000
# 4 0.000000 0.000000 0.000000 0.025064 0.000000 -0.001537
# 5 0.008708 0.006556 0.006673 0.000000 0.039909 0.000000
# 6 0.000000 0.000000 0.000000 -0.001537 0.000000 0.020867
#
#
# Mechanical properties :
#
#
# Convention : Reuss Voigt Hill
#
# Bulk Modulus (GPa) = 27.74751 64.34891 46.04821
# Shear Modulus (GPa) = 30.41894 40.82469 35.62181
#
# Velocity S-wave (km/s) = 3.59959 4.17006 3.89528
# Velocity P-wave (km/s) = 5.39399 7.11305 6.31231
#
# Compressibility (1/GPa) = 0.03603926
#
# Stress axis : x y z
#
# Youngs Moduli (GPa) = 37.75324 59.55747 124.99199
#
# Poissons Ratio (x) = 0.24543 -0.02209
# Poissons Ratio (y) = 0.15558 0.45943
# Poissons Ratio (z) = -0.00667 0.21891
#
# Static dielectric constant tensor:
#      x y z
#    x 1.913430 0.000000 0.009090 
#    y 0.000000 1.852420 0.000000 
#    z 0.009090 0.000000 2.080080 
# 
# From -- ./inp_files/271881.got.cif
#   From: 2010.05.17/outbox.cif.g08.bks.cpg/sg15_136_cif.got.tgz:271881.got - 2010.06.03 18:47:42.
