data_PCOD9297591
_publ_section_title
;
Structure prediction by ZEFSAII (Michael W. Deem and Ramdas Pophale) SiO2 
 PCOD9297591
Probable space group: C 2/C
;
_chemical_formula_sum "Si O2"
_cell_formula_units_Z 32
_cell_length_a 12.537426
_cell_length_b 7.592269
_cell_length_c 25.182441
_cell_angle_alpha 90.000000
_cell_angle_beta 147.754837
_cell_angle_gamma 90.000000
_cell_volume 1278.931594
_symmetry_space_group_name_H-M "C 2/C"
_symmetry_group_IT_number 15
_symmetry_cell_setting 'monoclinic'
loop_
_space_group_symop_operation_xyz
x,y,z
-x,y,1/2-z
-x,-y,-z
x,-y,1/2+z
1/2+x,1/2+y,z
1/2-x,1/2+y,1/2-z
1/2-x,1/2-y,-z
1/2+x,1/2-y,1/2+z
loop_
_atom_site_type_symbol
_atom_site_label
_atom_site_fract_x
_atom_site_fract_y
_atom_site_fract_z
Si Si1 0.797379 0.256901 0.691414
Si Si2 0.217396 0.580099 0.205613
Si Si3 0.427325 0.247787 0.007381
Si Si4 0.283784 0.955629 0.021924
O O1 0.715518 0.349902 0.709683
O O2 0.618602 0.234633 0.573922
O O3 0.000000 0.332368 0.750000
O O4 0.856764 0.064159 0.738349
O O5 0.138476 0.710968 0.125703
O O6 0.011445 0.483437 0.135894
O O7 0.353898 0.439110 0.994843
O O8 0.287596 0.090313 0.972960
O O9 0.250000 0.750000 0.000000
#
# Coordination Sequence:
#
# PCOD9297591 Si02
#       4
#     8   8   8   8
#     4  12  22  45  71  95 149 181 222 296 341 402
#     4  10  24  41  67 106 134 181 236 278 340 417
#     4   9  20  43  69  91 144 179 219 293 339 395
#     4   9  18  40  72 100 130 177 238 275 337 421
#
# _framework density 25.020885
#
# number of rings (size 3 to 8) (size 9 to 14) (size 15 to 20)
#    1.500    0.500    2.500    0.750    0.000    4.000 
#    4.500    3.750    5.500    0.000    0.000    0.000 
#    0.000    0.000    0.000    0.000    0.000    0.000 
#
# Total GULP energy -89210.557663 kJ/mol
# GULP energy per Si atom -5575.659854 kJ/mol
# Density = 2.496394 g / cm^3
# Si number density = 25.020885 Si / 1000 Ang^3
#
#
#
# Elastic Constant Matrix: (Units=GPa)
#
#
# Indices 1 2 3 4 5 6 
#
# 1 72.9495 33.1053 45.4405 0.0000 -48.3143 0.0000
# 2 33.1053 148.9790 26.2526 0.0000 -21.4981 0.0000
# 3 45.4405 26.2526 102.5061 0.0000 -54.7947 0.0000
# 4 0.0000 0.0000 0.0000 14.7289 0.0000 9.3682
# 5 -48.3143 -21.4981 -54.7947 0.0000 54.2712 0.0000
# 6 0.0000 0.0000 0.0000 9.3682 0.0000 37.4744
#
#
#
# Elastic Compliance Matrix: (Units=1/GPa)
#
#
# Indices 1 2 3 4 5 6 
#
# 1 0.035406 -0.003613 0.002854 0.000000 0.032971 0.000000
# 2 -0.003613 0.007510 -0.000980 0.000000 -0.001230 0.000000
# 3 0.002854 -0.000980 0.021491 0.000000 0.023851 0.000000
# 4 0.000000 0.000000 0.000000 0.080730 0.000000 -0.020182
# 5 0.032971 -0.001230 0.023851 0.000000 0.071371 0.000000
# 6 0.000000 0.000000 0.000000 -0.020182 0.000000 0.031730
#
#
# Mechanical properties :
#
#
# Convention : Reuss Voigt Hill
#
# Bulk Modulus (GPa) = 16.41206 59.33682 37.87444
# Shear Modulus (GPa) = 18.38066 35.93731 27.15899
#
# Velocity S-wave (km/s) = 2.71331 3.79396 3.29820
# Velocity P-wave (km/s) = 4.04842 6.55428 5.44740
#
# Compressibility (1/GPa) = 0.06093080
#
# Stress axis : x y z
#
# Youngs Moduli (GPa) = 28.24373 133.15091 46.53192
#
# Poissons Ratio (x) = 0.48107 -0.13282
# Poissons Ratio (y) = 0.10204 0.04558
# Poissons Ratio (z) = -0.08062 0.13043
#
# Static dielectric constant tensor:
#      x y z
#    x 2.001330 0.000000 -0.037320 
#    y 0.000000 2.040320 0.000000 
#    z -0.037320 0.000000 1.990940 
# 
# From -- ./inp_files/294959.got.cif
#   From: 2010.05.17/outbox.cif.g08.bks.cpg/sg15_148_cif.got.tgz:294959.got - 2010.06.03 18:47:42.
