data_PCOD9297600
_publ_section_title
;
Structure prediction by ZEFSAII (Michael W. Deem and Ramdas Pophale) SiO2 
 PCOD9297600
Probable space group: C 2/C
;
_chemical_formula_sum "Si O2"
_cell_formula_units_Z 40
_cell_length_a 12.704391
_cell_length_b 18.800756
_cell_length_c 18.951117
_cell_angle_alpha 90.000000
_cell_angle_beta 22.158463
_cell_angle_gamma 90.000000
_cell_volume 1707.263321
_symmetry_space_group_name_H-M "C 2/C"
_symmetry_group_IT_number 15
_symmetry_cell_setting 'monoclinic'
loop_
_space_group_symop_operation_xyz
x,y,z
-x,y,1/2-z
-x,-y,-z
x,-y,1/2+z
1/2+x,1/2+y,z
1/2-x,1/2+y,1/2-z
1/2-x,1/2-y,-z
1/2+x,1/2-y,1/2+z
loop_
_atom_site_type_symbol
_atom_site_label
_atom_site_fract_x
_atom_site_fract_y
_atom_site_fract_z
Si Si1 0.983120 0.714446 0.905593
Si Si2 0.163996 0.004152 0.218045
Si Si3 0.808097 0.653630 0.166763
Si Si4 0.388711 0.075969 0.245285
Si Si5 0.719503 0.574567 0.824817
O O1 0.194396 0.779587 0.780411
O O2 0.118979 0.647641 0.781812
O O3 0.750000 0.750000 0.000000
O O4 0.901834 0.685331 0.033316
O O5 0.102294 0.952142 0.321497
O O6 0.000000 0.985512 0.250000
O O7 0.107271 0.087417 0.270325
O O8 0.500000 0.000000 0.000000
O O9 0.999910 0.614666 0.106514
O O10 0.500000 0.103956 0.250000
O O11 0.050473 0.082649 0.458515
O O12 0.422120 0.990584 0.219939
#
# Coordination Sequence:
#
# PCOD9297600 Si02
#       5
#     8   8   8   8   8
#     4  12  24  43  69 101 144 183 231 300 371 433
#     4  11  23  42  73 109 144 186 244 302 368 432
#     4  11  25  42  66 102 139 185 240 292 360 436
#     4  10  24  44  68  98 139 187 246 301 361 432
#     4  10  24  41  68 103 141 187 243 298 370 434
#
# _framework density 23.429309
#
# number of rings (size 3 to 8) (size 9 to 14) (size 15 to 20)
#    0.000    1.200    2.000    3.000    5.600    4.800 
#    0.000    5.000    0.000    0.000    0.000    0.000 
#    0.000    0.000    0.000    0.000    0.000    0.000 
#
# Total GULP energy -111736.739138 kJ/mol
# GULP energy per Si atom -5586.836957 kJ/mol
# Density = 2.337598 g / cm^3
# Si number density = 23.429309 Si / 1000 Ang^3
#
#
#
# Elastic Constant Matrix: (Units=GPa)
#
#
# Indices 1 2 3 4 5 6 
#
# 1 167.7269 36.2002 31.5830 0.0816 22.4253 0.0448
# 2 36.2002 183.3124 51.3521 -0.2639 8.0006 0.2079
# 3 31.5830 51.3521 74.2434 -0.5394 16.8940 0.1206
# 4 0.0816 -0.2639 -0.5394 38.8431 0.0263 17.9306
# 5 22.4253 8.0006 16.8940 0.0263 28.6853 0.0567
# 6 0.0448 0.2079 0.1206 17.9306 0.0567 37.1124
#
#
#
# Elastic Compliance Matrix: (Units=1/GPa)
#
#
# Indices 1 2 3 4 5 6 
#
# 1 0.006990 -0.000789 -0.001426 -0.000052 -0.004405 0.000032
# 2 -0.000789 0.006880 -0.004766 -0.000010 0.001504 -0.000020
# 3 -0.001426 -0.004766 0.019421 0.000330 -0.008994 -0.000180
# 4 -0.000052 -0.000010 0.000330 0.033141 -0.000150 -0.016013
# 5 -0.004405 0.001504 -0.008994 -0.000150 0.043182 0.000032
# 6 0.000032 -0.000020 -0.000180 -0.016013 0.000032 0.034682
#
#
# Mechanical properties :
#
#
# Convention : Reuss Voigt Hill
#
# Bulk Modulus (GPa) = 51.73195 73.72815 62.73005
# Shear Modulus (GPa) = 30.35803 41.33798 35.84801
#
# Velocity S-wave (km/s) = 3.60353 4.20500 3.91583
# Velocity P-wave (km/s) = 6.28027 7.42379 6.87585
#
# Compressibility (1/GPa) = 0.01933041
#
# Stress axis : x y z
#
# Youngs Moduli (GPa) = 143.06691 145.34190 51.48936
#
# Poissons Ratio (x) = 0.11463 0.07343
# Poissons Ratio (y) = 0.11284 0.24539
# Poissons Ratio (z) = 0.20402 0.69267
#
# Static dielectric constant tensor:
#      x y z
#    x 1.935960 -0.000040 -0.013050 
#    y -0.000040 1.884190 0.000180 
#    z -0.013050 0.000180 2.010580 
# 
# From -- ./inp_files/199682.got.cif
#   From: 2010.05.17/outbox.cif.g08.bks.cpg/sg15_100_cif.got.tgz:199682.got - 2010.06.03 18:47:42.
