data_PCOD9297967
_publ_section_title
;
Structure prediction by ZEFSAII (Michael W. Deem and Ramdas Pophale) SiO2 
 PCOD9297967
Probable space group: C 2/C
;
_chemical_formula_sum "Si O2"
_cell_formula_units_Z 28
_cell_length_a 8.204294
_cell_length_b 27.541263
_cell_length_c 9.485124
_cell_angle_alpha 90.000000
_cell_angle_beta 145.890210
_cell_angle_gamma 90.000000
_cell_volume 1201.879602
_symmetry_space_group_name_H-M "C 2/C"
_symmetry_group_IT_number 15
_symmetry_cell_setting 'monoclinic'
loop_
_space_group_symop_operation_xyz
x,y,z
-x,y,1/2-z
-x,-y,-z
x,-y,1/2+z
1/2+x,1/2+y,z
1/2-x,1/2+y,1/2-z
1/2-x,1/2-y,-z
1/2+x,1/2-y,1/2+z
loop_
_atom_site_type_symbol
_atom_site_label
_atom_site_fract_x
_atom_site_fract_y
_atom_site_fract_z
Si Si1 0.000000 0.656591 0.250000
Si Si2 0.000000 0.282606 0.250000
Si Si3 0.500000 0.593180 0.750000
Si Si4 0.943414 0.450691 0.376208
Si Si5 0.809370 0.653418 0.396749
O O1 0.827852 0.679227 0.257833
O O2 0.241638 0.625240 0.503222
O O3 0.250000 0.250000 0.500000
O O4 0.936767 0.320962 0.329911
O O5 0.376463 0.563636 0.795335
O O6 0.000000 0.456442 0.250000
O O7 0.000000 0.500000 0.500000
O O8 0.138875 0.404542 0.563955
O O9 0.500000 0.660159 0.250000
#
# Coordination Sequence:
#
# PCOD9297967 Si02
#       5
#     4   4   4   8   8
#     4  10  24  42  75 103 140 186 239 287 360 432
#     4  12  26  48  80 110 140 190 248 308 376 438
#     4  10  24  44  63 101 146 190 243 291 340 422
#     4  11  25  41  68 106 149 197 244 292 356 434
#     4  11  24  47  75 105 150 195 239 304 369 431
#
# _framework density 23.296842999999999
#
# number of rings (size 3 to 8) (size 9 to 14) (size 15 to 20)
#    0.000    1.143    2.857    1.714   14.000    1.143 
#    0.000    1.429    0.000    0.000    0.000    0.000 
#    0.000    0.000    0.000    0.000    0.000    0.000 
#
# Total GULP energy -78020.461954 kJ/mol
# GULP energy per Si atom -5572.890140 kJ/mol
# Density = 2.324382 g / cm^3
# Si number density = 23.296843 Si / 1000 Ang^3
#
#
#
# Elastic Constant Matrix: (Units=GPa)
#
#
# Indices 1 2 3 4 5 6 
#
# 1 195.7230 -10.3580 36.8219 0.0000 -31.1959 0.0000
# 2 -10.3580 81.7900 21.4414 0.0000 4.8199 0.0000
# 3 36.8219 21.4414 116.0496 0.0000 -14.7683 0.0000
# 4 0.0000 0.0000 0.0000 27.5952 0.0000 -0.8146
# 5 -31.1959 4.8199 -14.7683 0.0000 58.5311 0.0000
# 6 0.0000 0.0000 0.0000 -0.8146 0.0000 -6.3533
#
#
#
# Elastic Compliance Matrix: (Units=1/GPa)
#
#
# Indices 1 2 3 4 5 6 
#
# 1 0.005910 0.001048 -0.001735 0.000000 0.002626 0.000000
# 2 0.001048 0.013203 -0.002933 0.000000 -0.001269 0.000000
# 3 -0.001735 -0.002933 0.009942 0.000000 0.001825 0.000000
# 4 0.000000 0.000000 0.000000 0.036102 0.000000 -0.004629
# 5 0.002626 -0.001269 0.001825 0.000000 0.019049 0.000000
# 6 0.000000 0.000000 0.000000 -0.004629 0.000000 -0.156806
#
#
# Mechanical properties :
#
#
# Convention : Reuss Voigt Hill
#
# Bulk Modulus (GPa) = 45.84040 54.37480 50.10760
# Shear Modulus (GPa) = -86.07392 38.99842 -23.53775
#
# Velocity S-wave (km/s) = -6.08497 4.09587 -3.18203
# Velocity P-wave (km/s) = 5.44515 6.76453 2.83806
#
# Compressibility (1/GPa) = 0.02181482
#
# Stress axis : x y z
#
# Youngs Moduli (GPa) = 169.21650 75.74045 100.58638
#
# Poissons Ratio (x) = -0.07941 0.17448
# Poissons Ratio (y) = -0.17741 0.29507
# Poissons Ratio (z) = 0.29353 0.22218
#
# Static dielectric constant tensor:
#      x y z
#    x 1.954240 0.000000 -0.054940 
#    y 0.000000 1.918660 0.000000 
#    z -0.054940 0.000000 1.900960 
# 
# From -- ./inp_files/1972.got.cif
#   From: 2010.05.17/outbox.cif.g08.bks.cpg/sg15_1_cif.got.tgz:1972.got - 2010.06.03 18:47:42.
