data_PCOD9297056
_publ_section_title
;
Structure prediction by ZEFSAII (Michael W. Deem and Ramdas Pophale) SiO2 
 PCOD9297056
Probable space group: C 2/C
;
_chemical_formula_sum "Si O2"
_cell_formula_units_Z 60
_cell_length_a 26.037525
_cell_length_b 12.373193
_cell_length_c 7.835753
_cell_angle_alpha 90.000000
_cell_angle_beta 91.907422
_cell_angle_gamma 90.000000
_cell_volume 2523.024809
_symmetry_space_group_name_H-M "C 2/C"
_symmetry_group_IT_number 15
_symmetry_cell_setting 'monoclinic'
loop_
_space_group_symop_operation_xyz
x,y,z
-x,y,1/2-z
-x,-y,-z
x,-y,1/2+z
1/2+x,1/2+y,z
1/2-x,1/2+y,1/2-z
1/2-x,1/2-y,-z
1/2+x,1/2-y,1/2+z
loop_
_atom_site_type_symbol
_atom_site_label
_atom_site_fract_x
_atom_site_fract_y
_atom_site_fract_z
Si Si1 0.906969 0.133381 0.147825
Si Si2 0.559036 0.432091 0.221383
Si Si3 0.330663 0.226926 0.441139
Si Si4 0.000000 0.242275 0.250000
Si Si5 0.112692 0.259053 0.905542
Si Si6 0.017071 0.617614 0.445635
Si Si7 0.713002 0.654581 0.065783
Si Si8 0.762340 0.087607 0.042030
O O1 0.949474 0.175747 0.281297
O O2 0.895146 0.017364 0.228565
O O3 0.934118 0.097887 0.974178
O O4 0.869390 0.228213 0.088135
O O5 0.500000 0.464968 0.250000
O O6 0.571536 0.329179 0.337570
O O7 0.358260 0.205933 0.265353
O O8 0.296596 0.124491 0.490172
O O9 0.294288 0.333723 0.419073
O O10 0.011585 0.308443 0.420272
O O11 0.077906 0.356952 0.971019
O O12 0.155641 0.200511 0.025765
O O13 0.000000 0.636208 0.250000
O O14 0.000000 0.500000 0.500000
O O15 0.723687 0.629271 0.266041
O O16 0.750000 0.750000 0.000000
O O17 0.724716 0.538027 0.979605
#
# Coordination Sequence:
#
# PCOD9297056 Si02
#       8
#     8   8   8   4   8   8   8   8
#     4  11  24  39  67 109 145 197 257 305 393 472
#     4  11  22  39  66 104 157 189 244 317 390 456
#     4  10  23  47  73 111 151 208 262 329 409 480
#     4  12  26  48  74 106 158 204 260 324 388 470
#     4  11  24  46  75 112 148 202 261 322 393 490
#     4  12  27  54  79 110 158 209 262 331 388 477
#     4  12  26  48  75 115 154 206 271 336 411 494
#     4  11  25  47  78 105 165 202 265 347 410 476
#
# _framework density 23.78098
#
# number of rings (size 3 to 8) (size 9 to 14) (size 15 to 20)
#    0.000    0.800    2.667    4.800    5.600    2.133 
#    4.800    0.000    0.000    0.000    0.000    0.000 
#    0.000    0.000    0.000    0.000    0.000    0.000 
#
# Total GULP energy -167751.299897 kJ/mol
# GULP energy per Si atom -5591.709997 kJ/mol
# Density = 2.372685 g / cm^3
# Si number density = 23.780980 Si / 1000 Ang^3
#
#
#
# Elastic Constant Matrix: (Units=GPa)
#
#
# Indices 1 2 3 4 5 6 
#
# 1 132.9344 62.4937 17.3952 0.0000 5.0596 0.0000
# 2 62.4937 131.6029 31.9468 0.0000 -4.4778 0.0000
# 3 17.3952 31.9468 100.0648 0.0000 -2.5724 0.0000
# 4 0.0000 0.0000 0.0000 30.8938 0.0000 -5.0843
# 5 5.0596 -4.4778 -2.5724 0.0000 38.7567 0.0000
# 6 0.0000 0.0000 0.0000 -5.0843 0.0000 44.9801
#
#
#
# Elastic Compliance Matrix: (Units=1/GPa)
#
#
# Indices 1 2 3 4 5 6 
#
# 1 0.009818 -0.004660 -0.000266 0.000000 -0.001838 0.000000
# 2 -0.004660 0.010472 -0.002491 0.000000 0.001653 0.000000
# 3 -0.000266 -0.002491 0.010847 0.000000 0.000467 0.000000
# 4 0.000000 0.000000 0.000000 0.032983 0.000000 0.003728
# 5 -0.001838 0.001653 0.000467 0.000000 0.026264 0.000000
# 6 0.000000 0.000000 0.000000 0.003728 0.000000 0.022653
#
#
# Mechanical properties :
#
#
# Convention : Reuss Voigt Hill
#
# Bulk Modulus (GPa) = 61.33782 65.36370 63.35076
# Shear Modulus (GPa) = 37.50763 39.77723 38.64243
#
# Velocity S-wave (km/s) = 3.97572 4.09424 4.03542
# Velocity P-wave (km/s) = 6.85010 7.06369 6.95772
#
# Compressibility (1/GPa) = 0.01630316
#
# Stress axis : x y z
#
# Youngs Moduli (GPa) = 101.85286 95.48846 92.19116
#
# Poissons Ratio (x) = 0.44499 0.02454
# Poissons Ratio (y) = 0.47465 0.22963
# Poissons Ratio (z) = 0.02711 0.23785
#
# Static dielectric constant tensor:
#      x y z
#    x 2.083090 0.000000 -0.111210 
#    y 0.000000 1.945750 0.000000 
#    z -0.111210 0.000000 2.074850 
# 
# From -- ./inp_files/65502.got.cif
#   From: 2010.05.17/outbox.cif.g08.bks.cpg/sg15_33_cif.got.tgz:65502.got - 2010.06.03 18:47:42.
