data_PCOD9297455
_publ_section_title
;
Structure prediction by ZEFSAII (Michael W. Deem and Ramdas Pophale) SiO2 
 PCOD9297455
Probable space group: C 2/C
;
_chemical_formula_sum "Si O2"
_cell_formula_units_Z 36
_cell_length_a 18.671697
_cell_length_b 19.451826
_cell_length_c 8.529609
_cell_angle_alpha 90.000000
_cell_angle_beta 32.152273
_cell_angle_gamma 90.000000
_cell_volume 1648.635598
_symmetry_space_group_name_H-M "C 2/C"
_symmetry_group_IT_number 15
_symmetry_cell_setting 'monoclinic'
loop_
_space_group_symop_operation_xyz
x,y,z
-x,y,1/2-z
-x,-y,-z
x,-y,1/2+z
1/2+x,1/2+y,z
1/2-x,1/2+y,1/2-z
1/2-x,1/2-y,-z
1/2+x,1/2-y,1/2+z
loop_
_atom_site_type_symbol
_atom_site_label
_atom_site_fract_x
_atom_site_fract_y
_atom_site_fract_z
Si Si1 0.000000 0.470800 0.750000
Si Si2 0.652076 0.691988 0.758576
Si Si3 0.842513 0.811441 0.875204
Si Si4 0.683596 0.943809 0.147891
Si Si5 0.095598 0.951509 0.215217
O O1 0.076429 0.424885 0.480463
O O2 0.100970 0.519487 0.662599
O O3 0.750000 0.750000 0.500000
O O4 0.662705 0.615676 0.666573
O O5 0.665605 0.683877 0.921065
O O6 0.492007 0.705443 0.038473
O O7 0.750000 0.750000 0.000000
O O8 0.777847 0.880785 0.925251
O O9 0.781847 0.998231 0.049794
O O10 0.000000 0.931141 0.250000
O O11 0.000000 0.000000 0.500000
#
# Coordination Sequence:
#
# PCOD9297455 Si02
#       5
#     4   8   8   8   8
#     4  10  24  40  68 102 146 180 230 322 360 440
#     4  11  27  46  69 107 142 188 249 305 375 438
#     4  11  26  45  69  98 146 193 243 304 369 453
#     4  11  23  43  68 104 141 186 246 295 375 429
#     4  12  24  43  78 104 141 190 252 308 362 440
#
# _framework density 21.836237000000001
#
# number of rings (size 3 to 8) (size 9 to 14) (size 15 to 20)
#    0.000    0.889    2.222    4.000    3.111    7.111 
#    0.000    0.000    0.000    0.000    0.000    0.000 
#    0.000    0.000    0.000    0.000    0.000    0.000 
#
# Total GULP energy -100551.410230 kJ/mol
# GULP energy per Si atom -5586.189457 kJ/mol
# Density = 2.178654 g / cm^3
# Si number density = 21.836237 Si / 1000 Ang^3
#
#
#
# Elastic Constant Matrix: (Units=GPa)
#
#
# Indices 1 2 3 4 5 6 
#
# 1 59.8862 13.0819 18.4251 0.0000 -17.9286 0.0004
# 2 13.0819 129.4601 45.9827 0.0000 -16.0864 0.0002
# 3 18.4251 45.9827 129.2821 0.0000 -2.9806 0.0005
# 4 0.0000 0.0000 0.0000 40.4787 0.0000 -11.3118
# 5 -17.9286 -16.0864 -2.9806 0.0000 39.1793 -0.0004
# 6 0.0004 0.0002 0.0005 -11.3118 -0.0004 65.0234
#
#
#
# Elastic Compliance Matrix: (Units=1/GPa)
#
#
# Indices 1 2 3 4 5 6 
#
# 1 0.020232 0.000037 -0.002688 0.000000 0.009069 0.000000
# 2 0.000037 0.009317 -0.003236 0.000000 0.003596 0.000000
# 3 -0.002688 -0.003236 0.009226 0.000000 -0.001857 0.000000
# 4 0.000000 0.000000 0.000000 0.025967 0.000000 0.004517
# 5 0.009069 0.003596 -0.001857 0.000000 0.031009 0.000000
# 6 0.000000 0.000000 0.000000 0.004517 0.000000 0.016165
#
#
# Mechanical properties :
#
#
# Convention : Reuss Voigt Hill
#
# Bulk Modulus (GPa) = 37.03427 52.62308 44.82868
# Shear Modulus (GPa) = 37.68175 45.01219 41.34697
#
# Velocity S-wave (km/s) = 4.15860 4.54514 4.35616
# Velocity P-wave (km/s) = 6.32894 7.18997 6.77315
#
# Compressibility (1/GPa) = 0.02700202
#
# Stress axis : x y z
#
# Youngs Moduli (GPa) = 49.42615 107.33123 108.38594
#
# Poissons Ratio (x) = -0.00398 0.29129
# Poissons Ratio (y) = -0.00183 0.35076
# Poissons Ratio (z) = 0.13284 0.34735
#
# Static dielectric constant tensor:
#      x y z
#    x 1.795520 0.000000 0.020050 
#    y 0.000000 1.798370 0.000000 
#    z 0.020050 0.000000 1.880220 
# 
# From -- ./inp_files/50550.got.cif
#   From: 2010.05.17/outbox.cif.g08.bks.cpg/sg15_26_cif.got.tgz:50550.got - 2010.06.03 18:47:42.
