data_PCOD9297644
_publ_section_title
;
Structure prediction by ZEFSAII (Michael W. Deem and Ramdas Pophale) SiO2 
 PCOD9297644
Probable space group: C 2/C
;
_chemical_formula_sum "Si O2"
_cell_formula_units_Z 44
_cell_length_a 14.341105
_cell_length_b 16.667592
_cell_length_c 8.828948
_cell_angle_alpha 90.000000
_cell_angle_beta 113.125051
_cell_angle_gamma 90.000000
_cell_volume 1940.827556
_symmetry_space_group_name_H-M "C 2/C"
_symmetry_group_IT_number 15
_symmetry_cell_setting 'monoclinic'
loop_
_space_group_symop_operation_xyz
x,y,z
-x,y,1/2-z
-x,-y,-z
x,-y,1/2+z
1/2+x,1/2+y,z
1/2-x,1/2+y,1/2-z
1/2-x,1/2-y,-z
1/2+x,1/2-y,1/2+z
loop_
_atom_site_type_symbol
_atom_site_label
_atom_site_fract_x
_atom_site_fract_y
_atom_site_fract_z
Si Si1 0.641711 0.556156 0.094882
Si Si2 0.786984 0.570126 0.581587
Si Si3 0.000000 0.322395 0.750000
Si Si4 0.250000 0.750000 0.000000
Si Si5 0.903078 0.445303 0.455245
Si Si6 0.000000 0.991610 0.250000
Si Si7 0.780485 0.713094 0.182209
O O1 0.689703 0.468160 0.100346
O O2 0.576569 0.548715 0.205760
O O3 0.727053 0.624736 0.146707
O O4 0.562616 0.563330 0.906350
O O5 0.771212 0.654416 0.493202
O O6 0.820603 0.501709 0.484037
O O7 0.869321 0.577813 0.766553
O O8 0.939233 0.374453 0.586881
O O9 0.903802 0.282036 0.770523
O O10 0.241150 0.740786 0.805707
O O11 0.000000 0.500000 0.500000
O O12 0.750000 0.750000 0.000000
#
# Coordination Sequence:
#
# PCOD9297644 Si02
#       7
#     8   8   4   4   8   4   8
#     4  11  23  48  74 110 143 202 264 323 382 478
#     4  12  24  43  74 105 153 197 252 325 394 458
#     4  12  24  47  78 115 150 208 264 316 405 480
#     4  12  28  46  70 114 158 206 246 326 402 462
#     4  12  21  40  76 110 144 195 257 313 387 475
#     4  10  24  41  82 105 138 202 268 310 383 468
#     4  12  28  52  76 114 163 202 259 332 399 472
#
# _framework density 22.670741
#
# number of rings (size 3 to 8) (size 9 to 14) (size 15 to 20)
#    0.000    0.364    3.636    5.455    2.545    0.727 
#    6.545    1.818    4.000    0.000    0.000    0.000 
#    0.000    0.000    0.000    0.000    0.000    0.000 
#
# Total GULP energy -122508.849762 kJ/mol
# GULP energy per Si atom -5568.584080 kJ/mol
# Density = 2.261914 g / cm^3
# Si number density = 22.670741 Si / 1000 Ang^3
#
#
#
# Elastic Constant Matrix: (Units=GPa)
#
#
# Indices 1 2 3 4 5 6 
#
# 1 110.3813 25.0658 16.7566 0.0000 -1.6638 0.0000
# 2 25.0658 67.2105 31.8134 0.0000 5.5898 0.0000
# 3 16.7566 31.8134 150.7793 0.0000 -9.5219 0.0000
# 4 0.0000 0.0000 0.0000 32.0521 0.0000 -0.8534
# 5 -1.6638 5.5898 -9.5219 0.0000 36.7151 0.0000
# 6 0.0000 0.0000 0.0000 -0.8534 0.0000 21.8772
#
#
#
# Elastic Compliance Matrix: (Units=1/GPa)
#
#
# Indices 1 2 3 4 5 6 
#
# 1 0.009946 -0.003657 -0.000275 0.000000 0.000936 0.000000
# 2 -0.003657 0.018323 -0.003707 0.000000 -0.003917 0.000000
# 3 -0.000275 -0.003707 0.007604 0.000000 0.002524 0.000000
# 4 0.000000 0.000000 0.000000 0.031232 0.000000 0.001218
# 5 0.000936 -0.003917 0.002524 0.000000 0.028530 0.000000
# 6 0.000000 0.000000 0.000000 0.001218 0.000000 0.045757
#
#
# Mechanical properties :
#
#
# Convention : Reuss Voigt Hill
#
# Bulk Modulus (GPa) = 48.55379 52.84920 50.70149
# Shear Modulus (GPa) = 30.57459 35.11123 32.84291
#
# Velocity S-wave (km/s) = 3.67636 3.93968 3.81030
# Velocity P-wave (km/s) = 6.28365 6.63755 6.46302
#
# Compressibility (1/GPa) = 0.02059572
#
# Stress axis : x y z
#
# Youngs Moduli (GPa) = 100.54520 54.57641 131.50521
#
# Poissons Ratio (x) = 0.19959 0.03610
# Poissons Ratio (y) = 0.36771 0.48748
# Poissons Ratio (z) = 0.02760 0.20231
#
# Static dielectric constant tensor:
#      x y z
#    x 1.868330 0.000000 0.039990 
#    y 0.000000 1.798020 0.000000 
#    z 0.039990 0.000000 1.796540 
# 
# From -- ./inp_files/39373.got.cif
#   From: 2010.05.17/outbox.cif.g08.bks.cpg/sg15_20_cif.got.tgz:39373.got - 2010.06.03 18:47:42.
