data_PCOD9297872
_publ_section_title
;
Structure prediction by ZEFSAII (Michael W. Deem and Ramdas Pophale) SiO2 
 PCOD9297872
Probable space group: C 2/C
;
_chemical_formula_sum "Si O2"
_cell_formula_units_Z 40
_cell_length_a 8.887396
_cell_length_b 26.942863
_cell_length_c 8.244941
_cell_angle_alpha 90.000000
_cell_angle_beta 92.191714
_cell_angle_gamma 90.000000
_cell_volume 1972.822469
_symmetry_space_group_name_H-M "C 2/C"
_symmetry_group_IT_number 15
_symmetry_cell_setting 'monoclinic'
loop_
_space_group_symop_operation_xyz
x,y,z
-x,y,1/2-z
-x,-y,-z
x,-y,1/2+z
1/2+x,1/2+y,z
1/2-x,1/2+y,1/2-z
1/2-x,1/2-y,-z
1/2+x,1/2-y,1/2+z
loop_
_atom_site_type_symbol
_atom_site_label
_atom_site_fract_x
_atom_site_fract_y
_atom_site_fract_z
Si Si1 0.000000 0.143769 0.250000
Si Si2 0.238350 0.691572 0.024328
Si Si3 0.179991 0.394019 0.282342
Si Si4 0.740088 0.580523 0.080536
Si Si5 0.500000 0.854691 0.750000
Si Si6 0.377467 0.523361 0.875498
O O1 0.119396 0.174605 0.360734
O O2 0.091133 0.108831 0.131657
O O3 0.089309 0.677542 0.121275
O O4 0.250000 0.750000 0.000000
O O5 0.226108 0.659516 0.857115
O O6 0.261392 0.432596 0.409778
O O7 0.000000 0.396316 0.250000
O O8 0.241327 0.412975 0.111400
O O9 0.879098 0.610139 0.160565
O O10 0.727902 0.525114 0.153168
O O11 0.500000 0.541270 0.750000
O O12 0.500000 0.500000 0.000000
#
# Coordination Sequence:
#
# PCOD9297872 Si02
#       6
#     4   8   8   8   4   8
#     4  10  24  42  70 100 130 184 226 288 342 412
#     4  11  26  46  71  99 137 178 237 291 358 406
#     4  12  27  44  68 103 140 183 233 288 343 417
#     4  11  23  43  69  98 143 176 229 275 345 416
#     4  10  24  44  68 100 134 184 224 288 344 422
#     4  12  25  41  66 103 140 185 227 275 343 414
#
# _framework density 20.27552
#
# number of rings (size 3 to 8) (size 9 to 14) (size 15 to 20)
#    0.000    0.800    5.000    1.200    5.600    2.400 
#    0.000    4.000    0.000    0.000    0.000    0.000 
#    0.000    0.000    0.000    0.000    0.000    0.000 
#
# Total GULP energy -111508.694652 kJ/mol
# GULP energy per Si atom -5575.434733 kJ/mol
# Density = 2.022937 g / cm^3
# Si number density = 20.275520 Si / 1000 Ang^3
#
#
#
# Elastic Constant Matrix: (Units=GPa)
#
#
# Indices 1 2 3 4 5 6 
#
# 1 128.4946 59.4061 26.0393 0.0000 10.1409 0.0000
# 2 59.4061 163.6315 3.0570 0.0000 11.7385 0.0000
# 3 26.0393 3.0570 26.5083 0.0000 8.0805 0.0000
# 4 0.0000 0.0000 0.0000 17.4249 0.0000 -0.5821
# 5 10.1409 11.7385 8.0805 0.0000 27.9962 0.0000
# 6 0.0000 0.0000 0.0000 -0.5821 0.0000 16.5880
#
#
#
# Elastic Compliance Matrix: (Units=1/GPa)
#
#
# Indices 1 2 3 4 5 6 
#
# 1 0.011999 -0.004194 -0.011529 0.000000 0.000740 0.000000
# 2 -0.004194 0.007767 0.004116 0.000000 -0.002925 0.000000
# 3 -0.011529 0.004116 0.052441 0.000000 -0.012686 0.000000
# 4 0.000000 0.000000 0.000000 0.057457 0.000000 0.002016
# 5 0.000740 -0.002925 -0.012686 0.000000 0.040339 0.000000
# 6 0.000000 0.000000 0.000000 0.002016 0.000000 0.060355
#
#
# Mechanical properties :
#
#
# Convention : Reuss Voigt Hill
#
# Bulk Modulus (GPa) = 20.41090 55.07105 37.74097
# Shear Modulus (GPa) = 18.52511 27.74394 23.13453
#
# Velocity S-wave (km/s) = 3.02598 3.70313 3.38155
# Velocity P-wave (km/s) = 4.72200 6.74571 5.82245
#
# Compressibility (1/GPa) = 0.04899343
#
# Stress axis : x y z
#
# Youngs Moduli (GPa) = 83.33777 128.75172 19.06897
#
# Poissons Ratio (x) = 0.53999 0.21984
# Poissons Ratio (y) = 0.34952 -0.07848
# Poissons Ratio (z) = 0.96079 -0.52992
#
# Static dielectric constant tensor:
#      x y z
#    x 1.751890 0.000000 0.015650 
#    y 0.000000 1.749910 0.000000 
#    z 0.015650 0.000000 1.819320 
# 
# From -- ./inp_files/23527.got.cif
#   From: 2010.05.17/outbox.cif.g08.bks.cpg/sg15_12_cif.got.tgz:23527.got - 2010.06.03 18:47:42.
