data_PCOD9297760
_publ_section_title
;
Structure prediction by ZEFSAII (Michael W. Deem and Ramdas Pophale) SiO2 
 PCOD9297760
Probable space group: C 2/C
;
_chemical_formula_sum "Si O2"
_cell_formula_units_Z 44
_cell_length_a 27.368239
_cell_length_b 14.913474
_cell_length_c 14.674171
_cell_angle_alpha 90.000000
_cell_angle_beta 159.845386
_cell_angle_gamma 90.000000
_cell_volume 2063.656458
_symmetry_space_group_name_H-M "C 2/C"
_symmetry_group_IT_number 15
_symmetry_cell_setting 'monoclinic'
loop_
_space_group_symop_operation_xyz
x,y,z
-x,y,1/2-z
-x,-y,-z
x,-y,1/2+z
1/2+x,1/2+y,z
1/2-x,1/2+y,1/2-z
1/2-x,1/2-y,-z
1/2+x,1/2-y,1/2+z
loop_
_atom_site_type_symbol
_atom_site_label
_atom_site_fract_x
_atom_site_fract_y
_atom_site_fract_z
Si Si1 0.000000 0.782424 0.750000
Si Si2 0.355889 0.675665 0.453804
Si Si3 0.182609 0.505834 0.418137
Si Si4 0.773818 0.136663 0.733152
Si Si5 0.651264 0.984515 0.647168
Si Si6 0.257294 0.311202 0.600363
O O1 0.929278 0.840487 0.545232
O O2 0.880265 0.720343 0.583869
O O3 0.305231 0.767807 0.411730
O O4 0.235461 0.599196 0.251155
O O5 0.500000 0.641585 0.750000
O O6 0.379794 0.700459 0.389530
O O7 0.252686 0.582874 0.602554
O O8 0.182349 0.521328 0.309536
O O9 0.259128 0.412971 0.572796
O O10 0.018683 0.488526 0.160489
O O11 0.706974 0.073965 0.695223
O O12 0.250000 0.250000 0.500000
#
# Coordination Sequence:
#
# PCOD9297760 Si02
#       6
#     4   8   8   8   8   8
#     4  10  24  42  66  96 136 174 222 284 336 390
#     4  11  24  42  64  94 137 173 214 284 335 391
#     4  11  22  40  67  93 127 175 223 276 331 406
#     4  11  23  41  66  93 131 173 220 275 334 395
#     4  11  24  40  65  97 129 171 228 272 338 397
#     4  11  23  43  68  96 130 180 229 271 334 406
#
# _framework density 21.321377999999999
#
# number of rings (size 3 to 8) (size 9 to 14) (size 15 to 20)
#    0.000    1.091    1.818    6.000    1.273    3.636 
#    0.000    2.727    0.000    0.000    0.000    0.000 
#    0.000    0.000    0.000    0.000    0.000    0.000 
#
# Total GULP energy -122917.907870 kJ/mol
# GULP energy per Si atom -5587.177630 kJ/mol
# Density = 2.127285 g / cm^3
# Si number density = 21.321378 Si / 1000 Ang^3
#
#
#
# Elastic Constant Matrix: (Units=GPa)
#
#
# Indices 1 2 3 4 5 6 
#
# 1 58.3541 0.1543 21.0439 0.0000 -19.0432 0.0000
# 2 0.1543 97.2836 1.4197 0.0000 2.1055 0.0000
# 3 21.0439 1.4197 75.6889 0.0000 -22.7585 0.0000
# 4 0.0000 0.0000 0.0000 32.6298 0.0000 -10.5503
# 5 -19.0432 2.1055 -22.7585 0.0000 29.5967 0.0000
# 6 0.0000 0.0000 0.0000 -10.5503 0.0000 25.9903
#
#
#
# Elastic Compliance Matrix: (Units=1/GPa)
#
#
# Indices 1 2 3 4 5 6 
#
# 1 0.022035 -0.000267 -0.002410 0.000000 0.012344 0.000000
# 2 -0.000267 0.010315 -0.000509 0.000000 -0.001297 0.000000
# 3 -0.002410 -0.000509 0.017477 0.000000 0.011925 0.000000
# 4 0.000000 0.000000 0.000000 0.035277 0.000000 0.014320
# 5 0.012344 -0.001297 0.011925 0.000000 0.050992 0.000000
# 6 0.000000 0.000000 0.000000 0.014320 0.000000 0.044289
#
#
# Mechanical properties :
#
#
# Convention : Reuss Voigt Hill
#
# Bulk Modulus (GPa) = 23.01239 30.72915 26.87077
# Shear Modulus (GPa) = 24.84576 31.55726 28.20151
#
# Velocity S-wave (km/s) = 3.41735 3.85135 3.64082
# Velocity P-wave (km/s) = 5.13688 5.84986 5.50493
#
# Compressibility (1/GPa) = 0.04345486
#
# Stress axis : x y z
#
# Youngs Moduli (GPa) = 45.38301 96.94471 57.21754
#
# Poissons Ratio (x) = 0.02588 0.13788
# Poissons Ratio (y) = 0.01211 0.02914
# Poissons Ratio (z) = 0.10936 0.04938
#
# Static dielectric constant tensor:
#      x y z
#    x 1.801780 0.000000 -0.021430 
#    y 0.000000 1.742010 0.000000 
#    z -0.021430 0.000000 1.817850 
# 
# From -- ./inp_files/182382.got.cif
#   From: 2010.05.17/outbox.cif.g08.bks.cpg/sg15_92_cif.got.tgz:182382.got - 2010.06.03 18:47:42.
