data_PCOD9297858
_publ_section_title
;
Structure prediction by ZEFSAII (Michael W. Deem and Ramdas Pophale) SiO2 
 PCOD9297858
Probable space group: C 2/C
;
_chemical_formula_sum "Si O2"
_cell_formula_units_Z 36
_cell_length_a 8.716732
_cell_length_b 16.776836
_cell_length_c 12.629963
_cell_angle_alpha 90.000000
_cell_angle_beta 60.801216
_cell_angle_gamma 90.000000
_cell_volume 1612.302249
_symmetry_space_group_name_H-M "C 2/C"
_symmetry_group_IT_number 15
_symmetry_cell_setting 'monoclinic'
loop_
_space_group_symop_operation_xyz
x,y,z
-x,y,1/2-z
-x,-y,-z
x,-y,1/2+z
1/2+x,1/2+y,z
1/2-x,1/2+y,1/2-z
1/2-x,1/2-y,-z
1/2+x,1/2-y,1/2+z
loop_
_atom_site_type_symbol
_atom_site_label
_atom_site_fract_x
_atom_site_fract_y
_atom_site_fract_z
Si Si1 0.500000 0.586531 0.250000
Si Si2 0.103661 0.547625 0.322349
Si Si3 0.403274 0.300297 0.387234
Si Si4 0.439069 0.714885 0.449170
Si Si5 0.905227 0.379921 0.082847
O O1 0.315084 0.548471 0.270416
O O2 0.458069 0.643017 0.363270
O O3 0.051902 0.455674 0.361034
O O4 0.000000 0.570623 0.250000
O O5 0.023811 0.606106 0.438808
O O6 0.500000 0.266571 0.250000
O O7 0.250000 0.250000 0.500000
O O8 0.535024 0.313465 0.438963
O O9 0.298237 0.378075 0.384050
O O10 0.250000 0.750000 0.500000
O O11 0.562358 0.791685 0.382091
#
# Coordination Sequence:
#
# PCOD9297858 Si02
#       5
#     4   8   8   8   8
#     4  12  26  46  74 108 144 192 252 304 374 440
#     4  11  25  47  70 100 150 194 236 308 371 444
#     4  10  24  42  69 103 141 189 244 304 364 436
#     4  11  24  42  70 106 143 184 249 307 366 435
#     4  10  24  45  66 103 140 189 247 295 371 436
#
# _framework density 22.328319
#
# number of rings (size 3 to 8) (size 9 to 14) (size 15 to 20)
#    0.000    1.333    2.222    1.333    9.333    3.556 
#    0.000    3.333    0.000    0.000    0.000    0.000 
#    0.000    0.000    0.000    0.000    0.000    0.000 
#
# Total GULP energy -100304.964622 kJ/mol
# GULP energy per Si atom -5572.498035 kJ/mol
# Density = 2.227750 g / cm^3
# Si number density = 22.328319 Si / 1000 Ang^3
#
#
#
# Elastic Constant Matrix: (Units=GPa)
#
#
# Indices 1 2 3 4 5 6 
#
# 1 151.9876 7.7718 48.3173 0.0000 13.0676 0.0000
# 2 7.7718 45.2110 10.1798 0.0000 7.1866 0.0000
# 3 48.3173 10.1798 126.3794 0.0000 14.0575 0.0000
# 4 0.0000 0.0000 0.0000 8.1191 0.0000 -14.0233
# 5 13.0676 7.1866 14.0575 0.0000 39.4381 0.0000
# 6 0.0000 0.0000 0.0000 -14.0233 0.0000 -81.3833
#
#
#
# Elastic Compliance Matrix: (Units=1/GPa)
#
#
# Indices 1 2 3 4 5 6 
#
# 1 0.007588 -0.000463 -0.002700 0.000000 -0.001467 0.000000
# 2 -0.000463 0.023057 -0.001281 0.000000 -0.003592 0.000000
# 3 -0.002700 -0.001281 0.009291 0.000000 -0.002184 0.000000
# 4 0.000000 0.000000 0.000000 0.094918 0.000000 -0.016355
# 5 -0.001467 -0.003592 -0.002184 0.000000 0.027275 0.000000
# 6 0.000000 0.000000 0.000000 -0.016355 0.000000 -0.009469
#
#
# Mechanical properties :
#
#
# Convention : Reuss Voigt Hill
#
# Bulk Modulus (GPa) = 32.20830 50.67953 41.44391
# Shear Modulus (GPa) = 29.08703 10.38872 19.73788
#
# Velocity S-wave (km/s) = 3.61320 2.15935 2.97641
# Velocity P-wave (km/s) = 5.64475 5.38180 5.51484
#
# Compressibility (1/GPa) = 0.03104789
#
# Stress axis : x y z
#
# Youngs Moduli (GPa) = 131.79060 43.37002 107.62909
#
# Poissons Ratio (x) = 0.02008 0.29065
# Poissons Ratio (y) = 0.06103 0.13784
# Poissons Ratio (z) = 0.35589 0.05554
#
# Static dielectric constant tensor:
#      x y z
#    x 2.322160 0.000000 0.184010 
#    y 0.000000 1.817180 0.000000 
#    z 0.184010 0.000000 2.092020 
# 
# From -- ./inp_files/76350.got.cif
#   From: 2010.05.17/outbox.cif.g08.bks.cpg/sg15_39_cif.got.tgz:76350.got - 2010.06.03 18:47:42.
