data_PCOD9297289
_publ_section_title
;
Structure prediction by ZEFSAII (Michael W. Deem and Ramdas Pophale) SiO2 
 PCOD9297289
Probable space group: C 2/C
;
_chemical_formula_sum "Si O2"
_cell_formula_units_Z 48
_cell_length_a 13.822861
_cell_length_b 5.222468
_cell_length_c 28.567856
_cell_angle_alpha 90.000000
_cell_angle_beta 75.999465
_cell_angle_gamma 90.000000
_cell_volume 2001.034074
_symmetry_space_group_name_H-M "C 2/C"
_symmetry_group_IT_number 15
_symmetry_cell_setting 'monoclinic'
loop_
_space_group_symop_operation_xyz
x,y,z
-x,y,1/2-z
-x,-y,-z
x,-y,1/2+z
1/2+x,1/2+y,z
1/2-x,1/2+y,1/2-z
1/2-x,1/2-y,-z
1/2+x,1/2-y,1/2+z
loop_
_atom_site_type_symbol
_atom_site_label
_atom_site_fract_x
_atom_site_fract_y
_atom_site_fract_z
Si Si1 0.233979 0.374990 0.782042
Si Si2 0.199224 0.763254 0.555988
Si Si3 0.704706 0.973850 0.148403
Si Si4 0.994789 0.513269 0.055988
Si Si5 0.896890 0.276169 0.148404
Si Si6 0.935550 0.875008 0.378902
O O1 0.223562 0.124989 0.750000
O O2 0.304606 0.273322 0.816383
O O3 0.129011 0.476658 0.816383
O O4 0.250000 0.750000 0.500000
O O5 0.247866 0.616035 0.593220
O O6 0.094914 0.624991 0.560174
O O7 0.165519 0.027638 0.583462
O O8 0.794381 0.125012 0.161236
O O9 0.607038 0.149948 0.149924
O O10 0.908915 0.366054 0.093220
O O11 0.001021 0.777656 0.083460
O O12 0.000000 0.500000 0.000000
O O13 0.993035 0.100066 0.149925
#
# Coordination Sequence:
#
# PCOD9297289 Si02
#       6
#     8   8   8   8   8   8
#     4  12  26  48  83 122 142 200 273 328 405 486
#     4  10  24  38  65 106 155 201 256 307 384 460
#     4  11  24  45  77 110 155 201 257 327 390 469
#     4  10  24  38  65 106 155 201 256 307 384 460
#     4  11  24  45  77 110 155 201 257 327 390 469
#     4  10  24  44  67 111 156 202 249 320 392 456
#
# _framework density 23.987597000000001
#
# number of rings (size 3 to 8) (size 9 to 14) (size 15 to 20)
#    0.000    1.333    1.667    2.000    9.333    2.667 
#    0.000    0.000    0.000   41.000    0.000    0.000 
#    0.000    0.000    0.000    0.000    0.000    0.000 
#
# Total GULP energy -133745.347709 kJ/mol
# GULP energy per Si atom -5572.722821 kJ/mol
# Density = 2.393300 g / cm^3
# Si number density = 23.987597 Si / 1000 Ang^3
#
#
#
# Elastic Constant Matrix: (Units=GPa)
#
#
# Indices 1 2 3 4 5 6 
#
# 1 94.9403 54.0612 51.4935 0.0001 -0.2330 0.0003
# 2 54.0612 153.3421 80.2955 0.0006 1.2461 0.0009
# 3 51.4935 80.2955 180.2559 0.0001 4.2842 0.0001
# 4 0.0001 0.0006 0.0001 29.5822 0.0001 -0.7320
# 5 -0.2330 1.2461 4.2842 0.0001 19.4866 0.0002
# 6 0.0003 0.0009 0.0001 -0.7320 0.0002 45.0068
#
#
#
# Elastic Compliance Matrix: (Units=1/GPa)
#
#
# Indices 1 2 3 4 5 6 
#
# 1 0.013907 -0.003676 -0.002357 0.000000 0.000920 0.000000
# 2 -0.003676 0.009479 -0.003173 0.000000 0.000048 0.000000
# 3 -0.002357 -0.003173 0.007670 0.000000 -0.001512 0.000000
# 4 0.000000 0.000000 0.000000 0.033818 0.000000 0.000550
# 5 0.000920 0.000048 -0.001512 0.000000 0.051658 0.000000
# 6 0.000000 0.000000 0.000000 0.000550 0.000000 0.022228
#
#
# Mechanical properties :
#
#
# Convention : Reuss Voigt Hill
#
# Bulk Modulus (GPa) = 79.09475 88.91543 84.00509
# Shear Modulus (GPa) = 30.98152 34.99433 32.98792
#
# Velocity S-wave (km/s) = 3.59773 3.82363 3.71240
# Velocity P-wave (km/s) = 7.09246 7.52604 7.31247
#
# Compressibility (1/GPa) = 0.01264306
#
# Stress axis : x y z
#
# Youngs Moduli (GPa) = 71.90675 105.50024 130.36994
#
# Poissons Ratio (x) = 0.38783 0.30729
# Poissons Ratio (y) = 0.26434 0.41370
# Poissons Ratio (z) = 0.16949 0.33478
#
# Static dielectric constant tensor:
#      x y z
#    x 2.114900 0.000000 -0.002420 
#    y 0.000000 2.052760 0.000000 
#    z -0.002420 0.000000 2.063990 
# 
# From -- ./inp_files/305216.got.cif
#   From: 2010.05.17/outbox.cif.g08.bks.cpg/sg15_153_cif.got.tgz:305216.got - 2010.06.03 18:47:42.
