data_PCOD9297871
_publ_section_title
;
Structure prediction by ZEFSAII (Michael W. Deem and Ramdas Pophale) SiO2 
 PCOD9297871
Probable space group: C 2/C
;
_chemical_formula_sum "Si O2"
_cell_formula_units_Z 36
_cell_length_a 28.258649
_cell_length_b 10.155644
_cell_length_c 9.549357
_cell_angle_alpha 90.000000
_cell_angle_beta 148.157670
_cell_angle_gamma 90.000000
_cell_volume 1445.853330
_symmetry_space_group_name_H-M "C 2/C"
_symmetry_group_IT_number 15
_symmetry_cell_setting 'monoclinic'
loop_
_space_group_symop_operation_xyz
x,y,z
-x,y,1/2-z
-x,-y,-z
x,-y,1/2+z
1/2+x,1/2+y,z
1/2-x,1/2+y,1/2-z
1/2-x,1/2-y,-z
1/2+x,1/2-y,1/2+z
loop_
_atom_site_type_symbol
_atom_site_label
_atom_site_fract_x
_atom_site_fract_y
_atom_site_fract_z
Si Si1 0.500000 0.504860 0.250000
Si Si2 0.404268 0.249086 0.965381
Si Si3 0.212101 0.635466 0.599161
Si Si4 0.111609 0.224000 0.595795
Si Si5 0.082289 0.405804 0.266231
O O1 0.419614 0.398822 0.053492
O O2 0.536699 0.615607 0.449875
O O3 0.500000 0.182718 0.250000
O O4 0.320175 0.185145 0.830786
O O5 0.405377 0.218208 0.805363
O O6 0.156496 0.723299 0.348358
O O7 0.313901 0.651102 0.810898
O O8 0.172189 0.491204 0.481967
O O9 0.083158 0.346470 0.425371
O O10 0.000000 0.500000 0.000000
#
# Coordination Sequence:
#
# PCOD9297871 Si02
#       5
#     4   8   8   8   8
#     4  10  24  46  66 102 132 182 224 282 340 416
#     4  10  24  42  69  99 136 175 230 280 345 407
#     4  11  25  46  65 105 136 181 232 282 350 414
#     4  11  27  43  72  98 140 182 227 291 347 413
#     4  12  23  45  71 101 133 182 233 287 339 419
#
# _framework density 24.898790999999999
#
# number of rings (size 3 to 8) (size 9 to 14) (size 15 to 20)
#    0.667    0.444    2.222    2.667    3.111    4.444 
#    4.000    0.000    0.000    0.000    0.000    0.000 
#    0.000    0.000    0.000    0.000    0.000    0.000 
#
# Total GULP energy -100337.988510 kJ/mol
# GULP energy per Si atom -5574.332695 kJ/mol
# Density = 2.484212 g / cm^3
# Si number density = 24.898791 Si / 1000 Ang^3
#
#
#
# Elastic Constant Matrix: (Units=GPa)
#
#
# Indices 1 2 3 4 5 6 
#
# 1 78.7096 26.6464 8.7541 0.0000 18.2619 0.0000
# 2 26.6464 106.8260 37.0629 0.0000 21.2648 0.0000
# 3 8.7541 37.0629 53.1524 0.0000 -0.3301 0.0000
# 4 0.0000 0.0000 0.0000 29.6295 0.0000 16.5866
# 5 18.2619 21.2648 -0.3301 0.0000 39.0290 0.0000
# 6 0.0000 0.0000 0.0000 16.5866 0.0000 12.9264
#
#
#
# Elastic Compliance Matrix: (Units=1/GPa)
#
#
# Indices 1 2 3 4 5 6 
#
# 1 0.014905 -0.002254 -0.000919 0.000000 -0.005754 0.000000
# 2 -0.002254 0.014803 -0.009995 0.000000 -0.007096 0.000000
# 3 -0.000919 -0.009995 0.025973 0.000000 0.006096 0.000000
# 4 0.000000 0.000000 0.000000 0.119816 0.000000 -0.153743
# 5 -0.005754 -0.007096 0.006096 0.000000 0.032232 0.000000
# 6 0.000000 0.000000 0.000000 -0.153743 0.000000 0.274638
#
#
# Mechanical properties :
#
#
# Convention : Reuss Voigt Hill
#
# Bulk Modulus (GPa) = 34.07704 42.62386 38.35045
# Shear Modulus (GPa) = 9.64349 27.39861 18.52105
#
# Velocity S-wave (km/s) = 1.97015 3.32083 2.73033
# Velocity P-wave (km/s) = 4.34641 5.64445 5.03742
#
# Compressibility (1/GPa) = 0.02934527
#
# Stress axis : x y z
#
# Youngs Moduli (GPa) = 67.09089 67.55203 38.50196
#
# Poissons Ratio (x) = 0.15223 0.03539
# Poissons Ratio (y) = 0.15119 0.38484
# Poissons Ratio (z) = 0.06167 0.67520
#
# Static dielectric constant tensor:
#      x y z
#    x 1.960710 0.000000 0.020500 
#    y 0.000000 1.981590 0.000000 
#    z 0.020500 0.000000 2.050460 
# 
# From -- ./inp_files/65299.got.cif
#   From: 2010.05.17/outbox.cif.g08.bks.cpg/sg15_33_cif.got.tgz:65299.got - 2010.06.03 18:47:42.
