data_PCOD9297990
_publ_section_title
;
Structure prediction by ZEFSAII (Michael W. Deem and Ramdas Pophale) SiO2 
 PCOD9297990
Probable space group: C 2/C
;
_chemical_formula_sum "Si O2"
_cell_formula_units_Z 40
_cell_length_a 12.069165
_cell_length_b 13.180840
_cell_length_c 19.968184
_cell_angle_alpha 90.000000
_cell_angle_beta 37.550637
_cell_angle_gamma 90.000000
_cell_volume 1936.001813
_symmetry_space_group_name_H-M "C 2/C"
_symmetry_group_IT_number 15
_symmetry_cell_setting 'monoclinic'
loop_
_space_group_symop_operation_xyz
x,y,z
-x,y,1/2-z
-x,-y,-z
x,-y,1/2+z
1/2+x,1/2+y,z
1/2-x,1/2+y,1/2-z
1/2-x,1/2-y,-z
1/2+x,1/2-y,1/2+z
loop_
_atom_site_type_symbol
_atom_site_label
_atom_site_fract_x
_atom_site_fract_y
_atom_site_fract_z
Si Si1 0.193262 0.531075 0.178537
Si Si2 0.212226 0.240278 0.438770
Si Si3 0.500000 0.740577 0.250000
Si Si4 0.135970 0.840530 0.457414
Si Si5 0.405694 0.577766 0.192542
Si Si6 0.000000 0.098157 0.750000
O O1 0.222973 0.629560 0.118344
O O2 0.336154 0.440710 0.100974
O O3 0.217472 0.563244 0.243402
O O4 0.000000 0.490109 0.250000
O O5 0.250000 0.250000 0.500000
O O6 0.329529 0.328199 0.346772
O O7 0.003606 0.235948 0.512607
O O8 0.338648 0.796641 0.367088
O O9 0.393624 0.668089 0.250448
O O10 0.047693 0.882562 0.568130
O O11 0.464837 0.476656 0.203740
#
# Coordination Sequence:
#
# PCOD9297990 Si02
#       6
#     8   8   4   8   8   4
#     4  11  22  40  63  93 126 170 208 264 325 375
#     4  11  23  39  69  99 128 169 220 265 325 386
#     4  11  24  43  66  94 130 171 212 275 320 378
#     4  11  23  43  66  95 129 171 217 262 324 393
#     4  10  24  43  62  94 136 163 217 270 318 386
#     4  11  22  45  66  96 134 169 208 277 318 378
#
# _framework density 20.661138999999999
#
# number of rings (size 3 to 8) (size 9 to 14) (size 15 to 20)
#    0.000    1.200    2.000    5.400    2.800    3.200 
#    3.600    2.000    0.000    0.000    0.000    0.000 
#    0.000    0.000    0.000    0.000    0.000    0.000 
#
# Total GULP energy -111539.857856 kJ/mol
# GULP energy per Si atom -5576.992893 kJ/mol
# Density = 2.061411 g / cm^3
# Si number density = 20.661139 Si / 1000 Ang^3
#
#
#
# Elastic Constant Matrix: (Units=GPa)
#
#
# Indices 1 2 3 4 5 6 
#
# 1 136.7869 50.7675 52.9737 0.0000 0.6252 0.0000
# 2 50.7675 103.2117 40.7619 -0.0001 -2.9423 0.0000
# 3 52.9737 40.7619 84.8161 -0.0003 -13.7165 0.0001
# 4 0.0000 -0.0001 -0.0003 18.0566 0.0001 0.2392
# 5 0.6252 -2.9423 -13.7165 0.0001 42.0552 -0.0001
# 6 0.0000 0.0000 0.0001 0.2392 -0.0001 18.3185
#
#
#
# Elastic Compliance Matrix: (Units=1/GPa)
#
#
# Indices 1 2 3 4 5 6 
#
# 1 0.010594 -0.003112 -0.005470 0.000000 -0.002159 0.000000
# 2 -0.003112 0.012921 -0.004341 0.000000 -0.000466 0.000000
# 3 -0.005470 -0.004341 0.018218 0.000000 0.005720 0.000000
# 4 0.000000 0.000000 0.000000 0.055391 0.000000 -0.000723
# 5 -0.002159 -0.000466 0.005720 0.000000 0.025643 0.000000
# 6 0.000000 0.000000 0.000000 -0.000723 0.000000 0.054599
#
#
# Mechanical properties :
#
#
# Convention : Reuss Voigt Hill
#
# Bulk Modulus (GPa) = 62.94954 68.20232 65.57593
# Shear Modulus (GPa) = 23.97982 27.70684 25.84333
#
# Velocity S-wave (km/s) = 3.41049 3.66596 3.54053
# Velocity P-wave (km/s) = 6.78545 7.14147 6.96573
#
# Compressibility (1/GPa) = 0.01588574
#
# Stress axis : x y z
#
# Youngs Moduli (GPa) = 94.39271 77.39446 54.89044
#
# Poissons Ratio (x) = 0.24086 0.30027
# Poissons Ratio (y) = 0.29376 0.23829
# Poissons Ratio (z) = 0.51636 0.33599
#
# Static dielectric constant tensor:
#      x y z
#    x 1.763760 0.000000 -0.039970 
#    y 0.000000 1.752840 0.000000 
#    z -0.039970 0.000000 1.774020 
# 
# From -- ./inp_files/198125.got.cif
#   From: 2010.05.17/outbox.cif.g08.bks.cpg/sg15_100_cif.got.tgz:198125.got - 2010.06.03 18:47:42.
