data_PCOD9297427
_publ_section_title
;
Structure prediction by ZEFSAII (Michael W. Deem and Ramdas Pophale) SiO2 
 PCOD9297427
Probable space group: C 2/C
;
_chemical_formula_sum "Si O2"
_cell_formula_units_Z 40
_cell_length_a 5.021528
_cell_length_b 17.654747
_cell_length_c 20.994129
_cell_angle_alpha 90.000000
_cell_angle_beta 83.840331
_cell_angle_gamma 90.000000
_cell_volume 1850.464201
_symmetry_space_group_name_H-M "C 2/C"
_symmetry_group_IT_number 15
_symmetry_cell_setting 'monoclinic'
loop_
_space_group_symop_operation_xyz
x,y,z
-x,y,1/2-z
-x,-y,-z
x,-y,1/2+z
1/2+x,1/2+y,z
1/2-x,1/2+y,1/2-z
1/2-x,1/2-y,-z
1/2+x,1/2-y,1/2+z
loop_
_atom_site_type_symbol
_atom_site_label
_atom_site_fract_x
_atom_site_fract_y
_atom_site_fract_z
Si Si1 0.988918 0.591332 0.919442
Si Si2 0.262415 0.824865 0.206661
Si Si3 0.126489 0.772439 0.435481
Si Si4 0.638408 0.700692 0.382722
Si Si5 0.279144 0.445615 0.539787
O O1 0.713936 0.640424 0.925284
O O2 0.917329 0.503138 0.918419
O O3 0.165208 0.624560 0.857424
O O4 0.125322 0.596371 0.985786
O O5 0.500000 0.831504 0.250000
O O6 0.235508 0.737202 0.184060
O O7 0.000000 0.850276 0.250000
O O8 0.250000 0.750000 0.500000
O O9 0.331625 0.727571 0.384722
O O10 0.828026 0.746146 0.428762
O O11 0.629113 0.616670 0.411464
O O12 0.500000 0.500000 0.500000
#
# Coordination Sequence:
#
# PCOD9297427 Si02
#       5
#     8   8   8   8   8
#     4  10  24  40  66 100 136 173 223 277 345 416
#     4  11  25  46  71  92 128 184 241 273 315 394
#     4  11  20  36  63  97 126 171 210 268 335 395
#     4  11  24  40  68  95 132 166 224 279 330 394
#     4  11  24  40  67 107 139 171 207 290 368 410
#
# _framework density 21.616198000000001
#
# number of rings (size 3 to 8) (size 9 to 14) (size 15 to 20)
#    0.000    1.200    2.000    4.200   14.000    0.000 
#    0.000    1.000    0.000    0.000    0.000    0.000 
#    0.000    0.000    0.000    0.000    0.000    0.000 
#
# Total GULP energy -111508.886907 kJ/mol
# GULP energy per Si atom -5575.444345 kJ/mol
# Density = 2.156700 g / cm^3
# Si number density = 21.616198 Si / 1000 Ang^3
#
#
#
# Elastic Constant Matrix: (Units=GPa)
#
#
# Indices 1 2 3 4 5 6 
#
# 1 101.5898 33.3591 30.9736 0.0000 2.9451 0.0000
# 2 33.3591 133.3124 49.7764 0.0000 -10.5364 0.0000
# 3 30.9736 49.7764 99.3160 0.0000 -7.6647 0.0000
# 4 0.0000 0.0000 0.0000 47.4806 0.0000 -6.2346
# 5 2.9451 -10.5364 -7.6647 0.0000 37.2192 0.0000
# 6 0.0000 0.0000 0.0000 -6.2346 0.0000 27.2923
#
#
#
# Elastic Compliance Matrix: (Units=1/GPa)
#
#
# Indices 1 2 3 4 5 6 
#
# 1 0.011383 -0.001998 -0.002705 0.000000 -0.002023 0.000000
# 2 -0.001998 0.009684 -0.004071 0.000000 0.002061 0.000000
# 3 -0.002705 -0.004071 0.013088 0.000000 0.001757 0.000000
# 4 0.000000 0.000000 0.000000 0.021713 0.000000 0.004960
# 5 -0.002023 0.002061 0.001757 0.000000 0.027973 0.000000
# 6 0.000000 0.000000 0.000000 0.004960 0.000000 0.037773
#
#
# Mechanical properties :
#
#
# Convention : Reuss Voigt Hill
#
# Bulk Modulus (GPa) = 60.21560 62.49295 61.35428
# Shear Modulus (GPa) = 34.55435 37.07234 35.81335
#
# Velocity S-wave (km/s) = 4.00251 4.14578 4.07478
# Velocity P-wave (km/s) = 7.01978 7.20345 7.11221
#
# Compressibility (1/GPa) = 0.01660699
#
# Stress axis : x y z
#
# Youngs Moduli (GPa) = 87.85037 103.25932 76.40324
#
# Poissons Ratio (x) = 0.20636 0.20663
# Poissons Ratio (y) = 0.17557 0.31107
# Poissons Ratio (z) = 0.23759 0.42041
#
# Static dielectric constant tensor:
#      x y z
#    x 1.841260 0.000000 -0.035990 
#    y 0.000000 1.832620 0.000000 
#    z -0.035990 0.000000 1.850010 
# 
# From -- ./inp_files/226809.got.cif
#   From: 2010.05.17/outbox.cif.g08.bks.cpg/sg15_114_cif.got.tgz:226809.got - 2010.06.03 18:47:42.
