data_PCOD9297957
_publ_section_title
;
Structure prediction by ZEFSAII (Michael W. Deem and Ramdas Pophale) SiO2 
 PCOD9297957
Probable space group: C 2/C
;
_chemical_formula_sum "Si O2"
_cell_formula_units_Z 28
_cell_length_a 10.976767
_cell_length_b 15.374306
_cell_length_c 7.385025
_cell_angle_alpha 90.000000
_cell_angle_beta 112.202276
_cell_angle_gamma 90.000000
_cell_volume 1153.892053
_symmetry_space_group_name_H-M "C 2/C"
_symmetry_group_IT_number 15
_symmetry_cell_setting 'monoclinic'
loop_
_space_group_symop_operation_xyz
x,y,z
-x,y,1/2-z
-x,-y,-z
x,-y,1/2+z
1/2+x,1/2+y,z
1/2-x,1/2+y,1/2-z
1/2-x,1/2-y,-z
1/2+x,1/2-y,1/2+z
loop_
_atom_site_type_symbol
_atom_site_label
_atom_site_fract_x
_atom_site_fract_y
_atom_site_fract_z
Si Si1 0.585517 0.079079 0.463028
Si Si2 0.667334 0.593958 0.117100
Si Si3 0.000000 0.012672 0.750000
Si Si4 0.650879 0.231796 0.774760
O O1 0.500000 0.122197 0.250000
O O2 0.711701 0.051292 0.417352
O O3 0.637071 0.141524 0.654339
O O4 0.500000 0.000000 0.500000
O O5 0.624394 0.547880 0.277309
O O6 0.693238 0.694327 0.157838
O O7 0.535194 0.576888 0.930874
O O8 0.500000 0.249573 0.750000
O O9 0.750000 0.250000 0.000000
#
# Coordination Sequence:
#
# PCOD9297957 Si02
#       4
#     8   8   4   8
#     4  12  27  48  77 116 160 207 265 331 410 487
#     4  11  24  45  73 108 154 194 265 315 399 470
#     4  10  24  42  74 106 138 198 254 322 384 474
#     4  12  28  49  78 116 162 211 268 337 410 489
#
# _framework density 24.265702999999998
#
# number of rings (size 3 to 8) (size 9 to 14) (size 15 to 20)
#    0.000    0.571    1.429    5.143    6.000    2.286 
#    0.000    0.000    0.000    0.000    0.000    0.000 
#    0.000    0.000    0.000    0.000    0.000    0.000 
#
# Total GULP energy -78078.625703 kJ/mol
# GULP energy per Si atom -5577.044693 kJ/mol
# Density = 2.421047 g / cm^3
# Si number density = 24.265703 Si / 1000 Ang^3
#
#
#
# Elastic Constant Matrix: (Units=GPa)
#
#
# Indices 1 2 3 4 5 6 
#
# 1 182.5025 46.8088 36.0935 0.0000 -11.9158 0.0000
# 2 46.8088 144.1637 83.2464 0.0000 -4.8322 0.0000
# 3 36.0935 83.2464 138.8446 0.0000 16.4039 0.0000
# 4 0.0000 0.0000 0.0000 28.0905 0.0000 10.8829
# 5 -11.9158 -4.8322 16.4039 0.0000 34.7688 0.0000
# 6 0.0000 0.0000 0.0000 10.8829 0.0000 12.5910
#
#
#
# Elastic Compliance Matrix: (Units=1/GPa)
#
#
# Indices 1 2 3 4 5 6 
#
# 1 0.006193 -0.001267 -0.001144 0.000000 0.002486 0.000000
# 2 -0.001267 0.011662 -0.007204 0.000000 0.004586 0.000000
# 3 -0.001144 -0.007204 0.012691 0.000000 -0.007381 0.000000
# 4 0.000000 0.000000 0.000000 0.053522 0.000000 -0.046261
# 5 0.002486 0.004586 -0.007381 0.000000 0.033733 0.000000
# 6 0.000000 0.000000 0.000000 -0.046261 0.000000 0.119406
#
#
# Mechanical properties :
#
#
# Convention : Reuss Voigt Hill
#
# Bulk Modulus (GPa) = 88.37610 88.64534 88.51072
# Shear Modulus (GPa) = 19.21528 35.04754 27.13141
#
# Velocity S-wave (km/s) = 2.81707 3.80455 3.34742
# Velocity P-wave (km/s) = 6.86152 7.47729 7.17601
#
# Compressibility (1/GPa) = 0.01131528
#
# Stress axis : x y z
#
# Youngs Moduli (GPa) = 161.47590 85.75048 78.79425
#
# Poissons Ratio (x) = 0.10863 0.09015
# Poissons Ratio (y) = 0.20456 0.56767
# Poissons Ratio (z) = 0.18474 0.61778
#
# Static dielectric constant tensor:
#      x y z
#    x 1.993760 0.000000 -0.081540 
#    y 0.000000 1.956720 0.000000 
#    z -0.081540 0.000000 2.256370 
# 
# From -- ./inp_files/28083.got.cif
#   From: 2010.05.17/outbox.cif.g08.bks.cpg/sg15_15_cif.got.tgz:28083.got - 2010.06.03 18:47:42.
