data_PCOD9297594
_publ_section_title
;
Structure prediction by ZEFSAII (Michael W. Deem and Ramdas Pophale) SiO2 
 PCOD9297594
Probable space group: C 2/C
;
_chemical_formula_sum "Si O2"
_cell_formula_units_Z 56
_cell_length_a 21.832821
_cell_length_b 14.470107
_cell_length_c 15.015399
_cell_angle_alpha 90.000000
_cell_angle_beta 29.912853
_cell_angle_gamma 90.000000
_cell_volume 2365.605585
_symmetry_space_group_name_H-M "C 2/C"
_symmetry_group_IT_number 15
_symmetry_cell_setting 'monoclinic'
loop_
_space_group_symop_operation_xyz
x,y,z
-x,y,1/2-z
-x,-y,-z
x,-y,1/2+z
1/2+x,1/2+y,z
1/2-x,1/2+y,1/2-z
1/2-x,1/2-y,-z
1/2+x,1/2-y,1/2+z
loop_
_atom_site_type_symbol
_atom_site_label
_atom_site_fract_x
_atom_site_fract_y
_atom_site_fract_z
Si Si1 0.631244 0.823500 0.743957
Si Si2 0.429555 0.285366 0.759396
Si Si3 0.738261 0.827716 0.144270
Si Si4 0.929193 0.951653 0.666932
Si Si5 0.302995 0.133627 0.136070
Si Si6 0.614013 0.363732 0.175770
Si Si7 0.414723 0.047244 0.534362
O O1 0.675173 0.854325 0.786393
O O2 0.603510 0.715012 0.765027
O O3 0.750569 0.848740 0.535445
O O4 0.504597 0.876287 0.878687
O O5 0.500000 0.235729 0.750000
O O6 0.389976 0.212597 0.735209
O O7 0.502047 0.372818 0.628724
O O8 0.314960 0.338016 0.954465
O O9 0.805833 0.740145 0.102835
O O10 0.697914 0.904391 0.267938
O O11 0.825275 0.895691 0.745802
O O12 0.890293 0.033376 0.780901
O O13 0.000000 0.000000 0.500000
O O14 0.377921 0.039342 0.019025
O O15 0.500000 0.351868 0.250000
O O16 0.500000 0.000000 0.500000
#
# Coordination Sequence:
#
# PCOD9297594 Si02
#       7
#     8   8   8   8   8   8   8
#     4  10  25  44  68 101 138 191 237 291 370 425
#     4  10  24  41  67  96 136 185 228 297 361 419
#     4  10  24  44  68 102 142 180 242 291 363 433
#     4  11  25  40  66 101 132 182 239 294 359 430
#     4  10  24  44  70 103 135 188 235 295 363 429
#     4  11  25  43  69 101 146 185 234 302 358 441
#     4  10  24  42  73  98 139 187 234 295 354 437
#
# _framework density 23.672585999999999
#
# number of rings (size 3 to 8) (size 9 to 14) (size 15 to 20)
#    0.000    1.714    0.000    1.286   18.000    1.143 
#    0.000    0.000    0.000    0.000    0.000    0.000 
#    0.000    0.000    0.000    0.000    0.000    0.000 
#
# Total GULP energy -156009.757753 kJ/mol
# GULP energy per Si atom -5571.777063 kJ/mol
# Density = 2.361871 g / cm^3
# Si number density = 23.672586 Si / 1000 Ang^3
#
#
#
# Elastic Constant Matrix: (Units=GPa)
#
#
# Indices 1 2 3 4 5 6 
#
# 1 66.7158 34.3727 -6.4577 0.0000 4.5778 0.0000
# 2 34.3727 154.7997 34.0296 0.0000 2.8146 0.0000
# 3 -6.4577 34.0296 70.2222 0.0000 -2.4958 0.0000
# 4 0.0000 0.0000 0.0000 32.1119 0.0000 -6.0698
# 5 4.5778 2.8146 -2.4958 0.0000 15.8368 0.0000
# 6 0.0000 0.0000 0.0000 -6.0698 0.0000 45.6254
#
#
#
# Elastic Compliance Matrix: (Units=1/GPa)
#
#
# Indices 1 2 3 4 5 6 
#
# 1 0.018091 -0.004796 0.003854 0.000000 -0.003770 0.000000
# 2 -0.004796 0.008556 -0.004618 0.000000 -0.000862 0.000000
# 3 0.003854 -0.004618 0.016917 0.000000 0.002373 0.000000
# 4 0.000000 0.000000 0.000000 0.031944 0.000000 0.004250
# 5 -0.003770 -0.000862 0.002373 0.000000 0.064761 0.000000
# 6 0.000000 0.000000 0.000000 0.004250 0.000000 0.022483
#
#
# Mechanical properties :
#
#
# Convention : Reuss Voigt Hill
#
# Bulk Modulus (GPa) = 30.82173 46.18075 38.50124
# Shear Modulus (GPa) = 27.07284 34.03434 30.55359
#
# Velocity S-wave (km/s) = 3.38544 3.79583 3.59649
# Velocity P-wave (km/s) = 5.32258 6.22588 5.79187
#
# Compressibility (1/GPa) = 0.03244465
#
# Stress axis : x y z
#
# Youngs Moduli (GPa) = 55.27459 116.88211 59.11221
#
# Poissons Ratio (x) = 0.56054 -0.22780
# Poissons Ratio (y) = 0.26508 0.27296
# Poissons Ratio (z) = -0.21301 0.53973
#
# Static dielectric constant tensor:
#      x y z
#    x 2.068460 0.000000 -0.032510 
#    y 0.000000 1.970770 0.000000 
#    z -0.032510 0.000000 2.061660 
# 
# From -- ./inp_files/173768.got.cif
#   From: 2010.05.17/outbox.cif.g08.bks.cpg/sg15_87_cif.got.tgz:173768.got - 2010.06.03 18:47:42.
