data_PCOD9297881
_publ_section_title
;
Structure prediction by ZEFSAII (Michael W. Deem and Ramdas Pophale) SiO2 
 PCOD9297881
Probable space group: C 2/C
;
_chemical_formula_sum "Si O2"
_cell_formula_units_Z 60
_cell_length_a 11.072498
_cell_length_b 17.774043
_cell_length_c 26.179352
_cell_angle_alpha 90.000000
_cell_angle_beta 31.062822
_cell_angle_gamma 90.000000
_cell_volume 2658.407683
_symmetry_space_group_name_H-M "C 2/C"
_symmetry_group_IT_number 15
_symmetry_cell_setting 'monoclinic'
loop_
_space_group_symop_operation_xyz
x,y,z
-x,y,1/2-z
-x,-y,-z
x,-y,1/2+z
1/2+x,1/2+y,z
1/2-x,1/2+y,1/2-z
1/2-x,1/2-y,-z
1/2+x,1/2-y,1/2+z
loop_
_atom_site_type_symbol
_atom_site_label
_atom_site_fract_x
_atom_site_fract_y
_atom_site_fract_z
Si Si1 0.176895 0.497498 0.278710
Si Si2 0.000000 0.050399 0.750000
Si Si3 0.834036 0.144729 0.661166
Si Si4 0.561700 0.640572 0.314561
Si Si5 0.342770 0.433938 0.534969
Si Si6 0.268521 0.310591 0.645183
Si Si7 0.199582 0.170386 0.603586
Si Si8 0.176985 0.303304 0.878001
O O1 0.289522 0.486529 0.294152
O O2 0.174293 0.420221 0.245677
O O3 0.364934 0.558827 0.189944
O O4 0.920754 0.534300 0.373617
O O5 0.862055 0.094107 0.844949
O O6 0.762399 0.213591 0.649489
O O7 0.037964 0.097206 0.559502
O O8 0.959845 0.189448 0.661483
O O9 0.587665 0.690600 0.355002
O O10 0.747723 0.660474 0.202877
O O11 0.323306 0.656464 0.370444
O O12 0.500000 0.500000 0.500000
O O13 0.360798 0.366018 0.568612
O O14 0.257608 0.228084 0.626743
O O15 0.000000 0.335746 0.750000
O O16 0.409245 0.180120 0.487798
#
# Coordination Sequence:
#
# PCOD9297881 Si02
#       8
#     8   4   8   8   8   8   8   8
#     4  11  25  48  69 102 150 188 239 295 359 444
#     4  10  24  42  70 104 138 188 236 294 360 420
#     4  11  25  45  71 104 142 186 240 290 359 423
#     4  11  25  43  72  99 140 188 230 295 364 421
#     4  12  27  44  71 102 141 192 232 291 363 427
#     4  12  23  43  69  95 134 180 233 280 355 413
#     4  11  23  42  70 101 136 182 230 294 349 421
#     4  11  24  44  70 107 138 180 240 296 356 422
#
# _framework density 22.569901000000002
#
# number of rings (size 3 to 8) (size 9 to 14) (size 15 to 20)
#    0.000    0.800    3.333    3.600    1.867    4.800 
#    0.000    3.333    0.000    0.000    0.000    0.000 
#    0.000    0.000    0.000    0.000    0.000    0.000 
#
# Total GULP energy -167435.050371 kJ/mol
# GULP energy per Si atom -5581.168346 kJ/mol
# Density = 2.251853 g / cm^3
# Si number density = 22.569901 Si / 1000 Ang^3
#
#
#
# Elastic Constant Matrix: (Units=GPa)
#
#
# Indices 1 2 3 4 5 6 
#
# 1 100.4385 12.2629 7.6693 0.0554 -7.8273 -0.0122
# 2 12.2629 67.5276 9.6462 0.0571 -22.5182 -0.0182
# 3 7.6693 9.6462 54.0314 -0.1535 -3.5887 0.0495
# 4 0.0554 0.0571 -0.1535 15.5342 0.1021 14.8778
# 5 -7.8273 -22.5182 -3.5887 0.1021 29.1949 -0.0161
# 6 -0.0122 -0.0182 0.0495 14.8778 -0.0161 40.2315
#
#
#
# Elastic Compliance Matrix: (Units=1/GPa)
#
#
# Indices 1 2 3 4 5 6 
#
# 1 0.010318 -0.001123 -0.001148 -0.000093 0.001759 0.000039
# 2 -0.001123 0.020417 -0.002481 -0.000329 0.015143 0.000140
# 3 -0.001148 -0.002481 0.019123 0.000349 0.000128 -0.000154
# 4 -0.000093 -0.000329 0.000349 0.099693 -0.000605 -0.036868
# 5 0.001759 0.015143 0.000128 -0.000605 0.046422 0.000249
# 6 0.000039 0.000140 -0.000154 -0.036868 0.000249 0.038490
#
#
# Mechanical properties :
#
#
# Convention : Reuss Voigt Hill
#
# Bulk Modulus (GPa) = 24.77975 31.23936 28.00956
# Shear Modulus (GPa) = 19.42363 29.82006 24.62184
#
# Velocity S-wave (km/s) = 2.93678 3.63882 3.30648
# Velocity P-wave (km/s) = 4.74368 5.61479 5.19752
#
# Compressibility (1/GPa) = 0.04035554
#
# Stress axis : x y z
#
# Youngs Moduli (GPa) = 96.91559 48.97858 52.29253
#
# Poissons Ratio (x) = 0.05501 0.06001
# Poissons Ratio (y) = 0.10884 0.12973
# Poissons Ratio (z) = 0.11121 0.12151
#
# Static dielectric constant tensor:
#      x y z
#    x 1.858510 0.000030 -0.020770 
#    y 0.000030 1.912060 0.000010 
#    z -0.020770 0.000010 1.806660 
# 
# From -- ./inp_files/293540.got.cif
#   From: 2010.05.17/outbox.cif.g08.bks.cpg/sg15_147_cif.got.tgz:293540.got - 2010.06.03 18:47:42.
