data_PCOD9297198
_publ_section_title
;
Structure prediction by ZEFSAII (Michael W. Deem and Ramdas Pophale) SiO2 
 PCOD9297198
Probable space group: C 2/C
;
_chemical_formula_sum "Si O2"
_cell_formula_units_Z 44
_cell_length_a 24.119809
_cell_length_b 11.421555
_cell_length_c 8.227217
_cell_angle_alpha 90.000000
_cell_angle_beta 99.098305
_cell_angle_gamma 90.000000
_cell_volume 2237.965078
_symmetry_space_group_name_H-M "C 2/C"
_symmetry_group_IT_number 15
_symmetry_cell_setting 'monoclinic'
loop_
_space_group_symop_operation_xyz
x,y,z
-x,y,1/2-z
-x,-y,-z
x,-y,1/2+z
1/2+x,1/2+y,z
1/2-x,1/2+y,1/2-z
1/2-x,1/2-y,-z
1/2+x,1/2-y,1/2+z
loop_
_atom_site_type_symbol
_atom_site_label
_atom_site_fract_x
_atom_site_fract_y
_atom_site_fract_z
Si Si1 0.830410 0.395102 0.432117
Si Si2 0.580171 0.897474 0.533372
Si Si3 0.207247 0.816390 0.776302
Si Si4 0.000000 0.489887 0.250000
Si Si5 0.203523 0.964762 0.443673
Si Si6 0.834161 0.246485 0.766827
O O1 0.875449 0.495970 0.433352
O O2 0.826857 0.300704 0.284305
O O3 0.768413 0.450204 0.418556
O O4 0.840265 0.326642 0.605894
O O5 0.530932 0.925749 0.637700
O O6 0.548164 0.909110 0.349268
O O7 0.615371 0.783182 0.593538
O O8 0.200432 0.902614 0.616737
O O9 0.272769 0.779520 0.809648
O O10 0.190539 0.898356 0.918954
O O11 0.167977 0.884240 0.304312
#
# Coordination Sequence:
#
# PCOD9297198 Si02
#       6
#     8   8   8   4   8   8
#     4   9  17  30  50  67 103 135 154 190 247 286
#     4  11  18  36  48  74  96 128 162 207 248 274
#     4   9  17  30  46  74 100 134 161 181 228 311
#     4  10  24  30  52  70  94 122 178 208 240 286
#     4   9  17  30  46  74 100 134 161 181 228 311
#     4   9  17  30  50  67 103 135 154 190 247 286
#
# _framework density 19.660717000000002
#
# number of rings (size 3 to 8) (size 9 to 14) (size 15 to 20)
#    0.000    2.545    3.636    2.182    0.000    0.000 
#    3.273    1.818    0.000    0.000    0.000    7.636 
#    0.000    0.000    0.000    0.000    0.000    0.000 
#
# Total GULP energy -122847.738674 kJ/mol
# GULP energy per Si atom -5583.988122 kJ/mol
# Density = 1.961597 g / cm^3
# Si number density = 19.660717 Si / 1000 Ang^3
#
#
#
# Elastic Constant Matrix: (Units=GPa)
#
#
# Indices 1 2 3 4 5 6 
#
# 1 49.7892 18.1714 8.7658 0.0000 10.0544 0.0000
# 2 18.1714 78.1218 24.0950 0.0000 10.5243 0.0000
# 3 8.7658 24.0950 59.4554 0.0000 22.8925 0.0000
# 4 0.0000 0.0000 0.0000 32.8609 0.0000 2.6713
# 5 10.0544 10.5243 22.8925 0.0000 30.1499 0.0000
# 6 0.0000 0.0000 0.0000 2.6713 0.0000 22.1093
#
#
#
# Elastic Compliance Matrix: (Units=1/GPa)
#
#
# Indices 1 2 3 4 5 6 
#
# 1 0.023020 -0.004797 0.001217 0.000000 -0.006926 0.000000
# 2 -0.004797 0.015644 -0.005859 0.000000 0.000587 0.000000
# 3 0.001217 -0.005859 0.025978 0.000000 -0.018085 0.000000
# 4 0.000000 0.000000 0.000000 0.030733 0.000000 -0.003713
# 5 -0.006926 0.000587 -0.018085 0.000000 0.049004 0.000000
# 6 0.000000 0.000000 0.000000 -0.003713 0.000000 0.045679
#
#
# Mechanical properties :
#
#
# Convention : Reuss Voigt Hill
#
# Bulk Modulus (GPa) = 21.85115 32.15897 27.00506
# Shear Modulus (GPa) = 22.30249 26.11297 24.20773
#
# Velocity S-wave (km/s) = 3.37169 3.64837 3.51276
# Velocity P-wave (km/s) = 5.12796 5.84294 5.49709
#
# Compressibility (1/GPa) = 0.04576418
#
# Stress axis : x y z
#
# Youngs Moduli (GPa) = 43.44096 63.92152 38.49428
#
# Poissons Ratio (x) = 0.30661 -0.04684
# Poissons Ratio (y) = 0.20837 0.22554
# Poissons Ratio (z) = -0.05286 0.37451
#
# Static dielectric constant tensor:
#      x y z
#    x 1.643850 0.000000 -0.028650 
#    y 0.000000 1.690700 0.000000 
#    z -0.028650 0.000000 1.794250 
# 
# From -- ./inp_files/54426.got.cif
#   From: 2010.05.17/outbox.cif.g08.bks.cpg/sg15_28_cif.got.tgz:54426.got - 2010.06.03 18:47:42.
