data_PCOD9297252
_publ_section_title
;
Structure prediction by ZEFSAII (Michael W. Deem and Ramdas Pophale) SiO2 
 PCOD9297252
Probable space group: C 2/C
;
_chemical_formula_sum "Si O2"
_cell_formula_units_Z 36
_cell_length_a 10.654966
_cell_length_b 16.378900
_cell_length_c 12.363966
_cell_angle_alpha 90.000000
_cell_angle_beta 43.820653
_cell_angle_gamma 90.000000
_cell_volume 1494.010771
_symmetry_space_group_name_H-M "C 2/C"
_symmetry_group_IT_number 15
_symmetry_cell_setting 'monoclinic'
loop_
_space_group_symop_operation_xyz
x,y,z
-x,y,1/2-z
-x,-y,-z
x,-y,1/2+z
1/2+x,1/2+y,z
1/2-x,1/2+y,1/2-z
1/2-x,1/2-y,-z
1/2+x,1/2-y,1/2+z
loop_
_atom_site_type_symbol
_atom_site_label
_atom_site_fract_x
_atom_site_fract_y
_atom_site_fract_z
Si Si1 0.890895 0.824884 0.021428
Si Si2 0.183124 0.787053 0.194684
Si Si3 0.500000 0.786661 0.250000
Si Si4 0.429776 0.929543 0.967589
Si Si5 0.772798 0.895210 0.606559
O O1 0.866445 0.774856 0.148677
O O2 0.680334 0.841489 0.128155
O O3 0.977213 0.773437 0.868862
O O4 0.026616 0.897998 0.968404
O O5 0.242773 0.702042 0.104187
O O6 0.000000 0.816046 0.250000
O O7 0.337358 0.855636 0.090572
O O8 0.612505 0.909255 0.789991
O O9 0.277773 0.945322 0.969051
O O10 0.500000 0.000000 0.000000
#
# Coordination Sequence:
#
# PCOD9297252 Si02
#       5
#     8   8   4   8   8
#     4  11  22  38  69 108 158 194 249 322 394 442
#     4  12  21  40  80 119 142 193 272 329 373 462
#     4  10  24  38  58 110 168 188 236 328 404 430
#     4  11  25  43  71 115 164 197 245 328 407 464
#     4  11  22  42  77 112 146 202 267 319 378 474
#
# _framework density 24.096214
#
# number of rings (size 3 to 8) (size 9 to 14) (size 15 to 20)
#    0.000    0.889    6.667    2.000    0.000    0.000 
#    0.000    7.778    7.333    0.000    0.000    0.000 
#    0.000    0.000    0.000    0.000    0.000    0.000 
#
# Total GULP energy -100529.479574 kJ/mol
# GULP energy per Si atom -5584.971087 kJ/mol
# Density = 2.404137 g / cm^3
# Si number density = 24.096214 Si / 1000 Ang^3
#
#
#
# Elastic Constant Matrix: (Units=GPa)
#
#
# Indices 1 2 3 4 5 6 
#
# 1 154.8650 59.6541 79.6575 -0.0003 -19.6454 0.0000
# 2 59.6541 85.7613 32.0407 -0.0004 3.1756 0.0001
# 3 79.6575 32.0407 147.6934 -0.0008 -9.3743 0.0002
# 4 -0.0003 -0.0004 -0.0008 15.8671 0.0003 -0.4404
# 5 -19.6454 3.1756 -9.3743 0.0003 69.4990 0.0000
# 6 0.0000 0.0001 0.0002 -0.4404 0.0000 45.3349
#
#
#
# Elastic Compliance Matrix: (Units=1/GPa)
#
#
# Indices 1 2 3 4 5 6 
#
# 1 0.011805 -0.006545 -0.004757 0.000000 0.002994 0.000000
# 2 -0.006545 0.016381 -0.000190 0.000000 -0.002624 0.000000
# 3 -0.004757 -0.000190 0.009373 0.000000 -0.000072 0.000000
# 4 0.000000 0.000000 0.000000 0.063041 0.000000 0.000612
# 5 0.002994 -0.002624 -0.000072 0.000000 0.015345 0.000000
# 6 0.000000 0.000000 0.000000 0.000612 0.000000 0.022064
#
#
# Mechanical properties :
#
#
# Convention : Reuss Voigt Hill
#
# Bulk Modulus (GPa) = 68.61213 81.22494 74.91854
# Shear Modulus (GPa) = 30.14726 40.60469 35.37598
#
# Velocity S-wave (km/s) = 3.54096 4.10946 3.83575
# Velocity P-wave (km/s) = 6.72710 7.50324 7.12575
#
# Compressibility (1/GPa) = 0.01457468
#
# Stress axis : x y z
#
# Youngs Moduli (GPa) = 84.70882 61.04569 106.68712
#
# Poissons Ratio (x) = 0.39955 0.50752
# Poissons Ratio (y) = 0.55443 0.02030
# Poissons Ratio (z) = 0.40297 0.01162
#
# Static dielectric constant tensor:
#      x y z
#    x 2.130150 0.000000 0.031250 
#    y 0.000000 1.939970 0.000000 
#    z 0.031250 0.000000 1.992580 
# 
# From -- ./inp_files/145383.got.cif
#   From: 2010.05.17/outbox.cif.g08.bks.cpg/sg15_73_cif.got.tgz:145383.got - 2010.06.03 18:47:42.
