data_PCOD9297536
_publ_section_title
;
Structure prediction by ZEFSAII (Michael W. Deem and Ramdas Pophale) SiO2 
 PCOD9297536
Probable space group: C 2/C
;
_chemical_formula_sum "Si O2"
_cell_formula_units_Z 56
_cell_length_a 18.591430
_cell_length_b 15.953472
_cell_length_c 22.157234
_cell_angle_alpha 90.000000
_cell_angle_beta 153.779064
_cell_angle_gamma 90.000000
_cell_volume 2903.637362
_symmetry_space_group_name_H-M "C 2/C"
_symmetry_group_IT_number 15
_symmetry_cell_setting 'monoclinic'
loop_
_space_group_symop_operation_xyz
x,y,z
-x,y,1/2-z
-x,-y,-z
x,-y,1/2+z
1/2+x,1/2+y,z
1/2-x,1/2+y,1/2-z
1/2-x,1/2-y,-z
1/2+x,1/2-y,1/2+z
loop_
_atom_site_type_symbol
_atom_site_label
_atom_site_fract_x
_atom_site_fract_y
_atom_site_fract_z
Si Si1 0.500000 0.119460 0.250000
Si Si2 0.000000 0.904118 0.250000
Si Si3 0.643364 0.833233 0.188286
Si Si4 0.937224 0.294696 0.913035
Si Si5 0.685665 0.004960 0.471969
Si Si6 0.436439 0.257448 0.116580
Si Si7 0.109378 0.318793 0.391902
Si Si8 0.413596 0.017571 0.370810
O O1 0.643407 0.061305 0.382032
O O2 0.537596 0.182657 0.224200
O O3 0.156184 0.960960 0.376234
O O4 0.993030 0.842979 0.302911
O O5 0.795811 0.773355 0.315039
O O6 0.511931 0.818694 0.142322
O O7 0.690165 0.932611 0.219143
O O8 0.550917 0.808998 0.056686
O O9 0.858696 0.385630 0.836109
O O10 0.047624 0.259474 0.941554
O O11 0.693339 0.909829 0.457050
O O12 0.540679 0.016141 0.411023
O O13 0.250000 0.250000 0.000000
O O14 0.250000 0.250000 0.500000
O O15 0.000000 0.309828 0.250000
O O16 0.500000 0.000000 0.500000
#
# Coordination Sequence:
#
# PCOD9297536 Si02
#       8
#     4   4   8   8   8   8   8   8
#     4  11  20  36  57  84 120 164 207 238 316 365
#     4  11  24  36  59  98 130 158 219 250 304 381
#     4  10  24  41  62  93 119 165 212 253 321 375
#     4  11  22  39  64  87 129 167 204 256 308 375
#     4  11  22  40  61  90 123 163 203 261 312 376
#     4  11  23  35  61  94 134 163 211 248 306 373
#     4  11  24  44  69  90 122 162 215 274 320 367
#     4   9  20  39  62  80 121 166 205 237 320 379
#
# _framework density 19.286155999999998
#
# number of rings (size 3 to 8) (size 9 to 14) (size 15 to 20)
#    0.000    1.429    3.571    0.857    9.000    0.000 
#    0.000    0.714    0.000    0.000    0.000    0.000 
#    0.000    0.000    0.000    0.000    0.000    0.000 
#
# Total GULP energy -156209.921114 kJ/mol
# GULP energy per Si atom -5578.925754 kJ/mol
# Density = 1.924226 g / cm^3
# Si number density = 19.286156 Si / 1000 Ang^3
#
#
#
# Elastic Constant Matrix: (Units=GPa)
#
#
# Indices 1 2 3 4 5 6 
#
# 1 81.5608 11.1482 20.5621 0.0028 -19.3879 0.0008
# 2 11.1482 128.1846 47.7667 0.0048 10.2409 0.0022
# 3 20.5621 47.7667 92.0994 0.0051 -8.3743 0.0024
# 4 0.0028 0.0048 0.0051 43.8036 0.0016 0.6579
# 5 -19.3879 10.2409 -8.3743 0.0016 29.3263 0.0008
# 6 0.0008 0.0022 0.0024 0.6579 0.0008 13.9634
#
#
#
# Elastic Compliance Matrix: (Units=1/GPa)
#
#
# Indices 1 2 3 4 5 6 
#
# 1 0.015314 -0.001505 -0.001715 -0.000001 0.010160 -0.000001
# 2 -0.001505 0.010568 -0.005720 0.000000 -0.006318 0.000000
# 3 -0.001715 -0.005720 0.014667 -0.000001 0.005052 -0.000002
# 4 -0.000001 0.000000 -0.000001 0.022845 -0.000002 -0.001076
# 5 0.010160 -0.006318 0.005052 -0.000002 0.044465 -0.000003
# 6 -0.000001 0.000000 -0.000002 -0.001076 -0.000003 0.071666
#
#
# Mechanical properties :
#
#
# Convention : Reuss Voigt Hill
#
# Bulk Modulus (GPa) = 44.11037 51.19986 47.65512
# Shear Modulus (GPa) = 24.39495 32.24320 28.31908
#
# Velocity S-wave (km/s) = 3.56039 4.09324 3.83608
# Velocity P-wave (km/s) = 6.31055 6.99604 6.66212
#
# Compressibility (1/GPa) = 0.02267041
#
# Stress axis : x y z
#
# Youngs Moduli (GPa) = 65.30031 94.62240 68.18225
#
# Poissons Ratio (x) = 0.14236 0.11692
# Poissons Ratio (y) = 0.09824 0.38999
# Poissons Ratio (z) = 0.11198 0.54122
#
# Static dielectric constant tensor:
#      x y z
#    x 1.688070 0.000000 -0.028430 
#    y 0.000000 1.718010 0.000000 
#    z -0.028430 0.000000 1.673670 
# 
# From -- ./inp_files/249307.got.cif
#   From: 2010.05.17/outbox.cif.g08.bks.cpg/sg15_125_cif.got.tgz:249307.got - 2010.06.03 18:47:42.
