data_PCOD9297768
_publ_section_title
;
Structure prediction by ZEFSAII (Michael W. Deem and Ramdas Pophale) SiO2 
 PCOD9297768
Probable space group: C 2/C
;
_chemical_formula_sum "Si O2"
_cell_formula_units_Z 32
_cell_length_a 4.957668
_cell_length_b 18.353692
_cell_length_c 16.530624
_cell_angle_alpha 90.000000
_cell_angle_beta 62.309414
_cell_angle_gamma 90.000000
_cell_volume 1331.876554
_symmetry_space_group_name_H-M "C 2/C"
_symmetry_group_IT_number 15
_symmetry_cell_setting 'monoclinic'
loop_
_space_group_symop_operation_xyz
x,y,z
-x,y,1/2-z
-x,-y,-z
x,-y,1/2+z
1/2+x,1/2+y,z
1/2-x,1/2+y,1/2-z
1/2-x,1/2-y,-z
1/2+x,1/2-y,1/2+z
loop_
_atom_site_type_symbol
_atom_site_label
_atom_site_fract_x
_atom_site_fract_y
_atom_site_fract_z
Si Si1 0.000000 0.977959 0.750000
Si Si2 0.115831 0.151210 0.352008
Si Si3 0.000000 0.726487 0.750000
Si Si4 0.582689 0.827429 0.524978
Si Si5 0.688628 0.117152 0.836233
O O1 0.083403 0.925165 0.811410
O O2 0.720062 0.032310 0.810317
O O3 0.781180 0.176205 0.428187
O O4 0.190193 0.213967 0.275555
O O5 0.327296 0.141964 0.400025
O O6 0.927857 0.666599 0.830830
O O7 0.750000 0.750000 0.500000
O O8 0.685984 0.871507 0.431805
O O9 0.000000 0.146307 0.750000
#
# Coordination Sequence:
#
# PCOD9297768 Si02
#       5
#     4   8   4   8   8
#     4   9  26  48  64 103 138 188 220 275 354 408
#     4  11  26  44  71 100 139 178 228 281 342 405
#     4  11  22  40  72  93 138 180 226 281 336 412
#     4  12  24  43  72 107 133 175 234 289 333 397
#     4  10  24  42  66  97 137 177 228 274 344 402
#
# _framework density 24.026253000000001
#
# number of rings (size 3 to 8) (size 9 to 14) (size 15 to 20)
#    0.750    0.500    2.500    2.250    3.500    7.000 
#    0.000    0.000    0.000    0.000    0.000    0.000 
#    0.000    0.000    0.000    0.000    0.000    0.000 
#
# Total GULP energy -89280.342815 kJ/mol
# GULP energy per Si atom -5580.021426 kJ/mol
# Density = 2.397157 g / cm^3
# Si number density = 24.026253 Si / 1000 Ang^3
#
#
#
# Elastic Constant Matrix: (Units=GPa)
#
#
# Indices 1 2 3 4 5 6 
#
# 1 89.5231 3.9860 44.3638 0.0000 3.4593 0.0000
# 2 3.9860 187.7807 54.6489 0.0000 16.6571 0.0000
# 3 44.3638 54.6489 139.3963 0.0000 30.3795 0.0000
# 4 0.0000 0.0000 0.0000 40.4517 0.0000 9.1363
# 5 3.4593 16.6571 30.3795 0.0000 56.2782 0.0000
# 6 0.0000 0.0000 0.0000 9.1363 0.0000 19.9866
#
#
#
# Elastic Compliance Matrix: (Units=1/GPa)
#
#
# Indices 1 2 3 4 5 6 
#
# 1 0.013580 0.001049 -0.005081 0.000000 0.001598 0.000000
# 2 0.001049 0.006109 -0.002630 0.000000 -0.000453 0.000000
# 3 -0.005081 -0.002630 0.010862 0.000000 -0.004773 0.000000
# 4 0.000000 0.000000 0.000000 0.027567 0.000000 -0.012601
# 5 0.001598 -0.000453 -0.004773 0.000000 0.020381 0.000000
# 6 0.000000 0.000000 0.000000 -0.012601 0.000000 0.055794
#
#
# Mechanical properties :
#
#
# Convention : Reuss Voigt Hill
#
# Bulk Modulus (GPa) = 58.05224 69.18861 63.62042
# Shear Modulus (GPa) = 32.60314 44.25672 38.42993
#
# Velocity S-wave (km/s) = 3.68772 4.29653 4.00371
# Velocity P-wave (km/s) = 6.50744 7.31253 6.92170
#
# Compressibility (1/GPa) = 0.01722586
#
# Stress axis : x y z
#
# Youngs Moduli (GPa) = 73.63810 163.70253 92.06295
#
# Poissons Ratio (x) = -0.17169 0.46780
# Poissons Ratio (y) = -0.07723 0.24212
# Poissons Ratio (z) = 0.37418 0.43053
#
# Static dielectric constant tensor:
#      x y z
#    x 2.054100 0.000000 -0.003910 
#    y 0.000000 1.876570 0.000000 
#    z -0.003910 0.000000 1.716510 
# 
# From -- ./inp_files/128193.got.cif
#   From: 2010.05.17/outbox.cif.g08.bks.cpg/sg15_65_cif.got.tgz:128193.got - 2010.06.03 18:47:42.
