data_PCOD9297686
_publ_section_title
;
Structure prediction by ZEFSAII (Michael W. Deem and Ramdas Pophale) SiO2 
 PCOD9297686
Probable space group: C 2/C
;
_chemical_formula_sum "Si O2"
_cell_formula_units_Z 36
_cell_length_a 11.114770
_cell_length_b 16.398018
_cell_length_c 8.984003
_cell_angle_alpha 90.000000
_cell_angle_beta 64.750803
_cell_angle_gamma 90.000000
_cell_volume 1480.988314
_symmetry_space_group_name_H-M "C 2/C"
_symmetry_group_IT_number 15
_symmetry_cell_setting 'monoclinic'
loop_
_space_group_symop_operation_xyz
x,y,z
-x,y,1/2-z
-x,-y,-z
x,-y,1/2+z
1/2+x,1/2+y,z
1/2-x,1/2+y,1/2-z
1/2-x,1/2-y,-z
1/2+x,1/2-y,1/2+z
loop_
_atom_site_type_symbol
_atom_site_label
_atom_site_fract_x
_atom_site_fract_y
_atom_site_fract_z
Si Si1 0.222255 0.169556 0.924257
Si Si2 0.269390 0.860966 0.068396
Si Si3 0.441706 0.409547 0.556568
Si Si4 0.500000 0.868978 0.750000
Si Si5 0.808669 0.449124 0.610507
O O1 0.252942 0.181224 0.734762
O O2 0.250000 0.250000 0.000000
O O3 0.310704 0.097821 0.952188
O O4 0.068199 0.145652 0.021162
O O5 0.309403 0.954846 0.084361
O O6 0.136053 0.873857 0.044166
O O7 0.385580 0.823635 0.904247
O O8 0.500000 0.500000 0.500000
O O9 0.331177 0.421561 0.741656
O O10 0.418608 0.920842 0.670538
#
# Coordination Sequence:
#
# PCOD9297686 Si02
#       5
#     8   8   8   4   8
#     4  12  26  43  68 117 153 190 247 337 400 442
#     4  11  22  43  77 106 144 199 254 318 377 470
#     4  11  21  43  78 110 142 191 265 320 379 467
#     4  10  24  42  64 106 148 190 244 302 384 454
#     4  11  22  43  72 106 147 198 255 312 376 473
#
# _framework density 24.308091000000001
#
# number of rings (size 3 to 8) (size 9 to 14) (size 15 to 20)
#    0.000    0.889    4.444    3.333    0.000    0.889 
#   12.000    2.222    0.000    0.000    0.000    0.000 
#    0.000    0.000    0.000    0.000    0.000    0.000 
#
# Total GULP energy -100928.495818 kJ/mol
# GULP energy per Si atom -5607.138657 kJ/mol
# Density = 2.425276 g / cm^3
# Si number density = 24.308091 Si / 1000 Ang^3
#
#
#
# Elastic Constant Matrix: (Units=GPa)
#
#
# Indices 1 2 3 4 5 6 
#
# 1 181.3550 42.6865 85.0215 0.0000 4.4447 0.0000
# 2 42.6865 94.4615 50.1404 0.0000 0.8654 0.0000
# 3 85.0215 50.1404 160.5733 0.0000 19.7369 0.0000
# 4 0.0000 0.0000 0.0000 26.6404 0.0000 16.7880
# 5 4.4447 0.8654 19.7369 0.0000 40.7466 0.0000
# 6 0.0000 0.0000 0.0000 16.7880 0.0000 28.2440
#
#
#
# Elastic Compliance Matrix: (Units=1/GPa)
#
#
# Indices 1 2 3 4 5 6 
#
# 1 0.007553 -0.001481 -0.003657 0.000000 0.000979 0.000000
# 2 -0.001481 0.013099 -0.003500 0.000000 0.001579 0.000000
# 3 -0.003657 -0.003500 0.009781 0.000000 -0.004265 0.000000
# 4 0.000000 0.000000 0.000000 0.060017 0.000000 -0.035674
# 5 0.000979 0.001579 -0.004265 0.000000 0.026467 0.000000
# 6 0.000000 0.000000 0.000000 -0.035674 0.000000 0.056610
#
#
# Mechanical properties :
#
#
# Convention : Reuss Voigt Hill
#
# Bulk Modulus (GPa) = 76.00648 88.00960 82.00804
# Shear Modulus (GPa) = 25.61600 36.36230 30.98915
#
# Velocity S-wave (km/s) = 3.24976 3.87187 3.57438
# Velocity P-wave (km/s) = 6.73922 7.50153 7.13057
#
# Compressibility (1/GPa) = 0.01315677
#
# Stress axis : x y z
#
# Youngs Moduli (GPa) = 132.39465 76.34169 102.23617
#
# Poissons Ratio (x) = 0.11306 0.37390
# Poissons Ratio (y) = 0.19607 0.35785
# Poissons Ratio (z) = 0.48419 0.26721
#
# Static dielectric constant tensor:
#      x y z
#    x 1.908880 0.000000 -0.007970 
#    y 0.000000 1.926410 0.000000 
#    z -0.007970 0.000000 1.929550 
# 
# From -- ./inp_files/28948.got.cif
#   From: 2010.05.17/outbox.cif.g08.bks.cpg/sg15_15_cif.got.tgz:28948.got - 2010.06.03 18:47:42.
