data_PCOD9297920
_publ_section_title
;
Structure prediction by ZEFSAII (Michael W. Deem and Ramdas Pophale) SiO2 
 PCOD9297920
Probable space group: C 2/C
;
_chemical_formula_sum "Si O2"
_cell_formula_units_Z 52
_cell_length_a 15.438995
_cell_length_b 13.998893
_cell_length_c 11.858003
_cell_angle_alpha 90.000000
_cell_angle_beta 70.165899
_cell_angle_gamma 90.000000
_cell_volume 2410.825201
_symmetry_space_group_name_H-M "C 2/C"
_symmetry_group_IT_number 15
_symmetry_cell_setting 'monoclinic'
loop_
_space_group_symop_operation_xyz
x,y,z
-x,y,1/2-z
-x,-y,-z
x,-y,1/2+z
1/2+x,1/2+y,z
1/2-x,1/2+y,1/2-z
1/2-x,1/2-y,-z
1/2+x,1/2-y,1/2+z
loop_
_atom_site_type_symbol
_atom_site_label
_atom_site_fract_x
_atom_site_fract_y
_atom_site_fract_z
Si Si1 0.995359 0.631000 0.379691
Si Si2 0.500000 0.677921 0.750000
Si Si3 0.412158 0.529026 0.617043
Si Si4 0.392924 0.865821 0.266642
Si Si5 0.768183 0.100588 0.500634
Si Si6 0.360736 0.998247 0.585141
Si Si7 0.604575 0.660856 0.248169
O O1 0.923183 0.567200 0.480075
O O2 0.000000 0.591549 0.250000
O O3 0.973991 0.743003 0.360638
O O4 0.089595 0.603008 0.404282
O O5 0.436840 0.603506 0.706814
O O6 0.500000 0.500000 0.500000
O O7 0.336816 0.574696 0.569561
O O8 0.376465 0.429179 0.682767
O O9 0.500000 0.878433 0.250000
O O10 0.327228 0.863821 0.403838
O O11 0.354686 0.948689 0.205785
O O12 0.388432 0.765488 0.201995
O O13 0.825658 0.162164 0.387159
O O14 0.733929 0.013325 0.438298
O O15 0.500000 0.648891 0.250000
#
# Coordination Sequence:
#
# PCOD9297920 Si02
#       7
#     8   4   8   8   8   8   8
#     4   9  21  39  68 101 139 178 221 288 355 425
#     4  10  24  42  72 102 132 186 240 286 356 416
#     4  12  24  47  73  98 141 189 241 292 343 415
#     4  11  25  42  71 103 141 183 235 290 357 426
#     4  12  25  43  70 101 145 186 228 299 352 421
#     4  11  21  41  65 103 140 175 227 287 360 422
#     4  11  24  45  68 100 134 189 239 290 347 414
#
# _framework density 21.569378
#
# number of rings (size 3 to 8) (size 9 to 14) (size 15 to 20)
#    0.462    0.615    2.308    4.615    2.154    2.462 
#    2.769    0.769    0.000    0.000    0.000    0.000 
#    0.000    0.000    0.000    0.000    0.000    0.000 
#
# Total GULP energy -144880.014766 kJ/mol
# GULP energy per Si atom -5572.308260 kJ/mol
# Density = 2.152029 g / cm^3
# Si number density = 21.569378 Si / 1000 Ang^3
#
#
#
# Elastic Constant Matrix: (Units=GPa)
#
#
# Indices 1 2 3 4 5 6 
#
# 1 95.5100 31.7424 35.4761 0.0000 16.4775 0.0000
# 2 31.7424 119.6036 18.2282 0.0000 18.9864 0.0000
# 3 35.4761 18.2282 94.6358 0.0000 -8.8279 0.0000
# 4 0.0000 0.0000 0.0000 26.8624 0.0000 2.3752
# 5 16.4775 18.9864 -8.8279 0.0000 51.1605 0.0000
# 6 0.0000 0.0000 0.0000 2.3752 0.0000 -9.5287
#
#
#
# Elastic Compliance Matrix: (Units=1/GPa)
#
#
# Indices 1 2 3 4 5 6 
#
# 1 0.013924 -0.002171 -0.005229 0.000000 -0.004581 0.000000
# 2 -0.002171 0.009633 -0.001331 0.000000 -0.003105 0.000000
# 3 -0.005229 -0.001331 0.013199 0.000000 0.004456 0.000000
# 4 0.000000 0.000000 0.000000 0.036424 0.000000 0.009079
# 5 -0.004581 -0.003105 0.004456 0.000000 0.022943 0.000000
# 6 0.000000 0.000000 0.000000 0.009079 0.000000 -0.102683
#
#
# Mechanical properties :
#
#
# Convention : Reuss Voigt Hill
#
# Bulk Modulus (GPa) = 51.83079 53.40476 52.61778
# Shear Modulus (GPa) = 288.44049 28.65234 158.54641
#
# Velocity S-wave (km/s) = 11.57658 3.64865 8.58283
# Velocity P-wave (km/s) = 14.23979 6.52407 11.07554
#
# Compressibility (1/GPa) = 0.01929355
#
# Stress axis : x y z
#
# Youngs Moduli (GPa) = 71.81688 103.80936 75.76311
#
# Poissons Ratio (x) = 0.22540 0.39616
# Poissons Ratio (y) = 0.15594 0.10085
# Poissons Ratio (z) = 0.37552 0.13819
#
# Static dielectric constant tensor:
#      x y z
#    x 1.782730 0.000000 -0.039720 
#    y 0.000000 1.834250 0.000000 
#    z -0.039720 0.000000 1.817110 
# 
# From -- ./inp_files/96954.got.cif
#   From: 2010.05.17/outbox.cif.g08.bks.cpg/sg15_49_cif.got.tgz:96954.got - 2010.06.03 18:47:42.
