data_PCOD9297115
_publ_section_title
;
Structure prediction by ZEFSAII (Michael W. Deem and Ramdas Pophale) SiO2 
 PCOD9297115
Probable space group: C 2/C
;
_chemical_formula_sum "Si O2"
_cell_formula_units_Z 36
_cell_length_a 12.155578
_cell_length_b 8.160160
_cell_length_c 25.320634
_cell_angle_alpha 90.000000
_cell_angle_beta 146.759299
_cell_angle_gamma 90.000000
_cell_volume 1376.747260
_symmetry_space_group_name_H-M "C 2/C"
_symmetry_group_IT_number 15
_symmetry_cell_setting 'monoclinic'
loop_
_space_group_symop_operation_xyz
x,y,z
-x,y,1/2-z
-x,-y,-z
x,-y,1/2+z
1/2+x,1/2+y,z
1/2-x,1/2+y,1/2-z
1/2-x,1/2-y,-z
1/2+x,1/2-y,1/2+z
loop_
_atom_site_type_symbol
_atom_site_label
_atom_site_fract_x
_atom_site_fract_y
_atom_site_fract_z
Si Si1 0.699060 0.089700 0.061971
Si Si2 0.713769 0.665468 0.207505
Si Si3 0.767369 0.566441 0.639429
Si Si4 0.555636 0.969504 0.390181
Si Si5 0.000000 0.112826 0.750000
O O1 0.680734 0.268898 0.080194
O O2 0.683691 0.063430 0.993265
O O3 0.887479 0.999304 0.162741
O O4 0.500000 0.000000 0.000000
O O5 0.658160 0.516564 0.145153
O O6 0.543388 0.787913 0.159811
O O7 0.862184 0.590677 0.311606
O O8 0.844237 0.776509 0.219695
O O9 0.000000 0.592249 0.750000
O O10 0.803810 0.462706 0.600430
#
# Coordination Sequence:
#
# PCOD9297115 Si02
#       5
#     8   8   8   8   4
#     4  12  26  43  74 109 142 192 249 294 372 439
#     4  11  25  46  75 105 150 191 247 300 372 438
#     4  10  23  48  70 101 149 188 235 312 356 436
#     4  11  25  45  72 109 139 200 241 297 376 437
#     4  12  24  50  68 104 156 188 238 326 346 434
#
# _framework density 26.148589000000001
#
# number of rings (size 3 to 8) (size 9 to 14) (size 15 to 20)
#    0.000    0.889    6.667    0.667    9.333    1.778 
#    0.000    0.000    0.000    0.000    0.000    0.000 
#    0.000    0.000    0.000    0.000    0.000    0.000 
#
# Total GULP energy -100762.326788 kJ/mol
# GULP energy per Si atom -5597.907044 kJ/mol
# Density = 2.608907 g / cm^3
# Si number density = 26.148589 Si / 1000 Ang^3
#
#
#
# Elastic Constant Matrix: (Units=GPa)
#
#
# Indices 1 2 3 4 5 6 
#
# 1 81.9635 13.9738 17.6266 0.0000 -17.9747 0.0000
# 2 13.9738 73.4143 52.3599 0.0000 -9.8719 0.0000
# 3 17.6266 52.3599 171.6110 0.0000 -37.0648 0.0000
# 4 0.0000 0.0000 0.0000 44.1266 0.0000 -5.2304
# 5 -17.9747 -9.8719 -37.0648 0.0000 43.6795 0.0000
# 6 0.0000 0.0000 0.0000 -5.2304 0.0000 46.7886
#
#
#
# Elastic Compliance Matrix: (Units=1/GPa)
#
#
# Indices 1 2 3 4 5 6 
#
# 1 0.013687 -0.002186 0.000454 0.000000 0.005524 0.000000
# 2 -0.002186 0.017777 -0.005541 0.000000 -0.001584 0.000000
# 3 0.000454 -0.005541 0.008866 0.000000 0.006458 0.000000
# 4 0.000000 0.000000 0.000000 0.022966 0.000000 0.002567
# 5 0.005524 -0.001584 0.006458 0.000000 0.030289 0.000000
# 6 0.000000 0.000000 0.000000 0.002567 0.000000 0.021660
#
#
# Mechanical properties :
#
#
# Convention : Reuss Voigt Hill
#
# Bulk Modulus (GPa) = 38.78599 54.98994 46.88796
# Shear Modulus (GPa) = 36.13083 43.12083 39.62583
#
# Velocity S-wave (km/s) = 3.72122 4.06528 3.89705
# Velocity P-wave (km/s) = 5.77308 6.56588 6.18220
#
# Compressibility (1/GPa) = 0.02578250
#
# Stress axis : x y z
#
# Youngs Moduli (GPa) = 73.06218 56.25354 112.79065
#
# Poissons Ratio (x) = 0.12299 -0.05124
# Poissons Ratio (y) = 0.15975 0.62502
# Poissons Ratio (z) = -0.03319 0.31172
#
# Static dielectric constant tensor:
#      x y z
#    x 2.203860 0.000000 -0.104870 
#    y 0.000000 2.121610 0.000000 
#    z -0.104870 0.000000 2.150020 
# 
# From -- ./inp_files/176814.got.cif
#   From: 2010.05.17/outbox.cif.g08.bks.cpg/sg15_89_cif.got.tgz:176814.got - 2010.06.03 18:47:42.
