data_PCOD9297130
_publ_section_title
;
Structure prediction by ZEFSAII (Michael W. Deem and Ramdas Pophale) SiO2 
 PCOD9297130
Probable space group: C 2/C
;
_chemical_formula_sum "Si O2"
_cell_formula_units_Z 44
_cell_length_a 12.599966
_cell_length_b 17.512966
_cell_length_c 10.308926
_cell_angle_alpha 90.000000
_cell_angle_beta 129.323087
_cell_angle_gamma 90.000000
_cell_volume 1759.748082
_symmetry_space_group_name_H-M "C 2/C"
_symmetry_group_IT_number 15
_symmetry_cell_setting 'monoclinic'
loop_
_space_group_symop_operation_xyz
x,y,z
-x,y,1/2-z
-x,-y,-z
x,-y,1/2+z
1/2+x,1/2+y,z
1/2-x,1/2+y,1/2-z
1/2-x,1/2-y,-z
1/2+x,1/2-y,1/2+z
loop_
_atom_site_type_symbol
_atom_site_label
_atom_site_fract_x
_atom_site_fract_y
_atom_site_fract_z
Si Si1 0.500000 0.962986 0.750000
Si Si2 0.418039 0.463482 0.055055
Si Si3 0.615504 0.696838 0.108762
Si Si4 0.299991 0.083979 0.659538
Si Si5 0.877250 0.697502 0.494084
Si Si6 0.870276 0.354906 0.462826
O O1 0.418947 0.021413 0.778247
O O2 0.388959 0.908861 0.597428
O O3 0.500000 0.449849 0.250000
O O4 0.500000 0.500000 0.000000
O O5 0.377473 0.382201 0.961099
O O6 0.310151 0.532133 0.998510
O O7 0.733189 0.701665 0.308813
O O8 0.647513 0.765291 0.032596
O O9 0.468197 0.723802 0.058617
O O10 0.349074 0.154666 0.608306
O O11 0.263241 0.115671 0.772833
O O12 0.979849 0.644116 0.491028
#
# Coordination Sequence:
#
# PCOD9297130 Si02
#       6
#     4   8   8   8   8   8
#     4  12  22  40  76 106 142 196 258 330 370 472
#     4  12  30  51  77 114 164 213 258 328 408 479
#     4  10  25  46  75 111 155 201 260 319 395 464
#     4  12  25  47  76 110 151 199 269 320 393 463
#     4  10  23  48  73 116 150 204 257 327 387 475
#     4  10  25  42  72 109 149 199 262 314 400 452
#
# _framework density 25.003579999999999
#
# number of rings (size 3 to 8) (size 9 to 14) (size 15 to 20)
#    1.091    0.000    1.818    2.727    8.909    0.727 
#    6.545    2.727    0.000    0.000    0.000    0.000 
#    0.000    0.000    0.000    0.000    0.000    0.000 
#
# Total GULP energy -122843.511821 kJ/mol
# GULP energy per Si atom -5583.795992 kJ/mol
# Density = 2.494667 g / cm^3
# Si number density = 25.003580 Si / 1000 Ang^3
#
#
#
# Elastic Constant Matrix: (Units=GPa)
#
#
# Indices 1 2 3 4 5 6 
#
# 1 79.4378 49.9251 38.5129 0.0000 -3.2582 0.0000
# 2 49.9251 157.1477 67.1596 0.0000 -3.7108 0.0000
# 3 38.5129 67.1596 154.2401 0.0000 13.4116 0.0000
# 4 0.0000 0.0000 0.0000 48.6004 0.0000 -6.0885
# 5 -3.2582 -3.7108 13.4116 0.0000 27.6293 0.0000
# 6 0.0000 0.0000 0.0000 -6.0885 0.0000 26.7954
#
#
#
# Elastic Compliance Matrix: (Units=1/GPa)
#
#
# Indices 1 2 3 4 5 6 
#
# 1 0.016512 -0.004082 -0.002576 0.000000 0.002649 0.000000
# 2 -0.004082 0.009044 -0.003114 0.000000 0.002245 0.000000
# 3 -0.002576 -0.003114 0.008922 0.000000 -0.005053 0.000000
# 4 0.000000 0.000000 0.000000 0.021179 0.000000 0.004812
# 5 0.002649 0.002245 -0.005053 0.000000 0.039260 0.000000
# 6 0.000000 0.000000 0.000000 0.004812 0.000000 0.038413
#
#
# Mechanical properties :
#
#
# Convention : Reuss Voigt Hill
#
# Bulk Modulus (GPa) = 66.96280 78.00232 72.48256
# Shear Modulus (GPa) = 31.67544 36.28690 33.98117
#
# Velocity S-wave (km/s) = 3.56313 3.81368 3.69053
# Velocity P-wave (km/s) = 6.61568 7.11733 6.87109
#
# Compressibility (1/GPa) = 0.01493367
#
# Stress axis : x y z
#
# Youngs Moduli (GPa) = 60.56382 110.56861 112.08598
#
# Poissons Ratio (x) = 0.45138 0.28869
# Poissons Ratio (y) = 0.24724 0.34902
# Poissons Ratio (z) = 0.15599 0.34430
#
# Static dielectric constant tensor:
#      x y z
#    x 2.173570 0.000000 0.103680 
#    y 0.000000 1.936490 0.000000 
#    z 0.103680 0.000000 1.976000 
# 
# From -- ./inp_files/98507.got.cif
#   From: 2010.05.17/outbox.cif.g08.bks.cpg/sg15_50_cif.got.tgz:98507.got - 2010.06.03 18:47:42.
