data_PCOD9297908
_publ_section_title
;
Structure prediction by ZEFSAII (Michael W. Deem and Ramdas Pophale) SiO2 
 PCOD9297908
Probable space group: C 2/C
;
_chemical_formula_sum "Si O2"
_cell_formula_units_Z 48
_cell_length_a 11.066121
_cell_length_b 12.552266
_cell_length_c 16.847100
_cell_angle_alpha 90.000000
_cell_angle_beta 102.514685
_cell_angle_gamma 90.000000
_cell_volume 2284.543982
_symmetry_space_group_name_H-M "C 2/C"
_symmetry_group_IT_number 15
_symmetry_cell_setting 'monoclinic'
loop_
_space_group_symop_operation_xyz
x,y,z
-x,y,1/2-z
-x,-y,-z
x,-y,1/2+z
1/2+x,1/2+y,z
1/2-x,1/2+y,1/2-z
1/2-x,1/2-y,-z
1/2+x,1/2-y,1/2+z
loop_
_atom_site_type_symbol
_atom_site_label
_atom_site_fract_x
_atom_site_fract_y
_atom_site_fract_z
Si Si1 0.774533 0.129679 0.523638
Si Si2 0.724999 0.546588 0.152952
Si Si3 0.960214 0.034221 0.660979
Si Si4 0.113967 0.343912 0.320857
Si Si5 0.564074 0.970687 0.089974
Si Si6 0.747528 0.865501 0.683581
O O1 0.750000 0.250000 0.500000
O O2 0.753444 0.067819 0.437150
O O3 0.905761 0.106309 0.583192
O O4 0.681109 0.097885 0.580112
O O5 0.580956 0.522236 0.143514
O O6 0.804317 0.445086 0.195842
O O7 0.754540 0.639397 0.220616
O O8 0.000000 0.088820 0.750000
O O9 0.857587 0.946205 0.671827
O O10 0.210377 0.247698 0.346338
O O11 0.000000 0.304161 0.250000
O O12 0.034113 0.398392 0.378509
O O13 0.620020 0.077465 0.138505
O O14 0.500000 0.000000 0.000000
#
# Coordination Sequence:
#
# PCOD9297908 Si02
#       6
#     8   8   8   8   8   8
#     4  11  25  40  65  97 137 175 218 297 351 408
#     4  11  22  42  64 100 132 172 236 282 338 422
#     4   9  21  43  63  92 130 173 232 282 334 430
#     4  12  24  43  73  98 136 190 227 293 357 412
#     4  11  24  46  63 103 141 170 237 290 344 428
#     4  10  24  42  71  96 133 184 233 282 349 421
#
# _framework density 21.010757999999999
#
# number of rings (size 3 to 8) (size 9 to 14) (size 15 to 20)
#    0.000    1.333    3.333    2.000    4.667    2.000 
#    0.000    0.833    0.000    0.000    0.000    0.000 
#    0.000    0.000    0.000    0.000    0.000    0.000 
#
# Total GULP energy -133763.877953 kJ/mol
# GULP energy per Si atom -5573.494915 kJ/mol
# Density = 2.096294 g / cm^3
# Si number density = 21.010758 Si / 1000 Ang^3
#
#
#
# Elastic Constant Matrix: (Units=GPa)
#
#
# Indices 1 2 3 4 5 6 
#
# 1 41.7300 24.1169 30.5906 0.0000 -15.1703 0.0000
# 2 24.1169 90.6786 38.9537 0.0000 2.5431 0.0000
# 3 30.5906 38.9537 93.3830 0.0000 7.1133 0.0000
# 4 0.0000 0.0000 0.0000 17.9982 0.0000 -6.9136
# 5 -15.1703 2.5431 7.1133 0.0000 33.0779 0.0000
# 6 0.0000 0.0000 0.0000 -6.9136 0.0000 25.7217
#
#
#
# Elastic Compliance Matrix: (Units=1/GPa)
#
#
# Indices 1 2 3 4 5 6 
#
# 1 0.048468 -0.007247 -0.014833 0.000000 0.025976 0.000000
# 2 -0.007247 0.014520 -0.003400 0.000000 -0.003709 0.000000
# 3 -0.014833 -0.003400 0.017775 0.000000 -0.010364 0.000000
# 4 0.000000 0.000000 0.000000 0.061958 0.000000 0.016653
# 5 0.025976 -0.003709 -0.010364 0.000000 0.044659 0.000000
# 6 0.000000 0.000000 0.000000 0.016653 0.000000 0.043354
#
#
# Mechanical properties :
#
#
# Convention : Reuss Voigt Hill
#
# Bulk Modulus (GPa) = 33.55368 45.90156 39.72762
# Shear Modulus (GPa) = 17.14501 24.16824 20.65662
#
# Velocity S-wave (km/s) = 2.85969 3.39526 3.13892
# Velocity P-wave (km/s) = 5.18731 6.10446 5.66448
#
# Compressibility (1/GPa) = 0.02980299
#
# Stress axis : x y z
#
# Youngs Moduli (GPa) = 20.63202 68.86963 56.25735
#
# Poissons Ratio (x) = 0.49911 0.83446
# Poissons Ratio (y) = 0.14953 0.19130
# Poissons Ratio (z) = 0.30603 0.23418
#
# Static dielectric constant tensor:
#      x y z
#    x 1.718820 0.000000 0.033390 
#    y 0.000000 1.706720 0.000000 
#    z 0.033390 0.000000 1.837490 
# 
# From -- ./inp_files/196589.got.cif
#   From: 2010.05.17/outbox.cif.g08.bks.cpg/sg15_99_cif.got.tgz:196589.got - 2010.06.03 18:47:42.
