data_PCOD9297020
_publ_section_title
;
Structure prediction by ZEFSAII (Michael W. Deem and Ramdas Pophale) SiO2 
 PCOD9297020
Probable space group: C 2/C
;
_chemical_formula_sum "Si O2"
_cell_formula_units_Z 48
_cell_length_a 5.341612
_cell_length_b 13.980124
_cell_length_c 27.212901
_cell_angle_alpha 90.000000
_cell_angle_beta 104.103647
_cell_angle_gamma 90.000000
_cell_volume 1970.904985
_symmetry_space_group_name_H-M "C 2/C"
_symmetry_group_IT_number 15
_symmetry_cell_setting 'monoclinic'
loop_
_space_group_symop_operation_xyz
x,y,z
-x,y,1/2-z
-x,-y,-z
x,-y,1/2+z
1/2+x,1/2+y,z
1/2-x,1/2+y,1/2-z
1/2-x,1/2-y,-z
1/2+x,1/2-y,1/2+z
loop_
_atom_site_type_symbol
_atom_site_label
_atom_site_fract_x
_atom_site_fract_y
_atom_site_fract_z
Si Si1 0.376310 0.684432 0.962932
Si Si2 0.510232 0.845662 0.600700
Si Si3 0.696874 0.537410 0.607710
Si Si4 0.229272 0.035972 0.464619
Si Si5 0.714945 0.567703 0.721734
Si Si6 0.710067 0.797761 0.719723
O O1 0.558773 0.753460 0.937446
O O2 0.186988 0.632601 0.912934
O O3 0.250000 0.750000 0.000000
O O4 0.431412 0.593050 0.001698
O O5 0.732913 0.888640 0.577471
O O6 0.616594 0.823612 0.660179
O O7 0.318694 0.936678 0.596884
O O8 0.409394 0.546642 0.572490
O O9 0.677544 0.536884 0.664444
O O10 0.500000 0.000000 0.500000
O O11 0.500000 0.535572 0.750000
O O12 0.709669 0.682637 0.721148
O O13 0.000000 0.537606 0.750000
O O14 0.500000 0.829585 0.750000
O O15 0.000000 0.826857 0.750000
#
# Coordination Sequence:
#
# PCOD9297020 Si02
#       6
#     8   8   8   8   8   8
#     4  10  23  47  70 102 145 191 245 308 376 456
#     4  11  25  45  71 107 140 198 248 309 386 455
#     4  12  25  46  75 105 148 194 252 317 383 465
#     4  11  25  46  70 105 150 188 249 315 378 459
#     4  10  24  47  77 109 148 201 248 313 391 457
#     4  10  23  47  74 107 149 194 253 311 376 463
#
# _framework density 24.354292999999998
#
# number of rings (size 3 to 8) (size 9 to 14) (size 15 to 20)
#    0.000    1.333    3.333    0.500    4.667    1.333 
#    9.000    0.000    0.000    0.000    0.000    0.000 
#    0.000    0.000    0.000    0.000    0.000    0.000 
#
# Total GULP energy -133690.745744 kJ/mol
# GULP energy per Si atom -5570.447739 kJ/mol
# Density = 2.429886 g / cm^3
# Si number density = 24.354293 Si / 1000 Ang^3
#
#
#
# Elastic Constant Matrix: (Units=GPa)
#
#
# Indices 1 2 3 4 5 6 
#
# 1 120.3444 30.1186 101.5891 0.0000 -14.7335 0.0000
# 2 30.1186 157.2549 47.1903 0.0000 -16.5745 0.0000
# 3 101.5891 47.1903 245.6613 0.0000 -37.3235 0.0000
# 4 0.0000 0.0000 0.0000 53.1457 0.0000 -2.7574
# 5 -14.7335 -16.5745 -37.3235 0.0000 44.7317 0.0000
# 6 0.0000 0.0000 0.0000 -2.7574 0.0000 23.2769
#
#
#
# Elastic Compliance Matrix: (Units=1/GPa)
#
#
# Indices 1 2 3 4 5 6 
#
# 1 0.012899 -0.000952 -0.005221 0.000000 -0.000461 0.000000
# 2 -0.000952 0.006923 -0.000680 0.000000 0.001684 0.000000
# 3 -0.005221 -0.000680 0.006941 0.000000 0.003819 0.000000
# 4 0.000000 0.000000 0.000000 0.018933 0.000000 0.002243
# 5 -0.000461 0.001684 0.003819 0.000000 0.026015 0.000000
# 6 0.000000 0.000000 0.000000 0.002243 0.000000 0.043227
#
#
# Mechanical properties :
#
#
# Convention : Reuss Voigt Hill
#
# Bulk Modulus (GPa) = 76.59690 97.89518 87.24604
# Shear Modulus (GPa) = 37.59513 47.18835 42.39174
#
# Velocity S-wave (km/s) = 3.93323 4.40657 4.17661
# Velocity P-wave (km/s) = 7.22125 8.13474 7.69157
#
# Compressibility (1/GPa) = 0.01305536
#
# Stress axis : x y z
#
# Youngs Moduli (GPa) = 77.52604 144.44378 144.07645
#
# Poissons Ratio (x) = 0.13754 0.75225
# Poissons Ratio (y) = 0.07382 0.09801
# Poissons Ratio (z) = 0.40478 0.09826
#
# Static dielectric constant tensor:
#      x y z
#    x 2.035760 0.000000 -0.004680 
#    y 0.000000 2.225020 0.000000 
#    z -0.004680 0.000000 1.939370 
# 
# From -- ./inp_files/305235.got.cif
#   From: 2010.05.17/outbox.cif.g08.bks.cpg/sg15_153_cif.got.tgz:305235.got - 2010.06.03 18:47:42.
