data_PCOD9297057
_publ_section_title
;
Structure prediction by ZEFSAII (Michael W. Deem and Ramdas Pophale) SiO2 
 PCOD9297057
Probable space group: C 2/C
;
_chemical_formula_sum "Si O2"
_cell_formula_units_Z 28
_cell_length_a 16.413407
_cell_length_b 6.700972
_cell_length_c 19.612736
_cell_angle_alpha 90.000000
_cell_angle_beta 148.341861
_cell_angle_gamma 90.000000
_cell_volume 1132.165304
_symmetry_space_group_name_H-M "C 2/C"
_symmetry_group_IT_number 15
_symmetry_cell_setting 'monoclinic'
loop_
_space_group_symop_operation_xyz
x,y,z
-x,y,1/2-z
-x,-y,-z
x,-y,1/2+z
1/2+x,1/2+y,z
1/2-x,1/2+y,1/2-z
1/2-x,1/2-y,-z
1/2+x,1/2-y,1/2+z
loop_
_atom_site_type_symbol
_atom_site_label
_atom_site_fract_x
_atom_site_fract_y
_atom_site_fract_z
Si Si1 0.193178 0.840680 0.638733
Si Si2 0.395899 0.797200 0.280212
Si Si3 0.950688 0.695763 0.103111
Si Si4 0.000000 0.020387 0.750000
O O1 0.100936 0.791418 0.641499
O O2 0.119950 0.749027 0.519417
O O3 0.365457 0.751959 0.771294
O O4 0.238373 0.072583 0.661233
O O5 0.406006 0.627943 0.231503
O O6 0.535268 0.959797 0.370830
O O7 0.898938 0.833978 0.129406
#
# Coordination Sequence:
#
# PCOD9297057 Si02
#       4
#     8   8   8   4
#     4  10  23  47  73  95 137 173 240 266 337 391
#     4  10  24  44  69 104 132 180 221 285 326 407
#     4  10  25  46  69 102 132 182 221 286 325 408
#     4  12  24  46  66 104 144 172 222 278 348 392
#
# _framework density 24.731372
#
# number of rings (size 3 to 8) (size 9 to 14) (size 15 to 20)
#    1.714    0.000    0.000    3.429    0.000    6.857 
#    5.143    0.000    0.000    0.000    0.000    0.000 
#    0.000    0.000    0.000    0.000    0.000    0.000 
#
# Total GULP energy -78276.860336 kJ/mol
# GULP energy per Si atom -5591.204310 kJ/mol
# Density = 2.467508 g / cm^3
# Si number density = 24.731372 Si / 1000 Ang^3
#
#
#
# Elastic Constant Matrix: (Units=GPa)
#
#
# Indices 1 2 3 4 5 6 
#
# 1 94.2212 72.4963 44.8050 0.0000 -41.8052 0.0000
# 2 72.4963 143.6162 16.9465 0.0000 -16.9966 0.0000
# 3 44.8050 16.9465 137.4624 0.0000 -2.5196 0.0000
# 4 0.0000 0.0000 0.0000 28.0732 0.0000 -25.6656
# 5 -41.8052 -16.9966 -2.5196 0.0000 33.6310 0.0000
# 6 0.0000 0.0000 0.0000 -25.6656 0.0000 39.2068
#
#
#
# Elastic Compliance Matrix: (Units=1/GPa)
#
#
# Indices 1 2 3 4 5 6 
#
# 1 0.075198 -0.026307 -0.019825 0.000000 0.078695 0.000000
# 2 -0.026307 0.016708 0.006078 0.000000 -0.023801 0.000000
# 3 -0.019825 0.006078 0.012609 0.000000 -0.020627 0.000000
# 4 0.000000 0.000000 0.000000 0.088716 0.000000 0.058076
# 5 0.078695 -0.023801 -0.020627 0.000000 0.113983 0.000000
# 6 0.000000 0.000000 0.000000 0.058076 0.000000 0.063523
#
#
# Mechanical properties :
#
#
# Convention : Reuss Voigt Hill
#
# Bulk Modulus (GPa) = 40.96797 71.53283 56.25040
# Shear Modulus (GPa) = 10.89371 36.25232 23.57301
#
# Velocity S-wave (km/s) = 2.10104 3.83279 3.09068
# Velocity P-wave (km/s) = 4.74204 6.96948 5.96073
#
# Compressibility (1/GPa) = 0.02440931
#
# Stress axis : x y z
#
# Youngs Moduli (GPa) = 13.29822 59.85023 79.30816
#
# Poissons Ratio (x) = 1.57446 1.57227
# Poissons Ratio (y) = 0.34983 -0.48207
# Poissons Ratio (z) = 0.26363 -0.36379
#
# Static dielectric constant tensor:
#      x y z
#    x 2.085940 0.000000 0.105370 
#    y 0.000000 1.990070 0.000000 
#    z 0.105370 0.000000 1.933340 
# 
# From -- ./inp_files/93027.got.cif
#   From: 2010.05.17/outbox.cif.g08.bks.cpg/sg15_47_cif.got.tgz:93027.got - 2010.06.03 18:47:42.
