data_PCOD9297702
_publ_section_title
;
Structure prediction by ZEFSAII (Michael W. Deem and Ramdas Pophale) SiO2 
 PCOD9297702
Probable space group: C 2/C
;
_chemical_formula_sum "Si O2"
_cell_formula_units_Z 44
_cell_length_a 12.617057
_cell_length_b 17.460920
_cell_length_c 9.029798
_cell_angle_alpha 90.000000
_cell_angle_beta 70.068859
_cell_angle_gamma 90.000000
_cell_volume 1870.159533
_symmetry_space_group_name_H-M "C 2/C"
_symmetry_group_IT_number 15
_symmetry_cell_setting 'monoclinic'
loop_
_space_group_symop_operation_xyz
x,y,z
-x,y,1/2-z
-x,-y,-z
x,-y,1/2+z
1/2+x,1/2+y,z
1/2-x,1/2+y,1/2-z
1/2-x,1/2-y,-z
1/2+x,1/2-y,1/2+z
loop_
_atom_site_type_symbol
_atom_site_label
_atom_site_fract_x
_atom_site_fract_y
_atom_site_fract_z
Si Si1 0.124612 0.597966 0.380186
Si Si2 0.671604 0.535036 0.050573
Si Si3 0.123180 0.625386 0.046741
Si Si4 0.341624 0.601939 0.762315
Si Si5 0.968758 0.243599 0.562317
Si Si6 0.500000 0.341748 0.750000
O O1 0.202220 0.546000 0.445476
O O2 0.160953 0.596418 0.190129
O O3 0.122494 0.688510 0.425679
O O4 0.990705 0.581077 0.446053
O O5 0.619454 0.453859 0.123440
O O6 0.603510 0.602535 0.163962
O O7 0.667484 0.549490 0.878964
O O8 0.072151 0.711071 0.089009
O O9 0.219127 0.626883 0.879262
O O10 0.413461 0.674198 0.677311
O O11 0.014870 0.210076 0.386923
#
# Coordination Sequence:
#
# PCOD9297702 Si02
#       6
#     8   8   8   8   8   4
#     4   9  21  41  64 103 127 169 220 266 336 376
#     4  11  25  43  66  98 132 180 214 271 329 397
#     4   9  21  42  64 100 130 168 217 276 321 387
#     4  11  24  43  66  96 135 177 220 265 330 389
#     4   9  22  39  66  98 127 175 215 271 322 388
#     4  10  24  42  64  96 138 174 220 268 328 390
#
# _framework density 23.527405000000002
#
# number of rings (size 3 to 8) (size 9 to 14) (size 15 to 20)
#    1.091    1.091    0.000    1.091    5.091    6.545 
#   13.091    0.000    0.000    0.000    0.000    0.000 
#    0.000    0.000    0.000    0.000    0.000    0.000 
#
# Total GULP energy -122945.368763 kJ/mol
# GULP energy per Si atom -5588.425853 kJ/mol
# Density = 2.347386 g / cm^3
# Si number density = 23.527405 Si / 1000 Ang^3
#
#
#
# Elastic Constant Matrix: (Units=GPa)
#
#
# Indices 1 2 3 4 5 6 
#
# 1 41.9770 1.9563 29.8974 0.0000 -5.8446 0.0000
# 2 1.9563 115.9220 41.0137 0.0000 -4.7133 0.0000
# 3 29.8974 41.0137 150.1194 0.0000 -30.0917 0.0000
# 4 0.0000 0.0000 0.0000 28.6951 0.0000 -3.4119
# 5 -5.8446 -4.7133 -30.0917 0.0000 24.5875 0.0000
# 6 0.0000 0.0000 0.0000 -3.4119 0.0000 23.9082
#
#
#
# Elastic Compliance Matrix: (Units=1/GPa)
#
#
# Indices 1 2 3 4 5 6 
#
# 1 0.028053 0.001682 -0.006155 0.000000 -0.000542 0.000000
# 2 0.001682 0.009711 -0.003359 0.000000 -0.001849 0.000000
# 3 -0.006155 -0.003359 0.011107 0.000000 0.011487 0.000000
# 4 0.000000 0.000000 0.000000 0.035451 0.000000 0.005059
# 5 -0.000542 -0.001849 0.011487 0.000000 0.054246 0.000000
# 6 0.000000 0.000000 0.000000 0.005059 0.000000 0.042549
#
#
# Mechanical properties :
#
#
# Convention : Reuss Voigt Hill
#
# Bulk Modulus (GPa) = 30.11355 50.41703 40.26529
# Shear Modulus (GPa) = 24.05584 31.11489 27.58537
#
# Velocity S-wave (km/s) = 3.20106 3.64056 3.42786
# Velocity P-wave (km/s) = 5.14680 6.25677 5.72873
#
# Compressibility (1/GPa) = 0.03320764
#
# Stress axis : x y z
#
# Youngs Moduli (GPa) = 35.64735 102.97271 90.02939
#
# Poissons Ratio (x) = -0.17323 0.55415
# Poissons Ratio (y) = -0.05997 0.30240
# Poissons Ratio (z) = 0.21942 0.34588
#
# Static dielectric constant tensor:
#      x y z
#    x 1.935540 0.000000 -0.007290 
#    y 0.000000 1.909340 0.000000 
#    z -0.007290 0.000000 1.838560 
# 
# From -- ./inp_files/39066.got.cif
#   From: 2010.05.17/outbox.cif.g08.bks.cpg/sg15_20_cif.got.tgz:39066.got - 2010.06.03 18:47:42.
