data_PCOD9297017
_publ_section_title
;
Structure prediction by ZEFSAII (Michael W. Deem and Ramdas Pophale) SiO2 
 PCOD9297017
Probable space group: C 2/C
;
_chemical_formula_sum "Si O2"
_cell_formula_units_Z 52
_cell_length_a 14.493222
_cell_length_b 15.770682
_cell_length_c 16.326590
_cell_angle_alpha 90.000000
_cell_angle_beta 142.259518
_cell_angle_gamma 90.000000
_cell_volume 2284.143037
_symmetry_space_group_name_H-M "C 2/C"
_symmetry_group_IT_number 15
_symmetry_cell_setting 'monoclinic'
loop_
_space_group_symop_operation_xyz
x,y,z
-x,y,1/2-z
-x,-y,-z
x,-y,1/2+z
1/2+x,1/2+y,z
1/2-x,1/2+y,1/2-z
1/2-x,1/2-y,-z
1/2+x,1/2-y,1/2+z
loop_
_atom_site_type_symbol
_atom_site_label
_atom_site_fract_x
_atom_site_fract_y
_atom_site_fract_z
Si Si1 0.789140 0.842155 0.992887
Si Si2 0.197749 0.064427 0.275073
Si Si3 0.000000 0.052686 0.750000
Si Si4 0.805580 0.066791 0.857474
Si Si5 0.348634 0.984442 0.092847
Si Si6 0.432596 0.308586 0.925203
Si Si7 0.512106 0.884526 0.448830
O O1 0.938999 0.883866 0.137562
O O2 0.750000 0.750000 0.000000
O O3 0.809565 0.828239 0.909957
O O4 0.673519 0.915688 0.941749
O O5 0.127504 0.156119 0.204630
O O6 0.380637 0.073246 0.405917
O O7 0.139167 0.013084 0.154958
O O8 0.126418 0.009744 0.299681
O O9 0.779605 0.039951 0.932870
O O10 0.650317 0.086603 0.699557
O O11 0.917341 0.144466 0.938780
O O12 0.500000 0.982452 0.250000
O O13 0.374379 0.910329 0.045205
O O14 0.479339 0.211249 0.949986
#
# Coordination Sequence:
#
# PCOD9297017 Si02
#       7
#     8   8   4   8   8   8   8
#     4  12  27  45  72 104 144 183 241 298 359 434
#     4  12  24  45  74 100 144 187 242 293 364 435
#     4  12  26  46  72 108 134 192 240 296 362 432
#     4  11  23  46  72  95 145 190 235 287 362 438
#     4  10  23  47  69  98 138 191 232 287 364 430
#     4  12  26  45  72 108 142 186 237 305 363 424
#     4  11  26  43  70 109 142 184 244 297 356 431
#
# _framework density 22.765650000000001
#
# number of rings (size 3 to 8) (size 9 to 14) (size 15 to 20)
#    0.000    0.615    4.615    2.769    3.231    4.308 
#    4.154    0.000    0.000    0.000    0.000    0.000 
#    0.000    0.000    0.000    0.000    0.000    0.000 
#
# Total GULP energy -144925.628677 kJ/mol
# GULP energy per Si atom -5574.062641 kJ/mol
# Density = 2.271383 g / cm^3
# Si number density = 22.765650 Si / 1000 Ang^3
#
#
#
# Elastic Constant Matrix: (Units=GPa)
#
#
# Indices 1 2 3 4 5 6 
#
# 1 61.4202 32.1995 -9.8385 -0.0002 -4.9625 -0.0001
# 2 32.1995 104.2104 20.4938 0.0000 -12.2670 0.0000
# 3 -9.8385 20.4938 81.4895 0.0000 5.7915 -0.0002
# 4 -0.0002 0.0000 0.0000 35.3266 0.0000 -1.8022
# 5 -4.9625 -12.2670 5.7915 0.0000 27.3567 -0.0001
# 6 -0.0001 0.0000 -0.0002 -1.8022 -0.0001 34.4026
#
#
#
# Elastic Compliance Matrix: (Units=1/GPa)
#
#
# Indices 1 2 3 4 5 6 
#
# 1 0.020797 -0.007342 0.004389 0.000000 -0.000449 0.000000
# 2 -0.007342 0.013454 -0.004674 0.000000 0.005690 0.000000
# 3 0.004389 -0.004674 0.014284 0.000000 -0.004324 0.000000
# 4 0.000000 0.000000 0.000000 0.028383 0.000000 0.001487
# 5 -0.000449 0.005690 -0.004324 0.000000 0.039940 0.000000
# 6 0.000000 0.000000 0.000000 0.001487 0.000000 0.029145
#
#
# Mechanical properties :
#
#
# Convention : Reuss Voigt Hill
#
# Bulk Modulus (GPa) = 30.04724 36.98108 33.51416
# Shear Modulus (GPa) = 29.01053 33.03487 31.02270
#
# Velocity S-wave (km/s) = 3.57362 3.81344 3.69548
# Velocity P-wave (km/s) = 5.50044 5.97238 5.74126
#
# Compressibility (1/GPa) = 0.03328093
#
# Stress axis : x y z
#
# Youngs Moduli (GPa) = 48.08340 74.32933 70.00700
#
# Poissons Ratio (x) = 0.54573 -0.30728
# Poissons Ratio (y) = 0.35303 0.32723
# Poissons Ratio (z) = -0.21105 0.34744
#
# Static dielectric constant tensor:
#      x y z
#    x 1.918910 0.000000 -0.030390 
#    y 0.000000 1.868590 0.000000 
#    z -0.030390 0.000000 1.939820 
# 
# From -- ./inp_files/205784.got.cif
#   From: 2010.05.17/outbox.cif.g08.bks.cpg/sg15_103_cif.got.tgz:205784.got - 2010.06.03 18:47:42.
