data_PCOD9297145
_publ_section_title
;
Structure prediction by ZEFSAII (Michael W. Deem and Ramdas Pophale) SiO2 
 PCOD9297145
Probable space group: C 2/C
;
_chemical_formula_sum "Si O2"
_cell_formula_units_Z 56
_cell_length_a 17.759267
_cell_length_b 20.057960
_cell_length_c 9.121128
_cell_angle_alpha 90.000000
_cell_angle_beta 128.440268
_cell_angle_gamma 90.000000
_cell_volume 2544.863396
_symmetry_space_group_name_H-M "C 2/C"
_symmetry_group_IT_number 15
_symmetry_cell_setting 'monoclinic'
loop_
_space_group_symop_operation_xyz
x,y,z
-x,y,1/2-z
-x,-y,-z
x,-y,1/2+z
1/2+x,1/2+y,z
1/2-x,1/2+y,1/2-z
1/2-x,1/2-y,-z
1/2+x,1/2-y,1/2+z
loop_
_atom_site_type_symbol
_atom_site_label
_atom_site_fract_x
_atom_site_fract_y
_atom_site_fract_z
Si Si1 0.015838 0.760433 0.003714
Si Si2 0.415839 0.594933 0.889619
Si Si3 0.093910 0.413295 0.409956
Si Si4 0.000000 0.993599 0.750000
Si Si5 0.203956 0.408339 0.071328
Si Si6 0.150328 0.283071 0.402691
Si Si7 0.500000 0.164912 0.250000
Si Si8 0.652560 0.017221 0.249258
O O1 0.915101 0.734767 0.815964
O O2 0.095372 0.746255 0.976400
O O3 0.036443 0.713679 0.166489
O O4 0.017486 0.839275 0.037659
O O5 0.441622 0.542147 0.791243
O O6 0.306053 0.622788 0.740638
O O7 0.436235 0.554615 0.066352
O O8 0.173721 0.361129 0.462365
O O9 0.096250 0.475134 0.302656
O O10 0.091090 0.433456 0.574147
O O11 0.000000 0.373235 0.250000
O O12 0.193788 0.466764 0.180116
O O13 0.096760 0.375072 0.923585
O O14 0.222721 0.439576 0.932948
O O15 0.250000 0.250000 0.500000
#
# Coordination Sequence:
#
# PCOD9297145 Si02
#       8
#     8   8   8   4   8   8   4   8
#     4  11  25  47  68 103 134 183 235 280 345 417
#     4  11  24  47  73 101 135 176 233 289 352 411
#     4  11  21  40  65  96 137 173 228 273 333 404
#     4  10  23  48  78 100 135 174 230 300 346 410
#     4  11  25  41  68  98 146 178 229 279 352 408
#     4  11  25  46  72  97 137 187 233 282 339 416
#     4  12  27  44  66 104 147 184 224 292 342 420
#     4  10  24  38  63 103 130 184 219 272 340 410
#
# _framework density 22.005108
#
# number of rings (size 3 to 8) (size 9 to 14) (size 15 to 20)
#    0.000    1.143    1.429    4.286   10.000    0.571 
#   18.000    0.000    0.000    0.000    0.000    0.000 
#    0.000    0.000    0.000    0.000    0.000    0.000 
#
# Total GULP energy -156135.237147 kJ/mol
# GULP energy per Si atom -5576.258470 kJ/mol
# Density = 2.195502 g / cm^3
# Si number density = 22.005108 Si / 1000 Ang^3
#
#
#
# Elastic Constant Matrix: (Units=GPa)
#
#
# Indices 1 2 3 4 5 6 
#
# 1 48.3335 16.1598 48.7034 0.0000 1.3991 0.0000
# 2 16.1598 118.4967 51.3641 0.0000 -5.5558 0.0000
# 3 48.7034 51.3641 134.6075 0.0000 -11.6936 0.0000
# 4 0.0000 0.0000 0.0000 28.0780 0.0000 -6.8105
# 5 1.3991 -5.5558 -11.6936 0.0000 37.0431 0.0000
# 6 0.0000 0.0000 0.0000 -6.8105 0.0000 22.2186
#
#
#
# Elastic Compliance Matrix: (Units=1/GPa)
#
#
# Indices 1 2 3 4 5 6 
#
# 1 0.033579 0.000765 -0.012895 0.000000 -0.005224 0.000000
# 2 0.000765 0.010132 -0.004127 0.000000 0.000188 0.000000
# 3 -0.012895 -0.004127 0.014043 0.000000 0.004301 0.000000
# 4 0.000000 0.000000 0.000000 0.038476 0.000000 0.011794
# 5 -0.005224 0.000188 0.004301 0.000000 0.028579 0.000000
# 6 0.000000 0.000000 0.000000 0.011794 0.000000 0.048622
#
#
# Mechanical properties :
#
#
# Convention : Reuss Voigt Hill
#
# Bulk Modulus (GPa) = 39.61848 59.32137 49.46992
# Shear Modulus (GPa) = 23.32538 29.81530 26.57034
#
# Velocity S-wave (km/s) = 3.25929 3.68493 3.47863
# Velocity P-wave (km/s) = 5.67515 6.71725 6.21807
#
# Compressibility (1/GPa) = 0.02524075
#
# Stress axis : x y z
#
# Youngs Moduli (GPa) = 29.78058 98.69344 71.20870
#
# Poissons Ratio (x) = -0.07555 0.91826
# Poissons Ratio (y) = -0.02280 0.29388
# Poissons Ratio (z) = 0.38403 0.40731
#
# Static dielectric constant tensor:
#      x y z
#    x 1.799860 0.000000 0.019020 
#    y 0.000000 1.870910 0.000000 
#    z 0.019020 0.000000 1.844880 
# 
# From -- ./inp_files/51620.got.cif
#   From: 2010.05.17/outbox.cif.g08.bks.cpg/sg15_26_cif.got.tgz:51620.got - 2010.06.03 18:47:42.
