data_PCOD9297402
_publ_section_title
;
Structure prediction by ZEFSAII (Michael W. Deem and Ramdas Pophale) SiO2 
 PCOD9297402
Probable space group: C 2/C
;
_chemical_formula_sum "Si O2"
_cell_formula_units_Z 56
_cell_length_a 17.639560
_cell_length_b 16.084064
_cell_length_c 21.233501
_cell_angle_alpha 90.000000
_cell_angle_beta 153.951075
_cell_angle_gamma 90.000000
_cell_volume 2645.493087
_symmetry_space_group_name_H-M "C 2/C"
_symmetry_group_IT_number 15
_symmetry_cell_setting 'monoclinic'
loop_
_space_group_symop_operation_xyz
x,y,z
-x,y,1/2-z
-x,-y,-z
x,-y,1/2+z
1/2+x,1/2+y,z
1/2-x,1/2+y,1/2-z
1/2-x,1/2-y,-z
1/2+x,1/2-y,1/2+z
loop_
_atom_site_type_symbol
_atom_site_label
_atom_site_fract_x
_atom_site_fract_y
_atom_site_fract_z
Si Si1 0.020715 0.841167 0.037980
Si Si2 0.855222 0.418374 0.337619
Si Si3 0.945189 0.849125 0.840039
Si Si4 0.687697 0.941521 0.792024
Si Si5 0.500000 0.060251 0.750000
Si Si6 0.000000 0.138848 0.250000
Si Si7 0.454901 0.153503 0.415830
Si Si8 0.881661 0.673277 0.553673
O O1 0.039430 0.863154 0.977405
O O2 0.867048 0.900677 0.945632
O O3 0.196614 0.856966 0.206088
O O4 0.975092 0.744489 0.013368
O O5 0.793177 0.501634 0.256739
O O6 0.919469 0.413387 0.456932
O O7 0.021489 0.385428 0.423835
O O8 0.741889 0.846573 0.704086
O O9 0.985836 0.904759 0.808520
O O10 0.011936 0.758093 0.868925
O O11 0.565317 0.868548 0.672860
O O12 0.609391 0.000406 0.786375
O O13 0.390019 0.122292 0.624507
O O14 0.182992 0.186405 0.387980
#
# Coordination Sequence:
#
# PCOD9297402 Si02
#       8
#     8   8   8   8   4   4   8   8
#     4  11  21  38  65  93 120 157 215 265 306 364
#     4  11  20  38  59  90 124 164 206 257 306 365
#     4  11  21  36  56  90 132 162 213 240 305 363
#     4  10  24  40  64  87 121 168 202 263 317 374
#     4  10  25  46  60  84 131 166 212 240 330 383
#     4  12  23  32  52  86 129 176 206 240 298 367
#     4  11  20  40  64  92 122 157 217 265 306 360
#     4  11  22  36  56  84 126 176 197 254 290 375
#
# _framework density 21.168075000000002
#
# number of rings (size 3 to 8) (size 9 to 14) (size 15 to 20)
#    0.000    1.143    4.286    2.571    4.000    0.000 
#    0.000    0.714    0.000    0.000    0.000    0.000 
#    0.000    0.000    0.000    0.000    0.000    0.000 
#
# Total GULP energy -156267.426587 kJ/mol
# GULP energy per Si atom -5580.979521 kJ/mol
# Density = 2.111990 g / cm^3
# Si number density = 21.168075 Si / 1000 Ang^3
#
#
#
# Elastic Constant Matrix: (Units=GPa)
#
#
# Indices 1 2 3 4 5 6 
#
# 1 67.1190 23.4415 35.6240 0.0018 -7.8451 -0.0003
# 2 23.4415 69.6694 28.1034 -0.0198 16.2373 -0.0107
# 3 35.6240 28.1034 145.1256 -0.0152 -0.4762 -0.0096
# 4 0.0018 -0.0198 -0.0152 27.0522 0.0014 -3.4843
# 5 -7.8451 16.2373 -0.4762 0.0014 26.9080 0.0015
# 6 -0.0003 -0.0107 -0.0096 -3.4843 0.0015 26.2604
#
#
#
# Elastic Compliance Matrix: (Units=1/GPa)
#
#
# Indices 1 2 3 4 5 6 
#
# 1 0.020897 -0.008169 -0.003512 -0.000011 0.010960 -0.000006
# 2 -0.008169 0.021604 -0.002229 0.000017 -0.015458 0.000011
# 3 -0.003512 -0.002229 0.008186 0.000004 0.000466 0.000002
# 4 -0.000011 0.000017 0.000004 0.037608 -0.000016 0.004990
# 5 0.010960 -0.015458 0.000466 -0.000016 0.049695 -0.000011
# 6 -0.000006 0.000011 0.000002 0.004990 -0.000011 0.038742
#
#
# Mechanical properties :
#
#
# Convention : Reuss Voigt Hill
#
# Bulk Modulus (GPa) = 43.73077 50.69464 47.21270
# Shear Modulus (GPa) = 23.56562 29.02715 26.29638
#
# Velocity S-wave (km/s) = 3.34018 3.70708 3.52840
# Velocity P-wave (km/s) = 5.96485 6.50568 6.24113
#
# Compressibility (1/GPa) = 0.02286720
#
# Stress axis : x y z
#
# Youngs Moduli (GPa) = 47.85428 46.28812 122.16307
#
# Poissons Ratio (x) = 0.37812 0.42900
# Poissons Ratio (y) = 0.39091 0.27231
# Poissons Ratio (z) = 0.16805 0.10318
#
# Static dielectric constant tensor:
#      x y z
#    x 1.815390 0.000000 -0.073830 
#    y 0.000000 1.829070 0.000000 
#    z -0.073830 0.000000 1.808420 
# 
# From -- ./inp_files/280462.got.cif
#   From: 2010.05.17/outbox.cif.g08.bks.cpg/sg15_141_cif.got.tgz:280462.got - 2010.06.03 18:47:42.
