data_PCOD9297546
_publ_section_title
;
Structure prediction by ZEFSAII (Michael W. Deem and Ramdas Pophale) SiO2 
 PCOD9297546
Probable space group: C 2/C
;
_chemical_formula_sum "Si O2"
_cell_formula_units_Z 64
_cell_length_a 29.628368
_cell_length_b 6.781279
_cell_length_c 25.116543
_cell_angle_alpha 90.000000
_cell_angle_beta 141.237906
_cell_angle_gamma 90.000000
_cell_volume 3159.472935
_symmetry_space_group_name_H-M "C 2/C"
_symmetry_group_IT_number 15
_symmetry_cell_setting 'monoclinic'
loop_
_space_group_symop_operation_xyz
x,y,z
-x,y,1/2-z
-x,-y,-z
x,-y,1/2+z
1/2+x,1/2+y,z
1/2-x,1/2+y,1/2-z
1/2-x,1/2-y,-z
1/2+x,1/2-y,1/2+z
loop_
_atom_site_type_symbol
_atom_site_label
_atom_site_fract_x
_atom_site_fract_y
_atom_site_fract_z
Si Si1 0.430603 0.782686 0.276546
Si Si2 0.268109 0.870709 0.650076
Si Si3 0.805668 0.284691 0.252562
Si Si4 0.852816 0.071915 0.676207
Si Si5 0.181528 0.552078 0.621345
Si Si6 0.582949 0.111742 0.330610
Si Si7 0.591869 0.892743 0.449494
Si Si8 0.761201 0.228194 0.948543
O O1 0.372503 0.782884 0.271868
O O2 0.422424 0.562611 0.246583
O O3 0.510210 0.820590 0.370968
O O4 0.414653 0.933731 0.212184
O O5 0.338395 0.731496 0.709436
O O6 0.206105 0.713126 0.600478
O O7 0.266165 0.015262 0.698007
O O8 0.263341 0.017925 0.596279
O O9 0.831052 0.329666 0.335591
O O10 0.747165 0.106885 0.192182
O O11 0.863498 0.211437 0.635425
O O12 0.787701 0.913548 0.615844
O O13 0.113343 0.456801 0.529062
O O14 0.500000 0.179894 0.250000
O O15 0.597191 0.040959 0.403655
O O16 0.656675 0.745142 0.494245
O O17 0.750000 0.250000 0.000000
#
# Coordination Sequence:
#
# PCOD9297546 Si02
#       8
#     8   8   8   8   8   8   8   8
#     4  11  23  44  65  95 142 177 220 274 340 412
#     4  12  21  41  67  92 130 167 234 275 328 403
#     4  12  23  44  70  98 129 178 230 280 338 407
#     4  12  21  40  67  92 124 182 221 267 333 400
#     4  12  25  42  72  99 129 178 230 289 336 395
#     4  10  24  41  63  96 137 184 220 265 338 416
#     4  11  24  44  61 102 143 171 222 281 345 402
#     4  12  25  38  64 101 135 170 221 288 336 395
#
# _framework density 20.256543000000001
#
# number of rings (size 3 to 8) (size 9 to 14) (size 15 to 20)
#    0.000    0.500    7.500    1.500    1.750    4.000 
#    2.250    0.000    0.000    2.250    0.000    0.000 
#    0.000    0.000    0.000    0.000    0.000    0.000 
#
# Total GULP energy -178200.640952 kJ/mol
# GULP energy per Si atom -5568.770030 kJ/mol
# Density = 2.021044 g / cm^3
# Si number density = 20.256543 Si / 1000 Ang^3
#
#
#
# Elastic Constant Matrix: (Units=GPa)
#
#
# Indices 1 2 3 4 5 6 
#
# 1 88.7113 39.3880 47.9819 0.0002 -12.7955 0.0007
# 2 39.3880 113.7911 40.1820 0.0005 -3.8978 0.0015
# 3 47.9819 40.1820 122.0251 0.0001 -11.7507 0.0001
# 4 0.0002 0.0005 0.0001 17.1693 0.0001 -4.3599
# 5 -12.7955 -3.8978 -11.7507 0.0001 38.6668 0.0001
# 6 0.0007 0.0015 0.0001 -4.3599 0.0001 26.6732
#
#
#
# Elastic Compliance Matrix: (Units=1/GPa)
#
#
# Indices 1 2 3 4 5 6 
#
# 1 0.015991 -0.003750 -0.004718 0.000000 0.003480 0.000000
# 2 -0.003750 0.010824 -0.002167 0.000000 -0.000809 -0.000001
# 3 -0.004718 -0.002167 0.010912 0.000000 0.001536 0.000000
# 4 0.000000 0.000000 0.000000 0.060766 0.000000 0.009933
# 5 0.003480 -0.000809 0.001536 0.000000 0.027399 0.000000
# 6 0.000000 -0.000001 0.000000 0.009933 0.000000 0.039114
#
#
# Mechanical properties :
#
#
# Convention : Reuss Voigt Hill
#
# Bulk Modulus (GPa) = 60.76846 64.40349 62.58598
# Shear Modulus (GPa) = 26.07390 29.63356 27.85373
#
# Velocity S-wave (km/s) = 3.59163 3.82895 3.71219
# Velocity P-wave (km/s) = 6.87490 7.17013 7.02407
#
# Compressibility (1/GPa) = 0.01645590
#
# Stress axis : x y z
#
# Youngs Moduli (GPa) = 62.53368 92.38927 91.64298
#
# Poissons Ratio (x) = 0.34646 0.43238
# Poissons Ratio (y) = 0.23450 0.19863
# Poissons Ratio (z) = 0.29504 0.20025
#
# Static dielectric constant tensor:
#      x y z
#    x 1.820090 0.000000 -0.024670 
#    y 0.000000 1.764440 0.000000 
#    z -0.024670 0.000000 1.760350 
# 
# From -- ./inp_files/304105.got.cif
#   From: 2010.05.17/outbox.cif.g08.bks.cpg/sg15_153_cif.got.tgz:304105.got - 2010.06.03 18:47:42.
