data_PCOD9297002
_publ_section_title
;
Structure prediction by ZEFSAII (Michael W. Deem and Ramdas Pophale) SiO2 
 PCOD9297002
Probable space group: C 2/C
;
_chemical_formula_sum "Si O2"
_cell_formula_units_Z 44
_cell_length_a 17.061496
_cell_length_b 22.307076
_cell_length_c 5.482930
_cell_angle_alpha 90.000000
_cell_angle_beta 127.035888
_cell_angle_gamma 90.000000
_cell_volume 1665.773517
_symmetry_space_group_name_H-M "C 2/C"
_symmetry_group_IT_number 15
_symmetry_cell_setting 'monoclinic'
loop_
_space_group_symop_operation_xyz
x,y,z
-x,y,1/2-z
-x,-y,-z
x,-y,1/2+z
1/2+x,1/2+y,z
1/2-x,1/2+y,1/2-z
1/2-x,1/2-y,-z
1/2+x,1/2-y,1/2+z
loop_
_atom_site_type_symbol
_atom_site_label
_atom_site_fract_x
_atom_site_fract_y
_atom_site_fract_z
Si Si1 0.500000 0.744336 0.750000
Si Si2 0.500000 0.558898 0.750000
Si Si3 0.500000 0.959809 0.250000
Si Si4 0.189236 0.623972 0.051145
Si Si5 0.213190 0.031164 0.990719
Si Si6 0.647327 0.755913 0.671279
Si Si7 0.612823 0.650991 0.276279
O O1 0.559411 0.782111 0.667924
O O2 0.415486 0.701774 0.477378
O O3 0.404520 0.529098 0.693437
O O4 0.458430 0.598854 0.447333
O O5 0.592865 0.916104 0.374944
O O6 0.500000 0.000000 0.500000
O O7 0.247514 0.598659 0.399282
O O8 0.164131 0.694060 0.000006
O O9 0.279365 0.621856 0.030214
O O10 0.247778 0.996928 0.302504
O O11 0.608746 0.691362 0.509394
O O12 0.750000 0.750000 0.000000
#
# Coordination Sequence:
#
# PCOD9297002 Si02
#       7
#     4   4   4   8   8   8   8
#     4  11  24  45  68 106 160 194 241 310 381 450
#     4   9  22  44  73 110 135 202 232 300 403 452
#     4  12  30  55  77 112 153 204 279 342 376 452
#     4  11  26  47  75 109 139 212 254 310 403 452
#     4  11  24  48  72 106 145 189 252 324 375 451
#     4  12  26  44  72 111 159 200 252 309 379 486
#     4  10  23  47  68 109 156 186 247 306 379 479
#
# _framework density 26.414155000000001
#
# number of rings (size 3 to 8) (size 9 to 14) (size 15 to 20)
#    0.000    1.091    1.818    2.727    2.545    5.091 
#    9.818    0.000    0.000    0.000    0.000    0.000 
#    0.000    0.000    0.000    0.000    0.000    0.000 
#
# Total GULP energy -122937.992646 kJ/mol
# GULP energy per Si atom -5588.090575 kJ/mol
# Density = 2.635404 g / cm^3
# Si number density = 26.414155 Si / 1000 Ang^3
#
#
#
# Elastic Constant Matrix: (Units=GPa)
#
#
# Indices 1 2 3 4 5 6 
#
# 1 106.4059 25.6600 65.5723 0.0000 18.9957 0.0000
# 2 25.6600 104.6677 47.8743 0.0000 4.8832 0.0000
# 3 65.5723 47.8743 110.1147 0.0000 0.6940 0.0000
# 4 0.0000 0.0000 0.0000 34.1635 0.0000 14.0218
# 5 18.9957 4.8832 0.6940 0.0000 50.5789 0.0000
# 6 0.0000 0.0000 0.0000 14.0218 0.0000 40.5806
#
#
#
# Elastic Compliance Matrix: (Units=1/GPa)
#
#
# Indices 1 2 3 4 5 6 
#
# 1 0.016588 0.000901 -0.010231 0.000000 -0.006177 0.000000
# 2 0.000901 0.012034 -0.005760 0.000000 -0.001421 0.000000
# 3 -0.010231 -0.005760 0.017652 0.000000 0.004156 0.000000
# 4 0.000000 0.000000 0.000000 0.034108 0.000000 -0.011785
# 5 -0.006177 -0.001421 0.004156 0.000000 0.022171 0.000000
# 6 0.000000 0.000000 0.000000 -0.011785 0.000000 0.028714
#
#
# Mechanical properties :
#
#
# Convention : Reuss Voigt Hill
#
# Bulk Modulus (GPa) = 62.13157 66.60016 64.36586
# Shear Modulus (GPa) = 29.97407 37.20336 33.58872
#
# Velocity S-wave (km/s) = 3.37229 3.75702 3.56984
# Velocity P-wave (km/s) = 6.22385 6.63994 6.43526
#
# Compressibility (1/GPa) = 0.01609488
#
# Stress axis : x y z
#
# Youngs Moduli (GPa) = 60.28425 83.09914 56.65182
#
# Poissons Ratio (x) = -0.07487 0.57960
# Poissons Ratio (y) = -0.05432 0.32629
# Poissons Ratio (z) = 0.61676 0.47861
#
# Static dielectric constant tensor:
#      x y z
#    x 2.201710 0.000000 -0.028270 
#    y 0.000000 2.056920 0.000000 
#    z -0.028270 0.000000 2.130170 
# 
# From -- ./inp_files/11670.got.cif
#   From: 2010.05.17/outbox.cif.g08.bks.cpg/sg15_6_cif.got.tgz:11670.got - 2010.06.03 18:47:42.
