data_PCOD9297761
_publ_section_title
;
Structure prediction by ZEFSAII (Michael W. Deem and Ramdas Pophale) SiO2 
 PCOD9297761
Probable space group: C 2/C
;
_chemical_formula_sum "Si O2"
_cell_formula_units_Z 44
_cell_length_a 25.767208
_cell_length_b 8.834072
_cell_length_c 24.284116
_cell_angle_alpha 90.000000
_cell_angle_beta 19.195992
_cell_angle_gamma 90.000000
_cell_volume 1817.536650
_symmetry_space_group_name_H-M "C 2/C"
_symmetry_group_IT_number 15
_symmetry_cell_setting 'monoclinic'
loop_
_space_group_symop_operation_xyz
x,y,z
-x,y,1/2-z
-x,-y,-z
x,-y,1/2+z
1/2+x,1/2+y,z
1/2-x,1/2+y,1/2-z
1/2-x,1/2-y,-z
1/2+x,1/2-y,1/2+z
loop_
_atom_site_type_symbol
_atom_site_label
_atom_site_fract_x
_atom_site_fract_y
_atom_site_fract_z
Si Si1 0.091633 0.839025 0.281375
Si Si2 0.763079 0.030706 0.458369
Si Si3 0.739594 0.043670 0.299458
Si Si4 0.744233 0.960845 0.606456
Si Si5 0.000000 0.717408 0.750000
Si Si6 0.112482 0.354848 0.326325
O O1 0.112366 0.659744 0.257608
O O2 0.912445 0.895597 0.457849
O O3 0.181099 0.901179 0.137499
O O4 0.181895 0.914170 0.241873
O O5 0.885757 0.168823 0.332976
O O6 0.596205 0.107614 0.613601
O O7 0.755011 0.978533 0.529953
O O8 0.857324 0.186160 0.181877
O O9 0.572255 0.105569 0.489989
O O10 0.697311 0.971266 0.283282
O O11 0.699501 0.116114 0.681330
#
# Coordination Sequence:
#
# PCOD9297761 Si02
#       6
#     8   8   8   8   4   8
#     4  12  26  44  68  98 137 177 224 274 332 395
#     4  11  25  42  67  98 137 177 220 273 332 394
#     4  11  26  46  71 100 134 174 222 275 332 393
#     4  12  26  44  68  98 137 177 224 274 332 395
#     4  10  24  42  66  96 140 170 228 270 328 392
#     4  11  26  46  71 100 134 174 222 275 332 393
#
# _framework density 24.208590000000001
#
# number of rings (size 3 to 8) (size 9 to 14) (size 15 to 20)
#    0.000    0.727    1.818    3.818   10.182    5.818 
#    0.000    0.000    0.000    0.000    0.000    0.000 
#    0.000    0.000    0.000    0.000    0.000    0.000 
#
# Total GULP energy -123339.909588 kJ/mol
# GULP energy per Si atom -5606.359527 kJ/mol
# Density = 2.415349 g / cm^3
# Si number density = 24.208590 Si / 1000 Ang^3
#
#
#
# Elastic Constant Matrix: (Units=GPa)
#
#
# Indices 1 2 3 4 5 6 
#
# 1 88.4390 7.8875 14.6846 -0.0007 -1.8011 0.0001
# 2 7.8875 85.4390 0.3996 -0.0028 -4.3013 0.0008
# 3 14.6846 0.3996 72.2321 0.0007 -14.0812 -0.0001
# 4 -0.0007 -0.0028 0.0007 39.3270 -0.0004 6.0654
# 5 -1.8011 -4.3013 -14.0812 -0.0004 28.1961 0.0002
# 6 0.0001 0.0008 -0.0001 6.0654 0.0002 37.9631
#
#
#
# Elastic Compliance Matrix: (Units=1/GPa)
#
#
# Indices 1 2 3 4 5 6 
#
# 1 0.011812 -0.001113 -0.002527 0.000000 -0.000677 0.000000
# 2 -0.001113 0.011906 0.000555 0.000001 0.002022 0.000000
# 3 -0.002527 0.000555 0.015887 0.000000 0.007857 0.000000
# 4 0.000000 0.000001 0.000000 0.026070 0.000000 -0.004165
# 5 -0.000677 0.002022 0.007857 0.000000 0.039655 0.000000
# 6 0.000000 0.000000 0.000000 -0.004165 0.000000 0.027007
#
#
# Mechanical properties :
#
#
# Convention : Reuss Voigt Hill
#
# Bulk Modulus (GPa) = 29.90953 32.45039 31.17996
# Shear Modulus (GPa) = 33.41065 35.97313 34.69189
#
# Velocity S-wave (km/s) = 3.71902 3.85900 3.78966
# Velocity P-wave (km/s) = 5.55187 5.76970 5.66183
#
# Compressibility (1/GPa) = 0.03343416
#
# Stress axis : x y z
#
# Youngs Moduli (GPa) = 84.65745 83.98996 62.94589
#
# Poissons Ratio (x) = 0.09346 0.15908
# Poissons Ratio (y) = 0.09420 -0.03491
# Poissons Ratio (z) = 0.21396 -0.04658
#
# Static dielectric constant tensor:
#      x y z
#    x 1.899200 0.000000 -0.004440 
#    y 0.000000 1.891180 0.000000 
#    z -0.004440 0.000000 1.941640 
# 
# From -- ./inp_files/68645.got.cif
#   From: 2010.05.17/outbox.cif.g08.bks.cpg/sg15_35_cif.got.tgz:68645.got - 2010.06.03 18:47:42.
