data_PCOD9297338
_publ_section_title
;
Structure prediction by ZEFSAII (Michael W. Deem and Ramdas Pophale) SiO2 
 PCOD9297338
Probable space group: C 2/C
;
_chemical_formula_sum "Si O2"
_cell_formula_units_Z 56
_cell_length_a 30.707881
_cell_length_b 19.399108
_cell_length_c 8.970821
_cell_angle_alpha 90.000000
_cell_angle_beta 29.631274
_cell_angle_gamma 90.000000
_cell_volume 2642.145091
_symmetry_space_group_name_H-M "C 2/C"
_symmetry_group_IT_number 15
_symmetry_cell_setting 'monoclinic'
loop_
_space_group_symop_operation_xyz
x,y,z
-x,y,1/2-z
-x,-y,-z
x,-y,1/2+z
1/2+x,1/2+y,z
1/2-x,1/2+y,1/2-z
1/2-x,1/2-y,-z
1/2+x,1/2-y,1/2+z
loop_
_atom_site_type_symbol
_atom_site_label
_atom_site_fract_x
_atom_site_fract_y
_atom_site_fract_z
Si Si1 0.825706 0.241796 0.402452
Si Si2 0.500000 0.677311 0.750000
Si Si3 0.304012 0.130674 0.150575
Si Si4 0.626356 0.974811 0.614861
Si Si5 0.897595 0.977042 0.089396
Si Si6 0.626790 0.589260 0.537646
Si Si7 0.500000 0.982257 0.750000
Si Si8 0.269491 0.626695 0.810948
O O1 0.750000 0.250000 0.500000
O O2 0.851909 0.310963 0.414334
O O3 0.794251 0.186778 0.622227
O O4 0.914343 0.216712 0.059289
O O5 0.538543 0.630877 0.769111
O O6 0.208181 0.131580 0.356345
O O7 0.287893 0.148363 0.371972
O O8 0.344492 0.053781 0.010693
O O9 0.710532 0.930249 0.403329
O O10 0.571891 0.944464 0.637655
O O11 0.559113 0.976306 0.954663
O O12 0.888468 0.967086 0.290932
O O13 0.852393 0.913124 0.138596
O O14 0.000000 0.981866 0.750000
O O15 0.850720 0.047256 0.177849
#
# Coordination Sequence:
#
# PCOD9297338 Si02
#       8
#     8   4   8   8   8   8   4   8
#     4  12  28  47  70  97 139 184 236 288 347 416
#     4  12  26  47  66 100 137 182 236 288 346 421
#     4  11  24  46  69 101 137 184 229 278 348 416
#     4  11  22  44  71 107 137 185 228 296 346 412
#     4  11  22  36  64 106 135 172 209 280 338 403
#     4  11  23  37  67  98 139 169 229 270 343 409
#     4  10  24  39  66 108 147 170 240 294 346 395
#     4  11  25  44  74 100 139 181 224 282 353 411
#
# _framework density 21.194898999999999
#
# number of rings (size 3 to 8) (size 9 to 14) (size 15 to 20)
#    0.000    0.857    5.000    1.714    4.000    0.571 
#    2.571    0.000    1.571    0.000    0.000    0.000 
#    0.000    0.000    0.000    0.000    0.000    0.000 
#
# Total GULP energy -156390.477105 kJ/mol
# GULP energy per Si atom -5585.374182 kJ/mol
# Density = 2.114666 g / cm^3
# Si number density = 21.194899 Si / 1000 Ang^3
#
#
#
# Elastic Constant Matrix: (Units=GPa)
#
#
# Indices 1 2 3 4 5 6 
#
# 1 143.8687 41.8962 51.4331 0.0000 -1.4336 0.0000
# 2 41.8962 74.3178 27.3298 0.0000 9.5778 0.0000
# 3 51.4331 27.3298 86.6641 0.0000 9.5404 0.0000
# 4 0.0000 0.0000 0.0000 27.4800 0.0000 7.7909
# 5 -1.4336 9.5778 9.5404 0.0000 35.1698 0.0000
# 6 0.0000 0.0000 0.0000 7.7909 0.0000 27.3284
#
#
#
# Elastic Compliance Matrix: (Units=1/GPa)
#
#
# Indices 1 2 3 4 5 6 
#
# 1 0.009948 -0.004175 -0.004904 0.000000 0.002873 0.000000
# 2 -0.004175 0.017272 -0.002507 0.000000 -0.004194 0.000000
# 3 -0.004904 -0.002507 0.015654 0.000000 -0.003764 0.000000
# 4 0.000000 0.000000 0.000000 0.039590 0.000000 -0.011287
# 5 0.002873 -0.004194 -0.003764 0.000000 0.030714 0.000000
# 6 0.000000 0.000000 0.000000 -0.011287 0.000000 0.039810
#
#
# Mechanical properties :
#
#
# Convention : Reuss Voigt Hill
#
# Bulk Modulus (GPa) = 50.75616 60.68544 55.72080
# Shear Modulus (GPa) = 27.36322 30.27508 28.81915
#
# Velocity S-wave (km/s) = 3.59699 3.78354 3.69144
# Velocity P-wave (km/s) = 6.42265 6.91239 6.67201
#
# Compressibility (1/GPa) = 0.01970204
#
# Stress axis : x y z
#
# Youngs Moduli (GPa) = 100.51911 57.89728 63.88152
#
# Poissons Ratio (x) = 0.24174 0.31325
# Poissons Ratio (y) = 0.41969 0.16016
# Poissons Ratio (z) = 0.49291 0.14516
#
# Static dielectric constant tensor:
#      x y z
#    x 1.780100 0.000000 0.027080 
#    y 0.000000 1.800530 0.000000 
#    z 0.027080 0.000000 1.775270 
# 
# From -- ./inp_files/50378.got.cif
#   From: 2010.05.17/outbox.cif.g08.bks.cpg/sg15_26_cif.got.tgz:50378.got - 2010.06.03 18:47:42.
