data_PCOD9297116
_publ_section_title
;
Structure prediction by ZEFSAII (Michael W. Deem and Ramdas Pophale) SiO2 
 PCOD9297116
Probable space group: C 2/C
;
_chemical_formula_sum "Si O2"
_cell_formula_units_Z 48
_cell_length_a 10.376109
_cell_length_b 20.607011
_cell_length_c 13.292351
_cell_angle_alpha 90.000000
_cell_angle_beta 44.655280
_cell_angle_gamma 90.000000
_cell_volume 1997.595793
_symmetry_space_group_name_H-M "C 2/C"
_symmetry_group_IT_number 15
_symmetry_cell_setting 'monoclinic'
loop_
_space_group_symop_operation_xyz
x,y,z
-x,y,1/2-z
-x,-y,-z
x,-y,1/2+z
1/2+x,1/2+y,z
1/2-x,1/2+y,1/2-z
1/2-x,1/2-y,-z
1/2+x,1/2-y,1/2+z
loop_
_atom_site_type_symbol
_atom_site_label
_atom_site_fract_x
_atom_site_fract_y
_atom_site_fract_z
Si Si1 0.090239 0.203690 0.893137
Si Si2 0.213672 0.108051 0.412437
Si Si3 0.012537 0.679250 0.916374
Si Si4 0.000000 0.595624 0.750000
Si Si5 0.648247 0.055389 0.953051
Si Si6 0.500000 0.778574 0.750000
Si Si7 0.180612 0.989792 0.329346
O O1 0.297587 0.197084 0.743267
O O2 0.986782 0.233935 0.854468
O O3 0.993648 0.134881 0.966432
O O4 0.073167 0.256518 0.990391
O O5 0.281746 0.066063 0.471553
O O6 0.328637 0.173618 0.339104
O O7 0.248793 0.064478 0.295248
O O8 0.908606 0.639741 0.887424
O O9 0.066164 0.625674 0.969437
O O10 0.158947 0.551927 0.708170
O O11 0.818710 0.037790 0.783893
O O12 0.500000 0.000000 0.000000
O O13 0.000000 0.000000 0.500000
#
# Coordination Sequence:
#
# PCOD9297116 Si02
#       7
#     8   8   8   4   8   4   8
#     4  12  24  41  66 103 136 180 228 288 354 416
#     4  12  22  40  67  96 137 176 230 293 348 415
#     4  11  24  43  65  96 138 178 233 282 347 422
#     4  10  23  48  70  96 142 191 234 294 348 412
#     4  11  23  42  68  97 135 185 229 288 355 413
#     4  12  21  38  62 102 130 177 226 288 354 402
#     4  11  25  44  68 103 137 183 237 287 351 412
#
# _framework density 24.028884999999999
#
# number of rings (size 3 to 8) (size 9 to 14) (size 15 to 20)
#    0.000    0.667    3.333    7.000    0.000    2.667 
#    0.000    0.000    0.000    4.000    0.000    0.000 
#    0.000    0.000    0.000    0.000    0.000    0.000 
#
# Total GULP energy -134225.942548 kJ/mol
# GULP energy per Si atom -5592.747606 kJ/mol
# Density = 2.397419 g / cm^3
# Si number density = 24.028885 Si / 1000 Ang^3
#
#
#
# Elastic Constant Matrix: (Units=GPa)
#
#
# Indices 1 2 3 4 5 6 
#
# 1 50.8259 23.6719 7.2771 0.0000 2.3502 0.0000
# 2 23.6719 133.5063 42.0439 0.0000 6.8775 0.0000
# 3 7.2771 42.0439 100.7517 0.0000 -11.0228 0.0000
# 4 0.0000 0.0000 0.0000 59.4757 0.0000 5.5346
# 5 2.3502 6.8775 -11.0228 0.0000 39.4591 0.0000
# 6 0.0000 0.0000 0.0000 5.5346 0.0000 37.2404
#
#
#
# Elastic Compliance Matrix: (Units=1/GPa)
#
#
# Indices 1 2 3 4 5 6 
#
# 1 0.021461 -0.003756 -0.000053 0.000000 -0.000638 0.000000
# 2 -0.003756 0.009545 -0.003991 0.000000 -0.002555 0.000000
# 3 -0.000053 -0.003991 0.012039 0.000000 0.004062 0.000000
# 4 0.000000 0.000000 0.000000 0.017049 0.000000 -0.002534
# 5 -0.000638 -0.002555 0.004062 0.000000 0.026961 0.000000
# 6 0.000000 0.000000 0.000000 -0.002534 0.000000 0.027229
#
#
# Mechanical properties :
#
#
# Convention : Reuss Voigt Hill
#
# Bulk Modulus (GPa) = 36.43550 47.89663 42.16607
# Shear Modulus (GPa) = 35.96279 41.37443 38.66861
#
# Velocity S-wave (km/s) = 3.87285 4.15403 4.01590
# Velocity P-wave (km/s) = 5.93252 6.55624 6.25216
#
# Compressibility (1/GPa) = 0.02744576
#
# Stress axis : x y z
#
# Youngs Moduli (GPa) = 46.59542 104.76929 83.06227
#
# Poissons Ratio (x) = 0.39350 0.00437
# Poissons Ratio (y) = 0.17500 0.33153
# Poissons Ratio (z) = 0.00245 0.41817
#
# Static dielectric constant tensor:
#      x y z
#    x 2.011870 0.000000 -0.053930 
#    y 0.000000 1.938020 0.000000 
#    z -0.053930 0.000000 2.049250 
# 
# From -- ./inp_files/57749.got.cif
#   From: 2010.05.17/outbox.cif.g08.bks.cpg/sg15_29_cif.got.tgz:57749.got - 2010.06.03 18:47:42.
