data_PCOD9297426
_publ_section_title
;
Structure prediction by ZEFSAII (Michael W. Deem and Ramdas Pophale) SiO2 
 PCOD9297426
Probable space group: C 2/C
;
_chemical_formula_sum "Si O2"
_cell_formula_units_Z 60
_cell_length_a 25.571762
_cell_length_b 12.302981
_cell_length_c 17.979301
_cell_angle_alpha 90.000000
_cell_angle_beta 28.676251
_cell_angle_gamma 90.000000
_cell_volume 2714.302533
_symmetry_space_group_name_H-M "C 2/C"
_symmetry_group_IT_number 15
_symmetry_cell_setting 'monoclinic'
loop_
_space_group_symop_operation_xyz
x,y,z
-x,y,1/2-z
-x,-y,-z
x,-y,1/2+z
1/2+x,1/2+y,z
1/2-x,1/2+y,1/2-z
1/2-x,1/2-y,-z
1/2+x,1/2-y,1/2+z
loop_
_atom_site_type_symbol
_atom_site_label
_atom_site_fract_x
_atom_site_fract_y
_atom_site_fract_z
Si Si1 0.029803 0.115493 0.431571
Si Si2 0.318820 0.240100 0.169096
Si Si3 0.393791 0.568819 0.330501
Si Si4 0.500000 0.200352 0.250000
Si Si5 0.590757 0.244314 0.988073
Si Si6 0.677866 0.021072 0.082104
Si Si7 0.128989 0.708888 0.568877
Si Si8 0.416844 0.928247 0.648665
O O1 0.922749 0.187878 0.558859
O O2 0.075275 0.104488 0.291766
O O3 0.099853 0.169005 0.410134
O O4 0.000000 0.000000 0.500000
O O5 0.212057 0.303023 0.331453
O O6 0.330161 0.130334 0.203717
O O7 0.334569 0.216308 0.062261
O O8 0.500000 0.546783 0.250000
O O9 0.308713 0.469294 0.427535
O O10 0.335200 0.675927 0.439439
O O11 0.449003 0.273275 0.379714
O O12 0.601705 0.118152 0.144476
O O13 0.495704 0.162111 0.085093
O O14 0.635829 0.006263 0.218583
O O15 0.663130 0.909875 0.054910
O O16 0.000000 0.710844 0.750000
O O17 0.500000 0.000000 0.500000
#
# Coordination Sequence:
#
# PCOD9297426 Si02
#       8
#     8   8   8   4   8   8   8   8
#     4  11  25  46  65 101 135 181 236 283 345 415
#     4  11  23  43  68  98 139 181 221 288 352 405
#     4  11  24  41  64 101 140 179 232 283 355 413
#     4  10  24  48  68 104 132 188 240 286 352 422
#     4  10  25  45  68  97 137 178 233 287 341 412
#     4  11  23  40  67  97 135 180 229 282 348 412
#     4  11  20  39  63  98 138 175 225 289 346 413
#     4  10  24  40  66 100 133 176 228 276 338 411
#
# _framework density 22.105127
#
# number of rings (size 3 to 8) (size 9 to 14) (size 15 to 20)
#    0.000    1.333    3.333    2.000    7.467    2.133 
#    3.600    2.000    0.000    0.000    0.000    0.000 
#    0.000    0.000    0.000    0.000    0.000    0.000 
#
# Total GULP energy -167286.720451 kJ/mol
# GULP energy per Si atom -5576.224015 kJ/mol
# Density = 2.205481 g / cm^3
# Si number density = 22.105127 Si / 1000 Ang^3
#
#
#
# Elastic Constant Matrix: (Units=GPa)
#
#
# Indices 1 2 3 4 5 6 
#
# 1 96.5103 17.7421 61.4755 0.0000 21.7995 0.0000
# 2 17.7421 30.1431 -1.5966 0.0000 8.9944 0.0000
# 3 61.4755 -1.5966 131.5278 0.0000 14.3531 0.0000
# 4 0.0000 0.0000 0.0000 20.5746 0.0000 7.5449
# 5 21.7995 8.9944 14.3531 0.0000 45.6340 0.0000
# 6 0.0000 0.0000 0.0000 7.5449 0.0000 -0.5614
#
#
#
# Elastic Compliance Matrix: (Units=1/GPa)
#
#
# Indices 1 2 3 4 5 6 
#
# 1 0.018430 -0.010025 -0.008275 0.000000 -0.004225 0.000000
# 2 -0.010025 0.040894 0.005736 0.000000 -0.005075 0.000000
# 3 -0.008275 0.005736 0.011631 0.000000 -0.000836 0.000000
# 4 0.000000 0.000000 0.000000 0.008198 0.000000 0.110183
# 5 -0.004225 -0.005075 -0.000836 0.000000 0.025195 0.000000
# 6 0.000000 0.000000 0.000000 0.110183 0.000000 -0.300463
#
#
# Mechanical properties :
#
#
# Convention : Reuss Voigt Hill
#
# Bulk Modulus (GPa) = 21.82090 45.93592 33.87841
# Shear Modulus (GPa) = -32.11091 25.16680 -3.47206
#
# Velocity S-wave (km/s) = -3.81549 3.37783 -1.25464
# Velocity P-wave (km/s) = 3.08509 6.00323 3.64150
#
# Compressibility (1/GPa) = 0.04582763
#
# Stress axis : x y z
#
# Youngs Moduli (GPa) = 54.25992 24.45343 85.97465
#
# Poissons Ratio (x) = 0.24515 0.71141
# Poissons Ratio (y) = 0.54396 -0.49315
# Poissons Ratio (z) = 0.44898 -0.14026
#
# Static dielectric constant tensor:
#      x y z
#    x 2.073490 0.000000 0.087920 
#    y 0.000000 1.730810 0.000000 
#    z 0.087920 0.000000 1.867360 
# 
# From -- ./inp_files/222555.got.cif
#   From: 2010.05.17/outbox.cif.g08.bks.cpg/sg15_112_cif.got.tgz:222555.got - 2010.06.03 18:47:42.
