data_PCOD9297945
_publ_section_title
;
Structure prediction by ZEFSAII (Michael W. Deem and Ramdas Pophale) SiO2 
 PCOD9297945
Probable space group: C 2/C
;
_chemical_formula_sum "Si O2"
_cell_formula_units_Z 28
_cell_length_a 15.065657
_cell_length_b 12.789520
_cell_length_c 8.211278
_cell_angle_alpha 90.000000
_cell_angle_beta 128.727010
_cell_angle_gamma 90.000000
_cell_volume 1234.306904
_symmetry_space_group_name_H-M "C 2/C"
_symmetry_group_IT_number 15
_symmetry_cell_setting 'monoclinic'
loop_
_space_group_symop_operation_xyz
x,y,z
-x,y,1/2-z
-x,-y,-z
x,-y,1/2+z
1/2+x,1/2+y,z
1/2-x,1/2+y,1/2-z
1/2-x,1/2-y,-z
1/2+x,1/2-y,1/2+z
loop_
_atom_site_type_symbol
_atom_site_label
_atom_site_fract_x
_atom_site_fract_y
_atom_site_fract_z
Si Si1 0.559015 0.388248 0.578004
Si Si2 0.699452 0.076402 0.048072
Si Si3 0.000000 0.279765 0.250000
Si Si4 0.252176 0.631628 0.452703
O O1 0.500000 0.500000 0.500000
O O2 0.669719 0.387926 0.826073
O O3 0.486500 0.295500 0.575241
O O4 0.620116 0.379201 0.473009
O O5 0.676047 0.102883 0.208933
O O6 0.607610 0.143171 0.845583
O O7 0.711129 0.952479 0.036341
O O8 0.250000 0.750000 0.500000
#
# Coordination Sequence:
#
# PCOD9297945 Si02
#       4
#     8   8   4   8
#     4  10  24  42  73 100 143 187 245 284 360 425
#     4  10  26  45  70 104 146 188 247 289 371 418
#     4  12  24  46  74 104 148 192 238 316 350 426
#     4  10  25  46  72 103 148 185 243 295 361 438
#
# _framework density 22.684797
#
# number of rings (size 3 to 8) (size 9 to 14) (size 15 to 20)
#    1.714    0.000    0.000    2.571    8.000    1.143 
#    0.000    0.000    0.000    0.000    0.000    0.000 
#    0.000    0.000    0.000    0.000    0.000    0.000 
#
# Total GULP energy -77942.470488 kJ/mol
# GULP energy per Si atom -5567.319321 kJ/mol
# Density = 2.263317 g / cm^3
# Si number density = 22.684797 Si / 1000 Ang^3
#
#
#
# Elastic Constant Matrix: (Units=GPa)
#
#
# Indices 1 2 3 4 5 6 
#
# 1 91.7386 96.7538 27.9834 0.0000 7.6209 0.0000
# 2 96.7538 246.7357 49.3156 0.0000 -8.7061 0.0000
# 3 27.9834 49.3156 49.1685 0.0000 6.4187 0.0000
# 4 0.0000 0.0000 0.0000 34.8469 0.0000 -5.4467
# 5 7.6209 -8.7061 6.4187 0.0000 34.5313 0.0000
# 6 0.0000 0.0000 0.0000 -5.4467 0.0000 41.9834
#
#
#
# Elastic Compliance Matrix: (Units=1/GPa)
#
#
# Indices 1 2 3 4 5 6 
#
# 1 0.020295 -0.007509 -0.003267 0.000000 -0.005765 0.000000
# 2 -0.007509 0.008029 -0.004365 0.000000 0.004493 0.000000
# 3 -0.003267 -0.004365 0.027288 0.000000 -0.005452 0.000000
# 4 0.000000 0.000000 0.000000 0.029291 0.000000 0.003800
# 5 -0.005765 0.004493 -0.005452 0.000000 0.032378 0.000000
# 6 0.000000 0.000000 0.000000 0.003800 0.000000 0.024312
#
#
# Mechanical properties :
#
#
# Convention : Reuss Voigt Hill
#
# Bulk Modulus (GPa) = 39.47999 81.74983 60.61491
# Shear Modulus (GPa) = 27.72884 36.51167 32.12026
#
# Velocity S-wave (km/s) = 3.50001 4.01624 3.76698
# Velocity P-wave (km/s) = 5.81162 7.59094 6.76008
#
# Compressibility (1/GPa) = 0.02532929
#
# Stress axis : x y z
#
# Youngs Moduli (GPa) = 49.27203 124.55531 36.64666
#
# Poissons Ratio (x) = 0.93530 0.11971
# Poissons Ratio (y) = 0.36999 0.15998
# Poissons Ratio (z) = 0.16095 0.54374
#
# Static dielectric constant tensor:
#      x y z
#    x 2.020240 0.000000 -0.027180 
#    y 0.000000 1.824800 0.000000 
#    z -0.027180 0.000000 1.987680 
# 
# From -- ./inp_files/37284.got.cif
#   From: 2010.05.17/outbox.cif.g08.bks.cpg/sg15_19_cif.got.tgz:37284.got - 2010.06.03 18:47:42.
