data_PCOD9297757
_publ_section_title
;
Structure prediction by ZEFSAII (Michael W. Deem and Ramdas Pophale) SiO2 
 PCOD9297757
Probable space group: C 2/C
;
_chemical_formula_sum "Si O2"
_cell_formula_units_Z 44
_cell_length_a 7.709471
_cell_length_b 24.387587
_cell_length_c 12.932091
_cell_angle_alpha 90.000000
_cell_angle_beta 67.607907
_cell_angle_gamma 90.000000
_cell_volume 2248.098836
_symmetry_space_group_name_H-M "C 2/C"
_symmetry_group_IT_number 15
_symmetry_cell_setting 'monoclinic'
loop_
_space_group_symop_operation_xyz
x,y,z
-x,y,1/2-z
-x,-y,-z
x,-y,1/2+z
1/2+x,1/2+y,z
1/2-x,1/2+y,1/2-z
1/2-x,1/2-y,-z
1/2+x,1/2-y,1/2+z
loop_
_atom_site_type_symbol
_atom_site_label
_atom_site_fract_x
_atom_site_fract_y
_atom_site_fract_z
Si Si1 0.381235 0.612111 0.010367
Si Si2 0.779939 0.435718 0.144696
Si Si3 0.180401 0.050783 0.272390
Si Si4 0.260521 0.685879 0.519516
Si Si5 0.500000 0.858315 0.250000
Si Si6 0.475445 0.111342 0.077869
O O1 0.386018 0.587462 0.892422
O O2 0.368453 0.562271 0.096828
O O3 0.542282 0.655037 0.002378
O O4 0.173214 0.638707 0.062971
O O5 0.724936 0.490466 0.217575
O O6 0.862843 0.394829 0.210662
O O7 0.950451 0.435557 0.020361
O O8 0.359939 0.085302 0.196375
O O9 0.000000 0.070956 0.250000
O O10 0.250000 0.750000 0.500000
O O11 0.131122 0.676764 0.647881
O O12 0.159842 0.652436 0.450779
#
# Coordination Sequence:
#
# PCOD9297757 Si02
#       6
#     8   8   8   8   4   8
#     4  10  24  42  66  94 141 171 234 266 332 408
#     4   9  24  39  63  94 139 182 221 259 333 409
#     4  12  22  37  67  99 141 184 212 274 343 389
#     4  11  24  46  72  95 129 171 228 292 334 390
#     4  10  24  46  66  96 140 170 226 276 334 406
#     4   9  22  44  59 101 135 172 229 271 326 408
#
# _framework density 19.572094
#
# number of rings (size 3 to 8) (size 9 to 14) (size 15 to 20)
#    1.091    0.727    1.818    1.091    5.091    4.364 
#    0.000    0.000    0.000    0.000    0.000    0.000 
#    0.000    0.000    0.000    0.000    0.000    0.000 
#
# Total GULP energy -122494.759202 kJ/mol
# GULP energy per Si atom -5567.943600 kJ/mol
# Density = 1.952755 g / cm^3
# Si number density = 19.572094 Si / 1000 Ang^3
#
#
#
# Elastic Constant Matrix: (Units=GPa)
#
#
# Indices 1 2 3 4 5 6 
#
# 1 172.3315 90.0423 57.4684 0.0000 5.9374 0.0000
# 2 90.0423 111.8325 62.6480 0.0000 -4.2525 0.0000
# 3 57.4684 62.6480 100.2792 0.0000 9.7861 0.0000
# 4 0.0000 0.0000 0.0000 8.0908 0.0000 -1.3646
# 5 5.9374 -4.2525 9.7861 0.0000 39.7212 0.0000
# 6 0.0000 0.0000 0.0000 -1.3646 0.0000 0.5696
#
#
#
# Elastic Compliance Matrix: (Units=1/GPa)
#
#
# Indices 1 2 3 4 5 6 
#
# 1 0.010273 -0.007968 -0.000694 0.000000 -0.002218 0.000000
# 2 -0.007968 0.020481 -0.008770 0.000000 0.005544 0.000000
# 3 -0.000694 -0.008770 0.016323 0.000000 -0.004857 0.000000
# 4 0.000000 0.000000 0.000000 0.207422 0.000000 0.496978
# 5 -0.002218 0.005544 -0.004857 0.000000 0.027297 0.000000
# 6 0.000000 0.000000 0.000000 0.496978 0.000000 2.946506
#
#
# Mechanical properties :
#
#
# Convention : Reuss Voigt Hill
#
# Bulk Modulus (GPa) = 81.86976 89.41785 85.64380
# Shear Modulus (GPa) = 1.53035 21.29528 11.41281
#
# Velocity S-wave (km/s) = 0.88521 3.30213 2.41740
# Velocity P-wave (km/s) = 6.55480 7.76687 7.18644
#
# Compressibility (1/GPa) = 0.01221452
#
# Stress axis : x y z
#
# Youngs Moduli (GPa) = 97.33845 48.82614 61.26493
#
# Poissons Ratio (x) = 0.38902 0.04249
# Poissons Ratio (y) = 0.77555 0.53730
# Poissons Ratio (z) = 0.06750 0.42821
#
# Static dielectric constant tensor:
#      x y z
#    x 1.816360 0.000000 -0.016170 
#    y 0.000000 1.678660 0.000000 
#    z -0.016170 0.000000 1.752830 
# 
# From -- ./inp_files/79705.got.cif
#   From: 2010.05.17/outbox.cif.g08.bks.cpg/sg15_40_cif.got.tgz:79705.got - 2010.06.03 18:47:42.
