data_PCOD9297562
_publ_section_title
;
Structure prediction by ZEFSAII (Michael W. Deem and Ramdas Pophale) SiO2 
 PCOD9297562
Probable space group: C 2/C
;
_chemical_formula_sum "Si O2"
_cell_formula_units_Z 48
_cell_length_a 20.742411
_cell_length_b 9.625742
_cell_length_c 16.971673
_cell_angle_alpha 90.000000
_cell_angle_beta 136.665119
_cell_angle_gamma 90.000000
_cell_volume 2325.453219
_symmetry_space_group_name_H-M "C 2/C"
_symmetry_group_IT_number 15
_symmetry_cell_setting 'monoclinic'
loop_
_space_group_symop_operation_xyz
x,y,z
-x,y,1/2-z
-x,-y,-z
x,-y,1/2+z
1/2+x,1/2+y,z
1/2-x,1/2+y,1/2-z
1/2-x,1/2-y,-z
1/2+x,1/2-y,1/2+z
loop_
_atom_site_type_symbol
_atom_site_label
_atom_site_fract_x
_atom_site_fract_y
_atom_site_fract_z
Si Si1 0.290735 0.331186 0.610100
Si Si2 0.386581 0.720633 0.468598
Si Si3 0.624526 0.025007 0.053227
Si Si4 0.054014 0.827319 0.003953
Si Si5 0.924923 0.013475 0.627928
Si Si6 0.271262 0.149052 0.739479
O O1 0.250000 0.250000 0.500000
O O2 0.212202 0.430425 0.577699
O O3 0.371087 0.423186 0.644381
O O4 0.312033 0.219439 0.697099
O O5 0.417127 0.879579 0.514304
O O6 0.470037 0.651561 0.491136
O O7 0.368254 0.626875 0.527673
O O8 0.296526 0.744736 0.332981
O O9 0.559567 0.159896 0.997280
O O10 0.670194 0.983821 0.178537
O O11 0.159416 0.868087 0.128137
O O12 0.039939 0.906255 0.908740
O O13 0.000000 0.089264 0.750000
#
# Coordination Sequence:
#
# PCOD9297562 Si02
#       6
#     8   8   8   8   8   8
#     4  11  21  41  64  95 132 165 218 271 330 385
#     4  10  24  41  64  97 130 173 224 263 319 395
#     4   9  22  41  67  92 123 170 230 258 320 387
#     4  11  21  42  69  94 130 175 218 270 319 399
#     4  12  26  39  63  98 139 170 211 273 340 382
#     4   9  22  38  69  93 125 172 224 261 322 382
#
# _framework density 20.641138000000002
#
# number of rings (size 3 to 8) (size 9 to 14) (size 15 to 20)
#    1.000    0.667    3.333    2.000    7.000    0.667 
#    0.000    2.500    0.000    0.000    0.000    0.000 
#    0.000    0.000    0.000    0.000    0.000    0.000 
#
# Total GULP energy -133708.026187 kJ/mol
# GULP energy per Si atom -5571.167758 kJ/mol
# Density = 2.059416 g / cm^3
# Si number density = 20.641138 Si / 1000 Ang^3
#
#
#
# Elastic Constant Matrix: (Units=GPa)
#
#
# Indices 1 2 3 4 5 6 
#
# 1 68.9254 8.9878 14.7405 0.0000 -17.1996 0.0000
# 2 8.9878 85.5986 28.7232 0.0000 -15.9763 0.0000
# 3 14.7405 28.7232 125.6375 0.0000 -17.1645 0.0000
# 4 0.0000 0.0000 0.0000 40.5079 0.0000 -7.4706
# 5 -17.1996 -15.9763 -17.1645 0.0000 24.0002 0.0000
# 6 0.0000 0.0000 0.0000 -7.4706 0.0000 29.4883
#
#
#
# Elastic Compliance Matrix: (Units=1/GPa)
#
#
# Indices 1 2 3 4 5 6 
#
# 1 0.017719 0.000694 -0.000487 0.000000 0.012812 0.000000
# 2 0.000694 0.013854 -0.002129 0.000000 0.008197 0.000000
# 3 -0.000487 -0.002129 0.009157 0.000000 0.004782 0.000000
# 4 0.000000 0.000000 0.000000 0.025897 0.000000 0.006561
# 5 0.012812 0.008197 0.004782 0.000000 0.059725 0.000000
# 6 0.000000 0.000000 0.000000 0.006561 0.000000 0.035574
#
#
# Mechanical properties :
#
#
# Convention : Reuss Voigt Hill
#
# Bulk Modulus (GPa) = 27.11053 42.78495 34.94774
# Shear Modulus (GPa) = 28.07978 33.97993 31.02986
#
# Velocity S-wave (km/s) = 3.69233 4.06177 3.88145
# Velocity P-wave (km/s) = 5.59826 6.53990 6.08731
#
# Compressibility (1/GPa) = 0.03688604
#
# Stress axis : x y z
#
# Youngs Moduli (GPa) = 56.43584 72.18236 109.21053
#
# Poissons Ratio (x) = -0.05011 0.05321
# Poissons Ratio (y) = -0.03918 0.23249
# Poissons Ratio (z) = 0.02750 0.15366
#
# Static dielectric constant tensor:
#      x y z
#    x 1.766880 0.000000 0.034200 
#    y 0.000000 1.924270 0.000000 
#    z 0.034200 0.000000 1.705010 
# 
# From -- ./inp_files/221545.got.cif
#   From: 2010.05.17/outbox.cif.g08.bks.cpg/sg15_111_cif.got.tgz:221545.got - 2010.06.03 18:47:42.
