data_PCOD9297956
_publ_section_title
;
Structure prediction by ZEFSAII (Michael W. Deem and Ramdas Pophale) SiO2 
 PCOD9297956
Probable space group: C 2/C
;
_chemical_formula_sum "Si O2"
_cell_formula_units_Z 36
_cell_length_a 18.243152
_cell_length_b 4.812970
_cell_length_c 19.411808
_cell_angle_alpha 90.000000
_cell_angle_beta 133.083325
_cell_angle_gamma 90.000000
_cell_volume 1244.848938
_symmetry_space_group_name_H-M "C 2/C"
_symmetry_group_IT_number 15
_symmetry_cell_setting 'monoclinic'
loop_
_space_group_symop_operation_xyz
x,y,z
-x,y,1/2-z
-x,-y,-z
x,-y,1/2+z
1/2+x,1/2+y,z
1/2-x,1/2+y,1/2-z
1/2-x,1/2-y,-z
1/2+x,1/2-y,1/2+z
loop_
_atom_site_type_symbol
_atom_site_label
_atom_site_fract_x
_atom_site_fract_y
_atom_site_fract_z
Si Si1 0.047411 0.549047 0.705876
Si Si2 0.750000 0.250000 0.500000
Si Si3 0.797480 0.835042 0.609988
Si Si4 0.322844 0.303112 0.303698
Si Si5 0.082462 0.650473 0.005468
O O1 0.153911 0.081483 0.902351
O O2 0.092227 0.280233 0.696393
O O3 0.000000 0.507247 0.750000
O O4 0.975542 0.690303 0.602853
O O5 0.727604 0.958422 0.440896
O O6 0.736348 0.987937 0.727037
O O7 0.687736 0.996971 0.548213
O O8 0.860444 0.749561 0.715644
O O9 0.372510 0.372555 0.410432
O O10 0.000000 0.500000 0.000000
#
# Coordination Sequence:
#
# PCOD9297956 Si02
#       5
#     8   4   8   8   8
#     4  11  24  47  79 119 155 204 272 329 399 477
#     4  10  24  42  74 104 152 208 242 322 412 452
#     4  11  23  48  72 106 160 203 257 329 397 467
#     4  11  25  51  77 107 158 217 259 330 405 475
#     4  10  24  49  79 114 156 213 269 323 406 490
#
# _framework density 28.919172
#
# number of rings (size 3 to 8) (size 9 to 14) (size 15 to 20)
#    0.000    1.333    2.222    2.667    3.111    0.000 
#    0.000   44.444    0.000    0.000    0.000    0.000 
#    0.000    0.000    0.000    0.000    0.000    0.000 
#
# Total GULP energy -100207.353452 kJ/mol
# GULP energy per Si atom -5567.075192 kJ/mol
# Density = 2.885335 g / cm^3
# Si number density = 28.919172 Si / 1000 Ang^3
#
#
#
# Elastic Constant Matrix: (Units=GPa)
#
#
# Indices 1 2 3 4 5 6 
#
# 1 182.2283 21.4241 56.0168 0.0001 -20.8107 -0.0005
# 2 21.4241 168.0032 68.8592 -0.0008 0.2473 0.0021
# 3 56.0168 68.8592 283.5331 0.0004 -7.8875 -0.0002
# 4 0.0001 -0.0008 0.0004 20.9367 -0.0001 -6.1114
# 5 -20.8107 0.2473 -7.8875 -0.0001 61.3924 0.0000
# 6 -0.0005 0.0021 -0.0002 -6.1114 0.0000 24.5365
#
#
#
# Elastic Compliance Matrix: (Units=1/GPa)
#
#
# Indices 1 2 3 4 5 6 
#
# 1 0.006074 -0.000341 -0.001064 0.000000 0.001924 0.000000
# 2 -0.000341 0.006633 -0.001553 0.000000 -0.000342 -0.000001
# 3 -0.001064 -0.001553 0.004119 0.000000 0.000175 0.000000
# 4 0.000000 0.000000 0.000000 0.051508 0.000000 0.012829
# 5 0.001924 -0.000342 0.000175 0.000000 0.016965 0.000000
# 6 0.000000 -0.000001 0.000000 0.012829 0.000000 0.043951
#
#
# Mechanical properties :
#
#
# Convention : Reuss Voigt Hill
#
# Bulk Modulus (GPa) = 91.65719 102.92942 97.29330
# Shear Modulus (GPa) = 36.02238 53.87075 44.94657
#
# Velocity S-wave (km/s) = 3.53317 4.32070 3.94663
# Velocity P-wave (km/s) = 6.95754 7.78207 7.38133
#
# Compressibility (1/GPa) = 0.01091022
#
# Stress axis : x y z
#
# Youngs Moduli (GPa) = 164.62420 150.76579 242.77311
#
# Poissons Ratio (x) = 0.05149 0.25823
# Poissons Ratio (y) = 0.05622 0.37700
# Poissons Ratio (z) = 0.17510 0.23412
#
# Static dielectric constant tensor:
#      x y z
#    x 2.129330 -0.000010 0.078020 
#    y -0.000010 1.941220 0.000010 
#    z 0.078020 0.000010 2.240280 
# 
# From -- ./inp_files/172629.got.cif
#   From: 2010.05.17/outbox.cif.g08.bks.cpg/sg15_87_cif.got.tgz:172629.got - 2010.06.03 18:47:42.
