data_PCOD9297243
_publ_section_title
;
Structure prediction by ZEFSAII (Michael W. Deem and Ramdas Pophale) SiO2 
 PCOD9297243
Probable space group: C 2/C
;
_chemical_formula_sum "Si O2"
_cell_formula_units_Z 60
_cell_length_a 20.671721
_cell_length_b 14.502410
_cell_length_c 15.439468
_cell_angle_alpha 90.000000
_cell_angle_beta 38.708063
_cell_angle_gamma 90.000000
_cell_volume 2894.503105
_symmetry_space_group_name_H-M "C 2/C"
_symmetry_group_IT_number 15
_symmetry_cell_setting 'monoclinic'
loop_
_space_group_symop_operation_xyz
x,y,z
-x,y,1/2-z
-x,-y,-z
x,-y,1/2+z
1/2+x,1/2+y,z
1/2-x,1/2+y,1/2-z
1/2-x,1/2-y,-z
1/2+x,1/2-y,1/2+z
loop_
_atom_site_type_symbol
_atom_site_label
_atom_site_fract_x
_atom_site_fract_y
_atom_site_fract_z
Si Si1 0.962768 0.342943 0.035220
Si Si2 0.286170 0.837385 0.516201
Si Si3 0.388195 0.429779 0.901074
Si Si4 0.500000 0.930191 0.250000
Si Si5 0.220535 0.104392 0.488845
Si Si6 0.721977 0.197902 0.894797
Si Si7 0.906710 0.489475 0.695019
Si Si8 0.365335 0.283102 0.078847
O O1 0.890035 0.317490 0.031400
O O2 0.892518 0.410109 0.167747
O O3 0.055555 0.411509 0.909828
O O4 0.019575 0.257553 0.021944
O O5 0.250000 0.750000 0.500000
O O6 0.197463 0.909452 0.584153
O O7 0.396993 0.870361 0.365113
O O8 0.303686 0.799998 0.594554
O O9 0.500000 0.402217 0.750000
O O10 0.378757 0.539796 0.922830
O O11 0.367648 0.368724 0.008917
O O12 0.501983 0.993340 0.332129
O O13 0.248048 0.127439 0.559725
O O14 0.218036 0.201529 0.442472
O O15 0.310730 0.045493 0.349299
O O16 0.806916 0.194942 0.729222
#
# Coordination Sequence:
#
# PCOD9297243 Si02
#       8
#     8   8   8   4   8   8   8   8
#     4  11  24  40  68 105 132 174 223 296 350 400
#     4  10  24  37  66  98 137 180 219 283 344 419
#     4  11  26  45  70 100 144 186 230 278 353 433
#     4  12  20  38  68  96 128 180 222 282 348 394
#     4  11  24  50  66  99 136 188 233 283 342 422
#     4  11  26  44  71  94 140 181 235 287 344 415
#     4  11  22  40  68 101 133 165 235 286 339 408
#     4  11  24  44  67 105 136 179 229 291 347 407
#
# _framework density 20.728947000000002
#
# number of rings (size 3 to 8) (size 9 to 14) (size 15 to 20)
#    0.000    1.067    4.000    1.600    7.467    1.067 
#    2.400    1.333    0.000    0.000    0.000    0.000 
#    0.000    0.000    0.000    0.000    0.000    0.000 
#
# Total GULP energy -167469.187295 kJ/mol
# GULP energy per Si atom -5582.306243 kJ/mol
# Density = 2.068177 g / cm^3
# Si number density = 20.728947 Si / 1000 Ang^3
#
#
#
# Elastic Constant Matrix: (Units=GPa)
#
#
# Indices 1 2 3 4 5 6 
#
# 1 114.5493 34.0063 34.3836 0.0000 8.7596 0.0000
# 2 34.0063 65.6183 19.4357 0.0000 5.0892 0.0000
# 3 34.3836 19.4357 100.1183 0.0000 6.8104 0.0000
# 4 0.0000 0.0000 0.0000 21.7943 0.0000 1.9601
# 5 8.7596 5.0892 6.8104 0.0000 38.0876 0.0000
# 6 0.0000 0.0000 0.0000 1.9601 0.0000 38.2483
#
#
#
# Elastic Compliance Matrix: (Units=1/GPa)
#
#
# Indices 1 2 3 4 5 6 
#
# 1 0.011104 -0.004821 -0.002781 0.000000 -0.001412 0.000000
# 2 -0.004821 0.018362 -0.001840 0.000000 -0.001016 0.000000
# 3 -0.002781 -0.001840 0.011379 0.000000 -0.001149 0.000000
# 4 0.000000 0.000000 0.000000 0.046096 0.000000 -0.002362
# 5 -0.001412 -0.001016 -0.001149 0.000000 0.026921 0.000000
# 6 0.000000 0.000000 0.000000 -0.002362 0.000000 0.026266
#
#
# Mechanical properties :
#
#
# Convention : Reuss Voigt Hill
#
# Bulk Modulus (GPa) = 45.53756 50.65967 48.09862
# Shear Modulus (GPa) = 30.06027 32.45675 31.25851
#
# Velocity S-wave (km/s) = 3.81223 3.96127 3.88746
# Velocity P-wave (km/s) = 6.43376 6.73902 6.58816
#
# Compressibility (1/GPa) = 0.02195989
#
# Stress axis : x y z
#
# Youngs Moduli (GPa) = 90.05746 54.46061 87.88336
#
# Poissons Ratio (x) = 0.26257 0.24444
# Poissons Ratio (y) = 0.43419 0.16168
# Poissons Ratio (z) = 0.25049 0.10019
#
# Static dielectric constant tensor:
#      x y z
#    x 1.777150 0.000000 0.006160 
#    y 0.000000 1.800540 0.000000 
#    z 0.006160 0.000000 1.766800 
# 
# From -- ./inp_files/168602.got.cif
#   From: 2010.05.17/outbox.cif.g08.bks.cpg/sg15_85_cif.got.tgz:168602.got - 2010.06.03 18:47:42.
