data_PCOD9297411
_publ_section_title
;
Structure prediction by ZEFSAII (Michael W. Deem and Ramdas Pophale) SiO2 
 PCOD9297411
Probable space group: C 2/C
;
_chemical_formula_sum "Si O2"
_cell_formula_units_Z 44
_cell_length_a 19.037582
_cell_length_b 10.652524
_cell_length_c 13.233367
_cell_angle_alpha 90.000000
_cell_angle_beta 47.300333
_cell_angle_gamma 90.000000
_cell_volume 1972.304051
_symmetry_space_group_name_H-M "C 2/C"
_symmetry_group_IT_number 15
_symmetry_cell_setting 'monoclinic'
loop_
_space_group_symop_operation_xyz
x,y,z
-x,y,1/2-z
-x,-y,-z
x,-y,1/2+z
1/2+x,1/2+y,z
1/2-x,1/2+y,1/2-z
1/2-x,1/2-y,-z
1/2+x,1/2-y,1/2+z
loop_
_atom_site_type_symbol
_atom_site_label
_atom_site_fract_x
_atom_site_fract_y
_atom_site_fract_z
Si Si1 0.415137 0.457089 0.005995
Si Si2 0.343004 0.724678 0.045768
Si Si3 0.715368 0.326521 0.668684
Si Si4 0.405715 0.216920 0.888048
Si Si5 0.335571 0.389747 0.284708
Si Si6 0.000000 0.236544 0.750000
O O1 0.366211 0.577521 0.001477
O O2 0.341893 0.395617 0.156851
O O3 0.500000 0.500000 0.000000
O O4 0.442328 0.348646 0.901380
O O5 0.330187 0.713815 0.179605
O O6 0.246453 0.792206 0.107073
O O7 0.427725 0.797435 0.903050
O O8 0.665348 0.236832 0.636540
O O9 0.831048 0.333718 0.545114
O O10 0.683833 0.466828 0.670423
O O11 0.500000 0.151193 0.750000
O O12 0.431674 0.342242 0.242543
#
# Coordination Sequence:
#
# PCOD9297411 Si02
#       6
#     8   8   8   8   8   4
#     4  11  21  39  71  94 124 166 216 263 309 382
#     4  11  23  40  62  98 127 164 213 266 322 377
#     4  10  24  40  64  94 129 168 209 268 320 377
#     4  11  22  40  67  96 127 165 216 263 318 382
#     4  11  23  42  63  94 130 164 213 264 322 383
#     4  12  24  38  68  92 124 172 212 266 316 392
#
# _framework density 22.308933
#
# number of rings (size 3 to 8) (size 9 to 14) (size 15 to 20)
#    0.000    1.091    3.636    3.818    2.545    0.000 
#    1.636    0.000    0.000    6.545    0.000    0.000 
#    0.000    0.000    0.000    0.000    0.000    0.000 
#
# Total GULP energy -122507.497353 kJ/mol
# GULP energy per Si atom -5568.522607 kJ/mol
# Density = 2.225816 g / cm^3
# Si number density = 22.308933 Si / 1000 Ang^3
#
#
#
# Elastic Constant Matrix: (Units=GPa)
#
#
# Indices 1 2 3 4 5 6 
#
# 1 29.0905 0.0602 33.3824 0.0000 -15.6053 0.0000
# 2 0.0602 6.0636 3.9474 0.0000 -12.6193 0.0000
# 3 33.3824 3.9474 175.9574 0.0000 -9.8421 0.0000
# 4 0.0000 0.0000 0.0000 22.2202 0.0000 -0.9269
# 5 -15.6053 -12.6193 -9.8421 0.0000 52.3147 0.0000
# 6 0.0000 0.0000 0.0000 -0.9269 0.0000 17.4021
#
#
#
# Elastic Compliance Matrix: (Units=1/GPa)
#
#
# Indices 1 2 3 4 5 6 
#
# 1 0.072241 0.095651 -0.013497 0.000000 0.042083 0.000000
# 2 0.095651 0.459388 -0.020878 0.000000 0.135418 0.000000
# 3 -0.013497 -0.020878 0.008293 0.000000 -0.007502 0.000000
# 4 0.000000 0.000000 0.000000 0.045104 0.000000 0.002402
# 5 0.042083 0.135418 -0.007502 0.000000 0.062922 0.000000
# 6 0.000000 0.000000 0.000000 0.002402 0.000000 0.057592
#
#
# Mechanical properties :
#
#
# Convention : Reuss Voigt Hill
#
# Bulk Modulus (GPa) = 1.50950 31.76571 16.63761
# Shear Modulus (GPa) = 6.22035 29.96883 18.09459
#
# Velocity S-wave (km/s) = 1.67162 3.66916 2.85106
# Velocity P-wave (km/s) = 2.09854 5.67629 4.27926
#
# Compressibility (1/GPa) = 0.66247197
#
# Stress axis : x y z
#
# Youngs Moduli (GPa) = 13.84251 2.17681 120.58893
#
# Poissons Ratio (x) = -0.20821 1.62764
# Poissons Ratio (y) = -1.32405 2.51765
# Poissons Ratio (z) = 0.18684 0.04545
#
# Static dielectric constant tensor:
#      x y z
#    x 1.811380 0.000000 -0.004380 
#    y 0.000000 1.838560 0.000000 
#    z -0.004380 0.000000 1.990280 
# 
# From -- ./inp_files/167513.got.cif
#   From: 2010.05.17/outbox.cif.g08.bks.cpg/sg15_84_cif.got.tgz:167513.got - 2010.06.03 18:47:42.
