data_PCOD9297491
_publ_section_title
;
Structure prediction by ZEFSAII (Michael W. Deem and Ramdas Pophale) SiO2 
 PCOD9297491
Probable space group: C 2/C
;
_chemical_formula_sum "Si O2"
_cell_formula_units_Z 52
_cell_length_a 13.111971
_cell_length_b 29.091780
_cell_length_c 8.599472
_cell_angle_alpha 90.000000
_cell_angle_beta 130.278443
_cell_angle_gamma 90.000000
_cell_volume 2502.558818
_symmetry_space_group_name_H-M "C 2/C"
_symmetry_group_IT_number 15
_symmetry_cell_setting 'monoclinic'
loop_
_space_group_symop_operation_xyz
x,y,z
-x,y,1/2-z
-x,-y,-z
x,-y,1/2+z
1/2+x,1/2+y,z
1/2-x,1/2+y,1/2-z
1/2-x,1/2-y,-z
1/2+x,1/2-y,1/2+z
loop_
_atom_site_type_symbol
_atom_site_label
_atom_site_fract_x
_atom_site_fract_y
_atom_site_fract_z
Si Si1 0.194138 0.700177 0.617726
Si Si2 0.557130 0.659121 0.470936
Si Si3 0.500000 0.516239 0.750000
Si Si4 0.300493 0.690025 0.381003
Si Si5 0.550760 0.147688 0.979566
Si Si6 0.649135 0.557020 0.609082
Si Si7 0.534627 0.950757 0.103492
O O1 0.241204 0.682743 0.494666
O O2 0.181452 0.755064 0.610543
O O3 0.056028 0.676833 0.528465
O O4 0.309966 0.685666 0.850245
O O5 0.500000 0.675506 0.250000
O O6 0.442703 0.667234 0.486453
O O7 0.594074 0.605654 0.497544
O O8 0.586564 0.545875 0.715352
O O9 0.401813 0.483320 0.554657
O O10 0.194749 0.669870 0.152613
O O11 0.500000 0.148621 0.750000
O O12 0.545810 0.094547 0.030503
O O13 0.808890 0.558746 0.768504
O O14 0.500000 0.954299 0.250000
O O15 0.500000 0.000000 0.000000
#
# Coordination Sequence:
#
# PCOD9297491 Si02
#       7
#     8   8   4   8   8   8   8
#     4  11  24  47  65  98 138 174 230 278 339 415
#     4  12  25  41  70  99 137 175 227 284 340 408
#     4  10  24  40  70  94 136 174 220 282 338 408
#     4  11  26  42  70  98 133 182 222 280 343 408
#     4  11  24  42  68 100 136 173 221 280 336 406
#     4  11  23  44  65 101 133 176 224 280 342 409
#     4  11  25  43  68  94 134 175 224 281 334 404
#
# _framework density 20.778732000000002
#
# number of rings (size 3 to 8) (size 9 to 14) (size 15 to 20)
#    0.000    0.923    2.308    3.692    4.308    9.846 
#    0.000    0.000    0.000    0.000    0.000    0.000 
#    0.000    0.000    0.000    0.000    0.000    0.000 
#
# Total GULP energy -145492.516764 kJ/mol
# GULP energy per Si atom -5595.866029 kJ/mol
# Density = 2.073144 g / cm^3
# Si number density = 20.778732 Si / 1000 Ang^3
#
#
#
# Elastic Constant Matrix: (Units=GPa)
#
#
# Indices 1 2 3 4 5 6 
#
# 1 71.8693 10.8798 -4.5815 0.0000 9.1284 0.0000
# 2 10.8798 65.3905 4.3455 0.0000 2.0968 0.0000
# 3 -4.5815 4.3455 47.4508 0.0000 -0.9651 0.0000
# 4 0.0000 0.0000 0.0000 -42.9431 0.0000 -45.4610
# 5 9.1284 2.0968 -0.9651 0.0000 34.4265 0.0000
# 6 0.0000 0.0000 0.0000 -45.4610 0.0000 171.0074
#
#
#
# Elastic Compliance Matrix: (Units=1/GPa)
#
#
# Indices 1 2 3 4 5 6 
#
# 1 0.014863 -0.002458 0.001584 0.000000 -0.003747 0.000000
# 2 -0.002458 0.015826 -0.001694 0.000000 -0.000360 0.000000
# 3 0.001584 -0.001694 0.021388 0.000000 0.000283 0.000000
# 4 0.000000 0.000000 0.000000 -0.018172 0.000000 -0.004831
# 5 -0.003747 -0.000360 0.000283 0.000000 0.030071 0.000000
# 6 0.000000 0.000000 0.000000 -0.004831 0.000000 0.004563
#
#
# Mechanical properties :
#
#
# Convention : Reuss Voigt Hill
#
# Bulk Modulus (GPa) = 21.30326 22.88867 22.09596
# Shear Modulus (GPa) = 55.97713 44.10262 50.03988
#
# Velocity S-wave (km/s) = 5.19597 4.61205 4.91269
# Velocity P-wave (km/s) = 6.80237 6.27699 6.54495
#
# Compressibility (1/GPa) = 0.04694118
#
# Stress axis : x y z
#
# Youngs Moduli (GPa) = 67.28048 63.18783 46.75454
#
# Poissons Ratio (x) = 0.15532 -0.07406
# Poissons Ratio (y) = 0.16538 0.07920
# Poissons Ratio (z) = -0.10657 0.10704
#
# Static dielectric constant tensor:
#      x y z
#    x 1.726890 0.000000 -0.015970 
#    y 0.000000 1.748130 0.000000 
#    z -0.015970 0.000000 1.742940 
# 
# From -- ./inp_files/34416.got.cif
#   From: 2010.05.17/outbox.cif.g08.bks.cpg/sg15_18_cif.got.tgz:34416.got - 2010.06.03 18:47:42.
