data_PCOD9297162
_publ_section_title
;
Structure prediction by ZEFSAII (Michael W. Deem and Ramdas Pophale) SiO2 
 PCOD9297162
Probable space group: C 2/C
;
_chemical_formula_sum "Si O2"
_cell_formula_units_Z 36
_cell_length_a 9.399931
_cell_length_b 7.178434
_cell_length_c 21.541257
_cell_angle_alpha 90.000000
_cell_angle_beta 91.082405
_cell_angle_gamma 90.000000
_cell_volume 1453.275384
_symmetry_space_group_name_H-M "C 2/C"
_symmetry_group_IT_number 15
_symmetry_cell_setting 'monoclinic'
loop_
_space_group_symop_operation_xyz
x,y,z
-x,y,1/2-z
-x,-y,-z
x,-y,1/2+z
1/2+x,1/2+y,z
1/2-x,1/2+y,1/2-z
1/2-x,1/2-y,-z
1/2+x,1/2-y,1/2+z
loop_
_atom_site_type_symbol
_atom_site_label
_atom_site_fract_x
_atom_site_fract_y
_atom_site_fract_z
Si Si1 0.560863 0.747480 0.348703
Si Si2 0.868272 0.027714 0.543389
Si Si3 0.123162 0.537710 0.452400
Si Si4 0.301632 0.153368 0.781213
Si Si5 0.500000 0.191005 0.250000
O O1 0.617360 0.585510 0.393443
O O2 0.645435 0.770954 0.285435
O O3 0.590879 0.931167 0.389388
O O4 0.392073 0.727496 0.332307
O O5 0.851559 0.244780 0.558358
O O6 0.749845 0.961788 0.494817
O O7 0.871355 0.180329 0.719009
O O8 0.000000 0.000000 0.500000
O O9 0.000000 0.500000 0.500000
O O10 0.392265 0.956131 0.784765
#
# Coordination Sequence:
#
# PCOD9297162 Si02
#       5
#     8   8   8   8   4
#     4  10  23  49  73 114 155 204 265 328 396 482
#     4  11  24  43  73 105 150 205 254 322 393 469
#     4  11  24  45  68 110 149 200 261 317 396 468
#     4  10  26  52  78 116 155 207 258 337 401 480
#     4  10  24  54  78 110 162 204 270 314 410 480
#
# _framework density 24.771629999999998
#
# number of rings (size 3 to 8) (size 9 to 14) (size 15 to 20)
#    0.000    1.778    2.222    0.667    0.000    9.778 
#   16.000    0.000    0.000    0.000    0.000    0.000 
#    0.000    0.000    0.000    0.000    0.000    0.000 
#
# Total GULP energy -100442.395918 kJ/mol
# GULP energy per Si atom -5580.133107 kJ/mol
# Density = 2.471525 g / cm^3
# Si number density = 24.771630 Si / 1000 Ang^3
#
#
#
# Elastic Constant Matrix: (Units=GPa)
#
#
# Indices 1 2 3 4 5 6 
#
# 1 269.3690 30.6020 63.7267 0.0000 21.1431 0.0000
# 2 30.6020 118.7021 43.8754 0.0000 29.3445 0.0000
# 3 63.7267 43.8754 124.5118 0.0000 42.0808 0.0000
# 4 0.0000 0.0000 0.0000 17.0519 0.0000 7.0261
# 5 21.1431 29.3445 42.0808 0.0000 46.6763 0.0000
# 6 0.0000 0.0000 0.0000 7.0261 0.0000 36.4261
#
#
#
# Elastic Compliance Matrix: (Units=1/GPa)
#
#
# Indices 1 2 3 4 5 6 
#
# 1 0.004237 -0.000364 -0.002112 0.000000 0.000214 0.000000
# 2 -0.000364 0.010367 -0.001898 0.000000 -0.004642 0.000000
# 3 -0.002112 -0.001898 0.013023 0.000000 -0.009590 0.000000
# 4 0.000000 0.000000 0.000000 0.063708 0.000000 -0.012288
# 5 0.000214 -0.004642 -0.009590 0.000000 0.032891 0.000000
# 6 0.000000 0.000000 0.000000 -0.012288 0.000000 0.029823
#
#
# Mechanical properties :
#
#
# Convention : Reuss Voigt Hill
#
# Bulk Modulus (GPa) = 52.97517 87.66567 70.32042
# Shear Modulus (GPa) = 29.56993 44.98946 37.27969
#
# Velocity S-wave (km/s) = 3.45875 4.26628 3.88356
# Velocity P-wave (km/s) = 6.11412 7.72881 6.96839
#
# Compressibility (1/GPa) = 0.01887677
#
# Stress axis : x y z
#
# Youngs Moduli (GPa) = 236.03218 96.45602 76.78973
#
# Poissons Ratio (x) = 0.03515 0.16222
# Poissons Ratio (y) = 0.08602 0.14575
# Poissons Ratio (z) = 0.49861 0.18308
#
# Static dielectric constant tensor:
#      x y z
#    x 1.939060 0.000000 0.003990 
#    y 0.000000 2.100130 0.000000 
#    z 0.003990 0.000000 1.889030 
# 
# From -- ./inp_files/262320.got.cif
#   From: 2010.05.17/outbox.cif.g08.bks.cpg/sg15_132_cif.got.tgz:262320.got - 2010.06.03 18:47:42.
