data_PCOD9297257
_publ_section_title
;
Structure prediction by ZEFSAII (Michael W. Deem and Ramdas Pophale) SiO2 
 PCOD9297257
Probable space group: C 2/C
;
_chemical_formula_sum "Si O2"
_cell_formula_units_Z 52
_cell_length_a 25.048545
_cell_length_b 12.333120
_cell_length_c 13.028807
_cell_angle_alpha 90.000000
_cell_angle_beta 44.855816
_cell_angle_gamma 90.000000
_cell_volume 2838.895873
_symmetry_space_group_name_H-M "C 2/C"
_symmetry_group_IT_number 15
_symmetry_cell_setting 'monoclinic'
loop_
_space_group_symop_operation_xyz
x,y,z
-x,y,1/2-z
-x,-y,-z
x,-y,1/2+z
1/2+x,1/2+y,z
1/2-x,1/2+y,1/2-z
1/2-x,1/2-y,-z
1/2+x,1/2-y,1/2+z
loop_
_atom_site_type_symbol
_atom_site_label
_atom_site_fract_x
_atom_site_fract_y
_atom_site_fract_z
Si Si1 0.168967 0.774782 0.784554
Si Si2 0.478772 0.262439 0.390831
Si Si3 0.810176 0.450813 0.366341
Si Si4 0.143754 0.891608 0.607364
Si Si5 0.163986 0.665540 0.459990
Si Si6 0.064947 0.407089 0.907964
Si Si7 0.500000 0.470928 0.250000
O O1 0.176203 0.656878 0.721275
O O2 0.140581 0.853494 0.730813
O O3 0.251854 0.818911 0.702598
O O4 0.108652 0.761406 0.956950
O O5 0.500000 0.213960 0.250000
O O6 0.526908 0.197056 0.407588
O O7 0.498197 0.388691 0.348880
O O8 0.719626 0.462548 0.488149
O O9 0.830759 0.420031 0.454688
O O10 0.864099 0.544500 0.251847
O O11 0.149102 0.780859 0.534694
O O12 0.072776 0.956480 0.664361
O O13 0.100050 0.628413 0.468652
O O14 0.000000 0.500000 0.000000
#
# Coordination Sequence:
#
# PCOD9297257 Si02
#       7
#     8   8   8   8   8   8   4
#     4   9  18  43  63  84 123 156 204 252 293 356
#     4  10  25  41  53  89 131 152 190 258 301 356
#     4   9  20  39  64  91 118 154 207 253 304 350
#     4   9  20  41  64  90 117 161 210 245 291 364
#     4   9  22  38  65  91 116 159 209 257 286 365
#     4  12  24  37  63  92 123 161 202 244 316 355
#     4  10  24  38  60  84 128 158 188 252 300 352
#
# _framework density 18.316980000000001
#
# number of rings (size 3 to 8) (size 9 to 14) (size 15 to 20)
#    0.462    1.846    1.538    1.846    6.462    0.615 
#    0.000    4.615    0.000    0.000    0.000    0.000 
#    0.000    0.000    0.000    0.000    0.000    0.000 
#
# Total GULP energy -144877.322483 kJ/mol
# GULP energy per Si atom -5572.204711 kJ/mol
# Density = 1.827529 g / cm^3
# Si number density = 18.316980 Si / 1000 Ang^3
#
#
#
# Elastic Constant Matrix: (Units=GPa)
#
#
# Indices 1 2 3 4 5 6 
#
# 1 141.7126 41.5928 42.0327 0.0000 -9.1636 0.0000
# 2 41.5928 41.0243 7.2256 0.0000 -10.1889 0.0000
# 3 42.0327 7.2256 97.4412 0.0000 -7.9017 0.0000
# 4 0.0000 0.0000 0.0000 -22.3478 0.0000 0.4878
# 5 -9.1636 -10.1889 -7.9017 0.0000 17.7026 0.0000
# 6 0.0000 0.0000 0.0000 0.4878 0.0000 20.5827
#
#
#
# Elastic Compliance Matrix: (Units=1/GPa)
#
#
# Indices 1 2 3 4 5 6 
#
# 1 0.011594 -0.011645 -0.004352 0.000000 -0.002643 0.000000
# 2 -0.011645 0.040199 0.003558 0.000000 0.018698 0.000000
# 3 -0.004352 0.003558 0.012305 0.000000 0.005288 0.000000
# 4 0.000000 0.000000 0.000000 -0.044724 0.000000 0.001060
# 5 -0.002643 0.018698 0.005288 0.000000 0.068243 0.000000
# 6 0.000000 0.000000 0.000000 0.001060 0.000000 0.048559
#
#
# Mechanical properties :
#
#
# Convention : Reuss Voigt Hill
#
# Bulk Modulus (GPa) = 25.49653 51.32005 38.40829
# Shear Modulus (GPa) = 28.71467 15.80928 22.26198
#
# Velocity S-wave (km/s) = 3.96366 2.94103 3.49000
# Velocity P-wave (km/s) = 5.90739 6.29376 6.10364
#
# Compressibility (1/GPa) = 0.03922103
#
# Stress axis : x y z
#
# Youngs Moduli (GPa) = 86.24943 24.87623 81.26848
#
# Poissons Ratio (x) = 0.28968 0.35370
# Poissons Ratio (y) = 1.00436 -0.28919
# Poissons Ratio (z) = 0.37538 -0.08852
#
# Static dielectric constant tensor:
#      x y z
#    x 1.737500 0.000000 -0.073310 
#    y 0.000000 1.617630 0.000000 
#    z -0.073310 0.000000 1.706030 
# 
# From -- ./inp_files/117955.got.cif
#   From: 2010.05.17/outbox.cif.g08.bks.cpg/sg15_59_cif.got.tgz:117955.got - 2010.06.03 18:47:42.
