data_PCOD9297703
_publ_section_title
;
Structure prediction by ZEFSAII (Michael W. Deem and Ramdas Pophale) SiO2 
 PCOD9297703
Probable space group: C 2/C
;
_chemical_formula_sum "Si O2"
_cell_formula_units_Z 36
_cell_length_a 5.109810
_cell_length_b 19.775861
_cell_length_c 16.995160
_cell_angle_alpha 90.000000
_cell_angle_beta 105.933660
_cell_angle_gamma 90.000000
_cell_volume 1651.394835
_symmetry_space_group_name_H-M "C 2/C"
_symmetry_group_IT_number 15
_symmetry_cell_setting 'monoclinic'
loop_
_space_group_symop_operation_xyz
x,y,z
-x,y,1/2-z
-x,-y,-z
x,-y,1/2+z
1/2+x,1/2+y,z
1/2-x,1/2+y,1/2-z
1/2-x,1/2-y,-z
1/2+x,1/2-y,1/2+z
loop_
_atom_site_type_symbol
_atom_site_label
_atom_site_fract_x
_atom_site_fract_y
_atom_site_fract_z
Si Si1 0.782678 0.965525 0.662793
Si Si2 0.205695 0.137548 0.698929
Si Si3 0.602652 0.564149 0.957130
Si Si4 0.750327 0.382837 0.625447
Si Si5 0.500000 0.768222 0.750000
O O1 0.494901 0.935367 0.664709
O O2 0.000000 0.979106 0.750000
O O3 0.955686 0.908928 0.629058
O O4 0.731000 0.027611 0.599038
O O5 0.500000 0.115359 0.750000
O O6 0.171807 0.218629 0.706644
O O7 0.000000 0.114990 0.750000
O O8 0.123054 0.106257 0.609216
O O9 0.500000 0.500000 0.000000
O O10 0.746139 0.614497 0.030096
O O11 0.821078 0.315370 0.678558
#
# Coordination Sequence:
#
# PCOD9297703 Si02
#       5
#     8   8   8   8   4
#     4  11  21  38  65  95 128 166 210 262 324 377
#     4  10  25  44  68  93 130 173 212 263 319 380
#     4  10  24  42  65 100 130 161 213 272 327 376
#     4  11  23  39  66  95 125 169 212 265 311 378
#     4  10  24  44  66  88 132 174 226 246 318 380
#
# _framework density 21.799754
#
# number of rings (size 3 to 8) (size 9 to 14) (size 15 to 20)
#    0.667    0.889    2.222    1.333    3.111   11.556 
#    0.000    1.111    0.000    0.000    0.000    0.000 
#    0.000    0.000    0.000    0.000    0.000    0.000 
#
# Total GULP energy -100340.931017 kJ/mol
# GULP energy per Si atom -5574.496168 kJ/mol
# Density = 2.175014 g / cm^3
# Si number density = 21.799754 Si / 1000 Ang^3
#
#
#
# Elastic Constant Matrix: (Units=GPa)
#
#
# Indices 1 2 3 4 5 6 
#
# 1 72.5284 8.2897 27.4831 0.0000 12.4609 0.0000
# 2 8.2897 103.3510 65.4122 0.0000 2.5175 0.0000
# 3 27.4831 65.4122 200.0714 0.0000 11.4512 0.0000
# 4 0.0000 0.0000 0.0000 45.3923 0.0000 -14.2262
# 5 12.4609 2.5175 11.4512 0.0000 29.1403 0.0000
# 6 0.0000 0.0000 0.0000 -14.2262 0.0000 44.1330
#
#
#
# Elastic Compliance Matrix: (Units=1/GPa)
#
#
# Indices 1 2 3 4 5 6 
#
# 1 0.015482 0.000043 -0.001802 0.000000 -0.005916 0.000000
# 2 0.000043 0.012208 -0.004026 0.000000 0.000509 0.000000
# 3 -0.001802 -0.004026 0.006648 0.000000 -0.001494 0.000000
# 4 0.000000 0.000000 0.000000 0.024506 0.000000 0.007899
# 5 -0.005916 0.000509 -0.001494 0.000000 0.037390 0.000000
# 6 0.000000 0.000000 0.000000 0.007899 0.000000 0.025205
#
#
# Mechanical properties :
#
#
# Convention : Reuss Voigt Hill
#
# Bulk Modulus (GPa) = 43.92383 64.25786 54.09085
# Shear Modulus (GPa) = 35.56212 42.05084 38.80648
#
# Velocity S-wave (km/s) = 4.04333 4.39676 4.22374
# Velocity P-wave (km/s) = 6.48001 7.43745 6.97518
#
# Compressibility (1/GPa) = 0.02276668
#
# Stress axis : x y z
#
# Youngs Moduli (GPa) = 64.59076 81.91131 150.42791
#
# Poissons Ratio (x) = -0.00351 0.27109
# Poissons Ratio (y) = -0.00277 0.60569
# Poissons Ratio (z) = 0.11640 0.32981
#
# Static dielectric constant tensor:
#      x y z
#    x 1.798530 0.000000 -0.012080 
#    y 0.000000 1.856330 0.000000 
#    z -0.012080 0.000000 1.821310 
# 
# From -- ./inp_files/128893.got.cif
#   From: 2010.05.17/outbox.cif.g08.bks.cpg/sg15_65_cif.got.tgz:128893.got - 2010.06.03 18:47:42.
