data_PCOD9297720
_publ_section_title
;
Structure prediction by ZEFSAII (Michael W. Deem and Ramdas Pophale) SiO2 
 PCOD9297720
Probable space group: C 2/C
;
_chemical_formula_sum "Si O2"
_cell_formula_units_Z 40
_cell_length_a 15.442451
_cell_length_b 10.078997
_cell_length_c 28.057470
_cell_angle_alpha 90.000000
_cell_angle_beta 28.468326
_cell_angle_gamma 90.000000
_cell_volume 2081.624946
_symmetry_space_group_name_H-M "C 2/C"
_symmetry_group_IT_number 15
_symmetry_cell_setting 'monoclinic'
loop_
_space_group_symop_operation_xyz
x,y,z
-x,y,1/2-z
-x,-y,-z
x,-y,1/2+z
1/2+x,1/2+y,z
1/2-x,1/2+y,1/2-z
1/2-x,1/2-y,-z
1/2+x,1/2-y,1/2+z
loop_
_atom_site_type_symbol
_atom_site_label
_atom_site_fract_x
_atom_site_fract_y
_atom_site_fract_z
Si Si1 0.707326 0.590389 0.754598
Si Si2 0.537656 0.975233 0.036299
Si Si3 0.065756 0.324000 0.600063
Si Si4 0.519426 0.930377 0.297292
Si Si5 0.447952 0.622810 0.331362
O O1 0.580724 0.718271 0.812183
O O2 0.591095 0.465069 0.791955
O O3 0.884512 0.613568 0.635716
O O4 0.784166 0.565523 0.770900
O O5 0.507314 0.112475 0.078564
O O6 0.744468 0.927222 0.940838
O O7 0.500000 0.000000 0.000000
O O8 0.250000 0.250000 0.500000
O O9 0.085231 0.449422 0.625948
O O10 0.500000 0.949575 0.250000
O O11 0.455062 0.779907 0.338200
O O12 0.500000 0.605130 0.250000
#
# Coordination Sequence:
#
# PCOD9297720 Si02
#       5
#     8   8   8   8   8
#     4  11  23  43  68  94 136 173 217 274 330 398
#     4  11  23  41  71 100 129 177 224 268 333 396
#     4  11  24  43  64  96 131 171 222 272 327 390
#     4  10  24  42  65  95 132 169 216 276 330 386
#     4  11  22  43  71  98 131 174 222 272 330 402
#
# _framework density 19.215757
#
# number of rings (size 3 to 8) (size 9 to 14) (size 15 to 20)
#    0.000    1.200    4.000    2.400    2.800    5.600 
#    7.200    1.000    0.000    0.000    0.000    0.000 
#    0.000    0.000    0.000    0.000    0.000    0.000 
#
# Total GULP energy -111569.511009 kJ/mol
# GULP energy per Si atom -5578.475550 kJ/mol
# Density = 1.917202 g / cm^3
# Si number density = 19.215757 Si / 1000 Ang^3
#
#
#
# Elastic Constant Matrix: (Units=GPa)
#
#
# Indices 1 2 3 4 5 6 
#
# 1 140.1674 51.0723 41.3380 0.0000 3.7660 0.0000
# 2 51.0723 131.2733 58.3562 -0.0003 1.0048 -0.0001
# 3 41.3380 58.3562 153.9032 0.0004 -14.5615 -0.0004
# 4 0.0000 -0.0003 0.0004 27.6179 -0.0003 -4.1298
# 5 3.7660 1.0048 -14.5615 -0.0003 31.2581 0.0000
# 6 0.0000 -0.0001 -0.0004 -4.1298 0.0000 23.6663
#
#
#
# Elastic Compliance Matrix: (Units=1/GPa)
#
#
# Indices 1 2 3 4 5 6 
#
# 1 0.008581 -0.002686 -0.001439 0.000000 -0.001618 0.000000
# 2 -0.002686 0.010124 -0.003261 0.000000 -0.001521 0.000000
# 3 -0.001439 -0.003261 0.008523 0.000000 0.004249 0.000000
# 4 0.000000 0.000000 0.000000 0.037178 0.000000 0.006488
# 5 -0.001618 -0.001521 0.004249 0.000000 0.034215 0.000000
# 6 0.000000 0.000000 0.000000 0.006488 0.000000 0.043386
#
#
# Mechanical properties :
#
#
# Convention : Reuss Voigt Hill
#
# Bulk Modulus (GPa) = 80.29363 80.76411 80.52887
# Shear Modulus (GPa) = 31.06888 34.81362 32.94125
#
# Velocity S-wave (km/s) = 4.02536 4.26105 4.14488
# Velocity P-wave (km/s) = 7.96748 8.14433 8.05639
#
# Compressibility (1/GPa) = 0.01245429
#
# Stress axis : x y z
#
# Youngs Moduli (GPa) = 116.53547 98.77345 117.33290
#
# Poissons Ratio (x) = 0.26533 0.16889
# Poissons Ratio (y) = 0.31304 0.38265
# Poissons Ratio (z) = 0.16774 0.32212
#
# Static dielectric constant tensor:
#      x y z
#    x 1.688550 0.000000 -0.010870 
#    y 0.000000 1.484330 0.000000 
#    z -0.010870 0.000000 1.892090 
# 
# From -- ./inp_files/150785.got.cif
#   From: 2010.05.17/outbox.cif.g08.bks.cpg/sg15_76_cif.got.tgz:150785.got - 2010.06.03 18:47:42.
