data_PCOD9297886
_publ_section_title
;
Structure prediction by ZEFSAII (Michael W. Deem and Ramdas Pophale) SiO2 
 PCOD9297886
Probable space group: C 2/C
;
_chemical_formula_sum "Si O2"
_cell_formula_units_Z 36
_cell_length_a 19.165482
_cell_length_b 19.309070
_cell_length_c 8.280516
_cell_angle_alpha 90.000000
_cell_angle_beta 147.627745
_cell_angle_gamma 90.000000
_cell_volume 1640.708275
_symmetry_space_group_name_H-M "C 2/C"
_symmetry_group_IT_number 15
_symmetry_cell_setting 'monoclinic'
loop_
_space_group_symop_operation_xyz
x,y,z
-x,y,1/2-z
-x,-y,-z
x,-y,1/2+z
1/2+x,1/2+y,z
1/2-x,1/2+y,1/2-z
1/2-x,1/2-y,-z
1/2+x,1/2-y,1/2+z
loop_
_atom_site_type_symbol
_atom_site_label
_atom_site_fract_x
_atom_site_fract_y
_atom_site_fract_z
Si Si1 0.530585 0.423708 0.619956
Si Si2 0.379821 0.287997 0.308264
Si Si3 0.837135 0.578725 0.627144
Si Si4 0.500000 0.965989 0.750000
Si Si5 0.628775 0.228183 0.863714
O O1 0.500000 0.422650 0.750000
O O2 0.500000 0.500000 0.500000
O O3 0.430964 0.364150 0.357760
O O4 0.683927 0.415868 0.874427
O O5 0.502044 0.239436 0.507743
O O6 0.371526 0.279905 0.485951
O O7 0.250000 0.250000 0.000000
O O8 0.890824 0.514079 0.626802
O O9 0.864197 0.648155 0.577676
O O10 0.922669 0.575536 0.959432
O O11 0.750000 0.250000 0.000000
#
# Coordination Sequence:
#
# PCOD9297886 Si02
#       5
#     8   8   8   4   8
#     4  12  25  45  71 104 147 185 236 302 365 439
#     4  11  25  44  69 100 138 182 235 288 358 422
#     4  11  23  44  70 101 144 186 241 296 363 433
#     4  10  24  42  70 106 138 194 238 298 364 446
#     4  11  22  44  68  93 135 180 230 293 346 419
#
# _framework density 21.941742999999999
#
# number of rings (size 3 to 8) (size 9 to 14) (size 15 to 20)
#    0.000    0.889    4.444    2.667    0.000   11.556 
#    0.000    0.000    0.000    0.000    0.000    0.000 
#    0.000    0.000    0.000    0.000    0.000    0.000 
#
# Total GULP energy -100331.914075 kJ/mol
# GULP energy per Si atom -5573.995226 kJ/mol
# Density = 2.189180 g / cm^3
# Si number density = 21.941743 Si / 1000 Ang^3
#
#
#
# Elastic Constant Matrix: (Units=GPa)
#
#
# Indices 1 2 3 4 5 6 
#
# 1 104.6928 30.2421 45.2711 0.0000 36.1953 0.0000
# 2 30.2421 148.5752 52.7275 0.0000 21.7344 0.0000
# 3 45.2711 52.7275 138.6754 0.0000 44.9824 0.0000
# 4 0.0000 0.0000 0.0000 28.6877 0.0000 6.9080
# 5 36.1953 21.7344 44.9824 0.0000 47.4129 0.0000
# 6 0.0000 0.0000 0.0000 6.9080 0.0000 37.1178
#
#
#
# Elastic Compliance Matrix: (Units=1/GPa)
#
#
# Indices 1 2 3 4 5 6 
#
# 1 0.013327 -0.001042 -0.001169 0.000000 -0.008587 0.000000
# 2 -0.001042 0.007902 -0.002524 0.000000 -0.000432 0.000000
# 3 -0.001169 -0.002524 0.011394 0.000000 -0.008760 0.000000
# 4 0.000000 0.000000 0.000000 0.036494 0.000000 -0.006792
# 5 -0.008587 -0.000432 -0.008760 0.000000 0.036156 0.000000
# 6 0.000000 0.000000 0.000000 -0.006792 0.000000 0.028205
#
#
# Mechanical properties :
#
#
# Convention : Reuss Voigt Hill
#
# Bulk Modulus (GPa) = 43.19085 72.04721 57.61903
# Shear Modulus (GPa) = 33.18608 40.22385 36.70496
#
# Velocity S-wave (km/s) = 3.89326 4.28625 4.09447
# Velocity P-wave (km/s) = 6.31957 7.57647 6.97638
#
# Compressibility (1/GPa) = 0.02315305
#
# Stress axis : x y z
#
# Youngs Moduli (GPa) = 75.03525 126.55624 87.76458
#
# Poissons Ratio (x) = 0.13182 0.10261
# Poissons Ratio (y) = 0.07816 0.22153
# Poissons Ratio (z) = 0.08773 0.31944
#
# Static dielectric constant tensor:
#      x y z
#    x 1.781760 0.000000 0.015070 
#    y 0.000000 1.842160 0.000000 
#    z 0.015070 0.000000 1.962260 
# 
# From -- ./inp_files/57112.got.cif
#   From: 2010.05.17/outbox.cif.g08.bks.cpg/sg15_29_cif.got.tgz:57112.got - 2010.06.03 18:47:42.
