data_PCOD9297601
_publ_section_title
;
Structure prediction by ZEFSAII (Michael W. Deem and Ramdas Pophale) SiO2 
 PCOD9297601
Probable space group: C 2/C
;
_chemical_formula_sum "Si O2"
_cell_formula_units_Z 56
_cell_length_a 14.029760
_cell_length_b 20.679351
_cell_length_c 13.204333
_cell_angle_alpha 90.000000
_cell_angle_beta 43.078030
_cell_angle_gamma 90.000000
_cell_volume 2616.497597
_symmetry_space_group_name_H-M "C 2/C"
_symmetry_group_IT_number 15
_symmetry_cell_setting 'monoclinic'
loop_
_space_group_symop_operation_xyz
x,y,z
-x,y,1/2-z
-x,-y,-z
x,-y,1/2+z
1/2+x,1/2+y,z
1/2-x,1/2+y,1/2-z
1/2-x,1/2-y,-z
1/2+x,1/2-y,1/2+z
loop_
_atom_site_type_symbol
_atom_site_label
_atom_site_fract_x
_atom_site_fract_y
_atom_site_fract_z
Si Si1 0.272192 0.131613 0.220310
Si Si2 0.000000 0.089701 0.750000
Si Si3 0.500000 0.811129 0.250000
Si Si4 0.635930 0.492153 0.325365
Si Si5 0.932293 0.325688 0.011263
Si Si6 0.246370 0.673592 0.031830
Si Si7 0.510172 0.710310 0.415677
Si Si8 0.252682 0.871850 0.329777
O O1 0.280609 0.154982 0.331184
O O2 0.157533 0.181173 0.265164
O O3 0.208491 0.060955 0.254304
O O4 0.430080 0.136530 0.059951
O O5 0.082989 0.044709 0.765740
O O6 0.113406 0.135683 0.608230
O O7 0.463934 0.763267 0.370310
O O8 0.368356 0.854407 0.322235
O O9 0.500000 0.500000 0.500000
O O10 0.738830 0.445497 0.307803
O O11 0.971599 0.250084 0.993565
O O12 0.805384 0.335269 0.187825
O O13 0.879334 0.348539 0.944201
O O14 0.250000 0.750000 0.000000
O O15 0.396574 0.655276 0.520266
#
# Coordination Sequence:
#
# PCOD9297601 Si02
#       8
#     8   4   4   8   8   8   8   8
#     4  12  26  44  69 102 137 183 234 282 343 423
#     4  12  26  49  74 103 136 194 236 288 356 418
#     4  10  24  41  68 105 134 176 228 288 350 394
#     4  12  25  50  70  97 139 186 242 280 333 432
#     4  11  24  41  66 105 138 171 225 293 357 395
#     4  12  25  40  71 106 142 178 228 294 363 414
#     4  11  22  43  70  99 138 177 229 285 343 417
#     4  11  23  46  68  97 140 183 223 283 339 411
#
# _framework density 21.402656
#
# number of rings (size 3 to 8) (size 9 to 14) (size 15 to 20)
#    0.000    0.571    5.714    2.571    2.000    2.286 
#    7.714    0.000    0.000    0.000    0.000    0.000 
#    0.000    0.000    0.000    0.000    0.000    0.000 
#
# Total GULP energy -156515.037137 kJ/mol
# GULP energy per Si atom -5589.822755 kJ/mol
# Density = 2.135394 g / cm^3
# Si number density = 21.402656 Si / 1000 Ang^3
#
#
#
# Elastic Constant Matrix: (Units=GPa)
#
#
# Indices 1 2 3 4 5 6 
#
# 1 111.1103 41.0542 7.4028 -0.0017 -2.0586 0.0002
# 2 41.0542 121.4506 2.1173 -0.0014 -7.1540 0.0003
# 3 7.4028 2.1173 51.7428 -0.0030 -8.4102 0.0006
# 4 -0.0017 -0.0014 -0.0030 28.9365 0.0016 -9.7127
# 5 -2.0586 -7.1540 -8.4102 0.0016 36.1472 -0.0001
# 6 0.0002 0.0003 0.0006 -9.7127 -0.0001 32.6223
#
#
#
# Elastic Compliance Matrix: (Units=1/GPa)
#
#
# Indices 1 2 3 4 5 6 
#
# 1 0.010383 -0.003511 -0.001412 0.000000 -0.000432 0.000000
# 2 -0.003511 0.009518 0.000402 0.000000 0.001777 0.000000
# 3 -0.001412 0.000402 0.020279 0.000002 0.004717 0.000000
# 4 0.000000 0.000000 0.000002 0.038396 -0.000001 0.011432
# 5 -0.000432 0.001777 0.004717 -0.000001 0.029089 0.000000
# 6 0.000000 0.000000 0.000000 0.011432 0.000000 0.034057
#
#
# Mechanical properties :
#
#
# Convention : Reuss Voigt Hill
#
# Bulk Modulus (GPa) = 32.11514 42.82802 37.47158
# Shear Modulus (GPa) = 31.02811 35.12315 33.07563
#
# Velocity S-wave (km/s) = 3.81167 4.05540 3.93542
# Velocity P-wave (km/s) = 5.86596 6.47938 6.18029
#
# Compressibility (1/GPa) = 0.03113796
#
# Stress axis : x y z
#
# Youngs Moduli (GPa) = 96.30826 105.06158 49.31282
#
# Poissons Ratio (x) = 0.36884 0.06963
# Poissons Ratio (y) = 0.33811 -0.01981
# Poissons Ratio (z) = 0.13600 -0.04220
#
# Static dielectric constant tensor:
#      x y z
#    x 1.842490 0.000000 0.012930 
#    y 0.000000 1.770450 0.000000 
#    z 0.012930 0.000000 1.786600 
# 
# From -- ./inp_files/156194.got.cif
#   From: 2010.05.17/outbox.cif.g08.bks.cpg/sg15_79_cif.got.tgz:156194.got - 2010.06.03 18:47:42.
