data_PCOD9297966
_publ_section_title
;
Structure prediction by ZEFSAII (Michael W. Deem and Ramdas Pophale) SiO2 
 PCOD9297966
Probable space group: C 2/C
;
_chemical_formula_sum "Si O2"
_cell_formula_units_Z 28
_cell_length_a 17.358311
_cell_length_b 8.262432
_cell_length_c 10.626602
_cell_angle_alpha 90.000000
_cell_angle_beta 50.660820
_cell_angle_gamma 90.000000
_cell_volume 1178.739472
_symmetry_space_group_name_H-M "C 2/C"
_symmetry_group_IT_number 15
_symmetry_cell_setting 'monoclinic'
loop_
_space_group_symop_operation_xyz
x,y,z
-x,y,1/2-z
-x,-y,-z
x,-y,1/2+z
1/2+x,1/2+y,z
1/2-x,1/2+y,1/2-z
1/2-x,1/2-y,-z
1/2+x,1/2-y,1/2+z
loop_
_atom_site_type_symbol
_atom_site_label
_atom_site_fract_x
_atom_site_fract_y
_atom_site_fract_z
Si Si1 0.228972 0.678458 0.382655
Si Si2 0.450217 0.042696 0.422885
Si Si3 0.111187 0.006001 0.943944
Si Si4 0.500000 0.635009 0.750000
O O1 0.250000 0.750000 0.500000
O O2 0.162348 0.516137 0.463356
O O3 0.320834 0.623946 0.199870
O O4 0.164032 0.818962 0.381245
O O5 0.500000 0.958000 0.250000
O O6 0.479714 0.229418 0.376601
O O7 0.500000 0.000000 0.500000
O O8 0.092409 0.976342 0.114329
O O9 0.000000 0.000000 0.000000
#
# Coordination Sequence:
#
# PCOD9297966 Si02
#       4
#     8   8   8   4
#     4  12  29  45  77 109 153 200 254 309 391 447
#     4  10  25  46  78 107 152 199 256 312 378 447
#     4  12  27  48  72 112 154 196 256 314 379 455
#     4  10  24  42  74  98 150 184 250 300 370 432
#
# _framework density 23.754189
#
# number of rings (size 3 to 8) (size 9 to 14) (size 15 to 20)
#    0.857    0.000    0.000    5.143   14.000    0.000 
#    0.000    7.143    0.000    0.000    0.000    0.000 
#    0.000    0.000    0.000    0.000    0.000    0.000 
#
# Total GULP energy -77955.165369 kJ/mol
# GULP energy per Si atom -5568.226098 kJ/mol
# Density = 2.370012 g / cm^3
# Si number density = 23.754189 Si / 1000 Ang^3
#
#
#
# Elastic Constant Matrix: (Units=GPa)
#
#
# Indices 1 2 3 4 5 6 
#
# 1 108.2713 44.2525 60.1494 0.0000 -16.9862 0.0000
# 2 44.2525 127.5681 69.1271 0.0000 -10.0651 0.0000
# 3 60.1494 69.1271 241.6842 0.0000 -21.7585 0.0000
# 4 0.0000 0.0000 0.0000 60.2722 0.0000 -6.3528
# 5 -16.9862 -10.0651 -21.7585 0.0000 26.6534 0.0000
# 6 0.0000 0.0000 0.0000 -6.3528 0.0000 40.7474
#
#
#
# Elastic Compliance Matrix: (Units=1/GPa)
#
#
# Indices 1 2 3 4 5 6 
#
# 1 0.012205 -0.002875 -0.001741 0.000000 0.005272 0.000000
# 2 -0.002875 0.010006 -0.002128 0.000000 0.000210 0.000000
# 3 -0.001741 -0.002128 0.005404 0.000000 0.002499 0.000000
# 4 0.000000 0.000000 0.000000 0.016869 0.000000 0.002630
# 5 0.005272 0.000210 0.002499 0.000000 0.042997 0.000000
# 6 0.000000 0.000000 0.000000 0.002630 0.000000 0.024951
#
#
# Mechanical properties :
#
#
# Convention : Reuss Voigt Hill
#
# Bulk Modulus (GPa) = 70.77541 91.62017 81.19779
# Shear Modulus (GPa) = 38.27660 45.80091 42.03876
#
# Velocity S-wave (km/s) = 4.01853 4.39580 4.21139
# Velocity P-wave (km/s) = 7.16876 8.02608 7.60950
#
# Compressibility (1/GPa) = 0.01412920
#
# Stress axis : x y z
#
# Youngs Moduli (GPa) = 81.93304 99.94457 185.03570
#
# Poissons Ratio (x) = 0.28731 0.32210
# Poissons Ratio (y) = 0.23553 0.39367
# Poissons Ratio (z) = 0.14262 0.21263
#
# Static dielectric constant tensor:
#      x y z
#    x 2.171810 0.000000 0.357000 
#    y 0.000000 2.388090 0.000000 
#    z 0.357000 0.000000 2.394640 
# 
# From -- ./inp_files/109443.got.cif
#   From: 2010.05.17/outbox.cif.g08.bks.cpg/sg15_55_cif.got.tgz:109443.got - 2010.06.03 18:47:42.
