data_PCOD9297706
_publ_section_title
;
Structure prediction by ZEFSAII (Michael W. Deem and Ramdas Pophale) SiO2 
 PCOD9297706
Probable space group: C 2/C
;
_chemical_formula_sum "Si O2"
_cell_formula_units_Z 56
_cell_length_a 26.737497
_cell_length_b 5.589402
_cell_length_c 18.702337
_cell_angle_alpha 90.000000
_cell_angle_beta 64.596398
_cell_angle_gamma 90.000000
_cell_volume 2524.747705
_symmetry_space_group_name_H-M "C 2/C"
_symmetry_group_IT_number 15
_symmetry_cell_setting 'monoclinic'
loop_
_space_group_symop_operation_xyz
x,y,z
-x,y,1/2-z
-x,-y,-z
x,-y,1/2+z
1/2+x,1/2+y,z
1/2-x,1/2+y,1/2-z
1/2-x,1/2-y,-z
1/2+x,1/2-y,1/2+z
loop_
_atom_site_type_symbol
_atom_site_label
_atom_site_fract_x
_atom_site_fract_y
_atom_site_fract_z
Si Si1 0.681944 0.213678 0.861799
Si Si2 0.118463 0.116027 0.148227
Si Si3 0.389544 0.529935 0.508469
Si Si4 0.202076 0.984271 0.212492
Si Si5 0.886412 0.675275 0.155225
Si Si6 0.511353 0.823443 0.560606
Si Si7 0.058871 0.597832 0.178552
O O1 0.654720 0.322817 0.948328
O O2 0.735203 0.061090 0.848888
O O3 0.706703 0.386322 0.786089
O O4 0.630612 0.094741 0.850765
O O5 0.171753 0.114607 0.165989
O O6 0.090690 0.850086 0.169712
O O7 0.084663 0.352268 0.192402
O O8 0.124587 0.139373 0.059100
O O9 0.380072 0.701770 0.581431
O O10 0.451488 0.414072 0.476730
O O11 0.158755 0.773293 0.261343
O O12 0.950612 0.722643 0.131777
O O13 0.500000 0.000000 0.500000
O O14 0.547509 0.943452 0.600927
O O15 0.000000 0.632166 0.250000
#
# Coordination Sequence:
#
# PCOD9297706 Si02
#       7
#     8   8   8   8   8   8   8
#     4  11  23  43  68  98 130 173 238 282 332 401
#     4  11  26  44  68  99 143 180 224 284 348 411
#     4  10  24  42  65 101 137 176 222 280 343 415
#     4  11  25  42  70  96 132 181 230 288 339 401
#     4  11  22  41  68  96 134 173 228 280 336 400
#     4  11  21  38  68  97 132 176 219 276 337 409
#     4  11  25  43  65 101 142 180 230 276 340 416
#
# _framework density 22.180433000000001
#
# number of rings (size 3 to 8) (size 9 to 14) (size 15 to 20)
#    0.000    1.143    2.857    2.571    6.000    2.857 
#    0.000    0.714    0.000    0.000    0.000    0.000 
#    0.000    0.000    0.000    0.000    0.000    0.000 
#
# Total GULP energy -156156.343323 kJ/mol
# GULP energy per Si atom -5577.012262 kJ/mol
# Density = 2.212995 g / cm^3
# Si number density = 22.180433 Si / 1000 Ang^3
#
#
#
# Elastic Constant Matrix: (Units=GPa)
#
#
# Indices 1 2 3 4 5 6 
#
# 1 103.4010 9.2114 22.6316 -0.0174 -5.8753 -0.0121
# 2 9.2114 38.1143 -3.7137 -0.0121 -4.9953 -0.0235
# 3 22.6316 -3.7137 56.3637 -0.0126 -9.8646 -0.0085
# 4 -0.0174 -0.0121 -0.0126 5.0132 -0.0069 -4.6163
# 5 -5.8753 -4.9953 -9.8646 -0.0069 45.0750 -0.0042
# 6 -0.0121 -0.0235 -0.0085 -4.6163 -0.0042 21.3294
#
#
#
# Elastic Compliance Matrix: (Units=1/GPa)
#
#
# Indices 1 2 3 4 5 6 
#
# 1 0.010954 -0.003084 -0.004587 0.000025 0.000082 0.000006
# 2 -0.003084 0.027797 0.003679 0.000124 0.003484 0.000058
# 3 -0.004587 0.003679 0.020581 0.000075 0.004314 0.000027
# 4 0.000025 0.000124 0.000075 0.249126 0.000077 0.053919
# 5 0.000082 0.003484 0.004314 0.000077 0.023526 0.000027
# 6 0.000006 0.000058 0.000027 0.053919 0.000027 0.058553
#
#
# Mechanical properties :
#
#
# Convention : Reuss Voigt Hill
#
# Bulk Modulus (GPa) = 19.47413 28.23750 23.85582
# Shear Modulus (GPa) = 12.02968 25.60016 18.81492
#
# Velocity S-wave (km/s) = 2.33138 3.40100 2.91566
# Velocity P-wave (km/s) = 4.00575 5.30857 4.70250
#
# Compressibility (1/GPa) = 0.05135017
#
# Stress axis : x y z
#
# Youngs Moduli (GPa) = 91.28670 35.97468 48.58775
#
# Poissons Ratio (x) = 0.11093 0.22289
# Poissons Ratio (y) = 0.28150 -0.17878
# Poissons Ratio (z) = 0.41876 -0.13237
#
# Static dielectric constant tensor:
#      x y z
#    x 1.814750 -0.000010 0.017200 
#    y -0.000010 1.927070 0.000000 
#    z 0.017200 0.000000 1.820950 
# 
# From -- ./inp_files/221313.got.cif
#   From: 2010.05.17/outbox.cif.g08.bks.cpg/sg15_111_cif.got.tgz:221313.got - 2010.06.03 18:47:42.
