data_PCOD9297209
_publ_section_title
;
Structure prediction by ZEFSAII (Michael W. Deem and Ramdas Pophale) SiO2 
 PCOD9297209
Probable space group: C 2/C
;
_chemical_formula_sum "Si O2"
_cell_formula_units_Z 48
_cell_length_a 27.435131
_cell_length_b 15.030674
_cell_length_c 12.768901
_cell_angle_alpha 90.000000
_cell_angle_beta 28.100414
_cell_angle_gamma 90.000000
_cell_volume 2480.143176
_symmetry_space_group_name_H-M "C 2/C"
_symmetry_group_IT_number 15
_symmetry_cell_setting 'monoclinic'
loop_
_space_group_symop_operation_xyz
x,y,z
-x,y,1/2-z
-x,-y,-z
x,-y,1/2+z
1/2+x,1/2+y,z
1/2-x,1/2+y,1/2-z
1/2-x,1/2-y,-z
1/2+x,1/2-y,1/2+z
loop_
_atom_site_type_symbol
_atom_site_label
_atom_site_fract_x
_atom_site_fract_y
_atom_site_fract_z
Si Si1 0.051630 0.056354 0.262263
Si Si2 0.570309 0.685258 0.876468
Si Si3 0.220702 0.800117 0.450329
Si Si4 0.892742 0.676397 0.003604
Si Si5 0.077548 0.264400 0.521238
Si Si6 0.819276 0.877837 0.519074
O O1 0.000000 0.082840 0.250000
O O2 0.966252 0.089223 0.508322
O O3 0.148374 0.117462 0.107998
O O4 0.103953 0.961199 0.141804
O O5 0.583976 0.754375 0.945626
O O6 0.483886 0.725144 0.961350
O O7 0.669639 0.671606 0.613907
O O8 0.250000 0.750000 0.500000
O O9 0.158922 0.734434 0.490766
O O10 0.328344 0.825450 0.192044
O O11 0.800677 0.611610 0.219955
O O12 0.000000 0.640275 0.750000
O O13 0.128299 0.183075 0.490518
O O14 0.000000 0.308996 0.750000
#
# Coordination Sequence:
#
# PCOD9297209 Si02
#       6
#     8   8   8   8   8   8
#     4  12  21  37  59  91 116 149 194 248 294 342
#     4  11  18  37  60  84 112 150 196 241 281 346
#     4  11  19  35  58  82 109 153 202 231 283 353
#     4  11  20  39  59  83 112 161 198 235 281 363
#     4   9  19  35  55  81 115 153 184 239 288 342
#     4  10  24  34  56  90 125 146 188 247 309 330
#
# _framework density 19.353722000000001
#
# number of rings (size 3 to 8) (size 9 to 14) (size 15 to 20)
#    0.000    1.333    5.000    2.500    0.000    0.000 
#    0.000    0.833    0.000    4.000    0.000    0.000 
#    0.000    0.000    0.000    0.000    0.000    0.000 
#
# Total GULP energy -133699.034305 kJ/mol
# GULP energy per Si atom -5570.793096 kJ/mol
# Density = 1.930967 g / cm^3
# Si number density = 19.353722 Si / 1000 Ang^3
#
#
#
# Elastic Constant Matrix: (Units=GPa)
#
#
# Indices 1 2 3 4 5 6 
#
# 1 110.0766 12.7404 31.8787 0.0000 17.4500 0.0000
# 2 12.7404 19.7651 -12.2675 0.0000 2.7048 0.0000
# 3 31.8787 -12.2675 130.7072 0.0000 -5.1572 0.0000
# 4 0.0000 0.0000 0.0000 20.0290 0.0000 -6.7736
# 5 17.4500 2.7048 -5.1572 0.0000 24.9565 0.0000
# 6 0.0000 0.0000 0.0000 -6.7736 0.0000 19.6878
#
#
#
# Elastic Compliance Matrix: (Units=1/GPa)
#
#
# Indices 1 2 3 4 5 6 
#
# 1 0.012914 -0.009856 -0.004425 0.000000 -0.008876 0.000000
# 2 -0.009856 0.061827 0.008282 0.000000 0.001902 0.000000
# 3 -0.004425 0.008282 0.009673 0.000000 0.004195 0.000000
# 4 0.000000 0.000000 0.000000 0.056502 0.000000 0.019439
# 5 -0.008876 0.001902 0.004195 0.000000 0.046936 0.000000
# 6 0.000000 0.000000 0.000000 0.019439 0.000000 0.057481
#
#
# Mechanical properties :
#
#
# Convention : Reuss Voigt Hill
#
# Bulk Modulus (GPa) = 13.80923 36.13911 24.97417
# Shear Modulus (GPa) = 17.76395 28.14784 22.95589
#
# Velocity S-wave (km/s) = 3.03290 3.81778 3.44775
# Velocity P-wave (km/s) = 4.40628 6.17636 5.36483
#
# Compressibility (1/GPa) = 0.07241533
#
# Stress axis : x y z
#
# Youngs Moduli (GPa) = 77.43671 16.17418 103.38417
#
# Poissons Ratio (x) = 0.15941 0.45745
# Poissons Ratio (y) = 0.76320 -0.85618
# Poissons Ratio (z) = 0.34264 -0.13395
#
# Static dielectric constant tensor:
#      x y z
#    x 1.660190 0.000000 0.010530 
#    y 0.000000 1.690080 0.000000 
#    z 0.010530 0.000000 1.774320 
# 
# From -- ./inp_files/96410.got.cif
#   From: 2010.05.17/outbox.cif.g08.bks.cpg/sg15_49_cif.got.tgz:96410.got - 2010.06.03 18:47:42.
