data_PCOD9297624
_publ_section_title
;
Structure prediction by ZEFSAII (Michael W. Deem and Ramdas Pophale) SiO2 
 PCOD9297624
Probable space group: C 2/C
;
_chemical_formula_sum "Si O2"
_cell_formula_units_Z 48
_cell_length_a 8.668080
_cell_length_b 27.265606
_cell_length_c 18.583829
_cell_angle_alpha 90.000000
_cell_angle_beta 150.786947
_cell_angle_gamma 90.000000
_cell_volume 2143.606964
_symmetry_space_group_name_H-M "C 2/C"
_symmetry_group_IT_number 15
_symmetry_cell_setting 'monoclinic'
loop_
_space_group_symop_operation_xyz
x,y,z
-x,y,1/2-z
-x,-y,-z
x,-y,1/2+z
1/2+x,1/2+y,z
1/2-x,1/2+y,1/2-z
1/2-x,1/2-y,-z
1/2+x,1/2-y,1/2+z
loop_
_atom_site_type_symbol
_atom_site_label
_atom_site_fract_x
_atom_site_fract_y
_atom_site_fract_z
Si Si1 0.295144 0.951156 0.927489
Si Si2 0.067771 0.790908 0.698276
Si Si3 0.741142 0.301941 0.536436
Si Si4 0.830592 0.313010 0.089737
Si Si5 0.505821 0.073728 0.669341
Si Si6 0.130270 0.114796 0.876878
O O1 0.000000 0.951840 0.750000
O O2 0.283270 0.945202 0.011772
O O3 0.527658 0.907530 0.997524
O O4 0.500000 0.000000 0.000000
O O5 0.390243 0.810490 0.795844
O O6 0.000000 0.808967 0.750000
O O7 0.070683 0.731365 0.701574
O O8 0.764977 0.807365 0.531157
O O9 0.750000 0.250000 0.500000
O O10 0.489384 0.300900 0.497326
O O11 0.642493 0.345486 0.443658
O O12 0.931295 0.368107 0.145390
O O13 0.500000 0.053768 0.750000
O O14 0.870538 0.072899 0.790748
O O15 0.000000 0.137729 0.750000
#
# Coordination Sequence:
#
# PCOD9297624 Si02
#       6
#     8   8   8   8   8   8
#     4  11  26  51  80 109 143 178 230 294 365 447
#     4  11  24  38  59  89 133 189 253 292 352 404
#     4  12  23  39  61  92 141 186 244 293 346 410
#     4  11  24  41  60  91 138 187 241 301 350 411
#     4  11  22  44  74 102 141 187 230 290 358 420
#     4  10  24  41  70 100 139 184 236 283 360 417
#
# _framework density 22.392164999999999
#
# number of rings (size 3 to 8) (size 9 to 14) (size 15 to 20)
#    0.000    1.000    3.333    3.500    7.000    1.333 
#    0.000    4.167    0.000    0.000    0.000    0.000 
#    0.000    0.000    0.000    0.000    0.000    0.000 
#
# Total GULP energy -133995.301109 kJ/mol
# GULP energy per Si atom -5583.137546 kJ/mol
# Density = 2.234120 g / cm^3
# Si number density = 22.392165 Si / 1000 Ang^3
#
#
#
# Elastic Constant Matrix: (Units=GPa)
#
#
# Indices 1 2 3 4 5 6 
#
# 1 111.5195 9.7440 54.4584 -0.0009 -17.2131 -0.0030
# 2 9.7440 61.5843 25.7731 -0.0007 -6.5267 -0.0026
# 3 54.4584 25.7731 179.0225 -0.0097 -20.3612 0.0347
# 4 -0.0009 -0.0007 -0.0097 27.8361 0.0003 -5.0486
# 5 -17.2131 -6.5267 -20.3612 0.0003 53.4015 0.0022
# 6 -0.0030 -0.0026 0.0347 -5.0486 0.0022 1.4456
#
#
#
# Elastic Compliance Matrix: (Units=1/GPa)
#
#
# Indices 1 2 3 4 5 6 
#
# 1 0.010804 -0.000212 -0.002993 0.000043 0.002316 0.000240
# 2 -0.000212 0.017359 -0.002301 0.000040 0.001176 0.000225
# 3 -0.002993 -0.002301 0.006989 -0.000083 0.001419 -0.000470
# 4 0.000043 0.000040 -0.000083 0.097993 -0.000027 0.342226
# 5 0.002316 0.001176 0.001419 -0.000027 0.020157 -0.000153
# 6 0.000240 0.000225 -0.000470 0.342226 -0.000153 1.886922
#
#
# Mechanical properties :
#
#
# Convention : Reuss Voigt Hill
#
# Bulk Modulus (GPa) = 41.42237 59.11972 50.27104
# Shear Modulus (GPa) = 2.42803 34.01336 18.22069
#
# Velocity S-wave (km/s) = 1.04244 3.90164 2.85565
# Velocity P-wave (km/s) = 4.47076 6.83786 5.77685
#
# Compressibility (1/GPa) = 0.02414155
#
# Stress axis : x y z
#
# Youngs Moduli (GPa) = 92.55413 57.60697 143.08056
#
# Poissons Ratio (x) = 0.01219 0.42823
# Poissons Ratio (y) = 0.01958 0.32923
# Poissons Ratio (z) = 0.27701 0.13256
#
# Static dielectric constant tensor:
#      x y z
#    x 1.856090 0.000000 0.004170 
#    y 0.000000 1.826470 0.000000 
#    z 0.004170 0.000000 1.878970 
# 
# From -- ./inp_files/194349.got.cif
#   From: 2010.05.17/outbox.cif.g08.bks.cpg/sg15_98_cif.got.tgz:194349.got - 2010.06.03 18:47:42.
