data_PCOD9297869
_publ_section_title
;
Structure prediction by ZEFSAII (Michael W. Deem and Ramdas Pophale) SiO2 
 PCOD9297869
Probable space group: C 2/C
;
_chemical_formula_sum "Si O2"
_cell_formula_units_Z 44
_cell_length_a 10.627410
_cell_length_b 23.271976
_cell_length_c 8.849421
_cell_angle_alpha 90.000000
_cell_angle_beta 70.465296
_cell_angle_gamma 90.000000
_cell_volume 2062.665778
_symmetry_space_group_name_H-M "C 2/C"
_symmetry_group_IT_number 15
_symmetry_cell_setting 'monoclinic'
loop_
_space_group_symop_operation_xyz
x,y,z
-x,y,1/2-z
-x,-y,-z
x,-y,1/2+z
1/2+x,1/2+y,z
1/2-x,1/2+y,1/2-z
1/2-x,1/2-y,-z
1/2+x,1/2-y,1/2+z
loop_
_atom_site_type_symbol
_atom_site_label
_atom_site_fract_x
_atom_site_fract_y
_atom_site_fract_z
Si Si1 0.913916 0.247718 0.435959
Si Si2 0.554504 0.612320 0.059225
Si Si3 0.800632 0.556607 0.613381
Si Si4 0.477328 0.855109 0.935437
Si Si5 0.500000 0.433844 0.250000
Si Si6 0.151101 0.441769 0.066148
O O1 0.750000 0.250000 0.500000
O O2 0.942260 0.181125 0.452842
O O3 0.976746 0.292013 0.530878
O O4 0.000000 0.263070 0.250000
O O5 0.500000 0.598045 0.250000
O O6 0.489736 0.593865 0.924186
O O7 0.699535 0.583890 0.002024
O O8 0.646643 0.539125 0.700147
O O9 0.857428 0.506925 0.485958
O O10 0.871665 0.557402 0.746173
O O11 0.829511 0.620250 0.534959
O O12 0.500000 0.861060 0.750000
O O13 0.570428 0.898970 0.990917
#
# Coordination Sequence:
#
# PCOD9297869 Si02
#       6
#     8   8   8   8   4   8
#     4  11  24  46  71 100 136 183 233 288 357 417
#     4  10  24  42  69  97 142 183 236 290 351 422
#     4  11  25  42  68 100 139 184 228 291 344 428
#     4  12  26  43  70 103 138 180 235 287 355 424
#     4  10  26  42  66 104 138 182 236 286 354 420
#     4  11  23  43  68  98 141 182 231 286 355 413
#
# _framework density 21.331617999999999
#
# number of rings (size 3 to 8) (size 9 to 14) (size 15 to 20)
#    0.000    1.091    1.818    3.273   10.182    1.455 
#    0.000    1.818    0.000    0.000    0.000    0.000 
#    0.000    0.000    0.000    0.000    0.000    0.000 
#
# Total GULP energy -122565.450163 kJ/mol
# GULP energy per Si atom -5571.156826 kJ/mol
# Density = 2.128307 g / cm^3
# Si number density = 21.331618 Si / 1000 Ang^3
#
#
#
# Elastic Constant Matrix: (Units=GPa)
#
#
# Indices 1 2 3 4 5 6 
#
# 1 95.1224 16.1501 35.3739 0.0000 6.7862 0.0000
# 2 16.1501 67.3018 36.8374 0.0000 9.2951 0.0000
# 3 35.3739 36.8374 179.0562 0.0000 26.6781 0.0000
# 4 0.0000 0.0000 0.0000 4.8762 0.0000 -13.9923
# 5 6.7862 9.2951 26.6781 0.0000 34.2903 0.0000
# 6 0.0000 0.0000 0.0000 -13.9923 0.0000 14.9414
#
#
#
# Elastic Compliance Matrix: (Units=1/GPa)
#
#
# Indices 1 2 3 4 5 6 
#
# 1 0.011523 -0.001689 -0.001875 0.000000 -0.000364 0.000000
# 2 -0.001689 0.017126 -0.002882 0.000000 -0.002066 0.000000
# 3 -0.001875 -0.002882 0.007213 0.000000 -0.004459 0.000000
# 4 0.000000 0.000000 0.000000 -0.121548 0.000000 -0.113827
# 5 -0.000364 -0.002066 -0.004459 0.000000 0.033264 0.000000
# 6 0.000000 0.000000 0.000000 -0.113827 0.000000 -0.039668
#
#
# Mechanical properties :
#
#
# Convention : Reuss Voigt Hill
#
# Bulk Modulus (GPa) = 43.53340 57.57812 50.55576
# Shear Modulus (GPa) = -69.88832 27.69617 -21.09607
#
# Velocity S-wave (km/s) = -5.73009 3.60719 -3.14818
# Velocity P-wave (km/s) = 4.82973 6.66330 3.24602
#
# Compressibility (1/GPa) = 0.02297087
#
# Stress axis : x y z
#
# Youngs Moduli (GPa) = 86.78586 58.38916 138.64795
#
# Poissons Ratio (x) = 0.09860 0.25993
# Poissons Ratio (y) = 0.14655 0.39959
# Poissons Ratio (z) = 0.16270 0.16828
#
# Static dielectric constant tensor:
#      x y z
#    x 1.823960 0.000000 -0.051700 
#    y 0.000000 1.747170 0.000000 
#    z -0.051700 0.000000 1.836200 
# 
# From -- ./inp_files/30735.got.cif
#   From: 2010.05.17/outbox.cif.g08.bks.cpg/sg15_16_cif.got.tgz:30735.got - 2010.06.03 18:47:42.
