data_PCOD9297202
_publ_section_title
;
Structure prediction by ZEFSAII (Michael W. Deem and Ramdas Pophale) SiO2 
 PCOD9297202
Probable space group: C 2/C
;
_chemical_formula_sum "Si O2"
_cell_formula_units_Z 44
_cell_length_a 18.471873
_cell_length_b 14.407120
_cell_length_c 8.105236
_cell_angle_alpha 90.000000
_cell_angle_beta 103.334782
_cell_angle_gamma 90.000000
_cell_volume 2098.862737
_symmetry_space_group_name_H-M "C 2/C"
_symmetry_group_IT_number 15
_symmetry_cell_setting 'monoclinic'
loop_
_space_group_symop_operation_xyz
x,y,z
-x,y,1/2-z
-x,-y,-z
x,-y,1/2+z
1/2+x,1/2+y,z
1/2-x,1/2+y,1/2-z
1/2-x,1/2-y,-z
1/2+x,1/2-y,1/2+z
loop_
_atom_site_type_symbol
_atom_site_label
_atom_site_fract_x
_atom_site_fract_y
_atom_site_fract_z
Si Si1 0.780727 0.284303 0.341868
Si Si2 0.898568 0.066195 0.978348
Si Si3 0.411559 0.253709 0.680806
Si Si4 0.259865 0.024270 0.684152
Si Si5 0.500000 0.432524 0.250000
Si Si6 0.184271 0.361368 0.598671
O O1 0.750000 0.250000 0.500000
O O2 0.865228 0.265921 0.324482
O O3 0.769258 0.394343 0.323684
O O4 0.730784 0.228038 0.182382
O O5 0.881760 0.148941 0.094535
O O6 0.949572 0.996297 0.106798
O O7 0.828477 0.008473 0.874237
O O8 0.943210 0.113345 0.848834
O O9 0.500000 0.258783 0.750000
O O10 0.389182 0.177739 0.529731
O O11 0.279501 0.077272 0.526657
O O12 0.310481 0.935376 0.749188
#
# Coordination Sequence:
#
# PCOD9297202 Si02
#       6
#     8   8   8   8   4   8
#     4  11  23  41  64  98 125 171 230 268 327 393
#     4  11  20  39  57  93 130 173 207 267 330 395
#     4  11  23  43  65  93 137 175 212 279 335 390
#     4  11  21  38  65  86 125 168 221 274 315 384
#     4  10  24  32  58  96 136 166 208 258 346 410
#     4  11  22  42  64  94 126 169 224 266 327 388
#
# _framework density 20.963733999999999
#
# number of rings (size 3 to 8) (size 9 to 14) (size 15 to 20)
#    0.000    1.091    4.545    3.273    0.000    1.455 
#    0.000    3.636    0.000    0.000    0.000    0.000 
#    0.000    0.000    0.000    0.000    0.000    0.000 
#
# Total GULP energy -122693.958455 kJ/mol
# GULP energy per Si atom -5576.998112 kJ/mol
# Density = 2.091602 g / cm^3
# Si number density = 20.963734 Si / 1000 Ang^3
#
#
#
# Elastic Constant Matrix: (Units=GPa)
#
#
# Indices 1 2 3 4 5 6 
#
# 1 82.0013 7.6696 41.6785 0.0000 10.6416 0.0000
# 2 7.6696 85.7066 14.0760 0.0000 12.9237 0.0000
# 3 41.6785 14.0760 86.9314 0.0000 -5.1921 0.0000
# 4 0.0000 0.0000 0.0000 42.1603 0.0000 -0.9299
# 5 10.6416 12.9237 -5.1921 0.0000 16.6548 0.0000
# 6 0.0000 0.0000 0.0000 -0.9299 0.0000 19.4150
#
#
#
# Elastic Compliance Matrix: (Units=1/GPa)
#
#
# Indices 1 2 3 4 5 6 
#
# 1 0.019984 0.002820 -0.011139 0.000000 -0.018430 0.000000
# 2 0.002820 0.014319 -0.004526 0.000000 -0.014324 0.000000
# 3 -0.011139 -0.004526 0.018557 0.000000 0.016414 0.000000
# 4 0.000000 0.000000 0.000000 0.023744 0.000000 0.001137
# 5 -0.018430 -0.014324 0.016414 0.000000 0.088050 0.000000
# 6 0.000000 0.000000 0.000000 0.001137 0.000000 0.051561
#
#
# Mechanical properties :
#
#
# Convention : Reuss Voigt Hill
#
# Bulk Modulus (GPa) = 36.80475 42.38752 39.59613
# Shear Modulus (GPa) = 19.92341 28.39370 24.15855
#
# Velocity S-wave (km/s) = 3.08616 3.68424 3.39838
# Velocity P-wave (km/s) = 5.50397 6.19366 5.85897
#
# Compressibility (1/GPa) = 0.02717041
#
# Stress axis : x y z
#
# Youngs Moduli (GPa) = 50.03953 69.83951 53.88852
#
# Poissons Ratio (x) = -0.19695 0.60024
# Poissons Ratio (y) = -0.14111 0.24390
# Poissons Ratio (z) = 0.55737 0.31609
#
# Static dielectric constant tensor:
#      x y z
#    x 1.789460 0.000000 -0.031150 
#    y 0.000000 1.759890 0.000000 
#    z -0.031150 0.000000 1.867520 
# 
# From -- ./inp_files/47137.got.cif
#   From: 2010.05.17/outbox.cif.g08.bks.cpg/sg15_24_cif.got.tgz:47137.got - 2010.06.03 18:47:42.
