data_PCOD9297974
_publ_section_title
;
Structure prediction by ZEFSAII (Michael W. Deem and Ramdas Pophale) SiO2 
 PCOD9297974
Probable space group: C 2/C
;
_chemical_formula_sum "Si O2"
_cell_formula_units_Z 44
_cell_length_a 5.336334
_cell_length_b 18.276548
_cell_length_c 19.882866
_cell_angle_alpha 90.000000
_cell_angle_beta 77.965670
_cell_angle_gamma 90.000000
_cell_volume 1896.553782
_symmetry_space_group_name_H-M "C 2/C"
_symmetry_group_IT_number 15
_symmetry_cell_setting 'monoclinic'
loop_
_space_group_symop_operation_xyz
x,y,z
-x,y,1/2-z
-x,-y,-z
x,-y,1/2+z
1/2+x,1/2+y,z
1/2-x,1/2+y,1/2-z
1/2-x,1/2-y,-z
1/2+x,1/2-y,1/2+z
loop_
_atom_site_type_symbol
_atom_site_label
_atom_site_fract_x
_atom_site_fract_y
_atom_site_fract_z
Si Si1 0.156511 0.930894 0.520602
Si Si2 0.655247 0.330829 0.174263
Si Si3 0.435005 0.052853 0.140604
Si Si4 0.319850 0.909499 0.368410
Si Si5 0.805958 0.824955 0.625888
Si Si6 0.500000 0.399045 0.750000
O O1 0.322407 0.961089 0.573325
O O2 0.315370 0.899281 0.449301
O O3 0.982220 0.865801 0.561167
O O4 0.000000 0.000000 0.500000
O O5 0.500000 0.307030 0.250000
O O6 0.440531 0.376451 0.146097
O O7 0.757813 0.260762 0.127658
O O8 0.913943 0.376537 0.174365
O O9 0.534144 0.135261 0.134823
O O10 0.221920 0.049831 0.209052
O O11 0.660654 0.996643 0.143583
O O12 0.912315 0.848568 0.693024
#
# Coordination Sequence:
#
# PCOD9297974 Si02
#       6
#     8   8   8   8   8   4
#     4  11  24  48  77 111 147 191 253 315 374 440
#     4  12  30  49  71 108 157 198 246 308 377 445
#     4  11  24  45  77 106 145 197 255 315 366 450
#     4  12  28  47  75 110 153 196 242 313 381 439
#     4  11  26  46  79 101 149 199 250 308 368 455
#     4  10  24  42  76 110 138 194 274 300 374 440
#
# _framework density 23.199973
#
# number of rings (size 3 to 8) (size 9 to 14) (size 15 to 20)
#    0.000    0.727    1.818    3.818   14.000    2.909 
#    0.000    0.000    0.000    0.000    0.000    0.000 
#    0.000    0.000    0.000    0.000    0.000    0.000 
#
# Total GULP energy -123151.895689 kJ/mol
# GULP energy per Si atom -5597.813440 kJ/mol
# Density = 2.314717 g / cm^3
# Si number density = 23.199973 Si / 1000 Ang^3
#
#
#
# Elastic Constant Matrix: (Units=GPa)
#
#
# Indices 1 2 3 4 5 6 
#
# 1 108.3684 29.7052 26.6322 0.0000 9.7516 0.0000
# 2 29.7052 91.6370 -6.7557 0.0000 7.0284 0.0000
# 3 26.6322 -6.7557 71.9143 0.0000 -25.1048 0.0000
# 4 0.0000 0.0000 0.0000 23.2959 0.0000 -6.5753
# 5 9.7516 7.0284 -25.1048 0.0000 33.7346 0.0000
# 6 0.0000 0.0000 0.0000 -6.5753 0.0000 31.6652
#
#
#
# Elastic Compliance Matrix: (Units=1/GPa)
#
#
# Indices 1 2 3 4 5 6 
#
# 1 0.013356 -0.004245 -0.008625 0.000000 -0.009395 0.000000
# 2 -0.004245 0.012444 0.003059 0.000000 0.000911 0.000000
# 3 -0.008625 0.003059 0.024364 0.000000 0.019987 0.000000
# 4 0.000000 0.000000 0.000000 0.045599 0.000000 0.009469
# 5 -0.009395 0.000911 0.019987 0.000000 0.047043 0.000000
# 6 0.000000 0.000000 0.000000 0.009469 0.000000 0.033547
#
#
# Mechanical properties :
#
#
# Convention : Reuss Voigt Hill
#
# Bulk Modulus (GPa) = 32.73999 41.23146 36.98573
# Shear Modulus (GPa) = 24.25350 32.56169 28.40759
#
# Velocity S-wave (km/s) = 3.23679 3.75043 3.50303
# Velocity P-wave (km/s) = 5.30205 6.04690 5.68669
#
# Compressibility (1/GPa) = 0.03054369
#
# Stress axis : x y z
#
# Youngs Moduli (GPa) = 74.87073 80.35802 41.04372
#
# Poissons Ratio (x) = 0.34111 0.35399
# Poissons Ratio (y) = 0.31782 -0.12555
# Poissons Ratio (z) = 0.64574 -0.24582
#
# Static dielectric constant tensor:
#      x y z
#    x 1.892130 0.000000 -0.025200 
#    y 0.000000 1.827620 0.000000 
#    z -0.025200 0.000000 1.932920 
# 
# From -- ./inp_files/226903.got.cif
#   From: 2010.05.17/outbox.cif.g08.bks.cpg/sg15_114_cif.got.tgz:226903.got - 2010.06.03 18:47:42.
