data_PCOD9297935
_publ_section_title
;
Structure prediction by ZEFSAII (Michael W. Deem and Ramdas Pophale) SiO2 
 PCOD9297935
Probable space group: C 2/C
;
_chemical_formula_sum "Si O2"
_cell_formula_units_Z 36
_cell_length_a 16.286426
_cell_length_b 16.417219
_cell_length_c 8.242459
_cell_angle_alpha 90.000000
_cell_angle_beta 36.748377
_cell_angle_gamma 90.000000
_cell_volume 1318.568092
_symmetry_space_group_name_H-M "C 2/C"
_symmetry_group_IT_number 15
_symmetry_cell_setting 'monoclinic'
loop_
_space_group_symop_operation_xyz
x,y,z
-x,y,1/2-z
-x,-y,-z
x,-y,1/2+z
1/2+x,1/2+y,z
1/2-x,1/2+y,1/2-z
1/2-x,1/2-y,-z
1/2+x,1/2-y,1/2+z
loop_
_atom_site_type_symbol
_atom_site_label
_atom_site_fract_x
_atom_site_fract_y
_atom_site_fract_z
Si Si1 0.000000 0.450273 0.750000
Si Si2 0.264083 0.312291 0.757982
Si Si3 0.142970 0.047816 0.610377
Si Si4 0.947674 0.180541 0.515984
Si Si5 0.338267 0.087364 0.807489
O O1 0.914344 0.513354 0.777952
O O2 0.091477 0.400728 0.477239
O O3 0.261377 0.394303 0.652317
O O4 0.422733 0.299612 0.566918
O O5 0.179199 0.244725 0.793813
O O6 0.175977 0.334331 0.058245
O O7 0.191277 0.955711 0.540426
O O8 0.000000 0.048076 0.750000
O O9 0.117546 0.096387 0.815838
O O10 0.000000 0.177211 0.250000
#
# Coordination Sequence:
#
# PCOD9297935 Si02
#       5
#     4   8   8   8   8
#     4  10  24  42  72 114 144 188 232 316 380 440
#     4  11  25  48  75 105 154 196 253 302 373 446
#     4  10  24  47  75 109 143 192 251 310 373 443
#     4  11  26  45  72 108 149 205 242 306 367 448
#     4  11  23  46  74 111 146 188 246 308 378 440
#
# _framework density 27.302346
#
# number of rings (size 3 to 8) (size 9 to 14) (size 15 to 20)
#    0.000    1.333    2.222    1.333    4.667    4.444 
#    4.000    0.000    2.444    0.000    0.000    0.000 
#    0.000    0.000    0.000    0.000    0.000    0.000 
#
# Total GULP energy -100896.279721 kJ/mol
# GULP energy per Si atom -5605.348873 kJ/mol
# Density = 2.724020 g / cm^3
# Si number density = 27.302346 Si / 1000 Ang^3
#
#
#
# Elastic Constant Matrix: (Units=GPa)
#
#
# Indices 1 2 3 4 5 6 
#
# 1 120.8912 33.1509 22.7933 0.0001 -8.1135 0.0000
# 2 33.1509 104.9498 28.9407 0.0000 6.2722 0.0000
# 3 22.7933 28.9407 143.2697 0.0001 33.7908 0.0000
# 4 0.0001 0.0000 0.0001 387.3240 -0.0001 -52.9463
# 5 -8.1135 6.2722 33.7908 -0.0001 41.2456 0.0000
# 6 0.0000 0.0000 0.0000 -52.9463 0.0000 39.1690
#
#
#
# Elastic Compliance Matrix: (Units=1/GPa)
#
#
# Indices 1 2 3 4 5 6 
#
# 1 0.009643 -0.002756 -0.001889 0.000000 0.003863 0.000000
# 2 -0.002756 0.010879 -0.001538 0.000000 -0.000936 0.000000
# 3 -0.001889 -0.001538 0.009449 0.000000 -0.007879 0.000000
# 4 0.000000 0.000000 0.000000 0.003167 0.000000 0.004281
# 5 0.003863 -0.000936 -0.007879 0.000000 0.031602 0.000000
# 6 0.000000 0.000000 0.000000 0.004281 0.000000 0.031317
#
#
# Mechanical properties :
#
#
# Convention : Reuss Voigt Hill
#
# Bulk Modulus (GPa) = 56.80020 59.87562 58.33791
# Shear Modulus (GPa) = 43.74744 112.49609 78.12177
#
# Velocity S-wave (km/s) = 4.00726 6.42598 5.35497
# Velocity P-wave (km/s) = 6.50078 8.77701 7.72321
#
# Compressibility (1/GPa) = 0.01760557
#
# Stress axis : x y z
#
# Youngs Moduli (GPa) = 103.70188 91.91947 105.82741
#
# Poissons Ratio (x) = 0.25334 0.19986
# Poissons Ratio (y) = 0.28581 0.16279
# Poissons Ratio (z) = 0.19585 0.14140
#
# Static dielectric constant tensor:
#      x y z
#    x 2.330530 0.000000 -0.138990 
#    y 0.000000 2.040070 0.000000 
#    z -0.138990 0.000000 2.248980 
# 
# From -- ./inp_files/56915.got.cif
#   From: 2010.05.17/outbox.cif.g08.bks.cpg/sg15_29_cif.got.tgz:56915.got - 2010.06.03 18:47:42.
