data_PCOD9297245
_publ_section_title
;
Structure prediction by ZEFSAII (Michael W. Deem and Ramdas Pophale) SiO2 
 PCOD9297245
Probable space group: C 2/C
;
_chemical_formula_sum "Si O2"
_cell_formula_units_Z 52
_cell_length_a 18.502391
_cell_length_b 30.668630
_cell_length_c 8.347274
_cell_angle_alpha 90.000000
_cell_angle_beta 146.653120
_cell_angle_gamma 90.000000
_cell_volume 2603.740944
_symmetry_space_group_name_H-M "C 2/C"
_symmetry_group_IT_number 15
_symmetry_cell_setting 'monoclinic'
loop_
_space_group_symop_operation_xyz
x,y,z
-x,y,1/2-z
-x,-y,-z
x,-y,1/2+z
1/2+x,1/2+y,z
1/2-x,1/2+y,1/2-z
1/2-x,1/2-y,-z
1/2+x,1/2-y,1/2+z
loop_
_atom_site_type_symbol
_atom_site_label
_atom_site_fract_x
_atom_site_fract_y
_atom_site_fract_z
Si Si1 0.829759 0.382391 0.109303
Si Si2 0.000000 0.979106 0.250000
Si Si3 0.354042 0.115178 0.280634
Si Si4 0.850929 0.286777 0.145758
Si Si5 0.177561 0.962872 0.850130
Si Si6 0.900520 0.472144 0.704581
Si Si7 0.849118 0.713245 0.253693
O O1 0.798091 0.333718 0.103461
O O2 0.986599 0.385626 0.417633
O O3 0.804874 0.387617 0.872545
O O4 0.751605 0.420451 0.051064
O O5 0.103694 0.009824 0.349010
O O6 0.070403 0.951604 0.517539
O O7 0.327657 0.070242 0.140463
O O8 0.315809 0.162991 0.142188
O O9 0.995132 0.278900 0.489732
O O10 0.750000 0.250000 0.000000
O O11 0.852497 0.288260 0.954498
O O12 0.286950 0.992600 0.963988
O O13 0.000000 0.457990 0.750000
O O14 0.000000 0.500000 0.000000
O O15 0.750000 0.750000 0.000000
#
# Coordination Sequence:
#
# PCOD9297245 Si02
#       7
#     8   4   8   8   8   8   8
#     4   9  17  34  61  77 110 146 183 244 297 350
#     4  10  24  38  52  72 116 166 196 224 270 368
#     4   9  18  34  55  89 113 141 183 238 312 347
#     4   9  19  37  58  85 111 148 197 242 296 354
#     4  11  21  38  55  78 114 155 197 230 291 346
#     4  12  22  34  59  91 117 141 193 255 303 348
#     4   9  19  38  59  81 119 154 187 241 302 363
#
# _framework density 19.971266
#
# number of rings (size 3 to 8) (size 9 to 14) (size 15 to 20)
#    0.000    2.154    1.538    4.615    0.000    0.615 
#    5.538    7.692    0.000    0.000    0.000    0.000 
#    0.000    0.000    0.000    0.000    0.000    0.000 
#
# Total GULP energy -144904.304182 kJ/mol
# GULP energy per Si atom -5573.242469 kJ/mol
# Density = 1.992581 g / cm^3
# Si number density = 19.971266 Si / 1000 Ang^3
#
#
#
# Elastic Constant Matrix: (Units=GPa)
#
#
# Indices 1 2 3 4 5 6 
#
# 1 33.8642 10.6128 -0.4832 0.0000 15.9975 0.0000
# 2 10.6128 144.7471 40.3902 0.0000 19.7719 0.0000
# 3 -0.4832 40.3902 73.8815 0.0000 1.1810 0.0000
# 4 0.0000 0.0000 0.0000 42.7593 0.0000 -8.0566
# 5 15.9975 19.7719 1.1810 0.0000 23.7233 0.0000
# 6 0.0000 0.0000 0.0000 -8.0566 0.0000 48.6028
#
#
#
# Elastic Compliance Matrix: (Units=1/GPa)
#
#
# Indices 1 2 3 4 5 6 
#
# 1 0.043449 0.000825 0.000313 0.000000 -0.030003 0.000000
# 2 0.000825 0.009341 -0.004972 0.000000 -0.008094 0.000000
# 3 0.000313 -0.004972 0.016205 0.000000 0.003126 0.000000
# 4 0.000000 0.000000 0.000000 0.024141 0.000000 0.004002
# 5 -0.030003 -0.008094 0.003126 0.000000 0.068975 0.000000
# 6 0.000000 0.000000 0.000000 0.004002 0.000000 0.021238
#
#
# Mechanical properties :
#
#
# Convention : Reuss Voigt Hill
#
# Bulk Modulus (GPa) = 16.30597 39.28140 27.79369
# Shear Modulus (GPa) = 23.64516 36.48194 30.06355
#
# Velocity S-wave (km/s) = 3.44460 4.27865 3.88408
# Velocity P-wave (km/s) = 4.89927 6.64235 5.83625
#
# Compressibility (1/GPa) = 0.06132723
#
# Stress axis : x y z
#
# Youngs Moduli (GPa) = 23.01560 107.05384 61.70808
#
# Poissons Ratio (x) = -0.08836 -0.01928
# Poissons Ratio (y) = -0.01900 0.30681
# Poissons Ratio (z) = -0.00719 0.53226
#
# Static dielectric constant tensor:
#      x y z
#    x 1.850260 0.000000 -0.103280 
#    y 0.000000 1.739290 0.000000 
#    z -0.103280 0.000000 1.800820 
# 
# From -- ./inp_files/59327.got.cif
#   From: 2010.05.17/outbox.cif.g08.bks.cpg/sg15_30_cif.got.tgz:59327.got - 2010.06.03 18:47:42.
