data_PCOD9297038
_publ_section_title
;
Structure prediction by ZEFSAII (Michael W. Deem and Ramdas Pophale) SiO2 
 PCOD9297038
Probable space group: C 2/C
;
_chemical_formula_sum "Si O2"
_cell_formula_units_Z 28
_cell_length_a 14.638484
_cell_length_b 8.397248
_cell_length_c 13.275450
_cell_angle_alpha 90.000000
_cell_angle_beta 137.293701
_cell_angle_gamma 90.000000
_cell_volume 1106.792042
_symmetry_space_group_name_H-M "C 2/C"
_symmetry_group_IT_number 15
_symmetry_cell_setting 'monoclinic'
loop_
_space_group_symop_operation_xyz
x,y,z
-x,y,1/2-z
-x,-y,-z
x,-y,1/2+z
1/2+x,1/2+y,z
1/2-x,1/2+y,1/2-z
1/2-x,1/2-y,-z
1/2+x,1/2-y,1/2+z
loop_
_atom_site_type_symbol
_atom_site_label
_atom_site_fract_x
_atom_site_fract_y
_atom_site_fract_z
Si Si1 0.873254 0.400365 0.773326
Si Si2 0.813542 0.766206 0.728181
Si Si3 0.120673 0.223869 0.995575
Si Si4 0.000000 0.030994 0.250000
O O1 0.819958 0.577962 0.715873
O O2 0.827226 0.338951 0.846962
O O3 0.783983 0.285687 0.627576
O O4 0.032090 0.376170 0.892151
O O5 0.878418 0.860418 0.690094
O O6 0.899153 0.795308 0.899955
O O7 0.052671 0.079200 0.882552
#
# Coordination Sequence:
#
# PCOD9297038 Si02
#       4
#     8   8   8   4
#     4  10  23  47  71  92 139 170 222 266 340 375
#     4  10  24  43  69  99 132 175 216 277 321 397
#     4  10  25  45  67  99 130 178 216 277 319 400
#     4  12  24  42  68 100 136 170 224 268 332 380
#
# _framework density 25.298338000000001
#
# number of rings (size 3 to 8) (size 9 to 14) (size 15 to 20)
#    1.714    0.000    0.000    3.429    4.000    3.429 
#    0.000    0.000    0.000    0.000    0.000    0.000 
#    0.000    0.000    0.000    0.000    0.000    0.000 
#
# Total GULP energy -78212.385655 kJ/mol
# GULP energy per Si atom -5586.598975 kJ/mol
# Density = 2.524076 g / cm^3
# Si number density = 25.298338 Si / 1000 Ang^3
#
#
#
# Elastic Constant Matrix: (Units=GPa)
#
#
# Indices 1 2 3 4 5 6 
#
# 1 59.7363 15.1567 12.5311 0.0000 21.5264 0.0000
# 2 15.1567 113.2041 15.9767 0.0000 8.9496 0.0000
# 3 12.5311 15.9767 95.5859 0.0000 10.3297 0.0000
# 4 0.0000 0.0000 0.0000 22.7108 0.0000 1.3927
# 5 21.5264 8.9496 10.3297 0.0000 38.0892 0.0000
# 6 0.0000 0.0000 0.0000 1.3927 0.0000 36.3388
#
#
#
# Elastic Compliance Matrix: (Units=1/GPa)
#
#
# Indices 1 2 3 4 5 6 
#
# 1 0.021587 -0.001804 -0.001294 0.000000 -0.011425 0.000000
# 2 -0.001804 0.009315 -0.001230 0.000000 -0.000835 0.000000
# 3 -0.001294 -0.001230 0.011051 0.000000 -0.001977 0.000000
# 4 0.000000 0.000000 0.000000 0.044136 0.000000 -0.001692
# 5 -0.011425 -0.000835 -0.001977 0.000000 0.033443 0.000000
# 6 0.000000 0.000000 0.000000 -0.001692 0.000000 0.027584
#
#
# Mechanical properties :
#
#
# Convention : Reuss Voigt Hill
#
# Bulk Modulus (GPa) = 30.03399 39.53947 34.78673
# Shear Modulus (GPa) = 29.96354 34.41855 32.19105
#
# Velocity S-wave (km/s) = 3.44526 3.69251 3.57102
# Velocity P-wave (km/s) = 5.26537 5.81745 5.54828
#
# Compressibility (1/GPa) = 0.03329561
#
# Stress axis : x y z
#
# Youngs Moduli (GPa) = 46.32524 107.35570 90.49263
#
# Poissons Ratio (x) = 0.19371 0.11707
# Poissons Ratio (y) = 0.08359 0.11132
# Poissons Ratio (z) = 0.05993 0.13206
#
# Static dielectric constant tensor:
#      x y z
#    x 2.096760 0.000000 -0.015850 
#    y 0.000000 1.926070 0.000000 
#    z -0.015850 0.000000 2.024310 
# 
# From -- ./inp_files/64703.got.cif
#   From: 2010.05.17/outbox.cif.g08.bks.cpg/sg15_33_cif.got.tgz:64703.got - 2010.06.03 18:47:42.
