data_PCOD9297124
_publ_section_title
;
Structure prediction by ZEFSAII (Michael W. Deem and Ramdas Pophale) SiO2 
 PCOD9297124
Probable space group: C 2/C
;
_chemical_formula_sum "Si O2"
_cell_formula_units_Z 60
_cell_length_a 19.322208
_cell_length_b 8.695259
_cell_length_c 19.810549
_cell_angle_alpha 90.000000
_cell_angle_beta 54.837909
_cell_angle_gamma 90.000000
_cell_volume 2721.055611
_symmetry_space_group_name_H-M "C 2/C"
_symmetry_group_IT_number 15
_symmetry_cell_setting 'monoclinic'
loop_
_space_group_symop_operation_xyz
x,y,z
-x,y,1/2-z
-x,-y,-z
x,-y,1/2+z
1/2+x,1/2+y,z
1/2-x,1/2+y,1/2-z
1/2-x,1/2-y,-z
1/2+x,1/2-y,1/2+z
loop_
_atom_site_type_symbol
_atom_site_label
_atom_site_fract_x
_atom_site_fract_y
_atom_site_fract_z
Si Si1 0.000000 0.784430 0.750000
Si Si2 0.646368 0.659865 0.969952
Si Si3 0.091322 0.500989 0.985769
Si Si4 0.169728 0.594327 0.665005
Si Si5 0.456623 0.547138 0.872475
Si Si6 0.842228 0.306713 0.924442
Si Si7 0.366819 0.358027 0.178244
Si Si8 0.793321 0.481433 0.707816
O O1 0.916404 0.683397 0.798071
O O2 0.995426 0.900125 0.814670
O O3 0.748063 0.675193 0.913945
O O4 0.626776 0.609129 0.904765
O O5 0.607211 0.827821 0.004108
O O6 0.606668 0.527381 0.037537
O O7 0.157568 0.528991 0.887472
O O8 0.109784 0.617374 0.037209
O O9 0.000000 0.500000 0.000000
O O10 0.165848 0.431718 0.629454
O O11 0.182426 0.573937 0.738059
O O12 0.396954 0.664178 0.865911
O O13 0.537873 0.642870 0.850109
O O14 0.750000 0.250000 0.000000
O O15 0.306148 0.485562 0.245550
O O16 0.320406 0.193299 0.208362
#
# Coordination Sequence:
#
# PCOD9297124 Si02
#       8
#     4   8   8   8   8   8   8   8
#     4  12  32  42  74 100 146 196 234 300 362 454
#     4  10  23  48  72  99 144 185 247 290 362 439
#     4  11  26  45  75 105 141 200 252 306 366 448
#     4  11  27  50  71 107 145 197 240 302 376 436
#     4  12  27  45  69 109 142 188 239 301 367 442
#     4  12  27  46  77 111 148 192 246 312 374 443
#     4  10  24  42  71 103 140 188 235 305 359 433
#     4  10  25  44  73 102 145 190 243 302 366 439
#
# _framework density 22.050266000000001
#
# number of rings (size 3 to 8) (size 9 to 14) (size 15 to 20)
#    0.000    1.067    1.333    2.800   16.800    1.067 
#    0.000    0.000    0.000    0.000    0.000    0.000 
#    0.000    0.000    0.000    0.000    0.000    0.000 
#
# Total GULP energy -167752.281791 kJ/mol
# GULP energy per Si atom -5591.742726 kJ/mol
# Density = 2.200008 g / cm^3
# Si number density = 22.050266 Si / 1000 Ang^3
#
#
#
# Elastic Constant Matrix: (Units=GPa)
#
#
# Indices 1 2 3 4 5 6 
#
# 1 80.9417 8.5208 13.4789 0.0000 -31.8098 0.0001
# 2 8.5208 60.7869 16.9654 0.0000 -19.0016 0.0000
# 3 13.4789 16.9654 56.1381 0.0000 -11.1180 0.0000
# 4 0.0000 0.0000 0.0000 22.9647 0.0000 1.8571
# 5 -31.8098 -19.0016 -11.1180 0.0000 38.5113 0.0000
# 6 0.0001 0.0000 0.0000 1.8571 0.0000 33.3896
#
#
#
# Elastic Compliance Matrix: (Units=1/GPa)
#
#
# Indices 1 2 3 4 5 6 
#
# 1 0.018877 0.003128 -0.002210 0.000000 0.016497 0.000000
# 2 0.003128 0.020959 -0.004800 0.000000 0.011539 0.000000
# 3 -0.002210 -0.004800 0.020114 0.000000 0.001613 0.000000
# 4 0.000000 0.000000 0.000000 0.043742 0.000000 -0.002433
# 5 0.016497 0.011539 0.001613 0.000000 0.045752 0.000000
# 6 0.000000 0.000000 0.000000 -0.002433 0.000000 0.030085
#
#
# Mechanical properties :
#
#
# Convention : Reuss Voigt Hill
#
# Bulk Modulus (GPa) = 19.16258 30.64409 24.90333
# Shear Modulus (GPa) = 24.42744 29.56654 26.99699
#
# Velocity S-wave (km/s) = 3.33198 3.66576 3.50285
# Velocity P-wave (km/s) = 4.84893 5.64310 5.26102
#
# Compressibility (1/GPa) = 0.05218505
#
# Stress axis : x y z
#
# Youngs Moduli (GPa) = 52.97541 47.71188 49.71699
#
# Poissons Ratio (x) = -0.14923 0.10989
# Poissons Ratio (y) = -0.16569 0.23863
# Poissons Ratio (z) = 0.11710 0.22900
#
# Static dielectric constant tensor:
#      x y z
#    x 1.833860 0.000000 0.008460 
#    y 0.000000 1.812130 0.000000 
#    z 0.008460 0.000000 1.825030 
# 
# From -- ./inp_files/247810.got.cif
#   From: 2010.05.17/outbox.cif.g08.bks.cpg/sg15_124_cif.got.tgz:247810.got - 2010.06.03 18:47:42.
