data_PCOD9297888
_publ_section_title
;
Structure prediction by ZEFSAII (Michael W. Deem and Ramdas Pophale) SiO2 
 PCOD9297888
Probable space group: C 2/C
;
_chemical_formula_sum "Si O2"
_cell_formula_units_Z 44
_cell_length_a 29.019249
_cell_length_b 8.735976
_cell_length_c 9.550051
_cell_angle_alpha 90.000000
_cell_angle_beta 125.668095
_cell_angle_gamma 90.000000
_cell_volume 1966.879109
_symmetry_space_group_name_H-M "C 2/C"
_symmetry_group_IT_number 15
_symmetry_cell_setting 'monoclinic'
loop_
_space_group_symop_operation_xyz
x,y,z
-x,y,1/2-z
-x,-y,-z
x,-y,1/2+z
1/2+x,1/2+y,z
1/2-x,1/2+y,1/2-z
1/2-x,1/2-y,-z
1/2+x,1/2-y,1/2+z
loop_
_atom_site_type_symbol
_atom_site_label
_atom_site_fract_x
_atom_site_fract_y
_atom_site_fract_z
Si Si1 0.100138 0.182324 0.204582
Si Si2 0.620853 0.395639 0.059130
Si Si3 0.768272 0.306998 0.682210
Si Si4 0.792820 0.664280 0.682551
Si Si5 0.000000 0.463767 0.750000
Si Si6 0.471977 0.802955 0.958885
O O1 0.104996 0.109476 0.367590
O O2 0.144338 0.322064 0.269442
O O3 0.035920 0.236766 0.068134
O O4 0.122423 0.062768 0.129142
O O5 0.676768 0.291609 0.175133
O O6 0.571673 0.320037 0.065104
O O7 0.750000 0.250000 0.500000
O O8 0.778755 0.488253 0.691392
O O9 0.718096 0.259736 0.696685
O O10 0.750000 0.750000 0.500000
O O11 0.970506 0.568682 0.579521
O O12 0.039889 0.363867 0.718951
#
# Coordination Sequence:
#
# PCOD9297888 Si02
#       6
#     8   8   8   8   4   8
#     4  12  27  46  74 105 149 190 239 301 360 438
#     4  12  27  47  73 107 146 190 242 297 365 434
#     4  12  28  47  78 105 143 192 239 303 366 424
#     4  12  26  49  72 105 144 186 243 297 358 432
#     4  10  24  42  70 106 146 182 242 298 352 428
#     4  11  25  46  74 103 152 185 244 292 370 426
#
# _framework density 22.370463999999998
#
# number of rings (size 3 to 8) (size 9 to 14) (size 15 to 20)
#    0.000    0.364    3.636    3.818   10.182    0.000 
#    0.000    0.000    0.000    0.000    0.000    0.000 
#    0.000    0.000    0.000    0.000    0.000    0.000 
#
# Total GULP energy -123065.518861 kJ/mol
# GULP energy per Si atom -5593.887221 kJ/mol
# Density = 2.231955 g / cm^3
# Si number density = 22.370464 Si / 1000 Ang^3
#
#
#
# Elastic Constant Matrix: (Units=GPa)
#
#
# Indices 1 2 3 4 5 6 
#
# 1 143.4354 47.7998 40.7135 0.0000 -6.3400 0.0000
# 2 47.7998 122.6185 26.4035 0.0000 -13.7526 0.0000
# 3 40.7135 26.4035 81.8741 0.0000 -35.9405 0.0000
# 4 0.0000 0.0000 0.0000 22.7052 0.0000 -10.7605
# 5 -6.3400 -13.7526 -35.9405 0.0000 53.3212 0.0000
# 6 0.0000 0.0000 0.0000 -10.7605 0.0000 46.6632
#
#
#
# Elastic Compliance Matrix: (Units=1/GPa)
#
#
# Indices 1 2 3 4 5 6 
#
# 1 0.009200 -0.002852 -0.004968 0.000000 -0.002990 0.000000
# 2 -0.002852 0.009658 -0.001068 0.000000 0.001432 0.000000
# 3 -0.004968 -0.001068 0.020804 0.000000 0.013157 0.000000
# 4 0.000000 0.000000 0.000000 0.049447 0.000000 0.011402
# 5 -0.002990 0.001432 0.013157 0.000000 0.027636 0.000000
# 6 0.000000 0.000000 0.000000 0.011402 0.000000 0.024060
#
#
# Mechanical properties :
#
#
# Convention : Reuss Voigt Hill
#
# Bulk Modulus (GPa) = 45.68953 64.19573 54.94263
# Shear Modulus (GPa) = 30.14328 40.07200 35.10764
#
# Velocity S-wave (km/s) = 3.67476 4.23696 3.96583
# Velocity P-wave (km/s) = 6.20270 7.25911 6.75160
#
# Compressibility (1/GPa) = 0.02188685
#
# Stress axis : x y z
#
# Youngs Moduli (GPa) = 108.69375 103.54429 48.06809
#
# Poissons Ratio (x) = 0.29532 0.23879
# Poissons Ratio (y) = 0.31001 0.05131
# Poissons Ratio (z) = 0.53997 0.11054
#
# Static dielectric constant tensor:
#      x y z
#    x 1.766320 0.000000 0.015110 
#    y 0.000000 1.951290 0.000000 
#    z 0.015110 0.000000 1.784980 
# 
# From -- ./inp_files/68646.got.cif
#   From: 2010.05.17/outbox.cif.g08.bks.cpg/sg15_35_cif.got.tgz:68646.got - 2010.06.03 18:47:42.
