data_PCOD9297897
_publ_section_title
;
Structure prediction by ZEFSAII (Michael W. Deem and Ramdas Pophale) SiO2 
 PCOD9297897
Probable space group: C 2/C
;
_chemical_formula_sum "Si O2"
_cell_formula_units_Z 44
_cell_length_a 9.827918
_cell_length_b 18.842986
_cell_length_c 11.096511
_cell_angle_alpha 90.000000
_cell_angle_beta 113.459299
_cell_angle_gamma 90.000000
_cell_volume 1885.078746
_symmetry_space_group_name_H-M "C 2/C"
_symmetry_group_IT_number 15
_symmetry_cell_setting 'monoclinic'
loop_
_space_group_symop_operation_xyz
x,y,z
-x,y,1/2-z
-x,-y,-z
x,-y,1/2+z
1/2+x,1/2+y,z
1/2-x,1/2+y,1/2-z
1/2-x,1/2-y,-z
1/2+x,1/2-y,1/2+z
loop_
_atom_site_type_symbol
_atom_site_label
_atom_site_fract_x
_atom_site_fract_y
_atom_site_fract_z
Si Si1 0.356733 0.714714 0.867116
Si Si2 0.668207 0.138552 0.258589
Si Si3 0.656468 0.531734 0.013346
Si Si4 0.000000 0.900914 0.250000
Si Si5 0.902291 0.436134 0.013875
Si Si6 0.445213 0.204894 0.610423
O O1 0.308980 0.777369 0.757935
O O2 0.422812 0.649555 0.820272
O O3 0.226661 0.693311 0.913477
O O4 0.471287 0.752134 0.998835
O O5 0.500000 0.129955 0.250000
O O6 0.781669 0.097629 0.386203
O O7 0.672162 0.102231 0.127937
O O8 0.623737 0.554737 0.864322
O O9 0.781439 0.471325 0.057745
O O10 0.500000 0.500000 0.000000
O O11 0.001745 0.374776 0.110030
O O12 0.000000 0.500000 0.000000
O O13 0.500000 0.241925 0.750000
#
# Coordination Sequence:
#
# PCOD9297897 Si02
#       6
#     8   8   8   4   8   8
#     4  10  24  45  64 105 136 177 237 282 355 428
#     4  11  23  44  69 100 139 183 234 297 347 420
#     4  12  27  45  69 102 145 188 235 293 357 425
#     4  12  26  42  74 100 144 182 234 290 356 418
#     4  11  24  42  69 100 136 181 238 285 345 423
#     4  10  24  42  70  95 137 182 228 289 352 417
#
# _framework density 23.341199
#
# number of rings (size 3 to 8) (size 9 to 14) (size 15 to 20)
#    0.000    1.091    2.727    2.182    7.636    0.727 
#    0.000    0.000    0.000    0.000    0.000    0.000 
#    0.000    0.000    0.000    0.000    0.000    0.000 
#
# Total GULP energy -122959.722905 kJ/mol
# GULP energy per Si atom -5589.078314 kJ/mol
# Density = 2.328807 g / cm^3
# Si number density = 23.341199 Si / 1000 Ang^3
#
#
#
# Elastic Constant Matrix: (Units=GPa)
#
#
# Indices 1 2 3 4 5 6 
#
# 1 83.7063 5.6379 -16.5327 0.0000 -9.4239 0.0000
# 2 5.6379 66.6616 2.8216 0.0000 -2.6205 0.0000
# 3 -16.5327 2.8216 99.9338 0.0000 -4.5339 0.0000
# 4 0.0000 0.0000 0.0000 27.7032 0.0000 -14.3473
# 5 -9.4239 -2.6205 -4.5339 0.0000 29.3746 0.0000
# 6 0.0000 0.0000 0.0000 -14.3473 0.0000 32.8837
#
#
#
# Elastic Compliance Matrix: (Units=1/GPa)
#
#
# Indices 1 2 3 4 5 6 
#
# 1 0.012985 -0.001024 0.002379 0.000000 0.004442 0.000000
# 2 -0.001024 0.015148 -0.000555 0.000000 0.000937 0.000000
# 3 0.002379 -0.000555 0.010522 0.000000 0.002338 0.000000
# 4 0.000000 0.000000 0.000000 0.046634 0.000000 0.020347
# 5 0.004442 0.000937 0.002338 0.000000 0.035912 0.000000
# 6 0.000000 0.000000 0.000000 0.020347 0.000000 0.039288
#
#
# Mechanical properties :
#
#
# Convention : Reuss Voigt Hill
#
# Bulk Modulus (GPa) = 24.84177 26.01728 25.42953
# Shear Modulus (GPa) = 29.01772 35.21729 32.11750
#
# Velocity S-wave (km/s) = 3.52973 3.88855 3.71347
# Velocity P-wave (km/s) = 5.22283 5.59748 5.41340
#
# Compressibility (1/GPa) = 0.04025478
#
# Stress axis : x y z
#
# Youngs Moduli (GPa) = 77.00959 66.01495 95.04020
#
# Poissons Ratio (x) = 0.06762 -0.22607
# Poissons Ratio (y) = 0.07888 0.05271
# Poissons Ratio (z) = -0.18318 0.03662
#
# Static dielectric constant tensor:
#      x y z
#    x 1.903180 0.000000 0.064850 
#    y 0.000000 1.910810 0.000000 
#    z 0.064850 0.000000 1.941850 
# 
# From -- ./inp_files/87939.got.cif
#   From: 2010.05.17/outbox.cif.g08.bks.cpg/sg15_44_cif.got.tgz:87939.got - 2010.06.03 18:47:42.
