data_PCOD9297287
_publ_section_title
;
Structure prediction by ZEFSAII (Michael W. Deem and Ramdas Pophale) SiO2 
 PCOD9297287
Probable space group: C 2/C
;
_chemical_formula_sum "Si O2"
_cell_formula_units_Z 44
_cell_length_a 21.661737
_cell_length_b 14.878757
_cell_length_c 17.006256
_cell_angle_alpha 90.000000
_cell_angle_beta 161.108880
_cell_angle_gamma 90.000000
_cell_volume 1774.623794
_symmetry_space_group_name_H-M "C 2/C"
_symmetry_group_IT_number 15
_symmetry_cell_setting 'monoclinic'
loop_
_space_group_symop_operation_xyz
x,y,z
-x,y,1/2-z
-x,-y,-z
x,-y,1/2+z
1/2+x,1/2+y,z
1/2-x,1/2+y,1/2-z
1/2-x,1/2-y,-z
1/2+x,1/2-y,1/2+z
loop_
_atom_site_type_symbol
_atom_site_label
_atom_site_fract_x
_atom_site_fract_y
_atom_site_fract_z
Si Si1 0.752032 0.015162 0.619054
Si Si2 0.212116 0.630190 0.860291
Si Si3 0.030062 0.131022 0.050110
Si Si4 0.000000 0.721434 0.750000
Si Si5 0.815027 0.443411 0.629777
Si Si6 0.626602 0.171119 0.152750
O O1 0.770773 0.069216 0.560107
O O2 0.530396 0.019639 0.374456
O O3 0.850299 0.916320 0.735461
O O4 0.865371 0.064782 0.823827
O O5 0.104233 0.661325 0.810414
O O6 0.291405 0.529725 0.962305
O O7 0.062716 0.624385 0.609186
O O8 0.363824 0.710462 0.037101
O O9 0.191353 0.142147 0.178014
O O10 0.925267 0.226056 0.928180
O O11 0.831828 0.359434 0.708074
#
# Coordination Sequence:
#
# PCOD9297287 Si02
#       6
#     8   8   8   4   8   8
#     4  10  24  46  71  99 140 183 232 287 348 411
#     4  11  23  40  62 100 137 183 223 292 340 426
#     4  11  25  45  72 104 140 184 233 287 348 415
#     4  10  24  38  64  98 142 186 236 280 362 406
#     4  11  24  45  69 101 140 182 229 291 348 419
#     4  12  25  43  71 102 141 182 232 287 350 419
#
# _framework density 24.793987000000001
#
# number of rings (size 3 to 8) (size 9 to 14) (size 15 to 20)
#    0.000    1.091    1.818    3.818    5.091    2.909 
#    0.000    0.000    0.000    0.000    0.000    0.000 
#    0.000    0.000    0.000    0.000    0.000    0.000 
#
# Total GULP energy -123117.039624 kJ/mol
# GULP energy per Si atom -5596.229074 kJ/mol
# Density = 2.473756 g / cm^3
# Si number density = 24.793987 Si / 1000 Ang^3
#
#
#
# Elastic Constant Matrix: (Units=GPa)
#
#
# Indices 1 2 3 4 5 6 
#
# 1 99.1918 26.6365 29.4868 -0.0049 -16.1341 -0.0052
# 2 26.6365 56.3792 11.1480 -0.0103 3.6935 -0.0126
# 3 29.4868 11.1480 94.6813 -0.0032 -2.3607 -0.0064
# 4 -0.0049 -0.0103 -0.0032 41.4121 -0.0026 -6.6781
# 5 -16.1341 3.6935 -2.3607 -0.0026 33.3165 -0.0034
# 6 -0.0052 -0.0126 -0.0064 -6.6781 -0.0034 22.2687
#
#
#
# Elastic Compliance Matrix: (Units=1/GPa)
#
#
# Indices 1 2 3 4 5 6 
#
# 1 0.014000 -0.006412 -0.003424 0.000000 0.007248 0.000000
# 2 -0.006412 0.021254 -0.000643 0.000006 -0.005507 0.000011
# 3 -0.003424 -0.000643 0.011685 0.000001 -0.000759 0.000002
# 4 0.000000 0.000006 0.000001 0.025375 0.000002 0.007610
# 5 0.007248 -0.005507 -0.000759 0.000002 0.034082 0.000004
# 6 0.000000 0.000011 0.000002 0.007610 0.000004 0.047188
#
#
# Mechanical properties :
#
#
# Convention : Reuss Voigt Hill
#
# Bulk Modulus (GPa) = 38.49018 42.75499 40.62258
# Shear Modulus (GPa) = 27.29204 31.59819 29.44512
#
# Velocity S-wave (km/s) = 3.32136 3.57379 3.44988
# Velocity P-wave (km/s) = 5.50148 5.85754 5.68230
#
# Compressibility (1/GPa) = 0.02598066
#
# Stress axis : x y z
#
# Youngs Moduli (GPa) = 71.42699 47.04911 85.57978
#
# Poissons Ratio (x) = 0.30169 0.29306
# Poissons Ratio (y) = 0.45800 0.05502
# Poissons Ratio (z) = 0.24460 0.03025
#
# Static dielectric constant tensor:
#      x y z
#    x 1.977700 0.000000 0.023220 
#    y 0.000000 2.023430 0.000000 
#    z 0.023220 0.000000 1.944080 
# 
# From -- ./inp_files/219667.got.cif
#   From: 2010.05.17/outbox.cif.g08.bks.cpg/sg15_110_cif.got.tgz:219667.got - 2010.06.03 18:47:42.
