data_PCOD9297132
_publ_section_title
;
Structure prediction by ZEFSAII (Michael W. Deem and Ramdas Pophale) SiO2 
 PCOD9297132
Probable space group: C 2/C
;
_chemical_formula_sum "Si O2"
_cell_formula_units_Z 40
_cell_length_a 8.618652
_cell_length_b 22.851948
_cell_length_c 16.657710
_cell_angle_alpha 90.000000
_cell_angle_beta 146.529145
_cell_angle_gamma 90.000000
_cell_volume 1809.395124
_symmetry_space_group_name_H-M "C 2/C"
_symmetry_group_IT_number 15
_symmetry_cell_setting 'monoclinic'
loop_
_space_group_symop_operation_xyz
x,y,z
-x,y,1/2-z
-x,-y,-z
x,-y,1/2+z
1/2+x,1/2+y,z
1/2-x,1/2+y,1/2-z
1/2-x,1/2-y,-z
1/2+x,1/2-y,1/2+z
loop_
_atom_site_type_symbol
_atom_site_label
_atom_site_fract_x
_atom_site_fract_y
_atom_site_fract_z
Si Si1 0.279842 0.083030 0.422339
Si Si2 0.925233 0.809845 0.573577
Si Si3 0.340372 0.543623 0.594568
Si Si4 0.043137 0.242660 0.673321
Si Si5 0.819725 0.130659 0.863493
O O1 0.259645 0.142111 0.461826
O O2 0.554833 0.078976 0.486937
O O3 0.000000 0.082047 0.250000
O O4 0.256378 0.023136 0.464103
O O5 0.750000 0.750000 0.500000
O O6 0.966183 0.838235 0.503334
O O7 0.225881 0.793516 0.742598
O O8 0.500000 0.544384 0.750000
O O9 0.524100 0.574611 0.605972
O O10 0.172278 0.181301 0.700042
O O11 0.000000 0.241277 0.750000
O O12 0.750000 0.250000 0.500000
O O13 0.500000 0.117397 0.750000
#
# Coordination Sequence:
#
# PCOD9297132 Si02
#       5
#     8   8   8   8   8
#     4  10  25  45  74 103 140 188 237 300 363 441
#     4  12  27  44  67 107 147 189 239 298 367 434
#     4  10  23  48  74 103 137 188 243 293 369 435
#     4  12  27  45  68 102 145 191 240 295 363 438
#     4  12  25  43  73 106 141 192 242 305 358 433
#
# _framework density 22.106836000000001
#
# number of rings (size 3 to 8) (size 9 to 14) (size 15 to 20)
#    0.000    0.800    4.000    1.800    8.400    0.800 
#    0.000    1.000    0.000    0.000    0.000    0.000 
#    0.000    0.000    0.000    0.000    0.000    0.000 
#
# Total GULP energy -111897.570418 kJ/mol
# GULP energy per Si atom -5594.878521 kJ/mol
# Density = 2.205652 g / cm^3
# Si number density = 22.106836 Si / 1000 Ang^3
#
#
#
# Elastic Constant Matrix: (Units=GPa)
#
#
# Indices 1 2 3 4 5 6 
#
# 1 111.9992 82.2904 41.8609 0.0015 31.3162 0.0008
# 2 82.2904 145.9087 29.0379 0.0001 18.6676 0.0000
# 3 41.8609 29.0379 140.8567 -0.0006 22.4512 -0.0017
# 4 0.0015 0.0001 -0.0006 31.5210 0.0012 8.7806
# 5 31.3162 18.6676 22.4512 0.0012 39.7400 -0.0002
# 6 0.0008 0.0000 -0.0017 8.7806 -0.0002 39.4895
#
#
#
# Elastic Compliance Matrix: (Units=1/GPa)
#
#
# Indices 1 2 3 4 5 6 
#
# 1 0.019151 -0.009128 -0.002294 0.000000 -0.009508 0.000000
# 2 -0.009128 0.011787 0.000021 0.000000 0.001645 0.000000
# 3 -0.002294 0.000021 0.008232 0.000000 -0.002852 0.000000
# 4 0.000000 0.000000 0.000000 0.033820 -0.000001 -0.007520
# 5 -0.009508 0.001645 -0.002852 -0.000001 0.033495 0.000000
# 6 0.000000 0.000000 0.000000 -0.007520 0.000000 0.026995
#
#
# Mechanical properties :
#
#
# Convention : Reuss Voigt Hill
#
# Bulk Modulus (GPa) = 61.09960 78.34921 69.72440
# Shear Modulus (GPa) = 30.91401 38.52181 34.71791
#
# Velocity S-wave (km/s) = 3.74356 4.17889 3.96720
# Velocity P-wave (km/s) = 6.81058 7.66826 7.25211
#
# Compressibility (1/GPa) = 0.01636672
#
# Stress axis : x y z
#
# Youngs Moduli (GPa) = 52.21546 84.83788 121.48292
#
# Poissons Ratio (x) = 0.77441 0.27872
# Poissons Ratio (y) = 0.47663 -0.00251
# Poissons Ratio (z) = 0.11980 -0.00175
#
# Static dielectric constant tensor:
#      x y z
#    x 1.712700 0.000000 -0.010560 
#    y 0.000000 1.824910 0.000000 
#    z -0.010560 0.000000 1.843480 
# 
# From -- ./inp_files/193461.got.cif
#   From: 2010.05.17/outbox.cif.g08.bks.cpg/sg15_97_cif.got.tgz:193461.got - 2010.06.03 18:47:42.
