data_PCOD9297168
_publ_section_title
;
Structure prediction by ZEFSAII (Michael W. Deem and Ramdas Pophale) SiO2 
 PCOD9297168
Probable space group: C 2/C
;
_chemical_formula_sum "Si O2"
_cell_formula_units_Z 56
_cell_length_a 23.946779
_cell_length_b 9.177533
_cell_length_c 10.154910
_cell_angle_alpha 90.000000
_cell_angle_beta 74.136294
_cell_angle_gamma 90.000000
_cell_volume 2146.770810
_symmetry_space_group_name_H-M "C 2/C"
_symmetry_group_IT_number 15
_symmetry_cell_setting 'monoclinic'
loop_
_space_group_symop_operation_xyz
x,y,z
-x,y,1/2-z
-x,-y,-z
x,-y,1/2+z
1/2+x,1/2+y,z
1/2-x,1/2+y,1/2-z
1/2-x,1/2-y,-z
1/2+x,1/2-y,1/2+z
loop_
_atom_site_type_symbol
_atom_site_label
_atom_site_fract_x
_atom_site_fract_y
_atom_site_fract_z
Si Si1 0.127442 0.331251 0.677924
Si Si2 0.220159 0.116133 0.164171
Si Si3 0.470823 0.698112 0.135924
Si Si4 0.175056 0.909861 0.979107
Si Si5 0.162952 0.622436 0.561459
Si Si6 0.560768 0.945436 0.514458
Si Si7 0.920300 0.092695 0.601890
O O1 0.158339 0.249839 0.536615
O O2 0.161562 0.483667 0.662880
O O3 0.064601 0.373263 0.656392
O O4 0.116156 0.211780 0.795244
O O5 0.212118 0.091805 0.322747
O O6 0.173972 0.238077 0.145903
O O7 0.285433 0.149232 0.076774
O O8 0.206557 0.977108 0.083981
O O9 0.500000 0.754480 0.250000
O O10 0.428636 0.817324 0.099186
O O11 0.440199 0.542859 0.180417
O O12 0.522399 0.661552 0.999690
O O13 0.119684 0.011363 0.979845
O O14 0.106892 0.576275 0.508997
O O15 0.500000 0.000000 0.500000
#
# Coordination Sequence:
#
# PCOD9297168 Si02
#       7
#     8   8   8   8   8   8   8
#     4  10  23  49  75 112 152 208 263 334 394 491
#     4  11  26  51  79 113 153 208 263 344 405 483
#     4  11  25  42  73 111 159 213 266 333 400 490
#     4  12  24  46  79 112 153 205 267 324 408 481
#     4   9  25  53  75 111 156 201 269 332 410 482
#     4  10  24  50  72 105 153 207 259 328 400 484
#     4  11  23  44  73 111 161 206 267 328 406 475
#
# _framework density 26.08569
#
# number of rings (size 3 to 8) (size 9 to 14) (size 15 to 20)
#    0.857    0.571    2.857    0.857    4.000    2.857 
#   12.857    0.000    0.000    0.000    0.000    0.000 
#    0.000    0.000    0.000    0.000    0.000    0.000 
#
# Total GULP energy -156530.350421 kJ/mol
# GULP energy per Si atom -5590.369658 kJ/mol
# Density = 2.602632 g / cm^3
# Si number density = 26.085690 Si / 1000 Ang^3
#
#
#
# Elastic Constant Matrix: (Units=GPa)
#
#
# Indices 1 2 3 4 5 6 
#
# 1 86.3111 29.5580 -10.8479 0.0000 -7.4393 0.0000
# 2 29.5580 119.6442 35.2433 0.0000 -4.9866 0.0000
# 3 -10.8479 35.2433 96.0391 0.0000 -34.1838 0.0000
# 4 0.0000 0.0000 0.0000 29.5081 0.0000 -11.4044
# 5 -7.4393 -4.9866 -34.1838 0.0000 30.7137 0.0000
# 6 0.0000 0.0000 0.0000 -11.4044 0.0000 18.7588
#
#
#
# Elastic Compliance Matrix: (Units=1/GPa)
#
#
# Indices 1 2 3 4 5 6 
#
# 1 0.015586 -0.005737 0.008078 0.000000 0.011834 0.000000
# 2 -0.005737 0.011761 -0.007914 0.000000 -0.008288 0.000000
# 3 0.008078 -0.007914 0.023960 0.000000 0.027338 0.000000
# 4 0.000000 0.000000 0.000000 0.044297 0.000000 0.026931
# 5 0.011834 -0.008288 0.027338 0.000000 0.064507 0.000000
# 6 0.000000 0.000000 0.000000 0.026931 0.000000 0.069681
#
#
# Mechanical properties :
#
#
# Convention : Reuss Voigt Hill
#
# Bulk Modulus (GPa) = 24.89967 45.54457 35.22212
# Shear Modulus (GPa) = 19.65995 32.33219 25.99607
#
# Velocity S-wave (km/s) = 2.74828 3.52442 3.16027
# Velocity P-wave (km/s) = 4.43134 5.83605 5.18152
#
# Compressibility (1/GPa) = 0.04016118
#
# Stress axis : x y z
#
# Youngs Moduli (GPa) = 64.16072 85.02592 41.73665
#
# Poissons Ratio (x) = 0.48777 -0.33714
# Poissons Ratio (y) = 0.36807 0.33030
# Poissons Ratio (z) = -0.51828 0.67289
#
# Static dielectric constant tensor:
#      x y z
#    x 2.177110 0.000000 -0.039290 
#    y 0.000000 2.143970 0.000000 
#    z -0.039290 0.000000 2.064930 
# 
# From -- ./inp_files/121858.got.cif
#   From: 2010.05.17/outbox.cif.g08.bks.cpg/sg15_61_cif.got.tgz:121858.got - 2010.06.03 18:47:42.
