data_PCOD9297973
_publ_section_title
;
Structure prediction by ZEFSAII (Michael W. Deem and Ramdas Pophale) SiO2 
 PCOD9297973
Probable space group: C 2/C
;
_chemical_formula_sum "Si O2"
_cell_formula_units_Z 28
_cell_length_a 19.137408
_cell_length_b 9.540257
_cell_length_c 9.201759
_cell_angle_alpha 90.000000
_cell_angle_beta 45.639081
_cell_angle_gamma 90.000000
_cell_volume 1201.128750
_symmetry_space_group_name_H-M "C 2/C"
_symmetry_group_IT_number 15
_symmetry_cell_setting 'monoclinic'
loop_
_space_group_symop_operation_xyz
x,y,z
-x,y,1/2-z
-x,-y,-z
x,-y,1/2+z
1/2+x,1/2+y,z
1/2-x,1/2+y,1/2-z
1/2-x,1/2-y,-z
1/2+x,1/2-y,1/2+z
loop_
_atom_site_type_symbol
_atom_site_label
_atom_site_fract_x
_atom_site_fract_y
_atom_site_fract_z
Si Si1 0.713789 0.907461 0.530374
Si Si2 0.876722 0.123052 0.176217
Si Si3 0.000000 0.003553 0.250000
Si Si4 0.602402 0.059825 0.913789
O O1 0.750000 0.750000 0.500000
O O2 0.620058 0.923408 0.559796
O O3 0.793706 0.013280 0.346090
O O4 0.681522 0.953427 0.736080
O O5 0.862511 0.289301 0.199045
O O6 0.957325 0.096533 0.183341
O O7 0.919806 0.087246 0.953705
O O8 0.500000 0.000000 0.000000
#
# Coordination Sequence:
#
# PCOD9297973 Si02
#       4
#     8   8   4   8
#     4  12  27  49  76 108 150 193 246 305 372 443
#     4  11  25  46  73 103 145 189 242 296 367 433
#     4  10  24  42  76 104 138 184 244 298 360 428
#     4  12  28  45  75 109 149 191 248 302 370 437
#
# _framework density 23.311405000000001
#
# number of rings (size 3 to 8) (size 9 to 14) (size 15 to 20)
#    0.000    0.571    0.000    6.857   16.000    0.000 
#    0.000    0.000    0.000    0.000    0.000    0.000 
#    0.000    0.000    0.000    0.000    0.000    0.000 
#
# Total GULP energy -78190.122244 kJ/mol
# GULP energy per Si atom -5585.008732 kJ/mol
# Density = 2.325835 g / cm^3
# Si number density = 23.311405 Si / 1000 Ang^3
#
#
#
# Elastic Constant Matrix: (Units=GPa)
#
#
# Indices 1 2 3 4 5 6 
#
# 1 106.9748 17.2154 13.5186 0.0000 19.4268 0.0000
# 2 17.2154 152.8055 26.5546 0.0000 -8.9770 0.0000
# 3 13.5186 26.5546 103.2858 0.0000 5.3941 0.0000
# 4 0.0000 0.0000 0.0000 34.3803 0.0000 -1.6942
# 5 19.4268 -8.9770 5.3941 0.0000 44.7471 0.0000
# 6 0.0000 0.0000 0.0000 -1.6942 0.0000 29.8679
#
#
#
# Elastic Compliance Matrix: (Units=1/GPa)
#
#
# Indices 1 2 3 4 5 6 
#
# 1 0.010522 -0.001327 -0.000789 0.000000 -0.004739 0.000000
# 2 -0.001327 0.007133 -0.001776 0.000000 0.002221 0.000000
# 3 -0.000789 -0.001776 0.010307 0.000000 -0.001257 0.000000
# 4 0.000000 0.000000 0.000000 0.029168 0.000000 0.001655
# 5 -0.004739 0.002221 -0.001257 0.000000 0.025002 0.000000
# 6 0.000000 0.000000 0.000000 0.001655 0.000000 0.033575
#
#
# Mechanical properties :
#
#
# Convention : Reuss Voigt Hill
#
# Bulk Modulus (GPa) = 49.55643 53.07148 51.31395
# Shear Modulus (GPa) = 38.39763 42.18422 40.29092
#
# Velocity S-wave (km/s) = 4.06293 4.25855 4.16189
# Velocity P-wave (km/s) = 6.58137 6.85537 6.71976
#
# Compressibility (1/GPa) = 0.02017902
#
# Stress axis : x y z
#
# Youngs Moduli (GPa) = 95.04084 140.19546 97.01808
#
# Poissons Ratio (x) = 0.18601 0.07650
# Poissons Ratio (y) = 0.12610 0.17232
# Poissons Ratio (z) = 0.07494 0.24901
#
# Static dielectric constant tensor:
#      x y z
#    x 1.974610 0.000000 -0.063450 
#    y 0.000000 2.232770 0.000000 
#    z -0.063450 0.000000 1.923250 
# 
# From -- ./inp_files/53329.got.cif
#   From: 2010.05.17/outbox.cif.g08.bks.cpg/sg15_27_cif.got.tgz:53329.got - 2010.06.03 18:47:42.
