data_PCOD9297577
_publ_section_title
;
Structure prediction by ZEFSAII (Michael W. Deem and Ramdas Pophale) SiO2 
 PCOD9297577
Probable space group: C 2/C
;
_chemical_formula_sum "Si O2"
_cell_formula_units_Z 56
_cell_length_a 15.376329
_cell_length_b 26.999340
_cell_length_c 8.125907
_cell_angle_alpha 90.000000
_cell_angle_beta 59.006204
_cell_angle_gamma 90.000000
_cell_volume 2891.821657
_symmetry_space_group_name_H-M "C 2/C"
_symmetry_group_IT_number 15
_symmetry_cell_setting 'monoclinic'
loop_
_space_group_symop_operation_xyz
x,y,z
-x,y,1/2-z
-x,-y,-z
x,-y,1/2+z
1/2+x,1/2+y,z
1/2-x,1/2+y,1/2-z
1/2-x,1/2-y,-z
1/2+x,1/2-y,1/2+z
loop_
_atom_site_type_symbol
_atom_site_label
_atom_site_fract_x
_atom_site_fract_y
_atom_site_fract_z
Si Si1 0.620440 0.354342 0.638972
Si Si2 0.577280 0.156525 0.796624
Si Si3 0.884048 0.513514 0.156241
Si Si4 0.266903 0.316518 0.648270
Si Si5 0.283858 0.929651 0.452187
Si Si6 0.926651 0.614919 0.188644
Si Si7 0.269623 0.702632 0.767395
O O1 0.500000 0.355424 0.750000
O O2 0.656969 0.333245 0.781232
O O3 0.669962 0.409337 0.570923
O O4 0.664033 0.321304 0.443941
O O5 0.500000 0.185288 0.750000
O O6 0.654922 0.121455 0.625363
O O7 0.651832 0.187768 0.840968
O O8 0.502118 0.118202 0.960815
O O9 0.818840 0.466642 0.274537
O O10 0.896290 0.559403 0.271943
O O11 0.824485 0.541127 0.069651
O O12 0.000000 0.500000 0.000000
O O13 0.173161 0.354036 0.741446
O O14 0.300247 0.314802 0.422600
O O15 0.227217 0.261874 0.732911
O O16 0.000000 0.639238 0.250000
#
# Coordination Sequence:
#
# PCOD9297577 Si02
#       7
#     8   8   8   8   8   8   8
#     4  11  25  47  68  88 131 186 231 273 319 377
#     4  11  19  37  59  92 132 167 201 257 332 402
#     4  12  21  35  61  96 128 160 199 257 344 409
#     4  11  23  43  65  99 133 166 221 276 330 384
#     4  11  23  39  59  93 131 162 212 271 323 400
#     4  12  21  34  60  94 131 163 196 255 337 409
#     4  10  24  41  66  96 132 171 221 280 322 387
#
# _framework density 19.364955999999999
#
# number of rings (size 3 to 8) (size 9 to 14) (size 15 to 20)
#    0.000    0.857    5.714    2.571    0.000    2.286 
#    0.000    0.714    0.000    0.000    0.000    0.000 
#    0.000    0.000    0.000    0.000    0.000    0.000 
#
# Total GULP energy -156046.354147 kJ/mol
# GULP energy per Si atom -5573.084077 kJ/mol
# Density = 1.932088 g / cm^3
# Si number density = 19.364956 Si / 1000 Ang^3
#
#
#
# Elastic Constant Matrix: (Units=GPa)
#
#
# Indices 1 2 3 4 5 6 
#
# 1 152.8808 54.6251 72.3762 0.0000 -2.1722 0.0000
# 2 54.6251 106.8499 36.1274 0.0000 -5.4532 0.0000
# 3 72.3762 36.1274 83.8739 0.0000 1.0789 0.0000
# 4 0.0000 0.0000 0.0000 26.5703 0.0000 10.3816
# 5 -2.1722 -5.4532 1.0789 0.0000 34.8375 0.0000
# 6 0.0000 0.0000 0.0000 10.3816 0.0000 24.6714
#
#
#
# Elastic Compliance Matrix: (Units=1/GPa)
#
#
# Indices 1 2 3 4 5 6 
#
# 1 0.011858 -0.003011 -0.008943 0.000000 0.000545 0.000000
# 2 -0.003011 0.011841 -0.002525 0.000000 0.001744 0.000000
# 3 -0.008943 -0.002525 0.020748 0.000000 -0.001595 0.000000
# 4 0.000000 0.000000 0.000000 0.045041 0.000000 -0.018953
# 5 0.000545 0.001744 -0.001595 0.000000 0.029061 0.000000
# 6 0.000000 0.000000 0.000000 -0.018953 0.000000 0.048508
#
#
# Mechanical properties :
#
#
# Convention : Reuss Voigt Hill
#
# Bulk Modulus (GPa) = 64.55740 74.42910 69.49325
# Shear Modulus (GPa) = 24.85374 29.24757 27.05065
#
# Velocity S-wave (km/s) = 3.58640 3.89052 3.74155
# Velocity P-wave (km/s) = 7.11050 7.66159 7.39118
#
# Compressibility (1/GPa) = 0.01549009
#
# Stress axis : x y z
#
# Youngs Moduli (GPa) = 84.32943 84.45416 48.19851
#
# Poissons Ratio (x) = 0.25428 0.43103
# Poissons Ratio (y) = 0.25390 0.12168
# Poissons Ratio (z) = 0.75414 0.21321
#
# Static dielectric constant tensor:
#      x y z
#    x 1.713880 0.000000 0.082690 
#    y 0.000000 1.695610 0.000000 
#    z 0.082690 0.000000 1.770200 
# 
# From -- ./inp_files/43468.got.cif
#   From: 2010.05.17/outbox.cif.g08.bks.cpg/sg15_22_cif.got.tgz:43468.got - 2010.06.03 18:47:42.
