data_PCOD9297323
_publ_section_title
;
Structure prediction by ZEFSAII (Michael W. Deem and Ramdas Pophale) SiO2 
 PCOD9297323
Probable space group: C 2/C
;
_chemical_formula_sum "Si O2"
_cell_formula_units_Z 32
_cell_length_a 5.985145
_cell_length_b 29.282016
_cell_length_c 8.798159
_cell_angle_alpha 90.000000
_cell_angle_beta 91.395279
_cell_angle_gamma 90.000000
_cell_volume 1541.482748
_symmetry_space_group_name_H-M "C 2/C"
_symmetry_group_IT_number 15
_symmetry_cell_setting 'monoclinic'
loop_
_space_group_symop_operation_xyz
x,y,z
-x,y,1/2-z
-x,-y,-z
x,-y,1/2+z
1/2+x,1/2+y,z
1/2-x,1/2+y,1/2-z
1/2-x,1/2-y,-z
1/2+x,1/2-y,1/2+z
loop_
_atom_site_type_symbol
_atom_site_label
_atom_site_fract_x
_atom_site_fract_y
_atom_site_fract_z
Si Si1 0.500000 0.495951 0.750000
Si Si2 0.363595 0.788122 0.603234
Si Si3 0.000000 0.146261 0.250000
Si Si4 0.405740 0.876204 0.920239
Si Si5 0.315374 0.039502 0.999514
O O1 0.356500 0.527976 0.636672
O O2 0.327230 0.466172 0.847515
O O3 0.500000 0.768662 0.750000
O O4 0.250000 0.750000 0.500000
O O5 0.531223 0.824809 0.527056
O O6 0.170147 0.820518 0.666430
O O7 0.141593 0.119814 0.382363
O O8 0.500000 0.881531 0.750000
O O9 0.543221 0.914054 0.012609
O O10 0.500000 0.000000 0.000000
#
# Coordination Sequence:
#
# PCOD9297323 Si02
#       5
#     4   8   4   8   8
#     4  10  24  39  60  84 124 156 192 254 293 346
#     4   9  19  35  56  84 112 147 194 236 293 353
#     4   8  18  35  60  82 112 146 190 240 285 344
#     4   9  19  34  57  86 108 148 197 234 287 355
#     4  11  22  39  60  87 118 158 201 241 299 355
#
# _framework density 20.759232999999998
#
# number of rings (size 3 to 8) (size 9 to 14) (size 15 to 20)
#    0.000    3.000    0.000    2.250    0.000   17.000 
#    2.250    0.000    5.500    0.000    0.000    0.000 
#    0.000    0.000    0.000    0.000    0.000    0.000 
#
# Total GULP energy -89192.773500 kJ/mol
# GULP energy per Si atom -5574.548344 kJ/mol
# Density = 2.071198 g / cm^3
# Si number density = 20.759233 Si / 1000 Ang^3
#
#
#
# Elastic Constant Matrix: (Units=GPa)
#
#
# Indices 1 2 3 4 5 6 
#
# 1 139.4557 55.4034 47.8727 0.0000 30.4750 0.0000
# 2 55.4034 126.1087 46.8455 0.0000 43.8551 0.0000
# 3 47.8727 46.8455 68.4406 0.0000 26.6483 0.0000
# 4 0.0000 0.0000 0.0000 23.9014 0.0000 17.7660
# 5 30.4750 43.8551 26.6483 0.0000 40.0376 0.0000
# 6 0.0000 0.0000 0.0000 17.7660 0.0000 41.8113
#
#
#
# Elastic Compliance Matrix: (Units=1/GPa)
#
#
# Indices 1 2 3 4 5 6 
#
# 1 0.010090 -0.001742 -0.004884 0.000000 -0.002522 0.000000
# 2 -0.001742 0.014204 -0.003999 0.000000 -0.011571 0.000000
# 3 -0.004884 -0.003999 0.023772 0.000000 -0.007725 0.000000
# 4 0.000000 0.000000 0.000000 0.061153 0.000000 -0.025984
# 5 -0.002522 -0.011571 -0.007725 0.000000 0.044713 0.000000
# 6 0.000000 0.000000 0.000000 -0.025984 0.000000 0.034958
#
#
# Mechanical properties :
#
#
# Convention : Reuss Voigt Hill
#
# Bulk Modulus (GPa) = 37.28784 70.47202 53.87993
# Shear Modulus (GPa) = 22.82292 33.40896 28.11594
#
# Velocity S-wave (km/s) = 3.31933 4.01603 3.68419
# Velocity P-wave (km/s) = 5.71766 7.45155 6.64144
#
# Compressibility (1/GPa) = 0.02681840
#
# Stress axis : x y z
#
# Youngs Moduli (GPa) = 99.10442 70.40136 42.06620
#
# Poissons Ratio (x) = 0.12263 0.20544
# Poissons Ratio (y) = 0.17262 0.16820
# Poissons Ratio (z) = 0.48401 0.28150
#
# Static dielectric constant tensor:
#      x y z
#    x 1.845410 0.000000 -0.002670 
#    y 0.000000 1.799260 0.000000 
#    z -0.002670 0.000000 1.749810 
# 
# From -- ./inp_files/19966.got.cif
#   From: 2010.05.17/outbox.cif.g08.bks.cpg/sg15_10_cif.got.tgz:19966.got - 2010.06.03 18:47:42.
