data_PCOD9297599
_publ_section_title
;
Structure prediction by ZEFSAII (Michael W. Deem and Ramdas Pophale) SiO2 
 PCOD9297599
Probable space group: C 2/C
;
_chemical_formula_sum "Si O2"
_cell_formula_units_Z 32
_cell_length_a 15.977459
_cell_length_b 15.604083
_cell_length_c 7.989480
_cell_angle_alpha 90.000000
_cell_angle_beta 37.331214
_cell_angle_gamma 90.000000
_cell_volume 1207.922838
_symmetry_space_group_name_H-M "C 2/C"
_symmetry_group_IT_number 15
_symmetry_cell_setting 'monoclinic'
loop_
_space_group_symop_operation_xyz
x,y,z
-x,y,1/2-z
-x,-y,-z
x,-y,1/2+z
1/2+x,1/2+y,z
1/2-x,1/2+y,1/2-z
1/2-x,1/2-y,-z
1/2+x,1/2-y,1/2+z
loop_
_atom_site_type_symbol
_atom_site_label
_atom_site_fract_x
_atom_site_fract_y
_atom_site_fract_z
Si Si1 0.500000 0.146320 0.250000
Si Si2 0.000000 0.917385 0.750000
Si Si3 0.147300 0.638158 0.475199
Si Si4 0.446864 0.691197 0.003354
Si Si5 0.698712 0.029367 0.730135
O O1 0.478226 0.216837 0.136187
O O2 0.377101 0.087849 0.511517
O O3 0.138479 0.970379 0.500063
O O4 0.980266 0.859674 0.616286
O O5 0.174571 0.576012 0.592484
O O6 0.143501 0.567264 0.333836
O O7 0.280159 0.699289 0.254082
O O8 0.000000 0.678743 0.750000
O O9 0.500000 0.645442 0.750000
#
# Coordination Sequence:
#
# PCOD9297599 Si02
#       5
#     4   4   8   8   8
#     4  10  24  47  62 101 138 172 226 270 342 397
#     4  10  24  41  68 103 130 176 226 276 326 405
#     4  11  24  42  69  97 135 177 223 275 334 397
#     4   9  24  46  67  96 136 178 220 273 338 394
#     4  11  25  43  67 102 134 173 228 275 333 402
#
# _framework density 26.491758000000001
#
# number of rings (size 3 to 8) (size 9 to 14) (size 15 to 20)
#    0.750    1.000    1.250    0.750    5.250    7.000 
#    9.000    0.000    0.000    0.000    0.000    0.000 
#    0.000    0.000    0.000    0.000    0.000    0.000 
#
# Total GULP energy -89640.741263 kJ/mol
# GULP energy per Si atom -5602.546329 kJ/mol
# Density = 2.643146 g / cm^3
# Si number density = 26.491758 Si / 1000 Ang^3
#
#
#
# Elastic Constant Matrix: (Units=GPa)
#
#
# Indices 1 2 3 4 5 6 
#
# 1 68.6278 5.9654 54.6207 0.0000 16.9023 0.0000
# 2 5.9654 120.8397 55.3259 0.0000 4.7242 0.0000
# 3 54.6207 55.3259 192.3087 -0.0001 -9.2441 0.0000
# 4 0.0000 0.0000 -0.0001 -170.2654 0.0001 -44.3819
# 5 16.9023 4.7242 -9.2441 0.0001 64.6720 0.0000
# 6 0.0000 0.0000 0.0000 -44.3819 0.0000 9.7684
#
#
#
# Elastic Compliance Matrix: (Units=1/GPa)
#
#
# Indices 1 2 3 4 5 6 
#
# 1 0.021837 0.002516 -0.007259 0.000000 -0.006929 0.000000
# 2 0.002516 0.009899 -0.003654 0.000000 -0.001903 0.000000
# 3 -0.007259 -0.003654 0.008475 0.000000 0.003376 0.000000
# 4 0.000000 0.000000 0.000000 -0.002689 0.000000 -0.012216
# 5 -0.006929 -0.001903 0.003376 0.000000 0.017895 0.000000
# 6 0.000000 0.000000 0.000000 -0.012216 0.000000 0.046867
#
#
# Mechanical properties :
#
#
# Convention : Reuss Voigt Hill
#
# Bulk Modulus (GPa) = 42.70399 68.17780 55.44090
# Shear Modulus (GPa) = 39.40660 -1.44075 18.98293
#
# Velocity S-wave (km/s) = 3.86100 -0.73826 2.67977
# Velocity P-wave (km/s) = 6.00260 5.00646 5.52702
#
# Compressibility (1/GPa) = 0.02341702
#
# Stress axis : x y z
#
# Youngs Moduli (GPa) = 45.79472 101.02490 117.99056
#
# Poissons Ratio (x) = -0.25423 0.85651
# Poissons Ratio (y) = -0.11524 0.43113
# Poissons Ratio (z) = 0.33243 0.36914
#
# Static dielectric constant tensor:
#      x y z
#    x 2.199860 0.000000 0.048730 
#    y 0.000000 2.011020 0.000000 
#    z 0.048730 0.000000 2.001450 
# 
# From -- ./inp_files/28053.got.cif
#   From: 2010.05.17/outbox.cif.g08.bks.cpg/sg15_15_cif.got.tgz:28053.got - 2010.06.03 18:47:42.
