data_PCOD9297025
_publ_section_title
;
Structure prediction by ZEFSAII (Michael W. Deem and Ramdas Pophale) SiO2 
 PCOD9297025
Probable space group: C 2/C
;
_chemical_formula_sum "Si O2"
_cell_formula_units_Z 40
_cell_length_a 7.544435
_cell_length_b 11.783035
_cell_length_c 22.106454
_cell_angle_alpha 90.000000
_cell_angle_beta 132.097093
_cell_angle_gamma 90.000000
_cell_volume 1458.185070
_symmetry_space_group_name_H-M "C 2/C"
_symmetry_group_IT_number 15
_symmetry_cell_setting 'monoclinic'
loop_
_space_group_symop_operation_xyz
x,y,z
-x,y,1/2-z
-x,-y,-z
x,-y,1/2+z
1/2+x,1/2+y,z
1/2-x,1/2+y,1/2-z
1/2-x,1/2-y,-z
1/2+x,1/2-y,1/2+z
loop_
_atom_site_type_symbol
_atom_site_label
_atom_site_fract_x
_atom_site_fract_y
_atom_site_fract_z
Si Si1 0.390669 0.616629 0.000331
Si Si2 0.377533 0.831580 0.414528
Si Si3 0.000000 0.625754 0.750000
Si Si4 0.539814 0.267040 0.107434
Si Si5 0.000000 0.030768 0.750000
Si Si6 0.420264 0.915767 0.794659
O O1 0.555739 0.697831 0.080710
O O2 0.010812 0.641563 0.126836
O O3 0.500000 0.500000 0.000000
O O4 0.132023 0.606232 0.971862
O O5 0.200445 0.892615 0.327264
O O6 0.207444 0.830542 0.434935
O O7 0.241562 0.693983 0.798717
O O8 0.046922 0.537522 0.814789
O O9 0.858759 0.050055 0.264768
O O10 0.625863 0.297074 0.060981
O O11 0.500000 0.856242 0.750000
#
# Coordination Sequence:
#
# PCOD9297025 Si02
#       6
#     8   8   4   8   4   8
#     4  11  29  55  78 116 166 217 269 334 404 484
#     4  11  27  50  82 116 159 211 274 328 402 488
#     4  10  23  47  70 118 154 196 264 334 386 466
#     4  12  25  49  81 113 161 206 268 327 401 485
#     4  12  23  49  82 118 152 212 270 334 414 472
#     4  10  25  43  73 115 159 197 253 337 397 464
#
# _framework density 27.431360000000002
#
# number of rings (size 3 to 8) (size 9 to 14) (size 15 to 20)
#    0.600    0.400    2.000    2.400    7.000    2.400 
#    7.200    0.000    0.000    0.000    0.000    0.000 
#    0.000    0.000    0.000    0.000    0.000    0.000 
#
# Total GULP energy -111772.634525 kJ/mol
# GULP energy per Si atom -5588.631726 kJ/mol
# Density = 2.736893 g / cm^3
# Si number density = 27.431360 Si / 1000 Ang^3
#
#
#
# Elastic Constant Matrix: (Units=GPa)
#
#
# Indices 1 2 3 4 5 6 
#
# 1 193.7298 49.7678 47.0207 0.0000 21.3942 0.0000
# 2 49.7678 135.6308 48.7398 0.0000 6.5435 0.0000
# 3 47.0207 48.7398 114.6823 0.0000 14.2299 0.0000
# 4 0.0000 0.0000 0.0000 46.7565 0.0000 -0.9366
# 5 21.3942 6.5435 14.2299 0.0000 56.3626 0.0000
# 6 0.0000 0.0000 0.0000 -0.9366 0.0000 41.0025
#
#
#
# Elastic Compliance Matrix: (Units=1/GPa)
#
#
# Indices 1 2 3 4 5 6 
#
# 1 0.006159 -0.001589 -0.001634 0.000000 -0.001741 0.000000
# 2 -0.001589 0.009112 -0.003267 0.000000 0.000370 0.000000
# 3 -0.001634 -0.003267 0.010999 0.000000 -0.001777 0.000000
# 4 0.000000 0.000000 0.000000 0.021397 0.000000 0.000489
# 5 -0.001741 0.000370 -0.001777 0.000000 0.018809 0.000000
# 6 0.000000 0.000000 0.000000 0.000489 0.000000 0.024400
#
#
# Mechanical properties :
#
#
# Convention : Reuss Voigt Hill
#
# Bulk Modulus (GPa) = 75.24458 81.67771 78.46115
# Shear Modulus (GPa) = 46.17431 48.72527 47.44979
#
# Velocity S-wave (km/s) = 4.10722 4.21914 4.16356
# Velocity P-wave (km/s) = 7.06979 7.31948 7.19572
#
# Compressibility (1/GPa) = 0.01328999
#
# Stress axis : x y z
#
# Youngs Moduli (GPa) = 162.36976 109.74371 90.91941
#
# Poissons Ratio (x) = 0.17435 0.14856
# Poissons Ratio (y) = 0.25796 0.29705
# Poissons Ratio (z) = 0.26530 0.35855
#
# Static dielectric constant tensor:
#      x y z
#    x 2.142990 0.000000 -0.049790 
#    y 0.000000 2.173840 0.000000 
#    z -0.049790 0.000000 2.288150 
# 
# From -- ./inp_files/287820.got.cif
#   From: 2010.05.17/outbox.cif.g08.bks.cpg/sg15_144_cif.got.tgz:287820.got - 2010.06.03 18:47:42.
