data_PCOD9297805
_publ_section_title
;
Structure prediction by ZEFSAII (Michael W. Deem and Ramdas Pophale) SiO2 
 PCOD9297805
Probable space group: C 2/C
;
_chemical_formula_sum "Si O2"
_cell_formula_units_Z 44
_cell_length_a 24.030324
_cell_length_b 10.181927
_cell_length_c 10.595970
_cell_angle_alpha 90.000000
_cell_angle_beta 138.740793
_cell_angle_gamma 90.000000
_cell_volume 1709.712726
_symmetry_space_group_name_H-M "C 2/C"
_symmetry_group_IT_number 15
_symmetry_cell_setting 'monoclinic'
loop_
_space_group_symop_operation_xyz
x,y,z
-x,y,1/2-z
-x,-y,-z
x,-y,1/2+z
1/2+x,1/2+y,z
1/2-x,1/2+y,1/2-z
1/2-x,1/2-y,-z
1/2+x,1/2-y,1/2+z
loop_
_atom_site_type_symbol
_atom_site_label
_atom_site_fract_x
_atom_site_fract_y
_atom_site_fract_z
Si Si1 0.500000 0.007300 0.750000
Si Si2 0.257229 0.994384 0.411665
Si Si3 0.730799 0.873863 0.814001
Si Si4 0.089511 0.750857 0.458558
Si Si5 0.082427 0.074424 0.179097
Si Si6 0.872901 0.715853 0.576966
O O1 0.430122 0.904690 0.581013
O O2 0.445876 0.110981 0.736860
O O3 0.262419 0.997435 0.267593
O O4 0.160381 0.982741 0.282092
O O5 0.291275 0.142610 0.496726
O O6 0.295390 0.905623 0.587978
O O7 0.655238 0.793988 0.617601
O O8 0.822197 0.801301 0.951908
O O9 0.092667 0.800278 0.605747
O O10 0.000000 0.807428 0.250000
O O11 0.096527 0.139923 0.338155
O O12 0.000000 0.000000 0.000000
#
# Coordination Sequence:
#
# PCOD9297805 Si02
#       6
#     4   8   8   8   8   8
#     4  10  24  44  62 100 138 194 230 302 352 430
#     4   9  21  40  71 102 141 185 242 295 361 428
#     4   9  20  40  70 104 134 194 237 296 356 437
#     4   9  21  40  68  95 143 185 233 291 369 411
#     4  11  22  41  71 103 141 189 237 301 363 433
#     4  10  24  42  68 101 138 189 241 293 360 433
#
# _framework density 25.735316000000001
#
# number of rings (size 3 to 8) (size 9 to 14) (size 15 to 20)
#    1.636    0.727    0.000    1.636    2.545    0.727 
#    8.182    0.909    0.000    0.000    0.000    0.000 
#    0.000    0.000    0.000    0.000    0.000    0.000 
#
# Total GULP energy -122468.948221 kJ/mol
# GULP energy per Si atom -5566.770374 kJ/mol
# Density = 2.567674 g / cm^3
# Si number density = 25.735316 Si / 1000 Ang^3
#
#
#
# Elastic Constant Matrix: (Units=GPa)
#
#
# Indices 1 2 3 4 5 6 
#
# 1 69.3775 37.3249 40.6067 0.0000 -8.2885 0.0000
# 2 37.3249 77.2869 40.4744 0.0000 -12.3363 0.0000
# 3 40.6067 40.4744 132.1854 0.0000 5.1341 0.0000
# 4 0.0000 0.0000 0.0000 46.1974 0.0000 -3.3220
# 5 -8.2885 -12.3363 5.1341 0.0000 46.1854 0.0000
# 6 0.0000 0.0000 0.0000 -3.3220 0.0000 25.5927
#
#
#
# Elastic Compliance Matrix: (Units=1/GPa)
#
#
# Indices 1 2 3 4 5 6 
#
# 1 0.021332 -0.007701 -0.004282 0.000000 0.002247 0.000000
# 2 -0.007701 0.019258 -0.003693 0.000000 0.004172 0.000000
# 3 -0.004282 -0.003693 0.010123 0.000000 -0.002880 0.000000
# 4 0.000000 0.000000 0.000000 0.021850 0.000000 0.002836
# 5 0.002247 0.004172 -0.002880 0.000000 0.023490 0.000000
# 6 0.000000 0.000000 0.000000 0.002836 0.000000 0.039442
#
#
# Mechanical properties :
#
#
# Convention : Reuss Voigt Hill
#
# Bulk Modulus (GPa) = 51.65107 57.29576 54.47342
# Shear Modulus (GPa) = 28.85163 34.29134 31.57149
#
# Velocity S-wave (km/s) = 3.35190 3.65425 3.50634
# Velocity P-wave (km/s) = 5.92402 6.33376 6.13231
#
# Compressibility (1/GPa) = 0.01936068
#
# Stress axis : x y z
#
# Youngs Moduli (GPa) = 46.87839 51.92724 98.78152
#
# Poissons Ratio (x) = 0.39987 0.42303
# Poissons Ratio (y) = 0.36099 0.36481
# Poissons Ratio (z) = 0.20075 0.19177
#
# Static dielectric constant tensor:
#      x y z
#    x 2.083820 0.000000 -0.044060 
#    y 0.000000 2.115930 0.000000 
#    z -0.044060 0.000000 2.131260 
# 
# From -- ./inp_files/122738.got.cif
#   From: 2010.05.17/outbox.cif.g08.bks.cpg/sg15_62_cif.got.tgz:122738.got - 2010.06.03 18:47:42.
