data_PCOD9297288
_publ_section_title
;
Structure prediction by ZEFSAII (Michael W. Deem and Ramdas Pophale) SiO2 
 PCOD9297288
Probable space group: C 2/C
;
_chemical_formula_sum "Si O2"
_cell_formula_units_Z 24
_cell_length_a 7.767181
_cell_length_b 28.103271
_cell_length_c 5.261463
_cell_angle_alpha 90.000000
_cell_angle_beta 116.577073
_cell_angle_gamma 90.000000
_cell_volume 1027.131947
_symmetry_space_group_name_H-M "C 2/C"
_symmetry_group_IT_number 15
_symmetry_cell_setting 'monoclinic'
loop_
_space_group_symop_operation_xyz
x,y,z
-x,y,1/2-z
-x,-y,-z
x,-y,1/2+z
1/2+x,1/2+y,z
1/2-x,1/2+y,1/2-z
1/2-x,1/2-y,-z
1/2+x,1/2-y,1/2+z
loop_
_atom_site_type_symbol
_atom_site_label
_atom_site_fract_x
_atom_site_fract_y
_atom_site_fract_z
Si Si1 0.500000 0.466992 0.750000
Si Si2 0.000000 0.636249 0.250000
Si Si3 0.179288 0.106312 0.683347
Si Si4 0.708746 0.194794 0.008222
O O1 0.500000 0.500000 0.500000
O O2 0.330274 0.429845 0.561591
O O3 0.832848 0.671682 0.245905
O O4 0.119159 0.605191 0.531769
O O5 0.155102 0.159535 0.556523
O O6 0.000000 0.095855 0.750000
O O7 0.500000 0.188138 0.750000
O O8 0.750000 0.250000 0.000000
#
# Coordination Sequence:
#
# PCOD9297288 Si02
#       4
#     4   4   8   8
#     4  12  26  48  79 114 140 193 252 312 386 444
#     4  10  24  44  65 106 148 197 246 298 368 438
#     4  11  24  45  75 102 150 191 246 309 369 436
#     4  10  24  38  65 103 147 196 248 294 364 436
#
# _framework density 23.366036000000001
#
# number of rings (size 3 to 8) (size 9 to 14) (size 15 to 20)
#    0.000    1.333    1.667    2.000    9.333    2.667 
#    0.000    1.667    0.000    0.000    0.000    0.000 
#    0.000    0.000    0.000    0.000    0.000    0.000 
#
# Total GULP energy -66901.470414 kJ/mol
# GULP energy per Si atom -5575.122534 kJ/mol
# Density = 2.331285 g / cm^3
# Si number density = 23.366036 Si / 1000 Ang^3
#
#
#
# Elastic Constant Matrix: (Units=GPa)
#
#
# Indices 1 2 3 4 5 6 
#
# 1 87.5250 27.7862 37.4372 0.0000 -1.4538 0.0000
# 2 27.7862 167.7718 73.3058 0.0000 -0.7816 0.0000
# 3 37.4372 73.3058 175.7014 0.0000 14.7734 0.0000
# 4 0.0000 0.0000 0.0000 35.5208 0.0000 -2.4952
# 5 -1.4538 -0.7816 14.7734 0.0000 42.8166 0.0000
# 6 0.0000 0.0000 0.0000 -2.4952 0.0000 14.3140
#
#
#
# Elastic Compliance Matrix: (Units=1/GPa)
#
#
# Indices 1 2 3 4 5 6 
#
# 1 0.012807 -0.001073 -0.002385 0.000000 0.001238 0.000000
# 2 -0.001073 0.007441 -0.002971 0.000000 0.001124 0.000000
# 3 -0.002385 -0.002971 0.007673 0.000000 -0.002783 0.000000
# 4 0.000000 0.000000 0.000000 0.028501 0.000000 0.004968
# 5 0.001238 0.001124 -0.002783 0.000000 0.024378 0.000000
# 6 0.000000 0.000000 0.000000 0.004968 0.000000 0.070728
#
#
# Mechanical properties :
#
#
# Convention : Reuss Voigt Hill
#
# Bulk Modulus (GPa) = 66.38557 78.67292 72.52925
# Shear Modulus (GPa) = 29.51462 38.02822 33.77142
#
# Velocity S-wave (km/s) = 3.55793 4.03860 3.80586
# Velocity P-wave (km/s) = 6.73434 7.44916 7.10075
#
# Compressibility (1/GPa) = 0.01506351
#
# Stress axis : x y z
#
# Youngs Moduli (GPa) = 78.08376 134.38342 130.32641
#
# Poissons Ratio (x) = 0.14421 0.31085
# Poissons Ratio (y) = 0.08379 0.38714
# Poissons Ratio (z) = 0.18624 0.39920
#
# Static dielectric constant tensor:
#      x y z
#    x 1.971300 0.000000 -0.132240 
#    y 0.000000 2.009440 0.000000 
#    z -0.132240 0.000000 2.067990 
# 
# From -- ./inp_files/1701.got.cif
#   From: 2010.05.17/outbox.cif.g08.bks.cpg/sg15_1_cif.got.tgz:1701.got - 2010.06.03 18:47:42.
