data_PCOD9297972
_publ_section_title
;
Structure prediction by ZEFSAII (Michael W. Deem and Ramdas Pophale) SiO2 
 PCOD9297972
Probable space group: C 2/C
;
_chemical_formula_sum "Si O2"
_cell_formula_units_Z 52
_cell_length_a 24.863553
_cell_length_b 5.023014
_cell_length_c 17.838241
_cell_angle_alpha 90.000000
_cell_angle_beta 117.437861
_cell_angle_gamma 90.000000
_cell_volume 1977.212714
_symmetry_space_group_name_H-M "C 2/C"
_symmetry_group_IT_number 15
_symmetry_cell_setting 'monoclinic'
loop_
_space_group_symop_operation_xyz
x,y,z
-x,y,1/2-z
-x,-y,-z
x,-y,1/2+z
1/2+x,1/2+y,z
1/2-x,1/2+y,1/2-z
1/2-x,1/2-y,-z
1/2+x,1/2-y,1/2+z
loop_
_atom_site_type_symbol
_atom_site_label
_atom_site_fract_x
_atom_site_fract_y
_atom_site_fract_z
Si Si1 0.100440 0.248315 0.916676
Si Si2 0.398378 0.836607 0.845134
Si Si3 0.226771 0.608044 0.692411
Si Si4 0.892494 0.381325 0.198499
Si Si5 0.786581 0.066854 0.082850
Si Si6 0.500000 0.517147 0.250000
Si Si7 0.558595 0.322778 0.555200
O O1 0.102880 0.546138 0.886081
O O2 0.162488 0.110608 0.927052
O O3 0.039377 0.138616 0.836779
O O4 0.092035 0.225316 0.998415
O O5 0.339460 0.981383 0.840426
O O6 0.403536 0.534998 0.872086
O O7 0.395445 0.864230 0.753711
O O8 0.449948 0.039615 0.909064
O O9 0.234347 0.903085 0.730646
O O10 0.246211 0.593906 0.617094
O O11 0.827543 0.250922 0.163284
O O12 0.949516 0.203187 0.254973
O O13 0.750000 0.250000 0.000000
O O14 0.500000 0.500000 0.500000
#
# Coordination Sequence:
#
# PCOD9297972 Si02
#       7
#     8   8   8   8   8   4   8
#     4  11  26  46  73 107 143 194 247 301 374 443
#     4  12  27  48  74 106 149 195 248 303 372 441
#     4  12  25  47  74 106 144 193 246 302 365 438
#     4  11  25  45  74 106 144 195 247 302 371 445
#     4  11  26  46  71 105 146 191 246 307 366 441
#     4  10  24  42  76 102 144 184 252 296 370 438
#     4  12  29  48  76 109 152 191 245 309 377 440
#
# _framework density 26.299648999999999
#
# number of rings (size 3 to 8) (size 9 to 14) (size 15 to 20)
#    0.000    0.615    1.538    4.615   15.077    0.615 
#    0.000    0.000    0.000    0.000    0.000    0.000 
#    0.000    0.000    0.000    0.000    0.000    0.000 
#
# Total GULP energy -145750.368457 kJ/mol
# GULP energy per Si atom -5605.783402 kJ/mol
# Density = 2.623979 g / cm^3
# Si number density = 26.299649 Si / 1000 Ang^3
#
#
#
# Elastic Constant Matrix: (Units=GPa)
#
#
# Indices 1 2 3 4 5 6 
#
# 1 88.8622 14.8238 47.4646 0.0000 -0.2785 -0.0003
# 2 14.8238 94.8076 26.5146 -0.0001 -6.7437 0.0000
# 3 47.4646 26.5146 114.3317 0.0001 -13.5715 -0.0004
# 4 0.0000 -0.0001 0.0001 54.6752 0.0001 -0.3180
# 5 -0.2785 -6.7437 -13.5715 0.0001 63.4185 -0.0001
# 6 -0.0003 0.0000 -0.0004 -0.3180 -0.0001 32.8932
#
#
#
# Elastic Compliance Matrix: (Units=1/GPa)
#
#
# Indices 1 2 3 4 5 6 
#
# 1 0.014598 -0.000681 -0.006057 0.000000 -0.001305 0.000000
# 2 -0.000681 0.011338 -0.002261 0.000000 0.000719 0.000000
# 3 -0.006057 -0.002261 0.012060 0.000000 0.002314 0.000000
# 4 0.000000 0.000000 0.000000 0.018291 0.000000 0.000177
# 5 -0.001305 0.000719 0.002314 0.000000 0.016334 0.000000
# 6 0.000000 0.000000 0.000000 0.000177 0.000000 0.030403
#
#
# Mechanical properties :
#
#
# Convention : Reuss Voigt Hill
#
# Bulk Modulus (GPa) = 50.00831 52.84527 51.42679
# Shear Modulus (GPa) = 39.15743 44.14393 41.65068
#
# Velocity S-wave (km/s) = 3.86281 4.10139 3.98389
# Velocity P-wave (km/s) = 6.24108 6.52424 6.38423
#
# Compressibility (1/GPa) = 0.01999668
#
# Stress axis : x y z
#
# Youngs Moduli (GPa) = 68.50064 88.20128 82.91723
#
# Poissons Ratio (x) = 0.06009 0.50226
# Poissons Ratio (y) = 0.04667 0.18749
# Poissons Ratio (z) = 0.41493 0.19944
#
# Static dielectric constant tensor:
#      x y z
#    x 2.081870 0.000000 0.062480 
#    y 0.000000 2.045130 0.000000 
#    z 0.062480 0.000000 2.099850 
# 
# From -- ./inp_files/221340.got.cif
#   From: 2010.05.17/outbox.cif.g08.bks.cpg/sg15_111_cif.got.tgz:221340.got - 2010.06.03 18:47:42.
