data_PCOD9297308
_publ_section_title
;
Structure prediction by ZEFSAII (Michael W. Deem and Ramdas Pophale) SiO2 
 PCOD9297308
Probable space group: C 2/C
;
_chemical_formula_sum "Si O2"
_cell_formula_units_Z 56
_cell_length_a 7.379551
_cell_length_b 12.962843
_cell_length_c 20.361772
_cell_angle_alpha 90.000000
_cell_angle_beta 106.564860
_cell_angle_gamma 90.000000
_cell_volume 1866.967697
_symmetry_space_group_name_H-M "C 2/C"
_symmetry_group_IT_number 15
_symmetry_cell_setting 'monoclinic'
loop_
_space_group_symop_operation_xyz
x,y,z
-x,y,1/2-z
-x,-y,-z
x,-y,1/2+z
1/2+x,1/2+y,z
1/2-x,1/2+y,1/2-z
1/2-x,1/2-y,-z
1/2+x,1/2-y,1/2+z
loop_
_atom_site_type_symbol
_atom_site_label
_atom_site_fract_x
_atom_site_fract_y
_atom_site_fract_z
Si Si1 0.000000 0.881937 0.750000
Si Si2 0.709632 0.034236 0.644465
Si Si3 0.500000 0.047737 0.750000
Si Si4 0.237769 0.367924 0.834251
Si Si5 0.768528 0.700019 0.587621
Si Si6 0.811822 0.418414 0.977390
Si Si7 0.522084 0.314506 0.177208
Si Si8 0.854318 0.139034 0.494016
O O1 0.856240 0.952156 0.692610
O O2 0.873683 0.823352 0.791245
O O3 0.593490 0.086483 0.691874
O O4 0.592628 0.967841 0.578512
O O5 0.850917 0.119579 0.628125
O O6 0.665783 0.975230 0.798048
O O7 0.050360 0.301934 0.828073
O O8 0.338918 0.373027 0.913702
O O9 0.903268 0.638737 0.550929
O O10 0.777415 0.818708 0.568860
O O11 0.721355 0.683207 0.659825
O O12 0.289196 0.523703 0.509557
O O13 0.568036 0.342099 0.038745
O O14 0.500000 0.348909 0.250000
O O15 0.750000 0.250000 0.500000
#
# Coordination Sequence:
#
# PCOD9297308 Si02
#       8
#     4   8   4   8   8   8   8   8
#     4  10  24  38  68  98 128 184 234 288 360 424
#     4  11  22  43  68 100 135 185 237 299 362 428
#     4  10  24  42  68  94 136 182 236 284 368 432
#     4  11  23  44  66  97 137 184 230 295 361 423
#     4  11  25  45  69 108 136 193 242 296 367 433
#     4  11  25  44  73 101 145 187 244 297 359 449
#     4  12  24  43  69  97 140 187 243 300 365 432
#     4  12  24  43  69 103 140 184 232 299 363 422
#
# _framework density 29.995163000000002
#
# number of rings (size 3 to 8) (size 9 to 14) (size 15 to 20)
#    0.000    0.857    4.286    2.143    4.000    1.143 
#    2.571    0.000    0.000    0.000    0.000    0.000 
#    0.000    0.000    0.000    0.000    0.000    0.000 
#
# Total GULP energy -156514.166649 kJ/mol
# GULP energy per Si atom -5589.791666 kJ/mol
# Density = 2.992689 g / cm^3
# Si number density = 29.995163 Si / 1000 Ang^3
#
#
#
# Elastic Constant Matrix: (Units=GPa)
#
#
# Indices 1 2 3 4 5 6 
#
# 1 110.5972 38.3205 23.8571 0.0000 -27.9455 0.0000
# 2 38.3205 211.7634 61.3201 0.0000 -33.1055 0.0000
# 3 23.8571 61.3201 173.6579 0.0000 -46.0629 0.0000
# 4 0.0000 0.0000 0.0000 38.7685 0.0000 -18.5395
# 5 -27.9455 -33.1055 -46.0629 0.0000 54.0628 0.0000
# 6 0.0000 0.0000 0.0000 -18.5395 0.0000 45.9132
#
#
#
# Elastic Compliance Matrix: (Units=1/GPa)
#
#
# Indices 1 2 3 4 5 6 
#
# 1 0.010672 -0.001234 0.000300 0.000000 0.005017 0.000000
# 2 -0.001234 0.005597 -0.001378 0.000000 0.001615 0.000000
# 3 0.000300 -0.001378 0.007779 0.000000 0.005939 0.000000
# 4 0.000000 0.000000 0.000000 0.031967 0.000000 0.012908
# 5 0.005017 0.001615 0.005939 0.000000 0.027140 0.000000
# 6 0.000000 0.000000 0.000000 0.012908 0.000000 0.026992
#
#
# Mechanical properties :
#
#
# Convention : Reuss Voigt Hill
#
# Bulk Modulus (GPa) = 51.48124 82.55710 67.01917
# Shear Modulus (GPa) = 41.23814 52.58361 46.91088
#
# Velocity S-wave (km/s) = 3.71189 4.19151 3.95897
# Velocity P-wave (km/s) = 5.96416 7.14200 6.57949
#
# Compressibility (1/GPa) = 0.01942455
#
# Stress axis : x y z
#
# Youngs Moduli (GPa) = 93.70120 178.66066 128.54530
#
# Poissons Ratio (x) = 0.22045 -0.03860
# Poissons Ratio (y) = 0.11562 0.17720
# Poissons Ratio (z) = -0.02813 0.24628
#
# Static dielectric constant tensor:
#      x y z
#    x 2.550510 0.000000 -0.107250 
#    y 0.000000 2.282940 0.000000 
#    z -0.107250 0.000000 2.688730 
# 
# From -- ./inp_files/232194.got.cif
#   From: 2010.05.17/outbox.cif.g08.bks.cpg/sg15_117_cif.got.tgz:232194.got - 2010.06.03 18:47:42.
