data_PCOD9297419
_publ_section_title
;
Structure prediction by ZEFSAII (Michael W. Deem and Ramdas Pophale) SiO2 
 PCOD9297419
Probable space group: C 2/C
;
_chemical_formula_sum "Si O2"
_cell_formula_units_Z 36
_cell_length_a 5.168464
_cell_length_b 26.982492
_cell_length_c 11.293162
_cell_angle_alpha 90.000000
_cell_angle_beta 59.695991
_cell_angle_gamma 90.000000
_cell_volume 1359.725237
_symmetry_space_group_name_H-M "C 2/C"
_symmetry_group_IT_number 15
_symmetry_cell_setting 'monoclinic'
loop_
_space_group_symop_operation_xyz
x,y,z
-x,y,1/2-z
-x,-y,-z
x,-y,1/2+z
1/2+x,1/2+y,z
1/2-x,1/2+y,1/2-z
1/2-x,1/2-y,-z
1/2+x,1/2-y,1/2+z
loop_
_atom_site_type_symbol
_atom_site_label
_atom_site_fract_x
_atom_site_fract_y
_atom_site_fract_z
Si Si1 0.844139 0.408978 0.048666
Si Si2 0.162544 0.239425 0.835804
Si Si3 0.000000 0.443050 0.750000
Si Si4 0.500000 0.494754 0.250000
Si Si5 0.000000 0.834817 0.750000
Si Si6 0.608275 0.648299 0.979991
O O1 0.749594 0.459976 0.130657
O O2 0.540102 0.379296 0.094191
O O3 0.067062 0.374661 0.072154
O O4 0.980080 0.418393 0.886077
O O5 0.500000 0.218698 0.750000
O O6 0.220505 0.297679 0.841540
O O7 0.038557 0.206677 0.971032
O O8 0.000000 0.232123 0.750000
O O9 0.690936 0.474813 0.803208
O O10 0.945434 0.862662 0.642310
#
# Coordination Sequence:
#
# PCOD9297419 Si02
#       6
#     8   8   4   4   4   8
#     4  12  27  43  72 103 136 175 222 280 345 391
#     4  10  24  40  65  92 133 178 234 266 333 381
#     4  12  24  50  71 100 137 176 219 272 337 428
#     4  12  26  45  74 100 135 176 223 268 342 415
#     4  10  26  41  69  92 138 188 230 270 337 387
#     4  12  25  43  66 101 139 174 228 283 329 396
#
# _framework density 26.475935
#
# number of rings (size 3 to 8) (size 9 to 14) (size 15 to 20)
#    0.667    0.000    0.000    7.333    7.778    0.889 
#    0.000    0.000    0.000    0.000    0.000    0.000 
#    0.000    0.000    0.000    0.000    0.000    0.000 
#
# Total GULP energy -100727.548852 kJ/mol
# GULP energy per Si atom -5595.974936 kJ/mol
# Density = 2.641567 g / cm^3
# Si number density = 26.475935 Si / 1000 Ang^3
#
#
#
# Elastic Constant Matrix: (Units=GPa)
#
#
# Indices 1 2 3 4 5 6 
#
# 1 196.8115 41.5766 14.6720 0.0000 26.8831 0.0000
# 2 41.5766 94.6064 10.9758 0.0000 10.7425 0.0000
# 3 14.6720 10.9758 80.9874 0.0000 7.2013 0.0000
# 4 0.0000 0.0000 0.0000 -58.7737 0.0000 181.5415
# 5 26.8831 10.7425 7.2013 0.0000 31.3834 0.0000
# 6 0.0000 0.0000 0.0000 181.5415 0.0000 -237.4365
#
#
#
# Elastic Compliance Matrix: (Units=1/GPa)
#
#
# Indices 1 2 3 4 5 6 
#
# 1 0.006178 -0.002159 -0.000431 0.000000 -0.004454 0.000000
# 2 -0.002159 0.011864 -0.001041 0.000000 -0.001972 0.000000
# 3 -0.000431 -0.001041 0.012763 0.000000 -0.002203 0.000000
# 4 0.000000 0.000000 0.000000 0.012495 0.000000 0.009554
# 5 -0.004454 -0.001972 -0.002203 0.000000 0.036860 0.000000
# 6 0.000000 0.000000 0.000000 0.009554 0.000000 0.003093
#
#
# Mechanical properties :
#
#
# Convention : Reuss Voigt Hill
#
# Bulk Modulus (GPa) = 42.47712 56.31714 49.39713
# Shear Modulus (GPa) = 50.83293 -32.61998 9.10648
#
# Velocity S-wave (km/s) = 4.38650 -3.51388 1.85661
# Velocity P-wave (km/s) = 6.46016 2.20320 4.82637
#
# Compressibility (1/GPa) = 0.02354208
#
# Stress axis : x y z
#
# Youngs Moduli (GPa) = 161.87522 84.29010 78.35377
#
# Poissons Ratio (x) = 0.18200 0.03373
# Poissons Ratio (y) = 0.34952 0.08159
# Poissons Ratio (z) = 0.06969 0.08777
#
# Static dielectric constant tensor:
#      x y z
#    x 2.062410 0.000000 -0.093420 
#    y 0.000000 2.086860 0.000000 
#    z -0.093420 0.000000 2.109570 
# 
# From -- ./inp_files/73566.got.cif
#   From: 2010.05.17/outbox.cif.g08.bks.cpg/sg15_37_cif.got.tgz:73566.got - 2010.06.03 18:47:42.
