data_PCOD9297242
_publ_section_title
;
Structure prediction by ZEFSAII (Michael W. Deem and Ramdas Pophale) SiO2 
 PCOD9297242
Probable space group: C 2/C
;
_chemical_formula_sum "Si O2"
_cell_formula_units_Z 40
_cell_length_a 8.684993
_cell_length_b 16.573964
_cell_length_c 12.533207
_cell_angle_alpha 90.000000
_cell_angle_beta 60.479871
_cell_angle_gamma 90.000000
_cell_volume 1569.887365
_symmetry_space_group_name_H-M "C 2/C"
_symmetry_group_IT_number 15
_symmetry_cell_setting 'monoclinic'
loop_
_space_group_symop_operation_xyz
x,y,z
-x,y,1/2-z
-x,-y,-z
x,-y,1/2+z
1/2+x,1/2+y,z
1/2-x,1/2+y,1/2-z
1/2-x,1/2-y,-z
1/2+x,1/2-y,1/2+z
loop_
_atom_site_type_symbol
_atom_site_label
_atom_site_fract_x
_atom_site_fract_y
_atom_site_fract_z
Si Si1 0.866260 0.562578 0.874956
Si Si2 0.160120 0.858864 0.118381
Si Si3 0.292654 0.331745 0.879567
Si Si4 0.723084 0.010785 0.295942
Si Si5 0.530316 0.270187 0.968923
O O1 0.784982 0.615528 0.993579
O O2 0.731440 0.523323 0.837089
O O3 0.000000 0.611448 0.750000
O O4 0.007871 0.496238 0.869571
O O5 0.327337 0.801257 0.082411
O O6 0.000000 0.833149 0.250000
O O7 0.205513 0.949453 0.139312
O O8 0.106779 0.842290 0.014591
O O9 0.144673 0.264142 0.911736
O O10 0.291231 0.400324 0.791104
O O11 0.465413 0.293475 0.873621
#
# Coordination Sequence:
#
# PCOD9297242 Si02
#       5
#     8   8   8   8   8
#     4   8  18  32  62  93 119 170 201 246 319 372
#     4  11  22  43  59  87 127 174 210 261 306 387
#     4  11  19  41  63  94 128 158 209 273 303 383
#     4   9  20  36  66  88 121 165 216 243 312 372
#     4  10  24  37  65  95 126 168 205 254 339 363
#
# _framework density 25.479536
#
# number of rings (size 3 to 8) (size 9 to 14) (size 15 to 20)
#    1.200    0.800    2.000    1.800    0.000    0.800 
#    3.600    2.000    0.000    0.000    0.000    0.000 
#    0.000    0.000    0.000    0.000    0.000    0.000 
#
# Total GULP energy -111850.323985 kJ/mol
# GULP energy per Si atom -5592.516199 kJ/mol
# Density = 2.542154 g / cm^3
# Si number density = 25.479536 Si / 1000 Ang^3
#
#
#
# Elastic Constant Matrix: (Units=GPa)
#
#
# Indices 1 2 3 4 5 6 
#
# 1 145.0490 62.9359 9.5593 0.0000 14.8493 0.0000
# 2 62.9359 106.9498 -0.3604 0.0000 7.9124 0.0000
# 3 9.5593 -0.3604 42.6113 0.0000 10.2314 0.0000
# 4 0.0000 0.0000 0.0000 16.7419 0.0000 -2.8560
# 5 14.8493 7.9124 10.2314 0.0000 36.0283 0.0000
# 6 0.0000 0.0000 0.0000 -2.8560 0.0000 33.1273
#
#
#
# Elastic Compliance Matrix: (Units=1/GPa)
#
#
# Indices 1 2 3 4 5 6 
#
# 1 0.009624 -0.005500 -0.001656 0.000000 -0.002288 0.000000
# 2 -0.005500 0.012663 0.001571 0.000000 -0.000961 0.000000
# 3 -0.001656 0.001571 0.025511 0.000000 -0.006907 0.000000
# 4 0.000000 0.000000 0.000000 0.060622 0.000000 0.005226
# 5 -0.002288 -0.000961 -0.006907 0.000000 0.030872 0.000000
# 6 0.000000 0.000000 0.000000 0.005226 0.000000 0.030637
#
#
# Mechanical properties :
#
#
# Convention : Reuss Voigt Hill
#
# Bulk Modulus (GPa) = 27.30023 48.76444 38.03233
# Shear Modulus (GPa) = 25.86564 32.01119 28.93841
#
# Velocity S-wave (km/s) = 3.18960 3.54835 3.37375
# Velocity P-wave (km/s) = 4.92977 5.99732 5.48956
#
# Compressibility (1/GPa) = 0.03662973
#
# Stress axis : x y z
#
# Youngs Moduli (GPa) = 103.90835 78.97135 39.19842
#
# Poissons Ratio (x) = 0.43431 0.06491
# Poissons Ratio (y) = 0.57145 -0.06160
# Poissons Ratio (z) = 0.17207 -0.12410
#
# Static dielectric constant tensor:
#      x y z
#    x 2.040950 0.000000 -0.048220 
#    y 0.000000 1.942970 0.000000 
#    z -0.048220 0.000000 2.133620 
# 
# From -- ./inp_files/133101.got.cif
#   From: 2010.05.17/outbox.cif.g08.bks.cpg/sg15_67_cif.got.tgz:133101.got - 2010.06.03 18:47:42.
