data_PCOD9297099
_publ_section_title
;
Structure prediction by ZEFSAII (Michael W. Deem and Ramdas Pophale) SiO2 
 PCOD9297099
Probable space group: C 2/C
;
_chemical_formula_sum "Si O2"
_cell_formula_units_Z 52
_cell_length_a 10.132954
_cell_length_b 14.656281
_cell_length_c 23.779459
_cell_angle_alpha 90.000000
_cell_angle_beta 38.763751
_cell_angle_gamma 90.000000
_cell_volume 2211.122983
_symmetry_space_group_name_H-M "C 2/C"
_symmetry_group_IT_number 15
_symmetry_cell_setting 'monoclinic'
loop_
_space_group_symop_operation_xyz
x,y,z
-x,y,1/2-z
-x,-y,-z
x,-y,1/2+z
1/2+x,1/2+y,z
1/2-x,1/2+y,1/2-z
1/2-x,1/2-y,-z
1/2+x,1/2-y,1/2+z
loop_
_atom_site_type_symbol
_atom_site_label
_atom_site_fract_x
_atom_site_fract_y
_atom_site_fract_z
Si Si1 0.000000 0.707019 0.750000
Si Si2 0.493977 0.410382 0.624431
Si Si3 0.848135 0.590217 0.890382
Si Si4 0.336121 0.848489 0.594807
Si Si5 0.466848 0.098201 0.170763
Si Si6 0.548818 0.794422 0.413412
Si Si7 0.000000 0.244402 0.750000
Si Si8 0.000000 0.000000 0.000000
O O1 0.019156 0.639459 0.795545
O O2 0.807120 0.771800 0.827898
O O3 0.670152 0.411157 0.615007
O O4 0.263078 0.429126 0.728594
O O5 0.487234 0.304265 0.604081
O O6 0.525074 0.474385 0.560377
O O7 0.610247 0.600870 0.949535
O O8 0.855902 0.480186 0.878844
O O9 0.902633 0.631155 0.931755
O O10 0.451229 0.893847 0.609109
O O11 0.489848 0.804514 0.497816
O O12 0.520194 0.187773 0.189257
O O13 0.790869 0.814348 0.320100
#
# Coordination Sequence:
#
# PCOD9297099 Si02
#       8
#     4   8   8   8   8   8   4   4
#     4  12  21  40  73 102 128 184 246 276 353 424
#     4  11  21  45  68 104 135 186 233 304 353 431
#     4  12  24  42  66 105 132 185 238 296 345 443
#     4  12  22  42  73 101 135 186 230 299 357 430
#     4  11  24  42  67  94 145 180 232 287 371 421
#     4  11  23  43  71  96 146 177 246 298 356 421
#     4  10  23  48  65  98 138 196 232 310 355 426
#     4  12  24  40  72 100 142 184 234 294 364 414
#
# _framework density 23.517461000000001
#
# number of rings (size 3 to 8) (size 9 to 14) (size 15 to 20)
#    0.000    0.615    4.615    5.538    0.000    1.231 
#    2.769    1.538    0.000    0.000    0.000    0.000 
#    0.000    0.000    0.000    0.000    0.000    0.000 
#
# Total GULP energy -144810.958720 kJ/mol
# GULP energy per Si atom -5569.652258 kJ/mol
# Density = 2.346393 g / cm^3
# Si number density = 23.517461 Si / 1000 Ang^3
#
#
#
# Elastic Constant Matrix: (Units=GPa)
#
#
# Indices 1 2 3 4 5 6 
#
# 1 99.2822 17.2809 6.8066 -0.0003 22.3893 0.0001
# 2 17.2809 47.1843 11.6376 0.0002 1.7371 -0.0002
# 3 6.8066 11.6376 82.5720 0.0005 17.0174 -0.0016
# 4 -0.0003 0.0002 0.0005 21.5324 0.0002 13.0355
# 5 22.3893 1.7371 17.0174 0.0002 44.5498 0.0001
# 6 0.0001 -0.0002 -0.0016 13.0355 0.0001 -41.6525
#
#
#
# Elastic Compliance Matrix: (Units=1/GPa)
#
#
# Indices 1 2 3 4 5 6 
#
# 1 0.012211 -0.004468 0.000925 0.000000 -0.006316 0.000000
# 2 -0.004468 0.023596 -0.003507 0.000000 0.002665 0.000000
# 3 0.000925 -0.003507 0.013673 0.000000 -0.005551 0.000000
# 4 0.000000 0.000000 0.000000 0.039044 0.000000 0.012219
# 5 -0.006316 0.002665 -0.005551 0.000000 0.027637 0.000000
# 6 0.000000 0.000000 0.000000 0.012219 0.000000 -0.020184
#
#
# Mechanical properties :
#
#
# Convention : Reuss Voigt Hill
#
# Bulk Modulus (GPa) = 28.26383 33.38765 30.82574
# Shear Modulus (GPa) = 41.02727 17.77348 29.40038
#
# Velocity S-wave (km/s) = 4.18131 2.75209 3.53958
# Velocity P-wave (km/s) = 5.94604 4.93218 5.46268
#
# Compressibility (1/GPa) = 0.03538090
#
# Stress axis : x y z
#
# Youngs Moduli (GPa) = 81.89462 42.37918 73.13905
#
# Poissons Ratio (x) = 0.18934 -0.06763
# Poissons Ratio (y) = 0.36588 0.25647
# Poissons Ratio (z) = -0.07573 0.14861
#
# Static dielectric constant tensor:
#      x y z
#    x 1.681090 0.000000 0.244250 
#    y 0.000000 1.924680 0.000000 
#    z 0.244250 0.000000 1.686330 
# 
# From -- ./inp_files/269926.got.cif
#   From: 2010.05.17/outbox.cif.g08.bks.cpg/sg15_135_cif.got.tgz:269926.got - 2010.06.03 18:47:42.
