data_PCOD9297693
_publ_section_title
;
Structure prediction by ZEFSAII (Michael W. Deem and Ramdas Pophale) SiO2 
 PCOD9297693
Probable space group: C 2/C
;
_chemical_formula_sum "Si O2"
_cell_formula_units_Z 24
_cell_length_a 7.432674
_cell_length_b 7.018805
_cell_length_c 20.583228
_cell_angle_alpha 90.000000
_cell_angle_beta 69.178490
_cell_angle_gamma 90.000000
_cell_volume 1003.668767
_symmetry_space_group_name_H-M "C 2/C"
_symmetry_group_IT_number 15
_symmetry_cell_setting 'monoclinic'
loop_
_space_group_symop_operation_xyz
x,y,z
-x,y,1/2-z
-x,-y,-z
x,-y,1/2+z
1/2+x,1/2+y,z
1/2-x,1/2+y,1/2-z
1/2-x,1/2-y,-z
1/2+x,1/2-y,1/2+z
loop_
_atom_site_type_symbol
_atom_site_label
_atom_site_fract_x
_atom_site_fract_y
_atom_site_fract_z
Si Si1 0.609889 0.682719 0.671472
Si Si2 0.177291 0.969877 0.397302
Si Si3 0.012738 0.357930 0.438882
O O1 0.500000 0.622411 0.750000
O O2 0.677837 0.903013 0.666363
O O3 0.474615 0.640830 0.626935
O O4 0.812275 0.578309 0.631044
O O5 0.078673 0.145311 0.448986
O O6 0.314660 0.849133 0.425327
O O7 0.000000 0.500000 0.500000
#
# Coordination Sequence:
#
# PCOD9297693 Si02
#       3
#     8   8   8
#     4  10  26  40  66  90 126 160 206 250 306 360
#     4  10  25  40  64  90 125 160 206 250 305 360
#     4  10  24  42  64  92 124 162 204 252 304 362
#
# _framework density 23.912271
#
# number of rings (size 3 to 8) (size 9 to 14) (size 15 to 20)
#    2.000    0.000    0.000    1.000    9.333    2.667 
#    0.000    0.000    0.000    0.000    0.000    0.000 
#    0.000    0.000    0.000    0.000    0.000    0.000 
#
# Total GULP energy -67055.436557 kJ/mol
# GULP energy per Si atom -5587.953046 kJ/mol
# Density = 2.385785 g / cm^3
# Si number density = 23.912271 Si / 1000 Ang^3
#
#
#
# Elastic Constant Matrix: (Units=GPa)
#
#
# Indices 1 2 3 4 5 6 
#
# 1 170.9792 23.2537 17.8167 0.0000 -8.5112 0.0000
# 2 23.2537 64.1608 17.8384 0.0000 -11.7925 0.0000
# 3 17.8167 17.8384 113.3992 0.0000 -29.8670 0.0000
# 4 0.0000 0.0000 0.0000 24.2412 0.0000 0.3158
# 5 -8.5112 -11.7925 -29.8670 0.0000 31.8939 0.0000
# 6 0.0000 0.0000 0.0000 0.3158 0.0000 37.5290
#
#
#
# Elastic Compliance Matrix: (Units=1/GPa)
#
#
# Indices 1 2 3 4 5 6 
#
# 1 0.006201 -0.002022 -0.000554 0.000000 0.000388 0.000000
# 2 -0.002022 0.017534 -0.001162 0.000000 0.004856 0.000000
# 3 -0.000554 -0.001162 0.011862 0.000000 0.010531 0.000000
# 4 0.000000 0.000000 0.000000 0.041257 0.000000 -0.000347
# 5 0.000388 0.004856 0.010531 0.000000 0.043114 0.000000
# 6 0.000000 0.000000 0.000000 -0.000347 0.000000 0.026649
#
#
# Mechanical properties :
#
#
# Convention : Reuss Voigt Hill
#
# Bulk Modulus (GPa) = 35.55989 51.81743 43.68866
# Shear Modulus (GPa) = 30.58758 38.04151 34.31455
#
# Velocity S-wave (km/s) = 3.58041 3.99291 3.79227
# Velocity P-wave (km/s) = 5.65648 6.55550 6.12251
#
# Compressibility (1/GPa) = 0.02812157
#
# Stress axis : x y z
#
# Youngs Moduli (GPa) = 161.27204 57.03182 84.30504
#
# Poissons Ratio (x) = 0.11531 0.04669
# Poissons Ratio (y) = 0.32608 0.09793
# Poissons Ratio (z) = 0.08932 0.06625
#
# Static dielectric constant tensor:
#      x y z
#    x 1.838450 0.000000 -0.080970 
#    y 0.000000 1.932480 0.000000 
#    z -0.080970 0.000000 1.984600 
# 
# From -- ./inp_files/131253.got.cif
#   From: 2010.05.17/outbox.cif.g08.bks.cpg/sg15_66_cif.got.tgz:131253.got - 2010.06.03 18:47:42.
