data_PCOD9297752
_publ_section_title
;
Structure prediction by ZEFSAII (Michael W. Deem and Ramdas Pophale) SiO2 
 PCOD9297752
Probable space group: C 2/C
;
_chemical_formula_sum "Si O2"
_cell_formula_units_Z 52
_cell_length_a 5.008442
_cell_length_b 25.262912
_cell_length_c 18.658008
_cell_angle_alpha 90.000000
_cell_angle_beta 112.656035
_cell_angle_gamma 90.000000
_cell_volume 2178.586911
_symmetry_space_group_name_H-M "C 2/C"
_symmetry_group_IT_number 15
_symmetry_cell_setting 'monoclinic'
loop_
_space_group_symop_operation_xyz
x,y,z
-x,y,1/2-z
-x,-y,-z
x,-y,1/2+z
1/2+x,1/2+y,z
1/2-x,1/2+y,1/2-z
1/2-x,1/2-y,-z
1/2+x,1/2-y,1/2+z
loop_
_atom_site_type_symbol
_atom_site_label
_atom_site_fract_x
_atom_site_fract_y
_atom_site_fract_z
Si Si1 0.726677 0.465139 0.324602
Si Si2 0.734252 0.712085 0.105132
Si Si3 0.248370 0.328391 0.057487
Si Si4 0.740303 0.398924 0.063595
Si Si5 0.000000 0.449727 0.750000
Si Si6 0.701178 0.345413 0.838012
Si Si7 0.538758 0.557186 0.397606
O O1 0.500000 0.434221 0.250000
O O2 0.811995 0.512910 0.281009
O O3 0.606329 0.496775 0.381821
O O4 0.018633 0.434473 0.372982
O O5 0.769074 0.775020 0.105585
O O6 0.462006 0.692934 0.122737
O O7 0.021439 0.684379 0.162887
O O8 0.721491 0.690327 0.022055
O O9 0.507555 0.370868 0.091223
O O10 0.943342 0.355037 0.045534
O O11 0.568233 0.431556 0.984631
O O12 0.235803 0.425597 0.828997
O O13 0.500000 0.356906 0.750000
O O14 0.758232 0.400679 0.884196
#
# Coordination Sequence:
#
# PCOD9297752 Si02
#       7
#     8   8   8   8   4   8   8
#     4  10  25  45  65  98 139 185 225 284 346 407
#     4  11  23  45  66  97 138 177 225 285 350 409
#     4  11  24  44  71  99 132 175 235 289 342 403
#     4  12  25  43  73 104 131 184 234 287 335 416
#     4  10  24  42  66  92 144 184 216 280 346 400
#     4  12  24  39  68  99 141 179 224 280 352 414
#     4  11  24  41  65 104 137 178 229 279 347 411
#
# _framework density 23.868680999999999
#
# number of rings (size 3 to 8) (size 9 to 14) (size 15 to 20)
#    0.000    0.923    3.077    3.231   10.769    3.077 
#    0.000    3.077    1.692    0.000    0.000    0.000 
#    0.000    0.000    0.000    0.000    0.000    0.000 
#
# Total GULP energy -145442.906208 kJ/mol
# GULP energy per Si atom -5593.957931 kJ/mol
# Density = 2.381435 g / cm^3
# Si number density = 23.868681 Si / 1000 Ang^3
#
#
#
# Elastic Constant Matrix: (Units=GPa)
#
#
# Indices 1 2 3 4 5 6 
#
# 1 110.3726 19.3965 13.6064 0.0000 6.4178 0.0000
# 2 19.3965 78.3937 30.4503 0.0000 3.6587 0.0000
# 3 13.6064 30.4503 100.4865 0.0000 18.7957 0.0000
# 4 0.0000 0.0000 0.0000 12.7452 0.0000 -1.1894
# 5 6.4178 3.6587 18.7957 0.0000 40.4117 0.0000
# 6 0.0000 0.0000 0.0000 -1.1894 0.0000 39.1351
#
#
#
# Elastic Compliance Matrix: (Units=1/GPa)
#
#
# Indices 1 2 3 4 5 6 
#
# 1 0.009556 -0.002143 -0.000435 0.000000 -0.001121 0.000000
# 2 -0.002143 0.014962 -0.004440 0.000000 0.001051 0.000000
# 3 -0.000435 -0.004440 0.012342 0.000000 -0.005269 0.000000
# 4 0.000000 0.000000 0.000000 0.078684 0.000000 0.002391
# 5 -0.001121 0.001051 -0.005269 0.000000 0.027279 0.000000
# 6 0.000000 0.000000 0.000000 0.002391 0.000000 0.025625
#
#
# Mechanical properties :
#
#
# Convention : Reuss Voigt Hill
#
# Bulk Modulus (GPa) = 43.81552 46.23990 45.02771
# Shear Modulus (GPa) = 26.30317 33.51172 29.90744
#
# Velocity S-wave (km/s) = 3.32323 3.75107 3.54361
# Velocity P-wave (km/s) = 5.75517 6.17862 5.97065
#
# Compressibility (1/GPa) = 0.02282297
#
# Stress axis : x y z
#
# Youngs Moduli (GPa) = 104.65033 66.83565 81.02710
#
# Poissons Ratio (x) = 0.14324 0.03522
# Poissons Ratio (y) = 0.22428 0.35979
# Poissons Ratio (z) = 0.04549 0.29677
#
# Static dielectric constant tensor:
#      x y z
#    x 1.972610 0.000000 0.009880 
#    y 0.000000 1.913420 0.000000 
#    z 0.009880 0.000000 1.960040 
# 
# From -- ./inp_files/228208.got.cif
#   From: 2010.05.17/outbox.cif.g08.bks.cpg/sg15_115_cif.got.tgz:228208.got - 2010.06.03 18:47:42.
