data_PCOD9297754
_publ_section_title
;
Structure prediction by ZEFSAII (Michael W. Deem and Ramdas Pophale) SiO2 
 PCOD9297754
Probable space group: C 2/C
;
_chemical_formula_sum "Si O2"
_cell_formula_units_Z 60
_cell_length_a 17.396684
_cell_length_b 27.016876
_cell_length_c 5.420248
_cell_angle_alpha 90.000000
_cell_angle_beta 91.067662
_cell_angle_gamma 90.000000
_cell_volume 2547.096253
_symmetry_space_group_name_H-M "C 2/C"
_symmetry_group_IT_number 15
_symmetry_cell_setting 'monoclinic'
loop_
_space_group_symop_operation_xyz
x,y,z
-x,y,1/2-z
-x,-y,-z
x,-y,1/2+z
1/2+x,1/2+y,z
1/2-x,1/2+y,1/2-z
1/2-x,1/2-y,-z
1/2+x,1/2-y,1/2+z
loop_
_atom_site_type_symbol
_atom_site_label
_atom_site_fract_x
_atom_site_fract_y
_atom_site_fract_z
Si Si1 0.247144 0.174891 0.377788
Si Si2 0.370543 0.370527 0.958634
Si Si3 0.283129 0.086848 0.854901
Si Si4 0.664031 0.073798 0.147378
Si Si5 0.814344 0.696155 0.884954
Si Si6 0.500000 0.967243 0.750000
Si Si7 0.913481 0.020284 0.463755
Si Si8 0.452937 0.729810 0.501580
O O1 0.309581 0.130753 0.379387
O O2 0.234588 0.297460 0.369229
O O3 0.167040 0.148083 0.303490
O O4 0.263570 0.203513 0.126317
O O5 0.301087 0.387831 0.136983
O O6 0.416520 0.420985 0.927135
O O7 0.416043 0.323666 0.061308
O O8 0.289009 0.057111 0.109306
O O9 0.335531 0.136959 0.880794
O O10 0.576635 0.064721 0.214961
O O11 0.689414 0.943860 0.378081
O O12 0.887782 0.730478 0.923981
O O13 0.500000 0.000000 0.500000
O O14 0.876013 0.994877 0.222332
O O15 0.000000 0.000000 0.500000
O O16 0.500000 0.723339 0.250000
O O17 0.500000 0.745583 0.750000
#
# Coordination Sequence:
#
# PCOD9297754 Si02
#       8
#     8   8   8   8   8   4   8   8
#     4   9  20  40  69  92 128 175 230 288 324 411
#     4  10  24  44  71 100 134 183 245 289 366 411
#     4   9  20  40  66  91 124 171 224 283 316 402
#     4   9  19  39  58  92 121 165 218 263 333 395
#     4   9  19  41  60  96 131 173 220 275 341 400
#     4  12  24  38  60  92 134 174 204 258 358 424
#     4  10  24  42  66  93 129 180 227 291 351 425
#     4  12  28  41  63 101 146 185 226 298 352 430
#
# _framework density 23.556235999999998
#
# number of rings (size 3 to 8) (size 9 to 14) (size 15 to 20)
#    0.000    2.400    0.000    1.600    3.733   11.200 
#   14.400    9.333    0.000    0.800    0.000    0.000 
#    0.000    0.000    0.000    0.000    0.000    0.000 
#
# Total GULP energy -167307.218790 kJ/mol
# GULP energy per Si atom -5576.907293 kJ/mol
# Density = 2.350262 g / cm^3
# Si number density = 23.556236 Si / 1000 Ang^3
#
#
#
# Elastic Constant Matrix: (Units=GPa)
#
#
# Indices 1 2 3 4 5 6 
#
# 1 91.7900 43.5256 27.9675 0.0000 -3.5903 0.0000
# 2 43.5256 140.3270 32.8329 0.0000 10.8209 0.0000
# 3 27.9675 32.8329 216.9630 0.0000 12.0401 0.0000
# 4 0.0000 0.0000 0.0000 10.2276 0.0000 -18.7646
# 5 -3.5903 10.8209 12.0401 0.0000 31.2509 0.0000
# 6 0.0000 0.0000 0.0000 -18.7646 0.0000 -24.6540
#
#
#
# Elastic Compliance Matrix: (Units=1/GPa)
#
#
# Indices 1 2 3 4 5 6 
#
# 1 0.013374 -0.004112 -0.001294 0.000000 0.003459 0.000000
# 2 -0.004112 0.008800 -0.000619 0.000000 -0.003281 0.000000
# 3 -0.001294 -0.000619 0.004972 0.000000 -0.001850 0.000000
# 4 0.000000 0.000000 0.000000 0.040800 0.000000 -0.031054
# 5 0.003459 -0.003281 -0.001850 0.000000 0.034245 0.000000
# 6 0.000000 0.000000 0.000000 -0.031054 0.000000 -0.016926
#
#
# Mechanical properties :
#
#
# Convention : Reuss Voigt Hill
#
# Bulk Modulus (GPa) = 66.24686 73.08134 69.66410
# Shear Modulus (GPa) = 48.85323 26.34851 37.60087
#
# Velocity S-wave (km/s) = 4.55895 3.34808 3.99960
# Velocity P-wave (km/s) = 7.47636 6.78511 7.13911
#
# Compressibility (1/GPa) = 0.01509506
#
# Stress axis : x y z
#
# Youngs Moduli (GPa) = 74.77290 113.64089 201.11700
#
# Poissons Ratio (x) = 0.46732 0.26016
# Poissons Ratio (y) = 0.30748 0.12459
# Poissons Ratio (z) = 0.09672 0.07040
#
# Static dielectric constant tensor:
#      x y z
#    x 1.888490 0.000000 -0.007540 
#    y 0.000000 2.023050 0.000000 
#    z -0.007540 0.000000 2.030700 
# 
# From -- ./inp_files/13921.got.cif
#   From: 2010.05.17/outbox.cif.g08.bks.cpg/sg15_7_cif.got.tgz:13921.got - 2010.06.03 18:47:42.
