data_PCOD9297085
_publ_section_title
;
Structure prediction by ZEFSAII (Michael W. Deem and Ramdas Pophale) SiO2 
 PCOD9297085
Probable space group: C 2/C
;
_chemical_formula_sum "Si O2"
_cell_formula_units_Z 52
_cell_length_a 7.162936
_cell_length_b 19.262775
_cell_length_c 14.390549
_cell_angle_alpha 90.000000
_cell_angle_beta 72.917728
_cell_angle_gamma 90.000000
_cell_volume 1897.983594
_symmetry_space_group_name_H-M "C 2/C"
_symmetry_group_IT_number 15
_symmetry_cell_setting 'monoclinic'
loop_
_space_group_symop_operation_xyz
x,y,z
-x,y,1/2-z
-x,-y,-z
x,-y,1/2+z
1/2+x,1/2+y,z
1/2-x,1/2+y,1/2-z
1/2-x,1/2-y,-z
1/2+x,1/2-y,1/2+z
loop_
_atom_site_type_symbol
_atom_site_label
_atom_site_fract_x
_atom_site_fract_y
_atom_site_fract_z
Si Si1 0.105181 0.271036 0.834998
Si Si2 0.340195 0.561971 0.539666
Si Si3 0.127745 0.437317 0.415132
Si Si4 0.692493 0.612422 0.416552
Si Si5 0.783981 0.365589 0.268384
Si Si6 0.750000 0.250000 0.000000
Si Si7 0.734027 0.576064 0.211398
O O1 0.274673 0.213022 0.802133
O O2 0.174642 0.350461 0.832552
O O3 0.000000 0.260473 0.750000
O O4 0.982192 0.245086 0.941561
O O5 0.500000 0.500000 0.500000
O O6 0.457362 0.612101 0.454321
O O7 0.351446 0.588457 0.644565
O O8 0.109240 0.561688 0.551576
O O9 0.231527 0.376126 0.339398
O O10 0.200950 0.508656 0.356473
O O11 0.796403 0.580738 0.493346
O O12 0.740594 0.692722 0.416884
O O13 0.780028 0.572567 0.315678
O O14 0.000000 0.395400 0.250000
O O15 0.500000 0.578651 0.250000
#
# Coordination Sequence:
#
# PCOD9297085 Si02
#       7
#     8   8   8   8   8   4   8
#     4  12  25  49  82 116 169 217 278 349 423 505
#     4  11  26  48  80 122 168 216 285 347 418 512
#     4  11  29  52  85 122 170 227 281 353 430 508
#     4  12  28  55  85 125 169 221 292 349 430 516
#     4  10  23  47  78 116 161 217 280 344 418 501
#     4  12  26  50  86 120 162 224 278 352 424 510
#     4  12  31  54  83 126 174 224 281 366 434 505
#
# _framework density 27.397496
#
# number of rings (size 3 to 8) (size 9 to 14) (size 15 to 20)
#    0.000    0.615    3.077    2.308    6.462    3.692 
#    0.000    3.077    3.385    0.000    0.000    0.000 
#    0.000    0.000    0.000    0.000    0.000    0.000 
#
# Total GULP energy -144913.511087 kJ/mol
# GULP energy per Si atom -5573.596580 kJ/mol
# Density = 2.733514 g / cm^3
# Si number density = 27.397496 Si / 1000 Ang^3
#
#
#
# Elastic Constant Matrix: (Units=GPa)
#
#
# Indices 1 2 3 4 5 6 
#
# 1 118.7776 10.0909 66.1982 0.0000 -15.4668 0.0000
# 2 10.0909 121.0170 58.8397 0.0000 -17.2872 0.0000
# 3 66.1982 58.8397 216.9138 0.0000 -9.3061 0.0000
# 4 0.0000 0.0000 0.0000 41.7857 0.0000 -9.3041
# 5 -15.4668 -17.2872 -9.3061 0.0000 55.5764 0.0000
# 6 0.0000 0.0000 0.0000 -9.3041 0.0000 32.7491
#
#
#
# Elastic Compliance Matrix: (Units=1/GPa)
#
#
# Indices 1 2 3 4 5 6 
#
# 1 0.010589 0.001178 -0.003434 0.000000 0.002738 0.000000
# 2 0.001178 0.010022 -0.002951 0.000000 0.002951 0.000000
# 3 -0.003434 -0.002951 0.006424 0.000000 -0.000798 0.000000
# 4 0.000000 0.000000 0.000000 0.025548 0.000000 0.007258
# 5 0.002738 0.002951 -0.000798 0.000000 0.019540 0.000000
# 6 0.000000 0.000000 0.000000 0.007258 0.000000 0.032597
#
#
# Mechanical properties :
#
#
# Convention : Reuss Voigt Hill
#
# Bulk Modulus (GPa) = 60.16577 80.77398 70.46988
# Shear Modulus (GPa) = 41.43385 47.46091 44.44738
#
# Velocity S-wave (km/s) = 3.89308 4.16662 4.03217
# Velocity P-wave (km/s) = 6.49739 7.25905 6.88876
#
# Compressibility (1/GPa) = 0.01662075
#
# Stress axis : x y z
#
# Youngs Moduli (GPa) = 94.43517 99.78505 155.65848
#
# Poissons Ratio (x) = -0.11751 0.53447
# Poissons Ratio (y) = -0.11121 0.45938
# Poissons Ratio (z) = 0.32425 0.29449
#
# Static dielectric constant tensor:
#      x y z
#    x 2.249760 0.000000 0.075270 
#    y 0.000000 2.638620 0.000000 
#    z 0.075270 0.000000 2.354490 
# 
# From -- ./inp_files/192459.got.cif
#   From: 2010.05.17/outbox.cif.g08.bks.cpg/sg15_97_cif.got.tgz:192459.got - 2010.06.03 18:47:42.
