data_PCOD9297368
_publ_section_title
;
Structure prediction by ZEFSAII (Michael W. Deem and Ramdas Pophale) SiO2 
 PCOD9297368
Probable space group: C 2/C
;
_chemical_formula_sum "Si O2"
_cell_formula_units_Z 44
_cell_length_a 21.204080
_cell_length_b 11.002524
_cell_length_c 23.641042
_cell_angle_alpha 90.000000
_cell_angle_beta 21.763699
_cell_angle_gamma 90.000000
_cell_volume 2045.003642
_symmetry_space_group_name_H-M "C 2/C"
_symmetry_group_IT_number 15
_symmetry_cell_setting 'monoclinic'
loop_
_space_group_symop_operation_xyz
x,y,z
-x,y,1/2-z
-x,-y,-z
x,-y,1/2+z
1/2+x,1/2+y,z
1/2-x,1/2+y,1/2-z
1/2-x,1/2-y,-z
1/2+x,1/2-y,1/2+z
loop_
_atom_site_type_symbol
_atom_site_label
_atom_site_fract_x
_atom_site_fract_y
_atom_site_fract_z
Si Si1 0.638149 0.159663 0.026284
Si Si2 0.161406 0.919428 0.756556
Si Si3 0.048260 0.872711 0.021129
Si Si4 0.350262 0.994099 0.707214
Si Si5 0.454319 0.229380 0.984359
Si Si6 0.000000 0.799358 0.250000
O O1 0.642733 0.273227 0.979680
O O2 0.513291 0.062954 0.102033
O O3 0.557447 0.212421 0.150845
O O4 0.832921 0.122527 0.874346
O O5 0.298070 0.920599 0.694656
O O6 0.281268 0.843665 0.614627
O O7 0.001400 0.833517 0.900650
O O8 0.086954 0.055825 0.826352
O O9 0.185590 0.969202 0.883039
O O10 0.974487 0.800586 0.027895
O O11 0.398148 0.128259 0.647013
#
# Coordination Sequence:
#
# PCOD9297368 Si02
#       6
#     8   8   8   8   8   4
#     4  11  22  40  61  88 119 156 207 260 318 345
#     4  11  22  35  56  87 130 166 201 231 285 378
#     4  11  23  38  58  89 131 165 198 240 299 367
#     4  11  22  34  58  83 125 166 193 239 300 356
#     4  11  22  36  54  88 128 165 202 232 286 379
#     4  10  24  40  60  86 114 152 216 274 304 356
#
# _framework density 21.515853
#
# number of rings (size 3 to 8) (size 9 to 14) (size 15 to 20)
#    0.000    1.091    3.636    4.909    5.091    0.000 
#    0.000    0.000    0.000    0.000    0.000    7.636 
#    0.000    0.000    0.000    0.000    0.000    0.000 
#
# Total GULP energy -122616.044677 kJ/mol
# GULP energy per Si atom -5573.456576 kJ/mol
# Density = 2.146688 g / cm^3
# Si number density = 21.515853 Si / 1000 Ang^3
#
#
#
# Elastic Constant Matrix: (Units=GPa)
#
#
# Indices 1 2 3 4 5 6 
#
# 1 38.7530 7.2093 16.7776 -0.0003 -12.3866 0.0000
# 2 7.2093 104.1036 47.6616 -0.0014 -3.7150 0.0002
# 3 16.7776 47.6616 108.0448 -0.0010 -23.7986 0.0002
# 4 -0.0003 -0.0014 -0.0010 46.0464 0.0000 4.1091
# 5 -12.3866 -3.7150 -23.7986 0.0000 38.0963 0.0003
# 6 0.0000 0.0002 0.0002 4.1091 0.0003 7.9007
#
#
#
# Elastic Compliance Matrix: (Units=1/GPa)
#
#
# Indices 1 2 3 4 5 6 
#
# 1 0.029571 -0.000580 -0.002587 0.000000 0.007942 0.000000
# 2 -0.000580 0.012255 -0.005907 0.000000 -0.002684 0.000000
# 3 -0.002587 -0.005907 0.013857 0.000000 0.007240 0.000000
# 4 0.000000 0.000000 0.000000 0.022774 0.000000 -0.011845
# 5 0.007942 -0.002684 0.007240 0.000000 0.033092 -0.000002
# 6 0.000000 0.000000 0.000000 -0.011845 -0.000002 0.132731
#
#
# Mechanical properties :
#
#
# Convention : Reuss Voigt Hill
#
# Bulk Modulus (GPa) = 26.64138 43.79982 35.22060
# Shear Modulus (GPa) = 18.18584 30.35888 24.27236
#
# Velocity S-wave (km/s) = 2.91044 3.76040 3.36239
# Velocity P-wave (km/s) = 4.86860 6.26541 5.61064
#
# Compressibility (1/GPa) = 0.03753559
#
# Stress axis : x y z
#
# Youngs Moduli (GPa) = 33.81716 81.60240 72.16369
#
# Poissons Ratio (x) = 0.04734 0.18665
# Poissons Ratio (y) = 0.01962 0.42626
# Poissons Ratio (z) = 0.08747 0.48201
#
# Static dielectric constant tensor:
#      x y z
#    x 1.788660 0.000000 0.037880 
#    y 0.000000 1.816330 0.000000 
#    z 0.037880 0.000000 1.920470 
# 
# From -- ./inp_files/302155.got.cif
#   From: 2010.05.17/outbox.cif.g08.bks.cpg/sg15_152_cif.got.tgz:302155.got - 2010.06.03 18:47:42.
