data_PCOD9297678
_publ_section_title
;
Structure prediction by ZEFSAII (Michael W. Deem and Ramdas Pophale) SiO2 
 PCOD9297678
Probable space group: C 2/C
;
_chemical_formula_sum "Si O2"
_cell_formula_units_Z 64
_cell_length_a 18.623795
_cell_length_b 18.000164
_cell_length_c 21.801288
_cell_angle_alpha 90.000000
_cell_angle_beta 155.522758
_cell_angle_gamma 90.000000
_cell_volume 3028.133609
_symmetry_space_group_name_H-M "C 2/C"
_symmetry_group_IT_number 15
_symmetry_cell_setting 'monoclinic'
loop_
_space_group_symop_operation_xyz
x,y,z
-x,y,1/2-z
-x,-y,-z
x,-y,1/2+z
1/2+x,1/2+y,z
1/2-x,1/2+y,1/2-z
1/2-x,1/2-y,-z
1/2+x,1/2-y,1/2+z
loop_
_atom_site_type_symbol
_atom_site_label
_atom_site_fract_x
_atom_site_fract_y
_atom_site_fract_z
Si Si1 0.888540 0.378066 0.303292
Si Si2 0.436953 0.214626 0.467683
Si Si3 0.117332 0.092623 0.403484
Si Si4 0.333280 0.081596 0.297284
Si Si5 0.674872 0.214462 0.860438
Si Si6 0.131527 0.014059 0.729158
Si Si7 0.015217 0.879005 0.041857
Si Si8 0.143627 0.505341 0.484405
O O1 0.908818 0.342975 0.252686
O O2 0.693124 0.407743 0.148731
O O3 0.902040 0.317858 0.368179
O O4 0.048036 0.432378 0.437150
O O5 0.376193 0.152698 0.372568
O O6 0.295515 0.233757 0.411273
O O7 0.479171 0.290675 0.465160
O O8 0.209462 0.166911 0.501539
O O9 0.000000 0.098525 0.250000
O O10 0.261846 0.028867 0.501272
O O11 0.991118 0.057312 0.356245
O O12 0.486487 0.063332 0.368222
O O13 0.291885 0.014285 0.312281
O O14 0.156562 0.092909 0.123516
O O15 0.500000 0.250576 0.750000
O O16 0.034728 0.083190 0.623295
O O17 0.209353 0.033748 0.855455
#
# Coordination Sequence:
#
# PCOD9297678 Si02
#       8
#     8   8   8   8   8   8   8   8
#     4  11  21  41  58  89 125 166 215 253 313 379
#     4  11  25  43  59  92 135 174 213 260 328 389
#     4  10  24  42  63  95 130 169 218 266 325 385
#     4  12  23  40  65  92 125 168 218 269 317 377
#     4  11  23  40  62  88 131 176 212 260 309 395
#     4  11  21  38  63  91 123 165 214 268 312 380
#     4  11  23  36  62  92 122 161 212 273 316 373
#     4  11  22  40  64  88 122 168 213 261 319 375
#
# _framework density 21.13513
#
# number of rings (size 3 to 8) (size 9 to 14) (size 15 to 20)
#    0.000    1.000    3.750    4.500    1.750    0.500 
#    2.250    0.000    0.000    0.750    0.000    1.750 
#    0.000    0.000    0.000    0.000    0.000    0.000 
#
# Total GULP energy -178581.202680 kJ/mol
# GULP energy per Si atom -5580.662584 kJ/mol
# Density = 2.108703 g / cm^3
# Si number density = 21.135130 Si / 1000 Ang^3
#
#
#
# Elastic Constant Matrix: (Units=GPa)
#
#
# Indices 1 2 3 4 5 6 
#
# 1 55.6507 26.7126 31.5932 0.0024 6.1707 0.0065
# 2 26.7126 72.9603 31.3937 -0.0138 -10.2323 -0.0008
# 3 31.5932 31.3937 120.9743 -0.0095 -9.8642 0.0041
# 4 0.0024 -0.0138 -0.0095 22.4664 -0.0016 -13.0372
# 5 6.1707 -10.2323 -9.8642 -0.0016 41.1449 0.0049
# 6 0.0065 -0.0008 0.0041 -13.0372 0.0049 -15.4147
#
#
#
# Elastic Compliance Matrix: (Units=1/GPa)
#
#
# Indices 1 2 3 4 5 6 
#
# 1 0.025590 -0.008150 -0.005147 -0.000004 -0.007099 0.000011
# 2 -0.008150 0.018380 -0.002212 0.000007 0.005263 -0.000009
# 3 -0.005147 -0.002212 0.010406 0.000003 0.002717 -0.000001
# 4 -0.000004 0.000007 0.000003 0.029857 0.000007 -0.025252
# 5 -0.007099 0.005263 0.002717 0.000007 0.027329 0.000000
# 6 0.000011 -0.000009 -0.000001 -0.025252 0.000000 -0.043516
#
#
# Mechanical properties :
#
#
# Convention : Reuss Voigt Hill
#
# Bulk Modulus (GPa) = 42.81211 47.66494 45.23852
# Shear Modulus (GPa) = 46.79401 20.29837 33.54619
#
# Velocity S-wave (km/s) = 4.71046 3.10241 3.98832
# Velocity P-wave (km/s) = 7.06293 5.95270 6.53145
#
# Compressibility (1/GPa) = 0.02335788
#
# Stress axis : x y z
#
# Youngs Moduli (GPa) = 39.07713 54.40682 96.09901
#
# Poissons Ratio (x) = 0.44343 0.49461
# Poissons Ratio (y) = 0.31849 0.21258
# Poissons Ratio (z) = 0.20113 0.12036
#
# Static dielectric constant tensor:
#      x y z
#    x 1.808990 0.000000 0.002950 
#    y 0.000000 1.822250 -0.000010 
#    z 0.002950 -0.000010 1.780760 
# 
# From -- ./inp_files/280532.got.cif
#   From: 2010.05.17/outbox.cif.g08.bks.cpg/sg15_141_cif.got.tgz:280532.got - 2010.06.03 18:47:42.
