data_PCOD9297514
_publ_section_title
;
Structure prediction by ZEFSAII (Michael W. Deem and Ramdas Pophale) SiO2 
 PCOD9297514
Probable space group: C 2/C
;
_chemical_formula_sum "Si O2"
_cell_formula_units_Z 24
_cell_length_a 10.451309
_cell_length_b 17.426241
_cell_length_c 4.797651
_cell_angle_alpha 90.000000
_cell_angle_beta 93.249150
_cell_angle_gamma 90.000000
_cell_volume 872.377330
_symmetry_space_group_name_H-M "C 2/C"
_symmetry_group_IT_number 15
_symmetry_cell_setting 'monoclinic'
loop_
_space_group_symop_operation_xyz
x,y,z
-x,y,1/2-z
-x,-y,-z
x,-y,1/2+z
1/2+x,1/2+y,z
1/2-x,1/2+y,1/2-z
1/2-x,1/2-y,-z
1/2+x,1/2-y,1/2+z
loop_
_atom_site_type_symbol
_atom_site_label
_atom_site_fract_x
_atom_site_fract_y
_atom_site_fract_z
Si Si1 0.610205 0.385771 0.582233
Si Si2 0.708598 0.890290 0.385989
Si Si3 0.000000 0.262816 0.250000
Si Si4 0.000000 0.500000 0.000000
O O1 0.500000 0.427912 0.750000
O O2 0.670502 0.407864 0.297924
O O3 0.553384 0.300026 0.538764
O O4 0.730788 0.385600 0.804145
O O5 0.622856 0.815271 0.326787
O O6 0.609428 0.959084 0.294094
O O7 0.000000 0.568700 0.250000
#
# Coordination Sequence:
#
# PCOD9297514 Si02
#       4
#     8   8   4   4
#     4  10  25  40  71 106 149 184 219 298 364 411
#     4  12  23  45  69 107 142 181 253 275 349 421
#     4  10  24  40  74 110 144 190 218 310 340 414
#     4  12  26  46  72 102 132 194 238 310 318 408
#
# _framework density 27.511030999999999
#
# number of rings (size 3 to 8) (size 9 to 14) (size 15 to 20)
#    1.000    0.000    1.667    5.000    0.000    2.667 
#    0.000    0.000    0.000   20.000    0.000    0.000 
#    0.000    0.000    0.000    0.000    0.000    0.000 
#
# Total GULP energy -66876.187354 kJ/mol
# GULP energy per Si atom -5573.015613 kJ/mol
# Density = 2.744841 g / cm^3
# Si number density = 27.511031 Si / 1000 Ang^3
#
#
#
# Elastic Constant Matrix: (Units=GPa)
#
#
# Indices 1 2 3 4 5 6 
#
# 1 143.2271 44.7324 35.3453 0.0000 -11.3240 0.0000
# 2 44.7324 88.4791 20.6300 0.0000 -25.2874 0.0000
# 3 35.3453 20.6300 195.7502 0.0000 22.2045 0.0000
# 4 0.0000 0.0000 0.0000 12.2470 0.0000 -28.8675
# 5 -11.3240 -25.2874 22.2045 0.0000 62.5870 0.0000
# 6 0.0000 0.0000 0.0000 -28.8675 0.0000 31.7502
#
#
#
# Elastic Compliance Matrix: (Units=1/GPa)
#
#
# Indices 1 2 3 4 5 6 
#
# 1 0.008528 -0.003934 -0.001167 0.000000 0.000367 0.000000
# 2 -0.003934 0.015402 -0.001603 0.000000 0.006080 0.000000
# 3 -0.001167 -0.001603 0.005820 0.000000 -0.002923 0.000000
# 4 0.000000 0.000000 0.000000 -0.071431 0.000000 -0.064946
# 5 0.000367 0.006080 -0.002923 0.000000 0.019538 0.000000
# 6 0.000000 0.000000 0.000000 -0.064946 0.000000 -0.027553
#
#
# Mechanical properties :
#
#
# Convention : Reuss Voigt Hill
#
# Bulk Modulus (GPa) = 61.18994 69.87462 65.53228
# Shear Modulus (GPa) = -162.11555 43.10010 -59.50773
#
# Velocity S-wave (km/s) = -7.68475 3.96238 -4.65591
# Velocity P-wave (km/s) = 7.51334 6.81087 2.24303
#
# Compressibility (1/GPa) = 0.01634256
#
# Stress axis : x y z
#
# Youngs Moduli (GPa) = 117.26554 64.92487 171.82963
#
# Poissons Ratio (x) = 0.25543 0.20049
# Poissons Ratio (y) = 0.46136 0.27536
# Poissons Ratio (z) = 0.13683 0.10404
#
# Static dielectric constant tensor:
#      x y z
#    x 2.522700 0.000000 0.077130 
#    y 0.000000 2.154960 0.000000 
#    z 0.077130 0.000000 2.556370 
# 
# From -- ./inp_files/1603.got.cif
#   From: 2010.05.17/outbox.cif.g08.bks.cpg/sg15_1_cif.got.tgz:1603.got - 2010.06.03 18:47:42.
