data_PCOD9297865
_publ_section_title
;
Structure prediction by ZEFSAII (Michael W. Deem and Ramdas Pophale) SiO2 
 PCOD9297865
Probable space group: C 2/C
;
_chemical_formula_sum "Si O2"
_cell_formula_units_Z 48
_cell_length_a 8.699386
_cell_length_b 17.030770
_cell_length_c 16.149331
_cell_angle_alpha 90.000000
_cell_angle_beta 94.608688
_cell_angle_gamma 90.000000
_cell_volume 2384.904233
_symmetry_space_group_name_H-M "C 2/C"
_symmetry_group_IT_number 15
_symmetry_cell_setting 'monoclinic'
loop_
_space_group_symop_operation_xyz
x,y,z
-x,y,1/2-z
-x,-y,-z
x,-y,1/2+z
1/2+x,1/2+y,z
1/2-x,1/2+y,1/2-z
1/2-x,1/2-y,-z
1/2+x,1/2-y,1/2+z
loop_
_atom_site_type_symbol
_atom_site_label
_atom_site_fract_x
_atom_site_fract_y
_atom_site_fract_z
Si Si1 0.398563 0.578414 0.993049
Si Si2 0.712389 0.840336 0.338997
Si Si3 0.089826 0.451263 0.575387
Si Si4 0.153227 0.182798 0.953899
Si Si5 0.952244 0.291616 0.840460
Si Si6 0.875036 0.603919 0.844356
O O1 0.312962 0.602983 0.903266
O O2 0.524858 0.646989 0.008862
O O3 0.500000 0.500000 0.000000
O O4 0.261894 0.568273 0.052035
O O5 0.786850 0.753031 0.342157
O O6 0.704900 0.871042 0.244457
O O7 0.534477 0.847571 0.360636
O O8 0.026408 0.366830 0.599822
O O9 0.088635 0.511628 0.651847
O O10 0.000000 0.500000 0.500000
O O11 0.265004 0.119212 0.917741
O O12 0.066517 0.223456 0.874170
O O13 0.250000 0.250000 0.000000
O O14 0.000000 0.313762 0.750000
#
# Coordination Sequence:
#
# PCOD9297865 Si02
#       6
#     8   8   8   8   8   8
#     4  11  24  42  65  96 132 174 222 275 331 401
#     4  10  24  42  69  93 134 177 223 270 341 398
#     4  12  25  43  67 100 135 175 226 276 337 400
#     4  11  24  41  69  94 132 173 221 270 330 400
#     4  11  25  44  66  97 136 170 220 275 336 400
#     4  11  22  44  69  96 132 177 217 275 336 405
#
# _framework density 20.126594000000001
#
# number of rings (size 3 to 8) (size 9 to 14) (size 15 to 20)
#    0.000    1.000    5.000    1.000    4.667    1.333 
#    0.000    0.000    0.000    0.000    0.000    0.000 
#    0.000    0.000    0.000    0.000    0.000    0.000 
#
# Total GULP energy -133882.542289 kJ/mol
# GULP energy per Si atom -5578.439262 kJ/mol
# Density = 2.008078 g / cm^3
# Si number density = 20.126594 Si / 1000 Ang^3
#
#
#
# Elastic Constant Matrix: (Units=GPa)
#
#
# Indices 1 2 3 4 5 6 
#
# 1 99.4108 31.8088 20.2965 0.0000 -9.6285 0.0000
# 2 31.8088 105.8831 25.5776 0.0000 3.9923 0.0000
# 3 20.2965 25.5776 43.0901 0.0000 -0.1809 0.0000
# 4 0.0000 0.0000 0.0000 32.5357 0.0000 1.7227
# 5 -9.6285 3.9923 -0.1809 0.0000 32.8757 0.0000
# 6 0.0000 0.0000 0.0000 1.7227 0.0000 43.7474
#
#
#
# Elastic Compliance Matrix: (Units=1/GPa)
#
#
# Indices 1 2 3 4 5 6 
#
# 1 0.012163 -0.002826 -0.004036 0.000000 0.003883 0.000000
# 2 -0.002826 0.011744 -0.005650 0.000000 -0.002285 0.000000
# 3 -0.004036 -0.005650 0.028460 0.000000 -0.000339 0.000000
# 4 0.000000 0.000000 0.000000 0.030800 0.000000 -0.001213
# 5 0.003883 -0.002285 -0.000339 0.000000 0.031831 0.000000
# 6 0.000000 0.000000 0.000000 -0.001213 0.000000 0.022906
#
#
# Mechanical properties :
#
#
# Convention : Reuss Voigt Hill
#
# Bulk Modulus (GPa) = 36.56890 44.86110 40.71500
# Shear Modulus (GPa) = 29.06266 33.21182 31.13724
#
# Velocity S-wave (km/s) = 3.80411 4.06661 3.93755
# Velocity P-wave (km/s) = 6.12404 6.66240 6.39889
#
# Compressibility (1/GPa) = 0.02734564
#
# Stress axis : x y z
#
# Youngs Moduli (GPa) = 82.21333 85.14865 35.13661
#
# Poissons Ratio (x) = 0.24060 0.14180
# Poissons Ratio (y) = 0.23230 0.19852
# Poissons Ratio (z) = 0.33179 0.48107
#
# Static dielectric constant tensor:
#      x y z
#    x 1.782800 0.000000 0.016790 
#    y 0.000000 1.702650 0.000000 
#    z 0.016790 0.000000 1.725490 
# 
# From -- ./inp_files/134843.got.cif
#   From: 2010.05.17/outbox.cif.g08.bks.cpg/sg15_68_cif.got.tgz:134843.got - 2010.06.03 18:47:42.
