data_PCOD9297564
_publ_section_title
;
Structure prediction by ZEFSAII (Michael W. Deem and Ramdas Pophale) SiO2 
 PCOD9297564
Probable space group: C 2/C
;
_chemical_formula_sum "Si O2"
_cell_formula_units_Z 56
_cell_length_a 19.919207
_cell_length_b 5.797912
_cell_length_c 24.175570
_cell_angle_alpha 90.000000
_cell_angle_beta 74.816637
_cell_angle_gamma 90.000000
_cell_volume 2694.569352
_symmetry_space_group_name_H-M "C 2/C"
_symmetry_group_IT_number 15
_symmetry_cell_setting 'monoclinic'
loop_
_space_group_symop_operation_xyz
x,y,z
-x,y,1/2-z
-x,-y,-z
x,-y,1/2+z
1/2+x,1/2+y,z
1/2-x,1/2+y,1/2-z
1/2-x,1/2-y,-z
1/2+x,1/2-y,1/2+z
loop_
_atom_site_type_symbol
_atom_site_label
_atom_site_fract_x
_atom_site_fract_y
_atom_site_fract_z
Si Si1 0.173254 0.781877 0.885938
Si Si2 0.323670 0.961484 0.353502
Si Si3 0.094530 0.250499 0.585085
Si Si4 0.890051 0.560191 0.022444
Si Si5 0.684048 0.364761 0.541627
Si Si6 0.534452 0.414825 0.435085
Si Si7 0.290136 0.874882 0.240249
O O1 0.169204 0.587978 0.934526
O O2 0.172635 0.661004 0.826278
O O3 0.245708 0.924901 0.874360
O O4 0.103048 0.934672 0.906669
O O5 0.325339 0.753765 0.397017
O O6 0.332522 0.890051 0.288206
O O7 0.385482 0.124514 0.362682
O O8 0.082601 0.411864 0.534520
O O9 0.026712 0.088405 0.597838
O O10 0.167736 0.128345 0.554102
O O11 0.939018 0.653559 0.059962
O O12 0.869557 0.790622 0.994509
O O13 0.750000 0.250000 0.500000
O O14 0.500000 0.500000 0.500000
O O15 0.247044 0.629870 0.255258
#
# Coordination Sequence:
#
# PCOD9297564 Si02
#       7
#     8   8   8   8   8   8   8
#     4  11  24  40  69  98 131 179 229 287 342 419
#     4  10  24  41  64  99 131 173 226 289 343 403
#     4  11  23  39  61  97 138 178 215 281 351 413
#     4  11  21  36  61  91 135 173 225 264 345 411
#     4  11  21  33  60  93 135 168 215 278 348 405
#     4  12  23  40  61  99 139 179 224 275 344 426
#     4  10  25  45  72 103 131 177 236 296 347 401
#
# _framework density 20.782541999999999
#
# number of rings (size 3 to 8) (size 9 to 14) (size 15 to 20)
#    0.000    1.143    2.857    3.000   10.000    2.286 
#    0.000    0.000    0.000    5.143    0.000    0.000 
#    0.000    0.000    0.000    0.000    0.000    0.000 
#
# Total GULP energy -155904.217962 kJ/mol
# GULP energy per Si atom -5568.007784 kJ/mol
# Density = 2.073524 g / cm^3
# Si number density = 20.782542 Si / 1000 Ang^3
#
#
#
# Elastic Constant Matrix: (Units=GPa)
#
#
# Indices 1 2 3 4 5 6 
#
# 1 74.6496 22.7175 20.1400 -0.0013 10.9505 -0.0005
# 2 22.7175 63.6485 24.0861 -0.0013 8.6335 -0.0007
# 3 20.1400 24.0861 120.1673 -0.0013 28.9222 -0.0007
# 4 -0.0013 -0.0013 -0.0013 30.4214 -0.0003 2.3849
# 5 10.9505 8.6335 28.9222 -0.0003 23.3476 -0.0002
# 6 -0.0005 -0.0007 -0.0007 2.3849 -0.0002 24.2937
#
#
#
# Elastic Compliance Matrix: (Units=1/GPa)
#
#
# Indices 1 2 3 4 5 6 
#
# 1 0.015705 -0.004745 -0.000471 0.000000 -0.005028 0.000000
# 2 -0.004745 0.018578 -0.002580 0.000000 -0.001448 0.000000
# 3 -0.000471 -0.002580 0.012303 0.000000 -0.014066 0.000000
# 4 0.000000 0.000000 0.000000 0.033127 0.000000 -0.003252
# 5 -0.005028 -0.001448 -0.014066 0.000000 0.063149 0.000000
# 6 0.000000 0.000000 0.000000 -0.003252 0.000000 0.041482
#
#
# Mechanical properties :
#
#
# Convention : Reuss Voigt Hill
#
# Bulk Modulus (GPa) = 32.26448 43.59472 37.92960
# Shear Modulus (GPa) = 23.77940 28.38065 26.08003
#
# Velocity S-wave (km/s) = 3.38627 3.69941 3.54630
# Velocity P-wave (km/s) = 5.55406 6.26655 5.92104
#
# Compressibility (1/GPa) = 0.03099383
#
# Stress axis : x y z
#
# Youngs Moduli (GPa) = 63.67585 53.82818 81.28001
#
# Poissons Ratio (x) = 0.25542 0.03827
# Poissons Ratio (y) = 0.30215 0.20968
# Poissons Ratio (z) = 0.02998 0.13886
#
# Static dielectric constant tensor:
#      x y z
#    x 2.049160 0.000000 -0.012660 
#    y 0.000000 1.705750 0.000000 
#    z -0.012660 0.000000 1.700290 
# 
# From -- ./inp_files/278644.got.cif
#   From: 2010.05.17/outbox.cif.g08.bks.cpg/sg15_140_cif.got.tgz:278644.got - 2010.06.03 18:47:42.
