data_PCOD9297833
_publ_section_title
;
Structure prediction by ZEFSAII (Michael W. Deem and Ramdas Pophale) SiO2 
 PCOD9297833
Probable space group: C 2/C
;
_chemical_formula_sum "Si O2"
_cell_formula_units_Z 56
_cell_length_a 31.222638
_cell_length_b 8.061931
_cell_length_c 20.799581
_cell_angle_alpha 90.000000
_cell_angle_beta 29.633221
_cell_angle_gamma 90.000000
_cell_volume 2588.702027
_symmetry_space_group_name_H-M "C 2/C"
_symmetry_group_IT_number 15
_symmetry_cell_setting 'monoclinic'
loop_
_space_group_symop_operation_xyz
x,y,z
-x,y,1/2-z
-x,-y,-z
x,-y,1/2+z
1/2+x,1/2+y,z
1/2-x,1/2+y,1/2-z
1/2-x,1/2-y,-z
1/2+x,1/2-y,1/2+z
loop_
_atom_site_type_symbol
_atom_site_label
_atom_site_fract_x
_atom_site_fract_y
_atom_site_fract_z
Si Si1 0.409316 0.466199 0.973854
Si Si2 0.663391 0.213175 0.860220
Si Si3 0.890693 0.983493 0.266911
Si Si4 0.184486 0.205421 0.746934
Si Si5 0.710928 0.421175 0.980966
Si Si6 0.861285 0.334611 0.257356
Si Si7 0.934862 0.387427 0.506547
O O1 0.509736 0.519504 0.842521
O O2 0.365223 0.605091 0.077956
O O3 0.359808 0.485221 0.971241
O O4 0.411317 0.273762 0.993807
O O5 0.755158 0.161944 0.771411
O O6 0.668591 0.208723 0.776332
O O7 0.597323 0.069974 0.970274
O O8 0.859374 0.172439 0.304374
O O9 0.875987 0.918267 0.213669
O O10 0.833412 0.887279 0.393566
O O11 0.256675 0.265448 0.602210
O O12 0.119522 0.346140 0.857793
O O13 0.797057 0.532265 0.871551
O O14 0.962167 0.384601 0.120511
#
# Coordination Sequence:
#
# PCOD9297833 Si02
#       7
#     8   8   8   8   8   8   8
#     4  10  24  42  68  95 123 170 215 259 325 368
#     4  11  23  40  66  96 128 161 206 274 322 370
#     4  11  24  42  64  90 130 169 215 259 305 387
#     4  11  24  38  64  97 122 169 208 259 327 371
#     4  11  23  42  63  91 129 173 210 256 315 377
#     4  11  23  39  65  94 123 169 208 261 327 368
#     4  11  23  41  65  98 128 158 211 273 321 372
#
# _framework density 21.632463000000001
#
# number of rings (size 3 to 8) (size 9 to 14) (size 15 to 20)
#    0.000    1.143    1.429    4.286    8.000    2.286 
#    0.000    0.000    0.000    0.000    0.000    0.000 
#    0.000    0.000    0.000    0.000    0.000    0.000 
#
# Total GULP energy -156386.931455 kJ/mol
# GULP energy per Si atom -5585.247552 kJ/mol
# Density = 2.158323 g / cm^3
# Si number density = 21.632463 Si / 1000 Ang^3
#
#
#
# Elastic Constant Matrix: (Units=GPa)
#
#
# Indices 1 2 3 4 5 6 
#
# 1 84.6451 10.9005 32.5365 -0.0019 -23.8481 -0.0039
# 2 10.9005 65.7873 2.8906 -0.0005 -4.9751 -0.0077
# 3 32.5365 2.8906 81.1309 -0.0004 -11.4787 -0.0040
# 4 -0.0019 -0.0005 -0.0004 32.1849 0.0004 -9.5600
# 5 -23.8481 -4.9751 -11.4787 0.0004 30.2385 0.0010
# 6 -0.0039 -0.0077 -0.0040 -9.5600 0.0010 21.1163
#
#
#
# Elastic Compliance Matrix: (Units=1/GPa)
#
#
# Indices 1 2 3 4 5 6 
#
# 1 0.017251 -0.001771 -0.005254 0.000001 0.011319 0.000002
# 2 -0.001771 0.015577 0.000339 0.000002 0.001294 0.000006
# 3 -0.005254 0.000339 0.014628 0.000000 0.001465 0.000002
# 4 0.000001 0.000002 0.000000 0.035898 0.000000 0.016252
# 5 0.011319 0.001294 0.001465 0.000000 0.042767 0.000001
# 6 0.000002 0.000006 0.000002 0.016252 0.000001 0.054715
#
#
# Mechanical properties :
#
#
# Convention : Reuss Voigt Hill
#
# Bulk Modulus (GPa) = 29.34046 36.02430 32.68238
# Shear Modulus (GPa) = 24.32278 29.05699 26.68989
#
# Velocity S-wave (km/s) = 3.35679 3.66896 3.51634
# Velocity P-wave (km/s) = 5.34946 5.88536 5.62379
#
# Compressibility (1/GPa) = 0.03408263
#
# Stress axis : x y z
#
# Youngs Moduli (GPa) = 57.96880 64.19713 68.36269
#
# Poissons Ratio (x) = 0.11372 0.35915
# Poissons Ratio (y) = 0.10269 -0.02314
# Poissons Ratio (z) = 0.30454 -0.02173
#
# Static dielectric constant tensor:
#      x y z
#    x 1.809330 0.000000 0.023230 
#    y 0.000000 1.824730 0.000000 
#    z 0.023230 0.000000 1.776610 
# 
# From -- ./inp_files/258942.got.cif
#   From: 2010.05.17/outbox.cif.g08.bks.cpg/sg15_130_cif.got.tgz:258942.got - 2010.06.03 18:47:42.
