data_PCOD9297929
_publ_section_title
;
Structure prediction by ZEFSAII (Michael W. Deem and Ramdas Pophale) SiO2 
 PCOD9297929
Probable space group: C 2/C
;
_chemical_formula_sum "Si O2"
_cell_formula_units_Z 40
_cell_length_a 17.129186
_cell_length_b 10.244038
_cell_length_c 16.878543
_cell_angle_alpha 90.000000
_cell_angle_beta 148.442459
_cell_angle_gamma 90.000000
_cell_volume 1550.025698
_symmetry_space_group_name_H-M "C 2/C"
_symmetry_group_IT_number 15
_symmetry_cell_setting 'monoclinic'
loop_
_space_group_symop_operation_xyz
x,y,z
-x,y,1/2-z
-x,-y,-z
x,-y,1/2+z
1/2+x,1/2+y,z
1/2-x,1/2+y,1/2-z
1/2-x,1/2-y,-z
1/2+x,1/2-y,1/2+z
loop_
_atom_site_type_symbol
_atom_site_label
_atom_site_fract_x
_atom_site_fract_y
_atom_site_fract_z
Si Si1 0.273062 0.721996 0.912301
Si Si2 0.549147 0.432040 0.707007
Si Si3 0.000000 0.000000 0.500000
Si Si4 0.500000 0.931548 0.250000
Si Si5 0.469259 0.077018 0.057165
Si Si6 0.739350 0.742886 0.206974
O O1 0.150705 0.646099 0.856999
O O2 0.271091 0.677826 0.817878
O O3 0.213000 0.868918 0.854754
O O4 0.433663 0.688618 0.086016
O O5 0.500000 0.481394 0.750000
O O6 0.513615 0.529425 0.606288
O O7 0.116127 0.871330 0.613171
O O8 0.467344 0.006958 0.140014
O O9 0.610218 0.172120 0.184206
O O10 0.322016 0.158741 0.910791
O O11 0.500000 0.000000 0.000000
#
# Coordination Sequence:
#
# PCOD9297929 Si02
#       6
#     8   8   4   4   8   8
#     4  11  23  43  72 108 141 188 251 307 370 441
#     4  11  23  41  67 103 138 185 242 309 364 436
#     4  10  24  42  72 104 144 194 250 296 374 452
#     4  12  26  46  76 114 148 194 260 306 380 452
#     4  12  28  49  80 111 155 202 256 319 383 456
#     4  11  25  50  76 108 156 204 250 315 386 457
#
# _framework density 25.806023
#
# number of rings (size 3 to 8) (size 9 to 14) (size 15 to 20)
#    0.000    0.800    3.000    4.200    2.800    2.400 
#    1.800    0.000    0.000    0.000    0.000    0.000 
#    0.000    0.000    0.000    0.000    0.000    0.000 
#
# Total GULP energy -111644.248708 kJ/mol
# GULP energy per Si atom -5582.212435 kJ/mol
# Density = 2.574729 g / cm^3
# Si number density = 25.806023 Si / 1000 Ang^3
#
#
#
# Elastic Constant Matrix: (Units=GPa)
#
#
# Indices 1 2 3 4 5 6 
#
# 1 151.6229 37.0973 71.2442 0.0000 -43.9187 0.0000
# 2 37.0973 80.2842 58.1410 0.0001 -15.0080 0.0000
# 3 71.2442 58.1410 199.5906 0.0001 -23.6010 0.0001
# 4 0.0000 0.0001 0.0001 57.4872 0.0001 -22.4869
# 5 -43.9187 -15.0080 -23.6010 0.0001 63.3515 0.0000
# 6 0.0000 0.0000 0.0001 -22.4869 0.0000 40.3121
#
#
#
# Elastic Compliance Matrix: (Units=1/GPa)
#
#
# Indices 1 2 3 4 5 6 
#
# 1 0.009687 -0.001801 -0.002290 0.000000 0.005435 0.000000
# 2 -0.001801 0.016398 -0.003998 0.000000 0.001146 0.000000
# 3 -0.002290 -0.003998 0.007001 0.000000 0.000073 0.000000
# 4 0.000000 0.000000 0.000000 0.022250 0.000000 0.012412
# 5 0.005435 0.001146 0.000073 0.000000 0.019852 0.000000
# 6 0.000000 0.000000 0.000000 0.012412 0.000000 0.031730
#
#
# Mechanical properties :
#
#
# Convention : Reuss Voigt Hill
#
# Bulk Modulus (GPa) = 59.15026 84.94031 72.04529
# Shear Modulus (GPa) = 38.84037 49.89783 44.36910
#
# Velocity S-wave (km/s) = 3.88376 4.40201 4.15098
# Velocity P-wave (km/s) = 6.56371 7.66964 7.13812
#
# Compressibility (1/GPa) = 0.01690610
#
# Stress axis : x y z
#
# Youngs Moduli (GPa) = 103.23626 60.98370 142.83492
#
# Poissons Ratio (x) = 0.10985 0.32712
# Poissons Ratio (y) = 0.18596 0.57108
# Poissons Ratio (z) = 0.23643 0.24382
#
# Static dielectric constant tensor:
#      x y z
#    x 1.932270 0.000000 -0.084060 
#    y 0.000000 1.705640 0.000000 
#    z -0.084060 0.000000 1.944720 
# 
# From -- ./inp_files/215140.got.cif
#   From: 2010.05.17/outbox.cif.g08.bks.cpg/sg15_108_cif.got.tgz:215140.got - 2010.06.03 18:47:42.
