data_PCOD9297704
_publ_section_title
;
Structure prediction by ZEFSAII (Michael W. Deem and Ramdas Pophale) SiO2 
 PCOD9297704
Probable space group: C 2/C
;
_chemical_formula_sum "Si O2"
_cell_formula_units_Z 40
_cell_length_a 5.457680
_cell_length_b 12.437536
_cell_length_c 25.735499
_cell_angle_alpha 90.000000
_cell_angle_beta 74.423308
_cell_angle_gamma 90.000000
_cell_volume 1682.766651
_symmetry_space_group_name_H-M "C 2/C"
_symmetry_group_IT_number 15
_symmetry_cell_setting 'monoclinic'
loop_
_space_group_symop_operation_xyz
x,y,z
-x,y,1/2-z
-x,-y,-z
x,-y,1/2+z
1/2+x,1/2+y,z
1/2-x,1/2+y,1/2-z
1/2-x,1/2-y,-z
1/2+x,1/2-y,1/2+z
loop_
_atom_site_type_symbol
_atom_site_label
_atom_site_fract_x
_atom_site_fract_y
_atom_site_fract_z
Si Si1 0.532642 0.852986 0.105584
Si Si2 0.117471 0.581333 0.139222
Si Si3 0.549129 0.673355 0.460354
Si Si4 0.047464 0.836550 0.687264
Si Si5 0.258307 0.458225 0.456870
O O1 0.592563 0.781295 0.050507
O O2 0.546927 0.771222 0.152003
O O3 0.276375 0.907708 0.097710
O O4 0.670283 0.962112 0.113727
O O5 0.196270 0.666037 0.089658
O O6 0.305656 0.599973 0.176963
O O7 0.820923 0.603932 0.167749
O O8 0.401021 0.570473 0.446896
O O9 0.624032 0.635204 0.513475
O O10 0.000000 0.811808 0.750000
O O11 0.000000 0.500000 0.500000
#
# Coordination Sequence:
#
# PCOD9297704 Si02
#       5
#     8   8   8   8   8
#     4  11  23  43  71 100 136 185 233 280 347 415
#     4  11  24  47  70  99 139 176 225 291 348 409
#     4  10  24  42  65 100 144 185 229 274 333 414
#     4  11  27  48  71 100 133 174 234 298 358 419
#     4  11  22  43  64 102 151 189 225 278 340 407
#
# _framework density 23.770379999999999
#
# number of rings (size 3 to 8) (size 9 to 14) (size 15 to 20)
#    0.000    1.200    2.000    3.600    0.000    8.800 
#    0.000    0.000    0.000    0.000    0.000    0.000 
#    0.000    0.000    0.000    0.000    0.000    0.000 
#
# Total GULP energy -111617.335360 kJ/mol
# GULP energy per Si atom -5580.866768 kJ/mol
# Density = 2.371628 g / cm^3
# Si number density = 23.770380 Si / 1000 Ang^3
#
#
#
# Elastic Constant Matrix: (Units=GPa)
#
#
# Indices 1 2 3 4 5 6 
#
# 1 146.0248 59.1205 41.3321 0.0000 15.9302 0.0000
# 2 59.1205 167.2564 50.9073 0.0000 17.0768 0.0000
# 3 41.3321 50.9073 84.8137 0.0000 24.3534 0.0000
# 4 0.0000 0.0000 0.0000 31.3408 0.0000 15.4620
# 5 15.9302 17.0768 24.3534 0.0000 46.6337 0.0000
# 6 0.0000 0.0000 0.0000 15.4620 0.0000 28.8714
#
#
#
# Elastic Compliance Matrix: (Units=1/GPa)
#
#
# Indices 1 2 3 4 5 6 
#
# 1 0.008549 -0.002132 -0.002673 0.000000 -0.000744 0.000000
# 2 -0.002132 0.007855 -0.003599 0.000000 -0.000269 0.000000
# 3 -0.002673 -0.003599 0.017190 0.000000 -0.006746 0.000000
# 4 0.000000 0.000000 0.000000 0.043365 0.000000 -0.023224
# 5 -0.000744 -0.000269 -0.006746 0.000000 0.025319 0.000000
# 6 0.000000 0.000000 0.000000 -0.023224 0.000000 0.047074
#
#
# Mechanical properties :
#
#
# Convention : Reuss Voigt Hill
#
# Bulk Modulus (GPa) = 59.56945 77.86830 68.71887
# Shear Modulus (GPa) = 29.11106 37.81817 33.46462
#
# Velocity S-wave (km/s) = 3.50334 3.99303 3.75617
# Velocity P-wave (km/s) = 6.44044 7.35451 6.91260
#
# Compressibility (1/GPa) = 0.01678713
#
# Stress axis : x y z
#
# Youngs Moduli (GPa) = 116.97047 127.30183 58.17285
#
# Poissons Ratio (x) = 0.27147 0.15548
# Poissons Ratio (y) = 0.24944 0.20934
# Poissons Ratio (z) = 0.31263 0.45811
#
# Static dielectric constant tensor:
#      x y z
#    x 2.035100 0.000000 -0.016440 
#    y 0.000000 1.898520 0.000000 
#    z -0.016440 0.000000 1.886430 
# 
# From -- ./inp_files/285171.got.cif
#   From: 2010.05.17/outbox.cif.g08.bks.cpg/sg15_143_cif.got.tgz:285171.got - 2010.06.03 18:47:42.
