data_PCOD9297393
_publ_section_title
;
Structure prediction by ZEFSAII (Michael W. Deem and Ramdas Pophale) SiO2 
 PCOD9297393
Probable space group: C 2/C
;
_chemical_formula_sum "Si O2"
_cell_formula_units_Z 56
_cell_length_a 10.041219
_cell_length_b 8.937600
_cell_length_c 30.716187
_cell_angle_alpha 90.000000
_cell_angle_beta 70.778250
_cell_angle_gamma 90.000000
_cell_volume 2602.928998
_symmetry_space_group_name_H-M "C 2/C"
_symmetry_group_IT_number 15
_symmetry_cell_setting 'monoclinic'
loop_
_space_group_symop_operation_xyz
x,y,z
-x,y,1/2-z
-x,-y,-z
x,-y,1/2+z
1/2+x,1/2+y,z
1/2-x,1/2+y,1/2-z
1/2-x,1/2-y,-z
1/2+x,1/2-y,1/2+z
loop_
_atom_site_type_symbol
_atom_site_label
_atom_site_fract_x
_atom_site_fract_y
_atom_site_fract_z
Si Si1 0.070330 0.614729 0.665517
Si Si2 0.914257 0.266399 0.859040
Si Si3 0.219511 0.256269 0.795395
Si Si4 0.772479 0.496231 0.501861
Si Si5 0.263942 0.607068 0.795353
Si Si6 0.100301 0.242863 0.072503
Si Si7 0.671330 0.266590 0.949609
O O1 0.098532 0.440967 0.652511
O O2 0.153026 0.659158 0.699674
O O3 0.123590 0.716866 0.619920
O O4 0.903227 0.640228 0.685437
O O5 0.840944 0.162844 0.830519
O O6 0.827987 0.247490 0.912899
O O7 0.081773 0.238175 0.840822
O O8 0.269785 0.428135 0.788865
O O9 0.177179 0.196332 0.752492
O O10 0.855281 0.386048 0.461079
O O11 0.691137 0.394837 0.545363
O O12 0.669846 0.592556 0.481843
O O13 0.861007 0.620583 0.518155
O O14 0.937498 0.214737 0.077918
#
# Coordination Sequence:
#
# PCOD9297393 Si02
#       7
#     8   8   8   8   8   8   8
#     4  11  24  42  66  95 133 168 207 266 317 374
#     4  11  24  42  66  95 133 166 210 264 315 379
#     4  11  26  43  68  97 126 168 213 260 320 384
#     4  10  24  40  63  94 124 170 212 263 313 372
#     4  11  24  46  67  94 128 168 213 261 321 375
#     4  11  22  42  64  94 128 167 214 258 315 377
#     4  11  22  43  64  93 130 167 211 263 316 369
#
# _framework density 21.514225
#
# number of rings (size 3 to 8) (size 9 to 14) (size 15 to 20)
#    0.000    1.143    2.857    2.571    2.000    6.857 
#   10.286    0.000    0.000    0.000    0.000    0.000 
#    0.000    0.000    0.000    0.000    0.000    0.000 
#
# Total GULP energy -156594.988727 kJ/mol
# GULP energy per Si atom -5592.678169 kJ/mol
# Density = 2.146526 g / cm^3
# Si number density = 21.514225 Si / 1000 Ang^3
#
#
#
# Elastic Constant Matrix: (Units=GPa)
#
#
# Indices 1 2 3 4 5 6 
#
# 1 42.6193 15.9377 -15.7278 0.0000 10.6828 0.0000
# 2 15.9377 53.5750 -2.1741 0.0000 -3.1810 0.0000
# 3 -15.7278 -2.1741 43.1998 0.0000 -6.6265 0.0000
# 4 0.0000 0.0000 0.0000 27.1266 0.0000 3.5943
# 5 10.6828 -3.1810 -6.6265 0.0000 29.8660 0.0000
# 6 0.0000 0.0000 0.0000 3.5943 0.0000 11.6011
#
#
#
# Elastic Compliance Matrix: (Units=1/GPa)
#
#
# Indices 1 2 3 4 5 6 
#
# 1 0.033781 -0.010289 0.010103 0.000000 -0.010937 0.000000
# 2 -0.010289 0.021988 -0.001776 0.000000 0.005628 0.000000
# 3 0.010103 -0.001776 0.027075 0.000000 0.002204 0.000000
# 4 0.000000 0.000000 0.000000 0.038442 0.000000 -0.011910
# 5 -0.010937 0.005628 0.002204 0.000000 0.038484 0.000000
# 6 0.000000 0.000000 0.000000 -0.011910 0.000000 0.089889
#
#
# Mechanical properties :
#
#
# Convention : Reuss Voigt Hill
#
# Bulk Modulus (GPa) = 12.67078 15.05172 13.86125
# Shear Modulus (GPa) = 17.86419 23.14261 20.50340
#
# Velocity S-wave (km/s) = 2.88469 3.28333 3.09044
# Velocity P-wave (km/s) = 4.12281 4.62439 4.38079
#
# Compressibility (1/GPa) = 0.07892174
#
# Stress axis : x y z
#
# Youngs Moduli (GPa) = 29.60246 45.47881 36.93400
#
# Poissons Ratio (x) = 0.46792 -0.37315
# Poissons Ratio (y) = 0.30457 0.06559
# Poissons Ratio (z) = -0.29908 0.08077
#
# Static dielectric constant tensor:
#      x y z
#    x 1.791710 0.000000 -0.022530 
#    y 0.000000 1.745960 0.000000 
#    z -0.022530 0.000000 1.768080 
# 
# From -- ./inp_files/309929.got.cif
#   From: 2010.05.17/outbox.cif.g08.bks.cpg/sg15_155_cif.got.tgz:309929.got - 2010.06.03 18:47:42.
