data_PCOD9297433
_publ_section_title
;
Structure prediction by ZEFSAII (Michael W. Deem and Ramdas Pophale) SiO2 
 PCOD9297433
Probable space group: C 2/C
;
_chemical_formula_sum "Si O2"
_cell_formula_units_Z 44
_cell_length_a 8.207823
_cell_length_b 15.106204
_cell_length_c 18.925617
_cell_angle_alpha 90.000000
_cell_angle_beta 56.437026
_cell_angle_gamma 90.000000
_cell_volume 1955.346130
_symmetry_space_group_name_H-M "C 2/C"
_symmetry_group_IT_number 15
_symmetry_cell_setting 'monoclinic'
loop_
_space_group_symop_operation_xyz
x,y,z
-x,y,1/2-z
-x,-y,-z
x,-y,1/2+z
1/2+x,1/2+y,z
1/2-x,1/2+y,1/2-z
1/2-x,1/2-y,-z
1/2+x,1/2-y,1/2+z
loop_
_atom_site_type_symbol
_atom_site_label
_atom_site_fract_x
_atom_site_fract_y
_atom_site_fract_z
Si Si1 0.951450 0.477329 0.336846
Si Si2 0.973977 0.242766 0.021261
Si Si3 0.842193 0.977973 0.337584
Si Si4 0.476346 0.288442 0.360219
Si Si5 0.000000 0.348407 0.750000
Si Si6 0.255239 0.397501 0.987930
O O1 0.147042 0.471644 0.337186
O O2 0.901677 0.578054 0.324975
O O3 0.000000 0.431206 0.250000
O O4 0.782722 0.439902 0.426480
O O5 0.068702 0.171868 0.050541
O O6 0.743665 0.249037 0.085493
O O7 0.066400 0.338533 0.013933
O O8 0.036177 0.215436 0.927132
O O9 0.946749 0.886409 0.336506
O O10 0.000000 0.026250 0.250000
O O11 0.789707 0.029710 0.420841
O O12 0.598036 0.222021 0.280564
#
# Coordination Sequence:
#
# PCOD9297433 Si02
#       6
#     8   8   8   8   4   8
#     4  10  25  43  69  95 134 179 219 271 338 395
#     4  10  25  43  67  98 129 182 221 269 334 394
#     4  12  26  43  68 102 132 175 226 277 333 396
#     4  11  23  42  66  96 138 169 222 275 332 395
#     4  10  24  40  66  92 134 174 214 268 332 392
#     4  11  24  47  69  95 136 177 225 271 331 400
#
# _framework density 22.502407999999999
#
# number of rings (size 3 to 8) (size 9 to 14) (size 15 to 20)
#    0.545    0.727    2.727    1.636   10.182    0.727 
#    0.000    1.818    0.000    0.000    0.000    0.000 
#    0.000    0.000    0.000    0.000    0.000    0.000 
#
# Total GULP energy -122793.160487 kJ/mol
# GULP energy per Si atom -5581.507295 kJ/mol
# Density = 2.245119 g / cm^3
# Si number density = 22.502408 Si / 1000 Ang^3
#
#
#
# Elastic Constant Matrix: (Units=GPa)
#
#
# Indices 1 2 3 4 5 6 
#
# 1 38.7650 18.0360 24.6293 0.0001 11.4401 0.0000
# 2 18.0360 116.0495 61.8466 0.0001 14.6449 0.0000
# 3 24.6293 61.8466 126.6422 0.0002 34.1266 0.0000
# 4 0.0001 0.0001 0.0002 -83.7413 -0.0001 15.2314
# 5 11.4401 14.6449 34.1266 -0.0001 34.0788 0.0000
# 6 0.0000 0.0000 0.0000 15.2314 0.0000 9.6255
#
#
#
# Elastic Compliance Matrix: (Units=1/GPa)
#
#
# Indices 1 2 3 4 5 6 
#
# 1 0.030703 -0.002293 -0.003204 0.000000 -0.006113 0.000000
# 2 -0.002293 0.011842 -0.005716 0.000000 0.001404 0.000000
# 3 -0.003204 -0.005716 0.014188 0.000000 -0.010676 0.000000
# 4 0.000000 0.000000 0.000000 -0.009273 0.000000 0.014673
# 5 -0.006113 0.001404 -0.010676 0.000000 0.041483 0.000000
# 6 0.000000 0.000000 0.000000 0.014673 0.000000 0.080672
#
#
# Mechanical properties :
#
#
# Convention : Reuss Voigt Hill
#
# Bulk Modulus (GPa) = 29.14830 54.49785 41.82308
# Shear Modulus (GPa) = 24.57292 3.78892 14.18092
#
# Velocity S-wave (km/s) = 3.30815 1.29902 2.51309
# Velocity P-wave (km/s) = 5.25103 5.14987 5.20070
#
# Compressibility (1/GPa) = 0.03430732
#
# Stress axis : x y z
#
# Youngs Moduli (GPa) = 32.57013 84.44343 70.48442
#
# Poissons Ratio (x) = 0.19361 0.22584
# Poissons Ratio (y) = 0.07467 0.40288
# Poissons Ratio (z) = 0.10436 0.48266
#
# Static dielectric constant tensor:
#      x y z
#    x 1.834840 0.000000 -0.002410 
#    y 0.000000 1.822330 0.000000 
#    z -0.002410 0.000000 1.897600 
# 
# From -- ./inp_files/231000.got.cif
#   From: 2010.05.17/outbox.cif.g08.bks.cpg/sg15_116_cif.got.tgz:231000.got - 2010.06.03 18:47:42.
