data_PCOD9297103
_publ_section_title
;
Structure prediction by ZEFSAII (Michael W. Deem and Ramdas Pophale) SiO2 
 PCOD9297103
Probable space group: C 2/C
;
_chemical_formula_sum "Si O2"
_cell_formula_units_Z 60
_cell_length_a 18.116271
_cell_length_b 7.234699
_cell_length_c 22.892632
_cell_angle_alpha 90.000000
_cell_angle_beta 127.800890
_cell_angle_gamma 90.000000
_cell_volume 2370.784445
_symmetry_space_group_name_H-M "C 2/C"
_symmetry_group_IT_number 15
_symmetry_cell_setting 'monoclinic'
loop_
_space_group_symop_operation_xyz
x,y,z
-x,y,1/2-z
-x,-y,-z
x,-y,1/2+z
1/2+x,1/2+y,z
1/2-x,1/2+y,1/2-z
1/2-x,1/2-y,-z
1/2+x,1/2-y,1/2+z
loop_
_atom_site_type_symbol
_atom_site_label
_atom_site_fract_x
_atom_site_fract_y
_atom_site_fract_z
Si Si1 0.081293 0.952902 0.897318
Si Si2 0.336333 0.674855 0.743306
Si Si3 0.442839 0.849637 0.358354
Si Si4 0.335122 0.765909 0.418381
Si Si5 0.272876 0.254626 0.700964
Si Si6 0.281883 0.583345 0.944502
Si Si7 0.379653 0.887002 0.563590
Si Si8 0.500000 0.433842 0.250000
O O1 0.987302 0.856030 0.874277
O O2 0.099824 0.170777 0.914590
O O3 0.068623 0.939170 0.821626
O O4 0.162813 0.847427 0.971461
O O5 0.260532 0.765892 0.663711
O O6 0.307176 0.461357 0.725886
O O7 0.317180 0.731729 0.800440
O O8 0.437192 0.686578 0.762999
O O9 0.403014 0.857187 0.404356
O O10 0.357558 0.865329 0.270778
O O11 0.525952 0.993904 0.389023
O O12 0.356445 0.558784 0.450585
O O13 0.334102 0.887495 0.476489
O O14 0.249415 0.212912 0.622939
O O15 0.195312 0.464320 0.927032
#
# Coordination Sequence:
#
# PCOD9297103 Si02
#       8
#     8   8   8   8   8   8   8   4
#     4  11  26  45  71 106 142 190 234 302 360 424
#     4  11  24  43  72  97 143 190 233 297 358 420
#     4  11  25  45  70 104 143 183 246 296 358 423
#     4  10  23  48  67 101 146 183 239 300 354 441
#     4  11  25  46  67 107 142 187 241 293 361 437
#     4  11  25  45  72 100 147 188 239 294 364 428
#     4  11  25  44  71 107 143 189 243 293 363 423
#     4  12  24  44  72 102 140 180 248 288 358 434
#
# _framework density 25.308078999999999
#
# number of rings (size 3 to 8) (size 9 to 14) (size 15 to 20)
#    0.000    1.067    1.333    5.200    3.733    7.467 
#    0.000    0.000    0.000    0.000    0.000    0.000 
#    0.000    0.000    0.000    0.000    0.000    0.000 
#
# Total GULP energy -167912.002006 kJ/mol
# GULP energy per Si atom -5597.066734 kJ/mol
# Density = 2.525048 g / cm^3
# Si number density = 25.308079 Si / 1000 Ang^3
#
#
#
# Elastic Constant Matrix: (Units=GPa)
#
#
# Indices 1 2 3 4 5 6 
#
# 1 151.2905 24.2055 53.9323 0.0000 -13.1740 0.0000
# 2 24.2055 77.6265 30.5837 0.0000 -9.0552 0.0000
# 3 53.9323 30.5837 173.9017 0.0000 -13.8729 0.0000
# 4 0.0000 0.0000 0.0000 19.2921 0.0000 9.7806
# 5 -13.1740 -9.0552 -13.8729 0.0000 35.3515 0.0000
# 6 0.0000 0.0000 0.0000 9.7806 0.0000 34.3967
#
#
#
# Elastic Compliance Matrix: (Units=1/GPa)
#
#
# Indices 1 2 3 4 5 6 
#
# 1 0.007699 -0.001411 -0.002002 0.000000 0.001722 0.000000
# 2 -0.001411 0.014349 -0.001894 0.000000 0.002406 0.000000
# 3 -0.002002 -0.001894 0.006820 0.000000 0.001445 0.000000
# 4 0.000000 0.000000 0.000000 0.060566 0.000000 -0.017222
# 5 0.001722 0.002406 0.001445 0.000000 0.030113 0.000000
# 6 0.000000 0.000000 0.000000 -0.017222 0.000000 0.033969
#
#
# Mechanical properties :
#
#
# Convention : Reuss Voigt Hill
#
# Bulk Modulus (GPa) = 54.78392 68.91796 61.85094
# Shear Modulus (GPa) = 29.37468 37.41454 33.39461
#
# Velocity S-wave (km/s) = 3.41058 3.84912 3.63647
# Velocity P-wave (km/s) = 6.09944 6.85894 6.49031
#
# Compressibility (1/GPa) = 0.01825353
#
# Stress axis : x y z
#
# Youngs Moduli (GPa) = 129.88238 69.69078 146.63413
#
# Poissons Ratio (x) = 0.09834 0.29360
# Poissons Ratio (y) = 0.18327 0.27772
# Poissons Ratio (z) = 0.26006 0.13199
#
# Static dielectric constant tensor:
#      x y z
#    x 1.984970 0.000000 0.017890 
#    y 0.000000 2.063070 0.000000 
#    z 0.017890 0.000000 2.085970 
# 
# From -- ./inp_files/247843.got.cif
#   From: 2010.05.17/outbox.cif.g08.bks.cpg/sg15_124_cif.got.tgz:247843.got - 2010.06.03 18:47:42.
