data_PCOD9297451
_publ_section_title
;
Structure prediction by ZEFSAII (Michael W. Deem and Ramdas Pophale) SiO2 
 PCOD9297451
Probable space group: C 2/C
;
_chemical_formula_sum "Si O2"
_cell_formula_units_Z 52
_cell_length_a 8.085675
_cell_length_b 27.301513
_cell_length_c 10.750656
_cell_angle_alpha 90.000000
_cell_angle_beta 112.484332
_cell_angle_gamma 90.000000
_cell_volume 2192.817465
_symmetry_space_group_name_H-M "C 2/C"
_symmetry_group_IT_number 15
_symmetry_cell_setting 'monoclinic'
loop_
_space_group_symop_operation_xyz
x,y,z
-x,y,1/2-z
-x,-y,-z
x,-y,1/2+z
1/2+x,1/2+y,z
1/2-x,1/2+y,1/2-z
1/2-x,1/2-y,-z
1/2+x,1/2-y,1/2+z
loop_
_atom_site_type_symbol
_atom_site_label
_atom_site_fract_x
_atom_site_fract_y
_atom_site_fract_z
Si Si1 0.099810 0.204186 0.976254
Si Si2 0.500000 0.057953 0.250000
Si Si3 0.567047 0.922708 0.487002
Si Si4 0.370916 0.648563 0.113094
Si Si5 0.695441 0.609745 0.869136
Si Si6 0.338370 0.779207 0.765894
Si Si7 0.297145 0.485788 0.962263
O O1 0.212257 0.164551 0.929285
O O2 0.946052 0.235089 0.861824
O O3 0.218367 0.234827 0.111029
O O4 0.991812 0.169539 0.040051
O O5 0.480005 0.083238 0.378561
O O6 0.319274 0.026007 0.192437
O O7 0.721141 0.883905 0.508054
O O8 0.384817 0.907501 0.362013
O O9 0.665836 0.974732 0.491582
O O10 0.500000 0.621549 0.250000
O O11 0.276353 0.691401 0.167101
O O12 0.500000 0.610823 0.750000
O O13 0.679781 0.565527 0.961417
O O14 0.500000 0.810458 0.750000
O O15 0.500000 0.500000 0.000000
#
# Coordination Sequence:
#
# PCOD9297451 Si02
#       7
#     8   4   8   8   8   8   8
#     4  11  24  45  67 104 137 189 236 303 367 438
#     4  10  24  40  68  96 140 176 246 278 350 418
#     4  11  25  44  68 105 140 189 238 293 359 431
#     4  10  24  40  67  99 142 181 241 297 361 434
#     4  11  25  44  69 101 143 183 238 297 359 433
#     4  11  23  41  70  96 134 179 238 294 364 429
#     4  11  26  42  71 102 141 188 234 292 359 426
#
# _framework density 23.713784
#
# number of rings (size 3 to 8) (size 9 to 14) (size 15 to 20)
#    0.000    1.231    0.000    5.077   16.154    1.231 
#    0.000    1.538    0.000    0.000    0.000    0.000 
#    0.000    0.000    0.000    0.000    0.000    0.000 
#
# Total GULP energy -144973.435522 kJ/mol
# GULP energy per Si atom -5575.901366 kJ/mol
# Density = 2.365981 g / cm^3
# Si number density = 23.713784 Si / 1000 Ang^3
#
#
#
# Elastic Constant Matrix: (Units=GPa)
#
#
# Indices 1 2 3 4 5 6 
#
# 1 96.9040 16.7744 15.1104 0.0000 42.7871 0.0000
# 2 16.7744 120.1494 36.9122 0.0000 23.7381 0.0000
# 3 15.1104 36.9122 106.1335 0.0000 43.0934 0.0000
# 4 0.0000 0.0000 0.0000 -22.1394 0.0000 34.5114
# 5 42.7871 23.7381 43.0934 0.0000 49.7287 0.0000
# 6 0.0000 0.0000 0.0000 34.5114 0.0000 17.7994
#
#
#
# Elastic Compliance Matrix: (Units=1/GPa)
#
#
# Indices 1 2 3 4 5 6 
#
# 1 0.018850 -0.000282 0.006086 0.000000 -0.021358 0.000000
# 2 -0.000282 0.009534 -0.002355 0.000000 -0.002268 0.000000
# 3 0.006086 -0.002355 0.017040 0.000000 -0.018879 0.000000
# 4 0.000000 0.000000 0.000000 -0.011229 0.000000 0.021772
# 5 -0.021358 -0.002268 -0.018879 0.000000 0.055929 0.000000
# 6 0.000000 0.000000 0.000000 0.021772 0.000000 0.013967
#
#
# Mechanical properties :
#
#
# Convention : Reuss Voigt Hill
#
# Bulk Modulus (GPa) = 19.11183 51.19788 35.15485
# Shear Modulus (GPa) = 43.61788 26.03709 34.82748
#
# Velocity S-wave (km/s) = 4.29341 3.31716 3.83647
# Velocity P-wave (km/s) = 5.71443 6.02563 5.87209
#
# Compressibility (1/GPa) = 0.05232362
#
# Stress axis : x y z
#
# Youngs Moduli (GPa) = 53.05089 104.88963 58.68522
#
# Poissons Ratio (x) = 0.02955 -0.35719
# Poissons Ratio (y) = 0.01495 0.13819
# Poissons Ratio (z) = -0.32289 0.24699
#
# Static dielectric constant tensor:
#      x y z
#    x 2.015640 0.000000 0.175980 
#    y 0.000000 1.940320 0.000000 
#    z 0.175980 0.000000 1.953690 
# 
# From -- ./inp_files/81486.got.cif
#   From: 2010.05.17/outbox.cif.g08.bks.cpg/sg15_41_cif.got.tgz:81486.got - 2010.06.03 18:47:42.
