data_PCOD9297794
_publ_section_title
;
Structure prediction by ZEFSAII (Michael W. Deem and Ramdas Pophale) SiO2 
 PCOD9297794
Probable space group: C 2/C
;
_chemical_formula_sum "Si O2"
_cell_formula_units_Z 64
_cell_length_a 12.778603
_cell_length_b 8.498761
_cell_length_c 29.588796
_cell_angle_alpha 90.000000
_cell_angle_beta 95.235112
_cell_angle_gamma 90.000000
_cell_volume 3200.006890
_symmetry_space_group_name_H-M "C 2/C"
_symmetry_group_IT_number 15
_symmetry_cell_setting 'monoclinic'
loop_
_space_group_symop_operation_xyz
x,y,z
-x,y,1/2-z
-x,-y,-z
x,-y,1/2+z
1/2+x,1/2+y,z
1/2-x,1/2+y,1/2-z
1/2-x,1/2-y,-z
1/2+x,1/2-y,1/2+z
loop_
_atom_site_type_symbol
_atom_site_label
_atom_site_fract_x
_atom_site_fract_y
_atom_site_fract_z
Si Si1 0.131422 0.265803 0.551659
Si Si2 0.730401 0.004456 0.981684
Si Si3 0.942357 0.568545 0.198750
Si Si4 0.607597 0.696020 0.952731
Si Si5 0.341646 0.627163 0.647438
Si Si6 0.614133 0.519208 0.267618
Si Si7 0.276400 0.811616 0.219550
Si Si8 0.146779 0.571637 0.149540
O O1 0.165178 0.391981 0.515043
O O2 0.133437 0.346556 0.600611
O O3 0.013923 0.203766 0.538648
O O4 0.214872 0.123880 0.550964
O O5 0.657239 0.870906 0.957356
O O6 0.823220 0.914391 0.012179
O O7 0.883796 0.722334 0.176542
O O8 0.852957 0.435825 0.198827
O O9 0.000000 0.589090 0.250000
O O10 0.036378 0.530936 0.167966
O O11 0.620587 0.636768 0.902053
O O12 0.387852 0.482143 0.678087
O O13 0.218610 0.583325 0.645310
O O14 0.500000 0.467504 0.250000
O O15 0.646170 0.690906 0.252080
O O16 0.701294 0.404485 0.250537
O O17 0.204245 0.700081 0.184773
#
# Coordination Sequence:
#
# PCOD9297794 Si02
#       8
#     8   8   8   8   8   8   8   8
#     4  11  22  42  67  93 128 167 209 258 318 380
#     4  10  24  42  67  93 127 166 211 259 319 376
#     4  12  24  42  66  90 126 173 211 257 318 369
#     4  11  22  42  65  96 125 166 209 260 315 375
#     4  11  22  39  63  92 128 161 210 259 306 374
#     4  11  23  41  64  91 125 167 207 258 311 368
#     4  11  25  41  63  93 126 165 215 256 312 374
#     4  11  24  41  63  96 129 167 209 263 312 370
#
# _framework density 19.999957999999999
#
# number of rings (size 3 to 8) (size 9 to 14) (size 15 to 20)
#    0.000    1.000    2.500    5.250    1.750    1.000 
#    0.000    2.500    0.000    0.000    0.000    0.000 
#    0.000    0.000    0.000    0.000    0.000    0.000 
#
# Total GULP energy -178699.803260 kJ/mol
# GULP energy per Si atom -5584.368852 kJ/mol
# Density = 1.995444 g / cm^3
# Si number density = 19.999958 Si / 1000 Ang^3
#
#
#
# Elastic Constant Matrix: (Units=GPa)
#
#
# Indices 1 2 3 4 5 6 
#
# 1 117.6629 23.3934 28.0733 0.0000 -30.4841 0.0000
# 2 23.3934 43.6388 -4.9394 0.0000 -11.0834 0.0000
# 3 28.0733 -4.9394 67.8064 0.0000 -15.5432 0.0000
# 4 0.0000 0.0000 0.0000 19.8738 0.0000 7.7372
# 5 -30.4841 -11.0834 -15.5432 0.0000 24.2405 0.0000
# 6 0.0000 0.0000 0.0000 7.7372 0.0000 -23.5739
#
#
#
# Elastic Compliance Matrix: (Units=1/GPa)
#
#
# Indices 1 2 3 4 5 6 
#
# 1 0.013410 -0.004176 -0.002847 0.000000 0.013129 0.000000
# 2 -0.004176 0.029030 0.006662 0.000000 0.012293 0.000000
# 3 -0.002847 0.006662 0.019096 0.000000 0.011711 0.000000
# 4 0.000000 0.000000 0.000000 0.044616 0.000000 0.014644
# 5 0.013129 0.012293 0.011711 0.000000 0.070894 0.000000
# 6 0.000000 0.000000 0.000000 0.014644 0.000000 -0.037614
#
#
# Mechanical properties :
#
#
# Convention : Reuss Voigt Hill
#
# Bulk Modulus (GPa) = 16.44357 35.79586 26.11972
# Shear Modulus (GPa) = 31.16693 16.28014 23.72353
#
# Velocity S-wave (km/s) = 3.95188 2.85618 3.44783
# Velocity P-wave (km/s) = 5.39099 5.36785 5.37943
#
# Compressibility (1/GPa) = 0.06081404
#
# Stress axis : x y z
#
# Youngs Moduli (GPa) = 74.57236 34.44665 52.36655
#
# Poissons Ratio (x) = 0.14386 0.14907
# Poissons Ratio (y) = 0.31144 -0.34885
# Poissons Ratio (z) = 0.21228 -0.22948
#
# Static dielectric constant tensor:
#      x y z
#    x 1.711840 0.000000 0.022300 
#    y 0.000000 1.723330 0.000000 
#    z 0.022300 0.000000 1.698530 
# 
# From -- ./inp_files/310307.got.cif
#   From: 2010.05.17/outbox.cif.g08.bks.cpg/sg15_156_cif.got.tgz:310307.got - 2010.06.03 18:47:42.
