data_PCOD9297621
_publ_section_title
;
Structure prediction by ZEFSAII (Michael W. Deem and Ramdas Pophale) SiO2 
 PCOD9297621
Probable space group: C 2/C
;
_chemical_formula_sum "Si O2"
_cell_formula_units_Z 52
_cell_length_a 17.439291
_cell_length_b 9.651782
_cell_length_c 17.496292
_cell_angle_alpha 90.000000
_cell_angle_beta 131.225270
_cell_angle_gamma 90.000000
_cell_volume 2214.991078
_symmetry_space_group_name_H-M "C 2/C"
_symmetry_group_IT_number 15
_symmetry_cell_setting 'monoclinic'
loop_
_space_group_symop_operation_xyz
x,y,z
-x,y,1/2-z
-x,-y,-z
x,-y,1/2+z
1/2+x,1/2+y,z
1/2-x,1/2+y,1/2-z
1/2-x,1/2-y,-z
1/2+x,1/2-y,1/2+z
loop_
_atom_site_type_symbol
_atom_site_label
_atom_site_fract_x
_atom_site_fract_y
_atom_site_fract_z
Si Si1 0.228692 0.704102 0.072586
Si Si2 0.599859 0.126299 0.629253
Si Si3 0.919180 0.110638 0.305089
Si Si4 0.000000 0.095660 0.750000
Si Si5 0.673955 0.189759 0.384773
Si Si6 0.078668 0.446557 0.958807
Si Si7 0.786502 0.973880 0.346033
O O1 0.329907 0.649042 0.184532
O O2 0.184666 0.841997 0.083859
O O3 0.250000 0.750000 0.000000
O O4 0.151563 0.576354 0.022804
O O5 0.542944 0.240859 0.641985
O O6 0.536854 0.986777 0.600919
O O7 0.605292 0.161495 0.543473
O O8 0.709364 0.096526 0.734925
O O9 0.871280 0.043062 0.349252
O O10 0.000680 0.007772 0.322352
O O11 0.102117 0.186811 0.807041
O O12 0.750000 0.250000 0.500000
O O13 0.729302 0.090578 0.359994
O O14 0.596553 0.099186 0.385043
#
# Coordination Sequence:
#
# PCOD9297621 Si02
#       7
#     8   8   8   4   8   8   8
#     4  11  23  42  73 100 135 180 236 297 356 430
#     4  10  24  41  69  98 135 179 229 294 347 429
#     4  11  26  45  68 101 141 185 235 290 363 421
#     4  12  30  44  72 104 150 186 248 296 360 432
#     4  12  26  44  72 101 143 186 234 292 362 426
#     4  11  22  44  68 102 135 174 237 287 363 426
#     4  11  24  43  71  99 138 184 233 287 361 426
#
# _framework density 23.476391
#
# number of rings (size 3 to 8) (size 9 to 14) (size 15 to 20)
#    0.000    0.923    3.077    2.769    6.462    2.462 
#    0.000    2.308    0.000    0.000    0.000    0.000 
#    0.000    0.000    0.000    0.000    0.000    0.000 
#
# Total GULP energy -145396.624924 kJ/mol
# GULP energy per Si atom -5592.177882 kJ/mol
# Density = 2.342296 g / cm^3
# Si number density = 23.476391 Si / 1000 Ang^3
#
#
#
# Elastic Constant Matrix: (Units=GPa)
#
#
# Indices 1 2 3 4 5 6 
#
# 1 70.5436 6.7226 -0.7554 0.0000 -40.8327 0.0000
# 2 6.7226 87.3090 12.6276 0.0000 -15.3431 0.0000
# 3 -0.7554 12.6276 57.0101 0.0000 -14.7824 0.0000
# 4 0.0000 0.0000 0.0000 23.0006 0.0000 -11.3055
# 5 -40.8327 -15.3431 -14.7824 0.0000 41.0335 0.0000
# 6 0.0000 0.0000 0.0000 -11.3055 0.0000 48.1988
#
#
#
# Elastic Compliance Matrix: (Units=1/GPa)
#
#
# Indices 1 2 3 4 5 6 
#
# 1 0.040369 0.003216 0.011638 0.000000 0.045567 0.000000
# 2 0.003216 0.012664 -0.000777 0.000000 0.007655 0.000000
# 3 0.011638 -0.000777 0.022937 0.000000 0.019553 0.000000
# 4 0.000000 0.000000 0.000000 0.049143 0.000000 0.011527
# 5 0.045567 0.007655 0.019553 0.000000 0.079621 0.000000
# 6 0.000000 0.000000 0.000000 0.011527 0.000000 0.023451
#
#
# Mechanical properties :
#
#
# Convention : Reuss Voigt Hill
#
# Bulk Modulus (GPa) = 9.60403 28.00580 18.80492
# Shear Modulus (GPa) = 21.30021 35.53112 28.41566
#
# Velocity S-wave (km/s) = 3.01542 3.89457 3.48284
# Velocity P-wave (km/s) = 4.02783 5.67264 4.91947
#
# Compressibility (1/GPa) = 0.10412294
#
# Stress axis : x y z
#
# Youngs Moduli (GPa) = 24.77141 78.96597 43.59728
#
# Poissons Ratio (x) = -0.25396 -0.50737
# Poissons Ratio (y) = -0.07967 0.03389
# Poissons Ratio (z) = -0.28828 0.06138
#
# Static dielectric constant tensor:
#      x y z
#    x 1.898160 0.000000 -0.040210 
#    y 0.000000 1.916310 0.000000 
#    z -0.040210 0.000000 1.940140 
# 
# From -- ./inp_files/209686.got.cif
#   From: 2010.05.17/outbox.cif.g08.bks.cpg/sg15_105_cif.got.tgz:209686.got - 2010.06.03 18:47:42.
