data_PCOD9297236
_publ_section_title
;
Structure prediction by ZEFSAII (Michael W. Deem and Ramdas Pophale) SiO2 
 PCOD9297236
Probable space group: C 2/C
;
_chemical_formula_sum "Si O2"
_cell_formula_units_Z 64
_cell_length_a 21.724339
_cell_length_b 31.571601
_cell_length_c 15.160176
_cell_angle_alpha 90.000000
_cell_angle_beta 158.741690
_cell_angle_gamma 90.000000
_cell_volume 3770.015463
_symmetry_space_group_name_H-M "C 2/C"
_symmetry_group_IT_number 15
_symmetry_cell_setting 'monoclinic'
loop_
_space_group_symop_operation_xyz
x,y,z
-x,y,1/2-z
-x,-y,-z
x,-y,1/2+z
1/2+x,1/2+y,z
1/2-x,1/2+y,1/2-z
1/2-x,1/2-y,-z
1/2+x,1/2-y,1/2+z
loop_
_atom_site_type_symbol
_atom_site_label
_atom_site_fract_x
_atom_site_fract_y
_atom_site_fract_z
Si Si1 0.175699 0.115668 0.828576
Si Si2 0.616312 0.919634 0.050971
Si Si3 0.555560 0.684820 0.928861
Si Si4 0.149837 0.358102 0.758611
Si Si5 0.934906 0.727934 0.258563
Si Si6 0.471699 0.527624 0.874095
Si Si7 0.666622 0.464729 0.025505
Si Si8 0.605104 0.000292 0.309851
O O1 0.038263 0.078097 0.633184
O O2 0.083446 0.160746 0.698568
O O3 0.250531 0.118123 0.027826
O O4 0.216903 0.016795 0.912874
O O5 0.678956 0.894169 0.048343
O O6 0.780345 0.935600 0.322652
O O7 0.504183 0.889642 0.963254
O O8 0.508694 0.960762 0.877310
O O9 0.500000 0.685030 0.750000
O O10 0.558016 0.734226 0.955713
O O11 0.723381 0.656171 0.149106
O O12 0.083049 0.313267 0.706479
O O13 0.000000 0.714089 0.250000
O O14 0.750000 0.750000 0.000000
O O15 0.609530 0.510213 0.989072
O O16 0.500000 0.500000 0.000000
O O17 0.500000 0.449620 0.750000
O O18 0.830777 0.470681 0.183259
O O19 0.500000 0.980187 0.250000
#
# Coordination Sequence:
#
# PCOD9297236 Si02
#       8
#     8   8   8   8   8   8   8   8
#     4  11  19  31  49  70 102 135 171 207 247 299
#     4  12  21  35  50  75  98 128 177 216 255 306
#     4   9  20  31  44  73 105 140 172 197 244 308
#     4  11  21  31  50  75 104 139 173 210 247 297
#     4  11  17  31  47  68 108 146 167 194 245 307
#     4  11  20  34  51  69 100 137 172 212 254 301
#     4  10  24  37  52  69  96 135 169 219 267 313
#     4  11  20  35  51  71  96 126 173 217 256 303
#
# _framework density 16.976057999999998
#
# number of rings (size 3 to 8) (size 9 to 14) (size 15 to 20)
#    0.000    1.250    7.500    1.500    1.750    1.500 
#    0.000    0.000    0.000    0.000    0.000    0.000 
#    0.000    4.000    0.000    0.000    0.000    0.125 
#
# Total GULP energy -178358.742421 kJ/mol
# GULP energy per Si atom -5573.710701 kJ/mol
# Density = 1.693742 g / cm^3
# Si number density = 16.976058 Si / 1000 Ang^3
#
#
#
# Elastic Constant Matrix: (Units=GPa)
#
#
# Indices 1 2 3 4 5 6 
#
# 1 55.5949 12.8985 18.7559 0.0000 14.9461 0.0000
# 2 12.8985 69.4898 22.6997 0.0000 -5.7118 0.0000
# 3 18.7559 22.6997 52.9986 0.0001 4.2427 0.0001
# 4 0.0000 0.0000 0.0001 26.0258 0.0000 12.8501
# 5 14.9461 -5.7118 4.2427 0.0000 30.2053 0.0000
# 6 0.0000 0.0000 0.0001 12.8501 0.0000 17.7529
#
#
#
# Elastic Compliance Matrix: (Units=1/GPa)
#
#
# Indices 1 2 3 4 5 6 
#
# 1 0.023965 -0.003418 -0.006084 0.000000 -0.011650 0.000000
# 2 -0.003418 0.017768 -0.006882 0.000000 0.006018 0.000000
# 3 -0.006084 -0.006882 0.024104 0.000000 -0.001676 0.000000
# 4 0.000000 0.000000 0.000000 0.059792 0.000000 -0.043280
# 5 -0.011650 0.006018 -0.001676 0.000000 0.040245 0.000000
# 6 0.000000 0.000000 0.000000 -0.043280 0.000000 0.087656
#
#
# Mechanical properties :
#
#
# Convention : Reuss Voigt Hill
#
# Bulk Modulus (GPa) = 30.24191 31.86572 31.05381
# Shear Modulus (GPa) = 16.81682 23.04542 19.93112
#
# Velocity S-wave (km/s) = 3.15083 3.68846 3.43019
# Velocity P-wave (km/s) = 5.57585 6.07876 5.83273
#
# Compressibility (1/GPa) = 0.03306670
#
# Stress axis : x y z
#
# Youngs Moduli (GPa) = 41.72760 56.28119 41.48771
#
# Poissons Ratio (x) = 0.19239 0.25242
# Poissons Ratio (y) = 0.14264 0.28553
# Poissons Ratio (z) = 0.25388 0.38734
#
# Static dielectric constant tensor:
#      x y z
#    x 1.625650 0.000000 0.037590 
#    y 0.000000 1.591580 0.000000 
#    z 0.037590 0.000000 1.626520 
# 
# From -- ./inp_files/220524.got.cif
#   From: 2010.05.17/outbox.cif.g08.bks.cpg/sg15_111_cif.got.tgz:220524.got - 2010.06.03 18:47:42.
