data_PCOD9297232
_publ_section_title
;
Structure prediction by ZEFSAII (Michael W. Deem and Ramdas Pophale) SiO2 
 PCOD9297232
Probable space group: C 2/C
;
_chemical_formula_sum "Si O2"
_cell_formula_units_Z 36
_cell_length_a 14.621063
_cell_length_b 22.139256
_cell_length_c 4.967302
_cell_angle_alpha 90.000000
_cell_angle_beta 102.683344
_cell_angle_gamma 90.000000
_cell_volume 1568.677330
_symmetry_space_group_name_H-M "C 2/C"
_symmetry_group_IT_number 15
_symmetry_cell_setting 'monoclinic'
loop_
_space_group_symop_operation_xyz
x,y,z
-x,y,1/2-z
-x,-y,-z
x,-y,1/2+z
1/2+x,1/2+y,z
1/2-x,1/2+y,1/2-z
1/2-x,1/2-y,-z
1/2+x,1/2-y,1/2+z
loop_
_atom_site_type_symbol
_atom_site_label
_atom_site_fract_x
_atom_site_fract_y
_atom_site_fract_z
Si Si1 0.295423 0.035695 0.612720
Si Si2 0.221862 0.851279 0.412131
Si Si3 0.000000 0.587355 0.750000
Si Si4 0.392511 0.687443 0.165762
Si Si5 0.920539 0.302903 0.519228
O O1 0.251642 0.091340 0.748361
O O2 0.407244 0.047581 0.660076
O O3 0.269889 0.020725 0.289629
O O4 0.162489 0.851938 0.646587
O O5 0.319860 0.821162 0.567269
O O6 0.158457 0.815601 0.153803
O O7 0.029034 0.635383 0.540589
O O8 0.500000 0.666396 0.250000
O O9 0.395006 0.757098 0.264140
O O10 0.000000 0.271645 0.750000
#
# Coordination Sequence:
#
# PCOD9297232 Si02
#       5
#     8   8   4   8   8
#     4  11  24  43  67  95 132 176 224 278 333 392
#     4  11  26  42  69  95 135 178 230 277 332 392
#     4  10  24  36  66  98 146 174 214 252 338 420
#     4  12  24  44  66  96 133 182 229 278 328 391
#     4  11  24  39  65 101 148 178 214 256 335 423
#
# _framework density 22.949272000000001
#
# number of rings (size 3 to 8) (size 9 to 14) (size 15 to 20)
#    0.000    0.889    1.111    5.333   12.444    0.000 
#    0.000    0.000    0.000   13.333    0.000    0.000 
#    0.000    0.000    0.000    0.000    0.000    0.000 
#
# Total GULP energy -100543.550591 kJ/mol
# GULP energy per Si atom -5585.752811 kJ/mol
# Density = 2.289704 g / cm^3
# Si number density = 22.949272 Si / 1000 Ang^3
#
#
#
# Elastic Constant Matrix: (Units=GPa)
#
#
# Indices 1 2 3 4 5 6 
#
# 1 187.1952 29.4170 36.8262 0.0000 -17.4753 0.0000
# 2 29.4170 56.5230 4.4294 0.0000 2.8183 0.0000
# 3 36.8262 4.4294 97.4598 0.0000 6.7640 0.0000
# 4 0.0000 0.0000 0.0000 45.6544 0.0000 3.9987
# 5 -17.4753 2.8183 6.7640 0.0000 33.2957 0.0000
# 6 0.0000 0.0000 0.0000 3.9987 0.0000 33.7673
#
#
#
# Elastic Compliance Matrix: (Units=1/GPa)
#
#
# Indices 1 2 3 4 5 6 
#
# 1 0.006859 -0.003578 -0.002739 0.000000 0.004459 0.000000
# 2 -0.003578 0.019682 0.000713 0.000000 -0.003689 0.000000
# 3 -0.002739 0.000713 0.011530 0.000000 -0.003840 0.000000
# 4 0.000000 0.000000 0.000000 0.022133 0.000000 -0.002621
# 5 0.004459 -0.003689 -0.003840 0.000000 0.033467 0.000000
# 6 0.000000 0.000000 0.000000 -0.002621 0.000000 0.029925
#
#
# Mechanical properties :
#
#
# Convention : Reuss Voigt Hill
#
# Bulk Modulus (GPa) = 37.22358 53.61371 45.41864
# Shear Modulus (GPa) = 34.78104 40.57718 37.67911
#
# Velocity S-wave (km/s) = 3.89725 4.20947 4.05636
# Velocity P-wave (km/s) = 6.04206 6.85848 6.46317
#
# Compressibility (1/GPa) = 0.02686469
#
# Stress axis : x y z
#
# Youngs Moduli (GPa) = 145.78745 50.80818 86.73332
#
# Poissons Ratio (x) = 0.18177 0.23754
# Poissons Ratio (y) = 0.52157 -0.06187
# Poissons Ratio (z) = 0.39928 -0.03624
#
# Static dielectric constant tensor:
#      x y z
#    x 1.839930 0.000000 -0.019320 
#    y 0.000000 1.920040 0.000000 
#    z -0.019320 0.000000 1.879560 
# 
# From -- ./inp_files/6914.got.cif
#   From: 2010.05.17/outbox.cif.g08.bks.cpg/sg15_4_cif.got.tgz:6914.got - 2010.06.03 18:47:42.
