data_PCOD9297414
_publ_section_title
;
Structure prediction by ZEFSAII (Michael W. Deem and Ramdas Pophale) SiO2 
 PCOD9297414
Probable space group: C 2/C
;
_chemical_formula_sum "Si O2"
_cell_formula_units_Z 40
_cell_length_a 9.815987
_cell_length_b 14.859117
_cell_length_c 11.922101
_cell_angle_alpha 90.000000
_cell_angle_beta 110.346721
_cell_angle_gamma 90.000000
_cell_volume 1630.421980
_symmetry_space_group_name_H-M "C 2/C"
_symmetry_group_IT_number 15
_symmetry_cell_setting 'monoclinic'
loop_
_space_group_symop_operation_xyz
x,y,z
-x,y,1/2-z
-x,-y,-z
x,-y,1/2+z
1/2+x,1/2+y,z
1/2-x,1/2+y,1/2-z
1/2-x,1/2-y,-z
1/2+x,1/2-y,1/2+z
loop_
_atom_site_type_symbol
_atom_site_label
_atom_site_fract_x
_atom_site_fract_y
_atom_site_fract_z
Si Si1 0.553208 0.716036 0.471323
Si Si2 0.270563 0.393702 0.856546
Si Si3 0.137304 0.089297 0.703529
Si Si4 0.351032 0.057637 0.949908
Si Si5 0.294066 0.868641 0.902659
O O1 0.396035 0.679187 0.402950
O O2 0.611242 0.663042 0.598868
O O3 0.569375 0.822237 0.497354
O O4 0.658630 0.692612 0.398585
O O5 0.342064 0.491577 0.849701
O O6 0.177232 0.372294 0.720398
O O7 0.181272 0.392394 0.944791
O O8 0.285051 0.103162 0.819447
O O9 0.000000 0.091308 0.750000
O O10 0.247080 0.967643 0.926002
O O11 0.500000 0.000000 0.000000
#
# Coordination Sequence:
#
# PCOD9297414 Si02
#       5
#     8   8   8   8   8
#     4  11  21  42  67 101 135 171 228 288 340 412
#     4  11  21  42  69  93 135 182 230 276 336 419
#     4  11  21  38  69  98 124 177 234 273 331 415
#     4  11  24  43  63  94 133 181 225 280 340 409
#     4  10  24  40  65 101 134 171 219 286 353 397
#
# _framework density 24.533525000000001
#
# number of rings (size 3 to 8) (size 9 to 14) (size 15 to 20)
#    0.000    1.200    4.000    3.600    0.000    4.800 
#    3.600    4.000    0.000    0.000    0.000    0.000 
#    0.000    0.000    0.000    0.000    0.000    0.000 
#
# Total GULP energy -111793.505974 kJ/mol
# GULP energy per Si atom -5589.675299 kJ/mol
# Density = 2.447769 g / cm^3
# Si number density = 24.533525 Si / 1000 Ang^3
#
#
#
# Elastic Constant Matrix: (Units=GPa)
#
#
# Indices 1 2 3 4 5 6 
#
# 1 70.5829 -32.1870 4.4430 0.0000 3.2566 0.0000
# 2 -32.1870 35.5855 -5.6270 0.0000 -2.1756 0.0000
# 3 4.4430 -5.6270 95.3262 0.0000 8.4832 0.0000
# 4 0.0000 0.0000 0.0000 36.5141 0.0000 8.2162
# 5 3.2566 -2.1756 8.4832 0.0000 42.8832 0.0000
# 6 0.0000 0.0000 0.0000 8.2162 0.0000 24.1104
#
#
#
# Elastic Compliance Matrix: (Units=1/GPa)
#
#
# Indices 1 2 3 4 5 6 
#
# 1 0.024141 0.021825 0.000232 0.000000 -0.000772 0.000000
# 2 0.021825 0.048151 0.001787 0.000000 0.000432 0.000000
# 3 0.000232 0.001787 0.010768 0.000000 -0.002057 0.000000
# 4 0.000000 0.000000 0.000000 0.029661 0.000000 -0.010108
# 5 -0.000772 0.000432 -0.002057 0.000000 0.023807 0.000000
# 6 0.000000 0.000000 0.000000 -0.010108 0.000000 0.044920
#
#
# Mechanical properties :
#
#
# Convention : Reuss Voigt Hill
#
# Bulk Modulus (GPa) = 7.64827 14.97252 11.31040
# Shear Modulus (GPa) = 28.19380 36.35925 32.27652
#
# Velocity S-wave (km/s) = 3.39366 3.85388 3.63107
# Velocity P-wave (km/s) = 4.29885 5.09110 4.71166
#
# Compressibility (1/GPa) = 0.13074844
#
# Stress axis : x y z
#
# Youngs Moduli (GPa) = 41.42245 20.76788 92.86761
#
# Poissons Ratio (x) = -0.45327 -0.02153
# Poissons Ratio (y) = -0.90406 -0.16592
# Poissons Ratio (z) = -0.00960 -0.03710
#
# Static dielectric constant tensor:
#      x y z
#    x 1.979920 0.000000 0.070740 
#    y 0.000000 2.039140 0.000000 
#    z 0.070740 0.000000 1.944570 
# 
# From -- ./inp_files/76922.got.cif
#   From: 2010.05.17/outbox.cif.g08.bks.cpg/sg15_39_cif.got.tgz:76922.got - 2010.06.03 18:47:42.
