data_PCOD9297226
_publ_section_title
;
Structure prediction by ZEFSAII (Michael W. Deem and Ramdas Pophale) SiO2 
 PCOD9297226
Probable space group: C 2/C
;
_chemical_formula_sum "Si O2"
_cell_formula_units_Z 44
_cell_length_a 14.823223
_cell_length_b 18.681577
_cell_length_c 8.714703
_cell_angle_alpha 90.000000
_cell_angle_beta 118.104822
_cell_angle_gamma 90.000000
_cell_volume 2128.728617
_symmetry_space_group_name_H-M "C 2/C"
_symmetry_group_IT_number 15
_symmetry_cell_setting 'monoclinic'
loop_
_space_group_symop_operation_xyz
x,y,z
-x,y,1/2-z
-x,-y,-z
x,-y,1/2+z
1/2+x,1/2+y,z
1/2-x,1/2+y,1/2-z
1/2-x,1/2-y,-z
1/2+x,1/2-y,1/2+z
loop_
_atom_site_type_symbol
_atom_site_label
_atom_site_fract_x
_atom_site_fract_y
_atom_site_fract_z
Si Si1 0.500000 0.497159 0.750000
Si Si2 0.815555 0.270194 0.903291
Si Si3 0.854930 0.959112 0.384651
Si Si4 0.214442 0.349024 0.129650
Si Si5 0.301201 0.624631 0.365206
Si Si6 0.532146 0.251779 0.456837
O O1 0.420671 0.448818 0.591036
O O2 0.565062 0.548279 0.690730
O O3 0.777269 0.220482 0.732708
O O4 0.779599 0.348849 0.826203
O O5 0.935644 0.255545 0.993410
O O6 0.750000 0.250000 0.000000
O O7 0.756467 0.910598 0.276804
O O8 0.830827 0.043112 0.363712
O O9 0.246868 0.370426 0.986061
O O10 0.099681 0.319953 0.036260
O O11 0.397737 0.679196 0.446487
O O12 0.500000 0.255544 0.250000
#
# Coordination Sequence:
#
# PCOD9297226 Si02
#       6
#     4   8   8   8   8   8
#     4  10  24  36  60  96 130 176 210 278 346 390
#     4  11  25  40  67  99 132 169 225 283 326 388
#     4  11  24  39  61  97 133 171 225 274 345 393
#     4  11  23  42  64  97 133 175 217 274 329 409
#     4  11  23  40  65  97 132 176 220 275 331 403
#     4  11  21  41  73  93 128 179 225 263 337 402
#
# _framework density 20.669612999999998
#
# number of rings (size 3 to 8) (size 9 to 14) (size 15 to 20)
#    0.000    1.091    5.455    1.091    8.909    2.909 
#    0.000    0.909    0.000    0.000    0.000    0.000 
#    0.000    0.000    0.000    0.000    0.000    0.000 
#
# Total GULP energy -122870.682637 kJ/mol
# GULP energy per Si atom -5585.031029 kJ/mol
# Density = 2.062257 g / cm^3
# Si number density = 20.669613 Si / 1000 Ang^3
#
#
#
# Elastic Constant Matrix: (Units=GPa)
#
#
# Indices 1 2 3 4 5 6 
#
# 1 105.5658 20.8581 -2.3724 0.0000 12.2772 0.0000
# 2 20.8581 100.6140 14.9726 0.0000 19.3151 0.0000
# 3 -2.3724 14.9726 36.2032 0.0000 6.4666 0.0000
# 4 0.0000 0.0000 0.0000 39.3122 0.0000 11.6680
# 5 12.2772 19.3151 6.4666 0.0000 31.8035 0.0000
# 6 0.0000 0.0000 0.0000 11.6680 0.0000 19.1290
#
#
#
# Elastic Compliance Matrix: (Units=1/GPa)
#
#
# Indices 1 2 3 4 5 6 
#
# 1 0.010253 -0.001794 0.001999 0.000000 -0.003275 0.000000
# 2 -0.001794 0.012025 -0.004058 0.000000 -0.005786 0.000000
# 3 0.001999 -0.004058 0.030226 0.000000 -0.004453 0.000000
# 4 0.000000 0.000000 0.000000 0.031060 0.000000 -0.018946
# 5 -0.003275 -0.005786 -0.004453 0.000000 0.037127 0.000000
# 6 0.000000 0.000000 0.000000 -0.018946 0.000000 0.063833
#
#
# Mechanical properties :
#
#
# Convention : Reuss Voigt Hill
#
# Bulk Modulus (GPa) = 22.32195 34.36663 28.34429
# Shear Modulus (GPa) = 24.13552 31.97726 28.05639
#
# Velocity S-wave (km/s) = 3.42084 3.93754 3.68825
# Velocity P-wave (km/s) = 5.14060 6.11024 5.64627
#
# Compressibility (1/GPa) = 0.04479895
#
# Stress axis : x y z
#
# Youngs Moduli (GPa) = 97.53177 83.15686 33.08369
#
# Poissons Ratio (x) = 0.14921 -0.06613
# Poissons Ratio (y) = 0.17501 0.13424
# Poissons Ratio (z) = -0.19496 0.33741
#
# Static dielectric constant tensor:
#      x y z
#    x 1.786480 0.000000 0.013560 
#    y 0.000000 1.750480 0.000000 
#    z 0.013560 0.000000 1.811270 
# 
# From -- ./inp_files/39723.got.cif
#   From: 2010.05.17/outbox.cif.g08.bks.cpg/sg15_20_cif.got.tgz:39723.got - 2010.06.03 18:47:42.
