data_PCOD9297133
_publ_section_title
;
Structure prediction by ZEFSAII (Michael W. Deem and Ramdas Pophale) SiO2 
 PCOD9297133
Probable space group: C 2/C
;
_chemical_formula_sum "Si O2"
_cell_formula_units_Z 60
_cell_length_a 8.255392
_cell_length_b 22.501583
_cell_length_c 14.955840
_cell_angle_alpha 90.000000
_cell_angle_beta 67.224094
_cell_angle_gamma 90.000000
_cell_volume 2561.561361
_symmetry_space_group_name_H-M "C 2/C"
_symmetry_group_IT_number 15
_symmetry_cell_setting 'monoclinic'
loop_
_space_group_symop_operation_xyz
x,y,z
-x,y,1/2-z
-x,-y,-z
x,-y,1/2+z
1/2+x,1/2+y,z
1/2-x,1/2+y,1/2-z
1/2-x,1/2-y,-z
1/2+x,1/2-y,1/2+z
loop_
_atom_site_type_symbol
_atom_site_label
_atom_site_fract_x
_atom_site_fract_y
_atom_site_fract_z
Si Si1 0.950097 0.275570 0.965294
Si Si2 0.568513 0.901591 0.868237
Si Si3 0.915412 0.276161 0.172130
Si Si4 0.629234 0.559384 0.062751
Si Si5 0.871585 0.956755 0.144666
Si Si6 0.602431 0.325226 0.313385
Si Si7 0.373021 0.353642 0.690162
Si Si8 0.000000 0.504920 0.250000
O O1 0.971730 0.340323 0.915016
O O2 0.075405 0.225011 0.894566
O O3 0.750000 0.250000 0.000000
O O4 0.004080 0.286302 0.057905
O O5 0.694980 0.922890 0.921971
O O6 0.700787 0.886399 0.758652
O O7 0.463232 0.955659 0.847371
O O8 0.793676 0.329731 0.228070
O O9 0.822452 0.212815 0.175577
O O10 0.000000 0.264131 0.250000
O O11 0.517364 0.506855 0.133846
O O12 0.492370 0.614659 0.091489
O O13 0.662780 0.542182 0.954214
O O14 0.947239 0.891414 0.149237
O O15 0.681556 0.969669 0.228666
O O16 0.500000 0.301613 0.250000
O O17 0.500000 0.355653 0.750000
#
# Coordination Sequence:
#
# PCOD9297133 Si02
#       8
#     8   8   8   8   8   8   8   4
#     4  12  27  46  74 112 152 192 241 310 387 455
#     4  11  25  43  77 104 140 188 255 299 364 439
#     4  11  25  44  73 109 146 186 241 306 371 441
#     4  10  23  48  74 105 135 198 255 311 362 440
#     4  11  27  46  72 105 149 191 251 308 376 442
#     4  12  27  46  71 104 152 199 235 297 386 454
#     4   9  18  40  71 100 134 180 237 296 348 425
#     4  12  28  44  72 106 146 200 246 312 358 446
#
# _framework density 23.423214000000002
#
# number of rings (size 3 to 8) (size 9 to 14) (size 15 to 20)
#    0.000    1.067    4.000    0.800    7.467    3.200 
#    0.000    0.000    0.000    0.000    0.000    0.000 
#    0.000    0.000    0.000    0.000    0.000    0.000 
#
# Total GULP energy -167352.308201 kJ/mol
# GULP energy per Si atom -5578.410273 kJ/mol
# Density = 2.336990 g / cm^3
# Si number density = 23.423214 Si / 1000 Ang^3
#
#
#
# Elastic Constant Matrix: (Units=GPa)
#
#
# Indices 1 2 3 4 5 6 
#
# 1 66.8977 30.4836 30.0099 0.0000 5.3170 0.0000
# 2 30.4836 111.4529 31.1843 0.0000 -5.2128 0.0000
# 3 30.0099 31.1843 107.8431 0.0000 12.4408 0.0000
# 4 0.0000 0.0000 0.0000 42.6453 0.0000 7.1629
# 5 5.3170 -5.2128 12.4408 0.0000 24.3275 0.0000
# 6 0.0000 0.0000 0.0000 7.1629 0.0000 29.2505
#
#
#
# Elastic Compliance Matrix: (Units=1/GPa)
#
#
# Indices 1 2 3 4 5 6 
#
# 1 0.018770 -0.004268 -0.003624 0.000000 -0.003163 0.000000
# 2 -0.004268 0.011067 -0.002544 0.000000 0.004605 0.000000
# 3 -0.003624 -0.002544 0.011677 0.000000 -0.005725 0.000000
# 4 0.000000 0.000000 0.000000 0.024455 0.000000 -0.005989
# 5 -0.003163 0.004605 -0.005725 0.000000 0.045711 0.000000
# 6 0.000000 0.000000 0.000000 -0.005989 0.000000 0.035654
#
#
# Mechanical properties :
#
#
# Convention : Reuss Voigt Hill
#
# Bulk Modulus (GPa) = 48.44326 52.17215 50.30770
# Shear Modulus (GPa) = 28.55727 32.21240 30.38483
#
# Velocity S-wave (km/s) = 3.49547 3.71244 3.60559
# Velocity P-wave (km/s) = 6.08422 6.37952 6.23362
#
# Compressibility (1/GPa) = 0.02064271
#
# Stress axis : x y z
#
# Youngs Moduli (GPa) = 53.27614 90.36039 85.63701
#
# Poissons Ratio (x) = 0.38564 0.31037
# Poissons Ratio (y) = 0.22737 0.21784
# Poissons Ratio (z) = 0.19308 0.22985
#
# Static dielectric constant tensor:
#      x y z
#    x 1.870540 0.000000 -0.037410 
#    y 0.000000 1.928430 0.000000 
#    z -0.037410 0.000000 1.876000 
# 
# From -- ./inp_files/137806.got.cif
#   From: 2010.05.17/outbox.cif.g08.bks.cpg/sg15_69_cif.got.tgz:137806.got - 2010.06.03 18:47:42.
