data_PCOD9297098
_publ_section_title
;
Structure prediction by ZEFSAII (Michael W. Deem and Ramdas Pophale) SiO2 
 PCOD9297098
Probable space group: C 2/C
;
_chemical_formula_sum "Si O2"
_cell_formula_units_Z 44
_cell_length_a 22.726079
_cell_length_b 9.557972
_cell_length_c 20.878048
_cell_angle_alpha 90.000000
_cell_angle_beta 20.187367
_cell_angle_gamma 90.000000
_cell_volume 1564.999214
_symmetry_space_group_name_H-M "C 2/C"
_symmetry_group_IT_number 15
_symmetry_cell_setting 'monoclinic'
loop_
_space_group_symop_operation_xyz
x,y,z
-x,y,1/2-z
-x,-y,-z
x,-y,1/2+z
1/2+x,1/2+y,z
1/2-x,1/2+y,1/2-z
1/2-x,1/2-y,-z
1/2+x,1/2-y,1/2+z
loop_
_atom_site_type_symbol
_atom_site_label
_atom_site_fract_x
_atom_site_fract_y
_atom_site_fract_z
Si Si1 0.161988 0.939788 0.506424
Si Si2 0.998160 0.689924 0.886441
Si Si3 0.568140 0.662270 0.809047
Si Si4 0.000000 0.000000 0.500000
Si Si5 0.376228 0.873082 0.642860
Si Si6 0.168224 0.476468 0.540768
O O1 0.011058 0.832475 0.644197
O O2 0.315796 0.879641 0.305495
O O3 0.229001 0.940195 0.509662
O O4 0.896982 0.058659 0.666845
O O5 0.927312 0.727460 0.029914
O O6 0.885926 0.580994 0.960753
O O7 0.566857 0.808808 0.847313
O O8 0.718483 0.644237 0.604808
O O9 0.406679 0.592964 0.939240
O O10 0.821635 0.913377 0.658028
O O11 0.500000 0.000000 0.500000
O O12 0.000000 0.425408 0.750000
#
# Coordination Sequence:
#
# PCOD9297098 Si02
#       6
#     8   8   8   4   8   8
#     4  11  24  44  81 127 185 235 298 369 441 544
#     4  11  23  46  77 129 178 237 303 364 448 531
#     4  12  26  49  82 127 170 230 299 363 463 537
#     4  12  28  52  84 124 170 222 282 368 446 542
#     4  12  30  53  84 123 175 226 294 380 460 551
#     4  10  23  47  81 126 179 238 299 368 443 538
#
# _framework density 28.115031999999999
#
# number of rings (size 3 to 8) (size 9 to 14) (size 15 to 20)
#    0.000    0.727    1.818    4.364    5.091    2.909 
#    6.545    0.000    0.000   37.091    0.000    0.000 
#    0.000    0.000    0.000    0.000    0.000    0.000 
#
# Total GULP energy -123033.268976 kJ/mol
# GULP energy per Si atom -5592.421317 kJ/mol
# Density = 2.805104 g / cm^3
# Si number density = 28.115032 Si / 1000 Ang^3
#
#
#
# Elastic Constant Matrix: (Units=GPa)
#
#
# Indices 1 2 3 4 5 6 
#
# 1 122.1090 42.6746 75.4141 0.0013 -4.1586 -0.0003
# 2 42.6746 102.7795 72.0291 0.0041 -20.8365 -0.0007
# 3 75.4141 72.0291 233.6105 0.0035 14.9849 -0.0011
# 4 0.0013 0.0041 0.0035 42.5290 -0.0020 -0.5091
# 5 -4.1586 -20.8365 14.9849 -0.0020 58.9574 0.0005
# 6 -0.0003 -0.0007 -0.0011 -0.5091 0.0005 64.7624
#
#
#
# Elastic Compliance Matrix: (Units=1/GPa)
#
#
# Indices 1 2 3 4 5 6 
#
# 1 0.010762 -0.002400 -0.002774 0.000000 0.000616 0.000000
# 2 -0.002400 0.014945 -0.004230 -0.000001 0.006188 0.000000
# 3 -0.002774 -0.004230 0.006698 0.000000 -0.003393 0.000000
# 4 0.000000 -0.000001 0.000000 0.023516 0.000001 0.000185
# 5 0.000616 0.006188 -0.003393 0.000001 0.020054 0.000000
# 6 0.000000 0.000000 0.000000 0.000185 0.000000 0.015442
#
#
# Mechanical properties :
#
#
# Convention : Reuss Voigt Hill
#
# Bulk Modulus (GPa) = 73.54216 93.19272 83.36744
# Shear Modulus (GPa) = 43.57021 51.14185 47.35603
#
# Velocity S-wave (km/s) = 3.94091 4.26963 4.10856
# Velocity P-wave (km/s) = 6.84997 7.58453 7.22659
#
# Compressibility (1/GPa) = 0.01359764
#
# Stress axis : x y z
#
# Youngs Moduli (GPa) = 92.91831 66.91232 149.29739
#
# Poissons Ratio (x) = 0.16057 0.41413
# Poissons Ratio (y) = 0.22297 0.63156
# Poissons Ratio (z) = 0.25774 0.28305
#
# Static dielectric constant tensor:
#      x y z
#    x 2.149330 0.000000 -0.022020 
#    y 0.000000 2.595780 0.000000 
#    z -0.022020 0.000000 2.149470 
# 
# From -- ./inp_files/255639.got.cif
#   From: 2010.05.17/outbox.cif.g08.bks.cpg/sg15_128_cif.got.tgz:255639.got - 2010.06.03 18:47:42.
