data_PCOD9297578
_publ_section_title
;
Structure prediction by ZEFSAII (Michael W. Deem and Ramdas Pophale) SiO2 
 PCOD9297578
Probable space group: C 2/C
;
_chemical_formula_sum "Si O2"
_cell_formula_units_Z 44
_cell_length_a 11.147330
_cell_length_b 22.159640
_cell_length_c 9.153121
_cell_angle_alpha 90.000000
_cell_angle_beta 94.805024
_cell_angle_gamma 90.000000
_cell_volume 2253.065169
_symmetry_space_group_name_H-M "C 2/C"
_symmetry_group_IT_number 15
_symmetry_cell_setting 'monoclinic'
loop_
_space_group_symop_operation_xyz
x,y,z
-x,y,1/2-z
-x,-y,-z
x,-y,1/2+z
1/2+x,1/2+y,z
1/2-x,1/2+y,1/2-z
1/2-x,1/2-y,-z
1/2+x,1/2-y,1/2+z
loop_
_atom_site_type_symbol
_atom_site_label
_atom_site_fract_x
_atom_site_fract_y
_atom_site_fract_z
Si Si1 0.328278 0.196650 0.585159
Si Si2 0.641952 0.544682 0.224944
Si Si3 0.189588 0.929479 0.059239
Si Si4 0.593726 0.214939 0.572103
Si Si5 0.000000 0.112670 0.750000
Si Si6 0.832601 0.156105 0.495331
O O1 0.250000 0.250000 0.500000
O O2 0.263266 0.132206 0.579271
O O3 0.460692 0.190703 0.527872
O O4 0.361789 0.211488 0.756025
O O5 0.500000 0.532834 0.250000
O O6 0.713647 0.489375 0.156926
O O7 0.694014 0.555175 0.390226
O O8 0.653603 0.602019 0.118577
O O9 0.056088 0.916863 0.110179
O O10 0.695714 0.180104 0.490952
O O11 0.589708 0.286025 0.541122
O O12 0.882835 0.141786 0.662600
#
# Coordination Sequence:
#
# PCOD9297578 Si02
#       6
#     8   8   8   8   4   8
#     4  11  23  43  67  96 132 174 222 272 334 393
#     4  12  24  40  65  97 134 166 227 271 336 387
#     4  12  24  40  65  96 130 174 215 278 323 395
#     4  10  24  41  66  96 133 173 219 274 330 393
#     4  12  20  38  64  96 132 168 212 264 336 378
#     4  11  23  41  64  99 134 171 217 277 329 398
#
# _framework density 19.528950999999999
#
# number of rings (size 3 to 8) (size 9 to 14) (size 15 to 20)
#    0.000    0.727    4.545    3.818    2.545    0.000 
#    0.000    0.909    0.000    0.000    0.000    0.000 
#    0.000    0.000    0.000    0.000    0.000    0.000 
#
# Total GULP energy -122530.849510 kJ/mol
# GULP energy per Si atom -5569.584069 kJ/mol
# Density = 1.948450 g / cm^3
# Si number density = 19.528951 Si / 1000 Ang^3
#
#
#
# Elastic Constant Matrix: (Units=GPa)
#
#
# Indices 1 2 3 4 5 6 
#
# 1 85.2812 57.2389 24.5263 0.0000 -6.3630 0.0000
# 2 57.2389 144.0609 71.8074 0.0000 -14.1713 0.0000
# 3 24.5263 71.8074 131.6115 0.0000 4.2717 0.0000
# 4 0.0000 0.0000 0.0000 10.7990 0.0000 -11.1007
# 5 -6.3630 -14.1713 4.2717 0.0000 15.8901 0.0000
# 6 0.0000 0.0000 0.0000 -11.1007 0.0000 21.4394
#
#
#
# Elastic Compliance Matrix: (Units=1/GPa)
#
#
# Indices 1 2 3 4 5 6 
#
# 1 0.016034 -0.006655 0.000633 0.000000 0.000315 0.000000
# 2 -0.006655 0.014179 -0.006880 0.000000 0.011829 0.000000
# 3 0.000633 -0.006880 0.011525 0.000000 -0.008980 0.000000
# 4 0.000000 0.000000 0.000000 0.197965 0.000000 0.102501
# 5 0.000315 0.011829 -0.008980 0.000000 0.076023 0.000000
# 6 0.000000 0.000000 0.000000 0.102501 0.000000 0.099715
#
#
# Mechanical properties :
#
#
# Convention : Reuss Voigt Hill
#
# Bulk Modulus (GPa) = 62.75858 74.23320 68.49589
# Shear Modulus (GPa) = 11.19680 23.45111 17.32395
#
# Velocity S-wave (km/s) = 2.39706 3.46907 2.98164
# Velocity P-wave (km/s) = 6.31404 7.35801 6.85593
#
# Compressibility (1/GPa) = 0.01593408
#
# Stress axis : x y z
#
# Youngs Moduli (GPa) = 62.36638 70.52907 86.76681
#
# Poissons Ratio (x) = 0.46939 -0.05491
# Poissons Ratio (y) = 0.41506 0.59692
# Poissons Ratio (z) = -0.03947 0.48521
#
# Static dielectric constant tensor:
#      x y z
#    x 1.723560 0.000000 0.002740 
#    y 0.000000 1.746510 0.000000 
#    z 0.002740 0.000000 1.739060 
# 
# From -- ./inp_files/30917.got.cif
#   From: 2010.05.17/outbox.cif.g08.bks.cpg/sg15_16_cif.got.tgz:30917.got - 2010.06.03 18:47:42.
