data_PCOD9297777
_publ_section_title
;
Structure prediction by ZEFSAII (Michael W. Deem and Ramdas Pophale) SiO2 
 PCOD9297777
Probable space group: C 2/C
;
_chemical_formula_sum "Si O2"
_cell_formula_units_Z 48
_cell_length_a 14.453464
_cell_length_b 8.093117
_cell_length_c 26.309892
_cell_angle_alpha 90.000000
_cell_angle_beta 42.135004
_cell_angle_gamma 90.000000
_cell_volume 2064.674245
_symmetry_space_group_name_H-M "C 2/C"
_symmetry_group_IT_number 15
_symmetry_cell_setting 'monoclinic'
loop_
_space_group_symop_operation_xyz
x,y,z
-x,y,1/2-z
-x,-y,-z
x,-y,1/2+z
1/2+x,1/2+y,z
1/2-x,1/2+y,1/2-z
1/2-x,1/2-y,-z
1/2+x,1/2-y,1/2+z
loop_
_atom_site_type_symbol
_atom_site_label
_atom_site_fract_x
_atom_site_fract_y
_atom_site_fract_z
Si Si1 0.840655 0.102666 0.513860
Si Si2 0.849544 0.022704 0.807593
Si Si3 0.407479 0.119112 0.240367
Si Si4 0.063759 0.371030 0.886383
Si Si5 0.622975 0.500685 0.888588
Si Si6 0.289964 0.981962 0.534169
O O1 0.839188 0.006980 0.567371
O O2 0.770444 0.001403 0.497594
O O3 0.779126 0.284082 0.547793
O O4 0.000013 0.129043 0.432419
O O5 0.878744 0.187880 0.763712
O O6 0.000000 0.935459 0.750000
O O7 0.719219 0.928672 0.836679
O O8 0.797669 0.066209 0.885696
O O9 0.500000 0.058740 0.250000
O O10 0.467184 0.096041 0.160156
O O11 0.258978 0.033895 0.302169
O O12 0.061136 0.177016 0.898874
O O13 0.946814 0.457771 0.967673
#
# Coordination Sequence:
#
# PCOD9297777 Si02
#       6
#     8   8   8   8   8   8
#     4  10  24  42  67 100 132 171 227 269 337 392
#     4  11  26  46  68  99 136 178 224 271 339 403
#     4  11  26  44  65  97 138 180 224 275 336 400
#     4  12  25  44  71  99 134 178 226 277 335 394
#     4  11  24  42  66 102 135 173 223 281 331 392
#     4  11  24  46  70  97 133 179 222 275 332 400
#
# _framework density 23.248221999999998
#
# number of rings (size 3 to 8) (size 9 to 14) (size 15 to 20)
#    0.000    1.000    1.667    3.500   11.667    1.333 
#    3.000    0.000    0.000    0.000    0.000    0.000 
#    0.000    0.000    0.000    0.000    0.000    0.000 
#
# Total GULP energy -134303.356687 kJ/mol
# GULP energy per Si atom -5595.973195 kJ/mol
# Density = 2.319531 g / cm^3
# Si number density = 23.248222 Si / 1000 Ang^3
#
#
#
# Elastic Constant Matrix: (Units=GPa)
#
#
# Indices 1 2 3 4 5 6 
#
# 1 115.1516 1.4052 48.6858 0.0000 7.4389 0.0000
# 2 1.4052 22.5489 2.0207 0.0000 -6.2829 0.0001
# 3 48.6858 2.0207 143.7300 0.0000 1.6960 0.0000
# 4 0.0000 0.0000 0.0000 23.8063 0.0000 -5.6895
# 5 7.4389 -6.2829 1.6960 0.0000 44.2376 0.0000
# 6 0.0000 0.0001 0.0000 -5.6895 0.0000 18.5299
#
#
#
# Elastic Compliance Matrix: (Units=1/GPa)
#
#
# Indices 1 2 3 4 5 6 
#
# 1 0.010261 -0.000807 -0.003444 0.000000 -0.001708 0.000000
# 2 -0.000807 0.046315 -0.000457 0.000000 0.006731 0.000000
# 3 -0.003444 -0.000457 0.008128 0.000000 0.000203 0.000000
# 4 0.000000 0.000000 0.000000 0.045332 0.000000 0.013919
# 5 -0.001708 0.006731 0.000203 0.000000 0.023841 0.000000
# 6 0.000000 0.000000 0.000000 0.013919 0.000000 0.058241
#
#
# Mechanical properties :
#
#
# Convention : Reuss Voigt Hill
#
# Bulk Modulus (GPa) = 18.08733 42.85043 30.46888
# Shear Modulus (GPa) = 22.73118 32.60268 27.66693
#
# Velocity S-wave (km/s) = 3.13031 3.74889 3.45348
# Velocity P-wave (km/s) = 4.56750 6.10005 5.38854
#
# Compressibility (1/GPa) = 0.05528731
#
# Stress axis : x y z
#
# Youngs Moduli (GPa) = 97.46099 21.59141 123.02945
#
# Poissons Ratio (x) = 0.01742 0.42372
# Poissons Ratio (y) = 0.07862 0.05627
# Poissons Ratio (z) = 0.33566 0.00987
#
# Static dielectric constant tensor:
#      x y z
#    x 1.918750 0.000000 -0.016210 
#    y 0.000000 1.851270 0.000000 
#    z -0.016210 0.000000 1.837950 
# 
# From -- ./inp_files/295371.got.cif
#   From: 2010.05.17/outbox.cif.g08.bks.cpg/sg15_148_cif.got.tgz:295371.got - 2010.06.03 18:47:42.
