data_PCOD9297996
_publ_section_title
;
Structure prediction by ZEFSAII (Michael W. Deem and Ramdas Pophale) SiO2 
 PCOD9297996
Probable space group: C 2/C
;
_chemical_formula_sum "Si O2"
_cell_formula_units_Z 44
_cell_length_a 14.427148
_cell_length_b 10.998754
_cell_length_c 14.992924
_cell_angle_alpha 90.000000
_cell_angle_beta 55.811718
_cell_angle_gamma 90.000000
_cell_volume 1967.970052
_symmetry_space_group_name_H-M "C 2/C"
_symmetry_group_IT_number 15
_symmetry_cell_setting 'monoclinic'
loop_
_space_group_symop_operation_xyz
x,y,z
-x,y,1/2-z
-x,-y,-z
x,-y,1/2+z
1/2+x,1/2+y,z
1/2-x,1/2+y,1/2-z
1/2-x,1/2-y,-z
1/2+x,1/2-y,1/2+z
loop_
_atom_site_type_symbol
_atom_site_label
_atom_site_fract_x
_atom_site_fract_y
_atom_site_fract_z
Si Si1 0.901000 0.611101 0.924674
Si Si2 0.559011 0.409247 0.035106
Si Si3 0.500000 0.509383 0.750000
Si Si4 0.276809 0.890234 0.007856
Si Si5 0.864670 0.694548 0.630706
Si Si6 0.304326 0.690819 0.341697
O O1 0.883590 0.467057 0.919811
O O2 0.859257 0.696843 0.866966
O O3 0.029362 0.631726 0.880561
O O4 0.813814 0.652528 0.050442
O O5 0.497596 0.407607 0.163240
O O6 0.500000 0.500000 0.000000
O O7 0.679883 0.456355 0.003380
O O8 0.577329 0.286769 0.970948
O O9 0.605443 0.417856 0.698881
O O10 0.250000 0.750000 0.000000
O O11 0.286234 0.887681 0.110392
O O12 0.797922 0.767446 0.742509
#
# Coordination Sequence:
#
# PCOD9297996 Si02
#       6
#     8   8   4   8   8   8
#     4  11  22  42  69  99 137 186 236 285 355 428
#     4  11  22  40  71  97 138 183 232 288 348 412
#     4  12  20  42  68 106 134 186 240 296 334 428
#     4  10  24  43  63  95 139 177 225 293 349 411
#     4  11  23  44  68 102 141 180 228 298 354 418
#     4  11  22  39  70 104 132 180 245 286 344 426
#
# _framework density 22.358063999999999
#
# number of rings (size 3 to 8) (size 9 to 14) (size 15 to 20)
#    0.000    1.091    5.455    0.545    2.545    1.455 
#    6.545    0.000   16.000    0.000    0.000    0.000 
#    0.000    0.000    0.000    0.000    0.000    0.000 
#
# Total GULP energy -122665.247057 kJ/mol
# GULP energy per Si atom -5575.693048 kJ/mol
# Density = 2.230718 g / cm^3
# Si number density = 22.358064 Si / 1000 Ang^3
#
#
#
# Elastic Constant Matrix: (Units=GPa)
#
#
# Indices 1 2 3 4 5 6 
#
# 1 104.7980 18.8547 24.0639 0.0000 13.8107 0.0000
# 2 18.8547 86.4684 36.3282 0.0000 16.5847 0.0000
# 3 24.0639 36.3282 118.7707 0.0000 20.8865 0.0000
# 4 0.0000 0.0000 0.0000 32.9790 0.0000 7.5775
# 5 13.8107 16.5847 20.8865 0.0000 38.5701 0.0000
# 6 0.0000 0.0000 0.0000 7.5775 0.0000 29.3025
#
#
#
# Elastic Compliance Matrix: (Units=1/GPa)
#
#
# Indices 1 2 3 4 5 6 
#
# 1 0.010390 -0.001248 -0.001286 0.000000 -0.002487 0.000000
# 2 -0.001248 0.013966 -0.003362 0.000000 -0.003738 0.000000
# 3 -0.001286 -0.003362 0.010360 0.000000 -0.003704 0.000000
# 4 0.000000 0.000000 0.000000 0.032238 0.000000 -0.008337
# 5 -0.002487 -0.003738 -0.003704 0.000000 0.030431 0.000000
# 6 0.000000 0.000000 0.000000 -0.008337 0.000000 0.036283
#
#
# Mechanical properties :
#
#
# Convention : Reuss Voigt Hill
#
# Bulk Modulus (GPa) = 43.62160 52.05896 47.84028
# Shear Modulus (GPa) = 32.65845 35.55633 34.10739
#
# Velocity S-wave (km/s) = 3.82606 3.99220 3.91001
# Velocity P-wave (km/s) = 6.25069 6.67720 6.46746
#
# Compressibility (1/GPa) = 0.02292442
#
# Stress axis : x y z
#
# Youngs Moduli (GPa) = 96.24840 71.60048 96.52774
#
# Poissons Ratio (x) = 0.08937 0.12412
# Poissons Ratio (y) = 0.12014 0.32449
# Poissons Ratio (z) = 0.12376 0.24069
#
# Static dielectric constant tensor:
#      x y z
#    x 1.873890 0.000000 -0.058850 
#    y 0.000000 2.138680 0.000000 
#    z -0.058850 0.000000 1.952340 
# 
# From -- ./inp_files/151747.got.cif
#   From: 2010.05.17/outbox.cif.g08.bks.cpg/sg15_76_cif.got.tgz:151747.got - 2010.06.03 18:47:42.
