data_PCOD9297640
_publ_section_title
;
Structure prediction by ZEFSAII (Michael W. Deem and Ramdas Pophale) SiO2 
 PCOD9297640
Probable space group: C 2/C
;
_chemical_formula_sum "Si O2"
_cell_formula_units_Z 48
_cell_length_a 29.885612
_cell_length_b 16.079655
_cell_length_c 9.151561
_cell_angle_alpha 90.000000
_cell_angle_beta 151.232274
_cell_angle_gamma 90.000000
_cell_volume 2116.478262
_symmetry_space_group_name_H-M "C 2/C"
_symmetry_group_IT_number 15
_symmetry_cell_setting 'monoclinic'
loop_
_space_group_symop_operation_xyz
x,y,z
-x,y,1/2-z
-x,-y,-z
x,-y,1/2+z
1/2+x,1/2+y,z
1/2-x,1/2+y,1/2-z
1/2-x,1/2-y,-z
1/2+x,1/2-y,1/2+z
loop_
_atom_site_type_symbol
_atom_site_label
_atom_site_fract_x
_atom_site_fract_y
_atom_site_fract_z
Si Si1 0.124051 0.505995 0.589711
Si Si2 0.244946 0.229690 0.812083
Si Si3 0.466383 0.719783 0.320580
Si Si4 0.952386 0.928720 0.269843
Si Si5 0.571142 0.879875 0.688092
Si Si6 0.260020 0.087570 0.327481
O O1 0.080978 0.436203 0.572323
O O2 0.062526 0.561089 0.303257
O O3 0.193165 0.457695 0.676995
O O4 0.179670 0.566559 0.857868
O O5 0.141820 0.195433 0.483743
O O6 0.249307 0.315438 0.735680
O O7 0.250000 0.250000 0.000000
O O8 0.331087 0.170220 0.021351
O O9 0.500000 0.715388 0.250000
O O10 0.527729 0.657689 0.591212
O O11 0.488267 0.813703 0.435310
O O12 0.000000 0.925247 0.250000
O O13 0.843558 0.945768 0.945280
O O14 0.000000 0.000000 0.500000
#
# Coordination Sequence:
#
# PCOD9297640 Si02
#       6
#     8   8   8   8   8   8
#     4  10  24  41  75  97 138 187 238 293 349 422
#     4  12  23  43  73  98 139 181 231 288 357 425
#     4  12  25  45  72 103 141 189 234 290 358 425
#     4  12  27  42  65 104 143 183 237 294 356 426
#     4  11  24  48  71 108 140 188 242 294 359 422
#     4  11  22  44  65 100 135 186 228 288 356 420
#
# _framework density 22.679182999999998
#
# number of rings (size 3 to 8) (size 9 to 14) (size 15 to 20)
#    0.000    0.667    5.000    1.500    7.000    2.000 
#    0.000    9.167    0.000    0.000    0.000    0.000 
#    0.000    0.000    0.000    0.000    0.000    0.000 
#
# Total GULP energy -134563.425810 kJ/mol
# GULP energy per Si atom -5606.809409 kJ/mol
# Density = 2.262756 g / cm^3
# Si number density = 22.679183 Si / 1000 Ang^3
#
#
#
# Elastic Constant Matrix: (Units=GPa)
#
#
# Indices 1 2 3 4 5 6 
#
# 1 116.2585 60.7875 50.0082 0.0000 -23.2485 0.0000
# 2 60.7875 106.7358 28.7398 0.0000 -16.8630 0.0000
# 3 50.0082 28.7398 121.0752 0.0000 -3.1589 0.0000
# 4 0.0000 0.0000 0.0000 58.3631 0.0000 2.1862
# 5 -23.2485 -16.8630 -3.1589 0.0000 44.7891 0.0000
# 6 0.0000 0.0000 0.0000 2.1862 0.0000 26.1472
#
#
#
# Elastic Compliance Matrix: (Units=1/GPa)
#
#
# Indices 1 2 3 4 5 6 
#
# 1 0.014934 -0.006508 -0.004493 0.000000 0.004985 0.000000
# 2 -0.006508 0.013462 -0.000464 0.000000 0.001658 0.000000
# 3 -0.004493 -0.000464 0.010179 0.000000 -0.001789 0.000000
# 4 0.000000 0.000000 0.000000 0.017188 0.000000 -0.001437
# 5 0.004985 0.001658 -0.001789 0.000000 0.025412 0.000000
# 6 0.000000 0.000000 0.000000 -0.001437 0.000000 0.038365
#
#
# Mechanical properties :
#
#
# Convention : Reuss Voigt Hill
#
# Bulk Modulus (GPa) = 63.92279 69.23782 66.58030
# Shear Modulus (GPa) = 33.85582 39.49548 36.67565
#
# Velocity S-wave (km/s) = 3.86789 4.17764 4.02574
# Velocity P-wave (km/s) = 6.94221 7.33933 7.14353
#
# Compressibility (1/GPa) = 0.01564387
#
# Stress axis : x y z
#
# Youngs Moduli (GPa) = 66.96268 74.28296 98.24346
#
# Poissons Ratio (x) = 0.48340 0.44144
# Poissons Ratio (y) = 0.43576 0.04562
# Poissons Ratio (z) = 0.30089 0.03450
#
# Static dielectric constant tensor:
#      x y z
#    x 1.790330 0.000000 0.039140 
#    y 0.000000 1.738750 0.000000 
#    z 0.039140 0.000000 1.839430 
# 
# From -- ./inp_files/70649.got.cif
#   From: 2010.05.17/outbox.cif.g08.bks.cpg/sg15_36_cif.got.tgz:70649.got - 2010.06.03 18:47:42.
