data_PCOD9297207
_publ_section_title
;
Structure prediction by ZEFSAII (Michael W. Deem and Ramdas Pophale) SiO2 
 PCOD9297207
Probable space group: C 2/C
;
_chemical_formula_sum "Si O2"
_cell_formula_units_Z 64
_cell_length_a 21.872298
_cell_length_b 17.433906
_cell_length_c 11.075489
_cell_angle_alpha 90.000000
_cell_angle_beta 65.568996
_cell_angle_gamma 90.000000
_cell_volume 3845.146481
_symmetry_space_group_name_H-M "C 2/C"
_symmetry_group_IT_number 15
_symmetry_cell_setting 'monoclinic'
loop_
_space_group_symop_operation_xyz
x,y,z
-x,y,1/2-z
-x,-y,-z
x,-y,1/2+z
1/2+x,1/2+y,z
1/2-x,1/2+y,1/2-z
1/2-x,1/2-y,-z
1/2+x,1/2-y,1/2+z
loop_
_atom_site_type_symbol
_atom_site_label
_atom_site_fract_x
_atom_site_fract_y
_atom_site_fract_z
Si Si1 0.795694 0.464270 0.962075
Si Si2 0.727295 0.312680 0.919134
Si Si3 0.441975 0.213387 0.144944
Si Si4 0.560314 0.036050 0.294702
Si Si5 0.309713 0.235974 0.115031
Si Si6 0.276719 0.867706 0.412721
Si Si7 0.411165 0.758053 0.948731
Si Si8 0.630042 0.089300 0.879157
O O1 0.751548 0.394178 0.949605
O O2 0.868165 0.462222 0.834790
O O3 0.761778 0.545352 0.962164
O O4 0.814090 0.455553 0.088085
O O5 0.765138 0.293860 0.763779
O O6 0.750000 0.250000 0.000000
O O7 0.647502 0.300735 0.969576
O O8 0.386041 0.235448 0.095336
O O9 0.513164 0.254472 0.067956
O O10 0.415994 0.234853 0.300107
O O11 0.450677 0.120882 0.142006
O O12 0.500000 0.020074 0.250000
O O13 0.572565 0.969828 0.384039
O O14 0.282854 0.319225 0.098459
O O15 0.299893 0.179220 0.010795
O O16 0.336183 0.874067 0.266273
O O17 0.391958 0.841041 0.018024
#
# Coordination Sequence:
#
# PCOD9297207 Si02
#       8
#     8   8   8   8   8   8   8   8
#     4  11  21  35  55  83 107 144 192 230 276 326
#     4  12  19  36  61  80 108 148 188 235 274 322
#     4  11  20  36  54  79 110 144 184 229 277 324
#     4  11  20  31  47  79 114 150 177 216 270 327
#     4  11  20  39  57  79 118 147 185 236 276 326
#     4  10  24  34  56  86 110 149 191 226 281 333
#     4  11  21  34  54  82 106 143 191 223 273 334
#     4  11  20  34  51  75 115 147 185 216 265 345
#
# _framework density 16.644359999999999
#
# number of rings (size 3 to 8) (size 9 to 14) (size 15 to 20)
#    0.000    1.000    7.500    0.750    1.750    4.000 
#    0.000    0.000    0.000    0.750    0.000    0.000 
#    0.000    0.000    0.000    0.000    0.000    0.000 
#
# Total GULP energy -178660.639993 kJ/mol
# GULP energy per Si atom -5583.145000 kJ/mol
# Density = 1.660648 g / cm^3
# Si number density = 16.644360 Si / 1000 Ang^3
#
#
#
# Elastic Constant Matrix: (Units=GPa)
#
#
# Indices 1 2 3 4 5 6 
#
# 1 151.2134 72.8826 29.5090 0.0000 4.9319 0.0000
# 2 72.8826 107.2291 18.9944 0.0000 -0.5505 0.0000
# 3 29.5090 18.9944 54.9820 0.0000 4.0155 0.0000
# 4 0.0000 0.0000 0.0000 19.3942 0.0000 1.7635
# 5 4.9319 -0.5505 4.0155 0.0000 22.7177 0.0000
# 6 0.0000 0.0000 0.0000 1.7635 0.0000 31.9251
#
#
#
# Elastic Compliance Matrix: (Units=1/GPa)
#
#
# Indices 1 2 3 4 5 6 
#
# 1 0.010457 -0.006548 -0.003214 0.000000 -0.001861 0.000000
# 2 -0.006548 0.014050 -0.001488 0.000000 0.002025 0.000000
# 3 -0.003214 -0.001488 0.020645 0.000000 -0.002987 0.000000
# 4 0.000000 0.000000 0.000000 0.051822 0.000000 -0.002863
# 5 -0.001861 0.002025 -0.002987 0.000000 0.044999 0.000000
# 6 0.000000 0.000000 0.000000 -0.002863 0.000000 0.031481
#
#
# Mechanical properties :
#
#
# Convention : Reuss Voigt Hill
#
# Bulk Modulus (GPa) = 44.14459 61.79961 52.97210
# Shear Modulus (GPa) = 24.56933 27.60996 26.08965
#
# Velocity S-wave (km/s) = 3.84622 4.07728 3.96343
# Velocity P-wave (km/s) = 6.80473 7.70556 7.26911
#
# Compressibility (1/GPa) = 0.02265283
#
# Stress axis : x y z
#
# Youngs Moduli (GPa) = 95.62934 71.17364 48.43783
#
# Poissons Ratio (x) = 0.46602 0.15570
# Poissons Ratio (y) = 0.62615 0.07205
# Poissons Ratio (z) = 0.30739 0.10588
#
# Static dielectric constant tensor:
#      x y z
#    x 1.575310 0.000000 -0.001090 
#    y 0.000000 1.546730 0.000000 
#    z -0.001090 0.000000 1.593880 
# 
# From -- ./inp_files/113477.got.cif
#   From: 2010.05.17/outbox.cif.g08.bks.cpg/sg15_57_cif.got.tgz:113477.got - 2010.06.03 18:47:42.
