data_PCOD9297366
_publ_section_title
;
Structure prediction by ZEFSAII (Michael W. Deem and Ramdas Pophale) SiO2 
 PCOD9297366
Probable space group: C 2/C
;
_chemical_formula_sum "Si O2"
_cell_formula_units_Z 64
_cell_length_a 14.470428
_cell_length_b 11.505983
_cell_length_c 21.721585
_cell_angle_alpha 90.000000
_cell_angle_beta 111.587606
_cell_angle_gamma 90.000000
_cell_volume 3362.887656
_symmetry_space_group_name_H-M "C 2/C"
_symmetry_group_IT_number 15
_symmetry_cell_setting 'monoclinic'
loop_
_space_group_symop_operation_xyz
x,y,z
-x,y,1/2-z
-x,-y,-z
x,-y,1/2+z
1/2+x,1/2+y,z
1/2-x,1/2+y,1/2-z
1/2-x,1/2-y,-z
1/2+x,1/2-y,1/2+z
loop_
_atom_site_type_symbol
_atom_site_label
_atom_site_fract_x
_atom_site_fract_y
_atom_site_fract_z
Si Si1 0.347697 0.656623 0.834745
Si Si2 0.221893 0.613746 0.991202
Si Si3 0.675110 0.903629 0.619313
Si Si4 0.279753 0.386613 0.184500
Si Si5 0.886241 0.016322 0.452069
Si Si6 0.058930 0.440366 0.923478
Si Si7 0.325824 0.776643 0.460437
Si Si8 0.043702 0.745548 0.322339
O O1 0.313769 0.766932 0.866054
O O2 0.282101 0.650654 0.756602
O O3 0.358868 0.543190 0.879895
O O4 0.457739 0.694814 0.840499
O O5 0.312168 0.546117 0.981755
O O6 0.119502 0.561712 0.936093
O O7 0.250000 0.750000 0.000000
O O8 0.207354 0.575800 0.057698
O O9 0.561058 0.943508 0.604291
O O10 0.749176 0.979514 0.678155
O O11 0.213553 0.329544 0.113770
O O12 0.386220 0.347843 0.184503
O O13 0.867915 0.152572 0.451876
O O14 0.000000 0.000000 0.500000
O O15 0.090339 0.357071 0.874130
O O16 0.093970 0.365141 0.991093
O O17 0.250000 0.750000 0.500000
O O18 0.000000 0.688931 0.250000
#
# Coordination Sequence:
#
# PCOD9297366 Si02
#       8
#     8   8   8   8   8   8   8   8
#     4  10  24  40  59  94 129 163 208 256 320 378
#     4  12  24  40  60  92 128 164 196 259 316 366
#     4  11  23  41  66  88 126 167 202 256 314 379
#     4  11  22  38  66  89 123 165 213 254 312 365
#     4  12  25  40  64  94 127 161 208 267 314 366
#     4  11  22  41  63  94 121 156 219 255 306 372
#     4  12  22  38  68  94 118 159 219 266 303 362
#     4   9  19  39  63  90 120 163 210 263 304 365
#
# _framework density 19.031264
#
# number of rings (size 3 to 8) (size 9 to 14) (size 15 to 20)
#    0.000    1.000    5.000    1.875    3.500    0.000 
#    2.250    0.000    0.000    0.000    0.000    0.000 
#    0.000    0.000    0.000    0.000    0.000    0.000 
#
# Total GULP energy -178299.965856 kJ/mol
# GULP energy per Si atom -5571.873933 kJ/mol
# Density = 1.898795 g / cm^3
# Si number density = 19.031264 Si / 1000 Ang^3
#
#
#
# Elastic Constant Matrix: (Units=GPa)
#
#
# Indices 1 2 3 4 5 6 
#
# 1 34.6671 7.8847 30.5828 0.0000 -12.5861 0.0000
# 2 7.8847 112.1413 39.2481 0.0000 4.7792 0.0000
# 3 30.5828 39.2481 112.4206 0.0000 1.7643 0.0000
# 4 0.0000 0.0000 0.0000 27.0996 0.0000 4.5961
# 5 -12.5861 4.7792 1.7643 0.0000 24.3561 0.0000
# 6 0.0000 0.0000 0.0000 4.5961 0.0000 13.7852
#
#
#
# Elastic Compliance Matrix: (Units=1/GPa)
#
#
# Indices 1 2 3 4 5 6 
#
# 1 0.051741 0.000295 -0.014614 0.000000 0.027738 0.000000
# 2 0.000295 0.010234 -0.003628 0.000000 -0.001593 0.000000
# 3 -0.014614 -0.003628 0.014261 0.000000 -0.007873 0.000000
# 4 0.000000 0.000000 0.000000 0.039113 0.000000 -0.013040
# 5 0.027738 -0.001593 -0.007873 0.000000 0.056274 0.000000
# 6 0.000000 0.000000 0.000000 -0.013040 0.000000 0.076889
#
#
# Mechanical properties :
#
#
# Convention : Reuss Voigt Hill
#
# Bulk Modulus (GPa) = 24.78814 46.07335 35.43075
# Shear Modulus (GPa) = 16.78672 25.14910 20.96791
#
# Velocity S-wave (km/s) = 2.97317 3.63914 3.32288
# Velocity P-wave (km/s) = 4.98393 6.47453 5.77751
#
# Compressibility (1/GPa) = 0.04034187
#
# Stress axis : x y z
#
# Youngs Moduli (GPa) = 19.32687 97.71060 70.12191
#
# Poissons Ratio (x) = -0.02878 1.02475
# Poissons Ratio (y) = -0.00569 0.25441
# Poissons Ratio (z) = 0.28244 0.35450
#
# Static dielectric constant tensor:
#      x y z
#    x 1.685020 0.000000 0.020630 
#    y 0.000000 1.691180 0.000000 
#    z 0.020630 0.000000 1.711340 
# 
# From -- ./inp_files/243732.got.cif
#   From: 2010.05.17/outbox.cif.g08.bks.cpg/sg15_122_cif.got.tgz:243732.got - 2010.06.03 18:47:42.
