data_PCOD9297388
_publ_section_title
;
Structure prediction by ZEFSAII (Michael W. Deem and Ramdas Pophale) SiO2 
 PCOD9297388
Probable space group: C 2/C
;
_chemical_formula_sum "Si O2"
_cell_formula_units_Z 48
_cell_length_a 15.217920
_cell_length_b 10.029451
_cell_length_c 25.094890
_cell_angle_alpha 90.000000
_cell_angle_beta 42.419474
_cell_angle_gamma 90.000000
_cell_volume 2583.652199
_symmetry_space_group_name_H-M "C 2/C"
_symmetry_group_IT_number 15
_symmetry_cell_setting 'monoclinic'
loop_
_space_group_symop_operation_xyz
x,y,z
-x,y,1/2-z
-x,-y,-z
x,-y,1/2+z
1/2+x,1/2+y,z
1/2-x,1/2+y,1/2-z
1/2-x,1/2-y,-z
1/2+x,1/2-y,1/2+z
loop_
_atom_site_type_symbol
_atom_site_label
_atom_site_fract_x
_atom_site_fract_y
_atom_site_fract_z
Si Si1 0.569910 0.712392 0.345455
Si Si2 0.115530 0.908843 0.657059
Si Si3 0.265134 0.595155 0.978015
Si Si4 0.991778 0.478263 0.067925
Si Si5 0.199424 0.707789 0.339116
Si Si6 0.984907 0.039512 0.567234
O O1 0.448685 0.681879 0.360218
O O2 0.693485 0.744290 0.253053
O O3 0.592162 0.574419 0.366396
O O4 0.536765 0.827659 0.402090
O O5 0.224511 0.826284 0.640130
O O6 0.000000 0.940516 0.750000
O O7 0.170466 0.045003 0.606633
O O8 0.370095 0.544115 0.973514
O O9 0.250000 0.750000 0.000000
O O10 0.124250 0.527023 0.037001
O O11 0.875755 0.571796 0.140733
O O12 0.000000 0.500000 0.000000
O O13 0.091617 0.821997 0.393068
O O14 0.000000 0.000000 0.500000
#
# Coordination Sequence:
#
# PCOD9297388 Si02
#       6
#     8   8   8   8   8   8
#     4  10  24  40  63  91 121 164 209 256 305 363
#     4   9  21  40  65  88 120 164 210 256 309 365
#     4  11  23  40  60  92 124 158 208 253 306 365
#     4  12  23  40  66  91 123 168 208 253 308 372
#     4  11  21  42  64  89 124 163 205 251 315 371
#     4  11  24  39  62  90 125 157 203 259 303 360
#
# _framework density 18.578351999999999
#
# number of rings (size 3 to 8) (size 9 to 14) (size 15 to 20)
#    0.000    1.333    3.333    2.000    2.333    1.333 
#    0.000    0.000    0.000    0.000    0.000    0.000 
#    0.000    0.000    0.000    0.000    0.000    0.000 
#
# Total GULP energy -133895.331023 kJ/mol
# GULP energy per Si atom -5578.972126 kJ/mol
# Density = 1.853607 g / cm^3
# Si number density = 18.578352 Si / 1000 Ang^3
#
#
#
# Elastic Constant Matrix: (Units=GPa)
#
#
# Indices 1 2 3 4 5 6 
#
# 1 105.9022 27.1353 45.9711 0.0000 -0.7018 0.0000
# 2 27.1353 91.0718 19.5908 0.0000 5.5888 0.0000
# 3 45.9711 19.5908 53.1451 0.0000 -0.3761 0.0000
# 4 0.0000 0.0000 0.0000 31.0998 0.0000 8.9197
# 5 -0.7018 5.5888 -0.3761 0.0000 32.9938 0.0000
# 6 0.0000 0.0000 0.0000 8.9197 0.0000 18.5915
#
#
#
# Elastic Compliance Matrix: (Units=1/GPa)
#
#
# Indices 1 2 3 4 5 6 
#
# 1 0.015417 -0.001908 -0.012629 0.000000 0.000507 0.000000
# 2 -0.001908 0.012305 -0.002901 0.000000 -0.002158 0.000000
# 3 -0.012629 -0.002901 0.030814 0.000000 0.000574 0.000000
# 4 0.000000 0.000000 0.000000 0.037285 0.000000 -0.017888
# 5 0.000507 -0.002158 0.000574 0.000000 0.030692 0.000000
# 6 0.000000 0.000000 0.000000 -0.017888 0.000000 0.062370
#
#
# Mechanical properties :
#
#
# Convention : Reuss Voigt Hill
#
# Bulk Modulus (GPa) = 42.26438 48.39038 45.32738
# Shear Modulus (GPa) = 21.58465 27.03182 24.30824
#
# Velocity S-wave (km/s) = 3.41224 3.81861 3.62113
# Velocity P-wave (km/s) = 6.19057 6.74874 6.47567
#
# Compressibility (1/GPa) = 0.02366059
#
# Stress axis : x y z
#
# Youngs Moduli (GPa) = 64.86324 81.26576 32.45276
#
# Poissons Ratio (x) = 0.15506 0.40985
# Poissons Ratio (y) = 0.12376 0.09414
# Poissons Ratio (z) = 0.81916 0.23574
#
# Static dielectric constant tensor:
#      x y z
#    x 1.652280 0.000000 -0.008390 
#    y 0.000000 1.581110 0.000000 
#    z -0.008390 0.000000 1.647310 
# 
# From -- ./inp_files/295374.got.cif
#   From: 2010.05.17/outbox.cif.g08.bks.cpg/sg15_148_cif.got.tgz:295374.got - 2010.06.03 18:47:42.
