data_PCOD9297033
_publ_section_title
;
Structure prediction by ZEFSAII (Michael W. Deem and Ramdas Pophale) SiO2 
 PCOD9297033
Probable space group: C 2/C
;
_chemical_formula_sum "Si O2"
_cell_formula_units_Z 48
_cell_length_a 22.357509
_cell_length_b 9.380944
_cell_length_c 19.489172
_cell_angle_alpha 90.000000
_cell_angle_beta 152.838255
_cell_angle_gamma 90.000000
_cell_volume 1865.984009
_symmetry_space_group_name_H-M "C 2/C"
_symmetry_group_IT_number 15
_symmetry_cell_setting 'monoclinic'
loop_
_space_group_symop_operation_xyz
x,y,z
-x,y,1/2-z
-x,-y,-z
x,-y,1/2+z
1/2+x,1/2+y,z
1/2-x,1/2+y,1/2-z
1/2-x,1/2-y,-z
1/2+x,1/2-y,1/2+z
loop_
_atom_site_type_symbol
_atom_site_label
_atom_site_fract_x
_atom_site_fract_y
_atom_site_fract_z
Si Si1 0.296399 0.589472 0.917580
Si Si2 0.857066 0.626539 0.167213
Si Si3 0.771382 0.865133 0.238255
Si Si4 0.991489 0.365793 0.940762
Si Si5 0.281956 0.449375 0.098853
Si Si6 0.059008 0.773608 0.740704
O O1 0.277893 0.440423 0.938632
O O2 0.283446 0.561087 0.823723
O O3 0.329107 0.817821 0.183551
O O4 0.431660 0.674024 0.068430
O O5 0.960723 0.586846 0.331712
O O6 0.853388 0.797385 0.161736
O O7 0.847126 0.569843 0.079733
O O8 0.881868 0.746920 0.347436
O O9 0.771292 0.964214 0.170478
O O10 0.630731 0.791327 0.089621
O O11 0.000000 0.500000 0.000000
O O12 0.363431 0.584216 0.157255
O O13 0.000000 0.706817 0.750000
#
# Coordination Sequence:
#
# PCOD9297033 Si02
#       6
#     8   8   8   8   8   8
#     4  12  26  47  80 111 157 199 265 326 391 470
#     4  10  23  47  71 105 144 203 249 320 374 459
#     4  11  26  47  75 113 151 205 255 323 398 457
#     4  11  24  47  73 109 157 197 261 322 389 475
#     4  10  25  46  73 106 152 200 259 317 387 465
#     4  12  27  48  76 116 155 207 263 323 396 468
#
# _framework density 25.723693999999998
#
# number of rings (size 3 to 8) (size 9 to 14) (size 15 to 20)
#    0.000    1.000    3.333    1.500    2.333    6.667 
#    0.000    0.000    0.000    0.000    0.000    0.000 
#    0.000    0.000    0.000    0.000    0.000    0.000 
#
# Total GULP energy -134315.156609 kJ/mol
# GULP energy per Si atom -5596.464859 kJ/mol
# Density = 2.566515 g / cm^3
# Si number density = 25.723694 Si / 1000 Ang^3
#
#
#
# Elastic Constant Matrix: (Units=GPa)
#
#
# Indices 1 2 3 4 5 6 
#
# 1 117.9684 19.0360 12.8117 0.0000 -26.7481 0.0000
# 2 19.0360 95.2733 -12.1381 0.0000 4.9125 0.0000
# 3 12.8117 -12.1381 83.9002 0.0000 -18.9419 0.0000
# 4 0.0000 0.0000 0.0000 41.4098 0.0000 4.8408
# 5 -26.7481 4.9125 -18.9419 0.0000 71.5419 0.0000
# 6 0.0000 0.0000 0.0000 4.8408 0.0000 14.7711
#
#
#
# Elastic Compliance Matrix: (Units=1/GPa)
#
#
# Indices 1 2 3 4 5 6 
#
# 1 0.009753 -0.002261 -0.001019 0.000000 0.003532 0.000000
# 2 -0.002261 0.011225 0.001706 0.000000 -0.001164 0.000000
# 3 -0.001019 0.001706 0.012985 0.000000 0.002940 0.000000
# 4 0.000000 0.000000 0.000000 0.025111 0.000000 -0.008229
# 5 0.003532 -0.001164 0.002940 0.000000 0.016157 0.000000
# 6 0.000000 0.000000 0.000000 -0.008229 0.000000 0.070397
#
#
# Mechanical properties :
#
#
# Convention : Reuss Voigt Hill
#
# Bulk Modulus (GPa) = 32.44972 37.39569 34.92270
# Shear Modulus (GPa) = 31.43737 44.04006 37.73871
#
# Velocity S-wave (km/s) = 3.49967 4.14217 3.83440
# Velocity P-wave (km/s) = 5.38260 6.11930 5.76273
#
# Compressibility (1/GPa) = 0.03081691
#
# Stress axis : x y z
#
# Youngs Moduli (GPa) = 102.53122 89.08497 77.01124
#
# Poissons Ratio (x) = 0.20139 0.07847
# Poissons Ratio (y) = 0.23179 -0.13141
# Poissons Ratio (z) = 0.10448 -0.15201
#
# Static dielectric constant tensor:
#      x y z
#    x 2.096020 0.000000 -0.002920 
#    y 0.000000 1.994420 0.000000 
#    z -0.002920 0.000000 2.034060 
# 
# From -- ./inp_files/219334.got.cif
#   From: 2010.05.17/outbox.cif.g08.bks.cpg/sg15_110_cif.got.tgz:219334.got - 2010.06.03 18:47:42.
