data_PCOD9297477
_publ_section_title
;
Structure prediction by ZEFSAII (Michael W. Deem and Ramdas Pophale) SiO2 
 PCOD9297477
Probable space group: C 2/C
;
_chemical_formula_sum "Si O2"
_cell_formula_units_Z 48
_cell_length_a 31.453344
_cell_length_b 13.616113
_cell_length_c 9.791971
_cell_angle_alpha 90.000000
_cell_angle_beta 30.709170
_cell_angle_gamma 90.000000
_cell_volume 2141.605083
_symmetry_space_group_name_H-M "C 2/C"
_symmetry_group_IT_number 15
_symmetry_cell_setting 'monoclinic'
loop_
_space_group_symop_operation_xyz
x,y,z
-x,y,1/2-z
-x,-y,-z
x,-y,1/2+z
1/2+x,1/2+y,z
1/2-x,1/2+y,1/2-z
1/2-x,1/2-y,-z
1/2+x,1/2-y,1/2+z
loop_
_atom_site_type_symbol
_atom_site_label
_atom_site_fract_x
_atom_site_fract_y
_atom_site_fract_z
Si Si1 0.911248 0.443845 0.438450
Si Si2 0.857606 0.925384 0.156743
Si Si3 0.187054 0.428268 0.510075
Si Si4 0.859105 0.791478 0.398982
Si Si5 0.055196 0.771722 0.778569
Si Si6 0.405536 0.359468 0.556738
O O1 0.854123 0.439686 0.728531
O O2 0.867164 0.511362 0.448139
O O3 0.926234 0.335114 0.334841
O O4 0.000000 0.482035 0.250000
O O5 0.782843 0.956144 0.263166
O O6 0.824707 0.861784 0.375527
O O7 0.918351 0.855992 0.901222
O O8 0.897186 0.024525 0.106468
O O9 0.183333 0.313619 0.486063
O O10 0.852856 0.832061 0.569169
O O11 0.957253 0.778438 0.087040
O O12 0.106630 0.795150 0.774534
O O13 0.500000 0.341467 0.250000
#
# Coordination Sequence:
#
# PCOD9297477 Si02
#       6
#     8   8   8   8   8   8
#     4  12  26  49  71  99 129 181 228 278 335 401
#     4  12  24  44  66 101 140 177 217 277 341 397
#     4  12  29  42  72 100 135 175 225 283 337 397
#     4  11  23  45  68  99 134 182 225 274 330 399
#     4  11  23  44  72  98 135 179 226 273 333 397
#     4  10  24  40  70 102 135 177 226 273 326 406
#
# _framework density 22.413097
#
# number of rings (size 3 to 8) (size 9 to 14) (size 15 to 20)
#    0.000    0.667    3.333    3.500    7.000    3.333 
#    0.000    1.667    0.000    0.000    0.000    0.000 
#    0.000    0.000    0.000    0.000    0.000    0.000 
#
# Total GULP energy -134348.102157 kJ/mol
# GULP energy per Si atom -5597.837590 kJ/mol
# Density = 2.236208 g / cm^3
# Si number density = 22.413097 Si / 1000 Ang^3
#
#
#
# Elastic Constant Matrix: (Units=GPa)
#
#
# Indices 1 2 3 4 5 6 
#
# 1 156.9626 56.3571 25.3938 0.0000 17.5290 0.0000
# 2 56.3571 13.6540 24.4230 0.0000 61.8828 0.0000
# 3 25.3938 24.4230 2.2219 0.0000 -21.0932 0.0000
# 4 0.0000 0.0000 0.0000 61.9455 0.0000 11.3834
# 5 17.5290 61.8828 -21.0932 0.0000 6.4439 0.0000
# 6 0.0000 0.0000 0.0000 11.3834 0.0000 48.0434
#
#
#
# Elastic Compliance Matrix: (Units=1/GPa)
#
#
# Indices 1 2 3 4 5 6 
#
# 1 0.016265 -0.014452 -0.028943 0.000000 -0.000201 0.000000
# 2 -0.014452 0.018093 0.043556 0.000000 0.008139 0.000000
# 3 -0.028943 0.043556 0.097137 0.000000 -0.021588 0.000000
# 4 0.000000 0.000000 0.000000 0.016878 0.000000 -0.003999
# 5 -0.000201 0.008139 -0.021588 0.000000 0.006907 0.000000
# 6 0.000000 0.000000 0.000000 -0.003999 0.000000 0.021762
#
#
# Mechanical properties :
#
#
# Convention : Reuss Voigt Hill
#
# Bulk Modulus (GPa) = 7.58627 42.79851 25.19239
# Shear Modulus (GPa) = 22.65959 27.73086 25.19523
#
# Velocity S-wave (km/s) = 3.18307 3.52129 3.35644
# Velocity P-wave (km/s) = 4.11112 5.97239 5.12693
#
# Compressibility (1/GPa) = 0.13181706
#
# Stress axis : x y z
#
# Youngs Moduli (GPa) = 61.48298 55.27141 10.29479
#
# Poissons Ratio (x) = 0.79876 0.29796
# Poissons Ratio (y) = 0.88853 -0.44840
# Poissons Ratio (z) = 1.77949 -2.40741
#
# Static dielectric constant tensor:
#      x y z
#    x 1.862610 0.000000 -0.023330 
#    y 0.000000 1.793110 0.000000 
#    z -0.023330 0.000000 1.826100 
# 
# From -- ./inp_files/66417.got.cif
#   From: 2010.05.17/outbox.cif.g08.bks.cpg/sg15_34_cif.got.tgz:66417.got - 2010.06.03 18:47:42.
