data_PCOD9297979
_publ_section_title
;
Structure prediction by ZEFSAII (Michael W. Deem and Ramdas Pophale) SiO2 
 PCOD9297979
Probable space group: C 2/C
;
_chemical_formula_sum "Si O2"
_cell_formula_units_Z 36
_cell_length_a 13.811376
_cell_length_b 13.761150
_cell_length_c 7.904803
_cell_angle_alpha 90.000000
_cell_angle_beta 114.872483
_cell_angle_gamma 90.000000
_cell_volume 1363.037633
_symmetry_space_group_name_H-M "C 2/C"
_symmetry_group_IT_number 15
_symmetry_cell_setting 'monoclinic'
loop_
_space_group_symop_operation_xyz
x,y,z
-x,y,1/2-z
-x,-y,-z
x,-y,1/2+z
1/2+x,1/2+y,z
1/2-x,1/2+y,1/2-z
1/2-x,1/2-y,-z
1/2+x,1/2-y,1/2+z
loop_
_atom_site_type_symbol
_atom_site_label
_atom_site_fract_x
_atom_site_fract_y
_atom_site_fract_z
Si Si1 0.621387 0.199908 0.366700
Si Si2 0.204789 0.901653 0.341454
Si Si3 0.290799 0.882193 0.926850
Si Si4 0.500000 0.817786 0.250000
Si Si5 0.079780 0.136818 0.426021
O O1 0.500000 0.173698 0.250000
O O2 0.678766 0.153919 0.239231
O O3 0.860243 0.183808 0.609862
O O4 0.679712 0.151483 0.569433
O O5 0.240589 0.010104 0.408068
O O6 0.185039 0.175298 0.407852
O O7 0.129804 0.911783 0.123688
O O8 0.396003 0.878996 0.122949
O O9 0.509498 0.734267 0.406034
O O10 0.000000 0.075527 0.250000
#
# Coordination Sequence:
#
# PCOD9297979 Si02
#       5
#     8   8   8   4   8
#     4  11  27  47  71 110 164 201 240 324 395 445
#     4  11  26  45  73 111 154 195 258 316 384 447
#     4  12  25  47  77 113 148 205 262 309 378 466
#     4  10  24  42  78 106 144 198 258 320 364 450
#     4  10  24  45  74 103 151 201 258 306 375 454
#
# _framework density 26.411597
#
# number of rings (size 3 to 8) (size 9 to 14) (size 15 to 20)
#    0.667    0.444    2.222    2.000    4.667    8.000 
#    0.000    0.000    0.000    0.000    0.000    0.000 
#    0.000    0.000    0.000    0.000    0.000    0.000 
#
# Total GULP energy -100244.800866 kJ/mol
# GULP energy per Si atom -5569.155604 kJ/mol
# Density = 2.635148 g / cm^3
# Si number density = 26.411597 Si / 1000 Ang^3
#
#
#
# Elastic Constant Matrix: (Units=GPa)
#
#
# Indices 1 2 3 4 5 6 
#
# 1 92.4215 20.8640 54.5694 0.0000 27.8625 0.0000
# 2 20.8640 119.5673 57.6292 0.0000 16.2380 0.0000
# 3 54.5694 57.6292 247.0908 0.0000 68.7402 0.0000
# 4 0.0000 0.0000 0.0000 40.0828 0.0000 12.9115
# 5 27.8625 16.2380 68.7402 0.0000 65.6899 0.0000
# 6 0.0000 0.0000 0.0000 12.9115 0.0000 13.3566
#
#
#
# Elastic Compliance Matrix: (Units=1/GPa)
#
#
# Indices 1 2 3 4 5 6 
#
# 1 0.013106 -0.000998 -0.001670 0.000000 -0.003565 0.000000
# 2 -0.000998 0.009499 -0.002059 0.000000 0.000230 0.000000
# 3 -0.001670 -0.002059 0.006429 0.000000 -0.005510 0.000000
# 4 0.000000 0.000000 0.000000 0.036230 0.000000 -0.035022
# 5 -0.003565 0.000230 -0.005510 0.000000 0.022444 0.000000
# 6 0.000000 0.000000 0.000000 -0.035022 0.000000 0.108725
#
#
# Mechanical properties :
#
#
# Convention : Reuss Voigt Hill
#
# Bulk Modulus (GPa) = 51.07219 80.57831 65.82525
# Shear Modulus (GPa) = 23.53906 45.56032 34.54969
#
# Velocity S-wave (km/s) = 2.98860 4.15783 3.62073
# Velocity P-wave (km/s) = 5.59357 7.32291 6.51587
#
# Compressibility (1/GPa) = 0.01958013
#
# Stress axis : x y z
#
# Youngs Moduli (GPa) = 76.30118 105.27652 155.54311
#
# Poissons Ratio (x) = 0.10506 0.25975
# Poissons Ratio (y) = 0.07614 0.32026
# Poissons Ratio (z) = 0.12742 0.21676
#
# Static dielectric constant tensor:
#      x y z
#    x 2.144670 0.000000 -0.088510 
#    y 0.000000 2.124620 0.000000 
#    z -0.088510 0.000000 2.187190 
# 
# From -- ./inp_files/48827.got.cif
#   From: 2010.05.17/outbox.cif.g08.bks.cpg/sg15_25_cif.got.tgz:48827.got - 2010.06.03 18:47:42.
