data_PCOD9297341
_publ_section_title
;
Structure prediction by ZEFSAII (Michael W. Deem and Ramdas Pophale) SiO2 
 PCOD9297341
Probable space group: C 2/C
;
_chemical_formula_sum "Si O2"
_cell_formula_units_Z 40
_cell_length_a 24.123880
_cell_length_b 16.170412
_cell_length_c 8.833667
_cell_angle_alpha 90.000000
_cell_angle_beta 153.308163
_cell_angle_gamma 90.000000
_cell_volume 1547.893246
_symmetry_space_group_name_H-M "C 2/C"
_symmetry_group_IT_number 15
_symmetry_cell_setting 'monoclinic'
loop_
_space_group_symop_operation_xyz
x,y,z
-x,y,1/2-z
-x,-y,-z
x,-y,1/2+z
1/2+x,1/2+y,z
1/2-x,1/2+y,1/2-z
1/2-x,1/2-y,-z
1/2+x,1/2-y,1/2+z
loop_
_atom_site_type_symbol
_atom_site_label
_atom_site_fract_x
_atom_site_fract_y
_atom_site_fract_z
Si Si1 0.085484 0.923743 0.653095
Si Si2 0.000000 0.492106 0.750000
Si Si3 0.533082 0.246658 0.160787
Si Si4 0.000000 0.754943 0.750000
Si Si5 0.679452 0.971649 0.434779
Si Si6 0.766670 0.144712 0.704118
O O1 0.005022 0.842725 0.429896
O O2 0.180723 0.940853 0.747136
O O3 0.180825 0.899603 0.018478
O O4 0.000000 0.000000 0.500000
O O5 0.105593 0.538157 0.910561
O O6 0.918383 0.442588 0.429437
O O7 0.500000 0.216998 0.250000
O O8 0.674786 0.220071 0.501385
O O9 0.474713 0.215243 0.854975
O O10 0.887576 0.814887 0.430600
O O11 0.695649 0.070958 0.448334
#
# Coordination Sequence:
#
# PCOD9297341 Si02
#       6
#     8   4   8   4   8   8
#     4  11  26  47  79 120 161 211 277 338 408 499
#     4  10  24  39  68 106 149 198 258 316 398 473
#     4  11  27  46  79 115 160 212 271 333 415 482
#     4  10  24  47  70 112 157 206 260 332 398 491
#     4  11  22  44  72 109 153 209 256 332 402 484
#     4  11  24  46  76 112 165 204 268 339 405 492
#
# _framework density 25.841574000000001
#
# number of rings (size 3 to 8) (size 9 to 14) (size 15 to 20)
#    0.000    1.200    2.000    3.000    4.200    5.600 
#    0.000    2.000    0.000    0.000    0.000    0.000 
#    0.000    0.000    0.000    0.000    0.000    0.000 
#
# Total GULP energy -111597.463855 kJ/mol
# GULP energy per Si atom -5579.873193 kJ/mol
# Density = 2.578276 g / cm^3
# Si number density = 25.841574 Si / 1000 Ang^3
#
#
#
# Elastic Constant Matrix: (Units=GPa)
#
#
# Indices 1 2 3 4 5 6 
#
# 1 219.3785 55.8093 84.3128 0.0000 3.0150 0.0000
# 2 55.8093 130.2573 74.1780 0.0000 19.5344 0.0000
# 3 84.3128 74.1780 141.6153 0.0000 7.0153 0.0000
# 4 0.0000 0.0000 0.0000 64.6212 0.0000 6.1581
# 5 3.0150 19.5344 7.0153 0.0000 82.5080 0.0000
# 6 0.0000 0.0000 0.0000 6.1581 0.0000 26.2437
#
#
#
# Elastic Compliance Matrix: (Units=1/GPa)
#
#
# Indices 1 2 3 4 5 6 
#
# 1 0.005968 -0.000802 -0.003145 0.000000 0.000239 0.000000
# 2 -0.000802 0.011427 -0.005398 0.000000 -0.002217 0.000000
# 3 -0.003145 -0.005398 0.011742 0.000000 0.000395 0.000000
# 4 0.000000 0.000000 0.000000 0.015829 0.000000 -0.003714
# 5 0.000239 -0.002217 0.000395 0.000000 0.012603 0.000000
# 6 0.000000 0.000000 0.000000 -0.003714 0.000000 0.038976
#
#
# Mechanical properties :
#
#
# Convention : Reuss Voigt Hill
#
# Bulk Modulus (GPa) = 95.72348 102.20571 98.96460
# Shear Modulus (GPa) = 42.11705 53.13798 47.62751
#
# Velocity S-wave (km/s) = 4.04148 4.53956 4.29774
# Velocity P-wave (km/s) = 7.67469 8.19229 7.93771
#
# Compressibility (1/GPa) = 0.01044676
#
# Stress axis : x y z
#
# Youngs Moduli (GPa) = 167.57004 87.50849 85.16566
#
# Poissons Ratio (x) = 0.07017 0.26783
# Poissons Ratio (y) = 0.13437 0.45976
# Poissons Ratio (z) = 0.52697 0.47241
#
# Static dielectric constant tensor:
#      x y z
#    x 2.177000 0.000000 -0.058510 
#    y 0.000000 2.004590 0.000000 
#    z -0.058510 0.000000 1.999920 
# 
# From -- ./inp_files/62884.got.cif
#   From: 2010.05.17/outbox.cif.g08.bks.cpg/sg15_32_cif.got.tgz:62884.got - 2010.06.03 18:47:42.
