data_PCOD9297324
_publ_section_title
;
Structure prediction by ZEFSAII (Michael W. Deem and Ramdas Pophale) SiO2 
 PCOD9297324
Probable space group: C 2/C
;
_chemical_formula_sum "Si O2"
_cell_formula_units_Z 56
_cell_length_a 16.593768
_cell_length_b 22.826931
_cell_length_c 14.053894
_cell_angle_alpha 90.000000
_cell_angle_beta 148.272282
_cell_angle_gamma 90.000000
_cell_volume 2799.487286
_symmetry_space_group_name_H-M "C 2/C"
_symmetry_group_IT_number 15
_symmetry_cell_setting 'monoclinic'
loop_
_space_group_symop_operation_xyz
x,y,z
-x,y,1/2-z
-x,-y,-z
x,-y,1/2+z
1/2+x,1/2+y,z
1/2-x,1/2+y,1/2-z
1/2-x,1/2-y,-z
1/2+x,1/2-y,1/2+z
loop_
_atom_site_type_symbol
_atom_site_label
_atom_site_fract_x
_atom_site_fract_y
_atom_site_fract_z
Si Si1 0.321088 0.434589 0.348868
Si Si2 0.172482 0.051363 0.267463
Si Si3 0.307501 0.331906 0.181607
Si Si4 0.666396 0.110432 0.367303
Si Si5 0.311582 0.164875 0.318919
Si Si6 0.940773 0.748926 0.984301
Si Si7 0.671243 0.027085 0.881575
O O1 0.289912 0.492893 0.255071
O O2 0.495085 0.436056 0.563794
O O3 0.303398 0.380002 0.261142
O O4 0.208330 0.435506 0.325497
O O5 0.277726 0.106159 0.342501
O O6 0.208389 0.039476 0.413441
O O7 0.162836 0.289755 0.050570
O O8 0.451005 0.290406 0.344391
O O9 0.291692 0.364875 0.066337
O O10 0.500000 0.116672 0.250000
O O11 0.676999 0.144759 0.279726
O O12 0.688523 0.041426 0.371937
O O13 0.168593 0.208631 0.185210
O O14 0.460984 0.204896 0.482448
O O15 0.500000 0.035767 0.750000
#
# Coordination Sequence:
#
# PCOD9297324 Si02
#       7
#     8   8   8   8   8   8   8
#     4  11  23  42  66  94 126 166 206 262 321 372
#     4  11  23  42  66  94 126 166 206 262 321 372
#     4  11  22  41  62  92 127 170 210 260 307 377
#     4  11  22  37  60  96 134 168 207 255 311 385
#     4  11  22  41  62  92 127 170 210 260 307 377
#     4  10  24  39  62  89 126 172 218 251 304 373
#     4  11  25  39  64 100 130 164 205 259 325 376
#
# _framework density 20.003661999999998
#
# number of rings (size 3 to 8) (size 9 to 14) (size 15 to 20)
#    0.000    1.143    5.714    0.429    2.000    4.571 
#    2.571    0.000    0.000    5.143    0.000    0.000 
#    0.000    0.000    0.000    0.000    0.000    0.000 
#
# Total GULP energy -156542.612008 kJ/mol
# GULP energy per Si atom -5590.807572 kJ/mol
# Density = 1.995813 g / cm^3
# Si number density = 20.003662 Si / 1000 Ang^3
#
#
#
# Elastic Constant Matrix: (Units=GPa)
#
#
# Indices 1 2 3 4 5 6 
#
# 1 69.7208 43.2147 21.5794 0.0000 -3.2149 0.0000
# 2 43.2147 110.8797 32.0204 0.0000 -0.6882 0.0000
# 3 21.5794 32.0204 27.6210 0.0000 2.2573 0.0000
# 4 0.0000 0.0000 0.0000 25.3451 0.0000 5.2691
# 5 -3.2149 -0.6882 2.2573 0.0000 24.7863 0.0000
# 6 0.0000 0.0000 0.0000 5.2691 0.0000 17.0493
#
#
#
# Elastic Compliance Matrix: (Units=1/GPa)
#
#
# Indices 1 2 3 4 5 6 
#
# 1 0.020981 -0.005016 -0.010868 0.000000 0.003572 0.000000
# 2 -0.005016 0.014839 -0.013363 0.000000 0.000978 0.000000
# 3 -0.010868 -0.013363 0.060785 0.000000 -0.007316 0.000000
# 4 0.000000 0.000000 0.000000 0.042164 0.000000 -0.013031
# 5 0.003572 0.000978 -0.007316 0.000000 0.041502 0.000000
# 6 0.000000 0.000000 0.000000 -0.013031 0.000000 0.062681
#
#
# Mechanical properties :
#
#
# Convention : Reuss Voigt Hill
#
# Bulk Modulus (GPa) = 26.24045 44.65005 35.44525
# Shear Modulus (GPa) = 15.91592 20.86326 18.38959
#
# Velocity S-wave (km/s) = 2.82379 3.23301 3.03530
# Velocity P-wave (km/s) = 4.87627 6.02544 5.48105
#
# Compressibility (1/GPa) = 0.03810911
#
# Stress axis : x y z
#
# Youngs Moduli (GPa) = 47.66284 67.38936 16.45139
#
# Poissons Ratio (x) = 0.33805 0.17879
# Poissons Ratio (y) = 0.23910 0.21985
# Poissons Ratio (z) = 0.51800 0.90056
#
# Static dielectric constant tensor:
#      x y z
#    x 1.678850 0.000000 0.044270 
#    y 0.000000 1.704530 0.000000 
#    z 0.044270 0.000000 1.719390 
# 
# From -- ./inp_files/42513.got.cif
#   From: 2010.05.17/outbox.cif.g08.bks.cpg/sg15_22_cif.got.tgz:42513.got - 2010.06.03 18:47:42.
