data_PCOD9297157
_publ_section_title
;
Structure prediction by ZEFSAII (Michael W. Deem and Ramdas Pophale) SiO2 
 PCOD9297157
Probable space group: C 2/C
;
_chemical_formula_sum "Si O2"
_cell_formula_units_Z 48
_cell_length_a 22.804459
_cell_length_b 5.004604
_cell_length_c 18.855171
_cell_angle_alpha 90.000000
_cell_angle_beta 126.032696
_cell_angle_gamma 90.000000
_cell_volume 1740.193108
_symmetry_space_group_name_H-M "C 2/C"
_symmetry_group_IT_number 15
_symmetry_cell_setting 'monoclinic'
loop_
_space_group_symop_operation_xyz
x,y,z
-x,y,1/2-z
-x,-y,-z
x,-y,1/2+z
1/2+x,1/2+y,z
1/2-x,1/2+y,1/2-z
1/2-x,1/2-y,-z
1/2+x,1/2-y,1/2+z
loop_
_atom_site_type_symbol
_atom_site_label
_atom_site_fract_x
_atom_site_fract_y
_atom_site_fract_z
Si Si1 0.410138 0.295825 0.457134
Si Si2 0.278724 0.599176 0.313336
Si Si3 0.030547 0.442261 0.129115
Si Si4 0.330781 0.729924 0.028514
Si Si5 0.649698 0.003940 0.815155
Si Si6 0.564008 0.652335 0.839356
O O1 0.362600 0.539817 0.391749
O O2 0.438783 0.125976 0.411954
O O3 0.350795 0.150834 0.466624
O O4 0.480970 0.290936 0.559452
O O5 0.248842 0.383369 0.234645
O O6 0.231886 0.529004 0.350347
O O7 0.102161 0.356477 0.221791
O O8 0.982537 0.626086 0.148793
O O9 0.367504 0.866535 0.122138
O O10 0.375036 0.453040 0.061956
O O11 0.250000 0.750000 0.000000
O O12 0.616228 0.718495 0.809234
O O13 0.500000 0.498089 0.750000
#
# Coordination Sequence:
#
# PCOD9297157 Si02
#       6
#     8   8   8   8   8   8
#     4  11  24  46  71 112 148 195 253 322 378 461
#     4  12  28  50  76 113 156 206 258 316 390 464
#     4  10  23  49  71 104 151 195 257 308 392 457
#     4  12  26  43  70 109 146 193 254 314 388 452
#     4  11  24  48  74 103 152 196 248 314 384 467
#     4  10  25  44  74 106 144 196 251 312 385 460
#
# _framework density 27.583144999999998
#
# number of rings (size 3 to 8) (size 9 to 14) (size 15 to 20)
#    0.000    1.000    5.000    0.000    4.667    2.667 
#    0.000    0.000    0.000    0.000    0.000    0.000 
#    0.000    0.000    0.000    0.000    0.000    0.000 
#
# Total GULP energy -133922.652895 kJ/mol
# GULP energy per Si atom -5580.110537 kJ/mol
# Density = 2.752036 g / cm^3
# Si number density = 27.583145 Si / 1000 Ang^3
#
#
#
# Elastic Constant Matrix: (Units=GPa)
#
#
# Indices 1 2 3 4 5 6 
#
# 1 179.4659 14.0608 60.5802 0.0091 5.8805 0.0048
# 2 14.0608 48.4268 16.2883 0.0086 9.1657 0.0074
# 3 60.5802 16.2883 95.7075 -0.0080 21.3968 -0.0027
# 4 0.0091 0.0086 -0.0080 25.3626 0.0023 -1.6011
# 5 5.8805 9.1657 21.3968 0.0023 64.4587 0.0014
# 6 0.0048 0.0074 -0.0027 -1.6011 0.0014 30.5189
#
#
#
# Elastic Compliance Matrix: (Units=1/GPa)
#
#
# Indices 1 2 3 4 5 6 
#
# 1 0.007158 -0.000707 -0.004631 -0.000004 0.000985 -0.000002
# 2 -0.000707 0.022222 -0.002854 -0.000008 -0.002148 -0.000006
# 3 -0.004631 -0.002854 0.014777 0.000008 -0.004077 0.000003
# 4 -0.000004 -0.000008 0.000008 0.039559 -0.000003 0.002075
# 5 0.000985 -0.002148 -0.004077 -0.000003 0.017083 -0.000001
# 6 -0.000002 -0.000006 0.000003 0.002075 -0.000001 0.032875
#
#
# Mechanical properties :
#
#
# Convention : Reuss Voigt Hill
#
# Bulk Modulus (GPa) = 36.00666 56.16208 46.08437
# Shear Modulus (GPa) = 31.38420 39.57943 35.48182
#
# Velocity S-wave (km/s) = 3.37679 3.79213 3.59048
# Velocity P-wave (km/s) = 5.31844 6.29118 5.82515
#
# Compressibility (1/GPa) = 0.02777264
#
# Stress axis : x y z
#
# Youngs Moduli (GPa) = 139.69553 45.00139 67.67336
#
# Poissons Ratio (x) = 0.03183 0.31339
# Poissons Ratio (y) = 0.09880 0.19314
# Poissons Ratio (z) = 0.64691 0.12843
#
# Static dielectric constant tensor:
#      x y z
#    x 2.142470 -0.000020 -0.059950 
#    y -0.000020 3.273450 0.000000 
#    z -0.059950 0.000000 2.300910 
# 
# From -- ./inp_files/254461.got.cif
#   From: 2010.05.17/outbox.cif.g08.bks.cpg/sg15_128_cif.got.tgz:254461.got - 2010.06.03 18:47:42.
