data_PCOD9297286
_publ_section_title
;
Structure prediction by ZEFSAII (Michael W. Deem and Ramdas Pophale) SiO2 
 PCOD9297286
Probable space group: C 2/C
;
_chemical_formula_sum "Si O2"
_cell_formula_units_Z 36
_cell_length_a 10.206043
_cell_length_b 16.604234
_cell_length_c 14.361332
_cell_angle_alpha 90.000000
_cell_angle_beta 39.786288
_cell_angle_gamma 90.000000
_cell_volume 1557.401512
_symmetry_space_group_name_H-M "C 2/C"
_symmetry_group_IT_number 15
_symmetry_cell_setting 'monoclinic'
loop_
_space_group_symop_operation_xyz
x,y,z
-x,y,1/2-z
-x,-y,-z
x,-y,1/2+z
1/2+x,1/2+y,z
1/2-x,1/2+y,1/2-z
1/2-x,1/2-y,-z
1/2+x,1/2-y,1/2+z
loop_
_atom_site_type_symbol
_atom_site_label
_atom_site_fract_x
_atom_site_fract_y
_atom_site_fract_z
Si Si1 0.253127 0.599312 0.863865
Si Si2 0.000000 0.288850 0.750000
Si Si3 0.584153 0.723077 0.497887
Si Si4 0.034083 0.517911 0.622657
Si Si5 0.784559 0.672597 0.919138
O O1 0.500000 0.594882 0.750000
O O2 0.170148 0.551510 0.818008
O O3 0.154483 0.690031 0.916547
O O4 0.130351 0.555363 0.013984
O O5 0.965209 0.241237 0.867166
O O6 0.218116 0.331072 0.634574
O O7 0.393720 0.678910 0.558257
O O8 0.198403 0.591398 0.531042
O O9 0.000000 0.501888 0.750000
O O10 0.000000 0.679526 0.750000
O O11 0.750000 0.750000 0.000000
#
# Coordination Sequence:
#
# PCOD9297286 Si02
#       5
#     8   4   8   8   8
#     4  11  24  46  69 100 143 180 232 292 346 419
#     4  10  24  38  64  98 142 174 228 284 354 402
#     4  11  22  42  66 100 134 185 225 286 343 413
#     4  10  25  45  68 101 136 186 233 283 351 420
#     4  11  22  40  68  99 136 175 230 285 339 406
#
# _framework density 23.115425999999999
#
# number of rings (size 3 to 8) (size 9 to 14) (size 15 to 20)
#    0.000    1.333    3.333    1.333    4.667    1.778 
#    8.000    0.000    0.000    0.000    0.000    0.000 
#    0.000    0.000    0.000    0.000    0.000    0.000 
#
# Total GULP energy -100461.086544 kJ/mol
# GULP energy per Si atom -5581.171475 kJ/mol
# Density = 2.306281 g / cm^3
# Si number density = 23.115426 Si / 1000 Ang^3
#
#
#
# Elastic Constant Matrix: (Units=GPa)
#
#
# Indices 1 2 3 4 5 6 
#
# 1 152.1606 7.6455 65.8707 0.0006 -32.7813 -0.0004
# 2 7.6455 102.1201 21.9813 0.0004 -10.3486 -0.0005
# 3 65.8707 21.9813 142.7652 -0.0034 -27.1469 -0.0011
# 4 0.0006 0.0004 -0.0034 34.1292 0.0010 8.3052
# 5 -32.7813 -10.3486 -27.1469 0.0010 59.6332 0.0008
# 6 -0.0004 -0.0005 -0.0011 8.3052 0.0008 31.5154
#
#
#
# Elastic Compliance Matrix: (Units=1/GPa)
#
#
# Indices 1 2 3 4 5 6 
#
# 1 0.008772 0.000429 -0.003484 -0.000001 0.003310 0.000000
# 2 0.000429 0.010221 -0.001521 0.000000 0.001317 0.000000
# 3 -0.003484 -0.001521 0.009231 0.000001 0.002023 0.000000
# 4 -0.000001 0.000000 0.000001 0.031308 0.000000 -0.008251
# 5 0.003310 0.001317 0.002023 0.000000 0.019739 0.000000
# 6 0.000000 0.000000 0.000000 -0.008251 0.000000 0.033905
#
#
# Mechanical properties :
#
#
# Convention : Reuss Voigt Hill
#
# Bulk Modulus (GPa) = 52.43471 65.33788 58.88630
# Shear Modulus (GPa) = 38.85467 45.15879 42.00673
#
# Velocity S-wave (km/s) = 4.10432 4.42477 4.26756
# Velocity P-wave (km/s) = 6.72263 7.37781 7.05783
#
# Compressibility (1/GPa) = 0.01907133
#
# Stress axis : x y z
#
# Youngs Moduli (GPa) = 114.00183 97.83614 108.33335
#
# Poissons Ratio (x) = -0.04193 0.37741
# Poissons Ratio (y) = -0.04886 0.16478
# Poissons Ratio (z) = 0.39715 0.14882
#
# Static dielectric constant tensor:
#      x y z
#    x 2.004850 0.000000 -0.004970 
#    y 0.000000 1.983220 0.000000 
#    z -0.004970 0.000000 1.833520 
# 
# From -- ./inp_files/136396.got.cif
#   From: 2010.05.17/outbox.cif.g08.bks.cpg/sg15_69_cif.got.tgz:136396.got - 2010.06.03 18:47:42.
