data_PCOD9297029
_publ_section_title
;
Structure prediction by ZEFSAII (Michael W. Deem and Ramdas Pophale) SiO2 
 PCOD9297029
Probable space group: C 2/C
;
_chemical_formula_sum "Si O2"
_cell_formula_units_Z 56
_cell_length_a 13.744094
_cell_length_b 25.788330
_cell_length_c 13.139256
_cell_angle_alpha 90.000000
_cell_angle_beta 33.738993
_cell_angle_gamma 90.000000
_cell_volume 2586.569716
_symmetry_space_group_name_H-M "C 2/C"
_symmetry_group_IT_number 15
_symmetry_cell_setting 'monoclinic'
loop_
_space_group_symop_operation_xyz
x,y,z
-x,y,1/2-z
-x,-y,-z
x,-y,1/2+z
1/2+x,1/2+y,z
1/2-x,1/2+y,1/2-z
1/2-x,1/2-y,-z
1/2+x,1/2-y,1/2+z
loop_
_atom_site_type_symbol
_atom_site_label
_atom_site_fract_x
_atom_site_fract_y
_atom_site_fract_z
Si Si1 0.552740 0.008450 0.586829
Si Si2 0.817628 0.973709 0.198293
Si Si3 0.201793 0.190035 0.049297
Si Si4 0.600119 0.830785 0.762289
Si Si5 0.102031 0.622189 0.457981
Si Si6 0.532986 0.279038 0.102103
Si Si7 0.706736 0.355211 0.320942
O O1 0.500000 0.001503 0.750000
O O2 0.358378 0.003592 0.704268
O O3 0.606908 0.067625 0.511123
O O4 0.724108 0.977083 0.393807
O O5 0.858022 0.913971 0.136016
O O6 0.000000 0.000000 0.000000
O O7 0.000000 0.185559 0.250000
O O8 0.250000 0.250000 0.000000
O O9 0.307142 0.163399 0.048306
O O10 0.226847 0.161602 0.920509
O O11 0.500000 0.852117 0.750000
O O12 0.485238 0.782136 0.904239
O O13 0.773342 0.799620 0.582317
O O14 0.665643 0.873215 0.786729
O O15 0.903376 0.638411 0.612714
O O16 0.500000 0.286505 0.250000
O O17 0.405445 0.313123 0.142343
#
# Coordination Sequence:
#
# PCOD9297029 Si02
#       7
#     8   8   8   8   8   8   8
#     4  10  23  47  71 100 136 181 227 292 354 416
#     4  10  24  44  70 100 137 177 235 288 352 417
#     4  12  25  40  65 100 137 180 228 279 346 423
#     4  11  22  38  63  90 128 179 214 277 333 411
#     4  11  22  41  66  95 132 174 224 278 347 414
#     4  11  22  39  60  90 129 171 228 267 339 405
#     4  11  23  43  63  95 132 175 220 292 337 408
#
# _framework density 21.650295
#
# number of rings (size 3 to 8) (size 9 to 14) (size 15 to 20)
#    0.000    1.143    0.000    8.143    4.000    0.571 
#    2.571    6.429    0.000    0.000    0.000    0.000 
#    0.000    0.000    0.000    0.000    0.000    0.000 
#
# Total GULP energy -156120.420300 kJ/mol
# GULP energy per Si atom -5575.729296 kJ/mol
# Density = 2.160102 g / cm^3
# Si number density = 21.650295 Si / 1000 Ang^3
#
#
#
# Elastic Constant Matrix: (Units=GPa)
#
#
# Indices 1 2 3 4 5 6 
#
# 1 86.9315 43.5560 -18.5089 0.0001 9.5331 0.0000
# 2 43.5560 100.7673 20.6528 0.0000 11.7522 0.0000
# 3 -18.5089 20.6528 66.4639 0.0001 5.9256 0.0000
# 4 0.0001 0.0000 0.0001 40.6107 0.0000 -7.3671
# 5 9.5331 11.7522 5.9256 0.0000 42.6193 0.0000
# 6 0.0000 0.0000 0.0000 -7.3671 0.0000 23.5318
#
#
#
# Elastic Compliance Matrix: (Units=1/GPa)
#
#
# Indices 1 2 3 4 5 6 
#
# 1 0.018139 -0.009201 0.008147 0.000000 -0.002653 0.000000
# 2 -0.009201 0.015535 -0.007281 0.000000 -0.001213 0.000000
# 3 0.008147 -0.007281 0.019806 0.000000 -0.002568 0.000000
# 4 0.000000 0.000000 0.000000 0.026107 0.000000 0.008173
# 5 -0.002653 -0.001213 -0.002568 0.000000 0.024749 0.000000
# 6 0.000000 0.000000 0.000000 0.008173 0.000000 0.045055
#
#
# Mechanical properties :
#
#
# Convention : Reuss Voigt Hill
#
# Bulk Modulus (GPa) = 27.16718 38.39583 32.78150
# Shear Modulus (GPa) = 28.03806 35.24988 31.64397
#
# Velocity S-wave (km/s) = 3.60257 4.03941 3.82723
# Velocity P-wave (km/s) = 5.46627 6.28719 5.89105
#
# Compressibility (1/GPa) = 0.03680912
#
# Stress axis : x y z
#
# Youngs Moduli (GPa) = 55.13080 64.37243 50.48973
#
# Poissons Ratio (x) = 0.59227 -0.41133
# Poissons Ratio (y) = 0.50724 0.36763
# Poissons Ratio (z) = -0.44914 0.46871
#
# Static dielectric constant tensor:
#      x y z
#    x 1.804140 0.000000 0.038920 
#    y 0.000000 1.812580 0.000000 
#    z 0.038920 0.000000 1.824330 
# 
# From -- ./inp_files/156918.got.cif
#   From: 2010.05.17/outbox.cif.g08.bks.cpg/sg15_79_cif.got.tgz:156918.got - 2010.06.03 18:47:42.
