data_PCOD9297139
_publ_section_title
;
Structure prediction by ZEFSAII (Michael W. Deem and Ramdas Pophale) SiO2 
 PCOD9297139
Probable space group: C 2/C
;
_chemical_formula_sum "Si O2"
_cell_formula_units_Z 56
_cell_length_a 8.696508
_cell_length_b 22.126549
_cell_length_c 17.646110
_cell_angle_alpha 90.000000
_cell_angle_beta 42.900035
_cell_angle_gamma 90.000000
_cell_volume 2311.409625
_symmetry_space_group_name_H-M "C 2/C"
_symmetry_group_IT_number 15
_symmetry_cell_setting 'monoclinic'
loop_
_space_group_symop_operation_xyz
x,y,z
-x,y,1/2-z
-x,-y,-z
x,-y,1/2+z
1/2+x,1/2+y,z
1/2-x,1/2+y,1/2-z
1/2-x,1/2-y,-z
1/2+x,1/2-y,1/2+z
loop_
_atom_site_type_symbol
_atom_site_label
_atom_site_fract_x
_atom_site_fract_y
_atom_site_fract_z
Si Si1 0.419925 0.584497 0.657564
Si Si2 0.059823 0.871838 0.512105
Si Si3 0.391812 0.979950 0.719083
Si Si4 0.556493 0.829044 0.318108
Si Si5 0.264819 0.477217 0.965169
Si Si6 0.247142 0.114334 0.165357
Si Si7 0.800894 0.295491 0.764271
O O1 0.489963 0.624254 0.559776
O O2 0.228942 0.536818 0.700519
O O3 0.264525 0.626677 0.767170
O O4 0.619466 0.538476 0.610031
O O5 0.307263 0.842496 0.441050
O O6 0.075081 0.940708 0.534849
O O7 0.871226 0.836505 0.625459
O O8 0.500000 0.944574 0.750000
O O9 0.564614 0.000599 0.591951
O O10 0.219283 0.939226 0.735884
O O11 0.500000 0.838958 0.250000
O O12 0.657082 0.762881 0.292640
O O13 0.192657 0.425283 0.930425
O O14 0.386892 0.165986 0.159147
O O15 0.000000 0.143382 0.250000
O O16 0.000000 0.278762 0.750000
#
# Coordination Sequence:
#
# PCOD9297139 Si02
#       7
#     8   8   8   8   8   8   8
#     4  11  22  42  71 109 146 180 242 296 360 441
#     4  11  22  43  76 108 138 193 247 292 367 447
#     4  12  23  42  68 101 145 188 232 295 359 439
#     4  10  23  48  75 102 145 196 246 301 366 436
#     4  12  24  41  72 110 144 189 237 295 372 441
#     4  12  25  42  65 105 144 187 239 298 365 425
#     4  12  27  48  73 104 142 195 256 310 359 424
#
# _framework density 24.227639
#
# number of rings (size 3 to 8) (size 9 to 14) (size 15 to 20)
#    0.000    0.571    5.714    2.571    4.000    0.000 
#    2.571    2.857    0.000    0.000    0.000    0.000 
#    0.000    0.000    0.000    0.000    0.000    0.000 
#
# Total GULP energy -156211.455896 kJ/mol
# GULP energy per Si atom -5578.980568 kJ/mol
# Density = 2.417250 g / cm^3
# Si number density = 24.227639 Si / 1000 Ang^3
#
#
#
# Elastic Constant Matrix: (Units=GPa)
#
#
# Indices 1 2 3 4 5 6 
#
# 1 68.7947 22.7613 18.9329 0.0000 5.7849 0.0000
# 2 22.7613 113.6989 26.0449 0.0000 -10.8160 0.0000
# 3 18.9329 26.0449 96.8264 0.0000 -11.0287 0.0000
# 4 0.0000 0.0000 0.0000 21.7237 0.0000 2.5230
# 5 5.7849 -10.8160 -11.0287 0.0000 30.4049 0.0000
# 6 0.0000 0.0000 0.0000 2.5230 0.0000 22.7779
#
#
#
# Elastic Compliance Matrix: (Units=1/GPa)
#
#
# Indices 1 2 3 4 5 6 
#
# 1 0.016898 -0.003201 -0.003066 0.000000 -0.005466 0.000000
# 2 -0.003201 0.010168 -0.001698 0.000000 0.003610 0.000000
# 3 -0.003066 -0.001698 0.011872 0.000000 0.004286 0.000000
# 4 0.000000 0.000000 0.000000 0.046633 0.000000 -0.005165
# 5 -0.005466 0.003610 0.004286 0.000000 0.036768 0.000000
# 6 0.000000 0.000000 0.000000 -0.005165 0.000000 0.044474
#
#
# Mechanical properties :
#
#
# Convention : Reuss Voigt Hill
#
# Bulk Modulus (GPa) = 43.45981 46.08869 44.77425
# Shear Modulus (GPa) = 26.25877 29.08669 27.67273
#
# Velocity S-wave (km/s) = 3.29574 3.46867 3.38331
# Velocity P-wave (km/s) = 5.69733 5.92509 5.81233
#
# Compressibility (1/GPa) = 0.02300976
#
# Stress axis : x y z
#
# Youngs Moduli (GPa) = 59.17760 98.34499 84.23077
#
# Poissons Ratio (x) = 0.31475 0.25824
# Poissons Ratio (y) = 0.18940 0.14303
# Poissons Ratio (z) = 0.18143 0.16700
#
# Static dielectric constant tensor:
#      x y z
#    x 1.998980 0.000000 -0.012960 
#    y 0.000000 1.900050 0.000000 
#    z -0.012960 0.000000 1.986860 
# 
# From -- ./inp_files/193181.got.cif
#   From: 2010.05.17/outbox.cif.g08.bks.cpg/sg15_97_cif.got.tgz:193181.got - 2010.06.03 18:47:42.
