data_PCOD9297598
_publ_section_title
;
Structure prediction by ZEFSAII (Michael W. Deem and Ramdas Pophale) SiO2 
 PCOD9297598
Probable space group: C 2/C
;
_chemical_formula_sum "Si O2"
_cell_formula_units_Z 32
_cell_length_a 8.406310
_cell_length_b 18.503706
_cell_length_c 9.938015
_cell_angle_alpha 90.000000
_cell_angle_beta 58.944709
_cell_angle_gamma 90.000000
_cell_volume 1324.272221
_symmetry_space_group_name_H-M "C 2/C"
_symmetry_group_IT_number 15
_symmetry_cell_setting 'monoclinic'
loop_
_space_group_symop_operation_xyz
x,y,z
-x,y,1/2-z
-x,-y,-z
x,-y,1/2+z
1/2+x,1/2+y,z
1/2-x,1/2+y,1/2-z
1/2-x,1/2-y,-z
1/2+x,1/2-y,1/2+z
loop_
_atom_site_type_symbol
_atom_site_label
_atom_site_fract_x
_atom_site_fract_y
_atom_site_fract_z
Si Si1 0.567861 0.798089 0.468494
Si Si2 0.418131 0.343390 0.152459
Si Si3 0.826556 0.143073 0.401433
Si Si4 0.550134 0.941204 0.870212
O O1 0.556184 0.722587 0.551582
O O2 0.727451 0.807810 0.289852
O O3 0.360529 0.810037 0.499448
O O4 0.573507 0.868134 0.563686
O O5 0.500000 0.381824 0.250000
O O6 0.380819 0.382742 0.027515
O O7 0.755662 0.084055 0.323371
O O8 0.000000 0.179093 0.250000
O O9 0.500000 0.973571 0.750000
O O10 0.500000 0.000000 0.000000
#
# Coordination Sequence:
#
# PCOD9297598 Si02
#       4
#     8   8   8   8
#     4  10  24  41  68 101 145 175 228 278 343 401
#     4  12  23  39  70 103 141 179 223 277 351 405
#     4  10  24  42  66  99 138 176 225 280 341 400
#     4  10  25  45  73  91 136 181 231 275 337 397
#
# _framework density 24.164217000000001
#
# number of rings (size 3 to 8) (size 9 to 14) (size 15 to 20)
#    1.500    0.000    0.000    4.500    7.000    0.000 
#    0.000    2.500    0.000    0.000    0.000    0.000 
#    0.000    0.000    0.000    0.000    0.000    0.000 
#
# Total GULP energy -89226.974617 kJ/mol
# GULP energy per Si atom -5576.685914 kJ/mol
# Density = 2.410922 g / cm^3
# Si number density = 24.164217 Si / 1000 Ang^3
#
#
#
# Elastic Constant Matrix: (Units=GPa)
#
#
# Indices 1 2 3 4 5 6 
#
# 1 134.4795 7.6490 83.9978 0.0000 27.0324 0.0000
# 2 7.6490 24.8908 -3.2077 0.0000 9.5811 0.0000
# 3 83.9978 -3.2077 166.6779 0.0000 19.1144 0.0000
# 4 0.0000 0.0000 0.0000 26.7815 0.0000 3.4750
# 5 27.0324 9.5811 19.1144 0.0000 81.4545 0.0000
# 6 0.0000 0.0000 0.0000 3.4750 0.0000 9.5322
#
#
#
# Elastic Compliance Matrix: (Units=1/GPa)
#
#
# Indices 1 2 3 4 5 6 
#
# 1 0.011601 -0.003484 -0.005671 0.000000 -0.002109 0.000000
# 2 -0.003484 0.043455 0.003130 0.000000 -0.004690 0.000000
# 3 -0.005671 0.003130 0.008986 0.000000 -0.000595 0.000000
# 4 0.000000 0.000000 0.000000 0.039193 0.000000 -0.014288
# 5 -0.002109 -0.004690 -0.000595 0.000000 0.013668 0.000000
# 6 0.000000 0.000000 0.000000 -0.014288 0.000000 0.110116
#
#
# Mechanical properties :
#
#
# Convention : Reuss Voigt Hill
#
# Bulk Modulus (GPa) = 19.23427 55.88071 37.55749
# Shear Modulus (GPa) = 19.50081 39.39425 29.44753
#
# Velocity S-wave (km/s) = 2.84388 4.04204 3.49469
# Velocity P-wave (km/s) = 4.33135 6.70520 5.64448
#
# Compressibility (1/GPa) = 0.05199053
#
# Stress axis : x y z
#
# Youngs Moduli (GPa) = 86.20235 23.01252 111.28293
#
# Poissons Ratio (x) = 0.08017 0.63112
# Poissons Ratio (y) = 0.30032 -0.34829
# Poissons Ratio (z) = 0.48888 -0.07202
#
# Static dielectric constant tensor:
#      x y z
#    x 2.039360 0.000000 0.007570 
#    y 0.000000 1.964290 0.000000 
#    z 0.007570 0.000000 1.902810 
# 
# From -- ./inp_files/23024.got.cif
#   From: 2010.05.17/outbox.cif.g08.bks.cpg/sg15_12_cif.got.tgz:23024.got - 2010.06.03 18:47:42.
