data_PCOD9297633
_publ_section_title
;
Structure prediction by ZEFSAII (Michael W. Deem and Ramdas Pophale) SiO2 
 PCOD9297633
Probable space group: C 2/C
;
_chemical_formula_sum "Si O2"
_cell_formula_units_Z 52
_cell_length_a 9.788231
_cell_length_b 25.052987
_cell_length_c 12.593173
_cell_angle_alpha 90.000000
_cell_angle_beta 129.755344
_cell_angle_gamma 90.000000
_cell_volume 2374.117478
_symmetry_space_group_name_H-M "C 2/C"
_symmetry_group_IT_number 15
_symmetry_cell_setting 'monoclinic'
loop_
_space_group_symop_operation_xyz
x,y,z
-x,y,1/2-z
-x,-y,-z
x,-y,1/2+z
1/2+x,1/2+y,z
1/2-x,1/2+y,1/2-z
1/2-x,1/2-y,-z
1/2+x,1/2-y,1/2+z
loop_
_atom_site_type_symbol
_atom_site_label
_atom_site_fract_x
_atom_site_fract_y
_atom_site_fract_z
Si Si1 0.854023 0.539246 0.373562
Si Si2 0.689568 0.944681 0.283576
Si Si3 0.908219 0.368231 0.460645
Si Si4 0.000000 0.913124 0.750000
Si Si5 0.887942 0.703838 0.591584
Si Si6 0.072929 0.133517 0.499887
Si Si7 0.119648 0.199681 0.915270
O O1 0.794203 0.506189 0.241898
O O2 0.677101 0.551642 0.352980
O O3 0.000000 0.500000 0.500000
O O4 0.950048 0.595787 0.407052
O O5 0.500000 0.940726 0.250000
O O6 0.662768 0.905359 0.169581
O O7 0.873633 0.923097 0.423254
O O8 0.747689 0.349616 0.452132
O O9 0.994236 0.316013 0.448026
O O10 0.030032 0.876837 0.660663
O O11 0.750000 0.750000 0.500000
O O12 0.768280 0.653664 0.563740
O O13 0.000000 0.719217 0.750000
O O14 0.993315 0.177766 0.540255
O O15 0.000000 0.209689 0.750000
O O16 0.250000 0.250000 0.000000
#
# Coordination Sequence:
#
# PCOD9297633 Si02
#       7
#     8   8   8   4   8   8   8
#     4  10  24  41  71 106 149 189 250 311 371 454
#     4  11  20  42  74 102 145 197 248 300 384 447
#     4  11  21  45  69 101 150 189 241 309 377 449
#     4  12  26  46  72 110 144 202 258 310 370 460
#     4  12  23  40  71 103 139 191 246 309 379 450
#     4  12  24  45  72 101 151 195 249 314 377 457
#     4  12  27  47  74 109 152 201 253 314 400 469
#
# _framework density 21.902875000000002
#
# number of rings (size 3 to 8) (size 9 to 14) (size 15 to 20)
#    0.000    0.615    6.154    1.846    1.077    5.538 
#    0.000    0.000    0.000    0.000    0.000    0.000 
#    0.000    0.000    0.000    0.000    0.000    0.000 
#
# Total GULP energy -145152.252461 kJ/mol
# GULP energy per Si atom -5582.778941 kJ/mol
# Density = 2.185302 g / cm^3
# Si number density = 21.902875 Si / 1000 Ang^3
#
#
#
# Elastic Constant Matrix: (Units=GPa)
#
#
# Indices 1 2 3 4 5 6 
#
# 1 80.8111 8.3274 14.2728 0.0000 1.6897 0.0000
# 2 8.3274 76.0665 53.3731 0.0000 0.2766 0.0000
# 3 14.2728 53.3731 108.6054 0.0000 8.8505 0.0000
# 4 0.0000 0.0000 0.0000 35.3088 0.0000 16.1802
# 5 1.6897 0.2766 8.8505 0.0000 31.2999 0.0000
# 6 0.0000 0.0000 0.0000 16.1802 0.0000 29.1195
#
#
#
# Elastic Compliance Matrix: (Units=1/GPa)
#
#
# Indices 1 2 3 4 5 6 
#
# 1 0.012676 -0.000356 -0.001469 0.000000 -0.000266 0.000000
# 2 -0.000356 0.020296 -0.010148 0.000000 0.002709 0.000000
# 3 -0.001469 -0.010148 0.014713 0.000000 -0.003991 0.000000
# 4 0.000000 0.000000 0.000000 0.037996 0.000000 -0.021113
# 5 -0.000266 0.002709 -0.003991 0.000000 0.033068 0.000000
# 6 0.000000 0.000000 0.000000 -0.021113 0.000000 0.046072
#
#
# Mechanical properties :
#
#
# Convention : Reuss Voigt Hill
#
# Bulk Modulus (GPa) = 42.12531 46.38109 44.25320
# Shear Modulus (GPa) = 25.42163 31.77963 28.60063
#
# Velocity S-wave (km/s) = 3.41053 3.81325 3.61750
# Velocity P-wave (km/s) = 5.89775 6.37256 6.13975
#
# Compressibility (1/GPa) = 0.02373870
#
# Stress axis : x y z
#
# Youngs Moduli (GPa) = 78.88751 49.27000 67.96525
#
# Poissons Ratio (x) = 0.01753 0.09987
# Poissons Ratio (y) = 0.02806 0.68974
# Poissons Ratio (z) = 0.11592 0.50002
#
# Static dielectric constant tensor:
#      x y z
#    x 1.732170 0.000000 -0.038750 
#    y 0.000000 2.430650 0.000000 
#    z -0.038750 0.000000 1.959150 
# 
# From -- ./inp_files/81494.got.cif
#   From: 2010.05.17/outbox.cif.g08.bks.cpg/sg15_41_cif.got.tgz:81494.got - 2010.06.03 18:47:42.
