data_PCOD9297276
_publ_section_title
;
Structure prediction by ZEFSAII (Michael W. Deem and Ramdas Pophale) SiO2 
 PCOD9297276
Probable space group: C 2/C
;
_chemical_formula_sum "Si O2"
_cell_formula_units_Z 60
_cell_length_a 11.842488
_cell_length_b 17.276996
_cell_length_c 21.158107
_cell_angle_alpha 90.000000
_cell_angle_beta 39.294997
_cell_angle_gamma 90.000000
_cell_volume 2741.615857
_symmetry_space_group_name_H-M "C 2/C"
_symmetry_group_IT_number 15
_symmetry_cell_setting 'monoclinic'
loop_
_space_group_symop_operation_xyz
x,y,z
-x,y,1/2-z
-x,-y,-z
x,-y,1/2+z
1/2+x,1/2+y,z
1/2-x,1/2+y,1/2-z
1/2-x,1/2-y,-z
1/2+x,1/2-y,1/2+z
loop_
_atom_site_type_symbol
_atom_site_label
_atom_site_fract_x
_atom_site_fract_y
_atom_site_fract_z
Si Si1 0.876140 0.593065 0.603606
Si Si2 0.393011 0.866011 0.966285
Si Si3 0.726850 0.050798 0.270700
Si Si4 0.968506 0.193576 0.939368
Si Si5 0.659455 0.260724 0.227241
Si Si6 0.500000 0.630173 0.250000
Si Si7 0.441250 0.623412 0.082809
Si Si8 0.756549 0.831510 0.962959
O O1 0.877990 0.570582 0.528516
O O2 0.829305 0.530799 0.676511
O O3 0.727606 0.659199 0.669153
O O4 0.067210 0.629788 0.535558
O O5 0.553026 0.894022 0.852124
O O6 0.438828 0.781739 0.976029
O O7 0.211189 0.846074 0.009630
O O8 0.876585 0.081573 0.255411
O O9 0.811573 0.055080 0.163972
O O10 0.094422 0.212632 0.825042
O O11 0.005053 0.140447 0.984220
O O12 0.500000 0.232233 0.250000
O O13 0.820651 0.198511 0.156282
O O14 0.639115 0.677915 0.148085
O O15 0.618260 0.616273 0.047391
O O16 0.750000 0.750000 0.000000
#
# Coordination Sequence:
#
# PCOD9297276 Si02
#       8
#     8   8   8   8   8   4   8   8
#     4  12  24  43  67 101 134 179 231 280 336 409
#     4  11  20  38  68 101 131 167 220 288 338 393
#     4  11  25  41  66  98 136 181 223 278 352 399
#     4  11  22  39  68 103 134 167 223 290 336 394
#     4  12  22  40  71 105 131 172 231 288 337 394
#     4  10  24  38  64 100 130 170 230 280 332 400
#     4  11  24  42  66 100 141 178 221 278 348 410
#     4  11  22  42  65  95 134 179 223 275 329 401
#
# _framework density 21.884903999999999
#
# number of rings (size 3 to 8) (size 9 to 14) (size 15 to 20)
#    0.000    0.800    6.667    1.200    0.933    0.000 
#    2.400    0.667    2.933    0.000    0.000    0.000 
#    0.000    0.000    0.000    0.000    0.000    0.000 
#
# Total GULP energy -167415.362418 kJ/mol
# GULP energy per Si atom -5580.512081 kJ/mol
# Density = 2.183509 g / cm^3
# Si number density = 21.884904 Si / 1000 Ang^3
#
#
#
# Elastic Constant Matrix: (Units=GPa)
#
#
# Indices 1 2 3 4 5 6 
#
# 1 77.2325 -3.2191 16.2125 -0.0004 -2.4600 0.0001
# 2 -3.2191 37.9853 5.9617 -0.0019 -1.1623 0.0007
# 3 16.2125 5.9617 94.0837 -0.0049 22.0947 0.0015
# 4 -0.0004 -0.0019 -0.0049 24.7506 0.0010 8.9993
# 5 -2.4600 -1.1623 22.0947 0.0010 43.9188 -0.0003
# 6 0.0001 0.0007 0.0015 8.9993 -0.0003 15.3028
#
#
#
# Elastic Compliance Matrix: (Units=1/GPa)
#
#
# Indices 1 2 3 4 5 6 
#
# 1 0.013728 0.001709 -0.003022 0.000000 0.002335 0.000000
# 2 0.001709 0.026924 -0.002484 0.000002 0.002058 -0.000002
# 3 -0.003022 -0.002484 0.012884 0.000004 -0.006717 -0.000003
# 4 0.000000 0.000002 0.000004 0.051392 -0.000003 -0.030223
# 5 0.002335 0.002058 -0.006717 -0.000003 0.026334 0.000003
# 6 0.000000 -0.000002 -0.000003 -0.030223 0.000003 0.083121
#
#
# Mechanical properties :
#
#
# Convention : Reuss Voigt Hill
#
# Bulk Modulus (GPa) = 21.76643 27.46795 24.61719
# Shear Modulus (GPa) = 21.07125 29.48420 25.27772
#
# Velocity S-wave (km/s) = 3.10630 3.67446 3.40226
# Velocity P-wave (km/s) = 4.77838 5.52997 5.16786
#
# Compressibility (1/GPa) = 0.04594231
#
# Stress axis : x y z
#
# Youngs Moduli (GPa) = 72.84432 37.14210 77.61321
#
# Poissons Ratio (x) = -0.06348 0.23456
# Poissons Ratio (y) = -0.12450 0.19278
# Poissons Ratio (z) = 0.22015 0.09225
#
# Static dielectric constant tensor:
#      x y z
#    x 1.830820 0.000000 0.022450 
#    y 0.000000 1.838590 0.000000 
#    z 0.022450 0.000000 1.906810 
# 
# From -- ./inp_files/239964.got.cif
#   From: 2010.05.17/outbox.cif.g08.bks.cpg/sg15_120_cif.got.tgz:239964.got - 2010.06.03 18:47:42.
