data_PCOD9297037
_publ_section_title
;
Structure prediction by ZEFSAII (Michael W. Deem and Ramdas Pophale) SiO2 
 PCOD9297037
Probable space group: C 2/C
;
_chemical_formula_sum "Si O2"
_cell_formula_units_Z 32
_cell_length_a 6.943256
_cell_length_b 7.720430
_cell_length_c 23.315800
_cell_angle_alpha 90.000000
_cell_angle_beta 85.491535
_cell_angle_gamma 90.000000
_cell_volume 1245.974292
_symmetry_space_group_name_H-M "C 2/C"
_symmetry_group_IT_number 15
_symmetry_cell_setting 'monoclinic'
loop_
_space_group_symop_operation_xyz
x,y,z
-x,y,1/2-z
-x,-y,-z
x,-y,1/2+z
1/2+x,1/2+y,z
1/2-x,1/2+y,1/2-z
1/2-x,1/2-y,-z
1/2+x,1/2-y,1/2+z
loop_
_atom_site_type_symbol
_atom_site_label
_atom_site_fract_x
_atom_site_fract_y
_atom_site_fract_z
Si Si1 0.398685 0.154223 0.866974
Si Si2 0.794780 0.143908 0.909774
Si Si3 0.783883 0.499227 0.477772
Si Si4 0.553454 0.517369 0.814376
O O1 0.604000 0.077200 0.881816
O O2 0.460223 0.337907 0.838991
O O3 0.278228 0.043300 0.823931
O O4 0.280069 0.151998 0.930526
O O5 0.755949 0.328033 0.940363
O O6 0.953752 0.158207 0.857569
O O7 0.846007 0.020714 0.962405
O O8 0.000000 0.500000 0.500000
O O9 0.500000 0.540444 0.750000
#
# Coordination Sequence:
#
# PCOD9297037 Si02
#       4
#     8   8   8   8
#     4  11  25  48  70 107 143 189 249 305 376 446
#     4  10  23  47  71 108 151 189 241 312 376 454
#     4   9  20  43  74 108 150 186 237 312 380 452
#     4  12  30  45  73 105 138 203 251 305 375 448
#
# _framework density 25.682714000000001
#
# number of rings (size 3 to 8) (size 9 to 14) (size 15 to 20)
#    0.000    1.500    2.500    0.000   10.500    2.000 
#    0.000    1.250    0.000    0.000    0.000    0.000 
#    0.000    0.000    0.000    0.000    0.000    0.000 
#
# Total GULP energy -89491.161675 kJ/mol
# GULP energy per Si atom -5593.197605 kJ/mol
# Density = 2.562426 g / cm^3
# Si number density = 25.682714 Si / 1000 Ang^3
#
#
#
# Elastic Constant Matrix: (Units=GPa)
#
#
# Indices 1 2 3 4 5 6 
#
# 1 118.1999 35.1926 77.2677 0.0000 40.6927 0.0000
# 2 35.1926 127.5208 52.3379 0.0000 18.2866 0.0000
# 3 77.2677 52.3379 208.4303 0.0000 44.9125 0.0000
# 4 0.0000 0.0000 0.0000 33.0609 0.0000 -2.3710
# 5 40.6927 18.2866 44.9125 0.0000 50.3590 0.0000
# 6 0.0000 0.0000 0.0000 -2.3710 0.0000 37.9410
#
#
#
# Elastic Compliance Matrix: (Units=1/GPa)
#
#
# Indices 1 2 3 4 5 6 
#
# 1 0.013487 -0.001388 -0.002985 0.000000 -0.007732 0.000000
# 2 -0.001388 0.008979 -0.001584 0.000000 -0.000727 0.000000
# 3 -0.002985 -0.001584 0.007004 0.000000 -0.003260 0.000000
# 4 0.000000 0.000000 0.000000 0.030383 0.000000 0.001899
# 5 -0.007732 -0.000727 -0.003260 0.000000 0.029276 0.000000
# 6 0.000000 0.000000 0.000000 0.001899 0.000000 0.026475
#
#
# Mechanical properties :
#
#
# Convention : Reuss Voigt Hill
#
# Bulk Modulus (GPa) = 56.95847 87.08303 72.02075
# Shear Modulus (GPa) = 37.48952 43.56236 40.52594
#
# Velocity S-wave (km/s) = 3.82477 4.12293 3.97665
# Velocity P-wave (km/s) = 6.45996 7.52633 7.01344
#
# Compressibility (1/GPa) = 0.01755665
#
# Stress axis : x y z
#
# Youngs Moduli (GPa) = 74.14731 111.37028 142.76698
#
# Poissons Ratio (x) = 0.15459 0.42618
# Poissons Ratio (y) = 0.10292 0.22608
# Poissons Ratio (z) = 0.22134 0.17636
#
# Static dielectric constant tensor:
#      x y z
#    x 2.192300 0.000000 -0.075630 
#    y 0.000000 2.094740 0.000000 
#    z -0.075630 0.000000 1.967640 
# 
# From -- ./inp_files/229222.got.cif
#   From: 2010.05.17/outbox.cif.g08.bks.cpg/sg15_115_cif.got.tgz:229222.got - 2010.06.03 18:47:42.
