data_PCOD9297203
_publ_section_title
;
Structure prediction by ZEFSAII (Michael W. Deem and Ramdas Pophale) SiO2 
 PCOD9297203
Probable space group: C 2/C
;
_chemical_formula_sum "Si O2"
_cell_formula_units_Z 56
_cell_length_a 14.387363
_cell_length_b 17.320841
_cell_length_c 16.314888
_cell_angle_alpha 90.000000
_cell_angle_beta 39.323951
_cell_angle_gamma 90.000000
_cell_volume 2576.445307
_symmetry_space_group_name_H-M "C 2/C"
_symmetry_group_IT_number 15
_symmetry_cell_setting 'monoclinic'
loop_
_space_group_symop_operation_xyz
x,y,z
-x,y,1/2-z
-x,-y,-z
x,-y,1/2+z
1/2+x,1/2+y,z
1/2-x,1/2+y,1/2-z
1/2-x,1/2-y,-z
1/2+x,1/2-y,1/2+z
loop_
_atom_site_type_symbol
_atom_site_label
_atom_site_fract_x
_atom_site_fract_y
_atom_site_fract_z
Si Si1 0.675055 0.565477 0.338591
Si Si2 0.500000 0.449284 0.250000
Si Si3 0.000000 0.576612 0.750000
Si Si4 0.370785 0.821917 0.188069
Si Si5 0.751783 0.434595 0.521743
Si Si6 0.438531 0.913884 0.552510
Si Si7 0.485745 0.665837 0.356588
Si Si8 0.922945 0.105893 0.627885
O O1 0.840556 0.589714 0.201668
O O2 0.576685 0.594132 0.329311
O O3 0.583103 0.602866 0.475902
O O4 0.657254 0.472813 0.350412
O O5 0.368865 0.503782 0.371288
O O6 0.555501 0.401523 0.289950
O O7 0.934514 0.628324 0.720998
O O8 0.127955 0.528919 0.619871
O O9 0.446343 0.739232 0.146038
O O10 0.193964 0.826817 0.311928
O O11 0.428070 0.858178 0.063020
O O12 0.826893 0.403156 0.552526
O O13 0.681543 0.361967 0.521107
O O14 0.500000 0.000000 0.500000
O O15 0.500000 0.676561 0.250000
#
# Coordination Sequence:
#
# PCOD9297203 Si02
#       8
#     8   4   4   8   8   8   8   8
#     4  11  22  38  63  86 129 164 216 256 324 387
#     4  12  20  41  68  88 121 170 222 272 320 369
#     4  10  24  33  52  94 139 162 198 250 308 391
#     4  11  24  37  59  92 134 169 212 255 317 392
#     4  11  20  35  58  88 125 176 207 250 319 388
#     4  11  20  36  56  83 126 177 214 255 304 375
#     4  12  21  40  64  95 135 176 205 256 333 407
#     4  11  23  40  62  93 119 167 221 273 306 382
#
# _framework density 21.735372999999999
#
# number of rings (size 3 to 8) (size 9 to 14) (size 15 to 20)
#    0.000    0.857    7.143    0.857    2.000    4.571 
#    0.000    0.000    0.000    0.857    0.000    1.000 
#    0.000    0.000    0.000    0.000    0.000    0.000 
#
# Total GULP energy -156288.573842 kJ/mol
# GULP energy per Si atom -5581.734780 kJ/mol
# Density = 2.168590 g / cm^3
# Si number density = 21.735373 Si / 1000 Ang^3
#
#
#
# Elastic Constant Matrix: (Units=GPa)
#
#
# Indices 1 2 3 4 5 6 
#
# 1 62.8696 14.6971 27.4674 0.0001 0.9061 0.0000
# 2 14.6971 51.1977 16.3902 0.0002 -0.8245 -0.0001
# 3 27.4674 16.3902 189.4891 0.0004 7.4166 -0.0002
# 4 0.0001 0.0002 0.0004 11.1402 -0.0001 -0.2026
# 5 0.9061 -0.8245 7.4166 -0.0001 25.9035 0.0001
# 6 0.0000 -0.0001 -0.0002 -0.2026 0.0001 27.7287
#
#
#
# Elastic Compliance Matrix: (Units=1/GPa)
#
#
# Indices 1 2 3 4 5 6 
#
# 1 0.017909 -0.004437 -0.002207 0.000000 -0.000136 0.000000
# 2 -0.004437 0.021221 -0.001239 0.000000 0.001185 0.000000
# 3 -0.002207 -0.001239 0.005768 0.000000 -0.001614 0.000000
# 4 0.000000 0.000000 0.000000 0.089777 0.000001 0.000656
# 5 -0.000136 0.001185 -0.001614 0.000001 0.039109 0.000000
# 6 0.000000 0.000000 0.000000 0.000656 0.000000 0.036068
#
#
# Mechanical properties :
#
#
# Convention : Reuss Voigt Hill
#
# Bulk Modulus (GPa) = 34.32522 46.74067 40.53295
# Shear Modulus (GPa) = 21.24683 29.28792 25.26738
#
# Velocity S-wave (km/s) = 3.12993 3.67478 3.41324
# Velocity P-wave (km/s) = 5.37481 6.28939 5.85000
#
# Compressibility (1/GPa) = 0.02913310
#
# Stress axis : x y z
#
# Youngs Moduli (GPa) = 55.83691 47.12206 173.38322
#
# Poissons Ratio (x) = 0.20907 0.38265
# Poissons Ratio (y) = 0.24774 0.21480
# Poissons Ratio (z) = 0.12323 0.05838
#
# Static dielectric constant tensor:
#      x y z
#    x 1.796220 0.000000 -0.004100 
#    y 0.000000 1.790720 0.000000 
#    z -0.004100 0.000000 1.913210 
# 
# From -- ./inp_files/206276.got.cif
#   From: 2010.05.17/outbox.cif.g08.bks.cpg/sg15_104_cif.got.tgz:206276.got - 2010.06.03 18:47:42.
