data_PCOD9297504
_publ_section_title
;
Structure prediction by ZEFSAII (Michael W. Deem and Ramdas Pophale) SiO2 
 PCOD9297504
Probable space group: C 2/C
;
_chemical_formula_sum "Si O2"
_cell_formula_units_Z 36
_cell_length_a 17.279530
_cell_length_b 7.334760
_cell_length_c 14.050320
_cell_angle_alpha 90.000000
_cell_angle_beta 121.418543
_cell_angle_gamma 90.000000
_cell_volume 1519.664072
_symmetry_space_group_name_H-M "C 2/C"
_symmetry_group_IT_number 15
_symmetry_cell_setting 'monoclinic'
loop_
_space_group_symop_operation_xyz
x,y,z
-x,y,1/2-z
-x,-y,-z
x,-y,1/2+z
1/2+x,1/2+y,z
1/2-x,1/2+y,1/2-z
1/2-x,1/2-y,-z
1/2+x,1/2-y,1/2+z
loop_
_atom_site_type_symbol
_atom_site_label
_atom_site_fract_x
_atom_site_fract_y
_atom_site_fract_z
Si Si1 0.910399 0.937549 0.494520
Si Si2 0.500000 0.013200 0.250000
Si Si3 0.842512 0.218730 0.120662
Si Si4 0.800162 0.224207 0.310469
Si Si5 0.610494 0.117092 0.149627
O O1 0.900260 0.931630 0.600598
O O2 0.904809 0.728406 0.456227
O O3 0.834673 0.069165 0.403079
O O4 0.000000 0.000000 0.500000
O O5 0.410271 0.890772 0.173433
O O6 0.526900 0.113993 0.169270
O O7 0.816830 0.167857 0.211292
O O8 0.750000 0.250000 0.000000
O O9 0.692391 0.226610 0.252769
O O10 0.853353 0.414875 0.352471
#
# Coordination Sequence:
#
# PCOD9297504 Si02
#       5
#     8   4   8   8   8
#     4  12  25  42  69 103 140 181 232 291 348 413
#     4  10  24  40  72 104 140 182 238 292 346 422
#     4  11  22  45  69  98 141 189 226 285 363 411
#     4  11  23  45  71  95 139 184 230 284 348 424
#     4  11  22  44  66  97 135 178 229 286 342 408
#
# _framework density 23.689446
#
# number of rings (size 3 to 8) (size 9 to 14) (size 15 to 20)
#    0.000    0.889    4.444    4.000    0.000    5.333 
#    0.000    3.333    0.000    0.000    0.000    0.000 
#    0.000    0.000    0.000    0.000    0.000    0.000 
#
# Total GULP energy -100632.433875 kJ/mol
# GULP energy per Si atom -5590.690771 kJ/mol
# Density = 2.363553 g / cm^3
# Si number density = 23.689446 Si / 1000 Ang^3
#
#
#
# Elastic Constant Matrix: (Units=GPa)
#
#
# Indices 1 2 3 4 5 6 
#
# 1 123.4248 16.6034 -2.8137 0.0000 -7.4442 0.0000
# 2 16.6034 90.5926 23.2553 0.0000 -27.4322 0.0000
# 3 -2.8137 23.2553 41.4191 0.0000 -6.1037 0.0000
# 4 0.0000 0.0000 0.0000 22.3415 0.0000 4.6832
# 5 -7.4442 -27.4322 -6.1037 0.0000 31.5423 0.0000
# 6 0.0000 0.0000 0.0000 4.6832 0.0000 41.8097
#
#
#
# Elastic Compliance Matrix: (Units=1/GPa)
#
#
# Indices 1 2 3 4 5 6 
#
# 1 0.008421 -0.001724 0.001659 0.000000 0.000809 0.000000
# 2 -0.001724 0.017380 -0.007934 0.000000 0.013173 0.000000
# 3 0.001659 -0.007934 0.028566 0.000000 -0.000981 0.000000
# 4 0.000000 0.000000 0.000000 0.045836 0.000000 -0.005134
# 5 0.000809 0.013173 -0.000981 0.000000 0.043161 0.000000
# 6 0.000000 0.000000 0.000000 -0.005134 0.000000 0.024493
#
#
# Mechanical properties :
#
#
# Convention : Reuss Voigt Hill
#
# Bulk Modulus (GPa) = 26.06281 36.61406 31.33843
# Shear Modulus (GPa) = 25.42649 33.69813 29.56231
#
# Velocity S-wave (km/s) = 3.27972 3.77569 3.53641
# Velocity P-wave (km/s) = 5.03665 5.87343 5.47106
#
# Compressibility (1/GPa) = 0.03836885
#
# Stress axis : x y z
#
# Youngs Moduli (GPa) = 118.75534 57.53703 35.00618
#
# Poissons Ratio (x) = 0.09921 -0.05809
# Poissons Ratio (y) = 0.20478 0.27775
# Poissons Ratio (z) = -0.19706 0.45651
#
# Static dielectric constant tensor:
#      x y z
#    x -21.607210 0.000000 -42.681110 
#    y 0.000000 2.162880 0.000000 
#    z -42.681110 0.000000 -75.564700 
# 
# From -- ./inp_files/158920.got.cif
#   From: 2010.05.17/outbox.cif.g08.bks.cpg/sg15_80_cif.got.tgz:158920.got - 2010.06.03 18:47:42.
