data_PCOD9297141
_publ_section_title
;
Structure prediction by ZEFSAII (Michael W. Deem and Ramdas Pophale) SiO2 
 PCOD9297141
Probable space group: C 2/C
;
_chemical_formula_sum "Si O2"
_cell_formula_units_Z 44
_cell_length_a 21.777490
_cell_length_b 8.452972
_cell_length_c 10.047695
_cell_angle_alpha 90.000000
_cell_angle_beta 114.779699
_cell_angle_gamma 90.000000
_cell_volume 1679.322743
_symmetry_space_group_name_H-M "C 2/C"
_symmetry_group_IT_number 15
_symmetry_cell_setting 'monoclinic'
loop_
_space_group_symop_operation_xyz
x,y,z
-x,y,1/2-z
-x,-y,-z
x,-y,1/2+z
1/2+x,1/2+y,z
1/2-x,1/2+y,1/2-z
1/2-x,1/2-y,-z
1/2+x,1/2-y,1/2+z
loop_
_atom_site_type_symbol
_atom_site_label
_atom_site_fract_x
_atom_site_fract_y
_atom_site_fract_z
Si Si1 0.391515 0.665688 0.284134
Si Si2 0.482908 0.209057 0.088933
Si Si3 0.236372 0.352575 0.290274
Si Si4 0.880394 0.196420 0.793139
Si Si5 0.000000 0.393852 0.250000
Si Si6 0.199406 0.603544 0.469874
O O1 0.423070 0.704523 0.458097
O O2 0.312750 0.708463 0.220402
O O3 0.392855 0.481336 0.252625
O O4 0.436679 0.784273 0.235543
O O5 0.500000 0.279876 0.250000
O O6 0.551617 0.251937 0.071742
O O7 0.479220 0.022102 0.116821
O O8 0.313069 0.312581 0.322177
O O9 0.229831 0.466071 0.409017
O O10 0.200096 0.430309 0.126756
O O11 0.866240 0.328398 0.665857
O O12 0.250000 0.750000 0.500000
#
# Coordination Sequence:
#
# PCOD9297141 Si02
#       6
#     8   8   8   8   4   8
#     4  12  25  46  73 111 147 197 261 297 383 448
#     4  10  24  46  74 101 149 203 242 310 374 444
#     4  11  25  48  78 112 151 202 248 311 381 455
#     4  11  23  46  74 112 147 192 249 322 367 437
#     4  10  26  44  70 102 146 202 244 296 374 454
#     4  10  23  48  75 109 155 194 247 306 382 441
#
# _framework density 26.201039999999999
#
# number of rings (size 3 to 8) (size 9 to 14) (size 15 to 20)
#    0.545    0.727    0.000    5.455    3.818    1.455 
#    9.818   10.909    0.000    0.000    0.000    0.000 
#    0.000    0.000    0.000    0.000    0.000    0.000 
#
# Total GULP energy -123160.490526 kJ/mol
# GULP energy per Si atom -5598.204115 kJ/mol
# Density = 2.614140 g / cm^3
# Si number density = 26.201040 Si / 1000 Ang^3
#
#
#
# Elastic Constant Matrix: (Units=GPa)
#
#
# Indices 1 2 3 4 5 6 
#
# 1 142.9121 72.2851 18.3703 0.0000 14.8305 0.0000
# 2 72.2851 149.0023 30.6373 0.0000 -1.0610 0.0000
# 3 18.3703 30.6373 93.8344 0.0000 -19.5175 0.0000
# 4 0.0000 0.0000 0.0000 31.1557 0.0000 3.1340
# 5 14.8305 -1.0610 -19.5175 0.0000 51.6777 0.0000
# 6 0.0000 0.0000 0.0000 3.1340 0.0000 43.9204
#
#
#
# Elastic Compliance Matrix: (Units=1/GPa)
#
#
# Indices 1 2 3 4 5 6 
#
# 1 0.009782 -0.004538 -0.001125 0.000000 -0.003325 0.000000
# 2 -0.004538 0.009330 -0.002005 0.000000 0.000737 0.000000
# 3 -0.001125 -0.002005 0.012579 0.000000 0.005032 0.000000
# 4 0.000000 0.000000 0.000000 0.032329 0.000000 -0.002307
# 5 -0.003325 0.000737 0.005032 0.000000 0.022221 0.000000
# 6 0.000000 0.000000 0.000000 -0.002307 0.000000 0.022933
#
#
# Mechanical properties :
#
#
# Convention : Reuss Voigt Hill
#
# Bulk Modulus (GPa) = 61.14139 69.81491 65.47815
# Shear Modulus (GPa) = 38.47288 42.98116 40.72702
#
# Velocity S-wave (km/s) = 3.83609 4.05463 3.94687
# Velocity P-wave (km/s) = 6.55797 6.97307 6.76870
#
# Compressibility (1/GPa) = 0.01635553
#
# Stress axis : x y z
#
# Youngs Moduli (GPa) = 102.22467 107.17798 79.49991
#
# Poissons Ratio (x) = 0.48638 0.08945
# Poissons Ratio (y) = 0.46390 0.15937
# Poissons Ratio (z) = 0.11502 0.21486
#
# Static dielectric constant tensor:
#      x y z
#    x 2.156130 0.000000 -0.024740 
#    y 0.000000 2.085140 0.000000 
#    z -0.024740 0.000000 2.135050 
# 
# From -- ./inp_files/110143.got.cif
#   From: 2010.05.17/outbox.cif.g08.bks.cpg/sg15_56_cif.got.tgz:110143.got - 2010.06.03 18:47:42.
