data_PCOD9297128
_publ_section_title
;
Structure prediction by ZEFSAII (Michael W. Deem and Ramdas Pophale) SiO2 
 PCOD9297128
Probable space group: C 2/C
;
_chemical_formula_sum "Si O2"
_cell_formula_units_Z 48
_cell_length_a 20.120079
_cell_length_b 10.492616
_cell_length_c 25.842342
_cell_angle_alpha 90.000000
_cell_angle_beta 158.710972
_cell_angle_gamma 90.000000
_cell_volume 1980.792822
_symmetry_space_group_name_H-M "C 2/C"
_symmetry_group_IT_number 15
_symmetry_cell_setting 'monoclinic'
loop_
_space_group_symop_operation_xyz
x,y,z
-x,y,1/2-z
-x,-y,-z
x,-y,1/2+z
1/2+x,1/2+y,z
1/2-x,1/2+y,1/2-z
1/2-x,1/2-y,-z
1/2+x,1/2-y,1/2+z
loop_
_atom_site_type_symbol
_atom_site_label
_atom_site_fract_x
_atom_site_fract_y
_atom_site_fract_z
Si Si1 0.502546 0.244306 0.151409
Si Si2 0.576459 0.723438 0.026618
Si Si3 0.514518 0.480118 0.819624
Si Si4 0.710842 0.875376 0.266151
Si Si5 0.715651 0.906236 0.684040
Si Si6 0.584564 0.975017 0.368208
O O1 0.439546 0.283867 0.047978
O O2 0.483836 0.366753 0.173823
O O3 0.405163 0.118823 0.101723
O O4 0.716433 0.206539 0.308061
O O5 0.421516 0.632694 0.938969
O O6 0.492519 0.862471 0.978107
O O7 0.500000 0.440372 0.750000
O O8 0.336829 0.441132 0.722899
O O9 0.706468 0.427581 0.980809
O O10 0.693308 0.730189 0.232605
O O11 0.712820 0.984038 0.224371
O O12 0.555033 0.902135 0.194996
O O13 0.500000 0.977206 0.250000
#
# Coordination Sequence:
#
# PCOD9297128 Si02
#       6
#     8   8   8   8   8   8
#     4  12  22  45  70 105 142 181 237 294 340 414
#     4  10  24  41  76 101 134 179 245 288 344 395
#     4  12  26  43  69 103 148 187 228 285 357 417
#     4  10  23  48  73 106 138 186 235 292 344 420
#     4  10  23  48  73 106 138 186 235 292 344 420
#     4  12  26  43  69 103 148 187 228 285 357 417
#
# _framework density 24.23272
#
# number of rings (size 3 to 8) (size 9 to 14) (size 15 to 20)
#    1.000    0.000    3.333    3.000    0.000    5.333 
#    0.000    0.000    0.000    0.000    0.000    0.000 
#    0.000    0.000    0.000    0.000    0.000    0.000 
#
# Total GULP energy -134258.844377 kJ/mol
# GULP energy per Si atom -5594.118516 kJ/mol
# Density = 2.417756 g / cm^3
# Si number density = 24.232720 Si / 1000 Ang^3
#
#
#
# Elastic Constant Matrix: (Units=GPa)
#
#
# Indices 1 2 3 4 5 6 
#
# 1 121.2122 1.1088 20.3791 0.0014 16.6550 -0.0005
# 2 1.1088 69.8106 -1.1269 0.0024 3.1345 0.0019
# 3 20.3791 -1.1269 82.5631 0.0013 15.4034 0.0081
# 4 0.0014 0.0024 0.0013 38.0376 0.0022 6.9148
# 5 16.6550 3.1345 15.4034 0.0022 33.8264 -0.0012
# 6 -0.0005 0.0019 0.0081 6.9148 -0.0012 3.7243
#
#
#
# Elastic Compliance Matrix: (Units=1/GPa)
#
#
# Indices 1 2 3 4 5 6 
#
# 1 0.009022 0.000000 -0.001528 -0.000001 -0.003746 0.000005
# 2 0.000000 0.014402 0.000487 0.000001 -0.001556 -0.000011
# 3 -0.001528 0.000487 0.013512 0.000008 -0.005446 -0.000047
# 4 -0.000001 0.000001 0.000008 0.039684 -0.000009 -0.073679
# 5 -0.003746 -0.001556 -0.005446 -0.000009 0.034031 0.000040
# 6 0.000005 -0.000011 -0.000047 -0.073679 0.000040 0.405302
#
#
# Mechanical properties :
#
#
# Convention : Reuss Voigt Hill
#
# Bulk Modulus (GPa) = 28.69110 34.92308 31.80709
# Shear Modulus (GPa) = 9.44017 31.99934 20.71975
#
# Velocity S-wave (km/s) = 1.97588 3.63781 2.92727
# Velocity P-wave (km/s) = 4.13170 5.66460 4.95776
#
# Compressibility (1/GPa) = 0.03485402
#
# Stress axis : x y z
#
# Youngs Moduli (GPa) = 110.84485 69.43381 74.00998
#
# Poissons Ratio (x) = -0.00002 0.11308
# Poissons Ratio (y) = -0.00003 -0.03603
# Poissons Ratio (z) = 0.16936 -0.03381
#
# Static dielectric constant tensor:
#      x y z
#    x 1.949770 0.000000 -0.042460 
#    y 0.000000 1.996030 0.000000 
#    z -0.042460 0.000000 1.979210 
# 
# From -- ./inp_files/317820.got.cif
#   From: 2010.05.17/outbox.cif.g08.bks.cpg/sg15_159_cif.got.tgz:317820.got - 2010.06.03 18:47:42.
