data_PCOD9297425
_publ_section_title
;
Structure prediction by ZEFSAII (Michael W. Deem and Ramdas Pophale) SiO2 
 PCOD9297425
Probable space group: C 2/C
;
_chemical_formula_sum "Si O2"
_cell_formula_units_Z 44
_cell_length_a 22.796844
_cell_length_b 6.815219
_cell_length_c 23.076383
_cell_angle_alpha 90.000000
_cell_angle_beta 143.701442
_cell_angle_gamma 90.000000
_cell_volume 2122.456394
_symmetry_space_group_name_H-M "C 2/C"
_symmetry_group_IT_number 15
_symmetry_cell_setting 'monoclinic'
loop_
_space_group_symop_operation_xyz
x,y,z
-x,y,1/2-z
-x,-y,-z
x,-y,1/2+z
1/2+x,1/2+y,z
1/2-x,1/2+y,1/2-z
1/2-x,1/2-y,-z
1/2+x,1/2-y,1/2+z
loop_
_atom_site_type_symbol
_atom_site_label
_atom_site_fract_x
_atom_site_fract_y
_atom_site_fract_z
Si Si1 0.752481 0.022096 0.170586
Si Si2 0.882869 0.666347 0.841011
Si Si3 0.255037 0.949399 0.969029
Si Si4 0.915174 0.240512 0.636590
Si Si5 0.065759 0.249905 0.658401
Si Si6 0.500000 0.500000 0.500000
O O1 0.798647 0.211885 0.239268
O O2 0.723555 0.072731 0.082152
O O3 0.666296 0.929282 0.140920
O O4 0.837887 0.854517 0.237922
O O5 0.921938 0.484465 0.834555
O O6 0.962016 0.825890 0.924392
O O7 0.150280 0.060348 0.892954
O O8 0.250000 0.750000 0.000000
O O9 0.339171 0.084487 0.064422
O O10 0.000000 0.292196 0.750000
O O11 0.970703 0.194137 0.620897
O O12 0.050371 0.165469 0.582296
#
# Coordination Sequence:
#
# PCOD9297425 Si02
#       6
#     8   8   8   8   8   4
#     4  11  23  42  67 104 136 182 233 286 358 416
#     4  11  23  41  70 101 139 180 228 292 350 418
#     4  11  27  45  72 104 139 185 239 297 348 425
#     4  11  25  47  70  99 141 186 232 290 354 415
#     4  11  23  43  68  99 140 181 225 288 348 429
#     4  10  24  40  66 100 130 176 224 278 352 410
#
# _framework density 20.730696999999999
#
# number of rings (size 3 to 8) (size 9 to 14) (size 15 to 20)
#    0.000    1.091    3.636    1.636    2.545    5.091 
#    0.000    0.000    0.000    0.000    0.000    0.000 
#    0.000    0.000    0.000    0.000    0.000    0.000 
#
# Total GULP energy -122511.854086 kJ/mol
# GULP energy per Si atom -5568.720640 kJ/mol
# Density = 2.068351 g / cm^3
# Si number density = 20.730697 Si / 1000 Ang^3
#
#
#
# Elastic Constant Matrix: (Units=GPa)
#
#
# Indices 1 2 3 4 5 6 
#
# 1 80.3400 24.0957 15.2238 0.0000 -2.9223 0.0000
# 2 24.0957 96.0566 32.4069 0.0003 -28.7332 0.0001
# 3 15.2238 32.4069 95.8396 -0.0001 -24.4637 -0.0002
# 4 0.0000 0.0003 -0.0001 11.0791 0.0000 -5.8591
# 5 -2.9223 -28.7332 -24.4637 0.0000 28.7597 0.0001
# 6 0.0000 0.0001 -0.0002 -5.8591 0.0001 19.9983
#
#
#
# Elastic Compliance Matrix: (Units=1/GPa)
#
#
# Indices 1 2 3 4 5 6 
#
# 1 0.013894 -0.004142 -0.001919 0.000000 -0.004359 0.000000
# 2 -0.004142 0.016271 -0.001024 -0.000001 0.014964 0.000000
# 3 -0.001919 -0.001024 0.013763 0.000000 0.010488 0.000000
# 4 0.000000 -0.000001 0.000000 0.106809 -0.000001 0.031293
# 5 -0.004359 0.014964 0.010488 -0.000001 0.058200 0.000000
# 6 0.000000 0.000000 0.000000 0.031293 0.000000 0.059172
#
#
# Mechanical properties :
#
#
# Convention : Reuss Voigt Hill
#
# Bulk Modulus (GPa) = 33.60469 46.18768 39.89619
# Shear Modulus (GPa) = 17.11162 25.33474 21.22318
#
# Velocity S-wave (km/s) = 2.87614 3.49963 3.20309
# Velocity P-wave (km/s) = 5.22253 6.21756 5.74164
#
# Compressibility (1/GPa) = 0.02975775
#
# Stress axis : x y z
#
# Youngs Moduli (GPa) = 71.97144 61.45837 72.66103
#
# Poissons Ratio (x) = 0.25454 0.13945
# Poissons Ratio (y) = 0.29808 0.07443
# Poissons Ratio (z) = 0.13812 0.06295
#
# Static dielectric constant tensor:
#      x y z
#    x 1.762790 0.000000 0.016480 
#    y 0.000000 1.715480 0.000000 
#    z 0.016480 0.000000 1.734540 
# 
# From -- ./inp_files/281271.got.cif
#   From: 2010.05.17/outbox.cif.g08.bks.cpg/sg15_141_cif.got.tgz:281271.got - 2010.06.03 18:47:42.
