data_PCOD9297567
_publ_section_title
;
Structure prediction by ZEFSAII (Michael W. Deem and Ramdas Pophale) SiO2 
 PCOD9297567
Probable space group: C 2/C
;
_chemical_formula_sum "Si O2"
_cell_formula_units_Z 56
_cell_length_a 25.737896
_cell_length_b 11.840499
_cell_length_c 20.692392
_cell_angle_alpha 90.000000
_cell_angle_beta 157.347895
_cell_angle_gamma 90.000000
_cell_volume 2428.658394
_symmetry_space_group_name_H-M "C 2/C"
_symmetry_group_IT_number 15
_symmetry_cell_setting 'monoclinic'
loop_
_space_group_symop_operation_xyz
x,y,z
-x,y,1/2-z
-x,-y,-z
x,-y,1/2+z
1/2+x,1/2+y,z
1/2-x,1/2+y,1/2-z
1/2-x,1/2-y,-z
1/2+x,1/2-y,1/2+z
loop_
_atom_site_type_symbol
_atom_site_label
_atom_site_fract_x
_atom_site_fract_y
_atom_site_fract_z
Si Si1 0.780928 0.116055 0.290069
Si Si2 0.872032 0.005399 0.265835
Si Si3 0.024406 0.764375 0.105399
Si Si4 0.249767 0.710846 0.074055
Si Si5 0.408533 0.579994 0.083026
Si Si6 0.981454 0.693324 0.551042
Si Si7 0.633069 0.970874 0.740392
O O1 0.859660 0.045473 0.326106
O O2 0.687778 0.040378 0.229405
O O3 0.875911 0.185732 0.448166
O O4 0.681667 0.197788 0.136093
O O5 0.755990 0.076248 0.094194
O O6 0.011132 0.040210 0.388439
O O7 0.874835 0.869727 0.269359
O O8 0.078121 0.650518 0.199031
O O9 0.001606 0.730514 0.004282
O O10 0.392751 0.747753 0.269019
O O11 0.250000 0.750000 0.000000
O O12 0.126789 0.786552 0.959672
O O13 0.500000 0.557894 0.250000
O O14 0.265878 0.517746 0.927972
O O15 0.016551 0.563285 0.607462
#
# Coordination Sequence:
#
# PCOD9297567 Si02
#       7
#     8   8   8   8   8   8   8
#     4  11  22  38  65  96 135 166 220 276 349 412
#     4  12  25  40  67 105 128 181 225 284 354 410
#     4  11  22  39  63 100 137 170 220 279 345 411
#     4  11  24  42  67  95 129 175 228 284 336 415
#     4  11  24  45  71  91 135 181 236 284 347 412
#     4  10  24  41  65 101 136 180 224 281 347 405
#     4  10  24  43  67 101 136 185 226 283 346 415
#
# _framework density 23.057998999999999
#
# number of rings (size 3 to 8) (size 9 to 14) (size 15 to 20)
#    0.000    1.143    4.286    2.143    2.000    4.571 
#    0.000    0.714    0.000    0.857    0.000    0.000 
#    0.000    0.000    0.000    0.000    0.000    0.000 
#
# Total GULP energy -156136.917409 kJ/mol
# GULP energy per Si atom -5576.318479 kJ/mol
# Density = 2.300552 g / cm^3
# Si number density = 23.057999 Si / 1000 Ang^3
#
#
#
# Elastic Constant Matrix: (Units=GPa)
#
#
# Indices 1 2 3 4 5 6 
#
# 1 36.1447 -13.3225 5.0958 0.0000 4.5585 0.0000
# 2 -13.3225 124.0718 22.0901 0.0000 -1.2660 0.0000
# 3 5.0958 22.0901 123.1433 0.0001 -10.1688 0.0001
# 4 0.0000 0.0000 0.0001 39.5044 0.0001 1.8689
# 5 4.5585 -1.2660 -10.1688 0.0001 40.1289 0.0000
# 6 0.0000 0.0000 0.0001 1.8689 0.0000 19.4512
#
#
#
# Elastic Compliance Matrix: (Units=1/GPa)
#
#
# Indices 1 2 3 4 5 6 
#
# 1 0.029763 0.003546 -0.002183 0.000000 -0.003822 0.000000
# 2 0.003546 0.008749 -0.001763 0.000000 -0.000574 0.000000
# 3 -0.002183 -0.001763 0.008726 0.000000 0.002404 0.000000
# 4 0.000000 0.000000 0.000000 0.025429 0.000000 -0.002443
# 5 -0.003822 -0.000574 0.002404 0.000000 0.025945 0.000000
# 6 0.000000 0.000000 0.000000 -0.002443 0.000000 0.051646
#
#
# Mechanical properties :
#
#
# Convention : Reuss Voigt Hill
#
# Bulk Modulus (GPa) = 21.53524 34.56516 28.05020
# Shear Modulus (GPa) = 30.02313 37.78332 33.90323
#
# Velocity S-wave (km/s) = 3.61234 4.05238 3.83867
# Velocity P-wave (km/s) = 5.17286 6.07608 5.64257
#
# Compressibility (1/GPa) = 0.04643551
#
# Stress axis : x y z
#
# Youngs Moduli (GPa) = 33.59837 114.30275 114.60283
#
# Poissons Ratio (x) = -0.40528 0.25021
# Poissons Ratio (y) = -0.11913 0.20210
# Poissons Ratio (z) = 0.07336 0.20157
#
# Static dielectric constant tensor:
#      x y z
#    x 2.072700 0.000000 0.033920 
#    y 0.000000 2.061530 0.000000 
#    z 0.033920 0.000000 1.906380 
# 
# From -- ./inp_files/284637.got.cif
#   From: 2010.05.17/outbox.cif.g08.bks.cpg/sg15_143_cif.got.tgz:284637.got - 2010.06.03 18:47:42.
