data_PCOD9297891
_publ_section_title
;
Structure prediction by ZEFSAII (Michael W. Deem and Ramdas Pophale) SiO2 
 PCOD9297891
Probable space group: C 2/C
;
_chemical_formula_sum "Si O2"
_cell_formula_units_Z 28
_cell_length_a 5.296793
_cell_length_b 29.372588
_cell_length_c 8.299777
_cell_angle_alpha 90.000000
_cell_angle_beta 118.556500
_cell_angle_gamma 90.000000
_cell_volume 1134.193992
_symmetry_space_group_name_H-M "C 2/C"
_symmetry_group_IT_number 15
_symmetry_cell_setting 'monoclinic'
loop_
_space_group_symop_operation_xyz
x,y,z
-x,y,1/2-z
-x,-y,-z
x,-y,1/2+z
1/2+x,1/2+y,z
1/2-x,1/2+y,1/2-z
1/2-x,1/2-y,-z
1/2+x,1/2-y,1/2+z
loop_
_atom_site_type_symbol
_atom_site_label
_atom_site_fract_x
_atom_site_fract_y
_atom_site_fract_z
Si Si1 0.563491 0.115208 0.580592
Si Si2 0.215900 0.470773 0.958677
Si Si3 0.500000 0.353612 0.750000
Si Si4 0.741653 0.697724 0.046296
O O1 0.500000 0.108005 0.750000
O O2 0.766273 0.076537 0.565944
O O3 0.704827 0.164225 0.586091
O O4 0.270662 0.115209 0.382409
O O5 0.000000 0.459896 0.750000
O O6 0.500000 0.500000 0.000000
O O7 0.000000 0.500000 0.000000
O O8 0.504061 0.320783 0.909921
O O9 0.000000 0.690636 0.250000
O O10 0.750000 0.750000 0.000000
#
# Coordination Sequence:
#
# PCOD9297891 Si02
#       4
#     8   8   4   8
#     4  11  27  48  78 110 150 206 263 324 398 476
#     4  12  28  52  81 116 157 203 267 329 403 482
#     4  10  24  46  74 106 162 204 260 324 392 472
#     4  10  24  42  70 109 149 203 257 323 390 467
#
# _framework density 24.687135000000001
#
# number of rings (size 3 to 8) (size 9 to 14) (size 15 to 20)
#    0.000    1.143    0.000    4.286   14.000    2.286 
#    0.000    0.000    0.000    0.000    0.000    0.000 
#    0.000    0.000    0.000    0.000    0.000    0.000 
#
# Total GULP energy -78217.921402 kJ/mol
# GULP energy per Si atom -5586.994386 kJ/mol
# Density = 2.463095 g / cm^3
# Si number density = 24.687135 Si / 1000 Ang^3
#
#
#
# Elastic Constant Matrix: (Units=GPa)
#
#
# Indices 1 2 3 4 5 6 
#
# 1 150.6919 84.8596 57.4751 0.0000 -13.1762 0.0000
# 2 84.8596 196.9963 52.0248 0.0000 -21.4890 0.0000
# 3 57.4751 52.0248 161.0973 0.0000 -4.1857 0.0000
# 4 0.0000 0.0000 0.0000 30.9427 0.0000 -8.0459
# 5 -13.1762 -21.4890 -4.1857 0.0000 58.1444 0.0000
# 6 0.0000 0.0000 0.0000 -8.0459 0.0000 44.1870
#
#
#
# Elastic Compliance Matrix: (Units=1/GPa)
#
#
# Indices 1 2 3 4 5 6 
#
# 1 0.009482 -0.003407 -0.002264 0.000000 0.000726 0.000000
# 2 -0.003407 0.006998 -0.000999 0.000000 0.001742 0.000000
# 3 -0.002264 -0.000999 0.007328 0.000000 -0.000355 0.000000
# 4 0.000000 0.000000 0.000000 0.033924 0.000000 0.006177
# 5 0.000726 0.001742 -0.000355 0.000000 0.017982 0.000000
# 6 0.000000 0.000000 0.000000 0.006177 0.000000 0.023756
#
#
# Mechanical properties :
#
#
# Convention : Reuss Voigt Hill
#
# Bulk Modulus (GPa) = 95.52768 99.72272 97.62520
# Shear Modulus (GPa) = 42.99273 47.61654 45.30464
#
# Velocity S-wave (km/s) = 4.17766 4.39657 4.28851
# Velocity P-wave (km/s) = 7.87717 8.13975 8.00953
#
# Compressibility (1/GPa) = 0.01046817
#
# Stress axis : x y z
#
# Youngs Moduli (GPa) = 105.46600 142.90007 136.45539
#
# Poissons Ratio (x) = 0.48692 0.30888
# Poissons Ratio (y) = 0.35936 0.13631
# Poissons Ratio (z) = 0.23873 0.14275
#
# Static dielectric constant tensor:
#      x y z
#    x 2.242060 0.000000 0.070820 
#    y 0.000000 2.018990 0.000000 
#    z 0.070820 0.000000 1.879560 
# 
# From -- ./inp_files/20043.got.cif
#   From: 2010.05.17/outbox.cif.g08.bks.cpg/sg15_11_cif.got.tgz:20043.got - 2010.06.03 18:47:42.
