data_PCOD9297230
_publ_section_title
;
Structure prediction by ZEFSAII (Michael W. Deem and Ramdas Pophale) SiO2 
 PCOD9297230
Probable space group: C 2/C
;
_chemical_formula_sum "Si O2"
_cell_formula_units_Z 48
_cell_length_a 20.660241
_cell_length_b 7.234195
_cell_length_c 17.704998
_cell_angle_alpha 90.000000
_cell_angle_beta 129.336286
_cell_angle_gamma 90.000000
_cell_volume 2046.668489
_symmetry_space_group_name_H-M "C 2/C"
_symmetry_group_IT_number 15
_symmetry_cell_setting 'monoclinic'
loop_
_space_group_symop_operation_xyz
x,y,z
-x,y,1/2-z
-x,-y,-z
x,-y,1/2+z
1/2+x,1/2+y,z
1/2-x,1/2+y,1/2-z
1/2-x,1/2-y,-z
1/2+x,1/2-y,1/2+z
loop_
_atom_site_type_symbol
_atom_site_label
_atom_site_fract_x
_atom_site_fract_y
_atom_site_fract_z
Si Si1 0.835879 0.909613 0.116412
Si Si2 0.415982 0.699125 0.813883
Si Si3 0.690962 0.386240 0.134477
Si Si4 0.353415 0.996202 0.678455
Si Si5 0.905883 0.809446 0.006834
Si Si6 0.156420 0.416268 0.491820
O O1 0.900044 0.941610 0.232954
O O2 0.808925 0.695392 0.114928
O O3 0.879929 0.895823 0.068902
O O4 0.755861 0.039247 0.058158
O O5 0.332233 0.696661 0.801983
O O6 0.426039 0.899729 0.780862
O O7 0.495022 0.663333 0.924107
O O8 0.787502 0.402307 0.182777
O O9 0.646979 0.585450 0.095160
O O10 0.648456 0.257788 0.039575
O O11 0.375724 0.101170 0.618144
O O12 0.883779 0.594173 0.997817
#
# Coordination Sequence:
#
# PCOD9297230 Si02
#       6
#     8   8   8   8   8   8
#     4   9  19  38  63  87 112 172 203 239 305 356
#     4  10  24  36  65  92 125 165 192 263 316 350
#     4  12  23  38  65  96 121 158 211 253 307 368
#     4   9  20  40  60  90 117 163 209 245 304 365
#     4  11  20  43  63  85 131 162 204 243 311 376
#     4  11  21  39  69  85 121 169 207 250 301 371
#
# _framework density 23.452746999999999
#
# number of rings (size 3 to 8) (size 9 to 14) (size 15 to 20)
#    1.000    0.667    3.333    2.500    2.333    0.667 
#    0.000    1.667    3.667    0.000    0.000    0.000 
#    0.000    0.000    0.000    0.000    0.000    0.000 
#
# Total GULP energy -133988.063056 kJ/mol
# GULP energy per Si atom -5582.835961 kJ/mol
# Density = 2.339937 g / cm^3
# Si number density = 23.452747 Si / 1000 Ang^3
#
#
#
# Elastic Constant Matrix: (Units=GPa)
#
#
# Indices 1 2 3 4 5 6 
#
# 1 52.2431 8.8765 -8.7327 0.0000 -8.7461 0.0000
# 2 8.8765 48.2868 7.4525 0.0000 -5.9861 0.0000
# 3 -8.7327 7.4525 37.9843 0.0000 2.7684 0.0000
# 4 0.0000 0.0000 0.0000 22.2005 0.0000 -5.0646
# 5 -8.7461 -5.9861 2.7684 0.0000 28.3081 0.0000
# 6 0.0000 0.0000 0.0000 -5.0646 0.0000 21.2182
#
#
#
# Elastic Compliance Matrix: (Units=1/GPa)
#
#
# Indices 1 2 3 4 5 6 
#
# 1 0.021634 -0.004157 0.005405 0.000000 0.005277 0.000000
# 2 -0.004157 0.022870 -0.005743 0.000000 0.004113 0.000000
# 3 0.005405 -0.005743 0.028869 0.000000 -0.002368 0.000000
# 4 0.000000 0.000000 0.000000 0.047638 0.000000 0.011371
# 5 0.005277 0.004113 -0.002368 0.000000 0.038057 0.000000
# 6 0.000000 0.000000 0.000000 0.011371 0.000000 0.049843
#
#
# Mechanical properties :
#
#
# Convention : Reuss Voigt Hill
#
# Bulk Modulus (GPa) = 15.53197 17.07853 16.30525
# Shear Modulus (GPa) = 20.88883 23.07322 21.98103
#
# Velocity S-wave (km/s) = 2.98766 3.13999 3.06477
# Velocity P-wave (km/s) = 4.30564 4.52150 4.41489
#
# Compressibility (1/GPa) = 0.06438334
#
# Stress axis : x y z
#
# Youngs Moduli (GPa) = 46.22274 43.72536 34.63978
#
# Poissons Ratio (x) = 0.18177 -0.18722
# Poissons Ratio (y) = 0.19215 0.19892
# Poissons Ratio (z) = -0.24983 0.25110
#
# Static dielectric constant tensor:
#      x y z
#    x 1.855760 0.000000 -0.012420 
#    y 0.000000 1.915940 0.000000 
#    z -0.012420 0.000000 1.936560 
# 
# From -- ./inp_files/251692.got.cif
#   From: 2010.05.17/outbox.cif.g08.bks.cpg/sg15_126_cif.got.tgz:251692.got - 2010.06.03 18:47:42.
