data_PCOD9297840
_publ_section_title
;
Structure prediction by ZEFSAII (Michael W. Deem and Ramdas Pophale) SiO2 
 PCOD9297840
Probable space group: C 2/C
;
_chemical_formula_sum "Si O2"
_cell_formula_units_Z 60
_cell_length_a 27.032175
_cell_length_b 19.582323
_cell_length_c 15.659422
_cell_angle_alpha 90.000000
_cell_angle_beta 19.288778
_cell_angle_gamma 90.000000
_cell_volume 2738.219954
_symmetry_space_group_name_H-M "C 2/C"
_symmetry_group_IT_number 15
_symmetry_cell_setting 'monoclinic'
loop_
_space_group_symop_operation_xyz
x,y,z
-x,y,1/2-z
-x,-y,-z
x,-y,1/2+z
1/2+x,1/2+y,z
1/2-x,1/2+y,1/2-z
1/2-x,1/2-y,-z
1/2+x,1/2-y,1/2+z
loop_
_atom_site_type_symbol
_atom_site_label
_atom_site_fract_x
_atom_site_fract_y
_atom_site_fract_z
Si Si1 0.435978 0.190148 0.201663
Si Si2 0.938406 0.436517 0.208657
Si Si3 0.424454 0.356612 0.962598
Si Si4 0.500000 0.828088 0.250000
Si Si5 0.263915 0.763798 0.832410
Si Si6 0.129061 0.431284 0.381106
Si Si7 0.166101 0.191810 0.320703
Si Si8 0.608114 0.562906 0.303661
O O1 0.343180 0.182848 0.266196
O O2 0.336855 0.220542 0.438544
O O3 0.511316 0.122106 0.111175
O O4 0.560481 0.245177 0.970504
O O5 0.999777 0.374192 0.164842
O O6 0.889487 0.421094 0.191071
O O7 0.780673 0.459205 0.508765
O O8 0.067366 0.493596 0.999702
O O9 0.363991 0.291807 0.116637
O O10 0.287962 0.407367 0.159027
O O11 0.500000 0.335910 0.750000
O O12 0.542723 0.397794 0.827566
O O13 0.335763 0.795247 0.512833
O O14 0.171633 0.805305 0.913450
O O15 0.110257 0.120920 0.373404
O O16 0.500000 0.500000 0.500000
#
# Coordination Sequence:
#
# PCOD9297840 Si02
#       8
#     8   8   8   4   8   8   8   8
#     4  11  24  44  70 102 142 182 230 291 358 429
#     4  10  24  46  66 100 135 183 241 278 351 421
#     4  12  25  45  69 104 139 183 234 292 358 424
#     4  10  24  42  68  96 136 186 234 288 344 422
#     4  11  25  43  68 102 140 181 231 288 357 421
#     4  11  24  42  70  97 138 180 229 293 342 423
#     4  11  23  44  66 102 137 177 236 289 349 430
#     4  11  26  47  71 100 139 188 237 295 355 425
#
# _framework density 21.912046
#
# number of rings (size 3 to 8) (size 9 to 14) (size 15 to 20)
#    0.000    1.067    4.000    1.200    6.533    0.000 
#    0.000    7.333    0.000    0.000    0.000    0.000 
#    0.000    0.000    0.000    0.000    0.000    0.000 
#
# Total GULP energy -167645.656941 kJ/mol
# GULP energy per Si atom -5588.188565 kJ/mol
# Density = 2.186217 g / cm^3
# Si number density = 21.912046 Si / 1000 Ang^3
#
#
#
# Elastic Constant Matrix: (Units=GPa)
#
#
# Indices 1 2 3 4 5 6 
#
# 1 114.8847 14.5663 7.7866 -0.0009 5.8359 0.0005
# 2 14.5663 39.7251 5.0956 -0.0019 9.7796 0.0008
# 3 7.7866 5.0956 48.9617 -0.0031 11.6105 0.0010
# 4 -0.0009 -0.0019 -0.0031 31.6517 0.0013 -3.0453
# 5 5.8359 9.7796 11.6105 0.0013 33.8800 -0.0007
# 6 0.0005 0.0008 0.0010 -3.0453 -0.0007 23.7529
#
#
#
# Elastic Compliance Matrix: (Units=1/GPa)
#
#
# Indices 1 2 3 4 5 6 
#
# 1 0.009192 -0.003159 -0.001060 0.000000 -0.000308 0.000000
# 2 -0.003159 0.028234 -0.000688 0.000002 -0.007370 -0.000001
# 3 -0.001060 -0.000688 0.022394 0.000002 -0.007293 -0.000001
# 4 0.000000 0.000002 0.000002 0.031989 -0.000003 0.004101
# 5 -0.000308 -0.007370 -0.007293 -0.000003 0.034196 0.000001
# 6 0.000000 -0.000001 -0.000001 0.004101 0.000001 0.042626
#
#
# Mechanical properties :
#
#
# Convention : Reuss Voigt Hill
#
# Bulk Modulus (GPa) = 19.99771 28.71869 24.35820
# Shear Modulus (GPa) = 25.62616 29.59844 27.61230
#
# Velocity S-wave (km/s) = 3.42351 3.67929 3.55370
# Velocity P-wave (km/s) = 4.97729 5.58430 5.28950
#
# Compressibility (1/GPa) = 0.05000572
#
# Stress axis : x y z
#
# Youngs Moduli (GPa) = 108.78562 35.41841 44.65530
#
# Poissons Ratio (x) = 0.11188 0.04734
# Poissons Ratio (y) = 0.34363 0.03074
# Poissons Ratio (z) = 0.11532 0.02438
#
# Static dielectric constant tensor:
#      x y z
#    x 1.821410 0.000000 -0.023710 
#    y 0.000000 1.807760 0.000000 
#    z -0.023710 0.000000 1.841420 
# 
# From -- ./inp_files/179088.got.cif
#   From: 2010.05.17/outbox.cif.g08.bks.cpg/sg15_90_cif.got.tgz:179088.got - 2010.06.03 18:47:42.
