data_PCOD9297785
_publ_section_title
;
Structure prediction by ZEFSAII (Michael W. Deem and Ramdas Pophale) SiO2 
 PCOD9297785
Probable space group: C 2/C
;
_chemical_formula_sum "Si O2"
_cell_formula_units_Z 40
_cell_length_a 13.150566
_cell_length_b 12.060387
_cell_length_c 17.447035
_cell_angle_alpha 90.000000
_cell_angle_beta 38.797380
_cell_angle_gamma 90.000000
_cell_volume 1733.786642
_symmetry_space_group_name_H-M "C 2/C"
_symmetry_group_IT_number 15
_symmetry_cell_setting 'monoclinic'
loop_
_space_group_symop_operation_xyz
x,y,z
-x,y,1/2-z
-x,-y,-z
x,-y,1/2+z
1/2+x,1/2+y,z
1/2-x,1/2+y,1/2-z
1/2-x,1/2-y,-z
1/2+x,1/2-y,1/2+z
loop_
_atom_site_type_symbol
_atom_site_label
_atom_site_fract_x
_atom_site_fract_y
_atom_site_fract_z
Si Si1 0.319171 0.180311 0.887607
Si Si2 0.592777 0.994019 0.558421
Si Si3 0.690969 0.107122 0.853463
Si Si4 0.942471 0.270352 0.697692
Si Si5 0.424652 0.598593 0.592533
O O1 0.500000 0.211942 0.750000
O O2 0.190908 0.172687 0.894261
O O3 0.333890 0.055712 0.912601
O O4 0.250000 0.250000 0.000000
O O5 0.710227 0.940172 0.426876
O O6 0.479822 0.894157 0.652179
O O7 0.487627 0.084306 0.572827
O O8 0.810347 0.044645 0.724975
O O9 0.754389 0.232270 0.808081
O O10 0.000000 0.250472 0.750000
O O11 0.023435 0.186607 0.587346
O O12 0.500000 0.500000 0.500000
#
# Coordination Sequence:
#
# PCOD9297785 Si02
#       5
#     8   8   8   8   8
#     4  12  27  49  73 108 146 200 248 304 372 445
#     4  11  23  46  73  99 144 189 238 312 362 444
#     4   9  24  42  68 102 137 181 243 285 376 427
#     4  10  24  42  67 102 137 183 237 293 374 429
#     4  10  25  46  68 106 141 183 245 300 367 440
#
# _framework density 23.070889999999999
#
# number of rings (size 3 to 8) (size 9 to 14) (size 15 to 20)
#    1.200    0.400    2.000    0.600    8.400    4.000 
#    0.000    0.000    0.000    0.000    0.000    0.000 
#    0.000    0.000    0.000    0.000    0.000    0.000 
#
# Total GULP energy -111542.894124 kJ/mol
# GULP energy per Si atom -5577.144706 kJ/mol
# Density = 2.301838 g / cm^3
# Si number density = 23.070890 Si / 1000 Ang^3
#
#
#
# Elastic Constant Matrix: (Units=GPa)
#
#
# Indices 1 2 3 4 5 6 
#
# 1 103.2009 43.2299 35.3999 -0.0001 33.0031 0.0000
# 2 43.2299 118.4182 53.3113 -0.0001 8.1903 0.0001
# 3 35.3999 53.3113 143.1995 -0.0003 24.9149 0.0002
# 4 -0.0001 -0.0001 -0.0003 25.7683 0.0002 -12.4079
# 5 33.0031 8.1903 24.9149 0.0002 26.6302 -0.0001
# 6 0.0000 0.0001 0.0002 -12.4079 -0.0001 25.1838
#
#
#
# Elastic Compliance Matrix: (Units=1/GPa)
#
#
# Indices 1 2 3 4 5 6 
#
# 1 0.019176 -0.006104 0.001601 0.000000 -0.023385 0.000000
# 2 -0.006104 0.012093 -0.004374 0.000000 0.007937 0.000000
# 3 0.001601 -0.004374 0.009946 0.000000 -0.009944 0.000000
# 4 0.000000 0.000000 0.000000 0.050878 -0.000001 0.025067
# 5 -0.023385 0.007937 -0.009944 -0.000001 0.073395 0.000000
# 6 0.000000 0.000000 0.000000 0.025067 0.000000 0.052058
#
#
# Mechanical properties :
#
#
# Convention : Reuss Voigt Hill
#
# Bulk Modulus (GPa) = 42.62425 69.85566 56.23995
# Shear Modulus (GPa) = 20.56586 31.04163 25.80375
#
# Velocity S-wave (km/s) = 2.98891 3.67207 3.34796
# Velocity P-wave (km/s) = 5.51605 6.95149 6.27495
#
# Compressibility (1/GPa) = 0.02346082
#
# Stress axis : x y z
#
# Youngs Moduli (GPa) = 52.14838 82.69164 100.54115
#
# Poissons Ratio (x) = 0.50472 -0.16093
# Poissons Ratio (y) = 0.31829 0.43979
# Poissons Ratio (z) = -0.08347 0.36172
#
# Static dielectric constant tensor:
#      x y z
#    x 1.939920 0.000000 -0.042580 
#    y 0.000000 1.875590 0.000000 
#    z -0.042580 0.000000 1.932800 
# 
# From -- ./inp_files/203798.got.cif
#   From: 2010.05.17/outbox.cif.g08.bks.cpg/sg15_102_cif.got.tgz:203798.got - 2010.06.03 18:47:42.
