data_PCOD9297800
_publ_section_title
;
Structure prediction by ZEFSAII (Michael W. Deem and Ramdas Pophale) SiO2 
 PCOD9297800
Probable space group: C 2/C
;
_chemical_formula_sum "Si O2"
_cell_formula_units_Z 44
_cell_length_a 11.968084
_cell_length_b 19.056475
_cell_length_c 11.955602
_cell_angle_alpha 90.000000
_cell_angle_beta 50.738029
_cell_angle_gamma 90.000000
_cell_volume 2111.182191
_symmetry_space_group_name_H-M "C 2/C"
_symmetry_group_IT_number 15
_symmetry_cell_setting 'monoclinic'
loop_
_space_group_symop_operation_xyz
x,y,z
-x,y,1/2-z
-x,-y,-z
x,-y,1/2+z
1/2+x,1/2+y,z
1/2-x,1/2+y,1/2-z
1/2-x,1/2-y,-z
1/2+x,1/2-y,1/2+z
loop_
_atom_site_type_symbol
_atom_site_label
_atom_site_fract_x
_atom_site_fract_y
_atom_site_fract_z
Si Si1 0.736558 0.934916 0.054336
Si Si2 0.397090 0.205858 0.921472
Si Si3 0.323637 0.387682 0.242093
Si Si4 0.000000 0.447197 0.750000
Si Si5 0.951478 0.336377 0.956392
Si Si6 0.500000 0.493539 0.750000
Si Si7 0.500000 0.730679 0.750000
O O1 0.638738 0.876816 0.057937
O O2 0.783595 0.897984 0.139553
O O3 0.637902 0.003315 0.138051
O O4 0.879001 0.950891 0.892993
O O5 0.500000 0.222191 0.750000
O O6 0.250000 0.250000 0.000000
O O7 0.472517 0.209832 0.994897
O O8 0.177893 0.378144 0.404310
O O9 0.414421 0.455262 0.220772
O O10 0.413244 0.319522 0.221664
O O11 0.964292 0.396676 0.666845
O O12 0.906536 0.282109 0.887397
#
# Coordination Sequence:
#
# PCOD9297800 Si02
#       7
#     8   8   8   4   8   4   4
#     4  12  24  45  67 103 140 181 227 290 351 419
#     4  12  27  47  70 103 139 187 232 287 348 415
#     4  11  22  44  67 100 142 176 233 289 338 414
#     4  11  24  43  75 104 133 186 232 284 359 414
#     4  11  23  44  71 100 137 183 236 282 346 418
#     4  11  26  41  67 104 137 184 228 278 355 408
#     4  10  24  42  68 100 134 186 234 286 340 404
#
# _framework density 20.841403
#
# number of rings (size 3 to 8) (size 9 to 14) (size 15 to 20)
#    0.000    0.727    4.545    2.182    3.818    1.455 
#    0.000    0.000    0.000    0.000    0.000    0.000 
#    0.000    0.000    0.000    0.000    0.000    0.000 
#
# Total GULP energy -122830.938867 kJ/mol
# GULP energy per Si atom -5583.224494 kJ/mol
# Density = 2.079397 g / cm^3
# Si number density = 20.841403 Si / 1000 Ang^3
#
#
#
# Elastic Constant Matrix: (Units=GPa)
#
#
# Indices 1 2 3 4 5 6 
#
# 1 60.1104 11.4001 32.2466 0.0000 3.5320 0.0000
# 2 11.4001 74.8864 48.0201 0.0000 -0.3268 0.0000
# 3 32.2466 48.0201 146.5713 0.0000 -14.8330 0.0000
# 4 0.0000 0.0000 0.0000 22.5383 0.0000 7.7895
# 5 3.5320 -0.3268 -14.8330 0.0000 38.6988 0.0000
# 6 0.0000 0.0000 0.0000 7.7895 0.0000 31.8843
#
#
#
# Elastic Compliance Matrix: (Units=1/GPa)
#
#
# Indices 1 2 3 4 5 6 
#
# 1 0.019315 -0.000002 -0.004606 0.000000 -0.003528 0.000000
# 2 -0.000002 0.017064 -0.005801 0.000000 -0.002079 0.000000
# 3 -0.004606 -0.005801 0.010168 0.000000 0.004269 0.000000
# 4 0.000000 0.000000 0.000000 0.048461 0.000000 -0.011839
# 5 -0.003528 -0.002079 0.004269 0.000000 0.027781 0.000000
# 6 0.000000 0.000000 0.000000 -0.011839 0.000000 0.034256
#
#
# Mechanical properties :
#
#
# Convention : Reuss Voigt Hill
#
# Bulk Modulus (GPa) = 38.86495 51.65573 45.26034
# Shear Modulus (GPa) = 26.81847 31.28437 29.05142
#
# Velocity S-wave (km/s) = 3.59107 3.87857 3.73759
# Velocity P-wave (km/s) = 5.99023 6.70050 6.35529
#
# Compressibility (1/GPa) = 0.02573012
#
# Stress axis : x y z
#
# Youngs Moduli (GPa) = 51.77457 58.60161 98.34521
#
# Poissons Ratio (x) = 0.00014 0.45294
# Poissons Ratio (y) = 0.00012 0.57046
# Poissons Ratio (z) = 0.23845 0.33992
#
# Static dielectric constant tensor:
#      x y z
#    x 1.736730 0.000000 0.005680 
#    y 0.000000 1.736220 0.000000 
#    z 0.005680 0.000000 1.742330 
# 
# From -- ./inp_files/30783.got.cif
#   From: 2010.05.17/outbox.cif.g08.bks.cpg/sg15_16_cif.got.tgz:30783.got - 2010.06.03 18:47:42.
