data_PCOD9297111
_publ_section_title
;
Structure prediction by ZEFSAII (Michael W. Deem and Ramdas Pophale) SiO2 
 PCOD9297111
Probable space group: C 2/C
;
_chemical_formula_sum "Si O2"
_cell_formula_units_Z 48
_cell_length_a 11.503243
_cell_length_b 22.873373
_cell_length_c 9.677284
_cell_angle_alpha 90.000000
_cell_angle_beta 69.401954
_cell_angle_gamma 90.000000
_cell_volume 2383.488339
_symmetry_space_group_name_H-M "C 2/C"
_symmetry_group_IT_number 15
_symmetry_cell_setting 'monoclinic'
loop_
_space_group_symop_operation_xyz
x,y,z
-x,y,1/2-z
-x,-y,-z
x,-y,1/2+z
1/2+x,1/2+y,z
1/2-x,1/2+y,1/2-z
1/2-x,1/2-y,-z
1/2+x,1/2-y,1/2+z
loop_
_atom_site_type_symbol
_atom_site_label
_atom_site_fract_x
_atom_site_fract_y
_atom_site_fract_z
Si Si1 0.875823 0.528331 0.620998
Si Si2 0.994597 0.058763 0.090428
Si Si3 0.724544 0.933859 0.619673
Si Si4 0.000000 0.628374 0.750000
Si Si5 0.618191 0.205301 0.462089
Si Si6 0.383253 0.328674 0.902190
Si Si7 0.500000 0.844530 0.750000
O O1 0.816387 0.483667 0.754336
O O2 0.783972 0.541643 0.532686
O O3 0.917736 0.585667 0.687977
O O4 0.000000 0.500000 0.500000
O O5 0.861603 0.085980 0.104469
O O6 0.000000 0.043462 0.250000
O O7 0.099773 0.108657 0.030547
O O8 0.000000 0.000000 0.000000
O O9 0.618785 0.885127 0.673242
O O10 0.076061 0.669968 0.615681
O O11 0.619083 0.273868 0.493800
O O12 0.754711 0.179614 0.374666
O O13 0.528078 0.192199 0.373963
O O14 0.500000 0.323826 0.750000
#
# Coordination Sequence:
#
# PCOD9297111 Si02
#       7
#     8   8   8   4   8   8   4
#     4  12  21  36  59  97 136 168 211 269 333 385
#     4  11  25  45  65  90 129 179 216 256 324 396
#     4  12  23  38  62  95 135 169 214 272 323 392
#     4  12  21  38  66  96 133 174 216 274 334 398
#     4  11  24  42  71  98 130 170 225 277 334 393
#     4  10  23  48  69  91 129 182 222 264 328 409
#     4  12  21  38  62 104 127 160 214 280 336 372
#
# _framework density 20.138549000000001
#
# number of rings (size 3 to 8) (size 9 to 14) (size 15 to 20)
#    0.000    0.667    5.833    3.000    2.333    0.000 
#    1.500    5.000    0.000    0.000    0.000    0.000 
#    0.000    0.000    0.000    0.000    0.000    0.000 
#
# Total GULP energy -134184.700524 kJ/mol
# GULP energy per Si atom -5591.029188 kJ/mol
# Density = 2.009271 g / cm^3
# Si number density = 20.138549 Si / 1000 Ang^3
#
#
#
# Elastic Constant Matrix: (Units=GPa)
#
#
# Indices 1 2 3 4 5 6 
#
# 1 102.3247 27.4390 35.1582 0.0000 22.8453 0.0000
# 2 27.4390 124.6132 35.6133 0.0000 17.1643 0.0000
# 3 35.1582 35.6133 90.3583 0.0000 29.4808 0.0000
# 4 0.0000 0.0000 0.0000 21.7582 0.0000 -6.0304
# 5 22.8453 17.1643 29.4808 0.0000 43.3286 0.0000
# 6 0.0000 0.0000 0.0000 -6.0304 0.0000 18.7533
#
#
#
# Elastic Compliance Matrix: (Units=1/GPa)
#
#
# Indices 1 2 3 4 5 6 
#
# 1 0.011968 -0.001278 -0.002904 0.000000 -0.003828 0.000000
# 2 -0.001278 0.009255 -0.002795 0.000000 -0.001091 0.000000
# 3 -0.002904 -0.002795 0.015987 0.000000 -0.008239 0.000000
# 4 0.000000 0.000000 0.000000 0.050457 0.000000 0.016225
# 5 -0.003828 -0.001091 -0.008239 0.000000 0.031136 0.000000
# 6 0.000000 0.000000 0.000000 0.016225 0.000000 0.058541
#
#
# Mechanical properties :
#
#
# Convention : Reuss Voigt Hill
#
# Bulk Modulus (GPa) = 42.99873 57.07971 50.03922
# Shear Modulus (GPa) = 25.11948 31.37373 28.24661
#
# Velocity S-wave (km/s) = 3.53559 3.95130 3.74921
# Velocity P-wave (km/s) = 6.16969 7.01584 6.60633
#
# Compressibility (1/GPa) = 0.02325650
#
# Stress axis : x y z
#
# Youngs Moduli (GPa) = 83.55620 108.04753 62.55261
#
# Poissons Ratio (x) = 0.13809 0.18166
# Poissons Ratio (y) = 0.10679 0.17480
# Poissons Ratio (z) = 0.24265 0.30194
#
# Static dielectric constant tensor:
#      x y z
#    x 1.717600 0.000000 -0.045180 
#    y 0.000000 1.726120 0.000000 
#    z -0.045180 0.000000 1.677190 
# 
# From -- ./inp_files/32581.got.cif
#   From: 2010.05.17/outbox.cif.g08.bks.cpg/sg15_17_cif.got.tgz:32581.got - 2010.06.03 18:47:42.
