data_PCOD9297235
_publ_section_title
;
Structure prediction by ZEFSAII (Michael W. Deem and Ramdas Pophale) SiO2 
 PCOD9297235
Probable space group: C 2/C
;
_chemical_formula_sum "Si O2"
_cell_formula_units_Z 36
_cell_length_a 15.258094
_cell_length_b 12.279805
_cell_length_c 9.172866
_cell_angle_alpha 90.000000
_cell_angle_beta 107.744813
_cell_angle_gamma 90.000000
_cell_volume 1636.917760
_symmetry_space_group_name_H-M "C 2/C"
_symmetry_group_IT_number 15
_symmetry_cell_setting 'monoclinic'
loop_
_space_group_symop_operation_xyz
x,y,z
-x,y,1/2-z
-x,-y,-z
x,-y,1/2+z
1/2+x,1/2+y,z
1/2-x,1/2+y,1/2-z
1/2-x,1/2-y,-z
1/2+x,1/2-y,1/2+z
loop_
_atom_site_type_symbol
_atom_site_label
_atom_site_fract_x
_atom_site_fract_y
_atom_site_fract_z
Si Si1 0.677589 0.815023 0.760186
Si Si2 0.867344 0.248613 0.436902
Si Si3 0.000000 0.990832 0.750000
Si Si4 0.432334 0.646213 0.969151
Si Si5 0.069543 0.537047 0.660151
O O1 0.787309 0.822606 0.825065
O O2 0.641969 0.737068 0.612252
O O3 0.627587 0.931007 0.732552
O O4 0.648697 0.758809 0.898334
O O5 0.865155 0.367906 0.364082
O O6 0.969180 0.205150 0.466875
O O7 0.927889 0.920781 0.616941
O O8 0.945522 0.063592 0.840264
O O9 0.000000 0.576403 0.750000
O O10 0.000000 0.500000 0.500000
#
# Coordination Sequence:
#
# PCOD9297235 Si02
#       5
#     8   8   4   8   8
#     4  11  23  44  69  99 135 178 229 282 340 405
#     4  11  24  42  71  99 134 179 229 281 343 403
#     4  10  24  36  70  88 130 174 216 264 348 390
#     4  11  21  45  63  96 131 180 217 280 332 408
#     4  12  23  43  74 100 135 184 227 276 343 412
#
# _framework density 21.992553000000001
#
# number of rings (size 3 to 8) (size 9 to 14) (size 15 to 20)
#    0.000    0.889    6.667    0.000    1.556    3.556 
#    0.000    4.444    0.000    0.000    0.000    0.000 
#    0.000    0.000    0.000    0.000    0.000    0.000 
#
# Total GULP energy -100664.250665 kJ/mol
# GULP energy per Si atom -5592.458370 kJ/mol
# Density = 2.194250 g / cm^3
# Si number density = 21.992553 Si / 1000 Ang^3
#
#
#
# Elastic Constant Matrix: (Units=GPa)
#
#
# Indices 1 2 3 4 5 6 
#
# 1 36.5102 9.1726 27.8545 0.0000 27.5224 0.0000
# 2 9.1726 69.4150 30.8829 0.0000 13.5782 0.0000
# 3 27.8545 30.8829 105.1445 0.0000 7.3384 0.0000
# 4 0.0000 0.0000 0.0000 20.8325 0.0000 -8.3307
# 5 27.5224 13.5782 7.3384 0.0000 37.8257 0.0000
# 6 0.0000 0.0000 0.0000 -8.3307 0.0000 24.3095
#
#
#
# Elastic Compliance Matrix: (Units=1/GPa)
#
#
# Indices 1 2 3 4 5 6 
#
# 1 0.092814 0.011166 -0.023189 0.000000 -0.067042 0.000000
# 2 0.011166 0.018934 -0.007581 0.000000 -0.013451 0.000000
# 3 -0.023189 -0.007581 0.016739 0.000000 0.016346 0.000000
# 4 0.000000 0.000000 0.000000 0.055625 0.000000 0.019062
# 5 -0.067042 -0.013451 0.016346 0.000000 0.076875 0.000000
# 6 0.000000 0.000000 0.000000 0.019062 0.000000 0.047669
#
#
# Mechanical properties :
#
#
# Convention : Reuss Voigt Hill
#
# Bulk Modulus (GPa) = 11.20052 38.54329 24.87191
# Shear Modulus (GPa) = 13.24073 26.13750 19.68912
#
# Velocity S-wave (km/s) = 2.45634 3.45116 2.99534
# Velocity P-wave (km/s) = 3.62612 5.78311 4.82665
#
# Compressibility (1/GPa) = 0.08928154
#
# Stress axis : x y z
#
# Youngs Moduli (GPa) = 10.77426 52.81404 59.73898
#
# Poissons Ratio (x) = -0.58973 1.38526
# Poissons Ratio (y) = -0.12031 0.45286
# Poissons Ratio (z) = 0.24984 0.40037
#
# Static dielectric constant tensor:
#      x y z
#    x 1.755260 0.000000 0.024380 
#    y 0.000000 1.717690 0.000000 
#    z 0.024380 0.000000 1.743430 
# 
# From -- ./inp_files/46012.got.cif
#   From: 2010.05.17/outbox.cif.g08.bks.cpg/sg15_24_cif.got.tgz:46012.got - 2010.06.03 18:47:42.
