data_PCOD9297791
_publ_section_title
;
Structure prediction by ZEFSAII (Michael W. Deem and Ramdas Pophale) SiO2 
 PCOD9297791
Probable space group: C 2/C
;
_chemical_formula_sum "Si O2"
_cell_formula_units_Z 60
_cell_length_a 8.311366
_cell_length_b 14.823919
_cell_length_c 23.051429
_cell_angle_alpha 90.000000
_cell_angle_beta 105.916247
_cell_angle_gamma 90.000000
_cell_volume 2731.218625
_symmetry_space_group_name_H-M "C 2/C"
_symmetry_group_IT_number 15
_symmetry_cell_setting 'monoclinic'
loop_
_space_group_symop_operation_xyz
x,y,z
-x,y,1/2-z
-x,-y,-z
x,-y,1/2+z
1/2+x,1/2+y,z
1/2-x,1/2+y,1/2-z
1/2-x,1/2-y,-z
1/2+x,1/2-y,1/2+z
loop_
_atom_site_type_symbol
_atom_site_label
_atom_site_fract_x
_atom_site_fract_y
_atom_site_fract_z
Si Si1 0.269582 0.178447 0.792975
Si Si2 0.373583 0.619431 0.837888
Si Si3 0.305380 0.021350 0.973238
Si Si4 0.252821 0.901220 0.584833
Si Si5 0.164016 0.205035 0.910964
Si Si6 0.526688 0.020010 0.818861
Si Si7 0.439668 0.433960 0.635817
Si Si8 0.000000 0.179911 0.250000
O O1 0.149802 0.162521 0.726924
O O2 0.192543 0.211473 0.844659
O O3 0.370142 0.084945 0.815887
O O4 0.391416 0.254306 0.779130
O O5 0.467687 0.679418 0.895065
O O6 0.190054 0.584983 0.837175
O O7 0.490832 0.532633 0.841207
O O8 0.272187 0.120451 0.943039
O O9 0.215721 0.949902 0.922237
O O10 0.223433 0.029091 0.029187
O O11 0.500000 0.000000 0.000000
O O12 0.287377 0.802911 0.561958
O O13 0.095045 0.896154 0.612634
O O14 0.417054 0.938103 0.634927
O O15 0.500000 0.988315 0.750000
O O16 0.407337 0.381403 0.692538
#
# Coordination Sequence:
#
# PCOD9297791 Si02
#       8
#     8   8   8   8   8   8   8   4
#     4  11  20  39  59  91 133 163 202 255 322 378
#     4   9  20  37  58  88 127 166 196 257 321 370
#     4  11  25  46  65  89 129 175 216 265 317 383
#     4  11  22  43  64  94 122 167 219 261 316 377
#     4  11  23  38  62  94 126 161 215 268 308 370
#     4   9  19  38  61  88 127 168 204 250 318 385
#     4  10  24  42  67  92 126 171 213 258 324 386
#     4  12  22  40  66  98 128 160 212 260 314 386
#
# _framework density 21.968215000000001
#
# number of rings (size 3 to 8) (size 9 to 14) (size 15 to 20)
#    0.000    1.600    3.333    2.000    3.733    2.133 
#    4.800    0.667    0.000    0.000    0.000    0.000 
#    0.000    0.000    0.000    0.000    0.000    0.000 
#
# Total GULP energy -167510.811786 kJ/mol
# GULP energy per Si atom -5583.693726 kJ/mol
# Density = 2.191821 g / cm^3
# Si number density = 21.968215 Si / 1000 Ang^3
#
#
#
# Elastic Constant Matrix: (Units=GPa)
#
#
# Indices 1 2 3 4 5 6 
#
# 1 55.7573 12.3213 24.8054 0.0000 20.0966 0.0000
# 2 12.3213 75.6302 35.5798 0.0000 16.4709 0.0000
# 3 24.8054 35.5798 106.1886 0.0000 15.6490 0.0000
# 4 0.0000 0.0000 0.0000 20.8269 0.0000 -11.3772
# 5 20.0966 16.4709 15.6490 0.0000 43.4725 0.0000
# 6 0.0000 0.0000 0.0000 -11.3772 0.0000 -0.7589
#
#
#
# Elastic Compliance Matrix: (Units=1/GPa)
#
#
# Indices 1 2 3 4 5 6 
#
# 1 0.023045 0.000180 -0.004080 0.000000 -0.009253 0.000000
# 2 0.000180 0.016490 -0.004894 0.000000 -0.004569 0.000000
# 3 -0.004080 -0.004894 0.012101 0.000000 -0.000616 0.000000
# 4 0.000000 0.000000 0.000000 0.005225 0.000000 -0.078330
# 5 -0.009253 -0.004569 -0.000616 0.000000 0.029233 0.000000
# 6 0.000000 0.000000 0.000000 -0.078330 0.000000 -0.143390
#
#
# Mechanical properties :
#
#
# Convention : Reuss Voigt Hill
#
# Bulk Modulus (GPa) = 29.36975 42.55436 35.96205
# Shear Modulus (GPa) = -176.32020 23.69940 -76.31040
#
# Velocity S-wave (km/s) = -8.96860 3.28808 -5.90018
# Velocity P-wave (km/s) = 9.68759 5.81620 5.47819
#
# Compressibility (1/GPa) = 0.03404864
#
# Stress axis : x y z
#
# Youngs Moduli (GPa) = 43.39283 60.64144 82.63912
#
# Poissons Ratio (x) = -0.01092 0.33717
# Poissons Ratio (y) = -0.00782 0.40443
# Poissons Ratio (z) = 0.17705 0.29678
#
# Static dielectric constant tensor:
#      x y z
#    x 1.863920 0.000000 0.014050 
#    y 0.000000 1.817790 0.000000 
#    z 0.014050 0.000000 1.819180 
# 
# From -- ./inp_files/264753.got.cif
#   From: 2010.05.17/outbox.cif.g08.bks.cpg/sg15_133_cif.got.tgz:264753.got - 2010.06.03 18:47:42.
