data_PCOD9297701
_publ_section_title
;
Structure prediction by ZEFSAII (Michael W. Deem and Ramdas Pophale) SiO2 
 PCOD9297701
Probable space group: C 2/C
;
_chemical_formula_sum "Si O2"
_cell_formula_units_Z 56
_cell_length_a 27.232655
_cell_length_b 10.210456
_cell_length_c 13.630578
_cell_angle_alpha 90.000000
_cell_angle_beta 42.158240
_cell_angle_gamma 90.000000
_cell_volume 2543.833659
_symmetry_space_group_name_H-M "C 2/C"
_symmetry_group_IT_number 15
_symmetry_cell_setting 'monoclinic'
loop_
_space_group_symop_operation_xyz
x,y,z
-x,y,1/2-z
-x,-y,-z
x,-y,1/2+z
1/2+x,1/2+y,z
1/2-x,1/2+y,1/2-z
1/2-x,1/2-y,-z
1/2+x,1/2-y,1/2+z
loop_
_atom_site_type_symbol
_atom_site_label
_atom_site_fract_x
_atom_site_fract_y
_atom_site_fract_z
Si Si1 0.355949 0.360851 0.859964
Si Si2 0.968426 0.251839 0.053257
Si Si3 0.879971 0.447332 0.087829
Si Si4 0.428466 0.793007 0.421951
Si Si5 0.664510 0.769606 0.516177
Si Si6 0.459454 0.599397 0.717093
Si Si7 0.771146 0.461452 0.916398
O O1 0.393117 0.265340 0.725858
O O2 0.376802 0.303968 0.936532
O O3 0.401849 0.492672 0.768334
O O4 0.273122 0.410387 0.981949
O O5 0.956163 0.387552 0.014418
O O6 0.037055 0.245815 0.025721
O O7 0.984063 0.142535 0.948845
O O8 0.831948 0.498139 0.248763
O O9 0.891283 0.569033 0.998726
O O10 0.843300 0.330827 0.079488
O O11 0.500000 0.813911 0.250000
O O12 0.586108 0.723270 0.674780
O O13 0.715272 0.640497 0.446073
O O14 0.696995 0.879181 0.540343
O O15 0.500000 0.538200 0.750000
#
# Coordination Sequence:
#
# PCOD9297701 Si02
#       7
#     8   8   8   8   8   8   8
#     4  10  24  44  66  96 131 176 213 273 320 399
#     4  11  23  40  66 103 126 170 215 268 339 377
#     4  12  25  39  70  95 128 178 217 270 325 391
#     4  10  24  42  64  96 135 165 217 269 333 383
#     4  10  24  44  63  96 128 177 217 278 318 385
#     4  11  20  41  68  96 135 162 219 270 328 390
#     4  10  25  46  65  91 136 172 225 262 331 384
#
# _framework density 22.014018
#
# number of rings (size 3 to 8) (size 9 to 14) (size 15 to 20)
#    0.000    1.429    1.429    3.000    8.000    1.714 
#    0.000    0.000    0.000    0.000    0.000    0.000 
#    0.000    0.000    0.000    0.000    0.000    0.000 
#
# Total GULP energy -156460.720499 kJ/mol
# GULP energy per Si atom -5587.882875 kJ/mol
# Density = 2.196391 g / cm^3
# Si number density = 22.014018 Si / 1000 Ang^3
#
#
#
# Elastic Constant Matrix: (Units=GPa)
#
#
# Indices 1 2 3 4 5 6 
#
# 1 26.7061 7.0959 4.9498 0.0000 14.6116 0.0000
# 2 7.0959 74.4327 10.1167 0.0000 5.4428 0.0000
# 3 4.9498 10.1167 23.3380 0.0000 8.1930 0.0000
# 4 0.0000 0.0000 0.0000 3.5668 0.0000 -3.5955
# 5 14.6116 5.4428 8.1930 0.0000 28.1741 0.0000
# 6 0.0000 0.0000 0.0000 -3.5955 0.0000 42.5063
#
#
#
# Elastic Compliance Matrix: (Units=1/GPa)
#
#
# Indices 1 2 3 4 5 6 
#
# 1 0.052974 -0.003022 -0.000541 0.000000 -0.026732 0.000000
# 2 -0.003022 0.014477 -0.005795 0.000000 0.000456 0.000000
# 3 -0.000541 -0.005795 0.050098 0.000000 -0.013168 0.000000
# 4 0.000000 0.000000 0.000000 0.306502 0.000000 0.025926
# 5 -0.026732 0.000456 -0.013168 0.000000 0.053099 0.000000
# 6 0.000000 0.000000 0.000000 0.025926 0.000000 0.025719
#
#
# Mechanical properties :
#
#
# Convention : Reuss Voigt Hill
#
# Bulk Modulus (GPa) = 10.11797 18.75573 14.43685
# Shear Modulus (GPa) = 9.01666 21.67039 15.34352
#
# Velocity S-wave (km/s) = 2.02602 3.14090 2.64292
# Velocity P-wave (km/s) = 3.17477 4.65748 3.98568
#
# Compressibility (1/GPa) = 0.09883409
#
# Stress axis : x y z
#
# Youngs Moduli (GPa) = 18.87732 69.07348 19.96081
#
# Poissons Ratio (x) = 0.20873 0.01080
# Poissons Ratio (y) = 0.05704 0.11567
# Poissons Ratio (z) = 0.01021 0.40026
#
# Static dielectric constant tensor:
#      x y z
#    x 1.836080 0.000000 0.004780 
#    y 0.000000 1.821750 0.000000 
#    z 0.004780 0.000000 1.791440 
# 
# From -- ./inp_files/122618.got.cif
#   From: 2010.05.17/outbox.cif.g08.bks.cpg/sg15_62_cif.got.tgz:122618.got - 2010.06.03 18:47:42.
