data_PCOD9297283
_publ_section_title
;
Structure prediction by ZEFSAII (Michael W. Deem and Ramdas Pophale) SiO2 
 PCOD9297283
Probable space group: C 2/C
;
_chemical_formula_sum "Si O2"
_cell_formula_units_Z 36
_cell_length_a 19.932435
_cell_length_b 10.380310
_cell_length_c 18.525204
_cell_angle_alpha 90.000000
_cell_angle_beta 26.295382
_cell_angle_gamma 90.000000
_cell_volume 1697.994815
_symmetry_space_group_name_H-M "C 2/C"
_symmetry_group_IT_number 15
_symmetry_cell_setting 'monoclinic'
loop_
_space_group_symop_operation_xyz
x,y,z
-x,y,1/2-z
-x,-y,-z
x,-y,1/2+z
1/2+x,1/2+y,z
1/2-x,1/2+y,1/2-z
1/2-x,1/2-y,-z
1/2+x,1/2-y,1/2+z
loop_
_atom_site_type_symbol
_atom_site_label
_atom_site_fract_x
_atom_site_fract_y
_atom_site_fract_z
Si Si1 0.754729 0.073681 0.440638
Si Si2 0.000000 0.730912 0.750000
Si Si3 0.668487 0.135196 0.119883
Si Si4 0.882026 0.671793 0.162860
Si Si5 0.224076 0.428759 0.322054
O O1 0.883291 0.180333 0.319230
O O2 0.593784 0.145818 0.602476
O O3 0.760587 0.991965 0.508917
O O4 0.761801 0.978022 0.366489
O O5 0.500000 0.122891 0.250000
O O6 0.657595 0.158760 0.214622
O O7 0.750000 0.250000 0.000000
O O8 0.790647 0.559863 0.209478
O O9 0.837980 0.818058 0.184896
O O10 0.058785 0.638930 0.982168
#
# Coordination Sequence:
#
# PCOD9297283 Si02
#       5
#     8   4   8   8   8
#     4  11  22  42  63  96 128 176 215 281 325 406
#     4  10  24  38  64  94 134 168 220 270 348 386
#     4  12  22  40  69  94 130 168 230 275 321 387
#     4  11  24  44  65 102 131 183 217 284 328 406
#     4  11  25  43  68  94 141 171 227 270 343 397
#
# _framework density 21.201478000000002
#
# number of rings (size 3 to 8) (size 9 to 14) (size 15 to 20)
#    0.000    0.889    5.556    0.000    1.556    9.778 
#    0.000    0.000    0.000    0.000    0.000    0.000 
#    0.000    0.000    0.000    0.000    0.000    0.000 
#
# Total GULP energy -100639.688350 kJ/mol
# GULP energy per Si atom -5591.093797 kJ/mol
# Density = 2.115322 g / cm^3
# Si number density = 21.201478 Si / 1000 Ang^3
#
#
#
# Elastic Constant Matrix: (Units=GPa)
#
#
# Indices 1 2 3 4 5 6 
#
# 1 44.8838 9.5371 4.1761 0.0001 6.5403 -0.0001
# 2 9.5371 122.4645 34.6184 0.0003 -13.0417 -0.0002
# 3 4.1761 34.6184 54.7591 0.0005 -3.1469 -0.0003
# 4 0.0001 0.0003 0.0005 35.5159 -0.0005 17.1620
# 5 6.5403 -13.0417 -3.1469 -0.0005 14.1436 0.0003
# 6 -0.0001 -0.0002 -0.0003 17.1620 0.0003 25.0135
#
#
#
# Elastic Compliance Matrix: (Units=1/GPa)
#
#
# Indices 1 2 3 4 5 6 
#
# 1 0.025230 -0.003370 -0.000651 -0.000001 -0.014919 0.000001
# 2 -0.003370 0.011340 -0.006302 0.000000 0.010612 0.000000
# 3 -0.000651 -0.006302 0.022264 -0.000001 -0.000556 0.000001
# 4 -0.000001 0.000000 -0.000001 0.042121 0.000002 -0.028900
# 5 -0.014919 0.010612 -0.000556 0.000002 0.087264 -0.000003
# 6 0.000001 0.000000 0.000001 -0.028900 -0.000003 0.059807
#
#
# Mechanical properties :
#
#
# Convention : Reuss Voigt Hill
#
# Bulk Modulus (GPa) = 26.18640 35.41898 30.80269
# Shear Modulus (GPa) = 17.76827 26.51964 22.14395
#
# Velocity S-wave (km/s) = 2.89808 3.54056 3.23531
# Velocity P-wave (km/s) = 4.85557 5.78414 5.34007
#
# Compressibility (1/GPa) = 0.03818776
#
# Stress axis : x y z
#
# Youngs Moduli (GPa) = 39.63501 88.18628 44.91637
#
# Poissons Ratio (x) = 0.29714 0.02925
# Poissons Ratio (y) = 0.13355 0.28306
# Poissons Ratio (z) = 0.02582 0.55575
#
# Static dielectric constant tensor:
#      x y z
#    x 1.757490 0.000000 -0.008060 
#    y 0.000000 1.795270 0.000000 
#    z -0.008060 0.000000 1.816010 
# 
# From -- ./inp_files/53875.got.cif
#   From: 2010.05.17/outbox.cif.g08.bks.cpg/sg15_27_cif.got.tgz:53875.got - 2010.06.03 18:47:42.
