data_PCOD9297993
_publ_section_title
;
Structure prediction by ZEFSAII (Michael W. Deem and Ramdas Pophale) SiO2 
 PCOD9297993
Probable space group: C 2/C
;
_chemical_formula_sum "Si O2"
_cell_formula_units_Z 40
_cell_length_a 17.900287
_cell_length_b 11.107480
_cell_length_c 13.812906
_cell_angle_alpha 90.000000
_cell_angle_beta 145.819550
_cell_angle_gamma 90.000000
_cell_volume 1542.919270
_symmetry_space_group_name_H-M "C 2/C"
_symmetry_group_IT_number 15
_symmetry_cell_setting 'monoclinic'
loop_
_space_group_symop_operation_xyz
x,y,z
-x,y,1/2-z
-x,-y,-z
x,-y,1/2+z
1/2+x,1/2+y,z
1/2-x,1/2+y,1/2-z
1/2-x,1/2-y,-z
1/2+x,1/2-y,1/2+z
loop_
_atom_site_type_symbol
_atom_site_label
_atom_site_fract_x
_atom_site_fract_y
_atom_site_fract_z
Si Si1 0.281281 0.042450 0.442563
Si Si2 0.359747 0.651951 0.612172
Si Si3 0.212066 0.740936 0.210912
Si Si4 0.974995 0.609700 0.048424
Si Si5 0.867489 0.908060 0.544398
O O1 0.258822 0.129400 0.329479
O O2 0.260268 0.111902 0.521593
O O3 0.166162 0.940644 0.327640
O O4 0.416736 0.968411 0.575114
O O5 0.250000 0.750000 0.500000
O O6 0.392532 0.809508 0.821584
O O7 0.357827 0.553298 0.522934
O O8 0.349208 0.804489 0.388529
O O9 0.138938 0.835663 0.060607
O O10 0.000000 0.787177 0.250000
O O11 0.000000 0.500000 0.000000
O O12 0.000000 0.880629 0.750000
#
# Coordination Sequence:
#
# PCOD9297993 Si02
#       5
#     8   8   8   8   8
#     4   9  20  40  61  97 132 172 222 277 337 416
#     4   9  20  39  60  88 129 165 227 266 336 392
#     4  11  21  42  69  94 136 178 223 288 338 412
#     4  10  24  43  63 100 139 175 228 281 360 412
#     4   9  19  39  67  97 129 171 233 278 338 401
#
# _framework density 25.924880999999999
#
# number of rings (size 3 to 8) (size 9 to 14) (size 15 to 20)
#    1.200    1.200    0.000    1.800    0.000    1.600 
#   14.400    8.000    0.000    0.000    0.000    0.000 
#    0.000    0.000    0.000    0.000    0.000    0.000 
#
# Total GULP energy -111645.401354 kJ/mol
# GULP energy per Si atom -5582.270068 kJ/mol
# Density = 2.586588 g / cm^3
# Si number density = 25.924881 Si / 1000 Ang^3
#
#
#
# Elastic Constant Matrix: (Units=GPa)
#
#
# Indices 1 2 3 4 5 6 
#
# 1 188.5560 64.6697 46.2827 0.0000 20.6932 0.0000
# 2 64.6697 156.7334 55.7203 0.0000 24.3661 0.0000
# 3 46.2827 55.7203 117.0568 0.0000 17.7509 0.0000
# 4 0.0000 0.0000 0.0000 24.5122 0.0000 9.5325
# 5 20.6932 24.3661 17.7509 0.0000 33.9536 0.0000
# 6 0.0000 0.0000 0.0000 9.5325 0.0000 54.2993
#
#
#
# Elastic Compliance Matrix: (Units=1/GPa)
#
#
# Indices 1 2 3 4 5 6 
#
# 1 0.006500 -0.001899 -0.001381 0.000000 -0.001876 0.000000
# 2 -0.001899 0.008744 -0.002862 0.000000 -0.003621 0.000000
# 3 -0.001381 -0.002862 0.010875 0.000000 -0.002789 0.000000
# 4 0.000000 0.000000 0.000000 0.043785 0.000000 -0.007687
# 5 -0.001876 -0.003621 -0.002789 0.000000 0.034653 0.000000
# 6 0.000000 0.000000 0.000000 -0.007687 0.000000 0.019766
#
#
# Mechanical properties :
#
#
# Convention : Reuss Voigt Hill
#
# Bulk Modulus (GPa) = 72.29108 88.41018 80.35063
# Shear Modulus (GPa) = 35.40595 42.26459 38.83527
#
# Velocity S-wave (km/s) = 3.69956 4.04204 3.87459
# Velocity P-wave (km/s) = 6.79665 7.48068 7.14685
#
# Compressibility (1/GPa) = 0.01383297
#
# Stress axis : x y z
#
# Youngs Moduli (GPa) = 153.85106 114.35830 91.95781
#
# Poissons Ratio (x) = 0.21717 0.12703
# Poissons Ratio (y) = 0.29217 0.26322
# Poissons Ratio (z) = 0.21253 0.32734
#
# Static dielectric constant tensor:
#      x y z
#    x 2.073590 0.000000 -0.047050 
#    y 0.000000 2.064580 0.000000 
#    z -0.047050 0.000000 2.107260 
# 
# From -- ./inp_files/112536.got.cif
#   From: 2010.05.17/outbox.cif.g08.bks.cpg/sg15_57_cif.got.tgz:112536.got - 2010.06.03 18:47:42.
