data_PCOD9297210
_publ_section_title
;
Structure prediction by ZEFSAII (Michael W. Deem and Ramdas Pophale) SiO2 
 PCOD9297210
Probable space group: C 2/C
;
_chemical_formula_sum "Si O2"
_cell_formula_units_Z 44
_cell_length_a 16.099461
_cell_length_b 16.539461
_cell_length_c 9.044691
_cell_angle_alpha 90.000000
_cell_angle_beta 125.778383
_cell_angle_gamma 90.000000
_cell_volume 1953.887613
_symmetry_space_group_name_H-M "C 2/C"
_symmetry_group_IT_number 15
_symmetry_cell_setting 'monoclinic'
loop_
_space_group_symop_operation_xyz
x,y,z
-x,y,1/2-z
-x,-y,-z
x,-y,1/2+z
1/2+x,1/2+y,z
1/2-x,1/2+y,1/2-z
1/2-x,1/2-y,-z
1/2+x,1/2-y,1/2+z
loop_
_atom_site_type_symbol
_atom_site_label
_atom_site_fract_x
_atom_site_fract_y
_atom_site_fract_z
Si Si1 0.758413 0.359104 0.512116
Si Si2 0.841000 0.482620 0.781754
Si Si3 0.135860 0.064215 0.656568
Si Si4 0.000000 0.033085 0.250000
Si Si5 0.410697 0.731691 0.554255
Si Si6 0.491241 0.135580 0.912562
O O1 0.815501 0.443863 0.595521
O O2 0.692555 0.361251 0.293508
O O3 0.677377 0.335987 0.557164
O O4 0.847977 0.295554 0.588069
O O5 0.728396 0.503530 0.719747
O O6 0.906362 0.564463 0.843412
O O7 0.905453 0.411110 0.927376
O O8 0.072719 0.080577 0.441191
O O9 0.066183 0.022765 0.709083
O O10 0.500000 0.697761 0.750000
O O11 0.457571 0.785465 0.471219
O O12 0.500000 0.156349 0.750000
#
# Coordination Sequence:
#
# PCOD9297210 Si02
#       6
#     8   8   8   4   8   8
#     4  11  23  40  69  96 130 188 228 272 334 416
#     4  11  22  39  71 104 136 173 229 289 346 391
#     4  11  21  40  62  98 138 176 229 284 334 397
#     4  10  24  34  60  96 140 174 222 278 334 396
#     4  11  24  43  67  95 138 182 232 268 338 421
#     4  11  24  39  69 107 139 171 222 300 346 398
#
# _framework density 22.519207999999999
#
# number of rings (size 3 to 8) (size 9 to 14) (size 15 to 20)
#    0.000    1.091    5.455    1.091    3.818    0.000 
#    0.000    0.909    8.000    0.000    0.000    0.000 
#    0.000    0.000    0.000    0.000    0.000    0.000 
#
# Total GULP energy -122754.361619 kJ/mol
# GULP energy per Si atom -5579.743710 kJ/mol
# Density = 2.246795 g / cm^3
# Si number density = 22.519208 Si / 1000 Ang^3
#
#
#
# Elastic Constant Matrix: (Units=GPa)
#
#
# Indices 1 2 3 4 5 6 
#
# 1 112.6304 13.3233 30.4962 0.0000 6.3618 0.0000
# 2 13.3233 58.7887 19.4385 0.0000 -2.9216 0.0000
# 3 30.4962 19.4385 130.9378 0.0000 -0.6930 0.0000
# 4 0.0000 0.0000 0.0000 16.6385 0.0000 -3.2598
# 5 6.3618 -2.9216 -0.6930 0.0000 33.6153 0.0000
# 6 0.0000 0.0000 0.0000 -3.2598 0.0000 32.0085
#
#
#
# Elastic Compliance Matrix: (Units=1/GPa)
#
#
# Indices 1 2 3 4 5 6 
#
# 1 0.009738 -0.001634 -0.002036 0.000000 -0.002027 0.000000
# 2 -0.001634 0.018238 -0.002317 0.000000 0.001847 0.000000
# 3 -0.002036 -0.002317 0.008457 0.000000 0.000358 0.000000
# 4 0.000000 0.000000 0.000000 0.061325 0.000000 0.006245
# 5 -0.002027 0.001847 0.000358 0.000000 0.030300 0.000000
# 6 0.000000 0.000000 0.000000 0.006245 0.000000 0.031878
#
#
# Mechanical properties :
#
#
# Convention : Reuss Voigt Hill
#
# Bulk Modulus (GPa) = 40.88603 47.65254 44.26928
# Shear Modulus (GPa) = 27.76788 32.39239 30.08013
#
# Velocity S-wave (km/s) = 3.51533 3.79678 3.65876
# Velocity P-wave (km/s) = 5.88831 6.35827 6.12779
#
# Compressibility (1/GPa) = 0.02445823
#
# Stress axis : x y z
#
# Youngs Moduli (GPa) = 102.69357 54.82930 118.24078
#
# Poissons Ratio (x) = 0.08961 0.24075
# Poissons Ratio (y) = 0.16784 0.27399
# Poissons Ratio (z) = 0.20909 0.12705
#
# Static dielectric constant tensor:
#      x y z
#    x 1.860040 0.000000 -0.000350 
#    y 0.000000 1.861390 0.000000 
#    z -0.000350 0.000000 1.894920 
# 
# From -- ./inp_files/39761.got.cif
#   From: 2010.05.17/outbox.cif.g08.bks.cpg/sg15_20_cif.got.tgz:39761.got - 2010.06.03 18:47:42.
