data_PCOD9297571
_publ_section_title
;
Structure prediction by ZEFSAII (Michael W. Deem and Ramdas Pophale) SiO2 
 PCOD9297571
Probable space group: C 2/C
;
_chemical_formula_sum "Si O2"
_cell_formula_units_Z 36
_cell_length_a 27.612775
_cell_length_b 8.960089
_cell_length_c 18.401478
_cell_angle_alpha 90.000000
_cell_angle_beta 161.545941
_cell_angle_gamma 90.000000
_cell_volume 1441.150713
_symmetry_space_group_name_H-M "C 2/C"
_symmetry_group_IT_number 15
_symmetry_cell_setting 'monoclinic'
loop_
_space_group_symop_operation_xyz
x,y,z
-x,y,1/2-z
-x,-y,-z
x,-y,1/2+z
1/2+x,1/2+y,z
1/2-x,1/2+y,1/2-z
1/2-x,1/2-y,-z
1/2+x,1/2-y,1/2+z
loop_
_atom_site_type_symbol
_atom_site_label
_atom_site_fract_x
_atom_site_fract_y
_atom_site_fract_z
Si Si1 0.529753 0.171038 0.565673
Si Si2 0.214816 0.484507 0.435436
Si Si3 0.079745 0.681426 0.486068
Si Si4 0.500000 0.416051 0.250000
Si Si5 0.328618 0.560221 0.757673
O O1 0.626770 0.229555 0.634082
O O2 0.377212 0.268108 0.347437
O O3 0.500000 0.000000 0.500000
O O4 0.619375 0.157599 0.769064
O O5 0.361196 0.497888 0.591035
O O6 0.266061 0.505239 0.591180
O O7 0.095481 0.622881 0.258610
O O8 0.067574 0.811166 0.409679
O O9 0.187465 0.547018 0.612078
O O10 0.500000 0.500000 0.000000
#
# Coordination Sequence:
#
# PCOD9297571 Si02
#       5
#     8   8   8   4   8
#     4  10  24  41  66 100 133 172 233 284 338 419
#     4  11  24  42  68  99 138 185 231 290 346 417
#     4  11  21  41  69 100 134 178 230 288 346 418
#     4  12  20  38  76  94 132 182 244 272 344 426
#     4  12  26  43  69 103 139 183 232 287 358 419
#
# _framework density 24.980036999999999
#
# number of rings (size 3 to 8) (size 9 to 14) (size 15 to 20)
#    0.000    0.889    4.444    3.333    3.111    4.444 
#    0.000    0.000    4.889    0.000    0.000    0.000 
#    0.000    0.000    0.000    0.000    0.000    0.000 
#
# Total GULP energy -100343.087622 kJ/mol
# GULP energy per Si atom -5574.615979 kJ/mol
# Density = 2.492318 g / cm^3
# Si number density = 24.980037 Si / 1000 Ang^3
#
#
#
# Elastic Constant Matrix: (Units=GPa)
#
#
# Indices 1 2 3 4 5 6 
#
# 1 120.2560 -9.1242 51.0453 0.0000 -5.4800 0.0000
# 2 -9.1242 45.2196 14.5711 0.0000 -0.7564 0.0000
# 3 51.0453 14.5711 136.6330 0.0000 -12.2142 0.0000
# 4 0.0000 0.0000 0.0000 49.6607 0.0000 7.8677
# 5 -5.4800 -0.7564 -12.2142 0.0000 73.6467 0.0000
# 6 0.0000 0.0000 0.0000 7.8677 0.0000 13.4946
#
#
#
# Elastic Compliance Matrix: (Units=1/GPa)
#
#
# Indices 1 2 3 4 5 6 
#
# 1 0.010382 0.003462 -0.004239 0.000000 0.000105 0.000000
# 2 0.003462 0.024058 -0.003871 0.000000 -0.000137 0.000000
# 3 -0.004239 -0.003871 0.009423 0.000000 0.001208 0.000000
# 4 0.000000 0.000000 0.000000 0.022186 0.000000 -0.012935
# 5 0.000105 -0.000137 0.001208 0.000000 0.013785 0.000000
# 6 0.000000 0.000000 0.000000 -0.012935 0.000000 0.081645
#
#
# Mechanical properties :
#
#
# Convention : Reuss Voigt Hill
#
# Bulk Modulus (GPa) = 28.92818 46.12144 37.52481
# Shear Modulus (GPa) = 27.42767 43.73482 35.58125
#
# Velocity S-wave (km/s) = 3.31718 4.18878 3.77820
# Velocity P-wave (km/s) = 5.12613 6.47286 5.83846
#
# Compressibility (1/GPa) = 0.03456836
#
# Stress axis : x y z
#
# Youngs Moduli (GPa) = 96.31817 41.56593 106.12083
#
# Poissons Ratio (x) = -0.14392 0.44980
# Poissons Ratio (y) = -0.33350 0.41085
# Poissons Ratio (z) = 0.40825 0.16092
#
# Static dielectric constant tensor:
#      x y z
#    x 2.093100 0.000000 -0.053910 
#    y 0.000000 2.377890 0.000000 
#    z -0.053910 0.000000 2.021390 
# 
# From -- ./inp_files/222505.got.cif
#   From: 2010.05.17/outbox.cif.g08.bks.cpg/sg15_112_cif.got.tgz:222505.got - 2010.06.03 18:47:42.
