data_PCOD9297113
_publ_section_title
;
Structure prediction by ZEFSAII (Michael W. Deem and Ramdas Pophale) SiO2 
 PCOD9297113
Probable space group: C 2/C
;
_chemical_formula_sum "Si O2"
_cell_formula_units_Z 28
_cell_length_a 4.947458
_cell_length_b 19.869725
_cell_length_c 12.250237
_cell_angle_alpha 90.000000
_cell_angle_beta 101.138653
_cell_angle_gamma 90.000000
_cell_volume 1181.569934
_symmetry_space_group_name_H-M "C 2/C"
_symmetry_group_IT_number 15
_symmetry_cell_setting 'monoclinic'
loop_
_space_group_symop_operation_xyz
x,y,z
-x,y,1/2-z
-x,-y,-z
x,-y,1/2+z
1/2+x,1/2+y,z
1/2-x,1/2+y,1/2-z
1/2-x,1/2-y,-z
1/2+x,1/2-y,1/2+z
loop_
_atom_site_type_symbol
_atom_site_label
_atom_site_fract_x
_atom_site_fract_y
_atom_site_fract_z
Si Si1 0.500000 0.975918 0.750000
Si Si2 0.276139 0.406682 0.142876
Si Si3 0.072799 0.685734 0.019062
Si Si4 0.393986 0.381554 0.913111
O O1 0.365516 0.025443 0.828382
O O2 0.734524 0.930987 0.822589
O O3 0.500000 0.386125 0.250000
O O4 0.414269 0.414623 0.035161
O O5 0.045289 0.350527 0.098607
O O6 0.301137 0.639021 0.095325
O O7 0.806208 0.683559 0.077502
O O8 0.250000 0.750000 0.000000
#
# Coordination Sequence:
#
# PCOD9297113 Si02
#       4
#     4   8   8   8
#     4  12  24  44  64 106 142 172 232 270 346 400
#     4  10  24  40  71  99 136 181 219 283 338 397
#     4  10  23  48  69  97 136 175 232 277 334 398
#     4  10  25  42  70 101 130 184 218 282 336 394
#
# _framework density 23.697286999999999
#
# number of rings (size 3 to 8) (size 9 to 14) (size 15 to 20)
#    1.714    0.000    0.000    3.429    4.000    2.286 
#    2.571    2.857    0.000    0.000    0.000    0.000 
#    0.000    0.000    0.000    0.000    0.000    0.000 
#
# Total GULP energy -78213.467680 kJ/mol
# GULP energy per Si atom -5586.676263 kJ/mol
# Density = 2.364335 g / cm^3
# Si number density = 23.697287 Si / 1000 Ang^3
#
#
#
# Elastic Constant Matrix: (Units=GPa)
#
#
# Indices 1 2 3 4 5 6 
#
# 1 126.9059 25.7735 36.8475 0.0000 34.5150 0.0000
# 2 25.7735 97.2271 46.1148 0.0000 32.0788 0.0000
# 3 36.8475 46.1148 104.2141 0.0000 41.3643 0.0000
# 4 0.0000 0.0000 0.0000 98.8517 0.0000 -16.7163
# 5 34.5150 32.0788 41.3643 0.0000 57.0557 0.0000
# 6 0.0000 0.0000 0.0000 -16.7163 0.0000 34.2443
#
#
#
# Elastic Compliance Matrix: (Units=1/GPa)
#
#
# Indices 1 2 3 4 5 6 
#
# 1 0.009612 -0.000363 -0.001419 0.000000 -0.004581 0.000000
# 2 -0.000363 0.013873 -0.004215 0.000000 -0.004525 0.000000
# 3 -0.001419 -0.004215 0.014996 0.000000 -0.007644 0.000000
# 4 0.000000 0.000000 0.000000 0.011026 0.000000 0.005382
# 5 -0.004581 -0.004525 -0.007644 0.000000 0.028384 0.000000
# 6 0.000000 0.000000 0.000000 0.005382 0.000000 0.031829
#
#
# Mechanical properties :
#
#
# Convention : Reuss Voigt Hill
#
# Bulk Modulus (GPa) = 37.75393 60.64653 49.20023
# Shear Modulus (GPa) = 38.30112 52.67109 45.48611
#
# Velocity S-wave (km/s) = 4.02464 4.71963 4.38592
# Velocity P-wave (km/s) = 6.12889 7.43960 6.81582
#
# Compressibility (1/GPa) = 0.02648731
#
# Stress axis : x y z
#
# Youngs Moduli (GPa) = 104.03968 72.08051 66.68258
#
# Poissons Ratio (x) = 0.02618 0.09465
# Poissons Ratio (y) = 0.03779 0.28104
# Poissons Ratio (z) = 0.14767 0.30379
#
# Static dielectric constant tensor:
#      x y z
#    x 1.916430 0.000000 -0.035420 
#    y 0.000000 1.948500 0.000000 
#    z -0.035420 0.000000 1.861160 
# 
# From -- ./inp_files/71747.got.cif
#   From: 2010.05.17/outbox.cif.g08.bks.cpg/sg15_36_cif.got.tgz:71747.got - 2010.06.03 18:47:42.
