data_PCOD9297732
_publ_section_title
;
Structure prediction by ZEFSAII (Michael W. Deem and Ramdas Pophale) SiO2 
 PCOD9297732
Probable space group: C 2/C
;
_chemical_formula_sum "Si O2"
_cell_formula_units_Z 64
_cell_length_a 14.615767
_cell_length_b 15.270368
_cell_length_c 17.816644
_cell_angle_alpha 90.000000
_cell_angle_beta 48.789392
_cell_angle_gamma 90.000000
_cell_volume 2991.465541
_symmetry_space_group_name_H-M "C 2/C"
_symmetry_group_IT_number 15
_symmetry_cell_setting 'monoclinic'
loop_
_space_group_symop_operation_xyz
x,y,z
-x,y,1/2-z
-x,-y,-z
x,-y,1/2+z
1/2+x,1/2+y,z
1/2-x,1/2+y,1/2-z
1/2-x,1/2-y,-z
1/2+x,1/2-y,1/2+z
loop_
_atom_site_type_symbol
_atom_site_label
_atom_site_fract_x
_atom_site_fract_y
_atom_site_fract_z
Si Si1 0.000132 0.462205 0.085282
Si Si2 0.054699 0.361157 0.638830
Si Si3 0.098558 0.071187 0.137178
Si Si4 0.987957 0.180495 0.059087
Si Si5 0.703286 0.384776 0.061873
Si Si6 0.975529 0.189687 0.617061
Si Si7 0.707512 0.168048 0.821951
Si Si8 0.193855 0.688856 0.466127
O O1 0.875496 0.409958 0.165031
O O2 0.019586 0.542091 0.130587
O O3 0.105627 0.389963 0.038335
O O4 0.000000 0.500000 0.000000
O O5 0.200926 0.354643 0.553412
O O6 0.000000 0.343552 0.750000
O O7 0.998279 0.293691 0.609645
O O8 0.032023 0.118167 0.102510
O O9 0.000000 0.040482 0.250000
O O10 0.179583 0.988481 0.070429
O O11 0.187370 0.141380 0.130472
O O12 0.101946 0.244815 0.976563
O O13 0.873041 0.242782 0.139951
O O14 0.974163 0.139966 0.984251
O O15 0.571401 0.342273 0.127702
O O16 0.765311 0.356511 0.106330
O O17 0.836708 0.171781 0.711612
O O18 0.250000 0.750000 0.500000
#
# Coordination Sequence:
#
# PCOD9297732 Si02
#       8
#     8   8   8   8   8   8   8   8
#     4  11  20  43  70  94 127 180 229 284 333 411
#     4  12  25  42  70 100 132 182 237 279 339 415
#     4  11  23  41  69 101 135 181 226 279 356 417
#     4  10  24  42  66 101 137 174 226 291 333 412
#     4  12  24  46  68  94 139 183 228 288 343 414
#     4  12  26  43  68  99 140 180 226 285 349 407
#     4  11  23  44  68  97 134 183 227 274 356 418
#     4   9  19  40  63  90 132 170 213 276 344 396
#
# _framework density 21.394195
#
# number of rings (size 3 to 8) (size 9 to 14) (size 15 to 20)
#    0.000    1.000    3.750    3.000    3.500    1.500 
#    2.250    1.250    0.000    0.000    0.000    0.000 
#    0.000    0.000    0.000    0.000    0.000    0.000 
#
# Total GULP energy -178584.559480 kJ/mol
# GULP energy per Si atom -5580.767484 kJ/mol
# Density = 2.134550 g / cm^3
# Si number density = 21.394195 Si / 1000 Ang^3
#
#
#
# Elastic Constant Matrix: (Units=GPa)
#
#
# Indices 1 2 3 4 5 6 
#
# 1 93.4774 28.2001 35.0381 0.0000 -13.0937 0.0000
# 2 28.2001 80.0387 21.4300 0.0000 -2.8219 0.0000
# 3 35.0381 21.4300 117.9563 0.0000 -18.2188 0.0000
# 4 0.0000 0.0000 0.0000 27.3867 0.0000 -7.6728
# 5 -13.0937 -2.8219 -18.2188 0.0000 44.1471 0.0000
# 6 0.0000 0.0000 0.0000 -7.6728 0.0000 37.4291
#
#
#
# Elastic Compliance Matrix: (Units=1/GPa)
#
#
# Indices 1 2 3 4 5 6 
#
# 1 0.013275 -0.003823 -0.002861 0.000000 0.002512 0.000000
# 2 -0.003823 0.014235 -0.001586 0.000000 -0.000879 0.000000
# 3 -0.002861 -0.001586 0.010114 0.000000 0.003224 0.000000
# 4 0.000000 0.000000 0.000000 0.038739 0.000000 0.007941
# 5 0.002512 -0.000879 0.003224 0.000000 0.024671 0.000000
# 6 0.000000 0.000000 0.000000 0.007941 0.000000 0.028345
#
#
# Mechanical properties :
#
#
# Convention : Reuss Voigt Hill
#
# Bulk Modulus (GPa) = 47.42964 51.20097 49.31531
# Shear Modulus (GPa) = 32.69128 35.57953 34.13540
#
# Velocity S-wave (km/s) = 3.91326 4.08247 3.99876
# Velocity P-wave (km/s) = 6.52960 6.79752 6.66490
#
# Compressibility (1/GPa) = 0.02108386
#
# Stress axis : x y z
#
# Youngs Moduli (GPa) = 75.32831 70.25150 98.87670
#
# Poissons Ratio (x) = 0.26855 0.28286
# Poissons Ratio (y) = 0.28796 0.15685
# Poissons Ratio (z) = 0.21550 0.11144
#
# Static dielectric constant tensor:
#      x y z
#    x 1.841120 0.000000 0.027670 
#    y 0.000000 1.828460 0.000000 
#    z 0.027670 0.000000 1.763820 
# 
# From -- ./inp_files/205692.got.cif
#   From: 2010.05.17/outbox.cif.g08.bks.cpg/sg15_103_cif.got.tgz:205692.got - 2010.06.03 18:47:42.
