data_PCOD9297171
_publ_section_title
;
Structure prediction by ZEFSAII (Michael W. Deem and Ramdas Pophale) SiO2 
 PCOD9297171
Probable space group: C 2/C
;
_chemical_formula_sum "Si O2"
_cell_formula_units_Z 64
_cell_length_a 14.303593
_cell_length_b 15.151241
_cell_length_c 15.546280
_cell_angle_alpha 90.000000
_cell_angle_beta 132.692329
_cell_angle_gamma 90.000000
_cell_volume 2476.340473
_symmetry_space_group_name_H-M "C 2/C"
_symmetry_group_IT_number 15
_symmetry_cell_setting 'monoclinic'
loop_
_space_group_symop_operation_xyz
x,y,z
-x,y,1/2-z
-x,-y,-z
x,-y,1/2+z
1/2+x,1/2+y,z
1/2-x,1/2+y,1/2-z
1/2-x,1/2-y,-z
1/2+x,1/2-y,1/2+z
loop_
_atom_site_type_symbol
_atom_site_label
_atom_site_fract_x
_atom_site_fract_y
_atom_site_fract_z
Si Si1 0.889340 0.348205 0.618738
Si Si2 0.007872 0.398037 0.989817
Si Si3 0.333933 0.394068 0.584765
Si Si4 0.128709 0.307072 0.365496
Si Si5 0.475812 0.660782 0.826548
Si Si6 0.717686 0.401561 0.757673
Si Si7 0.648073 0.550631 0.038235
Si Si8 0.199283 0.293174 0.221475
O O1 0.170367 0.187794 0.748486
O O2 0.759236 0.381907 0.577268
O O3 0.000000 0.383831 0.750000
O O4 0.896518 0.387538 0.529579
O O5 0.865719 0.376153 0.867291
O O6 0.000000 0.500000 0.000000
O O7 0.079837 0.347422 0.110644
O O8 0.187562 0.367044 0.475174
O O9 0.391859 0.294521 0.617555
O O10 0.342868 0.426729 0.688431
O O11 0.362990 0.464925 0.529834
O O12 0.217382 0.305915 0.335601
O O13 0.000000 0.345529 0.250000
O O14 0.500000 0.612840 0.750000
O O15 0.522260 0.605671 0.937346
O O16 0.568414 0.746608 0.871455
O O17 0.687203 0.468065 0.661338
O O18 0.661685 0.309134 0.690291
#
# Coordination Sequence:
#
# PCOD9297171 Si02
#       8
#     8   8   8   8   8   8   8   8
#     4  11  21  40  65 102 148 188 247 300 366 457
#     4  12  24  40  69 107 148 186 252 327 372 446
#     4  10  25  46  71 109 145 187 258 313 383 451
#     4  10  23  49  79 101 141 198 258 323 378 451
#     4  11  23  44  70 108 156 204 246 300 380 472
#     4  11  23  45  71 110 146 198 255 308 385 467
#     4  12  24  43  75 107 155 197 245 315 387 458
#     4  11  24  44  76 108 152 200 264 307 391 473
#
# _framework density 25.844586
#
# number of rings (size 3 to 8) (size 9 to 14) (size 15 to 20)
#    0.000    1.000    2.500    4.125    1.750    1.000 
#    4.500    1.875    0.000    0.000    0.000    0.000 
#    0.000    0.000    0.000    0.000    0.000    0.000 
#
# Total GULP energy -179032.476317 kJ/mol
# GULP energy per Si atom -5594.764885 kJ/mol
# Density = 2.578576 g / cm^3
# Si number density = 25.844586 Si / 1000 Ang^3
#
#
#
# Elastic Constant Matrix: (Units=GPa)
#
#
# Indices 1 2 3 4 5 6 
#
# 1 100.0007 30.8579 29.2085 0.0000 -12.6515 0.0000
# 2 30.8579 106.9321 63.5762 0.0000 2.4681 0.0000
# 3 29.2085 63.5762 156.1457 0.0000 -25.2764 0.0000
# 4 0.0000 0.0000 0.0000 17.2516 0.0000 7.6683
# 5 -12.6515 2.4681 -25.2764 0.0000 52.3473 0.0000
# 6 0.0000 0.0000 0.0000 7.6683 0.0000 17.3654
#
#
#
# Elastic Compliance Matrix: (Units=1/GPa)
#
#
# Indices 1 2 3 4 5 6 
#
# 1 0.011425 -0.003098 -0.000440 0.000000 0.002695 0.000000
# 2 -0.003098 0.013715 -0.005674 0.000000 -0.004135 0.000000
# 3 -0.000440 -0.005674 0.009571 0.000000 0.004783 0.000000
# 4 0.000000 0.000000 0.000000 0.072122 0.000000 -0.031848
# 5 0.002695 -0.004135 0.004783 0.000000 0.022259 0.000000
# 6 0.000000 0.000000 0.000000 -0.031848 0.000000 0.071649
#
#
# Mechanical properties :
#
#
# Convention : Reuss Voigt Hill
#
# Bulk Modulus (GPa) = 61.39511 67.81820 64.60666
# Shear Modulus (GPa) = 22.26258 33.35527 27.80892
#
# Velocity S-wave (km/s) = 2.93815 3.59640 3.28381
# Velocity P-wave (km/s) = 5.94284 6.59873 6.27935
#
# Compressibility (1/GPa) = 0.01628794
#
# Stress axis : x y z
#
# Youngs Moduli (GPa) = 87.52563 72.91547 104.48367
#
# Poissons Ratio (x) = 0.22588 0.04593
# Poissons Ratio (y) = 0.27114 0.59283
# Poissons Ratio (z) = 0.03848 0.41371
#
# Static dielectric constant tensor:
#      x y z
#    x 15.282700 0.000000 20.082400 
#    y 0.000000 2.027920 0.000000 
#    z 20.082400 0.000000 32.636790 
# 
# From -- ./inp_files/162566.got.cif
#   From: 2010.05.17/outbox.cif.g08.bks.cpg/sg15_82_cif.got.tgz:162566.got - 2010.06.03 18:47:42.
