data_PCOD9297572
_publ_section_title
;
Structure prediction by ZEFSAII (Michael W. Deem and Ramdas Pophale) SiO2 
 PCOD9297572
Probable space group: C 2/C
;
_chemical_formula_sum "Si O2"
_cell_formula_units_Z 40
_cell_length_a 9.203040
_cell_length_b 28.268457
_cell_length_c 8.294670
_cell_angle_alpha 90.000000
_cell_angle_beta 117.213348
_cell_angle_gamma 90.000000
_cell_volume 1919.047098
_symmetry_space_group_name_H-M "C 2/C"
_symmetry_group_IT_number 15
_symmetry_cell_setting 'monoclinic'
loop_
_space_group_symop_operation_xyz
x,y,z
-x,y,1/2-z
-x,-y,-z
x,-y,1/2+z
1/2+x,1/2+y,z
1/2-x,1/2+y,1/2-z
1/2-x,1/2-y,-z
1/2+x,1/2-y,1/2+z
loop_
_atom_site_type_symbol
_atom_site_label
_atom_site_fract_x
_atom_site_fract_y
_atom_site_fract_z
Si Si1 0.333671 0.629788 0.751514
Si Si2 0.423992 0.357897 0.879036
Si Si3 0.187806 0.545153 0.891511
Si Si4 0.317143 0.800263 0.590191
Si Si5 0.687156 0.943621 0.777037
O O1 0.500000 0.612183 0.750000
O O2 0.255709 0.586488 0.810692
O O3 0.222803 0.661885 0.576687
O O4 0.424914 0.660082 0.935847
O O5 0.500000 0.372036 0.750000
O O6 0.293489 0.316507 0.815312
O O7 0.314051 0.402335 0.882072
O O8 0.253157 0.492980 0.882428
O O9 0.000000 0.541327 0.750000
O O10 0.190147 0.553935 0.083982
O O11 0.500000 0.800212 0.750000
O O12 0.250000 0.750000 0.500000
O O13 0.500000 0.935264 0.750000
#
# Coordination Sequence:
#
# PCOD9297572 Si02
#       5
#     8   8   8   8   8
#     4  10  24  41  66 100 139 178 227 286 343 408
#     4  11  23  43  67 102 142 177 231 281 343 410
#     4  11  24  39  62  98 140 187 248 281 344 407
#     4  11  25  48  78 102 135 177 223 282 357 418
#     4  11  24  40  64  97 141 195 239 290 339 409
#
# _framework density 20.843675999999999
#
# number of rings (size 3 to 8) (size 9 to 14) (size 15 to 20)
#    0.000    1.200    2.000    4.800   14.000    1.600 
#    0.000    5.000    0.000    0.000    0.000    0.000 
#    0.000    0.000    0.000    0.000    0.000    0.000 
#
# Total GULP energy -111375.410899 kJ/mol
# GULP energy per Si atom -5568.770545 kJ/mol
# Density = 2.079624 g / cm^3
# Si number density = 20.843676 Si / 1000 Ang^3
#
#
#
# Elastic Constant Matrix: (Units=GPa)
#
#
# Indices 1 2 3 4 5 6 
#
# 1 107.8134 79.1113 45.1347 0.0000 2.1647 0.0000
# 2 79.1113 131.9225 56.5738 0.0000 -0.2483 0.0000
# 3 45.1347 56.5738 157.4696 0.0000 11.1395 0.0000
# 4 0.0000 0.0000 0.0000 39.4052 0.0000 5.3822
# 5 2.1647 -0.2483 11.1395 0.0000 37.5003 0.0000
# 6 0.0000 0.0000 0.0000 5.3822 0.0000 26.5991
#
#
#
# Elastic Compliance Matrix: (Units=1/GPa)
#
#
# Indices 1 2 3 4 5 6 
#
# 1 0.016841 -0.009516 -0.001364 0.000000 -0.000630 0.000000
# 2 -0.009516 0.014377 -0.002537 0.000000 0.001398 0.000000
# 3 -0.001364 -0.002537 0.007812 0.000000 -0.002259 0.000000
# 4 0.000000 0.000000 0.000000 0.026099 0.000000 -0.005281
# 5 -0.000630 0.001398 -0.002259 0.000000 0.027383 0.000000
# 6 0.000000 0.000000 0.000000 -0.005281 0.000000 0.038664
#
#
# Mechanical properties :
#
#
# Convention : Reuss Voigt Hill
#
# Bulk Modulus (GPa) = 81.97836 84.31612 83.14724
# Shear Modulus (GPa) = 30.84991 35.12664 32.98827
#
# Velocity S-wave (km/s) = 3.85133 4.10962 3.98257
# Velocity P-wave (km/s) = 7.69366 7.94092 7.81827
#
# Compressibility (1/GPa) = 0.01219834
#
# Stress axis : x y z
#
# Youngs Moduli (GPa) = 59.37763 69.55526 128.00018
#
# Poissons Ratio (x) = 0.66187 0.17458
# Poissons Ratio (y) = 0.56502 0.32469
# Poissons Ratio (z) = 0.08098 0.17644
#
# Static dielectric constant tensor:
#      x y z
#    x 1.928060 0.000000 -0.181530 
#    y 0.000000 1.802150 0.000000 
#    z -0.181530 0.000000 1.970590 
# 
# From -- ./inp_files/25795.got.cif
#   From: 2010.05.17/outbox.cif.g08.bks.cpg/sg15_13_cif.got.tgz:25795.got - 2010.06.03 18:47:42.
