data_PCOD9297842
_publ_section_title
;
Structure prediction by ZEFSAII (Michael W. Deem and Ramdas Pophale) SiO2 
 PCOD9297842
Probable space group: C 2/C
;
_chemical_formula_sum "Si O2"
_cell_formula_units_Z 56
_cell_length_a 16.683657
_cell_length_b 8.864620
_cell_length_c 28.307075
_cell_angle_alpha 90.000000
_cell_angle_beta 42.995222
_cell_angle_gamma 90.000000
_cell_volume 2854.899740
_symmetry_space_group_name_H-M "C 2/C"
_symmetry_group_IT_number 15
_symmetry_cell_setting 'monoclinic'
loop_
_space_group_symop_operation_xyz
x,y,z
-x,y,1/2-z
-x,-y,-z
x,-y,1/2+z
1/2+x,1/2+y,z
1/2-x,1/2+y,1/2-z
1/2-x,1/2-y,-z
1/2+x,1/2-y,1/2+z
loop_
_atom_site_type_symbol
_atom_site_label
_atom_site_fract_x
_atom_site_fract_y
_atom_site_fract_z
Si Si1 0.062541 0.651369 0.171934
Si Si2 0.283824 0.856167 0.549525
Si Si3 0.890307 0.750382 0.165461
Si Si4 0.788767 0.332753 0.101433
Si Si5 0.970135 0.829404 0.026728
Si Si6 0.579494 0.152022 0.605936
Si Si7 0.819803 0.398132 0.194622
O O1 0.189234 0.726446 0.123021
O O2 0.078478 0.484872 0.143417
O O3 0.000000 0.646742 0.250000
O O4 0.983661 0.743645 0.168133
O O5 0.359045 0.730068 0.544731
O O6 0.354868 0.894854 0.470922
O O7 0.156425 0.790395 0.591662
O O8 0.276005 0.002121 0.585109
O O9 0.846446 0.576600 0.180141
O O10 0.780048 0.855845 0.225205
O O11 0.945420 0.805277 0.092709
O O12 0.918274 0.272501 0.034580
O O13 0.775840 0.341443 0.163105
O O14 0.000000 0.000000 0.000000
O O15 0.443398 0.182291 0.653325
#
# Coordination Sequence:
#
# PCOD9297842 Si02
#       7
#     8   8   8   8   8   8   8
#     4  11  24  44  66 100 136 177 221 280 335 397
#     4  11  23  43  68 101 132 171 223 282 338 391
#     4  11  26  43  69 102 135 179 226 281 338 401
#     4  12  23  44  70  94 137 178 221 278 332 401
#     4  12  26  42  71 102 137 178 232 277 341 406
#     4  10  24  42  68  97 134 171 221 278 336 399
#     4  11  23  44  69  97 136 181 223 275 338 403
#
# _framework density 19.615399
#
# number of rings (size 3 to 8) (size 9 to 14) (size 15 to 20)
#    0.000    0.857    4.286    3.000    2.000    8.000 
#    0.000    0.000    0.000    0.000    0.000    0.000 
#    0.000    0.000    0.000    0.000    0.000    0.000 
#
# Total GULP energy -156614.108315 kJ/mol
# GULP energy per Si atom -5593.361011 kJ/mol
# Density = 1.957075 g / cm^3
# Si number density = 19.615399 Si / 1000 Ang^3
#
#
#
# Elastic Constant Matrix: (Units=GPa)
#
#
# Indices 1 2 3 4 5 6 
#
# 1 72.0836 8.0798 -1.9542 0.0000 9.6236 -0.0001
# 2 8.0798 38.6717 6.2033 0.0000 7.2519 0.0001
# 3 -1.9542 6.2033 58.8778 0.0000 28.5186 0.0001
# 4 0.0000 0.0000 0.0000 32.5797 0.0000 0.3497
# 5 9.6236 7.2519 28.5186 0.0000 31.0083 -0.0002
# 6 -0.0001 0.0001 0.0001 0.3497 -0.0002 17.9418
#
#
#
# Elastic Compliance Matrix: (Units=1/GPa)
#
#
# Indices 1 2 3 4 5 6 
#
# 1 0.015468 -0.002374 0.005085 0.000000 -0.008922 0.000000
# 2 -0.002374 0.027414 -0.000394 0.000000 -0.005312 0.000000
# 3 0.005085 -0.000394 0.032306 0.000000 -0.031198 0.000000
# 4 0.000000 0.000000 0.000000 0.030700 0.000000 -0.000598
# 5 -0.008922 -0.005312 -0.031198 0.000000 0.064954 0.000001
# 6 0.000000 0.000000 0.000000 -0.000598 0.000001 0.055748
#
#
# Mechanical properties :
#
#
# Convention : Reuss Voigt Hill
#
# Bulk Modulus (GPa) = 12.52796 21.58788 17.05792
# Shear Modulus (GPa) = 20.11554 26.79292 23.45423
#
# Velocity S-wave (km/s) = 3.20581 3.69983 3.46165
# Velocity P-wave (km/s) = 4.48371 5.41121 4.96915
#
# Compressibility (1/GPa) = 0.07982147
#
# Stress axis : x y z
#
# Youngs Moduli (GPa) = 64.64987 36.47759 30.95386
#
# Poissons Ratio (x) = 0.08661 -0.15741
# Poissons Ratio (y) = 0.15350 0.01220
# Poissons Ratio (z) = -0.32876 0.01438
#
# Static dielectric constant tensor:
#      x y z
#    x 1.685230 0.000000 0.005550 
#    y 0.000000 1.658130 0.000000 
#    z 0.005550 0.000000 1.682450 
# 
# From -- ./inp_files/315484.got.cif
#   From: 2010.05.17/outbox.cif.g08.bks.cpg/sg15_158_cif.got.tgz:315484.got - 2010.06.03 18:47:42.
