data_PCOD9297867
_publ_section_title
;
Structure prediction by ZEFSAII (Michael W. Deem and Ramdas Pophale) SiO2 
 PCOD9297867
Probable space group: C 2/C
;
_chemical_formula_sum "Si O2"
_cell_formula_units_Z 40
_cell_length_a 8.128048
_cell_length_b 26.200553
_cell_length_c 8.681914
_cell_angle_alpha 90.000000
_cell_angle_beta 91.370243
_cell_angle_gamma 90.000000
_cell_volume 1848.366081
_symmetry_space_group_name_H-M "C 2/C"
_symmetry_group_IT_number 15
_symmetry_cell_setting 'monoclinic'
loop_
_space_group_symop_operation_xyz
x,y,z
-x,y,1/2-z
-x,-y,-z
x,-y,1/2+z
1/2+x,1/2+y,z
1/2-x,1/2+y,1/2-z
1/2-x,1/2-y,-z
1/2+x,1/2-y,1/2+z
loop_
_atom_site_type_symbol
_atom_site_label
_atom_site_fract_x
_atom_site_fract_y
_atom_site_fract_z
Si Si1 0.333004 0.998537 0.400842
Si Si2 0.411265 0.660665 0.503716
Si Si3 0.000000 0.408688 0.250000
Si Si4 0.764054 0.672375 0.671078
Si Si5 0.343000 0.551740 0.346910
Si Si6 0.000000 0.238868 0.250000
O O1 0.359064 0.945920 0.309401
O O2 0.191877 0.989262 0.521448
O O3 0.500000 0.000000 0.500000
O O4 0.301972 0.044145 0.282344
O O5 0.600281 0.663498 0.568609
O O6 0.295650 0.668130 0.650876
O O7 0.366961 0.606956 0.422481
O O8 0.406119 0.704019 0.372743
O O9 0.899926 0.370953 0.136841
O O10 0.864668 0.725121 0.663936
O O11 0.500000 0.538660 0.250000
#
# Coordination Sequence:
#
# PCOD9297867 Si02
#       6
#     8   8   4   8   8   4
#     4  12  25  45  67  97 139 180 228 274 333 400
#     4  11  23  43  68  98 137 171 230 278 339 402
#     4  11  22  40  66  92 134 176 226 263 336 394
#     4  10  24  42  69  95 134 180 215 284 347 396
#     4  12  26  44  68 100 136 182 229 279 336 400
#     4  11  22  44  68 100 126 174 228 281 342 406
#
# _framework density 21.640734999999999
#
# number of rings (size 3 to 8) (size 9 to 14) (size 15 to 20)
#    0.000    0.800    5.000    1.800    2.800    1.600 
#    0.000    0.000    4.400    0.000    0.000    0.000 
#    0.000    0.000    0.000    0.000    0.000    0.000 
#
# Total GULP energy -111634.983173 kJ/mol
# GULP energy per Si atom -5581.749159 kJ/mol
# Density = 2.159148 g / cm^3
# Si number density = 21.640735 Si / 1000 Ang^3
#
#
#
# Elastic Constant Matrix: (Units=GPa)
#
#
# Indices 1 2 3 4 5 6 
#
# 1 87.2780 26.9806 22.1462 0.0000 2.8413 0.0000
# 2 26.9806 95.9136 61.5971 0.0000 18.8313 0.0000
# 3 22.1462 61.5971 92.6427 0.0000 3.9478 0.0000
# 4 0.0000 0.0000 0.0000 27.4002 0.0000 -2.7365
# 5 2.8413 18.8313 3.9478 0.0000 49.2254 0.0000
# 6 0.0000 0.0000 0.0000 -2.7365 0.0000 35.2462
#
#
#
# Elastic Compliance Matrix: (Units=1/GPa)
#
#
# Indices 1 2 3 4 5 6 
#
# 1 0.012629 -0.002961 -0.001071 0.000000 0.000490 0.000000
# 2 -0.002961 0.020854 -0.012869 0.000000 -0.006775 0.000000
# 3 -0.001071 -0.012869 0.019461 0.000000 0.003424 0.000000
# 4 0.000000 0.000000 0.000000 0.036781 0.000000 0.002856
# 5 0.000490 -0.006775 0.003424 0.000000 0.022603 0.000000
# 6 0.000000 0.000000 0.000000 0.002856 0.000000 0.028594
#
#
# Mechanical properties :
#
#
# Convention : Reuss Voigt Hill
#
# Bulk Modulus (GPa) = 52.24257 55.25357 53.74807
# Shear Modulus (GPa) = 27.60853 33.38173 30.49513
#
# Velocity S-wave (km/s) = 3.57566 3.93178 3.75794
# Velocity P-wave (km/s) = 6.42187 6.79702 6.61211
#
# Compressibility (1/GPa) = 0.01914148
#
# Stress axis : x y z
#
# Youngs Moduli (GPa) = 79.18436 47.95340 51.38554
#
# Poissons Ratio (x) = 0.14197 0.05505
# Poissons Ratio (y) = 0.23443 0.66128
# Poissons Ratio (z) = 0.08483 0.61711
#
# Static dielectric constant tensor:
#      x y z
#    x 1.890700 0.000000 -0.411480 
#    y 0.000000 1.798390 0.000000 
#    z -0.411480 0.000000 4.558920 
# 
# From -- ./inp_files/23801.got.cif
#   From: 2010.05.17/outbox.cif.g08.bks.cpg/sg15_12_cif.got.tgz:23801.got - 2010.06.03 18:47:42.
