data_PCOD9297224
_publ_section_title
;
Structure prediction by ZEFSAII (Michael W. Deem and Ramdas Pophale) SiO2 
 PCOD9297224
Probable space group: C 2/C
;
_chemical_formula_sum "Si O2"
_cell_formula_units_Z 44
_cell_length_a 13.395935
_cell_length_b 23.129705
_cell_length_c 12.490687
_cell_angle_alpha 90.000000
_cell_angle_beta 39.612745
_cell_angle_gamma 90.000000
_cell_volume 2467.599109
_symmetry_space_group_name_H-M "C 2/C"
_symmetry_group_IT_number 15
_symmetry_cell_setting 'monoclinic'
loop_
_space_group_symop_operation_xyz
x,y,z
-x,y,1/2-z
-x,-y,-z
x,-y,1/2+z
1/2+x,1/2+y,z
1/2-x,1/2+y,1/2-z
1/2-x,1/2-y,-z
1/2+x,1/2-y,1/2+z
loop_
_atom_site_type_symbol
_atom_site_label
_atom_site_fract_x
_atom_site_fract_y
_atom_site_fract_z
Si Si1 0.666842 0.413468 0.825434
Si Si2 0.666995 0.969449 0.368375
Si Si3 0.500000 0.756319 0.250000
Si Si4 0.311919 0.580202 0.548093
Si Si5 0.780946 0.330443 0.559402
Si Si6 0.170034 0.950151 0.058711
O O1 0.708568 0.478185 0.750460
O O2 0.772220 0.367993 0.674028
O O3 0.485459 0.403637 0.945305
O O4 0.690827 0.414282 0.932780
O O5 0.698335 0.926766 0.243783
O O6 0.702295 0.941742 0.453933
O O7 0.500000 0.000000 0.500000
O O8 0.359460 0.715973 0.325826
O O9 0.435915 0.796070 0.399005
O O10 0.253980 0.625395 0.508861
O O11 0.321167 0.517297 0.484840
O O12 0.000000 0.938989 0.250000
#
# Coordination Sequence:
#
# PCOD9297224 Si02
#       6
#     8   8   4   8   8   8
#     4  11  20  34  57  78 118 153 189 230 283 349
#     4  11  23  33  52  88 119 158 188 229 280 358
#     4  10  24  36  60  82 116 142 204 252 304 346
#     4  11  19  33  58  78 118 155 188 229 285 344
#     4  11  21  39  57  90 110 151 191 254 300 339
#     4  11  18  34  55  82 114 158 191 215 274 368
#
# _framework density 17.831097
#
# number of rings (size 3 to 8) (size 9 to 14) (size 15 to 20)
#    0.000    1.091    7.273    1.091    2.545    2.909 
#    0.000    0.000    0.000    0.000    0.000   14.000 
#    0.000    0.000    0.000    0.000    0.000    0.000 
#
# Total GULP energy -122894.721686 kJ/mol
# GULP energy per Si atom -5586.123713 kJ/mol
# Density = 1.779051 g / cm^3
# Si number density = 17.831097 Si / 1000 Ang^3
#
#
#
# Elastic Constant Matrix: (Units=GPa)
#
#
# Indices 1 2 3 4 5 6 
#
# 1 99.2424 23.0739 49.7137 0.0000 33.5850 0.0000
# 2 23.0739 72.2448 44.8097 0.0000 20.2602 0.0000
# 3 49.7137 44.8097 93.2246 0.0000 29.5452 0.0000
# 4 0.0000 0.0000 0.0000 37.5613 0.0000 4.3184
# 5 33.5850 20.2602 29.5452 0.0000 36.2234 0.0000
# 6 0.0000 0.0000 0.0000 4.3184 0.0000 10.6511
#
#
#
# Elastic Compliance Matrix: (Units=1/GPa)
#
#
# Indices 1 2 3 4 5 6 
#
# 1 0.016551 0.001625 -0.006009 0.000000 -0.011353 0.000000
# 2 0.001625 0.020427 -0.008883 0.000000 -0.005686 0.000000
# 3 -0.006009 -0.008883 0.020041 0.000000 -0.005807 0.000000
# 4 0.000000 0.000000 0.000000 0.027925 0.000000 -0.011322
# 5 -0.011353 -0.005686 -0.005807 0.000000 0.046049 0.000000
# 6 0.000000 0.000000 0.000000 -0.011322 0.000000 0.098477
#
#
# Mechanical properties :
#
#
# Convention : Reuss Voigt Hill
#
# Bulk Modulus (GPa) = 32.80322 55.54515 44.17419
# Shear Modulus (GPa) = 18.78533 26.69481 22.74007
#
# Velocity S-wave (km/s) = 3.24931 3.87343 3.57501
# Velocity P-wave (km/s) = 5.70210 7.15702 6.47058
#
# Compressibility (1/GPa) = 0.03048482
#
# Stress axis : x y z
#
# Youngs Moduli (GPa) = 60.42103 48.95434 49.89744
#
# Poissons Ratio (x) = -0.07954 0.29983
# Poissons Ratio (y) = -0.09817 0.44323
# Poissons Ratio (z) = 0.36306 0.43486
#
# Static dielectric constant tensor:
#      x y z
#    x 1.612650 0.000000 -0.003480 
#    y 0.000000 1.593610 0.000000 
#    z -0.003480 0.000000 1.650050 
# 
# From -- ./inp_files/32231.got.cif
#   From: 2010.05.17/outbox.cif.g08.bks.cpg/sg15_17_cif.got.tgz:32231.got - 2010.06.03 18:47:42.
