data_PCOD9297829
_publ_section_title
;
Structure prediction by ZEFSAII (Michael W. Deem and Ramdas Pophale) SiO2 
 PCOD9297829
Probable space group: C 2/C
;
_chemical_formula_sum "Si O2"
_cell_formula_units_Z 20
_cell_length_a 12.053756
_cell_length_b 8.391364
_cell_length_c 9.288472
_cell_angle_alpha 90.000000
_cell_angle_beta 129.973435
_cell_angle_gamma 90.000000
_cell_volume 719.982731
_symmetry_space_group_name_H-M "C 2/C"
_symmetry_group_IT_number 15
_symmetry_cell_setting 'monoclinic'
loop_
_space_group_symop_operation_xyz
x,y,z
-x,y,1/2-z
-x,-y,-z
x,-y,1/2+z
1/2+x,1/2+y,z
1/2-x,1/2+y,1/2-z
1/2-x,1/2-y,-z
1/2+x,1/2-y,1/2+z
loop_
_atom_site_type_symbol
_atom_site_label
_atom_site_fract_x
_atom_site_fract_y
_atom_site_fract_z
Si Si1 0.158007 0.477633 0.201731
Si Si2 0.647947 0.577468 0.913974
Si Si3 0.500000 0.279062 0.750000
O O1 0.233750 0.613147 0.365291
O O2 0.264125 0.456146 0.156716
O O3 0.118211 0.329681 0.272275
O O4 0.000000 0.500000 0.000000
O O5 0.500000 0.668968 0.750000
O O6 0.580569 0.408331 0.917523
#
# Coordination Sequence:
#
# PCOD9297829 Si02
#       3
#     8   8   4
#     4  12  21  41  69  98 128 171 216 268 318 382
#     4  10  24  42  68  94 131 173 214 263 324 383
#     4  10  24  42  72  88 134 174 214 254 338 374
#
# _framework density 27.778444
#
# number of rings (size 3 to 8) (size 9 to 14) (size 15 to 20)
#    1.200    0.000    4.000    2.400    0.000    0.000 
#    0.000    2.000   13.200    0.000    0.000    0.000 
#    0.000    0.000    0.000    0.000    0.000    0.000 
#
# Total GULP energy -55844.760228 kJ/mol
# GULP energy per Si atom -5584.476023 kJ/mol
# Density = 2.771522 g / cm^3
# Si number density = 27.778444 Si / 1000 Ang^3
#
#
#
# Elastic Constant Matrix: (Units=GPa)
#
#
# Indices 1 2 3 4 5 6 
#
# 1 223.5655 10.4295 94.6227 0.0000 30.7191 0.0000
# 2 10.4295 64.7579 19.7119 0.0000 13.5949 0.0000
# 3 94.6227 19.7119 224.6300 0.0000 29.6959 0.0000
# 4 0.0000 0.0000 0.0000 32.2374 0.0000 17.7965
# 5 30.7191 13.5949 29.6959 0.0000 69.4286 0.0000
# 6 0.0000 0.0000 0.0000 17.7965 0.0000 46.5268
#
#
#
# Elastic Compliance Matrix: (Units=1/GPa)
#
#
# Indices 1 2 3 4 5 6 
#
# 1 0.005598 0.000085 -0.002158 0.000000 -0.001571 0.000000
# 2 0.000085 0.016345 -0.001105 0.000000 -0.002766 0.000000
# 3 -0.002158 -0.001105 0.005621 0.000000 -0.001233 0.000000
# 4 0.000000 0.000000 0.000000 0.039323 0.000000 -0.015041
# 5 -0.001571 -0.002766 -0.001233 0.000000 0.016167 0.000000
# 6 0.000000 0.000000 0.000000 -0.015041 0.000000 0.027246
#
#
# Mechanical properties :
#
#
# Convention : Reuss Voigt Hill
#
# Bulk Modulus (GPa) = 47.14948 84.72019 65.93484
# Shear Modulus (GPa) = 40.41208 55.51786 47.96497
#
# Velocity S-wave (km/s) = 3.81832 4.47541 4.15986
# Velocity P-wave (km/s) = 6.03736 7.56773 6.84544
#
# Compressibility (1/GPa) = 0.02120914
#
# Stress axis : x y z
#
# Youngs Moduli (GPa) = 178.63031 61.17971 177.91331
#
# Poissons Ratio (x) = -0.00520 0.38393
# Poissons Ratio (y) = -0.01518 0.19651
# Poissons Ratio (z) = 0.38548 0.06757
#
# Static dielectric constant tensor:
#      x y z
#    x 2.013580 0.000000 0.081670 
#    y 0.000000 2.303430 0.000000 
#    z 0.081670 0.000000 2.490830 
# 
# From -- ./inp_files/26683.got.cif
#   From: 2010.05.17/outbox.cif.g08.bks.cpg/sg15_14_cif.got.tgz:26683.got - 2010.06.03 18:47:42.
