data_PCOD9297526
_publ_section_title
;
Structure prediction by ZEFSAII (Michael W. Deem and Ramdas Pophale) SiO2 
 PCOD9297526
Probable space group: C 2/C
;
_chemical_formula_sum "Si O2"
_cell_formula_units_Z 48
_cell_length_a 14.633687
_cell_length_b 11.765190
_cell_length_c 25.372857
_cell_angle_alpha 90.000000
_cell_angle_beta 152.651881
_cell_angle_gamma 90.000000
_cell_volume 2006.822630
_symmetry_space_group_name_H-M "C 2/C"
_symmetry_group_IT_number 15
_symmetry_cell_setting 'monoclinic'
loop_
_space_group_symop_operation_xyz
x,y,z
-x,y,1/2-z
-x,-y,-z
x,-y,1/2+z
1/2+x,1/2+y,z
1/2-x,1/2+y,1/2-z
1/2-x,1/2-y,-z
1/2+x,1/2-y,1/2+z
loop_
_atom_site_type_symbol
_atom_site_label
_atom_site_fract_x
_atom_site_fract_y
_atom_site_fract_z
Si Si1 0.760063 0.293229 0.433605
Si Si2 0.943989 0.547258 0.164317
Si Si3 0.118617 0.077571 0.146388
Si Si4 0.582331 0.180898 0.593961
Si Si5 0.770236 0.881084 0.526926
Si Si6 0.556092 0.340579 0.142367
O O1 0.795961 0.348568 0.395905
O O2 0.612336 0.355730 0.398120
O O3 0.973538 0.268317 0.569202
O O4 0.665080 0.166946 0.379945
O O5 0.146027 0.579381 0.237748
O O6 0.000000 0.497022 0.250000
O O7 0.822843 0.460248 0.066443
O O8 0.043965 0.182276 0.072437
O O9 0.064990 0.947037 0.107391
O O10 0.006716 0.096252 0.145184
O O11 0.379362 0.112578 0.500294
O O12 0.732002 0.167696 0.720321
O O13 0.750000 0.750000 0.500000
#
# Coordination Sequence:
#
# PCOD9297526 Si02
#       6
#     8   8   8   8   8   8
#     4  11  23  40  68  99 125 167 231 271 314 390
#     4  12  21  38  69  99 121 167 230 273 317 387
#     4  11  22  39  66  91 131 164 214 270 334 379
#     4  11  22  43  66  93 132 171 213 274 330 389
#     4  10  24  41  60  96 138 167 202 277 346 381
#     4  11  22  38  67  97 127 167 217 273 325 384
#
# _framework density 23.918406999999998
#
# number of rings (size 3 to 8) (size 9 to 14) (size 15 to 20)
#    0.000    1.000    6.667    0.500    0.000    4.000 
#    0.000    0.833    3.667    0.000    0.000    0.000 
#    0.000    0.000    0.000    0.000    0.000    0.000 
#
# Total GULP energy -133943.411234 kJ/mol
# GULP energy per Si atom -5580.975468 kJ/mol
# Density = 2.386397 g / cm^3
# Si number density = 23.918407 Si / 1000 Ang^3
#
#
#
# Elastic Constant Matrix: (Units=GPa)
#
#
# Indices 1 2 3 4 5 6 
#
# 1 78.7783 30.8128 49.0953 -0.0003 17.3989 -0.0001
# 2 30.8128 68.1483 11.3226 0.0004 -1.7480 0.0000
# 3 49.0953 11.3226 81.7424 0.0006 22.9699 -0.0002
# 4 -0.0003 0.0004 0.0006 27.2350 0.0000 10.2053
# 5 17.3989 -1.7480 22.9699 0.0000 40.6585 0.0000
# 6 -0.0001 0.0000 -0.0002 10.2053 0.0000 31.6571
#
#
#
# Elastic Compliance Matrix: (Units=1/GPa)
#
#
# Indices 1 2 3 4 5 6 
#
# 1 0.025141 -0.009363 -0.012680 0.000001 -0.003998 0.000000
# 2 -0.009363 0.018669 0.002005 -0.000001 0.003677 0.000000
# 3 -0.012680 0.002005 0.021424 -0.000001 -0.006591 0.000000
# 4 0.000001 -0.000001 -0.000001 0.041762 0.000000 -0.013463
# 5 -0.003998 0.003677 -0.006591 0.000000 0.030188 0.000000
# 6 0.000000 0.000000 0.000000 -0.013463 0.000000 0.035929
#
#
# Mechanical properties :
#
#
# Convention : Reuss Voigt Hill
#
# Bulk Modulus (GPa) = 39.75108 45.68114 42.71611
# Shear Modulus (GPa) = 22.56581 29.07266 25.81924
#
# Velocity S-wave (km/s) = 3.07489 3.49017 3.28910
# Velocity P-wave (km/s) = 5.40945 5.94827 5.68525
#
# Compressibility (1/GPa) = 0.02515655
#
# Stress axis : x y z
#
# Youngs Moduli (GPa) = 39.77534 53.56557 46.67767
#
# Poissons Ratio (x) = 0.50155 0.59186
# Poissons Ratio (y) = 0.37243 -0.09357
# Poissons Ratio (z) = 0.50434 -0.10737
#
# Static dielectric constant tensor:
#      x y z
#    x 1.953150 0.000000 0.018560 
#    y 0.000000 1.966550 0.000000 
#    z 0.018560 0.000000 1.974590 
# 
# From -- ./inp_files/178215.got.cif
#   From: 2010.05.17/outbox.cif.g08.bks.cpg/sg15_90_cif.got.tgz:178215.got - 2010.06.03 18:47:42.
