data_PCOD9297694
_publ_section_title
;
Structure prediction by ZEFSAII (Michael W. Deem and Ramdas Pophale) SiO2 
 PCOD9297694
Probable space group: C 2/C
;
_chemical_formula_sum "Si O2"
_cell_formula_units_Z 32
_cell_length_a 6.419406
_cell_length_b 7.262207
_cell_length_c 26.195011
_cell_angle_alpha 90.000000
_cell_angle_beta 98.188496
_cell_angle_gamma 90.000000
_cell_volume 1208.736480
_symmetry_space_group_name_H-M "C 2/C"
_symmetry_group_IT_number 15
_symmetry_cell_setting 'monoclinic'
loop_
_space_group_symop_operation_xyz
x,y,z
-x,y,1/2-z
-x,-y,-z
x,-y,1/2+z
1/2+x,1/2+y,z
1/2-x,1/2+y,1/2-z
1/2-x,1/2-y,-z
1/2+x,1/2-y,1/2+z
loop_
_atom_site_type_symbol
_atom_site_label
_atom_site_fract_x
_atom_site_fract_y
_atom_site_fract_z
Si Si1 0.618221 0.130774 0.056935
Si Si2 0.077417 0.365000 0.376814
Si Si3 0.000000 0.000000 0.000000
Si Si4 0.500000 0.506293 0.250000
Si Si5 0.800908 0.313318 0.686262
O O1 0.716958 0.242950 0.108391
O O2 0.520275 0.282218 0.016996
O O3 0.448973 0.989375 0.073626
O O4 0.814237 0.031467 0.037465
O O5 0.085140 0.505418 0.330029
O O6 0.876411 0.236703 0.361512
O O7 0.315181 0.632523 0.265206
O O8 0.568996 0.369811 0.297740
#
# Coordination Sequence:
#
# PCOD9297694 Si02
#       5
#     8   8   4   4   8
#     4  11  24  41  64  91 124 160 204 251 304 361
#     4  12  24  42  64  92 124 162 204 252 304 362
#     4  10  24  42  64  92 124 162 204 252 304 362
#     4  12  24  42  64  92 124 162 204 252 304 362
#     4  12  24  41  64  90 124 160 204 250 304 361
#
# _framework density 26.473928000000001
#
# number of rings (size 3 to 8) (size 9 to 14) (size 15 to 20)
#    0.000    0.500    0.000    9.000    0.000    6.000 
#    0.000    0.000    0.000    0.000    0.000    0.000 
#    0.000    0.000    0.000    0.000    0.000    0.000 
#
# Total GULP energy -89324.111634 kJ/mol
# GULP energy per Si atom -5582.756977 kJ/mol
# Density = 2.641367 g / cm^3
# Si number density = 26.473928 Si / 1000 Ang^3
#
#
#
# Elastic Constant Matrix: (Units=GPa)
#
#
# Indices 1 2 3 4 5 6 
#
# 1 26.6169 31.4003 3.0448 0.0000 -16.6791 0.0000
# 2 31.4003 103.3368 14.5511 0.0000 -7.2876 0.0000
# 3 3.0448 14.5511 56.6791 0.0000 -11.3562 0.0000
# 4 0.0000 0.0000 0.0000 63.4730 0.0000 -8.4958
# 5 -16.6791 -7.2876 -11.3562 0.0000 65.8728 0.0000
# 6 0.0000 0.0000 0.0000 -8.4958 0.0000 38.9195
#
#
#
# Elastic Compliance Matrix: (Units=1/GPa)
#
#
# Indices 1 2 3 4 5 6 
#
# 1 0.073415 -0.021820 0.005074 0.000000 0.017050 0.000000
# 2 -0.021820 0.016556 -0.003955 0.000000 -0.004375 0.000000
# 3 0.005074 -0.003955 0.019219 0.000000 0.004161 0.000000
# 4 0.000000 0.000000 0.000000 0.016229 0.000000 0.003543
# 5 0.017050 -0.004375 0.004161 0.000000 0.019731 0.000000
# 6 0.000000 0.000000 0.000000 0.003543 0.000000 0.026467
#
#
# Mechanical properties :
#
#
# Convention : Reuss Voigt Hill
#
# Bulk Modulus (GPa) = 14.75176 31.62501 23.18839
# Shear Modulus (GPa) = 21.22098 42.82885 32.02491
#
# Velocity S-wave (km/s) = 2.83429 4.02652 3.48182
# Velocity P-wave (km/s) = 4.03673 5.79559 4.99420
#
# Compressibility (1/GPa) = 0.06778850
#
# Stress axis : x y z
#
# Youngs Moduli (GPa) = 13.62116 60.40177 52.03050
#
# Poissons Ratio (x) = 1.31798 -0.26400
# Poissons Ratio (y) = 0.29722 0.20577
# Poissons Ratio (z) = -0.06911 0.23887
#
# Static dielectric constant tensor:
#      x y z
#    x 2.037560 0.000000 0.083670 
#    y 0.000000 1.924870 0.000000 
#    z 0.083670 0.000000 2.139050 
# 
# From -- ./inp_files/304623.got.cif
#   From: 2010.05.17/outbox.cif.g08.bks.cpg/sg15_153_cif.got.tgz:304623.got - 2010.06.03 18:47:42.
