data_PCOD9297998
_publ_section_title
;
Structure prediction by ZEFSAII (Michael W. Deem and Ramdas Pophale) SiO2 
 PCOD9297998
Probable space group: C 2/C
;
_chemical_formula_sum "Si O2"
_cell_formula_units_Z 32
_cell_length_a 9.112102
_cell_length_b 19.762575
_cell_length_c 7.300012
_cell_angle_alpha 90.000000
_cell_angle_beta 107.453295
_cell_angle_gamma 90.000000
_cell_volume 1254.055167
_symmetry_space_group_name_H-M "C 2/C"
_symmetry_group_IT_number 15
_symmetry_cell_setting 'monoclinic'
loop_
_space_group_symop_operation_xyz
x,y,z
-x,y,1/2-z
-x,-y,-z
x,-y,1/2+z
1/2+x,1/2+y,z
1/2-x,1/2+y,1/2-z
1/2-x,1/2-y,-z
1/2+x,1/2-y,1/2+z
loop_
_atom_site_type_symbol
_atom_site_label
_atom_site_fract_x
_atom_site_fract_y
_atom_site_fract_z
Si Si1 0.500000 0.260121 0.250000
Si Si2 0.500000 0.966974 0.750000
Si Si3 0.601376 0.386598 0.515431
Si Si4 0.340042 0.857668 0.905113
Si Si5 0.735091 0.575436 0.690344
O O1 0.573072 0.310982 0.425528
O O2 0.608169 0.210996 0.171727
O O3 0.466913 0.914805 0.903595
O O4 0.350030 0.014552 0.690682
O O5 0.688486 0.381916 0.738476
O O6 0.439790 0.426105 0.451904
O O7 0.707225 0.416777 0.394359
O O8 0.307352 0.860441 0.108320
#
# Coordination Sequence:
#
# PCOD9297998 Si02
#       5
#     4   4   8   8   8
#     4   9  22  42  66 102 128 165 220 272 314 387
#     4  11  26  42  66 100 132 169 224 262 314 399
#     4  10  24  45  65  97 134 165 218 271 320 382
#     4  11  23  42  70  95 129 176 214 263 329 379
#     4  10  24  43  63  99 130 171 214 264 324 380
#
# _framework density 25.517216999999999
#
# number of rings (size 3 to 8) (size 9 to 14) (size 15 to 20)
#    0.000    2.000    0.000    2.250   10.500    5.000 
#    4.500    5.000    0.000    0.000    0.000    0.000 
#    0.000    0.000    0.000    0.000    0.000    0.000 
#
# Total GULP energy -89514.158789 kJ/mol
# GULP energy per Si atom -5594.634924 kJ/mol
# Density = 2.545914 g / cm^3
# Si number density = 25.517217 Si / 1000 Ang^3
#
#
#
# Elastic Constant Matrix: (Units=GPa)
#
#
# Indices 1 2 3 4 5 6 
#
# 1 176.2586 75.7400 38.4849 0.0000 5.1804 0.0000
# 2 75.7400 132.0585 25.1671 0.0000 1.9640 0.0000
# 3 38.4849 25.1671 96.0809 0.0000 -21.5850 0.0000
# 4 0.0000 0.0000 0.0000 44.6934 0.0000 31.7488
# 5 5.1804 1.9640 -21.5850 0.0000 51.8832 0.0000
# 6 0.0000 0.0000 0.0000 31.7488 0.0000 31.7528
#
#
#
# Elastic Compliance Matrix: (Units=1/GPa)
#
#
# Indices 1 2 3 4 5 6 
#
# 1 0.008038 -0.004104 -0.002526 0.000000 -0.001698 0.000000
# 2 -0.004104 0.010144 -0.001112 0.000000 -0.000437 0.000000
# 3 -0.002526 -0.001112 0.012991 0.000000 0.005699 0.000000
# 4 0.000000 0.000000 0.000000 0.077228 0.000000 -0.077218
# 5 -0.001698 -0.000437 0.005699 0.000000 0.021831 0.000000
# 6 0.000000 0.000000 0.000000 -0.077218 0.000000 0.108702
#
#
# Mechanical properties :
#
#
# Convention : Reuss Voigt Hill
#
# Bulk Modulus (GPa) = 63.73139 75.90911 69.82025
# Shear Modulus (GPa) = 19.25679 43.33295 31.29487
#
# Velocity S-wave (km/s) = 2.75009 4.12537 3.50583
# Velocity P-wave (km/s) = 5.92571 7.24599 6.61885
#
# Compressibility (1/GPa) = 0.01569085
#
# Stress axis : x y z
#
# Youngs Moduli (GPa) = 124.40355 98.57788 76.97431
#
# Poissons Ratio (x) = 0.40452 0.19447
# Poissons Ratio (y) = 0.51050 0.08556
# Poissons Ratio (z) = 0.31429 0.10958
#
# Static dielectric constant tensor:
#      x y z
#    x 2.057540 0.000000 0.028450 
#    y 0.000000 1.995300 0.000000 
#    z 0.028450 0.000000 1.980640 
# 
# From -- ./inp_files/22287.got.cif
#   From: 2010.05.17/outbox.cif.g08.bks.cpg/sg15_12_cif.got.tgz:22287.got - 2010.06.03 18:47:42.
