data_PCOD9297864
_publ_section_title
;
Structure prediction by ZEFSAII (Michael W. Deem and Ramdas Pophale) SiO2 
 PCOD9297864
Probable space group: C 2/C
;
_chemical_formula_sum "Si O2"
_cell_formula_units_Z 44
_cell_length_a 22.849463
_cell_length_b 9.094250
_cell_length_c 27.890866
_cell_angle_alpha 90.000000
_cell_angle_beta 20.312464
_cell_angle_gamma 90.000000
_cell_volume 2011.912698
_symmetry_space_group_name_H-M "C 2/C"
_symmetry_group_IT_number 15
_symmetry_cell_setting 'monoclinic'
loop_
_space_group_symop_operation_xyz
x,y,z
-x,y,1/2-z
-x,-y,-z
x,-y,1/2+z
1/2+x,1/2+y,z
1/2-x,1/2+y,1/2-z
1/2-x,1/2-y,-z
1/2+x,1/2-y,1/2+z
loop_
_atom_site_type_symbol
_atom_site_label
_atom_site_fract_x
_atom_site_fract_y
_atom_site_fract_z
Si Si1 0.518578 0.203015 0.319451
Si Si2 0.721461 0.344390 0.798627
Si Si3 0.680607 0.474690 0.058277
Si Si4 0.632646 0.669457 0.894525
Si Si5 0.287037 0.941232 0.372114
Si Si6 0.500000 0.714897 0.250000
O O1 0.609084 0.197221 0.301701
O O2 0.475080 0.361762 0.330921
O O3 0.340624 0.117483 0.453778
O O4 0.644929 0.104063 0.190874
O O5 0.677076 0.517640 0.832631
O O6 0.752719 0.286808 0.721036
O O7 0.562219 0.282027 0.951432
O O8 0.644225 0.605816 0.122334
O O9 0.711430 0.547508 0.982762
O O10 0.672483 0.621397 0.918292
O O11 0.440002 0.825765 0.255292
#
# Coordination Sequence:
#
# PCOD9297864 Si02
#       6
#     8   8   8   8   8   4
#     4  10  24  42  69  92 136 174 226 267 331 402
#     4  10  24  44  68 101 131 180 222 282 329 407
#     4  11  25  41  69  99 131 177 224 275 338 401
#     4  10  25  43  71  96 138 177 227 277 343 389
#     4  11  24  45  66  95 138 172 222 283 333 407
#     4  12  26  38  68 102 132 174 220 280 346 390
#
# _framework density 21.869737000000001
#
# number of rings (size 3 to 8) (size 9 to 14) (size 15 to 20)
#    0.000    1.455    1.818    0.545   15.273    2.182 
#    0.000    0.000    0.000    0.000    0.000    0.000 
#    0.000    0.000    0.000    0.000    0.000    0.000 
#
# Total GULP energy -122757.522710 kJ/mol
# GULP energy per Si atom -5579.887396 kJ/mol
# Density = 2.181996 g / cm^3
# Si number density = 21.869737 Si / 1000 Ang^3
#
#
#
# Elastic Constant Matrix: (Units=GPa)
#
#
# Indices 1 2 3 4 5 6 
#
# 1 71.5146 26.0695 39.8965 -0.0044 -16.7275 -0.0011
# 2 26.0695 56.0236 15.5910 -0.0070 -4.7158 -0.0038
# 3 39.8965 15.5910 67.5417 -0.0049 -4.9586 -0.0032
# 4 -0.0044 -0.0070 -0.0049 28.2219 0.0004 1.8208
# 5 -16.7275 -4.7158 -4.9586 0.0004 31.3974 0.0005
# 6 -0.0011 -0.0038 -0.0032 1.8208 0.0005 23.0277
#
#
#
# Elastic Compliance Matrix: (Units=1/GPa)
#
#
# Indices 1 2 3 4 5 6 
#
# 1 0.026789 -0.007866 -0.013201 0.000000 0.011006 -0.000002
# 2 -0.007866 0.021535 -0.000400 0.000004 -0.001019 0.000003
# 3 -0.013201 -0.000400 0.022435 0.000002 -0.003550 0.000002
# 4 0.000000 0.000004 0.000002 0.035615 0.000000 -0.002816
# 5 0.011006 -0.001019 -0.003550 0.000000 0.037000 -0.000001
# 6 -0.000002 0.000003 0.000002 -0.002816 -0.000001 0.043649
#
#
# Mechanical properties :
#
#
# Convention : Reuss Voigt Hill
#
# Bulk Modulus (GPa) = 35.93586 39.79934 37.86760
# Shear Modulus (GPa) = 20.90032 24.09757 22.49895
#
# Velocity S-wave (km/s) = 3.09475 3.32304 3.21093
# Velocity P-wave (km/s) = 5.40716 5.74120 5.57668
#
# Compressibility (1/GPa) = 0.02782736
#
# Stress axis : x y z
#
# Youngs Moduli (GPa) = 37.32841 46.43554 44.57356
#
# Poissons Ratio (x) = 0.36525 0.58840
# Poissons Ratio (y) = 0.29362 0.01781
# Poissons Ratio (z) = 0.49276 0.01856
#
# Static dielectric constant tensor:
#      x y z
#    x 1.839710 0.000000 -0.057950 
#    y 0.000000 1.784540 0.000010 
#    z -0.057950 0.000010 1.861980 
# 
# From -- ./inp_files/318563.got.cif
#   From: 2010.05.17/outbox.cif.g08.bks.cpg/sg15_160_cif.got.tgz:318563.got - 2010.06.03 18:47:42.
