data_PCOD9297335
_publ_section_title
;
Structure prediction by ZEFSAII (Michael W. Deem and Ramdas Pophale) SiO2 
 PCOD9297335
Probable space group: C 2/C
;
_chemical_formula_sum "Si O2"
_cell_formula_units_Z 28
_cell_length_a 5.263567
_cell_length_b 21.731956
_cell_length_c 11.663243
_cell_angle_alpha 90.000000
_cell_angle_beta 75.744009
_cell_angle_gamma 90.000000
_cell_volume 1293.046124
_symmetry_space_group_name_H-M "C 2/C"
_symmetry_group_IT_number 15
_symmetry_cell_setting 'monoclinic'
loop_
_space_group_symop_operation_xyz
x,y,z
-x,y,1/2-z
-x,-y,-z
x,-y,1/2+z
1/2+x,1/2+y,z
1/2-x,1/2+y,1/2-z
1/2-x,1/2-y,-z
1/2+x,1/2-y,1/2+z
loop_
_atom_site_type_symbol
_atom_site_label
_atom_site_fract_x
_atom_site_fract_y
_atom_site_fract_z
Si Si1 0.500000 0.479478 0.750000
Si Si2 0.788155 0.899668 0.184239
Si Si3 0.843956 0.131682 0.415457
Si Si4 0.142781 0.289866 0.619923
O O1 0.681066 0.526437 0.801728
O O2 0.649876 0.433693 0.649041
O O3 0.500000 0.879565 0.250000
O O4 0.000000 0.874760 0.250000
O O5 0.846974 0.880231 0.050195
O O6 0.583113 0.167308 0.408907
O O7 0.108778 0.170506 0.362860
O O8 0.250000 0.250000 0.500000
O O9 0.000000 0.262177 0.750000
#
# Coordination Sequence:
#
# PCOD9297335 Si02
#       4
#     4   8   8   8
#     4  10  24  40  70 100 150 176 236 256 354 412
#     4  10  24  39  65 106 143 186 220 274 331 418
#     4  12  24  45  72 100 140 184 226 281 352 409
#     4  12  27  48  73 101 133 182 240 299 349 407
#
# _framework density 21.654295000000001
#
# number of rings (size 3 to 8) (size 9 to 14) (size 15 to 20)
#    0.857    0.000    2.857    3.429    4.000    4.571 
#    0.000    0.000    0.000    0.000    0.000    0.000 
#    0.000    0.000    0.000    0.000    0.000    0.000 
#
# Total GULP energy -78198.314562 kJ/mol
# GULP energy per Si atom -5585.593897 kJ/mol
# Density = 2.160501 g / cm^3
# Si number density = 21.654295 Si / 1000 Ang^3
#
#
#
# Elastic Constant Matrix: (Units=GPa)
#
#
# Indices 1 2 3 4 5 6 
#
# 1 172.7770 50.6328 43.8724 0.0000 -2.6432 0.0000
# 2 50.6328 77.5404 45.6302 0.0000 -0.8291 0.0000
# 3 43.8724 45.6302 183.9012 0.0000 -5.6098 0.0000
# 4 0.0000 0.0000 0.0000 23.8082 0.0000 -29.4024
# 5 -2.6432 -0.8291 -5.6098 0.0000 42.1281 0.0000
# 6 0.0000 0.0000 0.0000 -29.4024 0.0000 55.0452
#
#
#
# Elastic Compliance Matrix: (Units=1/GPa)
#
#
# Indices 1 2 3 4 5 6 
#
# 1 0.007226 -0.004340 -0.000638 0.000000 0.000283 0.000000
# 2 -0.004340 0.017710 -0.003370 0.000000 -0.000373 0.000000
# 3 -0.000638 -0.003370 0.006449 0.000000 0.000752 0.000000
# 4 0.000000 0.000000 0.000000 0.123412 0.000000 0.065921
# 5 0.000283 -0.000373 0.000752 0.000000 0.023848 0.000000
# 6 0.000000 0.000000 0.000000 0.065921 0.000000 0.053379
#
#
# Mechanical properties :
#
#
# Convention : Reuss Voigt Hill
#
# Bulk Modulus (GPa) = 68.08293 79.38772 73.73533
# Shear Modulus (GPa) = 19.71481 43.80184 31.75833
#
# Velocity S-wave (km/s) = 3.02061 4.50241 3.83378
# Velocity P-wave (km/s) = 6.60867 7.98561 7.32955
#
# Compressibility (1/GPa) = 0.01468797
#
# Stress axis : x y z
#
# Youngs Moduli (GPa) = 138.38841 56.46653 155.05816
#
# Poissons Ratio (x) = 0.24505 0.09900
# Poissons Ratio (y) = 0.60057 0.52258
# Poissons Ratio (z) = 0.08835 0.19030
#
# Static dielectric constant tensor:
#      x y z
#    x 1.751110 0.000000 -0.002780 
#    y 0.000000 1.794110 0.000000 
#    z -0.002780 0.000000 1.799910 
# 
# From -- ./inp_files/71829.got.cif
#   From: 2010.05.17/outbox.cif.g08.bks.cpg/sg15_36_cif.got.tgz:71829.got - 2010.06.03 18:47:42.
