data_PCOD9297183
_publ_section_title
;
Structure prediction by ZEFSAII (Michael W. Deem and Ramdas Pophale) SiO2 
 PCOD9297183
Probable space group: C 2/C
;
_chemical_formula_sum "Si O2"
_cell_formula_units_Z 32
_cell_length_a 17.622867
_cell_length_b 5.653891
_cell_length_c 18.193610
_cell_angle_alpha 90.000000
_cell_angle_beta 36.044008
_cell_angle_gamma 90.000000
_cell_volume 1066.646020
_symmetry_space_group_name_H-M "C 2/C"
_symmetry_group_IT_number 15
_symmetry_cell_setting 'monoclinic'
loop_
_space_group_symop_operation_xyz
x,y,z
-x,y,1/2-z
-x,-y,-z
x,-y,1/2+z
1/2+x,1/2+y,z
1/2-x,1/2+y,1/2-z
1/2-x,1/2-y,-z
1/2+x,1/2-y,1/2+z
loop_
_atom_site_type_symbol
_atom_site_label
_atom_site_fract_x
_atom_site_fract_y
_atom_site_fract_z
Si Si1 0.050413 0.707153 0.906250
Si Si2 0.993475 0.098534 0.844786
Si Si3 0.634752 0.058308 0.602585
Si Si4 0.768720 0.378704 0.825120
O O1 0.964996 0.853798 0.912837
O O2 0.127014 0.866006 0.904503
O O3 0.861391 0.847203 0.240149
O O4 0.000000 0.500000 0.000000
O O5 0.081934 0.353769 0.587595
O O6 0.000000 0.075712 0.750000
O O7 0.788204 0.412896 0.895565
O O8 0.500000 0.122827 0.750000
O O9 0.750000 0.250000 0.500000
O O10 0.837769 0.594686 0.730980
#
# Coordination Sequence:
#
# PCOD9297183 Si02
#       4
#     8   8   8   8
#     4  12  25  49  90 124 173 245 316 397 484 572
#     4   9  22  49  84 127 176 240 307 392 478 585
#     4   9  21  50  93 132 184 248 316 391 487 583
#     4  10  23  50  84 121 177 232 311 393 480 573
#
# _framework density 30.000582000000001
#
# number of rings (size 3 to 8) (size 9 to 14) (size 15 to 20)
#    0.000    2.500    2.500    0.000    0.000    5.000 
#    9.000   11.250    5.500   27.000    0.000    0.000 
#    0.000    0.000    0.000    0.000    0.000    0.000 
#
# Total GULP energy -89300.649088 kJ/mol
# GULP energy per Si atom -5581.290568 kJ/mol
# Density = 2.993230 g / cm^3
# Si number density = 30.000582 Si / 1000 Ang^3
#
#
#
# Elastic Constant Matrix: (Units=GPa)
#
#
# Indices 1 2 3 4 5 6 
#
# 1 251.0215 62.0205 71.5594 -0.0063 -16.6593 0.0084
# 2 62.0205 202.9246 97.5515 -0.0126 -5.0469 0.0221
# 3 71.5594 97.5515 129.4844 0.0000 -19.6979 0.0027
# 4 -0.0063 -0.0126 0.0000 63.2234 0.0024 24.5009
# 5 -16.6593 -5.0469 -19.6979 0.0024 72.3871 -0.0057
# 6 0.0084 0.0221 0.0027 24.5009 -0.0057 46.4180
#
#
#
# Elastic Compliance Matrix: (Units=1/GPa)
#
#
# Indices 1 2 3 4 5 6 
#
# 1 0.004753 -0.000331 -0.002310 0.000001 0.000442 -0.000001
# 2 -0.000331 0.007833 -0.005890 0.000004 -0.001133 -0.000005
# 3 -0.002310 -0.005890 0.013868 -0.000003 0.002831 0.000004
# 4 0.000001 0.000004 -0.000003 0.019884 -0.000002 -0.010496
# 5 0.000442 -0.001133 0.002831 -0.000002 0.014608 0.000003
# 6 -0.000001 -0.000005 0.000004 -0.010496 0.000003 0.027083
#
#
# Mechanical properties :
#
#
# Convention : Reuss Voigt Hill
#
# Bulk Modulus (GPa) = 106.48790 116.18813 111.33802
# Shear Modulus (GPa) = 46.20088 59.89231 53.04660
#
# Velocity S-wave (km/s) = 3.92854 4.47292 4.20954
# Velocity P-wave (km/s) = 7.49335 8.09251 7.79869
#
# Compressibility (1/GPa) = 0.00939074
#
# Stress axis : x y z
#
# Youngs Moduli (GPa) = 210.37205 127.67130 72.10851
#
# Poissons Ratio (x) = 0.04229 0.16658
# Poissons Ratio (y) = 0.06969 0.42474
# Poissons Ratio (z) = 0.48599 0.75202
#
# Static dielectric constant tensor:
#      x y z
#    x 2.403180 -0.000010 0.002620 
#    y -0.000010 2.670610 0.000000 
#    z 0.002620 0.000000 3.089000 
# 
# From -- ./inp_files/254178.got.cif
#   From: 2010.05.17/outbox.cif.g08.bks.cpg/sg15_128_cif.got.tgz:254178.got - 2010.06.03 18:47:42.
