data_PCOD9297559
_publ_section_title
;
Structure prediction by ZEFSAII (Michael W. Deem and Ramdas Pophale) SiO2 
 PCOD9297559
Probable space group: C 2/C
;
_chemical_formula_sum "Si O2"
_cell_formula_units_Z 64
_cell_length_a 11.818580
_cell_length_b 30.049820
_cell_length_c 9.142769
_cell_angle_alpha 90.000000
_cell_angle_beta 103.340558
_cell_angle_gamma 90.000000
_cell_volume 3159.401401
_symmetry_space_group_name_H-M "C 2/C"
_symmetry_group_IT_number 15
_symmetry_cell_setting 'monoclinic'
loop_
_space_group_symop_operation_xyz
x,y,z
-x,y,1/2-z
-x,-y,-z
x,-y,1/2+z
1/2+x,1/2+y,z
1/2-x,1/2+y,1/2-z
1/2-x,1/2-y,-z
1/2+x,1/2-y,1/2+z
loop_
_atom_site_type_symbol
_atom_site_label
_atom_site_fract_x
_atom_site_fract_y
_atom_site_fract_z
Si Si1 0.605466 0.635709 0.517455
Si Si2 0.448974 0.714400 0.569219
Si Si3 0.531276 0.454087 0.588698
Si Si4 0.233051 0.159099 0.855455
Si Si5 0.739416 0.911596 0.929866
Si Si6 0.513372 0.192693 0.580408
Si Si7 0.494711 0.952592 0.572661
Si Si8 0.670614 0.873899 0.611022
O O1 0.510858 0.675724 0.490268
O O2 0.539764 0.588206 0.498851
O O3 0.682629 0.650378 0.680409
O O4 0.700647 0.631230 0.416995
O O5 0.500000 0.715092 0.750000
O O6 0.317989 0.700616 0.569667
O O7 0.467597 0.760813 0.495649
O O8 0.500000 0.456573 0.750000
O O9 0.500000 0.500000 0.500000
O O10 0.669502 0.444905 0.615609
O O11 0.370717 0.163240 0.897663
O O12 0.190542 0.117106 0.934009
O O13 0.633976 0.933308 0.986080
O O14 0.686131 0.879002 0.790138
O O15 0.500000 0.200281 0.750000
O O16 0.407250 0.166422 0.473107
O O17 0.500000 0.957188 0.750000
O O18 0.596467 0.918836 0.551345
O O19 0.500000 0.000000 0.500000
#
# Coordination Sequence:
#
# PCOD9297559 Si02
#       8
#     8   8   8   8   8   8   8   8
#     4  11  24  47  66  96 138 174 222 273 333 397
#     4  10  25  43  67  97 135 175 222 278 332 402
#     4  12  28  45  70 103 135 177 225 276 334 397
#     4  11  23  44  69  97 130 176 222 273 334 391
#     4  11  24  43  71  95 133 179 215 275 336 389
#     4  12  25  43  67 102 132 175 227 275 337 397
#     4  10  24  41  64  96 129 169 218 267 326 391
#     4  11  24  44  65  98 135 173 227 272 327 402
#
# _framework density 20.257002
#
# number of rings (size 3 to 8) (size 9 to 14) (size 15 to 20)
#    0.000    1.000    5.000    0.375    5.250    3.500 
#    0.000    0.000    0.000    0.000    0.000    0.000 
#    0.000    0.000    0.000    0.000    0.000    0.000 
#
# Total GULP energy -178509.257186 kJ/mol
# GULP energy per Si atom -5578.414287 kJ/mol
# Density = 2.021090 g / cm^3
# Si number density = 20.257002 Si / 1000 Ang^3
#
#
#
# Elastic Constant Matrix: (Units=GPa)
#
#
# Indices 1 2 3 4 5 6 
#
# 1 76.9551 7.7275 12.2079 0.0000 -16.2062 0.0000
# 2 7.7275 109.1862 35.6997 0.0000 -14.0637 0.0000
# 3 12.2079 35.6997 38.0276 0.0000 -24.5962 0.0000
# 4 0.0000 0.0000 0.0000 37.8290 0.0000 -6.2020
# 5 -16.2062 -14.0637 -24.5962 0.0000 28.0530 0.0000
# 6 0.0000 0.0000 0.0000 -6.2020 0.0000 24.7231
#
#
#
# Elastic Compliance Matrix: (Units=1/GPa)
#
#
# Indices 1 2 3 4 5 6 
#
# 1 0.014867 -0.000527 0.002555 0.000000 0.010565 0.000000
# 2 -0.000527 0.014519 -0.020675 0.000000 -0.011153 0.000000
# 3 0.002555 -0.020675 0.090405 0.000000 0.070377 0.000000
# 4 0.000000 0.000000 0.000000 0.027569 0.000000 0.006916
# 5 0.010565 -0.011153 0.070377 0.000000 0.097864 0.000000
# 6 0.000000 0.000000 0.000000 0.006916 0.000000 0.042183
#
#
# Mechanical properties :
#
#
# Convention : Reuss Voigt Hill
#
# Bulk Modulus (GPa) = 12.12144 37.27102 24.69623
# Shear Modulus (GPa) = 14.19650 29.35660 21.77655
#
# Velocity S-wave (km/s) = 2.65017 3.81098 3.28230
# Velocity P-wave (km/s) = 3.91936 6.14847 5.15583
#
# Compressibility (1/GPa) = 0.08249848
#
# Stress axis : x y z
#
# Youngs Moduli (GPa) = 67.26285 68.87361 11.06131
#
# Poissons Ratio (x) = 0.03629 -0.02827
# Poissons Ratio (y) = 0.03544 0.22869
# Poissons Ratio (z) = -0.17188 1.42396
#
# Static dielectric constant tensor:
#      x y z
#    x 1.827530 0.000000 0.041040 
#    y 0.000000 1.712830 0.000000 
#    z 0.041040 0.000000 1.726400 
# 
# From -- ./inp_files/35696.got.cif
#   From: 2010.05.17/outbox.cif.g08.bks.cpg/sg15_18_cif.got.tgz:35696.got - 2010.06.03 18:47:42.
