data_PCOD9297819
_publ_section_title
;
Structure prediction by ZEFSAII (Michael W. Deem and Ramdas Pophale) SiO2 
 PCOD9297819
Probable space group: C 2/C
;
_chemical_formula_sum "Si O2"
_cell_formula_units_Z 32
_cell_length_a 7.502078
_cell_length_b 6.686420
_cell_length_c 27.106395
_cell_angle_alpha 90.000000
_cell_angle_beta 115.657892
_cell_angle_gamma 90.000000
_cell_volume 1225.638427
_symmetry_space_group_name_H-M "C 2/C"
_symmetry_group_IT_number 15
_symmetry_cell_setting 'monoclinic'
loop_
_space_group_symop_operation_xyz
x,y,z
-x,y,1/2-z
-x,-y,-z
x,-y,1/2+z
1/2+x,1/2+y,z
1/2-x,1/2+y,1/2-z
1/2-x,1/2-y,-z
1/2+x,1/2-y,1/2+z
loop_
_atom_site_type_symbol
_atom_site_label
_atom_site_fract_x
_atom_site_fract_y
_atom_site_fract_z
Si Si1 0.000000 0.000000 0.500000
Si Si2 0.500000 0.327607 0.750000
Si Si3 0.984372 0.361046 0.573763
Si Si4 0.868285 0.075376 0.822533
Si Si5 0.873163 0.801265 0.910867
O O1 0.978732 0.770838 0.468929
O O2 0.927159 0.904505 0.546936
O O3 0.690042 0.185081 0.773632
O O4 0.501828 0.467172 0.798209
O O5 0.034147 0.237190 0.629587
O O6 0.100111 0.568051 0.588385
O O7 0.748404 0.400429 0.556431
O O8 0.800827 0.900768 0.852009
#
# Coordination Sequence:
#
# PCOD9297819 Si02
#       5
#     4   4   8   8   8
#     4  10  24  42  68 108 140 186 240 286 370 434
#     4  12  28  48  76 102 146 194 244 310 372 436
#     4  11  24  44  70 101 142 187 234 300 359 440
#     4  11  28  45  70 104 138 185 248 297 368 440
#     4  11  24  44  70 101 142 187 234 300 359 440
#
# _framework density 26.108841000000002
#
# number of rings (size 3 to 8) (size 9 to 14) (size 15 to 20)
#    0.000    1.000    0.000    4.500   10.500    8.000 
#    0.000    0.000    0.000    0.000    0.000    0.000 
#    0.000    0.000    0.000    0.000    0.000    0.000 
#
# Total GULP energy -89273.932778 kJ/mol
# GULP energy per Si atom -5579.620799 kJ/mol
# Density = 2.604942 g / cm^3
# Si number density = 26.108841 Si / 1000 Ang^3
#
#
#
# Elastic Constant Matrix: (Units=GPa)
#
#
# Indices 1 2 3 4 5 6 
#
# 1 89.8296 33.2191 2.0288 0.0000 -2.3082 0.0000
# 2 33.2191 181.4720 42.3547 0.0000 -5.6176 0.0000
# 3 2.0288 42.3547 106.1149 0.0000 -7.4090 0.0000
# 4 0.0000 0.0000 0.0000 57.6841 0.0000 3.0260
# 5 -2.3082 -5.6176 -7.4090 0.0000 37.8535 0.0000
# 6 0.0000 0.0000 0.0000 3.0260 0.0000 24.4319
#
#
#
# Elastic Compliance Matrix: (Units=1/GPa)
#
#
# Indices 1 2 3 4 5 6 
#
# 1 0.012000 -0.002355 0.000747 0.000000 0.000529 0.000000
# 2 -0.002355 0.006546 -0.002545 0.000000 0.000330 0.000000
# 3 0.000747 -0.002545 0.010546 0.000000 0.001732 0.000000
# 4 0.000000 0.000000 0.000000 0.017449 0.000000 -0.002161
# 5 0.000529 0.000330 0.001732 0.000000 0.026838 0.000000
# 6 0.000000 0.000000 0.000000 -0.002161 0.000000 0.041198
#
#
# Mechanical properties :
#
#
# Convention : Reuss Voigt Hill
#
# Bulk Modulus (GPa) = 48.10584 59.18018 53.64301
# Shear Modulus (GPa) = 38.51815 43.98151 41.24983
#
# Velocity S-wave (km/s) = 3.84512 4.10877 3.97913
# Velocity P-wave (km/s) = 6.17886 6.72497 6.45770
#
# Compressibility (1/GPa) = 0.02078750
#
# Stress axis : x y z
#
# Youngs Moduli (GPa) = 83.33589 152.77402 94.82235
#
# Poissons Ratio (x) = 0.35973 -0.07086
# Poissons Ratio (y) = 0.19623 0.24128
# Poissons Ratio (z) = -0.06228 0.38874
#
# Static dielectric constant tensor:
#      x y z
#    x 2.724590 0.000000 0.371130 
#    y 0.000000 2.063590 0.000000 
#    z 0.371130 0.000000 2.189200 
# 
# From -- ./inp_files/290351.got.cif
#   From: 2010.05.17/outbox.cif.g08.bks.cpg/sg15_146_cif.got.tgz:290351.got - 2010.06.03 18:47:42.
