data_PCOD9297247
_publ_section_title
;
Structure prediction by ZEFSAII (Michael W. Deem and Ramdas Pophale) SiO2 
 PCOD9297247
Probable space group: C 2/C
;
_chemical_formula_sum "Si O2"
_cell_formula_units_Z 60
_cell_length_a 19.882829
_cell_length_b 17.406531
_cell_length_c 8.410097
_cell_angle_alpha 90.000000
_cell_angle_beta 118.162854
_cell_angle_gamma 90.000000
_cell_volume 2566.065490
_symmetry_space_group_name_H-M "C 2/C"
_symmetry_group_IT_number 15
_symmetry_cell_setting 'monoclinic'
loop_
_space_group_symop_operation_xyz
x,y,z
-x,y,1/2-z
-x,-y,-z
x,-y,1/2+z
1/2+x,1/2+y,z
1/2-x,1/2+y,1/2-z
1/2-x,1/2-y,-z
1/2+x,1/2-y,1/2+z
loop_
_atom_site_type_symbol
_atom_site_label
_atom_site_fract_x
_atom_site_fract_y
_atom_site_fract_z
Si Si1 0.225329 0.738405 0.656250
Si Si2 0.867030 0.691078 0.449442
Si Si3 0.421375 0.253897 0.847813
Si Si4 0.290091 0.588617 0.641170
Si Si5 0.445244 0.689138 0.841454
Si Si6 0.287346 0.038626 0.266226
Si Si7 0.913785 0.417555 0.425496
Si Si8 0.500000 0.993257 0.250000
O O1 0.250000 0.750000 0.500000
O O2 0.287948 0.764226 0.851106
O O3 0.152105 0.783819 0.637173
O O4 0.230897 0.646136 0.664777
O O5 0.906261 0.721627 0.653699
O O6 0.909196 0.726874 0.341599
O O7 0.841890 0.602779 0.408952
O O8 0.424839 0.173027 0.945658
O O9 0.491193 0.312211 0.946404
O O10 0.374384 0.628448 0.753353
O O11 0.256832 0.579701 0.426867
O O12 0.277028 0.504272 0.700253
O O13 0.500000 0.686225 0.750000
O O14 0.344039 0.969194 0.281519
O O15 0.931968 0.451895 0.618163
O O16 0.980264 0.440241 0.375522
#
# Coordination Sequence:
#
# PCOD9297247 Si02
#       8
#     8   8   8   8   8   8   8   4
#     4  11  22  45  72 104 147 197 260 306 370 455
#     4  11  25  43  73 112 144 192 248 318 377 444
#     4  12  24  42  69 107 143 189 248 313 376 439
#     4  11  25  48  72 113 144 205 251 314 375 450
#     4  11  28  47  75 104 154 202 254 305 380 461
#     4  12  24  45  76 105 154 187 260 309 373 454
#     4  11  24  38  64  99 141 193 231 295 374 448
#     4  10  24  38  54  94 152 186 222 280 376 470
#
# _framework density 23.382102
#
# number of rings (size 3 to 8) (size 9 to 14) (size 15 to 20)
#    0.000    0.800    2.667    4.800    6.533    0.000 
#    0.000    2.000    0.000    0.000    0.000    0.000 
#    0.000    0.000    0.000    0.000    0.000    0.000 
#
# Total GULP energy -167091.998859 kJ/mol
# GULP energy per Si atom -5569.733295 kJ/mol
# Density = 2.332888 g / cm^3
# Si number density = 23.382102 Si / 1000 Ang^3
#
#
#
# Elastic Constant Matrix: (Units=GPa)
#
#
# Indices 1 2 3 4 5 6 
#
# 1 117.0446 33.7923 46.3667 0.0000 10.3643 0.0000
# 2 33.7923 85.2609 38.6668 0.0000 0.5799 0.0000
# 3 46.3667 38.6668 112.9889 0.0000 30.7804 0.0000
# 4 0.0000 0.0000 0.0000 22.8706 0.0000 -13.1302
# 5 10.3643 0.5799 30.7804 0.0000 30.1436 0.0000
# 6 0.0000 0.0000 0.0000 -13.1302 0.0000 13.2643
#
#
#
# Elastic Compliance Matrix: (Units=1/GPa)
#
#
# Indices 1 2 3 4 5 6 
#
# 1 0.010689 -0.002675 -0.003441 0.000000 -0.000110 0.000000
# 2 -0.002675 0.015490 -0.006058 0.000000 0.006807 0.000000
# 3 -0.003441 -0.006058 0.016599 0.000000 -0.015650 0.000000
# 4 0.000000 0.000000 0.000000 0.101284 0.000000 0.100259
# 5 -0.000110 0.006807 -0.015650 0.000000 0.049062 0.000000
# 6 0.000000 0.000000 0.000000 0.100259 0.000000 0.174636
#
#
# Mechanical properties :
#
#
# Convention : Reuss Voigt Hill
#
# Bulk Modulus (GPa) = 54.25842 61.43843 57.84842
# Shear Modulus (GPa) = 12.55495 26.35361 19.45428
#
# Velocity S-wave (km/s) = 2.31973 3.36085 2.88760
# Velocity P-wave (km/s) = 5.51637 6.43376 5.99265
#
# Compressibility (1/GPa) = 0.01843032
#
# Stress axis : x y z
#
# Youngs Moduli (GPa) = 93.55442 64.55826 60.24569
#
# Poissons Ratio (x) = 0.17271 0.20729
# Poissons Ratio (y) = 0.25028 0.36494
# Poissons Ratio (z) = 0.32190 0.39106
#
# Static dielectric constant tensor:
#      x y z
#    x 2.044310 0.000000 0.091270 
#    y 0.000000 1.972430 0.000000 
#    z 0.091270 0.000000 1.982530 
# 
# From -- ./inp_files/57033.got.cif
#   From: 2010.05.17/outbox.cif.g08.bks.cpg/sg15_29_cif.got.tgz:57033.got - 2010.06.03 18:47:42.
