data_PCOD9297027
_publ_section_title
;
Structure prediction by ZEFSAII (Michael W. Deem and Ramdas Pophale) SiO2 
 PCOD9297027
Probable space group: C 2/C
;
_chemical_formula_sum "Si O2"
_cell_formula_units_Z 56
_cell_length_a 8.509033
_cell_length_b 11.093303
_cell_length_c 27.405139
_cell_angle_alpha 90.000000
_cell_angle_beta 68.665316
_cell_angle_gamma 90.000000
_cell_volume 2409.586419
_symmetry_space_group_name_H-M "C 2/C"
_symmetry_group_IT_number 15
_symmetry_cell_setting 'monoclinic'
loop_
_space_group_symop_operation_xyz
x,y,z
-x,y,1/2-z
-x,-y,-z
x,-y,1/2+z
1/2+x,1/2+y,z
1/2-x,1/2+y,1/2-z
1/2-x,1/2-y,-z
1/2+x,1/2-y,1/2+z
loop_
_atom_site_type_symbol
_atom_site_label
_atom_site_fract_x
_atom_site_fract_y
_atom_site_fract_z
Si Si1 0.327107 0.380123 0.379529
Si Si2 0.845126 0.565353 0.799916
Si Si3 0.790180 0.748952 0.882402
Si Si4 0.940648 0.050269 0.558160
Si Si5 0.951831 0.466868 0.560074
Si Si6 0.531061 0.584420 0.303118
Si Si7 0.672071 0.108151 0.119239
O O1 0.413066 0.397009 0.423676
O O2 0.131078 0.413964 0.407423
O O3 0.412165 0.472617 0.332741
O O4 0.349855 0.243080 0.362035
O O5 0.745818 0.676718 0.836484
O O6 0.717788 0.470643 0.789275
O O7 0.922079 0.486806 0.835747
O O8 0.000000 0.605164 0.750000
O O9 0.715317 0.646082 0.927494
O O10 0.690867 0.865117 0.913943
O O11 0.969904 0.803545 0.844189
O O12 0.863282 0.937685 0.596291
O O13 0.000000 0.000000 0.500000
O O14 0.000000 0.500000 0.500000
O O15 0.106862 0.411781 0.572008
O O16 0.500000 0.612634 0.250000
#
# Coordination Sequence:
#
# PCOD9297027 Si02
#       7
#     8   8   8   8   8   8   8
#     4  11  24  46  66 100 148 174 237 293 340 421
#     4  11  25  46  72 105 135 187 239 286 362 416
#     4  10  23  47  70  96 153 177 226 299 347 406
#     4  11  23  43  72  98 137 192 228 285 355 408
#     4  11  24  41  70 102 136 193 234 278 354 414
#     4  11  24  46  73 103 139 187 231 292 356 416
#     4  11  24  45  67  98 146 177 232 297 340 418
#
# _framework density 23.240501999999999
#
# number of rings (size 3 to 8) (size 9 to 14) (size 15 to 20)
#    0.000    1.143    4.286    1.286    6.000    4.000 
#    5.143    5.714    0.000    0.000    0.000    0.000 
#    0.000    0.000    0.000    0.000    0.000    0.000 
#
# Total GULP energy -156075.482094 kJ/mol
# GULP energy per Si atom -5574.124361 kJ/mol
# Density = 2.318761 g / cm^3
# Si number density = 23.240502 Si / 1000 Ang^3
#
#
#
# Elastic Constant Matrix: (Units=GPa)
#
#
# Indices 1 2 3 4 5 6 
#
# 1 60.9534 11.3420 20.0661 0.0000 -6.2700 0.0000
# 2 11.3420 120.7637 53.1791 0.0000 -10.2210 0.0000
# 3 20.0661 53.1791 141.3033 0.0000 -13.4176 0.0000
# 4 0.0000 0.0000 0.0000 27.1193 0.0000 -5.0049
# 5 -6.2700 -10.2210 -13.4176 0.0000 27.4679 0.0000
# 6 0.0000 0.0000 0.0000 -5.0049 0.0000 27.1612
#
#
#
# Elastic Compliance Matrix: (Units=1/GPa)
#
#
# Indices 1 2 3 4 5 6 
#
# 1 0.017455 -0.000513 -0.002019 0.000000 0.002807 0.000000
# 2 -0.000513 0.010042 -0.003526 0.000000 0.001897 0.000000
# 3 -0.002019 -0.003526 0.008937 0.000000 0.002592 0.000000
# 4 0.000000 0.000000 0.000000 0.038172 0.000000 0.007034
# 5 0.002807 0.001897 0.002592 0.000000 0.039019 0.000000
# 6 0.000000 0.000000 0.000000 0.007034 0.000000 0.038113
#
#
# Mechanical properties :
#
#
# Convention : Reuss Voigt Hill
#
# Bulk Modulus (GPa) = 41.12235 54.68832 47.90533
# Shear Modulus (GPa) = 29.07630 32.24523 30.66077
#
# Velocity S-wave (km/s) = 3.54093 3.72890 3.63613
# Velocity P-wave (km/s) = 5.86944 6.49016 6.18759
#
# Compressibility (1/GPa) = 0.02431768
#
# Stress axis : x y z
#
# Youngs Moduli (GPa) = 57.29064 99.57950 111.89368
#
# Poissons Ratio (x) = 0.05104 0.22594
# Poissons Ratio (y) = 0.02936 0.39459
# Poissons Ratio (z) = 0.11568 0.35116
#
# Static dielectric constant tensor:
#      x y z
#    x 1.976670 0.000000 0.021280 
#    y 0.000000 1.895540 0.000000 
#    z 0.021280 0.000000 1.888330 
# 
# From -- ./inp_files/287946.got.cif
#   From: 2010.05.17/outbox.cif.g08.bks.cpg/sg15_144_cif.got.tgz:287946.got - 2010.06.03 18:47:42.
