data_PCOD9297835
_publ_section_title
;
Structure prediction by ZEFSAII (Michael W. Deem and Ramdas Pophale) SiO2 
 PCOD9297835
Probable space group: C 2/C
;
_chemical_formula_sum "Si O2"
_cell_formula_units_Z 48
_cell_length_a 5.987972
_cell_length_b 19.965037
_cell_length_c 25.138322
_cell_angle_alpha 90.000000
_cell_angle_beta 53.445983
_cell_angle_gamma 90.000000
_cell_volume 2414.135364
_symmetry_space_group_name_H-M "C 2/C"
_symmetry_group_IT_number 15
_symmetry_cell_setting 'monoclinic'
loop_
_space_group_symop_operation_xyz
x,y,z
-x,y,1/2-z
-x,-y,-z
x,-y,1/2+z
1/2+x,1/2+y,z
1/2-x,1/2+y,1/2-z
1/2-x,1/2-y,-z
1/2+x,1/2-y,1/2+z
loop_
_atom_site_type_symbol
_atom_site_label
_atom_site_fract_x
_atom_site_fract_y
_atom_site_fract_z
Si Si1 0.009623 0.227951 0.184641
Si Si2 0.665139 0.875004 0.283939
Si Si3 0.634651 0.942932 0.945224
Si Si4 0.610854 0.807070 0.554775
Si Si5 0.211006 0.125012 0.365592
Si Si6 0.182798 0.477948 0.815365
O O1 0.317976 0.217908 0.119123
O O2 0.000000 0.220484 0.250000
O O3 0.916394 0.302540 0.181800
O O4 0.837222 0.170854 0.178955
O O5 0.500000 0.872984 0.250000
O O6 0.000000 0.877020 0.250000
O O7 0.575347 0.947469 0.318196
O O8 0.451240 0.875008 0.969468
O O9 0.663564 0.967929 0.880879
O O10 0.947691 0.922255 0.914971
O O11 0.500000 0.000000 0.000000
O O12 0.750000 0.750000 0.500000
O O13 0.772655 0.827717 0.585024
O O14 0.481985 0.079163 0.321063
O O15 0.500000 0.470479 0.750000
#
# Coordination Sequence:
#
# PCOD9297835 Si02
#       6
#     8   8   8   8   8   8
#     4  10  24  43  66 101 134 175 229 284 349 417
#     4  10  24  43  64 101 140 182 228 283 355 414
#     4  10  24  43  64  97 129 177 228 277 351 415
#     4  10  24  43  64  97 129 177 228 277 351 415
#     4  10  24  42  68  95 136 176 224 288 348 414
#     4  10  24  43  66 101 134 175 229 284 349 417
#
# _framework density 19.882895999999999
#
# number of rings (size 3 to 8) (size 9 to 14) (size 15 to 20)
#    0.000    2.000    0.000    0.000    9.333   16.667 
#    3.000    0.000    0.000    0.000    0.000    0.000 
#    0.000    0.000    0.000    0.000    0.000    0.000 
#
# Total GULP energy -133879.194253 kJ/mol
# GULP energy per Si atom -5578.299761 kJ/mol
# Density = 1.983764 g / cm^3
# Si number density = 19.882896 Si / 1000 Ang^3
#
#
#
# Elastic Constant Matrix: (Units=GPa)
#
#
# Indices 1 2 3 4 5 6 
#
# 1 119.4326 73.6714 64.3320 0.0000 -2.4836 0.0000
# 2 73.6714 184.6303 114.1256 0.0000 2.4114 0.0000
# 3 64.3320 114.1256 118.8085 0.0000 2.5406 0.0000
# 4 0.0000 0.0000 0.0000 57.5755 0.0000 2.6581
# 5 -2.4836 2.4114 2.5406 0.0000 5.9264 0.0000
# 6 0.0000 0.0000 0.0000 2.6581 0.0000 12.1418
#
#
#
# Elastic Compliance Matrix: (Units=1/GPa)
#
#
# Indices 1 2 3 4 5 6 
#
# 1 0.012471 -0.001971 -0.005034 0.000000 0.008186 0.000000
# 2 -0.001971 0.013644 -0.012013 0.000000 -0.001228 0.000000
# 3 -0.005034 -0.012013 0.022832 0.000000 -0.007010 0.000000
# 4 0.000000 0.000000 0.000000 0.017546 0.000000 -0.003841
# 5 0.008186 -0.001228 -0.007010 0.000000 0.175672 0.000000
# 6 0.000000 0.000000 0.000000 -0.003841 0.000000 0.083201
#
#
# Mechanical properties :
#
#
# Convention : Reuss Voigt Hill
#
# Bulk Modulus (GPa) = 91.65389 103.01438 97.33413
# Shear Modulus (GPa) = 13.62253 26.51158 20.06706
#
# Velocity S-wave (km/s) = 2.62035 3.65552 3.18034
# Velocity P-wave (km/s) = 7.43989 8.35105 7.90860
#
# Compressibility (1/GPa) = 0.01091061
#
# Stress axis : x y z
#
# Youngs Moduli (GPa) = 80.18787 73.28996 43.79799
#
# Poissons Ratio (x) = 0.14448 0.22048
# Poissons Ratio (y) = 0.15807 0.52614
# Poissons Ratio (z) = 0.40367 0.88043
#
# Static dielectric constant tensor:
#      x y z
#    x 1.742610 0.000000 -0.004770 
#    y 0.000000 1.731110 0.000000 
#    z -0.004770 0.000000 1.659840 
# 
# From -- ./inp_files/286304.got.cif
#   From: 2010.05.17/outbox.cif.g08.bks.cpg/sg15_144_cif.got.tgz:286304.got - 2010.06.03 18:47:42.
