data_PCOD9297032
_publ_section_title
;
Structure prediction by ZEFSAII (Michael W. Deem and Ramdas Pophale) SiO2 
 PCOD9297032
Probable space group: C 2/C
;
_chemical_formula_sum "Si O2"
_cell_formula_units_Z 32
_cell_length_a 21.056544
_cell_length_b 8.241056
_cell_length_c 9.662261
_cell_angle_alpha 90.000000
_cell_angle_beta 138.061360
_cell_angle_gamma 90.000000
_cell_volume 1120.579089
_symmetry_space_group_name_H-M "C 2/C"
_symmetry_group_IT_number 15
_symmetry_cell_setting 'monoclinic'
loop_
_space_group_symop_operation_xyz
x,y,z
-x,y,1/2-z
-x,-y,-z
x,-y,1/2+z
1/2+x,1/2+y,z
1/2-x,1/2+y,1/2-z
1/2-x,1/2-y,-z
1/2+x,1/2-y,1/2+z
loop_
_atom_site_type_symbol
_atom_site_label
_atom_site_fract_x
_atom_site_fract_y
_atom_site_fract_z
Si Si1 0.850567 0.468852 0.488315
Si Si2 0.858598 0.782176 0.630908
Si Si3 0.519675 0.686814 0.925988
Si Si4 0.828853 0.771354 0.280273
O O1 0.898730 0.598772 0.670094
O O2 0.919330 0.342341 0.526856
O O3 0.807747 0.590445 0.302437
O O4 0.763752 0.369932 0.415267
O O5 0.750000 0.750000 0.500000
O O6 0.858402 0.852096 0.476441
O O7 0.916066 0.875338 0.842129
O O8 0.500000 0.597608 0.750000
O O9 0.418862 0.732965 0.827810
#
# Coordination Sequence:
#
# PCOD9297032 Si02
#       4
#     8   8   8   8
#     4  10  24  43  75 104 147 181 247 291 362 420
#     4  10  23  47  71 104 149 186 236 297 366 420
#     4  12  25  42  73 113 139 190 252 291 349 437
#     4  10  24  45  75 103 145 189 238 298 357 423
#
# _framework density 28.556663
#
# number of rings (size 3 to 8) (size 9 to 14) (size 15 to 20)
#    1.500    0.000    2.500    1.500    7.000    1.000 
#    4.500    5.000    0.000    0.000    0.000    0.000 
#    0.000    0.000    0.000    0.000    0.000    0.000 
#
# Total GULP energy -89656.510596 kJ/mol
# GULP energy per Si atom -5603.531912 kJ/mol
# Density = 2.849167 g / cm^3
# Si number density = 28.556663 Si / 1000 Ang^3
#
#
#
# Elastic Constant Matrix: (Units=GPa)
#
#
# Indices 1 2 3 4 5 6 
#
# 1 227.6200 28.4051 47.1395 0.0000 0.8030 0.0000
# 2 28.4051 121.5135 8.3765 0.0000 16.0753 0.0000
# 3 47.1395 8.3765 165.5010 0.0000 -11.8006 0.0000
# 4 0.0000 0.0000 0.0000 47.4740 0.0000 -2.1823
# 5 0.8030 16.0753 -11.8006 0.0000 62.8403 0.0000
# 6 0.0000 0.0000 0.0000 -2.1823 0.0000 44.5381
#
#
#
# Elastic Compliance Matrix: (Units=1/GPa)
#
#
# Indices 1 2 3 4 5 6 
#
# 1 0.004794 -0.001024 -0.001317 0.000000 -0.000047 0.000000
# 2 -0.001024 0.008794 -0.000317 0.000000 -0.002296 0.000000
# 3 -0.001317 -0.000317 0.006528 0.000000 0.001324 0.000000
# 4 0.000000 0.000000 0.000000 0.021112 0.000000 0.001034
# 5 -0.000047 -0.002296 0.001324 0.000000 0.016750 0.000000
# 6 0.000000 0.000000 0.000000 0.001034 0.000000 0.022503
#
#
# Mechanical properties :
#
#
# Convention : Reuss Voigt Hill
#
# Bulk Modulus (GPa) = 67.56568 75.83073 71.69820
# Shear Modulus (GPa) = 55.10823 59.68472 57.39648
#
# Velocity S-wave (km/s) = 4.39770 4.57666 4.48807
# Velocity P-wave (km/s) = 7.03548 7.38511 7.21241
#
# Compressibility (1/GPa) = 0.01480041
#
# Stress axis : x y z
#
# Youngs Moduli (GPa) = 208.59674 113.70775 153.19049
#
# Poissons Ratio (x) = 0.11640 0.20175
# Poissons Ratio (y) = 0.21353 0.04860
# Poissons Ratio (z) = 0.27472 0.03608
#
# Static dielectric constant tensor:
#      x y z
#    x 2.107830 0.000000 -0.047860 
#    y 0.000000 2.231270 0.000000 
#    z -0.047860 0.000000 2.366390 
# 
# From -- ./inp_files/38220.got.cif
#   From: 2010.05.17/outbox.cif.g08.bks.cpg/sg15_20_cif.got.tgz:38220.got - 2010.06.03 18:47:42.
