data_PCOD9297781
_publ_section_title
;
Structure prediction by ZEFSAII (Michael W. Deem and Ramdas Pophale) SiO2 
 PCOD9297781
Probable space group: C 2/C
;
_chemical_formula_sum "Si O2"
_cell_formula_units_Z 52
_cell_length_a 17.372766
_cell_length_b 17.930804
_cell_length_c 7.991404
_cell_angle_alpha 90.000000
_cell_angle_beta 102.133732
_cell_angle_gamma 90.000000
_cell_volume 2433.769895
_symmetry_space_group_name_H-M "C 2/C"
_symmetry_group_IT_number 15
_symmetry_cell_setting 'monoclinic'
loop_
_space_group_symop_operation_xyz
x,y,z
-x,y,1/2-z
-x,-y,-z
x,-y,1/2+z
1/2+x,1/2+y,z
1/2-x,1/2+y,1/2-z
1/2-x,1/2-y,-z
1/2+x,1/2-y,1/2+z
loop_
_atom_site_type_symbol
_atom_site_label
_atom_site_fract_x
_atom_site_fract_y
_atom_site_fract_z
Si Si1 0.554853 0.225792 0.613906
Si Si2 0.993806 0.414550 0.946555
Si Si3 0.500000 0.311233 0.250000
Si Si4 0.237072 0.252174 0.195087
Si Si5 0.317748 0.895654 0.865410
Si Si6 0.236602 0.010682 0.073835
Si Si7 0.662334 0.394001 0.265596
O O1 0.500000 0.241094 0.750000
O O2 0.554947 0.137681 0.570728
O O3 0.523188 0.263567 0.426391
O O4 0.644346 0.249587 0.686950
O O5 0.907439 0.385189 0.956693
O O6 0.000000 0.406527 0.750000
O O7 0.000000 0.500000 0.000000
O O8 0.575613 0.360936 0.238109
O O9 0.278859 0.182492 0.301728
O O10 0.279547 0.328520 0.269504
O O11 0.250000 0.250000 0.000000
O O12 0.309431 0.949845 0.700288
O O13 0.271108 0.945234 0.976367
O O14 0.174339 0.968086 0.161758
O O15 0.193113 0.077191 0.958475
#
# Coordination Sequence:
#
# PCOD9297781 Si02
#       7
#     8   8   4   8   8   8   8
#     4  12  28  44  69 106 143 184 243 294 358 429
#     4  12  25  41  65  99 141 185 231 300 361 425
#     4  12  24  50  72 102 138 184 232 304 354 414
#     4  12  23  45  71  99 137 191 234 289 355 430
#     4  11  23  42  67  97 135 184 231 284 354 419
#     4  10  24  42  67 101 133 177 233 288 347 435
#     4  11  25  44  73  98 138 179 232 290 359 422
#
# _framework density 21.366031
#
# number of rings (size 3 to 8) (size 9 to 14) (size 15 to 20)
#    0.000    0.615    3.846    3.231    8.615    1.231 
#    0.000    0.000    0.000    0.000    0.000    0.000 
#    0.000    0.000    0.000    0.000    0.000    0.000 
#
# Total GULP energy -145453.318080 kJ/mol
# GULP energy per Si atom -5594.358388 kJ/mol
# Density = 2.131740 g / cm^3
# Si number density = 21.366031 Si / 1000 Ang^3
#
#
#
# Elastic Constant Matrix: (Units=GPa)
#
#
# Indices 1 2 3 4 5 6 
#
# 1 109.8227 20.1669 18.1578 0.0000 1.2557 0.0000
# 2 20.1669 120.4142 24.0402 0.0000 6.6955 0.0000
# 3 18.1578 24.0402 48.5289 0.0000 -1.1044 0.0000
# 4 0.0000 0.0000 0.0000 31.0086 0.0000 -4.2288
# 5 1.2557 6.6955 -1.1044 0.0000 24.6132 0.0000
# 6 0.0000 0.0000 0.0000 -4.2288 0.0000 30.3853
#
#
#
# Elastic Compliance Matrix: (Units=1/GPa)
#
#
# Indices 1 2 3 4 5 6 
#
# 1 0.009819 -0.000986 -0.003194 0.000000 -0.000376 0.000000
# 2 -0.000986 0.009500 -0.004399 0.000000 -0.002731 0.000000
# 3 -0.003194 -0.004399 0.024036 0.000000 0.002438 0.000000
# 4 0.000000 0.000000 0.000000 0.032873 0.000000 0.004575
# 5 -0.000376 -0.002731 0.002438 0.000000 0.041500 0.000000
# 6 0.000000 0.000000 0.000000 0.004575 0.000000 0.033547
#
#
# Mechanical properties :
#
#
# Convention : Reuss Voigt Hill
#
# Bulk Modulus (GPa) = 38.17299 44.83285 41.50292
# Shear Modulus (GPa) = 28.22199 31.62814 29.92507
#
# Velocity S-wave (km/s) = 3.63834 3.85164 3.74651
# Velocity P-wave (km/s) = 5.96280 6.38819 6.17916
#
# Compressibility (1/GPa) = 0.02619653
#
# Stress axis : x y z
#
# Youngs Moduli (GPa) = 101.84307 105.26343 41.60384
#
# Poissons Ratio (x) = 0.10378 0.13289
# Poissons Ratio (y) = 0.10041 0.18303
# Poissons Ratio (z) = 0.32530 0.46309
#
# Static dielectric constant tensor:
#      x y z
#    x 1.750680 0.000000 -0.024310 
#    y 0.000000 1.746430 0.000000 
#    z -0.024310 0.000000 1.853760 
# 
# From -- ./inp_files/48643.got.cif
#   From: 2010.05.17/outbox.cif.g08.bks.cpg/sg15_25_cif.got.tgz:48643.got - 2010.06.03 18:47:42.
