data_PCOD9297474
_publ_section_title
;
Structure prediction by ZEFSAII (Michael W. Deem and Ramdas Pophale) SiO2 
 PCOD9297474
Probable space group: C 2/C
;
_chemical_formula_sum "Si O2"
_cell_formula_units_Z 48
_cell_length_a 12.033884
_cell_length_b 23.611776
_cell_length_c 8.838543
_cell_angle_alpha 90.000000
_cell_angle_beta 63.302758
_cell_angle_gamma 90.000000
_cell_volume 2243.663420
_symmetry_space_group_name_H-M "C 2/C"
_symmetry_group_IT_number 15
_symmetry_cell_setting 'monoclinic'
loop_
_space_group_symop_operation_xyz
x,y,z
-x,y,1/2-z
-x,-y,-z
x,-y,1/2+z
1/2+x,1/2+y,z
1/2-x,1/2+y,1/2-z
1/2-x,1/2-y,-z
1/2+x,1/2-y,1/2+z
loop_
_atom_site_type_symbol
_atom_site_label
_atom_site_fract_x
_atom_site_fract_y
_atom_site_fract_z
Si Si1 0.608423 0.703800 0.924670
Si Si2 0.500000 0.771606 0.250000
Si Si3 0.993820 0.911113 0.071770
Si Si4 0.000000 0.709479 0.250000
Si Si5 0.148460 0.344714 0.397525
Si Si6 0.207443 0.006011 0.353771
Si Si7 0.371484 0.023254 0.516016
O O1 0.512766 0.651602 0.989594
O O2 0.564593 0.751238 0.834513
O O3 0.724579 0.675112 0.763617
O O4 0.601019 0.732679 0.096614
O O5 0.552962 0.813746 0.343938
O O6 0.000000 0.908188 0.250000
O O7 0.877547 0.949411 0.085034
O O8 0.118077 0.943052 0.949189
O O9 0.893067 0.675909 0.408738
O O10 0.141258 0.412315 0.417696
O O11 0.251334 0.009248 0.155229
O O12 0.338369 0.013766 0.361675
O O13 0.500000 0.000000 0.500000
#
# Coordination Sequence:
#
# PCOD9297474 Si02
#       7
#     8   4   8   4   8   8   8
#     4  11  21  44  71  98 135 175 224 282 349 400
#     4  10  26  42  67 105 134 178 228 280 344 420
#     4  11  21  42  72 100 138 173 222 288 353 397
#     4  10  24  40  69  97 126 178 236 268 334 416
#     4  11  24  46  66  95 138 177 224 287 340 398
#     4  11  24  43  66 101 133 179 224 280 339 416
#     4  12  27  44  68  97 140 183 231 277 345 417
#
# _framework density 21.393581999999999
#
# number of rings (size 3 to 8) (size 9 to 14) (size 15 to 20)
#    0.000    1.000    4.167    1.500    4.667    1.333 
#    0.000    0.000    0.000    0.000    0.000    0.000 
#    0.000    0.000    0.000    0.000    0.000    0.000 
#
# Total GULP energy -133670.158952 kJ/mol
# GULP energy per Si atom -5569.589956 kJ/mol
# Density = 2.134489 g / cm^3
# Si number density = 21.393582 Si / 1000 Ang^3
#
#
#
# Elastic Constant Matrix: (Units=GPa)
#
#
# Indices 1 2 3 4 5 6 
#
# 1 82.8033 35.4650 10.8088 0.0000 2.5996 0.0000
# 2 35.4650 66.4218 22.8753 0.0000 14.0963 0.0000
# 3 10.8088 22.8753 96.0008 0.0000 1.8357 0.0000
# 4 0.0000 0.0000 0.0000 21.9300 0.0000 0.4187
# 5 2.5996 14.0963 1.8357 0.0000 25.5683 0.0000
# 6 0.0000 0.0000 0.0000 0.4187 0.0000 21.7716
#
#
#
# Elastic Compliance Matrix: (Units=1/GPa)
#
#
# Indices 1 2 3 4 5 6 
#
# 1 0.015938 -0.009388 0.000375 0.000000 0.003528 0.000000
# 2 -0.009388 0.024164 -0.004471 0.000000 -0.012047 0.000000
# 3 0.000375 -0.004471 0.011409 0.000000 0.001607 0.000000
# 4 0.000000 0.000000 0.000000 0.045616 0.000000 -0.000877
# 5 0.003528 -0.012047 0.001607 0.000000 0.045278 0.000000
# 6 0.000000 0.000000 0.000000 -0.000877 0.000000 0.045948
#
#
# Mechanical properties :
#
#
# Convention : Reuss Voigt Hill
#
# Bulk Modulus (GPa) = 40.74285 42.61380 41.67833
# Shear Modulus (GPa) = 22.37119 25.59242 23.98181
#
# Velocity S-wave (km/s) = 3.23723 3.46246 3.35174
# Velocity P-wave (km/s) = 5.74967 5.99559 5.87391
#
# Compressibility (1/GPa) = 0.02454418
#
# Stress axis : x y z
#
# Youngs Moduli (GPa) = 62.74344 41.38394 87.65109
#
# Poissons Ratio (x) = 0.38850 -0.03287
# Poissons Ratio (y) = 0.58902 0.39185
# Poissons Ratio (z) = -0.02353 0.18501
#
# Static dielectric constant tensor:
#      x y z
#    x 1.802500 0.000000 -0.033940 
#    y 0.000000 1.757620 0.000000 
#    z -0.033940 0.000000 1.795780 
# 
# From -- ./inp_files/32598.got.cif
#   From: 2010.05.17/outbox.cif.g08.bks.cpg/sg15_17_cif.got.tgz:32598.got - 2010.06.03 18:47:42.
