data_PCOD9297906
_publ_section_title
;
Structure prediction by ZEFSAII (Michael W. Deem and Ramdas Pophale) SiO2 
 PCOD9297906
Probable space group: C 2/C
;
_chemical_formula_sum "Si O2"
_cell_formula_units_Z 40
_cell_length_a 8.478386
_cell_length_b 25.885326
_cell_length_c 8.689145
_cell_angle_alpha 90.000000
_cell_angle_beta 102.450482
_cell_angle_gamma 90.000000
_cell_volume 1862.123249
_symmetry_space_group_name_H-M "C 2/C"
_symmetry_group_IT_number 15
_symmetry_cell_setting 'monoclinic'
loop_
_space_group_symop_operation_xyz
x,y,z
-x,y,1/2-z
-x,-y,-z
x,-y,1/2+z
1/2+x,1/2+y,z
1/2-x,1/2+y,1/2-z
1/2-x,1/2-y,-z
1/2+x,1/2-y,1/2+z
loop_
_atom_site_type_symbol
_atom_site_label
_atom_site_fract_x
_atom_site_fract_y
_atom_site_fract_z
Si Si1 0.671658 0.526415 0.505285
Si Si2 0.500908 0.155717 0.494400
Si Si3 0.365834 0.950994 0.333397
Si Si4 0.000000 0.099391 0.250000
Si Si5 0.233547 0.824281 0.684839
Si Si6 0.000000 0.736120 0.750000
O O1 0.500000 0.500000 0.500000
O O2 0.795613 0.485098 0.457255
O O3 0.726394 0.554324 0.674211
O O4 0.634780 0.565710 0.360536
O O5 0.553467 0.101163 0.581615
O O6 0.661050 0.178315 0.445828
O O7 0.359504 0.154128 0.338481
O O8 0.443441 0.197310 0.605901
O O9 0.500000 0.976725 0.250000
O O10 0.087972 0.134928 0.143309
O O11 0.146119 0.772289 0.722386
#
# Coordination Sequence:
#
# PCOD9297906 Si02
#       6
#     8   8   8   4   8   4
#     4  12  24  44  66  95 137 179 228 277 329 398
#     4  11  23  44  68 100 135 171 225 272 336 401
#     4  12  25  43  66  99 133 183 227 279 332 393
#     4  11  22  42  66  94 132 176 228 269 330 396
#     4  10  24  42  71  94 134 177 214 276 340 396
#     4  11  22  44  70 102 130 168 224 275 338 396
#
# _framework density 21.480854999999998
#
# number of rings (size 3 to 8) (size 9 to 14) (size 15 to 20)
#    0.000    0.800    3.000    4.200    0.000    0.000 
#    0.000    0.000    4.400    0.000    0.000    0.000 
#    0.000    0.000    0.000    0.000    0.000    0.000 
#
# Total GULP energy -111657.068172 kJ/mol
# GULP energy per Si atom -5582.853409 kJ/mol
# Density = 2.143196 g / cm^3
# Si number density = 21.480855 Si / 1000 Ang^3
#
#
#
# Elastic Constant Matrix: (Units=GPa)
#
#
# Indices 1 2 3 4 5 6 
#
# 1 79.6708 25.1867 -6.7185 0.0000 -17.6767 0.0000
# 2 25.1867 108.6908 31.1522 0.0000 -3.1790 0.0000
# 3 -6.7185 31.1522 84.0987 0.0000 8.2519 0.0000
# 4 0.0000 0.0000 0.0000 16.4892 0.0000 -9.7089
# 5 -17.6767 -3.1790 8.2519 0.0000 45.3824 0.0000
# 6 0.0000 0.0000 0.0000 -9.7089 0.0000 11.0295
#
#
#
# Elastic Compliance Matrix: (Units=1/GPa)
#
#
# Indices 1 2 3 4 5 6 
#
# 1 0.015153 -0.003981 0.002172 0.000000 0.005229 0.000000
# 2 -0.003981 0.011432 -0.004561 0.000000 0.000079 0.000000
# 3 0.002172 -0.004561 0.013951 0.000000 -0.002010 0.000000
# 4 0.000000 0.000000 0.000000 0.125900 0.000000 0.110825
# 5 0.005229 0.000079 -0.002010 0.000000 0.024443 0.000000
# 6 0.000000 0.000000 0.000000 0.110825 0.000000 0.188221
#
#
# Mechanical properties :
#
#
# Convention : Reuss Voigt Hill
#
# Bulk Modulus (GPa) = 35.97418 41.30011 38.63715
# Shear Modulus (GPa) = 12.46553 29.43622 20.95088
#
# Velocity S-wave (km/s) = 2.41157 3.70584 3.12641
# Velocity P-wave (km/s) = 4.95355 6.13019 5.57301
#
# Compressibility (1/GPa) = 0.02779771
#
# Stress axis : x y z
#
# Youngs Moduli (GPa) = 65.99148 87.47042 71.67966
#
# Poissons Ratio (x) = 0.34823 -0.15571
# Poissons Ratio (y) = 0.26272 0.32691
# Poissons Ratio (z) = -0.14335 0.39893
#
# Static dielectric constant tensor:
#      x y z
#    x 1.830280 0.000000 -0.066800 
#    y 0.000000 1.798900 0.000000 
#    z -0.066800 0.000000 1.969010 
# 
# From -- ./inp_files/23554.got.cif
#   From: 2010.05.17/outbox.cif.g08.bks.cpg/sg15_12_cif.got.tgz:23554.got - 2010.06.03 18:47:42.
