data_PCOD9297482
_publ_section_title
;
Structure prediction by ZEFSAII (Michael W. Deem and Ramdas Pophale) SiO2 
 PCOD9297482
Probable space group: C 2/C
;
_chemical_formula_sum "Si O2"
_cell_formula_units_Z 44
_cell_length_a 12.148871
_cell_length_b 16.791589
_cell_length_c 12.242209
_cell_angle_alpha 90.000000
_cell_angle_beta 53.445908
_cell_angle_gamma 90.000000
_cell_volume 2006.146005
_symmetry_space_group_name_H-M "C 2/C"
_symmetry_group_IT_number 15
_symmetry_cell_setting 'monoclinic'
loop_
_space_group_symop_operation_xyz
x,y,z
-x,y,1/2-z
-x,-y,-z
x,-y,1/2+z
1/2+x,1/2+y,z
1/2-x,1/2+y,1/2-z
1/2-x,1/2-y,-z
1/2+x,1/2-y,1/2+z
loop_
_atom_site_type_symbol
_atom_site_label
_atom_site_fract_x
_atom_site_fract_y
_atom_site_fract_z
Si Si1 0.176980 0.364242 0.236568
Si Si2 0.000000 0.951770 0.750000
Si Si3 0.196898 0.178147 0.238463
Si Si4 0.157225 0.685097 0.120183
Si Si5 0.371929 0.100029 0.972915
Si Si6 0.750963 0.055590 0.901001
O O1 0.151850 0.269625 0.256307
O O2 0.207638 0.393035 0.095948
O O3 0.275333 0.395289 0.274954
O O4 0.029830 0.399263 0.353701
O O5 0.084405 0.889456 0.776216
O O6 0.110518 0.014233 0.636129
O O7 0.260442 0.165278 0.319033
O O8 0.318485 0.171687 0.077896
O O9 0.000000 0.705742 0.250000
O O10 0.250000 0.750000 0.000000
O O11 0.166652 0.609736 0.034486
O O12 0.338091 0.023010 0.063714
#
# Coordination Sequence:
#
# PCOD9297482 Si02
#       6
#     8   4   8   8   8   8
#     4  11  22  43  71 101 142 192 252 314 365 461
#     4  10  26  48  70 110 152 198 250 312 384 438
#     4  11  24  47  71 105 152 195 254 306 380 460
#     4  12  28  49  77 111 151 202 250 316 378 463
#     4  10  24  40  70 103 142 189 253 304 380 433
#     4  11  25  45  69 108 144 198 247 310 380 442
#
# _framework density 21.932600999999998
#
# number of rings (size 3 to 8) (size 9 to 14) (size 15 to 20)
#    0.000    1.091    1.818    3.273    8.909    2.182 
#    3.273    0.000    0.000    0.000    0.000    0.000 
#    0.000    0.000    0.000    0.000    0.000    0.000 
#
# Total GULP energy -122672.851101 kJ/mol
# GULP energy per Si atom -5576.038686 kJ/mol
# Density = 2.188268 g / cm^3
# Si number density = 21.932601 Si / 1000 Ang^3
#
#
#
# Elastic Constant Matrix: (Units=GPa)
#
#
# Indices 1 2 3 4 5 6 
#
# 1 96.4882 19.1099 38.6339 0.0000 13.9932 0.0000
# 2 19.1099 88.3721 24.1288 0.0000 -5.7074 0.0000
# 3 38.6339 24.1288 99.8757 0.0000 14.0104 0.0000
# 4 0.0000 0.0000 0.0000 38.1119 0.0000 6.1090
# 5 13.9932 -5.7074 14.0104 0.0000 43.9457 0.0000
# 6 0.0000 0.0000 0.0000 6.1090 0.0000 -0.4878
#
#
#
# Elastic Compliance Matrix: (Units=1/GPa)
#
#
# Indices 1 2 3 4 5 6 
#
# 1 0.012802 -0.001848 -0.004083 0.000000 -0.003015 0.000000
# 2 -0.001848 0.012678 -0.002786 0.000000 0.003123 0.000000
# 3 -0.004083 -0.002786 0.012701 0.000000 -0.003111 0.000000
# 4 0.000000 0.000000 0.000000 0.008724 0.000000 0.109265
# 5 -0.003015 0.003123 -0.003111 0.000000 0.025113 0.000000
# 6 0.000000 0.000000 0.000000 0.109265 0.000000 -0.681663
#
#
# Mechanical properties :
#
#
# Convention : Reuss Voigt Hill
#
# Bulk Modulus (GPa) = 48.19944 49.83127 49.01536
# Shear Modulus (GPa) = -8.54270 29.83818 10.64774
#
# Velocity S-wave (km/s) = -1.97571 3.69243 2.20574
# Velocity P-wave (km/s) = 4.10113 6.39908 5.37436
#
# Compressibility (1/GPa) = 0.02074713
#
# Stress axis : x y z
#
# Youngs Moduli (GPa) = 78.11320 78.87764 78.73301
#
# Poissons Ratio (x) = 0.14579 0.32143
# Poissons Ratio (y) = 0.14438 0.21935
# Poissons Ratio (z) = 0.31890 0.21975
#
# Static dielectric constant tensor:
#      x y z
#    x 1.891680 0.000000 0.001710 
#    y 0.000000 1.874890 0.000000 
#    z 0.001710 0.000000 1.810290 
# 
# From -- ./inp_files/87713.got.cif
#   From: 2010.05.17/outbox.cif.g08.bks.cpg/sg15_44_cif.got.tgz:87713.got - 2010.06.03 18:47:42.
