data_PCOD9297535
_publ_section_title
;
Structure prediction by ZEFSAII (Michael W. Deem and Ramdas Pophale) SiO2 
 PCOD9297535
Probable space group: C 2/C
;
_chemical_formula_sum "Si O2"
_cell_formula_units_Z 28
_cell_length_a 29.170910
_cell_length_b 4.597738
_cell_length_c 8.494885
_cell_angle_alpha 90.000000
_cell_angle_beta 60.538712
_cell_angle_gamma 90.000000
_cell_volume 992.006143
_symmetry_space_group_name_H-M "C 2/C"
_symmetry_group_IT_number 15
_symmetry_cell_setting 'monoclinic'
loop_
_space_group_symop_operation_xyz
x,y,z
-x,y,1/2-z
-x,-y,-z
x,-y,1/2+z
1/2+x,1/2+y,z
1/2-x,1/2+y,1/2-z
1/2-x,1/2-y,-z
1/2+x,1/2-y,1/2+z
loop_
_atom_site_type_symbol
_atom_site_label
_atom_site_fract_x
_atom_site_fract_y
_atom_site_fract_z
Si Si1 0.712690 0.202274 0.801940
Si Si2 0.000000 0.822729 0.250000
Si Si3 0.856076 0.079671 0.805142
Si Si4 0.925687 0.286517 0.417367
O O1 0.765030 0.383839 0.759863
O O2 0.686171 0.358435 0.698676
O O3 0.671561 0.234439 0.012548
O O4 0.047836 0.587898 0.178797
O O5 0.028774 0.069217 0.094188
O O6 0.882055 0.280504 0.627180
O O7 0.899959 0.877479 0.813366
#
# Coordination Sequence:
#
# PCOD9297535 Si02
#       4
#     8   4   8   8
#     4  11  24  42  64  91 124 161 202 250 304 361
#     4  10  24  42  64  90 124 162 204 250 304 360
#     4  10  24  41  64  92 124 160 204 251 302 360
#     4  10  24  41  62  91 124 161 202 251 302 358
#
# _framework density 28.225631
#
# number of rings (size 3 to 8) (size 9 to 14) (size 15 to 20)
#    0.000    1.714    0.000    1.714    0.000   22.857 
#    0.000    0.000    0.000    0.000    0.000    0.000 
#    0.000    0.000    0.000    0.000    0.000    0.000 
#
# Total GULP energy -78495.340088 kJ/mol
# GULP energy per Si atom -5606.810006 kJ/mol
# Density = 2.816139 g / cm^3
# Si number density = 28.225631 Si / 1000 Ang^3
#
#
#
# Elastic Constant Matrix: (Units=GPa)
#
#
# Indices 1 2 3 4 5 6 
#
# 1 91.3779 18.3267 -8.9211 0.0000 1.1718 0.0000
# 2 18.3267 169.8399 2.0272 0.0000 -9.0239 0.0000
# 3 -8.9211 2.0272 100.3612 0.0000 -22.8152 0.0000
# 4 0.0000 0.0000 0.0000 -30.0915 0.0000 -7.7496
# 5 1.1718 -9.0239 -22.8152 0.0000 53.7386 0.0000
# 6 0.0000 0.0000 0.0000 -7.7496 0.0000 47.1834
#
#
#
# Elastic Compliance Matrix: (Units=1/GPa)
#
#
# Indices 1 2 3 4 5 6 
#
# 1 0.011291 -0.001232 0.001024 0.000000 -0.000018 0.000000
# 2 -0.001232 0.006076 0.000006 0.000000 0.001050 0.000000
# 3 0.001024 0.000006 0.011124 0.000000 0.004701 0.000000
# 4 0.000000 0.000000 0.000000 -0.031883 0.000000 -0.005237
# 5 -0.000018 0.001050 0.004701 0.000000 0.020781 0.000000
# 6 0.000000 0.000000 0.000000 -0.005237 0.000000 0.020334
#
#
# Mechanical properties :
#
#
# Convention : Reuss Voigt Hill
#
# Bulk Modulus (GPa) = 35.60018 42.71605 39.15812
# Shear Modulus (GPa) = 105.29115 37.50917 71.40016
#
# Velocity S-wave (km/s) = 6.11428 3.64937 5.03499
# Velocity P-wave (km/s) = 7.90480 5.73793 6.90687
#
# Compressibility (1/GPa) = 0.02808974
#
# Stress axis : x y z
#
# Youngs Moduli (GPa) = 88.56762 164.56853 89.89800
#
# Poissons Ratio (x) = 0.20267 -0.09209
# Poissons Ratio (y) = 0.10907 -0.00058
# Poissons Ratio (z) = -0.09073 -0.00107
#
# Static dielectric constant tensor:
#      x y z
#    x 2.311320 0.000000 -0.024130 
#    y 0.000000 2.073280 0.000000 
#    z -0.024130 0.000000 2.115870 
# 
# From -- ./inp_files/64303.got.cif
#   From: 2010.05.17/outbox.cif.g08.bks.cpg/sg15_33_cif.got.tgz:64303.got - 2010.06.03 18:47:42.
