data_PCOD9297907
_publ_section_title
;
Structure prediction by ZEFSAII (Michael W. Deem and Ramdas Pophale) SiO2 
 PCOD9297907
Probable space group: C 2/C
;
_chemical_formula_sum "Si O2"
_cell_formula_units_Z 64
_cell_length_a 14.556074
_cell_length_b 29.843083
_cell_length_c 8.351217
_cell_angle_alpha 90.000000
_cell_angle_beta 121.277223
_cell_angle_gamma 90.000000
_cell_volume 3100.514568
_symmetry_space_group_name_H-M "C 2/C"
_symmetry_group_IT_number 15
_symmetry_cell_setting 'monoclinic'
loop_
_space_group_symop_operation_xyz
x,y,z
-x,y,1/2-z
-x,-y,-z
x,-y,1/2+z
1/2+x,1/2+y,z
1/2-x,1/2+y,1/2-z
1/2-x,1/2-y,-z
1/2+x,1/2-y,1/2+z
loop_
_atom_site_type_symbol
_atom_site_label
_atom_site_fract_x
_atom_site_fract_y
_atom_site_fract_z
Si Si1 0.439567 0.196296 0.963545
Si Si2 0.853932 0.147186 0.285581
Si Si3 0.472639 0.294007 0.411828
Si Si4 0.375076 0.053316 0.137031
Si Si5 0.264394 0.703302 0.917327
Si Si6 0.356266 0.843155 0.716809
Si Si7 0.747256 0.479948 0.223078
Si Si8 0.376920 0.450645 0.690464
O O1 0.350696 0.186744 0.750104
O O2 0.471949 0.248085 0.979886
O O3 0.551173 0.168898 0.070213
O O4 0.384931 0.185987 0.086475
O O5 0.762619 0.164265 0.325387
O O6 0.854472 0.093805 0.272223
O O7 0.968673 0.165636 0.443744
O O8 0.819297 0.168330 0.086167
O O9 0.500000 0.298435 0.250000
O O10 0.347601 0.290851 0.345225
O O11 0.500000 0.041109 0.250000
O O12 0.365973 0.104821 0.180409
O O13 0.315482 0.019764 0.203675
O O14 0.320412 0.046750 0.914439
O O15 0.250000 0.750000 0.000000
O O16 0.654099 0.505079 0.238409
O O17 0.697122 0.451060 0.035086
O O18 0.500000 0.451087 0.750000
#
# Coordination Sequence:
#
# PCOD9297907 Si02
#       8
#     8   8   8   8   8   8   8   8
#     4  11  24  42  69  93 131 183 222 273 335 393
#     4  12  26  43  66  96 139 170 224 281 333 394
#     4  12  25  45  67  95 130 183 224 273 337 395
#     4  11  21  43  67 100 135 171 221 275 332 407
#     4  12  26  42  67  97 136 172 229 282 336 394
#     4  11  23  43  66  96 134 178 227 272 323 410
#     4  10  24  42  71  96 132 177 216 273 350 396
#     4  11  23  45  67  99 132 173 222 277 337 406
#
# _framework density 20.641735000000001
#
# number of rings (size 3 to 8) (size 9 to 14) (size 15 to 20)
#    0.000    0.750    5.000    3.375    1.750    2.500 
#    2.250    0.625    0.000    0.000    0.000    0.000 
#    0.000    0.000    0.000    0.000    0.000    0.000 
#
# Total GULP energy -179002.658245 kJ/mol
# GULP energy per Si atom -5593.833070 kJ/mol
# Density = 2.059475 g / cm^3
# Si number density = 20.641735 Si / 1000 Ang^3
#
#
#
# Elastic Constant Matrix: (Units=GPa)
#
#
# Indices 1 2 3 4 5 6 
#
# 1 69.9087 -0.4868 -6.4884 0.0000 12.0137 0.0000
# 2 -0.4868 66.8888 18.0306 0.0000 6.3877 0.0000
# 3 -6.4884 18.0306 77.2844 0.0000 8.3050 0.0000
# 4 0.0000 0.0000 0.0000 13.8538 0.0000 -34.1494
# 5 12.0137 6.3877 8.3050 0.0000 26.4607 0.0000
# 6 0.0000 0.0000 0.0000 -34.1494 0.0000 -75.6247
#
#
#
# Elastic Compliance Matrix: (Units=1/GPa)
#
#
# Indices 1 2 3 4 5 6 
#
# 1 0.015867 0.000304 0.002115 0.000000 -0.007941 0.000000
# 2 0.000304 0.016159 -0.003426 0.000000 -0.002963 0.000000
# 3 0.002115 -0.003426 0.014417 0.000000 -0.004658 0.000000
# 4 0.000000 0.000000 0.000000 0.034159 0.000000 -0.015425
# 5 -0.007941 -0.002963 -0.004658 0.000000 0.043575 0.000000
# 6 0.000000 0.000000 0.000000 -0.015425 0.000000 -0.006258
#
#
# Mechanical properties :
#
#
# Convention : Reuss Voigt Hill
#
# Bulk Modulus (GPa) = 22.50836 26.24362 24.37599
# Shear Modulus (GPa) = 37.10755 6.47307 21.79031
#
# Velocity S-wave (km/s) = 4.24452 1.77277 3.25259
# Velocity P-wave (km/s) = 5.91179 4.11482 5.09318
#
# Compressibility (1/GPa) = 0.04442793
#
# Stress axis : x y z
#
# Youngs Moduli (GPa) = 63.02214 61.88545 69.36458
#
# Poissons Ratio (x) = -0.01880 -0.14668
# Poissons Ratio (y) = -0.01915 0.23764
# Poissons Ratio (z) = -0.13327 0.21202
#
# Static dielectric constant tensor:
#      x y z
#    x 1.755200 0.000000 -0.014650 
#    y 0.000000 1.701880 0.000000 
#    z -0.014650 0.000000 1.723970 
# 
# From -- ./inp_files/44816.got.cif
#   From: 2010.05.17/outbox.cif.g08.bks.cpg/sg15_23_cif.got.tgz:44816.got - 2010.06.03 18:47:42.
