data_PCOD9297603
_publ_section_title
;
Structure prediction by ZEFSAII (Michael W. Deem and Ramdas Pophale) SiO2 
 PCOD9297603
Probable space group: C 2/C
;
_chemical_formula_sum "Si O2"
_cell_formula_units_Z 44
_cell_length_a 7.055917
_cell_length_b 11.871542
_cell_length_c 22.990908
_cell_angle_alpha 90.000000
_cell_angle_beta 112.668871
_cell_angle_gamma 90.000000
_cell_volume 1777.050022
_symmetry_space_group_name_H-M "C 2/C"
_symmetry_group_IT_number 15
_symmetry_cell_setting 'monoclinic'
loop_
_space_group_symop_operation_xyz
x,y,z
-x,y,1/2-z
-x,-y,-z
x,-y,1/2+z
1/2+x,1/2+y,z
1/2-x,1/2+y,1/2-z
1/2-x,1/2-y,-z
1/2+x,1/2-y,1/2+z
loop_
_atom_site_type_symbol
_atom_site_label
_atom_site_fract_x
_atom_site_fract_y
_atom_site_fract_z
Si Si1 0.955959 0.050743 0.142109
Si Si2 0.567699 0.021067 0.325281
Si Si3 0.605186 0.789066 0.908773
Si Si4 0.104584 0.713883 0.660273
Si Si5 0.000000 0.126047 0.750000
Si Si6 0.365588 0.428173 0.028174
O O1 0.958677 0.181657 0.158263
O O2 0.187972 0.034925 0.144973
O O3 0.949824 0.959891 0.192290
O O4 0.805436 0.012640 0.072991
O O5 0.500000 0.020174 0.250000
O O6 0.505603 0.905131 0.347818
O O7 0.483463 0.128649 0.350887
O O8 0.791735 0.739447 0.890324
O O9 0.515273 0.677113 0.927301
O O10 0.689836 0.868086 0.970056
O O11 0.297749 0.702928 0.727833
O O12 0.500000 0.500000 0.000000
#
# Coordination Sequence:
#
# PCOD9297603 Si02
#       6
#     8   8   8   8   4   8
#     4  11  25  41  66  95 130 171 212 269 322 383
#     4  11  23  43  63  98 133 163 215 269 321 380
#     4  10  24  41  68  89 129 176 212 264 323 385
#     4  11  24  41  64  95 130 166 215 264 320 390
#     4  12  24  40  64  94 128 172 208 262 334 386
#     4  11  20  44  68  91 129 175 218 261 322 379
#
# _framework density 24.760137
#
# number of rings (size 3 to 8) (size 9 to 14) (size 15 to 20)
#    0.000    1.091    7.273    0.000    6.364    0.000 
#    3.273    7.273    0.000    0.000    0.000    0.000 
#    0.000    0.000    0.000    0.000    0.000    0.000 
#
# Total GULP energy -123023.779691 kJ/mol
# GULP energy per Si atom -5591.989986 kJ/mol
# Density = 2.470378 g / cm^3
# Si number density = 24.760137 Si / 1000 Ang^3
#
#
#
# Elastic Constant Matrix: (Units=GPa)
#
#
# Indices 1 2 3 4 5 6 
#
# 1 53.8885 45.0875 12.3213 0.0000 -0.5606 0.0000
# 2 45.0875 215.5849 77.5699 0.0000 -13.8991 0.0000
# 3 12.3213 77.5699 128.9550 0.0000 -33.1176 0.0000
# 4 0.0000 0.0000 0.0000 43.5826 0.0000 -5.3900
# 5 -0.5606 -13.8991 -33.1176 0.0000 21.1575 0.0000
# 6 0.0000 0.0000 0.0000 -5.3900 0.0000 47.0554
#
#
#
# Elastic Compliance Matrix: (Units=1/GPa)
#
#
# Indices 1 2 3 4 5 6 
#
# 1 0.022634 -0.004966 0.000236 0.000000 -0.002294 0.000000
# 2 -0.004966 0.007112 -0.004410 0.000000 -0.002363 0.000000
# 3 0.000236 -0.004410 0.016124 0.000000 0.022348 0.000000
# 4 0.000000 0.000000 0.000000 0.023275 0.000000 0.002666
# 5 -0.002294 -0.002363 0.022348 0.000000 0.080633 0.000000
# 6 0.000000 0.000000 0.000000 0.002666 0.000000 0.021557
#
#
# Mechanical properties :
#
#
# Convention : Reuss Voigt Hill
#
# Bulk Modulus (GPa) = 36.24699 74.26509 55.25604
# Shear Modulus (GPa) = 25.14928 39.92244 32.53586
#
# Velocity S-wave (km/s) = 3.19049 4.01979 3.62890
# Velocity P-wave (km/s) = 5.31444 7.18358 6.31851
#
# Compressibility (1/GPa) = 0.02758849
#
# Stress axis : x y z
#
# Youngs Moduli (GPa) = 44.18046 140.61291 62.01822
#
# Poissons Ratio (x) = 0.69835 -0.01461
# Poissons Ratio (y) = 0.21942 0.27351
# Poissons Ratio (z) = -0.01041 0.62013
#
# Static dielectric constant tensor:
#      x y z
#    x 2.020610 0.000000 -0.027430 
#    y 0.000000 1.981710 0.000000 
#    z -0.027430 0.000000 1.998260 
# 
# From -- ./inp_files/263608.got.cif
#   From: 2010.05.17/outbox.cif.g08.bks.cpg/sg15_132_cif.got.tgz:263608.got - 2010.06.03 18:47:42.
