data_PCOD9297431
_publ_section_title
;
Structure prediction by ZEFSAII (Michael W. Deem and Ramdas Pophale) SiO2 
 PCOD9297431
Probable space group: C 2/C
;
_chemical_formula_sum "Si O2"
_cell_formula_units_Z 32
_cell_length_a 11.254198
_cell_length_b 22.172817
_cell_length_c 10.865745
_cell_angle_alpha 90.000000
_cell_angle_beta 29.845449
_cell_angle_gamma 90.000000
_cell_volume 1349.365311
_symmetry_space_group_name_H-M "C 2/C"
_symmetry_group_IT_number 15
_symmetry_cell_setting 'monoclinic'
loop_
_space_group_symop_operation_xyz
x,y,z
-x,y,1/2-z
-x,-y,-z
x,-y,1/2+z
1/2+x,1/2+y,z
1/2-x,1/2+y,1/2-z
1/2-x,1/2-y,-z
1/2+x,1/2-y,1/2+z
loop_
_atom_site_type_symbol
_atom_site_label
_atom_site_fract_x
_atom_site_fract_y
_atom_site_fract_z
Si Si1 0.000000 0.897154 0.250000
Si Si2 0.149007 0.193632 0.012337
Si Si3 0.500000 0.896579 0.250000
Si Si4 0.635595 0.989572 0.506322
Si Si5 0.597300 0.717423 0.518932
O O1 0.865960 0.849435 0.459000
O O2 0.849618 0.942793 0.300289
O O3 0.000000 0.159606 0.250000
O O4 0.250000 0.250000 0.000000
O O5 0.359779 0.148359 0.785064
O O6 0.978724 0.211800 0.055279
O O7 0.326764 0.942694 0.476978
O O8 0.500000 0.963204 0.750000
O O9 0.500000 0.000000 0.500000
O O10 0.846005 0.754475 0.298140
#
# Coordination Sequence:
#
# PCOD9297431 Si02
#       5
#     4   8   4   8   8
#     4  12  28  48  78 106 146 204 256 318 382 466
#     4  12  22  41  70 107 149 195 249 314 386 458
#     4  10  24  40  66 102 146 194 252 316 378 454
#     4  10  26  48  73 104 150 195 261 315 386 453
#     4  12  27  46  76 111 153 196 254 314 387 460
#
# _framework density 23.714853000000002
#
# number of rings (size 3 to 8) (size 9 to 14) (size 15 to 20)
#    0.750    0.000    3.750    2.250    5.250    3.000 
#    0.000    0.000    0.000    0.000    0.000    0.000 
#    0.000    0.000    0.000    0.000    0.000    0.000 
#
# Total GULP energy -89105.952901 kJ/mol
# GULP energy per Si atom -5569.122056 kJ/mol
# Density = 2.366088 g / cm^3
# Si number density = 23.714853 Si / 1000 Ang^3
#
#
#
# Elastic Constant Matrix: (Units=GPa)
#
#
# Indices 1 2 3 4 5 6 
#
# 1 159.0997 72.2173 35.5017 0.0000 -24.1026 -0.0004
# 2 72.2173 187.8254 47.0507 0.0000 -33.1137 -0.0001
# 3 35.5017 47.0507 82.6890 -0.0001 -4.8705 -0.0007
# 4 0.0000 0.0000 -0.0001 37.6244 0.0000 -28.0744
# 5 -24.1026 -33.1137 -4.8705 0.0000 42.1458 0.0005
# 6 -0.0004 -0.0001 -0.0007 -28.0744 0.0005 19.5677
#
#
#
# Elastic Compliance Matrix: (Units=1/GPa)
#
#
# Indices 1 2 3 4 5 6 
#
# 1 0.008135 -0.002109 -0.002130 0.000000 0.002748 0.000000
# 2 -0.002109 0.007738 -0.003232 0.000003 0.004500 0.000004
# 3 -0.002130 -0.003232 0.014726 -0.000006 -0.002056 -0.000008
# 4 0.000000 0.000003 -0.000006 -0.376665 0.000008 -0.540414
# 5 0.002748 0.004500 -0.002056 0.000008 0.028597 0.000010
# 6 0.000000 0.000004 -0.000008 -0.540414 0.000010 -0.724245
#
#
# Mechanical properties :
#
#
# Convention : Reuss Voigt Hill
#
# Bulk Modulus (GPa) = 63.87826 82.12817 73.00321
# Shear Modulus (GPa) = -4.89452 38.19054 16.64801
#
# Velocity S-wave (km/s) = -1.43819 4.01734 2.65242
# Velocity P-wave (km/s) = 4.92307 7.49836 6.34279
#
# Compressibility (1/GPa) = 0.01565478
#
# Stress axis : x y z
#
# Youngs Moduli (GPa) = 122.93121 129.22842 67.90584
#
# Poissons Ratio (x) = 0.27261 0.14466
# Poissons Ratio (y) = 0.25932 0.21950
# Poissons Ratio (z) = 0.26188 0.41771
#
# Static dielectric constant tensor:
#      x y z
#    x 2.226640 0.000000 0.006770 
#    y 0.000000 1.833210 0.000000 
#    z 0.006770 0.000000 2.374480 
# 
# From -- ./inp_files/89285.got.cif
#   From: 2010.05.17/outbox.cif.g08.bks.cpg/sg15_45_cif.got.tgz:89285.got - 2010.06.03 18:47:42.
