data_PCOD9297930
_publ_section_title
;
Structure prediction by ZEFSAII (Michael W. Deem and Ramdas Pophale) SiO2 
 PCOD9297930
Probable space group: C 2/C
;
_chemical_formula_sum "Si O2"
_cell_formula_units_Z 48
_cell_length_a 21.014706
_cell_length_b 9.865604
_cell_length_c 17.785658
_cell_angle_alpha 90.000000
_cell_angle_beta 31.695579
_cell_angle_gamma 90.000000
_cell_volume 1937.367289
_symmetry_space_group_name_H-M "C 2/C"
_symmetry_group_IT_number 15
_symmetry_cell_setting 'monoclinic'
loop_
_space_group_symop_operation_xyz
x,y,z
-x,y,1/2-z
-x,-y,-z
x,-y,1/2+z
1/2+x,1/2+y,z
1/2-x,1/2+y,1/2-z
1/2-x,1/2-y,-z
1/2+x,1/2-y,1/2+z
loop_
_atom_site_type_symbol
_atom_site_label
_atom_site_fract_x
_atom_site_fract_y
_atom_site_fract_z
Si Si1 0.273539 0.409556 0.798272
Si Si2 0.227048 0.518241 0.624319
Si Si3 0.029953 0.672947 0.343602
Si Si4 0.137533 0.652827 0.856353
Si Si5 0.002945 0.987308 0.158596
Si Si6 0.392798 0.080461 0.905077
O O1 0.221771 0.546043 0.814406
O O2 0.305938 0.301043 0.702982
O O3 0.394155 0.443370 0.723384
O O4 0.171453 0.354753 0.958731
O O5 0.140922 0.605473 0.766290
O O6 0.366139 0.528222 0.504989
O O7 0.208281 0.557113 0.556636
O O8 0.168223 0.369506 0.691199
O O9 0.988295 0.656215 0.472270
O O10 0.007588 0.824957 0.340743
O O11 0.949790 0.562795 0.377288
O O12 0.000000 0.017148 0.250000
O O13 0.500000 0.150873 0.750000
#
# Coordination Sequence:
#
# PCOD9297930 Si02
#       6
#     8   8   8   8   8   8
#     4  11  26  49  72 107 146 188 244 292 362 425
#     4  11  23  44  71 105 142 188 237 297 361 419
#     4  10  24  42  72 105 142 192 246 290 350 430
#     4  11  26  48  74 104 145 194 235 300 355 432
#     4  12  25  44  74 107 147 186 238 305 356 424
#     4   9  20  44  69 106 136 190 245 290 343 428
#
# _framework density 24.775891000000001
#
# number of rings (size 3 to 8) (size 9 to 14) (size 15 to 20)
#    0.000    1.333    1.667    3.000    7.000    4.667 
#    9.000    0.000    0.000    0.000    0.000    0.000 
#    0.000    0.000    0.000    0.000    0.000    0.000 
#
# Total GULP energy -134447.512054 kJ/mol
# GULP energy per Si atom -5601.979669 kJ/mol
# Density = 2.471950 g / cm^3
# Si number density = 24.775891 Si / 1000 Ang^3
#
#
#
# Elastic Constant Matrix: (Units=GPa)
#
#
# Indices 1 2 3 4 5 6 
#
# 1 93.6189 25.0270 16.3101 0.0000 5.7914 0.0000
# 2 25.0270 87.8881 17.5524 0.0000 -3.4599 0.0000
# 3 16.3101 17.5524 127.2474 0.0000 7.5032 0.0000
# 4 0.0000 0.0000 0.0000 17.3571 0.0000 3.0000
# 5 5.7914 -3.4599 7.5032 0.0000 47.4954 0.0000
# 6 0.0000 0.0000 0.0000 3.0000 0.0000 12.7071
#
#
#
# Elastic Compliance Matrix: (Units=1/GPa)
#
#
# Indices 1 2 3 4 5 6 
#
# 1 0.011809 -0.003227 -0.000979 0.000000 -0.001520 0.000000
# 2 -0.003227 0.012641 -0.001421 0.000000 0.001539 0.000000
# 3 -0.000979 -0.001421 0.008256 0.000000 -0.001288 0.000000
# 4 0.000000 0.000000 0.000000 0.060064 0.000000 -0.014180
# 5 -0.001520 0.001539 -0.001288 0.000000 0.021556 0.000000
# 6 0.000000 0.000000 0.000000 -0.014180 0.000000 0.082044
#
#
# Mechanical properties :
#
#
# Convention : Reuss Voigt Hill
#
# Bulk Modulus (GPa) = 46.61372 47.39260 47.00316
# Shear Modulus (GPa) = 23.28020 32.16959 27.72489
#
# Velocity S-wave (km/s) = 3.06867 3.60727 3.34882
# Velocity P-wave (km/s) = 5.60452 6.04317 5.82797
#
# Compressibility (1/GPa) = 0.02145291
#
# Stress axis : x y z
#
# Youngs Moduli (GPa) = 84.68213 79.10529 121.12213
#
# Poissons Ratio (x) = 0.25528 0.11856
# Poissons Ratio (y) = 0.27327 0.17210
# Poissons Ratio (z) = 0.08289 0.11240
#
# Static dielectric constant tensor:
#      x y z
#    x 1.960180 0.000000 0.003080 
#    y 0.000000 1.969840 0.000000 
#    z 0.003080 0.000000 1.949460 
# 
# From -- ./inp_files/219257.got.cif
#   From: 2010.05.17/outbox.cif.g08.bks.cpg/sg15_110_cif.got.tgz:219257.got - 2010.06.03 18:47:42.
