data_PCOD9297715
_publ_section_title
;
Structure prediction by ZEFSAII (Michael W. Deem and Ramdas Pophale) SiO2 
 PCOD9297715
Probable space group: C 2/C
;
_chemical_formula_sum "Si O2"
_cell_formula_units_Z 48
_cell_length_a 18.787856
_cell_length_b 22.240454
_cell_length_c 14.221592
_cell_angle_alpha 90.000000
_cell_angle_beta 22.828508
_cell_angle_gamma 90.000000
_cell_volume 2305.536246
_symmetry_space_group_name_H-M "C 2/C"
_symmetry_group_IT_number 15
_symmetry_cell_setting 'monoclinic'
loop_
_space_group_symop_operation_xyz
x,y,z
-x,y,1/2-z
-x,-y,-z
x,-y,1/2+z
1/2+x,1/2+y,z
1/2-x,1/2+y,1/2-z
1/2-x,1/2-y,-z
1/2+x,1/2-y,1/2+z
loop_
_atom_site_type_symbol
_atom_site_label
_atom_site_fract_x
_atom_site_fract_y
_atom_site_fract_z
Si Si1 0.104850 0.599816 0.764053
Si Si2 0.611322 0.631722 0.916716
Si Si3 0.843461 0.813122 0.864024
Si Si4 0.783190 0.048465 0.272338
Si Si5 0.209921 0.577453 0.971166
Si Si6 0.825477 0.984546 0.505118
O O1 0.218428 0.623632 0.717590
O O2 0.190713 0.636499 0.572658
O O3 0.157992 0.529764 0.696007
O O4 0.885340 0.595909 0.030641
O O5 0.697978 0.626529 0.708382
O O6 0.469121 0.684793 0.117332
O O7 0.463388 0.577010 0.100366
O O8 0.000000 0.825201 0.750000
O O9 0.750000 0.750000 0.000000
O O10 0.832694 0.034185 0.103786
O O11 0.728950 0.987050 0.392761
O O12 0.304338 0.569248 0.957018
O O13 0.000000 0.589840 0.250000
O O14 0.000000 0.019046 0.250000
#
# Coordination Sequence:
#
# PCOD9297715 Si02
#       6
#     8   8   8   8   8   8
#     4  11  22  38  57  87 122 163 208 250 306 373
#     4  11  23  39  57  87 123 164 207 259 308 367
#     4  10  24  42  65  91 122 157 208 271 322 366
#     4  12  23  36  59  85 131 174 203 250 301 380
#     4  12  22  35  56  86 125 172 208 240 305 372
#     4  12  21  35  54  84 126 168 208 240 296 377
#
# _framework density 20.81945
#
# number of rings (size 3 to 8) (size 9 to 14) (size 15 to 20)
#    0.000    0.667    5.000    5.500    2.333    0.000 
#    0.000    0.000    0.000    0.000    0.000   11.667 
#    0.000    0.167    0.000    0.000    0.000    0.000 
#
# Total GULP energy -133888.069096 kJ/mol
# GULP energy per Si atom -5578.669546 kJ/mol
# Density = 2.077206 g / cm^3
# Si number density = 20.819450 Si / 1000 Ang^3
#
#
#
# Elastic Constant Matrix: (Units=GPa)
#
#
# Indices 1 2 3 4 5 6 
#
# 1 89.7910 5.3967 23.1146 -0.0272 1.8084 0.0215
# 2 5.3967 32.0778 16.1831 -0.0496 2.0398 0.0344
# 3 23.1146 16.1831 111.4351 -0.0576 -7.2288 0.0349
# 4 -0.0272 -0.0496 -0.0576 40.4263 0.0253 -1.7687
# 5 1.8084 2.0398 -7.2288 0.0253 43.7714 -0.0162
# 6 0.0215 0.0344 0.0349 -1.7687 -0.0162 11.9709
#
#
#
# Elastic Compliance Matrix: (Units=1/GPa)
#
#
# Indices 1 2 3 4 5 6 
#
# 1 0.011816 -0.000722 -0.002401 0.000004 -0.000851 -0.000013
# 2 -0.000722 0.033934 -0.004932 0.000032 -0.002366 -0.000080
# 3 -0.002401 -0.004932 0.010320 0.000005 0.002033 -0.000008
# 4 0.000004 0.000032 0.000005 0.024897 -0.000014 0.003678
# 5 -0.000851 -0.002366 0.002033 -0.000014 0.023327 0.000032
# 6 -0.000013 -0.000080 -0.000008 0.003678 0.000032 0.084080
#
#
# Mechanical properties :
#
#
# Convention : Reuss Voigt Hill
#
# Bulk Modulus (GPa) = 25.02526 35.85473 30.43999
# Shear Modulus (GPa) = 22.95635 31.80768 27.38202
#
# Velocity S-wave (km/s) = 3.32420 3.91293 3.63052
# Velocity P-wave (km/s) = 5.17494 6.13790 5.67688
#
# Compressibility (1/GPa) = 0.03995963
#
# Stress axis : x y z
#
# Youngs Moduli (GPa) = 84.63343 29.46863 96.89900
#
# Poissons Ratio (x) = 0.02129 0.23267
# Poissons Ratio (y) = 0.06113 0.47788
# Poissons Ratio (z) = 0.20322 0.14533
#
# Static dielectric constant tensor:
#      x y z
#    x 1.828140 -0.012560 -0.045790 
#    y -0.012560 -1.421040 0.023830 
#    z -0.045790 0.023830 1.911840 
# 
# From -- ./inp_files/32002.got.cif
#   From: 2010.05.17/outbox.cif.g08.bks.cpg/sg15_17_cif.got.tgz:32002.got - 2010.06.03 18:47:42.
