data_PCOD9297949
_publ_section_title
;
Structure prediction by ZEFSAII (Michael W. Deem and Ramdas Pophale) SiO2 
 PCOD9297949
Probable space group: C 2/C
;
_chemical_formula_sum "Si O2"
_cell_formula_units_Z 56
_cell_length_a 12.143055
_cell_length_b 29.266271
_cell_length_c 8.395620
_cell_angle_alpha 90.000000
_cell_angle_beta 65.376259
_cell_angle_gamma 90.000000
_cell_volume 2712.328990
_symmetry_space_group_name_H-M "C 2/C"
_symmetry_group_IT_number 15
_symmetry_cell_setting 'monoclinic'
loop_
_space_group_symop_operation_xyz
x,y,z
-x,y,1/2-z
-x,-y,-z
x,-y,1/2+z
1/2+x,1/2+y,z
1/2-x,1/2+y,1/2-z
1/2-x,1/2-y,-z
1/2+x,1/2-y,1/2+z
loop_
_atom_site_type_symbol
_atom_site_label
_atom_site_fract_x
_atom_site_fract_y
_atom_site_fract_z
Si Si1 0.500000 0.637417 0.750000
Si Si2 0.075388 0.431460 0.429373
Si Si3 0.000000 0.501127 0.750000
Si Si4 0.661386 0.788509 0.491614
Si Si5 0.190312 0.176097 0.884472
Si Si6 0.931933 0.268461 0.459181
Si Si7 0.746946 0.618253 0.443985
Si Si8 0.834884 0.370311 0.548919
O O1 0.582359 0.663310 0.829374
O O2 0.606037 0.615536 0.575963
O O3 0.033017 0.467390 0.588948
O O4 0.184989 0.407811 0.454156
O O5 0.098798 0.463179 0.261062
O O6 0.965707 0.395796 0.457936
O O7 0.750000 0.750000 0.500000
O O8 0.702563 0.806965 0.294402
O O9 0.529786 0.767820 0.543418
O O10 0.687852 0.832032 0.584741
O O11 0.143276 0.221605 0.000835
O O12 0.239143 0.133471 0.959926
O O13 0.862928 0.315780 0.535938
O O14 0.000000 0.271622 0.250000
O O15 0.774455 0.607373 0.242788
#
# Coordination Sequence:
#
# PCOD9297949 Si02
#       8
#     4   8   4   8   8   8   8   8
#     4  10  26  44  61  90 124 188 224 269 328 382
#     4  11  23  44  71 110 136 166 208 274 350 408
#     4  10  24  42  73 112 136 160 204 275 356 410
#     4  11  23  38  58  84 127 183 224 277 317 376
#     4  11  25  40  58  90 130 179 236 276 319 383
#     4  12  24  36  56  90 128 174 231 270 331 374
#     4  11  23  42  66  93 136 174 224 271 333 403
#     4  12  24  39  66  97 130 176 219 277 335 400
#
# _framework density 20.646462
#
# number of rings (size 3 to 8) (size 9 to 14) (size 15 to 20)
#    0.000    0.857    4.286    3.000    9.000    1.143 
#    0.000    0.000    0.000    0.857    0.000    0.000 
#    0.000    0.000    0.000    0.000    0.000    0.000 
#
# Total GULP energy -155959.074802 kJ/mol
# GULP energy per Si atom -5569.966957 kJ/mol
# Density = 2.059947 g / cm^3
# Si number density = 20.646462 Si / 1000 Ang^3
#
#
#
# Elastic Constant Matrix: (Units=GPa)
#
#
# Indices 1 2 3 4 5 6 
#
# 1 109.2107 28.5476 18.0755 0.0000 20.0376 0.0000
# 2 28.5476 63.1901 3.5614 0.0000 9.6023 0.0000
# 3 18.0755 3.5614 83.3579 0.0000 2.7418 0.0000
# 4 0.0000 0.0000 0.0000 3.6685 0.0000 17.5033
# 5 20.0376 9.6023 2.7418 0.0000 29.4665 0.0000
# 6 0.0000 0.0000 0.0000 17.5033 0.0000 29.3703
#
#
#
# Elastic Compliance Matrix: (Units=1/GPa)
#
#
# Indices 1 2 3 4 5 6 
#
# 1 0.011804 -0.004231 -0.002167 0.000000 -0.006446 0.000000
# 2 -0.004231 0.018190 0.000241 0.000000 -0.003073 0.000000
# 3 -0.002167 0.000241 0.012448 0.000000 0.000236 0.000000
# 4 0.000000 0.000000 0.000000 -0.147871 0.000000 0.088124
# 5 -0.006446 -0.003073 0.000236 0.000000 0.039300 0.000000
# 6 0.000000 0.000000 0.000000 0.088124 0.000000 -0.018470
#
#
# Mechanical properties :
#
#
# Convention : Reuss Voigt Hill
#
# Bulk Modulus (GPa) = 33.19015 39.56976 36.37995
# Shear Modulus (GPa) = -80.33134 26.20600 -27.06267
#
# Velocity S-wave (km/s) = -6.24440 3.56655 -3.62438
# Velocity P-wave (km/s) = 5.98996 6.01393 0.37930
#
# Compressibility (1/GPa) = 0.03012942
#
# Stress axis : x y z
#
# Youngs Moduli (GPa) = 84.71704 54.97507 80.33270
#
# Poissons Ratio (x) = 0.23260 0.17407
# Poissons Ratio (y) = 0.35844 -0.01939
# Poissons Ratio (z) = 0.18357 -0.01327
#
# Static dielectric constant tensor:
#      x y z
#    x 1.824940 0.000000 0.054740 
#    y 0.000000 1.955740 0.000000 
#    z 0.054740 0.000000 1.833150 
# 
# From -- ./inp_files/35181.got.cif
#   From: 2010.05.17/outbox.cif.g08.bks.cpg/sg15_18_cif.got.tgz:35181.got - 2010.06.03 18:47:42.
