data_PCOD9297370
_publ_section_title
;
Structure prediction by ZEFSAII (Michael W. Deem and Ramdas Pophale) SiO2 
 PCOD9297370
Probable space group: C 2/C
;
_chemical_formula_sum "Si O2"
_cell_formula_units_Z 56
_cell_length_a 10.134860
_cell_length_b 19.508945
_cell_length_c 15.040144
_cell_angle_alpha 90.000000
_cell_angle_beta 67.147998
_cell_angle_gamma 90.000000
_cell_volume 2740.337695
_symmetry_space_group_name_H-M "C 2/C"
_symmetry_group_IT_number 15
_symmetry_cell_setting 'monoclinic'
loop_
_space_group_symop_operation_xyz
x,y,z
-x,y,1/2-z
-x,-y,-z
x,-y,1/2+z
1/2+x,1/2+y,z
1/2-x,1/2+y,1/2-z
1/2-x,1/2-y,-z
1/2+x,1/2-y,1/2+z
loop_
_atom_site_type_symbol
_atom_site_label
_atom_site_fract_x
_atom_site_fract_y
_atom_site_fract_z
Si Si1 0.097304 0.711030 0.039006
Si Si2 0.237381 0.899883 0.732373
Si Si3 0.554691 0.077258 0.488658
Si Si4 0.905494 0.780527 0.952564
Si Si5 0.000000 0.339702 0.750000
Si Si6 0.030932 0.023695 0.842298
Si Si7 0.332583 0.569818 0.510770
Si Si8 0.000000 0.211354 0.250000
O O1 0.066031 0.636283 0.998444
O O2 0.033681 0.703094 0.153824
O O3 0.250000 0.750000 0.000000
O O4 0.994958 0.761056 0.013205
O O5 0.333439 0.914729 0.621553
O O6 0.355851 0.883493 0.775268
O O7 0.137906 0.835377 0.735191
O O8 0.134405 0.960659 0.788702
O O9 0.661648 0.080917 0.545548
O O10 0.500000 0.000000 0.500000
O O11 0.972906 0.748690 0.846680
O O12 0.750000 0.750000 0.000000
O O13 0.901933 0.862306 0.949665
O O14 0.113603 0.062996 0.901153
O O15 0.000000 0.054544 0.750000
O O16 0.893119 0.992601 0.932767
#
# Coordination Sequence:
#
# PCOD9297370 Si02
#       8
#     8   8   8   8   4   8   8   4
#     4  11  25  43  68  98 137 181 228 278 345 407
#     4  11  19  40  65  93 131 175 228 267 330 412
#     4  11  23  42  66  99 138 172 228 289 342 402
#     4  12  22  43  69  95 131 172 231 278 331 409
#     4  10  24  40  60  98 130 180 226 274 330 414
#     4  11  21  39  67 102 131 171 231 275 346 420
#     4  11  23  39  69  99 130 180 220 286 342 407
#     4  12  20  40  74  90 124 176 234 272 324 418
#
# _framework density 20.435437
#
# number of rings (size 3 to 8) (size 9 to 14) (size 15 to 20)
#    0.000    0.857    6.429    1.714    4.000    1.143 
#    1.286    1.429    0.000    0.000    0.000    0.000 
#    0.000    0.000    0.000    0.000    0.000    0.000 
#
# Total GULP energy -156014.201980 kJ/mol
# GULP energy per Si atom -5571.935785 kJ/mol
# Density = 2.038893 g / cm^3
# Si number density = 20.435437 Si / 1000 Ang^3
#
#
#
# Elastic Constant Matrix: (Units=GPa)
#
#
# Indices 1 2 3 4 5 6 
#
# 1 150.4350 32.9129 36.6529 0.0000 16.4774 0.0000
# 2 32.9129 58.1998 5.9485 0.0000 0.2527 0.0000
# 3 36.6529 5.9485 96.8548 0.0000 21.8191 0.0000
# 4 0.0000 0.0000 0.0000 28.4886 0.0000 6.2881
# 5 16.4774 0.2527 21.8191 0.0000 42.5289 0.0000
# 6 0.0000 0.0000 0.0000 6.2881 0.0000 42.1573
#
#
#
# Elastic Compliance Matrix: (Units=1/GPa)
#
#
# Indices 1 2 3 4 5 6 
#
# 1 0.008457 -0.004521 -0.002477 0.000000 -0.001979 0.000000
# 2 -0.004521 0.019717 0.000149 0.000000 0.001558 0.000000
# 3 -0.002477 0.000149 0.012479 0.000000 -0.005444 0.000000
# 4 0.000000 0.000000 0.000000 0.036297 0.000000 -0.005414
# 5 -0.001979 0.001558 -0.005444 0.000000 0.027064 0.000000
# 6 0.000000 0.000000 0.000000 -0.005414 0.000000 0.024528
#
#
# Mechanical properties :
#
#
# Convention : Reuss Voigt Hill
#
# Bulk Modulus (GPa) = 37.09836 50.72425 43.91130
# Shear Modulus (GPa) = 33.06360 37.96662 35.51511
#
# Velocity S-wave (km/s) = 4.02674 4.31499 4.17336
# Velocity P-wave (km/s) = 6.30975 7.04990 6.69007
#
# Compressibility (1/GPa) = 0.02695537
#
# Stress axis : x y z
#
# Youngs Moduli (GPa) = 118.25009 50.71840 80.13313
#
# Poissons Ratio (x) = 0.22928 0.19848
# Poissons Ratio (y) = 0.53456 -0.01193
# Poissons Ratio (z) = 0.29289 -0.00755
#
# Static dielectric constant tensor:
#      x y z
#    x 1.766780 0.000000 0.046690 
#    y 0.000000 1.745740 0.000000 
#    z 0.046690 0.000000 1.746960 
# 
# From -- ./inp_files/137298.got.cif
#   From: 2010.05.17/outbox.cif.g08.bks.cpg/sg15_69_cif.got.tgz:137298.got - 2010.06.03 18:47:42.
