data_PCOD9297205
_publ_section_title
;
Structure prediction by ZEFSAII (Michael W. Deem and Ramdas Pophale) SiO2 
 PCOD9297205
Probable space group: C 2/C
;
_chemical_formula_sum "Si O2"
_cell_formula_units_Z 44
_cell_length_a 14.979429
_cell_length_b 23.380110
_cell_length_c 12.713514
_cell_angle_alpha 90.000000
_cell_angle_beta 145.678978
_cell_angle_gamma 90.000000
_cell_volume 2510.469262
_symmetry_space_group_name_H-M "C 2/C"
_symmetry_group_IT_number 15
_symmetry_cell_setting 'monoclinic'
loop_
_space_group_symop_operation_xyz
x,y,z
-x,y,1/2-z
-x,-y,-z
x,-y,1/2+z
1/2+x,1/2+y,z
1/2-x,1/2+y,1/2-z
1/2-x,1/2-y,-z
1/2+x,1/2-y,1/2+z
loop_
_atom_site_type_symbol
_atom_site_label
_atom_site_fract_x
_atom_site_fract_y
_atom_site_fract_z
Si Si1 0.000000 0.761147 0.250000
Si Si2 0.811483 0.450729 0.048160
Si Si3 0.235842 0.332224 0.901798
Si Si4 0.650649 0.921429 0.641858
Si Si5 0.719431 0.946803 0.251995
Si Si6 0.331717 0.574237 0.644002
O O1 0.885962 0.719309 0.203303
O O2 0.095015 0.801636 0.422169
O O3 0.741462 0.429639 0.090618
O O4 0.000000 0.455448 0.250000
O O5 0.789923 0.415175 0.920414
O O6 0.747298 0.513822 0.961523
O O7 0.206606 0.371697 0.773082
O O8 0.227753 0.374697 0.994573
O O9 0.458739 0.926121 0.451066
O O10 0.710624 0.983750 0.739926
O O11 0.835244 0.924710 0.273749
O O12 0.500000 0.576418 0.750000
#
# Coordination Sequence:
#
# PCOD9297205 Si02
#       6
#     4   8   8   8   8   8
#     4  10  24  34  56  72 102 132 194 218 282 286
#     4   9  18  33  51  80 107 146 180 193 242 343
#     4  11  20  38  50  80 100 140 171 236 255 310
#     4   9  17  30  56  76 107 137 176 214 255 303
#     4   9  17  30  50  82 107 148 169 194 249 339
#     4  11  21  30  48  76 116 144 165 210 267 305
#
# _framework density 17.526603999999999
#
# number of rings (size 3 to 8) (size 9 to 14) (size 15 to 20)
#    0.000    2.182    2.727    2.182    1.273    0.727 
#    0.000    0.000    0.000    0.000    0.000   34.364 
#    0.000    0.000    0.000    0.000    0.000    0.000 
#
# Total GULP energy -122694.319597 kJ/mol
# GULP energy per Si atom -5577.014527 kJ/mol
# Density = 1.748671 g / cm^3
# Si number density = 17.526604 Si / 1000 Ang^3
#
#
#
# Elastic Constant Matrix: (Units=GPa)
#
#
# Indices 1 2 3 4 5 6 
#
# 1 120.4132 34.9661 42.5721 0.0000 -37.1344 0.0000
# 2 34.9661 93.0611 53.4739 0.0000 -13.5761 0.0000
# 3 42.5721 53.4739 73.6537 0.0000 -25.4626 0.0000
# 4 0.0000 0.0000 0.0000 36.6332 0.0000 -6.0242
# 5 -37.1344 -13.5761 -25.4626 0.0000 28.2772 0.0000
# 6 0.0000 0.0000 0.0000 -6.0242 0.0000 13.0557
#
#
#
# Elastic Compliance Matrix: (Units=1/GPa)
#
#
# Indices 1 2 3 4 5 6 
#
# 1 0.014658 -0.002685 -0.000456 0.000000 0.017549 0.000000
# 2 -0.002685 0.019360 -0.015260 0.000000 -0.007972 0.000000
# 3 -0.000456 -0.015260 0.032205 0.000000 0.021075 0.000000
# 4 0.000000 0.000000 0.000000 0.029539 0.000000 0.013630
# 5 0.017549 -0.007972 0.021075 0.000000 0.073560 0.000000
# 6 0.000000 0.000000 0.000000 0.013630 0.000000 0.082884
#
#
# Mechanical properties :
#
#
# Convention : Reuss Voigt Hill
#
# Bulk Modulus (GPa) = 33.98912 61.01692 47.50302
# Shear Modulus (GPa) = 16.73283 26.00096 21.36689
#
# Velocity S-wave (km/s) = 3.09319 3.85582 3.49537
# Velocity P-wave (km/s) = 5.67381 7.39680 6.59184
#
# Compressibility (1/GPa) = 0.02942118
#
# Stress axis : x y z
#
# Youngs Moduli (GPa) = 68.22353 51.65316 31.05125
#
# Poissons Ratio (x) = 0.13871 0.01415
# Poissons Ratio (y) = 0.18321 0.47383
# Poissons Ratio (z) = 0.03108 0.78821
#
# Static dielectric constant tensor:
#      x y z
#    x 1.651810 0.000000 0.011370 
#    y 0.000000 1.558490 0.000000 
#    z 0.011370 0.000000 1.634140 
# 
# From -- ./inp_files/41032.got.cif
#   From: 2010.05.17/outbox.cif.g08.bks.cpg/sg15_21_cif.got.tgz:41032.got - 2010.06.03 18:47:42.
