data_PCOD9297927
_publ_section_title
;
Structure prediction by ZEFSAII (Michael W. Deem and Ramdas Pophale) SiO2 
 PCOD9297927
Probable space group: C 2/C
;
_chemical_formula_sum "Si O2"
_cell_formula_units_Z 20
_cell_length_a 19.226393
_cell_length_b 4.614483
_cell_length_c 19.105942
_cell_angle_alpha 90.000000
_cell_angle_beta 155.956041
_cell_angle_gamma 90.000000
_cell_volume 690.637628
_symmetry_space_group_name_H-M "C 2/C"
_symmetry_group_IT_number 15
_symmetry_cell_setting 'monoclinic'
loop_
_space_group_symop_operation_xyz
x,y,z
-x,y,1/2-z
-x,-y,-z
x,-y,1/2+z
1/2+x,1/2+y,z
1/2-x,1/2+y,1/2-z
1/2-x,1/2-y,-z
1/2+x,1/2-y,1/2+z
loop_
_atom_site_type_symbol
_atom_site_label
_atom_site_fract_x
_atom_site_fract_y
_atom_site_fract_z
Si Si1 0.360739 0.302960 0.833549
Si Si2 0.750000 0.750000 0.000000
Si Si3 0.562900 0.800415 0.384108
O O1 0.206208 0.531615 0.683706
O O2 0.433651 0.178634 0.828159
O O3 0.500000 0.500000 0.000000
O O4 0.624546 0.524218 0.928835
O O5 0.729648 0.999024 0.042653
O O6 0.500000 0.940019 0.250000
#
# Coordination Sequence:
#
# PCOD9297927 Si02
#       3
#     8   4   8
#     4  12  29  50  77 112 158 203 255 315 388 453
#     4  10  24  42  72 104 142 180 264 294 384 420
#     4  11  25  44  76 103 146 199 251 315 370 458
#
# _framework density 28.958748
#
# number of rings (size 3 to 8) (size 9 to 14) (size 15 to 20)
#    0.000    0.800    0.000    4.800   16.800    0.000 
#    0.000    0.000    0.000    0.000    0.000    0.000 
#    0.000    0.000    0.000    0.000    0.000    0.000 
#
# Total GULP energy -55682.118451 kJ/mol
# GULP energy per Si atom -5568.211845 kJ/mol
# Density = 2.889284 g / cm^3
# Si number density = 28.958748 Si / 1000 Ang^3
#
#
#
# Elastic Constant Matrix: (Units=GPa)
#
#
# Indices 1 2 3 4 5 6 
#
# 1 273.2518 33.0709 47.7418 0.0003 23.2989 0.0003
# 2 33.0709 171.5106 7.7782 0.0029 2.5048 0.0050
# 3 47.7418 7.7782 76.9999 0.0003 -8.9127 0.0005
# 4 0.0003 0.0029 0.0003 19.0929 0.0001 8.1378
# 5 23.2989 2.5048 -8.9127 0.0001 41.5930 0.0005
# 6 0.0003 0.0050 0.0005 8.1378 0.0005 52.6559
#
#
#
# Elastic Compliance Matrix: (Units=1/GPa)
#
#
# Indices 1 2 3 4 5 6 
#
# 1 0.004561 -0.000691 -0.003127 0.000000 -0.003183 0.000000
# 2 -0.000691 0.005972 -0.000176 -0.000001 -0.000010 0.000000
# 3 -0.003127 -0.000176 0.015533 0.000000 0.005090 0.000000
# 4 0.000000 -0.000001 0.000000 0.056069 0.000000 -0.008665
# 5 -0.003183 -0.000010 0.005090 0.000000 0.026917 0.000000
# 6 0.000000 0.000000 0.000000 -0.008665 0.000000 0.020330
#
#
# Mechanical properties :
#
#
# Convention : Reuss Voigt Hill
#
# Bulk Modulus (GPa) = 55.31515 77.66044 66.48780
# Shear Modulus (GPa) = 34.86874 51.54646 43.20760
#
# Velocity S-wave (km/s) = 3.47375 4.22358 3.86688
# Velocity P-wave (km/s) = 5.93567 7.11763 6.55335
#
# Compressibility (1/GPa) = 0.01807823
#
# Stress axis : x y z
#
# Youngs Moduli (GPa) = 219.25223 167.44976 64.38097
#
# Poissons Ratio (x) = 0.11574 0.20129
# Poissons Ratio (y) = 0.15154 0.01132
# Poissons Ratio (z) = 0.68550 0.02945
#
# Static dielectric constant tensor:
#      x y z
#    x 2.073760 0.000000 -0.213600 
#    y 0.000000 3.822960 0.000010 
#    z -0.213600 0.000010 1.375490 
# 
# From -- ./inp_files/207800.got.cif
#   From: 2010.05.17/outbox.cif.g08.bks.cpg/sg15_104_cif.got.tgz:207800.got - 2010.06.03 18:47:42.
