data_PCOD9297914
_publ_section_title
;
Structure prediction by ZEFSAII (Michael W. Deem and Ramdas Pophale) SiO2 
 PCOD9297914
Probable space group: C 2/C
;
_chemical_formula_sum "Si O2"
_cell_formula_units_Z 32
_cell_length_a 8.427929
_cell_length_b 19.184601
_cell_length_c 9.189413
_cell_angle_alpha 90.000000
_cell_angle_beta 98.946078
_cell_angle_gamma 90.000000
_cell_volume 1467.728999
_symmetry_space_group_name_H-M "C 2/C"
_symmetry_group_IT_number 15
_symmetry_cell_setting 'monoclinic'
loop_
_space_group_symop_operation_xyz
x,y,z
-x,y,1/2-z
-x,-y,-z
x,-y,1/2+z
1/2+x,1/2+y,z
1/2-x,1/2+y,1/2-z
1/2-x,1/2-y,-z
1/2+x,1/2-y,1/2+z
loop_
_atom_site_type_symbol
_atom_site_label
_atom_site_fract_x
_atom_site_fract_y
_atom_site_fract_z
Si Si1 0.316467 0.662692 0.476162
Si Si2 0.125174 0.984138 0.393464
Si Si3 0.154564 0.614482 0.169660
Si Si4 0.491578 0.220169 0.922617
O O1 0.296223 0.585584 0.537212
O O2 0.263604 0.656718 0.299912
O O3 0.489974 0.701188 0.491706
O O4 0.190760 0.700731 0.562790
O O5 0.000000 0.967411 0.250000
O O6 0.247789 0.046455 0.371083
O O7 0.000000 0.000000 0.500000
O O8 0.000000 0.595451 0.250000
O O9 0.099354 0.665660 0.030163
O O10 0.500000 0.217418 0.750000
#
# Coordination Sequence:
#
# PCOD9297914 Si02
#       4
#     8   8   8   8
#     4  10  24  45  65 102 139 176 229 283 346 407
#     4  12  26  44  70 102 140 182 225 286 349 408
#     4  10  24  47  70 100 141 180 230 288 343 413
#     4  10  24  42  72 100 132 182 233 284 337 408
#
# _framework density 21.802389999999999
#
# number of rings (size 3 to 8) (size 9 to 14) (size 15 to 20)
#    0.000    1.500    2.500    0.000    7.000   11.000 
#    0.000    0.000    0.000    0.000    0.000    0.000 
#    0.000    0.000    0.000    0.000    0.000    0.000 
#
# Total GULP energy -89079.582935 kJ/mol
# GULP energy per Si atom -5567.473933 kJ/mol
# Density = 2.175277 g / cm^3
# Si number density = 21.802390 Si / 1000 Ang^3
#
#
#
# Elastic Constant Matrix: (Units=GPa)
#
#
# Indices 1 2 3 4 5 6 
#
# 1 80.9754 52.9870 38.0215 0.0000 -17.1622 0.0000
# 2 52.9870 120.1449 58.5959 0.0000 -14.9314 0.0000
# 3 38.0215 58.5959 160.2186 0.0000 -12.7923 0.0000
# 4 0.0000 0.0000 0.0000 21.0356 0.0000 -56.5111
# 5 -17.1622 -14.9314 -12.7923 0.0000 31.1218 0.0000
# 6 0.0000 0.0000 0.0000 -56.5111 0.0000 -98.0326
#
#
#
# Elastic Compliance Matrix: (Units=1/GPa)
#
#
# Indices 1 2 3 4 5 6 
#
# 1 0.018872 -0.006792 -0.001472 0.000000 0.006543 0.000000
# 2 -0.006792 0.012946 -0.003025 0.000000 0.001222 0.000000
# 3 -0.001472 -0.003025 0.007772 0.000000 0.000931 0.000000
# 4 0.000000 0.000000 0.000000 0.018653 0.000000 -0.010752
# 5 0.006543 0.001222 0.000931 0.000000 0.036709 0.000000
# 6 0.000000 0.000000 0.000000 -0.010752 0.000000 -0.004002
#
#
# Mechanical properties :
#
#
# Convention : Reuss Voigt Hill
#
# Bulk Modulus (GPa) = 58.78570 73.39419 66.08995
# Shear Modulus (GPa) = 41.94715 4.94058 23.44386
#
# Velocity S-wave (km/s) = 4.39107 1.50698 3.28272
# Velocity P-wave (km/s) = 7.26155 6.06337 6.68934
#
# Compressibility (1/GPa) = 0.01701094
#
# Stress axis : x y z
#
# Youngs Moduli (GPa) = 52.98939 77.24393 128.67358
#
# Poissons Ratio (x) = 0.52462 0.18942
# Poissons Ratio (y) = 0.35989 0.38928
# Poissons Ratio (z) = 0.07801 0.23369
#
# Static dielectric constant tensor:
#      x y z
#    x 1.855340 0.000000 0.033550 
#    y 0.000000 1.847790 0.000000 
#    z 0.033550 0.000000 1.712660 
# 
# From -- ./inp_files/22239.got.cif
#   From: 2010.05.17/outbox.cif.g08.bks.cpg/sg15_12_cif.got.tgz:22239.got - 2010.06.03 18:47:42.
