data_PCOD9297509
_publ_section_title
;
Structure prediction by ZEFSAII (Michael W. Deem and Ramdas Pophale) SiO2 
 PCOD9297509
Probable space group: C 2/C
;
_chemical_formula_sum "Si O2"
_cell_formula_units_Z 36
_cell_length_a 22.779415
_cell_length_b 7.485173
_cell_length_c 19.353343
_cell_angle_alpha 90.000000
_cell_angle_beta 155.023392
_cell_angle_gamma 90.000000
_cell_volume 1393.375662
_symmetry_space_group_name_H-M "C 2/C"
_symmetry_group_IT_number 15
_symmetry_cell_setting 'monoclinic'
loop_
_space_group_symop_operation_xyz
x,y,z
-x,y,1/2-z
-x,-y,-z
x,-y,1/2+z
1/2+x,1/2+y,z
1/2-x,1/2+y,1/2-z
1/2-x,1/2-y,-z
1/2+x,1/2-y,1/2+z
loop_
_atom_site_type_symbol
_atom_site_label
_atom_site_fract_x
_atom_site_fract_y
_atom_site_fract_z
Si Si1 0.692825 0.317855 0.571415
Si Si2 0.122471 0.223774 0.512831
Si Si3 0.972726 0.302251 0.941411
Si Si4 0.000000 0.835591 0.250000
Si Si5 0.339367 0.649952 0.153250
O O1 0.676106 0.531312 0.545323
O O2 0.854197 0.288899 0.756866
O O3 0.612212 0.266204 0.555320
O O4 0.606626 0.236069 0.415080
O O5 0.085259 0.203956 0.553063
O O6 0.241105 0.361790 0.616089
O O7 0.976752 0.261920 0.319792
O O8 0.000000 0.500000 0.000000
O O9 0.901362 0.966262 0.190326
O O10 0.250000 0.750000 0.000000
#
# Coordination Sequence:
#
# PCOD9297509 Si02
#       5
#     8   8   8   4   8
#     4  11  24  45  66  95 136 175 226 275 335 395
#     4  11  23  40  68  97 130 171 219 280 328 391
#     4  12  26  43  67  97 134 177 227 272 336 398
#     4  10  24  40  72  98 142 176 220 276 344 400
#     4  11  18  37  65  99 128 164 219 265 330 394
#
# _framework density 25.836535999999999
#
# number of rings (size 3 to 8) (size 9 to 14) (size 15 to 20)
#    0.000    0.889    4.444    4.667    0.000    6.222 
#    0.000    0.000    0.000    0.000    0.000    0.000 
#    0.000    0.000    0.000    0.000    0.000    0.000 
#
# Total GULP energy -100837.077600 kJ/mol
# GULP energy per Si atom -5602.059867 kJ/mol
# Density = 2.577773 g / cm^3
# Si number density = 25.836536 Si / 1000 Ang^3
#
#
#
# Elastic Constant Matrix: (Units=GPa)
#
#
# Indices 1 2 3 4 5 6 
#
# 1 104.7675 21.6763 20.2269 0.0000 15.7745 0.0000
# 2 21.6763 49.0164 14.1361 0.0000 5.3321 0.0000
# 3 20.2269 14.1361 159.9979 0.0000 4.1355 0.0000
# 4 0.0000 0.0000 0.0000 25.7229 0.0000 -2.0393
# 5 15.7745 5.3321 4.1355 0.0000 58.0536 0.0000
# 6 0.0000 0.0000 0.0000 -2.0393 0.0000 44.0751
#
#
#
# Elastic Compliance Matrix: (Units=1/GPa)
#
#
# Indices 1 2 3 4 5 6 
#
# 1 0.011001 -0.004318 -0.000944 0.000000 -0.002525 0.000000
# 2 -0.004318 0.022818 -0.001449 0.000000 -0.000819 0.000000
# 3 -0.000944 -0.001449 0.006499 0.000000 -0.000073 0.000000
# 4 0.000000 0.000000 0.000000 0.039019 0.000000 0.001805
# 5 -0.002525 -0.000819 -0.000073 0.000000 0.017992 0.000000
# 6 0.000000 0.000000 0.000000 0.001805 0.000000 0.022772
#
#
# Mechanical properties :
#
#
# Convention : Reuss Voigt Hill
#
# Bulk Modulus (GPa) = 37.17978 47.31783 42.24881
# Shear Modulus (GPa) = 35.09065 42.75315 38.92190
#
# Velocity S-wave (km/s) = 3.68935 4.07228 3.88553
# Velocity P-wave (km/s) = 5.70701 6.36124 6.04299
#
# Compressibility (1/GPa) = 0.02689634
#
# Stress axis : x y z
#
# Youngs Moduli (GPa) = 90.90264 43.82546 153.86202
#
# Poissons Ratio (x) = 0.18923 0.14524
# Poissons Ratio (y) = 0.39251 0.22294
# Poissons Ratio (z) = 0.08581 0.06350
#
# Static dielectric constant tensor:
#      x y z
#    x 2.097000 0.000000 -0.032770 
#    y 0.000000 2.029570 0.000000 
#    z -0.032770 0.000000 2.010480 
# 
# From -- ./inp_files/59734.got.cif
#   From: 2010.05.17/outbox.cif.g08.bks.cpg/sg15_30_cif.got.tgz:59734.got - 2010.06.03 18:47:42.
