data_PCOD9297595
_publ_section_title
;
Structure prediction by ZEFSAII (Michael W. Deem and Ramdas Pophale) SiO2 
 PCOD9297595
Probable space group: C 2/C
;
_chemical_formula_sum "Si O2"
_cell_formula_units_Z 36
_cell_length_a 13.408901
_cell_length_b 15.243177
_cell_length_c 10.970247
_cell_angle_alpha 90.000000
_cell_angle_beta 136.736199
_cell_angle_gamma 90.000000
_cell_volume 1536.748623
_symmetry_space_group_name_H-M "C 2/C"
_symmetry_group_IT_number 15
_symmetry_cell_setting 'monoclinic'
loop_
_space_group_symop_operation_xyz
x,y,z
-x,y,1/2-z
-x,-y,-z
x,-y,1/2+z
1/2+x,1/2+y,z
1/2-x,1/2+y,1/2-z
1/2-x,1/2-y,-z
1/2+x,1/2-y,1/2+z
loop_
_atom_site_type_symbol
_atom_site_label
_atom_site_fract_x
_atom_site_fract_y
_atom_site_fract_z
Si Si1 0.000000 0.057208 0.750000
Si Si2 0.000000 0.643218 0.750000
Si Si3 0.074274 0.742246 0.569019
Si Si4 0.500000 0.859898 0.750000
Si Si5 0.729005 0.009827 0.886817
Si Si6 0.159016 0.141077 0.692606
O O1 0.118237 0.117923 0.791869
O O2 0.896731 0.001067 0.572324
O O3 0.986023 0.696383 0.862454
O O4 0.857964 0.581830 0.611809
O O5 0.246929 0.729089 0.736523
O O6 0.043540 0.696702 0.409132
O O7 0.999365 0.837067 0.503238
O O8 0.629866 0.923708 0.815017
O O9 0.745697 0.060176 0.772472
#
# Coordination Sequence:
#
# PCOD9297595 Si02
#       6
#     4   4   8   4   8   8
#     4  12  23  41  65 101 134 174 234 290 325 395
#     4   9  24  45  69  96 135 184 222 267 350 409
#     4  11  25  44  69 100 139 179 225 276 343 404
#     4  11  23  44  74  97 139 180 226 279 333 414
#     4  10  24  41  67  98 134 176 228 279 338 397
#     4  11  26  42  65 102 137 180 226 280 340 401
#
# _framework density 23.426082000000001
#
# number of rings (size 3 to 8) (size 9 to 14) (size 15 to 20)
#    0.000    1.333    2.222    1.333    6.222   10.667 
#    0.000    0.000    0.000    0.000    0.000    0.000 
#    0.000    0.000    0.000    0.000    0.000    0.000 
#
# Total GULP energy -100283.563787 kJ/mol
# GULP energy per Si atom -5571.309099 kJ/mol
# Density = 2.337276 g / cm^3
# Si number density = 23.426082 Si / 1000 Ang^3
#
#
#
# Elastic Constant Matrix: (Units=GPa)
#
#
# Indices 1 2 3 4 5 6 
#
# 1 144.3941 35.0907 17.1909 0.0000 -2.4113 0.0000
# 2 35.0907 56.5769 13.6961 0.0000 -5.1684 0.0000
# 3 17.1909 13.6961 62.7584 0.0000 7.9518 0.0000
# 4 0.0000 0.0000 0.0000 41.0557 0.0000 -9.4433
# 5 -2.4113 -5.1684 7.9518 0.0000 35.3056 0.0000
# 6 0.0000 0.0000 0.0000 -9.4433 0.0000 29.3638
#
#
#
# Elastic Compliance Matrix: (Units=1/GPa)
#
#
# Indices 1 2 3 4 5 6 
#
# 1 0.008241 -0.004802 -0.001227 0.000000 0.000136 0.000000
# 2 -0.004802 0.021956 -0.003955 0.000000 0.003777 0.000000
# 3 -0.001227 -0.003955 0.017723 0.000000 -0.004654 0.000000
# 4 0.000000 0.000000 0.000000 0.026303 0.000000 0.008459
# 5 0.000136 0.003777 -0.004654 0.000000 0.029935 0.000000
# 6 0.000000 0.000000 0.000000 0.008459 0.000000 0.036776
#
#
# Mechanical properties :
#
#
# Convention : Reuss Voigt Hill
#
# Bulk Modulus (GPa) = 35.77433 43.96496 39.86965
# Shear Modulus (GPa) = 29.37436 34.32848 31.85142
#
# Velocity S-wave (km/s) = 3.54491 3.83220 3.69135
# Velocity P-wave (km/s) = 5.66211 6.19591 5.93501
#
# Compressibility (1/GPa) = 0.02795301
#
# Stress axis : x y z
#
# Youngs Moduli (GPa) = 121.34850 45.54643 56.42411
#
# Poissons Ratio (x) = 0.21870 0.06921
# Poissons Ratio (y) = 0.58269 0.22314
# Poissons Ratio (z) = 0.14885 0.18012
#
# Static dielectric constant tensor:
#      x y z
#    x 1.866200 0.000000 0.004310 
#    y 0.000000 1.928430 0.000000 
#    z 0.004310 0.000000 1.980310 
# 
# From -- ./inp_files/29013.got.cif
#   From: 2010.05.17/outbox.cif.g08.bks.cpg/sg15_15_cif.got.tgz:29013.got - 2010.06.03 18:47:42.
