data_PCOD9297817
_publ_section_title
;
Structure prediction by ZEFSAII (Michael W. Deem and Ramdas Pophale) SiO2 
 PCOD9297817
Probable space group: C 2/C
;
_chemical_formula_sum "Si O2"
_cell_formula_units_Z 56
_cell_length_a 31.171768
_cell_length_b 5.136595
_cell_length_c 14.030139
_cell_angle_alpha 90.000000
_cell_angle_beta 91.699893
_cell_angle_gamma 90.000000
_cell_volume 2245.471593
_symmetry_space_group_name_H-M "C 2/C"
_symmetry_group_IT_number 15
_symmetry_cell_setting 'monoclinic'
loop_
_space_group_symop_operation_xyz
x,y,z
-x,y,1/2-z
-x,-y,-z
x,-y,1/2+z
1/2+x,1/2+y,z
1/2-x,1/2+y,1/2-z
1/2-x,1/2-y,-z
1/2+x,1/2-y,1/2+z
loop_
_atom_site_type_symbol
_atom_site_label
_atom_site_fract_x
_atom_site_fract_y
_atom_site_fract_z
Si Si1 0.230686 0.685747 0.137301
Si Si2 0.906346 0.526629 0.722837
Si Si3 0.590961 0.690357 0.074162
Si Si4 0.465367 0.373904 0.302889
Si Si5 0.308377 0.045300 0.167121
Si Si6 0.190922 0.178771 0.035707
Si Si7 0.966171 0.458305 0.581419
O O1 0.209898 0.695699 0.241527
O O2 0.215715 0.405405 0.096623
O O3 0.279345 0.786419 0.152378
O O4 0.211713 0.904143 0.064711
O O5 0.911823 0.642015 0.828508
O O6 0.925904 0.236172 0.737822
O O7 0.857319 0.529707 0.690471
O O8 0.936627 0.649911 0.643220
O O9 0.558622 0.463320 0.102849
O O10 0.641174 0.647494 0.061409
O O11 0.571243 0.807439 0.977666
O O12 0.500000 0.557935 0.250000
O O13 0.501022 0.171597 0.342350
O O14 0.306737 0.221852 0.072502
O O15 0.000000 0.500000 0.500000
#
# Coordination Sequence:
#
# PCOD9297817 Si02
#       7
#     8   8   8   8   8   8   8
#     4  12  28  51  82 114 157 207 259 330 396 484
#     4  11  24  47  68 104 150 189 255 314 382 458
#     4  12  24  44  71 102 148 196 249 317 376 462
#     4  10  24  42  68 106 147 195 252 308 379 456
#     4  12  26  51  79 115 155 208 264 328 404 471
#     4  12  28  52  79 116 159 204 268 325 400 477
#     4  11  23  43  72 101 146 196 247 311 380 459
#
# _framework density 24.939081000000002
#
# number of rings (size 3 to 8) (size 9 to 14) (size 15 to 20)
#    0.000    0.571    4.286    3.000    2.000    2.286 
#    5.143    0.000    0.000    0.000    0.000    0.000 
#    0.000    0.000    0.000    0.000    0.000    0.000 
#
# Total GULP energy -156381.504790 kJ/mol
# GULP energy per Si atom -5585.053742 kJ/mol
# Density = 2.488232 g / cm^3
# Si number density = 24.939081 Si / 1000 Ang^3
#
#
#
# Elastic Constant Matrix: (Units=GPa)
#
#
# Indices 1 2 3 4 5 6 
#
# 1 238.6093 33.4103 47.5338 0.0000 2.8457 0.0000
# 2 33.4103 50.1179 5.0467 0.0000 2.5652 0.0000
# 3 47.5338 5.0467 162.6357 0.0000 -4.4346 0.0000
# 4 0.0000 0.0000 0.0000 36.1384 0.0000 -16.4363
# 5 2.8457 2.5652 -4.4346 0.0000 53.5388 0.0000
# 6 0.0000 0.0000 0.0000 -16.4363 0.0000 29.6887
#
#
#
# Elastic Compliance Matrix: (Units=1/GPa)
#
#
# Indices 1 2 3 4 5 6 
#
# 1 0.004897 -0.003118 -0.001341 0.000000 -0.000222 0.000000
# 2 -0.003118 0.022056 0.000203 0.000000 -0.000874 0.000000
# 3 -0.001341 0.000203 0.006551 0.000000 0.000604 0.000000
# 4 0.000000 0.000000 0.000000 0.036984 0.000000 0.020475
# 5 -0.000222 -0.000874 0.000604 0.000000 0.018782 0.000000
# 6 0.000000 0.000000 0.000000 0.020475 0.000000 0.045018
#
#
# Mechanical properties :
#
#
# Convention : Reuss Voigt Hill
#
# Bulk Modulus (GPa) = 40.01216 69.26049 54.63632
# Shear Modulus (GPa) = 33.08405 48.23132 40.65769
#
# Velocity S-wave (km/s) = 3.64620 4.40246 4.04205
# Velocity P-wave (km/s) = 5.81422 7.32628 6.61360
#
# Compressibility (1/GPa) = 0.02499240
#
# Stress axis : x y z
#
# Youngs Moduli (GPa) = 204.19401 45.33905 152.65524
#
# Poissons Ratio (x) = 0.14138 0.20465
# Poissons Ratio (y) = 0.63675 -0.03101
# Poissons Ratio (z) = 0.27375 -0.00921
#
# Static dielectric constant tensor:
#      x y z
#    x 2.038620 0.000000 -0.078160 
#    y 0.000000 2.119340 0.000000 
#    z -0.078160 0.000000 2.217880 
# 
# From -- ./inp_files/180107.got.cif
#   From: 2010.05.17/outbox.cif.g08.bks.cpg/sg15_91_cif.got.tgz:180107.got - 2010.06.03 18:47:42.
