data_PCOD9297342
_publ_section_title
;
Structure prediction by ZEFSAII (Michael W. Deem and Ramdas Pophale) SiO2 
 PCOD9297342
Probable space group: C 2/C
;
_chemical_formula_sum "Si O2"
_cell_formula_units_Z 32
_cell_length_a 9.180177
_cell_length_b 5.211621
_cell_length_c 33.629008
_cell_angle_alpha 90.000000
_cell_angle_beta 126.344526
_cell_angle_gamma 90.000000
_cell_volume 1295.943931
_symmetry_space_group_name_H-M "C 2/C"
_symmetry_group_IT_number 15
_symmetry_cell_setting 'monoclinic'
loop_
_space_group_symop_operation_xyz
x,y,z
-x,y,1/2-z
-x,-y,-z
x,-y,1/2+z
1/2+x,1/2+y,z
1/2-x,1/2+y,1/2-z
1/2-x,1/2-y,-z
1/2+x,1/2-y,1/2+z
loop_
_atom_site_type_symbol
_atom_site_label
_atom_site_fract_x
_atom_site_fract_y
_atom_site_fract_z
Si Si1 0.896117 0.229210 0.557827
Si Si2 0.590261 0.948128 0.142285
Si Si3 0.744613 0.603740 0.113145
Si Si4 0.295639 0.190118 0.731743
O O1 0.750000 0.250000 0.500000
O O2 0.800231 0.208947 0.585539
O O3 0.006968 0.488091 0.585326
O O4 0.051950 0.026062 0.574418
O O5 0.737080 0.739624 0.154675
O O6 0.676005 0.197194 0.176240
O O7 0.409654 0.897085 0.138376
O O8 0.500000 0.161037 0.750000
O O9 0.222668 0.928423 0.739760
#
# Coordination Sequence:
#
# PCOD9297342 Si02
#       4
#     8   8   8   8
#     4  10  24  42  66  99 134 178 225 275 339 409
#     4  10  26  42  69  95 137 174 228 283 346 412
#     4  10  24  39  68  91 135 173 224 273 341 399
#     4  12  28  46  75 105 141 185 239 296 361 425
#
# _framework density 24.692428
#
# number of rings (size 3 to 8) (size 9 to 14) (size 15 to 20)
#    1.500    0.000    0.000    3.000   10.500    2.000 
#    0.000    0.000    0.000    0.000    0.000    0.000 
#    0.000    0.000    0.000    0.000    0.000    0.000 
#
# Total GULP energy -89262.369648 kJ/mol
# GULP energy per Si atom -5578.898103 kJ/mol
# Density = 2.463623 g / cm^3
# Si number density = 24.692428 Si / 1000 Ang^3
#
#
#
# Elastic Constant Matrix: (Units=GPa)
#
#
# Indices 1 2 3 4 5 6 
#
# 1 203.7147 47.2756 67.3367 0.0000 -16.8919 0.0000
# 2 47.2756 59.5024 23.7666 0.0000 -16.3743 0.0000
# 3 67.3367 23.7666 100.7332 0.0000 7.5329 0.0000
# 4 0.0000 0.0000 0.0000 33.1680 0.0000 -10.7564
# 5 -16.8919 -16.3743 7.5329 0.0000 34.5251 0.0000
# 6 0.0000 0.0000 0.0000 -10.7564 0.0000 39.5565
#
#
#
# Elastic Compliance Matrix: (Units=1/GPa)
#
#
# Indices 1 2 3 4 5 6 
#
# 1 0.007364 -0.003278 -0.004374 0.000000 0.003003 0.000000
# 2 -0.003278 0.024086 -0.004296 0.000000 0.010757 0.000000
# 3 -0.004374 -0.004296 0.014412 0.000000 -0.007322 0.000000
# 4 0.000000 0.000000 0.000000 0.033065 0.000000 0.008991
# 5 0.003003 0.010757 -0.007322 0.000000 0.037133 0.000000
# 6 0.000000 0.000000 0.000000 0.008991 0.000000 0.027725
#
#
# Mechanical properties :
#
#
# Convention : Reuss Voigt Hill
#
# Bulk Modulus (GPa) = 45.52253 71.18978 58.35616
# Shear Modulus (GPa) = 28.57056 36.48802 32.52929
#
# Velocity S-wave (km/s) = 3.40524 3.84826 3.63351
# Velocity P-wave (km/s) = 5.82553 6.97414 6.42555
#
# Compressibility (1/GPa) = 0.02196714
#
# Stress axis : x y z
#
# Youngs Moduli (GPa) = 135.79124 41.51706 69.38500
#
# Poissons Ratio (x) = 0.13607 0.30349
# Poissons Ratio (y) = 0.44506 0.29811
# Poissons Ratio (z) = 0.59395 0.17837
#
# Static dielectric constant tensor:
#      x y z
#    x 2.003270 0.000000 -0.033500 
#    y 0.000000 2.047400 0.000000 
#    z -0.033500 0.000000 2.006790 
# 
# From -- ./inp_files/306167.got.cif
#   From: 2010.05.17/outbox.cif.g08.bks.cpg/sg15_154_cif.got.tgz:306167.got - 2010.06.03 18:47:42.
