data_PCOD9297985
_publ_section_title
;
Structure prediction by ZEFSAII (Michael W. Deem and Ramdas Pophale) SiO2 
 PCOD9297985
Probable space group: C 2/C
;
_chemical_formula_sum "Si O2"
_cell_formula_units_Z 48
_cell_length_a 21.849891
_cell_length_b 11.491118
_cell_length_c 15.333675
_cell_angle_alpha 90.000000
_cell_angle_beta 145.878867
_cell_angle_gamma 90.000000
_cell_volume 2159.621356
_symmetry_space_group_name_H-M "C 2/C"
_symmetry_group_IT_number 15
_symmetry_cell_setting 'monoclinic'
loop_
_space_group_symop_operation_xyz
x,y,z
-x,y,1/2-z
-x,-y,-z
x,-y,1/2+z
1/2+x,1/2+y,z
1/2-x,1/2+y,1/2-z
1/2-x,1/2-y,-z
1/2+x,1/2-y,1/2+z
loop_
_atom_site_type_symbol
_atom_site_label
_atom_site_fract_x
_atom_site_fract_y
_atom_site_fract_z
Si Si1 0.292968 0.439913 0.057145
Si Si2 0.657441 0.325133 0.933819
Si Si3 0.935792 0.616586 0.953846
Si Si4 0.304368 0.392959 0.257445
Si Si5 0.981236 0.809106 0.579855
Si Si6 0.608065 0.778233 0.774424
O O1 0.302345 0.544485 0.001414
O O2 0.295159 0.475808 0.162076
O O3 0.385795 0.340108 0.162180
O O4 0.179994 0.374197 0.906449
O O5 0.565807 0.349203 0.752455
O O6 0.613765 0.261263 0.968103
O O7 0.750000 0.250000 0.000000
O O8 0.959483 0.713696 0.908539
O O9 0.807879 0.601314 0.822279
O O10 0.994765 0.669381 0.109539
O O11 0.000000 0.500000 0.000000
O O12 0.415005 0.402885 0.444187
O O13 0.325802 0.267002 0.234620
#
# Coordination Sequence:
#
# PCOD9297985 Si02
#       6
#     8   8   8   8   8   8
#     4   9  20  43  62  94 123 166 208 271 322 380
#     4  11  24  41  65  89 132 173 215 262 326 401
#     4  11  23  39  67  97 128 171 215 274 327 388
#     4   9  20  42  63  92 126 160 216 268 320 382
#     4  10  24  43  57  97 126 171 215 259 334 385
#     4   8  20  42  63  95 125 158 220 261 331 381
#
# _framework density 22.226119000000001
#
# number of rings (size 3 to 8) (size 9 to 14) (size 15 to 20)
#    1.000    1.333    0.000    1.000    7.000    1.333 
#    6.000    0.000    0.000    0.000    0.000    0.000 
#    0.000    0.000    0.000    0.000    0.000    0.000 
#
# Total GULP energy -133638.318527 kJ/mol
# GULP energy per Si atom -5568.263272 kJ/mol
# Density = 2.217553 g / cm^3
# Si number density = 22.226119 Si / 1000 Ang^3
#
#
#
# Elastic Constant Matrix: (Units=GPa)
#
#
# Indices 1 2 3 4 5 6 
#
# 1 79.1637 0.4274 28.4056 0.0000 11.2137 0.0000
# 2 0.4274 48.8736 9.7623 0.0000 8.2721 0.0000
# 3 28.4056 9.7623 86.3343 0.0000 -3.1064 0.0000
# 4 0.0000 0.0000 0.0000 11.2762 0.0000 0.3676
# 5 11.2137 8.2721 -3.1064 0.0000 34.3516 0.0000
# 6 0.0000 0.0000 0.0000 0.3676 0.0000 22.9168
#
#
#
# Elastic Compliance Matrix: (Units=1/GPa)
#
#
# Indices 1 2 3 4 5 6 
#
# 1 0.015458 0.001989 -0.005528 0.000000 -0.006025 0.000000
# 2 0.001989 0.022187 -0.003390 0.000000 -0.006298 0.000000
# 3 -0.005528 -0.003390 0.013925 0.000000 0.003880 0.000000
# 4 0.000000 0.000000 0.000000 0.088729 0.000000 -0.001423
# 5 -0.006025 -0.006298 0.003880 0.000000 0.032945 0.000000
# 6 0.000000 0.000000 0.000000 -0.001423 0.000000 0.043659
#
#
# Mechanical properties :
#
#
# Convention : Reuss Voigt Hill
#
# Bulk Modulus (GPa) = 26.51680 32.39580 29.45630
# Shear Modulus (GPa) = 20.54822 25.42734 22.98778
#
# Velocity S-wave (km/s) = 3.04387 3.38602 3.21949
# Velocity P-wave (km/s) = 4.93051 5.46754 5.20596
#
# Compressibility (1/GPa) = 0.03771194
#
# Stress axis : x y z
#
# Youngs Moduli (GPa) = 64.69052 45.07216 71.81583
#
# Poissons Ratio (x) = -0.08964 0.39698
# Poissons Ratio (y) = -0.12865 0.24343
# Poissons Ratio (z) = 0.35759 0.15278
#
# Static dielectric constant tensor:
#      x y z
#    x 1.818820 0.000000 -0.068220 
#    y 0.000000 0.207590 0.000000 
#    z -0.068220 0.000000 1.850290 
# 
# From -- ./inp_files/219340.got.cif
#   From: 2010.05.17/outbox.cif.g08.bks.cpg/sg15_110_cif.got.tgz:219340.got - 2010.06.03 18:47:42.
