data_PCOD9297382
_publ_section_title
;
Structure prediction by ZEFSAII (Michael W. Deem and Ramdas Pophale) SiO2 
 PCOD9297382
Probable space group: C 2/C
;
_chemical_formula_sum "Si O2"
_cell_formula_units_Z 60
_cell_length_a 27.445478
_cell_length_b 22.790448
_cell_length_c 8.796735
_cell_angle_alpha 90.000000
_cell_angle_beta 149.652911
_cell_angle_gamma 90.000000
_cell_volume 2779.971568
_symmetry_space_group_name_H-M "C 2/C"
_symmetry_group_IT_number 15
_symmetry_cell_setting 'monoclinic'
loop_
_space_group_symop_operation_xyz
x,y,z
-x,y,1/2-z
-x,-y,-z
x,-y,1/2+z
1/2+x,1/2+y,z
1/2-x,1/2+y,1/2-z
1/2-x,1/2-y,-z
1/2+x,1/2-y,1/2+z
loop_
_atom_site_type_symbol
_atom_site_label
_atom_site_fract_x
_atom_site_fract_y
_atom_site_fract_z
Si Si1 0.119376 0.729754 0.262795
Si Si2 0.787492 0.009465 0.722583
Si Si3 0.561608 0.855698 0.177751
Si Si4 0.014782 0.839737 0.616543
Si Si5 0.000000 0.556038 0.250000
Si Si6 0.318210 0.753368 0.913844
Si Si7 0.077875 0.952034 0.661920
Si Si8 0.651331 0.955112 0.593258
O O1 0.208984 0.731356 0.618497
O O2 0.158323 0.724396 0.195244
O O3 0.036257 0.681868 0.065536
O O4 0.070075 0.793595 0.139509
O O5 0.714366 0.043907 0.415850
O O6 0.865271 0.974582 0.831317
O O7 0.726104 0.964274 0.657373
O O8 0.842971 0.050781 0.989952
O O9 0.646666 0.807469 0.387529
O O10 0.591261 0.897089 0.398327
O O11 0.544761 0.901629 0.997199
O O12 0.023175 0.890726 0.516944
O O13 0.000000 0.863085 0.750000
O O14 0.111194 0.801031 0.870229
O O15 0.081732 0.511894 0.407469
O O16 0.000000 0.000000 0.500000
#
# Coordination Sequence:
#
# PCOD9297382 Si02
#       8
#     8   8   8   8   4   8   8   8
#     4   9  20  38  66  98 124 172 223 273 334 402
#     4  10  24  40  62  95 131 175 226 261 342 408
#     4  11  23  40  67  92 136 176 221 285 342 402
#     4   9  18  35  59  92 127 165 220 272 325 394
#     4  12  26  42  64  98 140 178 226 274 352 422
#     4   9  20  38  63  98 127 166 226 275 331 398
#     4  11  22  40  65  95 134 177 219 281 332 395
#     4  11  24  43  63  97 134 176 219 278 339 415
#
# _framework density 21.582954000000001
#
# number of rings (size 3 to 8) (size 9 to 14) (size 15 to 20)
#    0.000    1.867    1.333    2.800    1.867    7.467 
#    0.000    0.667   14.667    0.000    0.000    0.000 
#    0.000    0.000    0.000    0.000    0.000    0.000 
#
# Total GULP energy -167674.713036 kJ/mol
# GULP energy per Si atom -5589.157101 kJ/mol
# Density = 2.153383 g / cm^3
# Si number density = 21.582954 Si / 1000 Ang^3
#
#
#
# Elastic Constant Matrix: (Units=GPa)
#
#
# Indices 1 2 3 4 5 6 
#
# 1 66.6876 17.5116 8.3667 0.0000 13.1136 0.0000
# 2 17.5116 91.8957 13.1618 0.0000 5.2889 0.0000
# 3 8.3667 13.1618 94.0766 0.0000 7.7682 0.0000
# 4 0.0000 0.0000 0.0000 -2.4361 0.0000 -1.3480
# 5 13.1136 5.2889 7.7682 0.0000 29.3291 0.0000
# 6 0.0000 0.0000 0.0000 -1.3480 0.0000 18.6984
#
#
#
# Elastic Compliance Matrix: (Units=1/GPa)
#
#
# Indices 1 2 3 4 5 6 
#
# 1 0.017180 -0.002789 -0.000557 0.000000 -0.007031 0.000000
# 2 -0.002789 0.011634 -0.001339 0.000000 -0.000496 0.000000
# 3 -0.000557 -0.001339 0.011068 0.000000 -0.002441 0.000000
# 4 0.000000 0.000000 0.000000 -0.394751 0.000000 -0.028459
# 5 -0.007031 -0.000496 -0.002441 0.000000 0.037976 0.000000
# 6 0.000000 0.000000 0.000000 -0.028459 0.000000 0.051429
#
#
# Mechanical properties :
#
#
# Convention : Reuss Voigt Hill
#
# Bulk Modulus (GPa) = 32.77413 36.74888 34.76150
# Shear Modulus (GPa) = -20.33146 23.35961 1.51408
#
# Velocity S-wave (km/s) = -3.07256 3.29343 0.83847
# Velocity P-wave (km/s) = 1.62194 5.61480 4.13260
#
# Compressibility (1/GPa) = 0.03051187
#
# Stress axis : x y z
#
# Youngs Moduli (GPa) = 58.20629 85.95698 90.35036
#
# Poissons Ratio (x) = 0.23977 0.05033
# Poissons Ratio (y) = 0.16236 0.12094
# Poissons Ratio (z) = 0.03243 0.11506
#
# Static dielectric constant tensor:
#      x y z
#    x 1.797810 0.000000 -0.019920 
#    y 0.000000 1.755030 0.000000 
#    z -0.019920 0.000000 1.824050 
# 
# From -- ./inp_files/67740.got.cif
#   From: 2010.05.17/outbox.cif.g08.bks.cpg/sg15_34_cif.got.tgz:67740.got - 2010.06.03 18:47:42.
