data_PCOD9297734
_publ_section_title
;
Structure prediction by ZEFSAII (Michael W. Deem and Ramdas Pophale) SiO2 
 PCOD9297734
Probable space group: C 2/C
;
_chemical_formula_sum "Si O2"
_cell_formula_units_Z 52
_cell_length_a 17.337649
_cell_length_b 11.074645
_cell_length_c 14.566074
_cell_angle_alpha 90.000000
_cell_angle_beta 50.681449
_cell_angle_gamma 90.000000
_cell_volume 2163.708221
_symmetry_space_group_name_H-M "C 2/C"
_symmetry_group_IT_number 15
_symmetry_cell_setting 'monoclinic'
loop_
_space_group_symop_operation_xyz
x,y,z
-x,y,1/2-z
-x,-y,-z
x,-y,1/2+z
1/2+x,1/2+y,z
1/2-x,1/2+y,1/2-z
1/2-x,1/2-y,-z
1/2+x,1/2-y,1/2+z
loop_
_atom_site_type_symbol
_atom_site_label
_atom_site_fract_x
_atom_site_fract_y
_atom_site_fract_z
Si Si1 0.610677 0.054105 0.189297
Si Si2 0.883612 0.625036 0.662490
Si Si3 0.714057 0.991700 0.425948
Si Si4 0.419127 0.436793 0.171332
Si Si5 0.190197 0.232024 0.894379
Si Si6 0.000000 0.785351 0.250000
Si Si7 0.477642 0.322474 0.874699
O O1 0.500000 0.002998 0.250000
O O2 0.592672 0.196911 0.198265
O O3 0.628433 0.002851 0.276311
O O4 0.687393 0.017570 0.053041
O O5 0.857760 0.601038 0.576444
O O6 0.800676 0.702079 0.778615
O O7 0.983580 0.698238 0.607949
O O8 0.826277 0.959639 0.310890
O O9 0.689535 0.125029 0.407827
O O10 0.376466 0.344189 0.128546
O O11 0.508218 0.369103 0.156240
O O12 0.463883 0.568897 0.118047
O O13 0.141690 0.177290 0.023259
O O14 0.500000 0.327071 0.750000
#
# Coordination Sequence:
#
# PCOD9297734 Si02
#       7
#     8   8   8   8   8   4   8
#     4  10  24  42  66 102 128 173 226 272 333 389
#     4  11  24  43  67 101 133 170 228 275 330 395
#     4  11  24  44  71  96 134 178 222 277 332 392
#     4  11  24  45  64  98 135 182 219 266 343 393
#     4  11  25  42  69  97 136 175 221 278 327 399
#     4  10  24  44  64  94 138 168 226 272 328 398
#     4  12  25  42  68  99 134 175 221 272 335 397
#
# _framework density 24.032813999999998
#
# number of rings (size 3 to 8) (size 9 to 14) (size 15 to 20)
#    0.462    0.615    2.308    3.692    4.308    3.077 
#    0.000    0.000    0.000    0.000    0.000    0.000 
#    0.000    0.000    0.000    0.000    0.000    0.000 
#
# Total GULP energy -145194.403977 kJ/mol
# GULP energy per Si atom -5584.400153 kJ/mol
# Density = 2.397811 g / cm^3
# Si number density = 24.032814 Si / 1000 Ang^3
#
#
#
# Elastic Constant Matrix: (Units=GPa)
#
#
# Indices 1 2 3 4 5 6 
#
# 1 31.9140 18.6029 1.4219 0.0000 -1.9118 0.0000
# 2 18.6029 103.9091 11.6365 0.0000 -11.2446 0.0000
# 3 1.4219 11.6365 63.1681 0.0000 -11.1796 0.0000
# 4 0.0000 0.0000 0.0000 18.6985 0.0000 -0.6314
# 5 -1.9118 -11.2446 -11.1796 0.0000 26.2286 0.0000
# 6 0.0000 0.0000 0.0000 -0.6314 0.0000 41.7783
#
#
#
# Elastic Compliance Matrix: (Units=1/GPa)
#
#
# Indices 1 2 3 4 5 6 
#
# 1 0.034994 -0.006306 0.000375 0.000000 0.000007 0.000000
# 2 -0.006306 0.011311 -0.001260 0.000000 0.003852 0.000000
# 3 0.000375 -0.001260 0.017266 0.000000 0.006847 0.000000
# 4 0.000000 0.000000 0.000000 0.053507 0.000000 0.000809
# 5 0.000007 0.003852 0.006847 0.000000 0.042697 0.000000
# 6 0.000000 0.000000 0.000000 0.000809 0.000000 0.023948
#
#
# Mechanical properties :
#
#
# Convention : Reuss Voigt Hill
#
# Bulk Modulus (GPa) = 20.32968 29.14599 24.73784
# Shear Modulus (GPa) = 23.30989 28.49641 25.90315
#
# Velocity S-wave (km/s) = 3.11773 3.44718 3.28659
# Velocity P-wave (km/s) = 4.63010 5.29131 4.97171
#
# Compressibility (1/GPa) = 0.04918916
#
# Stress axis : x y z
#
# Youngs Moduli (GPa) = 28.57639 88.41112 57.91685
#
# Poissons Ratio (x) = 0.55754 -0.02173
# Poissons Ratio (y) = 0.18021 0.07297
# Poissons Ratio (z) = -0.01072 0.11139
#
# Static dielectric constant tensor:
#      x y z
#    x 1.927960 0.000000 0.020260 
#    y 0.000000 1.916220 0.000000 
#    z 0.020260 0.000000 1.911660 
# 
# From -- ./inp_files/160752.got.cif
#   From: 2010.05.17/outbox.cif.g08.bks.cpg/sg15_81_cif.got.tgz:160752.got - 2010.06.03 18:47:42.
