data_PCOD9297164
_publ_section_title
;
Structure prediction by ZEFSAII (Michael W. Deem and Ramdas Pophale) SiO2 
 PCOD9297164
Probable space group: C 2/C
;
_chemical_formula_sum "Si O2"
_cell_formula_units_Z 32
_cell_length_a 7.383179
_cell_length_b 12.795762
_cell_length_c 13.924872
_cell_angle_alpha 90.000000
_cell_angle_beta 87.724096
_cell_angle_gamma 90.000000
_cell_volume 1314.492310
_symmetry_space_group_name_H-M "C 2/C"
_symmetry_group_IT_number 15
_symmetry_cell_setting 'monoclinic'
loop_
_space_group_symop_operation_xyz
x,y,z
-x,y,1/2-z
-x,-y,-z
x,-y,1/2+z
1/2+x,1/2+y,z
1/2-x,1/2+y,1/2-z
1/2-x,1/2-y,-z
1/2+x,1/2-y,1/2+z
loop_
_atom_site_type_symbol
_atom_site_label
_atom_site_fract_x
_atom_site_fract_y
_atom_site_fract_z
Si Si1 0.635427 0.832620 0.382871
Si Si2 0.244246 0.761318 0.385718
Si Si3 0.806620 0.029955 0.718320
Si Si4 0.090407 0.359066 0.605574
O O1 0.453403 0.772776 0.353810
O O2 0.793824 0.747089 0.383242
O O3 0.597167 0.876966 0.490329
O O4 0.695317 0.923109 0.309952
O O5 0.250000 0.750000 0.500000
O O6 0.113460 0.667868 0.355651
O O7 0.157032 0.869159 0.350638
O O8 0.689956 0.950117 0.659214
O O9 0.000000 0.987908 0.750000
#
# Coordination Sequence:
#
# PCOD9297164 Si02
#       4
#     8   8   8   8
#     4  10  23  50  75 105 157 201 261 323 384 462
#     4  10  23  49  74 103 149 199 262 323 380 456
#     4  12  25  47  75 119 157 206 263 316 398 470
#     4  10  24  50  76 108 153 206 258 327 383 458
#
# _framework density 24.343999
#
# number of rings (size 3 to 8) (size 9 to 14) (size 15 to 20)
#    0.000    1.500    2.500    0.750    0.000    7.000 
#   22.500    0.000    0.000    0.000    0.000    0.000 
#    0.000    0.000    0.000    0.000    0.000    0.000 
#
# Total GULP energy -89671.563513 kJ/mol
# GULP energy per Si atom -5604.472720 kJ/mol
# Density = 2.428859 g / cm^3
# Si number density = 24.343999 Si / 1000 Ang^3
#
#
#
# Elastic Constant Matrix: (Units=GPa)
#
#
# Indices 1 2 3 4 5 6 
#
# 1 196.1540 53.5131 77.7372 0.0000 5.7873 0.0000
# 2 53.5131 130.0666 95.3938 0.0000 6.5660 0.0000
# 3 77.7372 95.3938 160.6327 0.0000 0.4763 0.0000
# 4 0.0000 0.0000 0.0000 44.2760 0.0000 23.6902
# 5 5.7873 6.5660 0.4763 0.0000 33.9190 0.0000
# 6 0.0000 0.0000 0.0000 23.6902 0.0000 53.1527
#
#
#
# Elastic Compliance Matrix: (Units=1/GPa)
#
#
# Indices 1 2 3 4 5 6 
#
# 1 0.006367 -0.000557 -0.002748 0.000000 -0.000940 0.000000
# 2 -0.000557 0.013889 -0.007971 0.000000 -0.002482 0.000000
# 3 -0.002748 -0.007971 0.012284 0.000000 0.001839 0.000000
# 4 0.000000 0.000000 0.000000 0.029658 0.000000 -0.013219
# 5 -0.000940 -0.002482 0.001839 0.000000 0.030097 0.000000
# 6 0.000000 0.000000 0.000000 -0.013219 0.000000 0.024705
#
#
# Mechanical properties :
#
#
# Convention : Reuss Voigt Hill
#
# Bulk Modulus (GPa) = 100.12412 104.46017 102.29214
# Shear Modulus (GPa) = 34.99418 43.61682 39.30550
#
# Velocity S-wave (km/s) = 3.79553 4.23742 4.02255
# Velocity P-wave (km/s) = 7.77343 8.18194 7.98030
#
# Compressibility (1/GPa) = 0.00998760
#
# Stress axis : x y z
#
# Youngs Moduli (GPa) = 157.07066 71.99858 81.40948
#
# Poissons Ratio (x) = 0.04009 0.22368
# Poissons Ratio (y) = 0.08745 0.64895
# Poissons Ratio (z) = 0.43157 0.57393
#
# Static dielectric constant tensor:
#      x y z
#    x 1.966910 0.000000 0.013210 
#    y 0.000000 1.899380 0.000000 
#    z 0.013210 0.000000 1.943030 
# 
# From -- ./inp_files/132006.got.cif
#   From: 2010.05.17/outbox.cif.g08.bks.cpg/sg15_67_cif.got.tgz:132006.got - 2010.06.03 18:47:42.
