data_PCOD9297046
_publ_section_title
;
Structure prediction by ZEFSAII (Michael W. Deem and Ramdas Pophale) SiO2 
 PCOD9297046
Probable space group: C 2/C
;
_chemical_formula_sum "Si O2"
_cell_formula_units_Z 40
_cell_length_a 21.290353
_cell_length_b 5.414785
_cell_length_c 14.654530
_cell_angle_alpha 90.000000
_cell_angle_beta 76.030834
_cell_angle_gamma 90.000000
_cell_volume 1639.450459
_symmetry_space_group_name_H-M "C 2/C"
_symmetry_group_IT_number 15
_symmetry_cell_setting 'monoclinic'
loop_
_space_group_symop_operation_xyz
x,y,z
-x,y,1/2-z
-x,-y,-z
x,-y,1/2+z
1/2+x,1/2+y,z
1/2-x,1/2+y,1/2-z
1/2-x,1/2-y,-z
1/2+x,1/2-y,1/2+z
loop_
_atom_site_type_symbol
_atom_site_label
_atom_site_fract_x
_atom_site_fract_y
_atom_site_fract_z
Si Si1 0.238518 0.118341 0.855153
Si Si2 0.809161 0.993573 0.946130
Si Si3 0.648486 0.804444 0.732724
Si Si4 0.057314 0.248357 0.070358
Si Si5 0.014523 0.748364 0.374058
O O1 0.252611 0.366242 0.907150
O O2 0.184921 0.140399 0.796701
O O3 0.306485 0.046903 0.784803
O O4 0.215103 0.935833 0.944467
O O5 0.867084 0.796715 0.940771
O O6 0.841223 0.195901 0.871032
O O7 0.574569 0.809923 0.787456
O O8 0.032769 0.513074 0.112366
O O9 0.042716 0.241282 0.967350
O O10 0.018717 0.015610 0.127782
#
# Coordination Sequence:
#
# PCOD9297046 Si02
#       5
#     8   8   8   8   8
#     4  11  25  45  69 105 139 185 236 300 365 422
#     4  11  25  46  70 101 142 185 245 291 363 437
#     4  12  24  45  71 105 141 189 240 299 360 439
#     4  10  23  47  72 106 139 192 233 301 358 422
#     4  10  24  45  75 102 146 184 240 296 362 419
#
# _framework density 24.398422
#
# number of rings (size 3 to 8) (size 9 to 14) (size 15 to 20)
#    0.000    1.200    4.000    0.600    5.600    0.800 
#    3.600    0.000    0.000    0.000    0.000    0.000 
#    0.000    0.000    0.000    0.000    0.000    0.000 
#
# Total GULP energy -111939.941410 kJ/mol
# GULP energy per Si atom -5596.997070 kJ/mol
# Density = 2.434289 g / cm^3
# Si number density = 24.398422 Si / 1000 Ang^3
#
#
#
# Elastic Constant Matrix: (Units=GPa)
#
#
# Indices 1 2 3 4 5 6 
#
# 1 105.9709 30.7295 41.6237 0.0000 -15.6564 0.0000
# 2 30.7295 93.8681 37.4162 0.0000 -3.4919 0.0000
# 3 41.6237 37.4162 138.3718 0.0000 -18.1704 0.0000
# 4 0.0000 0.0000 0.0000 25.0143 0.0000 -7.7243
# 5 -15.6564 -3.4919 -18.1704 0.0000 50.9442 0.0000
# 6 0.0000 0.0000 0.0000 -7.7243 0.0000 41.3543
#
#
#
# Elastic Compliance Matrix: (Units=1/GPa)
#
#
# Indices 1 2 3 4 5 6 
#
# 1 0.011542 -0.002726 -0.002406 0.000000 0.002502 0.000000
# 2 -0.002726 0.012590 -0.002708 0.000000 -0.000941 0.000000
# 3 -0.002406 -0.002708 0.008982 0.000000 0.002279 0.000000
# 4 0.000000 0.000000 0.000000 0.042424 0.000000 0.007924
# 5 0.002502 -0.000941 0.002279 0.000000 0.021147 0.000000
# 6 0.000000 0.000000 0.000000 0.007924 0.000000 0.025661
#
#
# Mechanical properties :
#
#
# Convention : Reuss Voigt Hill
#
# Bulk Modulus (GPa) = 57.36068 61.97220 59.66644
# Shear Modulus (GPa) = 34.76136 38.69198 36.72667
#
# Velocity S-wave (km/s) = 3.77867 3.98658 3.88401
# Velocity P-wave (km/s) = 6.52677 6.82976 6.67999
#
# Compressibility (1/GPa) = 0.01743354
#
# Stress axis : x y z
#
# Youngs Moduli (GPa) = 86.64103 79.42745 111.33211
#
# Poissons Ratio (x) = 0.21654 0.26788
# Poissons Ratio (y) = 0.23621 0.30147
# Poissons Ratio (z) = 0.20847 0.21508
#
# Static dielectric constant tensor:
#      x y z
#    x 1.913520 0.000000 0.014670 
#    y 0.000000 2.009020 0.000000 
#    z 0.014670 0.000000 1.955240 
# 
# From -- ./inp_files/170736.got.cif
#   From: 2010.05.17/outbox.cif.g08.bks.cpg/sg15_86_cif.got.tgz:170736.got - 2010.06.03 18:47:42.
