data_PCOD9297410
_publ_section_title
;
Structure prediction by ZEFSAII (Michael W. Deem and Ramdas Pophale) SiO2 
 PCOD9297410
Probable space group: C 2/C
;
_chemical_formula_sum "Si O2"
_cell_formula_units_Z 64
_cell_length_a 17.586921
_cell_length_b 18.058305
_cell_length_c 9.547442
_cell_angle_alpha 90.000000
_cell_angle_beta 89.360129
_cell_angle_gamma 90.000000
_cell_volume 3031.982861
_symmetry_space_group_name_H-M "C 2/C"
_symmetry_group_IT_number 15
_symmetry_cell_setting 'monoclinic'
loop_
_space_group_symop_operation_xyz
x,y,z
-x,y,1/2-z
-x,-y,-z
x,-y,1/2+z
1/2+x,1/2+y,z
1/2-x,1/2+y,1/2-z
1/2-x,1/2-y,-z
1/2+x,1/2-y,1/2+z
loop_
_atom_site_type_symbol
_atom_site_label
_atom_site_fract_x
_atom_site_fract_y
_atom_site_fract_z
Si Si1 0.919228 0.785507 0.323072
Si Si2 0.630247 0.561536 0.576256
Si Si3 0.298597 0.939615 0.984627
Si Si4 0.670484 0.217454 0.939681
Si Si5 0.193982 0.589581 0.341072
Si Si6 0.640804 0.666001 0.197770
Si Si7 0.078407 0.017988 0.311249
Si Si8 0.836303 0.253863 0.558651
O O1 0.915302 0.864028 0.399565
O O2 0.893850 0.728818 0.441754
O O3 0.853050 0.785105 0.206258
O O4 0.000000 0.771963 0.250000
O O5 0.707632 0.572987 0.491447
O O6 0.585521 0.506622 0.475072
O O7 0.643290 0.526311 0.726864
O O8 0.323948 0.930382 0.821664
O O9 0.325880 0.870525 0.078541
O O10 0.313124 0.018287 0.058408
O O11 0.654709 0.267529 0.806003
O O12 0.750000 0.250000 0.000000
O O13 0.280403 0.621948 0.335002
O O14 0.147915 0.659771 0.406440
O O15 0.587503 0.603758 0.267462
O O16 0.615676 0.707567 0.056319
O O17 0.000000 0.989507 0.250000
O O18 0.750000 0.250000 0.500000
#
# Coordination Sequence:
#
# PCOD9297410 Si02
#       8
#     8   8   8   8   8   8   8   8
#     4  12  25  42  67  96 131 174 219 267 332 393
#     4  12  24  41  58  91 129 176 217 260 320 388
#     4  12  22  37  66  88 130 158 216 266 326 382
#     4  12  20  42  66  92 126 171 216 267 318 384
#     4  11  22  39  57  95 121 162 208 274 327 368
#     4  11  22  38  59  89 123 165 216 265 311 371
#     4  12  25  39  57  83 130 176 216 252 314 392
#     4  10  24  40  64  94 129 163 220 274 320 377
#
# _framework density 21.108298000000001
#
# number of rings (size 3 to 8) (size 9 to 14) (size 15 to 20)
#    0.000    0.500    7.500    1.500    5.250    1.000 
#    0.000    0.000    0.000    0.750    0.000    0.000 
#    0.000    0.000    0.000    0.000    0.000    0.000 
#
# Total GULP energy -178590.012863 kJ/mol
# GULP energy per Si atom -5580.937902 kJ/mol
# Density = 2.106025 g / cm^3
# Si number density = 21.108298 Si / 1000 Ang^3
#
#
#
# Elastic Constant Matrix: (Units=GPa)
#
#
# Indices 1 2 3 4 5 6 
#
# 1 21.5918 -9.4766 -10.3293 0.0000 -7.5935 0.0000
# 2 -9.4766 111.4968 38.1753 0.0000 -8.8976 0.0000
# 3 -10.3293 38.1753 83.8875 0.0000 -7.8605 0.0000
# 4 0.0000 0.0000 0.0000 45.7905 0.0000 -2.6029
# 5 -7.5935 -8.8976 -7.8605 0.0000 19.8281 0.0000
# 6 0.0000 0.0000 0.0000 -2.6029 0.0000 16.2313
#
#
#
# Elastic Compliance Matrix: (Units=1/GPa)
#
#
# Indices 1 2 3 4 5 6 
#
# 1 0.062787 0.004854 0.008287 0.000000 0.029509 0.000000
# 2 0.004854 0.011170 -0.003990 0.000000 0.005289 0.000000
# 3 0.008287 -0.003990 0.015461 0.000000 0.007513 0.000000
# 4 0.000000 0.000000 0.000000 0.022040 0.000000 0.003534
# 5 0.029509 0.005289 0.007513 0.000000 0.067086 0.000000
# 6 0.000000 0.000000 0.000000 0.003534 0.000000 0.062176
#
#
# Mechanical properties :
#
#
# Convention : Reuss Voigt Hill
#
# Bulk Modulus (GPa) = 9.28334 28.19053 18.73693
# Shear Modulus (GPa) = 19.35566 29.61043 24.48304
#
# Velocity S-wave (km/s) = 3.03143 3.74944 3.40939
# Velocity P-wave (km/s) = 4.08170 5.66821 4.93907
#
# Compressibility (1/GPa) = 0.10771987
#
# Stress axis : x y z
#
# Youngs Moduli (GPa) = 15.92695 89.52909 64.67993
#
# Poissons Ratio (x) = -0.43456 -0.53602
# Poissons Ratio (y) = -0.07731 0.25805
# Poissons Ratio (z) = -0.13199 0.35719
#
# Static dielectric constant tensor:
#      x y z
#    x 1.816500 0.000000 0.011470 
#    y 0.000000 1.780150 0.000000 
#    z 0.011470 0.000000 1.807280 
# 
# From -- ./inp_files/56626.got.cif
#   From: 2010.05.17/outbox.cif.g08.bks.cpg/sg15_29_cif.got.tgz:56626.got - 2010.06.03 18:47:42.
