data_PCOD9297462
_publ_section_title
;
Structure prediction by ZEFSAII (Michael W. Deem and Ramdas Pophale) SiO2 
 PCOD9297462
Probable space group: C 2/C
;
_chemical_formula_sum "Si O2"
_cell_formula_units_Z 52
_cell_length_a 14.503964
_cell_length_b 10.471160
_cell_length_c 23.368529
_cell_angle_alpha 90.000000
_cell_angle_beta 128.514857
_cell_angle_gamma 90.000000
_cell_volume 2776.947397
_symmetry_space_group_name_H-M "C 2/C"
_symmetry_group_IT_number 15
_symmetry_cell_setting 'monoclinic'
loop_
_space_group_symop_operation_xyz
x,y,z
-x,y,1/2-z
-x,-y,-z
x,-y,1/2+z
1/2+x,1/2+y,z
1/2-x,1/2+y,1/2-z
1/2-x,1/2-y,-z
1/2+x,1/2-y,1/2+z
loop_
_atom_site_type_symbol
_atom_site_label
_atom_site_fract_x
_atom_site_fract_y
_atom_site_fract_z
Si Si1 0.749672 0.752858 0.332543
Si Si2 0.078987 0.387020 0.181406
Si Si3 0.298636 0.144281 0.562823
Si Si4 0.540581 0.172466 0.156575
Si Si5 0.691400 0.116866 0.494570
Si Si6 0.250356 0.050521 0.852827
Si Si7 0.000000 0.826819 0.250000
O O1 0.638562 0.801324 0.253074
O O2 0.750516 0.826756 0.392931
O O3 0.862802 0.763681 0.334826
O O4 0.751064 0.602064 0.346202
O O5 0.089094 0.538318 0.200009
O O6 0.156136 0.381547 0.153220
O O7 0.941916 0.351953 0.120699
O O8 0.250000 0.250000 0.500000
O O9 0.267001 0.003189 0.527683
O O10 0.480137 0.242324 0.185996
O O11 0.447078 0.132777 0.072185
O O12 0.750000 0.250000 0.500000
O O13 0.717296 0.084969 0.569968
O O14 0.118617 0.094262 0.787380
#
# Coordination Sequence:
#
# PCOD9297462 Si02
#       7
#     8   8   8   8   8   8   4
#     4  11  23  43  62  97 126 165 216 269 320 378
#     4  10  24  41  63  93 124 171 207 267 322 382
#     4  11  24  40  66  92 127 168 216 263 319 375
#     4  10  24  40  68  90 128 170 216 257 326 395
#     4  11  23  43  64  94 128 176 212 262 320 387
#     4  11  24  40  68  90 132 167 214 263 325 383
#     4  12  22  42  62  98 122 168 212 264 318 388
#
# _framework density 18.725598999999999
#
# number of rings (size 3 to 8) (size 9 to 14) (size 15 to 20)
#    0.000    1.231    4.615    0.462    8.615    1.846 
#    0.000    0.769    0.000    0.000    0.000    0.000 
#    0.000    0.000    0.000    0.000    0.000    0.000 
#
# Total GULP energy -145123.871646 kJ/mol
# GULP energy per Si atom -5581.687371 kJ/mol
# Density = 1.868298 g / cm^3
# Si number density = 18.725599 Si / 1000 Ang^3
#
#
#
# Elastic Constant Matrix: (Units=GPa)
#
#
# Indices 1 2 3 4 5 6 
#
# 1 78.6697 31.0790 12.7949 0.0000 -13.3125 0.0000
# 2 31.0790 89.4113 42.2295 0.0000 -15.1568 0.0000
# 3 12.7949 42.2295 92.5356 0.0000 -20.0258 0.0000
# 4 0.0000 0.0000 0.0000 34.4818 0.0000 -0.2366
# 5 -13.3125 -15.1568 -20.0258 0.0000 31.9464 0.0000
# 6 0.0000 0.0000 0.0000 -0.2366 0.0000 31.9851
#
#
#
# Elastic Compliance Matrix: (Units=1/GPa)
#
#
# Indices 1 2 3 4 5 6 
#
# 1 0.015331 -0.005110 0.001238 0.000000 0.004740 0.000000
# 2 -0.005110 0.016232 -0.006358 0.000000 0.001586 0.000000
# 3 0.001238 -0.006358 0.015035 0.000000 0.006925 0.000000
# 4 0.000000 0.000000 0.000000 0.029002 0.000000 0.000215
# 5 0.004740 0.001586 0.006925 0.000000 0.038371 0.000000
# 6 0.000000 0.000000 0.000000 0.000215 0.000000 0.031266
#
#
# Mechanical properties :
#
#
# Convention : Reuss Voigt Hill
#
# Bulk Modulus (GPa) = 38.25719 48.09148 43.17434
# Shear Modulus (GPa) = 28.66789 31.31688 29.99238
#
# Velocity S-wave (km/s) = 3.91698 4.09395 4.00644
# Velocity P-wave (km/s) = 6.39779 6.93435 6.67146
#
# Compressibility (1/GPa) = 0.02613888
#
# Stress axis : x y z
#
# Youngs Moduli (GPa) = 65.22747 61.60550 66.50927
#
# Poissons Ratio (x) = 0.31482 -0.08235
# Poissons Ratio (y) = 0.33332 0.42286
# Poissons Ratio (z) = -0.08076 0.39168
#
# Static dielectric constant tensor:
#      x y z
#    x 1.672570 0.000000 0.015060 
#    y 0.000000 1.640570 0.000000 
#    z 0.015060 0.000000 1.638780 
# 
# From -- ./inp_files/243794.got.cif
#   From: 2010.05.17/outbox.cif.g08.bks.cpg/sg15_122_cif.got.tgz:243794.got - 2010.06.03 18:47:42.
