data_PCOD9297227
_publ_section_title
;
Structure prediction by ZEFSAII (Michael W. Deem and Ramdas Pophale) SiO2 
 PCOD9297227
Probable space group: C 2/C
;
_chemical_formula_sum "Si O2"
_cell_formula_units_Z 52
_cell_length_a 20.574460
_cell_length_b 17.128136
_cell_length_c 10.852192
_cell_angle_alpha 90.000000
_cell_angle_beta 45.899823
_cell_angle_gamma 90.000000
_cell_volume 2746.347875
_symmetry_space_group_name_H-M "C 2/C"
_symmetry_group_IT_number 15
_symmetry_cell_setting 'monoclinic'
loop_
_space_group_symop_operation_xyz
x,y,z
-x,y,1/2-z
-x,-y,-z
x,-y,1/2+z
1/2+x,1/2+y,z
1/2-x,1/2+y,1/2-z
1/2-x,1/2-y,-z
1/2+x,1/2-y,1/2+z
loop_
_atom_site_type_symbol
_atom_site_label
_atom_site_fract_x
_atom_site_fract_y
_atom_site_fract_z
Si Si1 0.490016 0.263879 0.617972
Si Si2 0.310182 0.547404 0.414131
Si Si3 0.693680 0.367193 0.026081
Si Si4 0.000000 0.977575 0.750000
Si Si5 0.796445 0.690161 0.844155
Si Si6 0.073142 0.906213 0.962867
Si Si7 0.680847 0.745621 0.765320
O O1 0.500000 0.277290 0.750000
O O2 0.402935 0.209709 0.705217
O O3 0.474439 0.344292 0.563366
O O4 0.586141 0.230935 0.449522
O O5 0.287570 0.457390 0.468569
O O6 0.403361 0.563744 0.367623
O O7 0.234190 0.605823 0.564420
O O8 0.342792 0.561089 0.230088
O O9 0.665058 0.321455 0.185419
O O10 0.616167 0.364536 0.024859
O O11 0.776466 0.319725 0.859161
O O12 0.009019 0.030029 0.613790
O O13 0.750405 0.710801 0.774309
O O14 0.750000 0.750000 0.000000
#
# Coordination Sequence:
#
# PCOD9297227 Si02
#       7
#     8   8   8   4   8   8   8
#     4  12  23  38  69  93 125 173 212 261 312 379
#     4  11  23  37  65  88 132 163 212 259 324 378
#     4  10  24  43  63  95 127 175 201 273 319 379
#     4  10  24  36  60  98 122 168 196 268 338 378
#     4  12  23  42  62  98 126 171 211 262 310 384
#     4  11  21  40  58  93 135 151 214 258 324 395
#     4  11  23  43  66  91 132 164 220 253 327 371
#
# _framework density 18.934237
#
# number of rings (size 3 to 8) (size 9 to 14) (size 15 to 20)
#    0.000    0.923    4.615    2.308    7.538    0.000 
#    0.000    0.769    0.000    0.000    0.000    0.000 
#    0.000    0.000    0.000    0.000    0.000    0.000 
#
# Total GULP energy -145237.047308 kJ/mol
# GULP energy per Si atom -5586.040281 kJ/mol
# Density = 1.889114 g / cm^3
# Si number density = 18.934237 Si / 1000 Ang^3
#
#
#
# Elastic Constant Matrix: (Units=GPa)
#
#
# Indices 1 2 3 4 5 6 
#
# 1 113.0600 25.7910 52.6997 0.0000 9.6895 0.0000
# 2 25.7910 79.6420 40.4030 0.0000 -6.4178 0.0000
# 3 52.6997 40.4030 124.5481 0.0000 0.2477 0.0000
# 4 0.0000 0.0000 0.0000 29.2609 0.0000 1.0633
# 5 9.6895 -6.4178 0.2477 0.0000 46.2272 0.0000
# 6 0.0000 0.0000 0.0000 1.0633 0.0000 19.1571
#
#
#
# Elastic Compliance Matrix: (Units=1/GPa)
#
#
# Indices 1 2 3 4 5 6 
#
# 1 0.011463 -0.001754 -0.004276 0.000000 -0.002623 0.000000
# 2 -0.001754 0.015507 -0.004293 0.000000 0.002544 0.000000
# 3 -0.004276 -0.004293 0.011231 0.000000 0.000240 0.000000
# 4 0.000000 0.000000 0.000000 0.034244 0.000000 -0.001901
# 5 -0.002623 0.002544 0.000240 0.000000 0.022534 0.000000
# 6 0.000000 0.000000 0.000000 -0.001901 0.000000 0.052306
#
#
# Mechanical properties :
#
#
# Convention : Reuss Voigt Hill
#
# Bulk Modulus (GPa) = 56.96806 61.67085 59.31945
# Shear Modulus (GPa) = 28.77149 32.15280 30.46215
#
# Velocity S-wave (km/s) = 3.90237 4.12531 4.01539
# Velocity P-wave (km/s) = 7.10333 7.43859 7.27289
#
# Compressibility (1/GPa) = 0.01755370
#
# Stress axis : x y z
#
# Youngs Moduli (GPa) = 87.23710 64.48583 89.04260
#
# Poissons Ratio (x) = 0.11313 0.38075
# Poissons Ratio (y) = 0.15304 0.38229
# Poissons Ratio (z) = 0.37303 0.27686
#
# Static dielectric constant tensor:
#      x y z
#    x 1.683660 0.000000 0.008180 
#    y 0.000000 1.690620 0.000000 
#    z 0.008180 0.000000 1.681230 
# 
# From -- ./inp_files/56938.got.cif
#   From: 2010.05.17/outbox.cif.g08.bks.cpg/sg15_29_cif.got.tgz:56938.got - 2010.06.03 18:47:42.
