data_PCOD9297221
_publ_section_title
;
Structure prediction by ZEFSAII (Michael W. Deem and Ramdas Pophale) SiO2 
 PCOD9297221
Probable space group: C 2/C
;
_chemical_formula_sum "Si O2"
_cell_formula_units_Z 56
_cell_length_a 19.036458
_cell_length_b 21.841260
_cell_length_c 14.685886
_cell_angle_alpha 90.000000
_cell_angle_beta 152.037865
_cell_angle_gamma 90.000000
_cell_volume 2863.077185
_symmetry_space_group_name_H-M "C 2/C"
_symmetry_group_IT_number 15
_symmetry_cell_setting 'monoclinic'
loop_
_space_group_symop_operation_xyz
x,y,z
-x,y,1/2-z
-x,-y,-z
x,-y,1/2+z
1/2+x,1/2+y,z
1/2-x,1/2+y,1/2-z
1/2-x,1/2-y,-z
1/2+x,1/2-y,1/2+z
loop_
_atom_site_type_symbol
_atom_site_label
_atom_site_fract_x
_atom_site_fract_y
_atom_site_fract_z
Si Si1 0.690801 0.786574 0.632830
Si Si2 0.529670 0.671326 0.506028
Si Si3 0.502810 0.096608 0.532229
Si Si4 0.250000 0.250000 0.500000
Si Si5 0.000000 0.985507 0.750000
Si Si6 0.084509 0.953944 0.165050
Si Si7 0.189104 0.876976 0.024568
Si Si8 0.939202 0.523042 0.077080
O O1 0.645804 0.727418 0.640384
O O2 0.597460 0.844513 0.560420
O O3 0.659180 0.768274 0.491824
O O4 0.866354 0.800674 0.833054
O O5 0.556406 0.615625 0.604021
O O6 0.547981 0.642884 0.425519
O O7 0.675727 0.112838 0.749953
O O8 0.487306 0.070192 0.412180
O O9 0.465344 0.043340 0.561743
O O10 0.238250 0.177422 0.515318
O O11 0.857855 0.940033 0.576624
O O12 0.984263 0.028246 0.817907
O O13 0.261509 0.965613 0.370899
O O14 0.000000 0.000000 0.000000
O O15 0.000000 0.527225 0.250000
#
# Coordination Sequence:
#
# PCOD9297221 Si02
#       8
#     8   8   8   4   4   8   8   8
#     4  11  24  40  68  97 138 179 221 279 346 425
#     4  11  23  42  66  96 134 176 222 275 348 408
#     4  11  24  42  67  99 138 183 230 281 354 415
#     4  10  24  36  60 102 138 172 220 266 352 424
#     4  12  24  38  70  96 136 178 234 280 340 416
#     4  12  24  44  69  99 139 182 229 290 351 411
#     4  11  22  41  62 101 140 178 223 280 346 427
#     4  11  25  43  69 100 139 185 237 287 346 417
#
# _framework density 19.559374999999999
#
# number of rings (size 3 to 8) (size 9 to 14) (size 15 to 20)
#    0.000    0.857    2.857    4.286    4.000    8.571 
#    0.000    0.000    1.571    1.714    0.000    0.000 
#    0.000    0.000    0.000    0.000    0.000    0.000 
#
# Total GULP energy -156012.060901 kJ/mol
# GULP energy per Si atom -5571.859318 kJ/mol
# Density = 1.951486 g / cm^3
# Si number density = 19.559375 Si / 1000 Ang^3
#
#
#
# Elastic Constant Matrix: (Units=GPa)
#
#
# Indices 1 2 3 4 5 6 
#
# 1 120.1924 73.1778 27.2241 0.0000 -29.8272 0.0000
# 2 73.1778 157.2070 31.2574 0.0000 -11.1927 0.0000
# 3 27.2241 31.2574 84.6715 0.0000 -2.3537 0.0000
# 4 0.0000 0.0000 0.0000 2.3952 0.0000 -9.6993
# 5 -29.8272 -11.1927 -2.3537 0.0000 22.5851 0.0000
# 6 0.0000 0.0000 0.0000 -9.6993 0.0000 37.6348
#
#
#
# Elastic Compliance Matrix: (Units=1/GPa)
#
#
# Indices 1 2 3 4 5 6 
#
# 1 0.017757 -0.006275 -0.002836 0.000000 0.020046 0.000000
# 2 -0.006275 0.009313 -0.001527 0.000000 -0.003831 0.000000
# 3 -0.002836 -0.001527 0.013199 0.000000 -0.003126 0.000000
# 4 0.000000 0.000000 0.000000 -9.564544 0.000001 -2.464995
# 5 0.020046 -0.003831 -0.003126 0.000001 0.068527 0.000000
# 6 0.000000 0.000000 0.000000 -2.464995 0.000000 -0.608713
#
#
# Mechanical properties :
#
#
# Convention : Reuss Voigt Hill
#
# Bulk Modulus (GPa) = 52.64802 69.48773 61.06788
# Shear Modulus (GPa) = -0.49816 27.88380 13.69282
#
# Velocity S-wave (km/s) = -0.50522 3.77980 2.64874
# Velocity P-wave (km/s) = 5.16092 7.39276 6.37527
#
# Compressibility (1/GPa) = 0.01899407
#
# Stress axis : x y z
#
# Youngs Moduli (GPa) = 56.31477 107.38029 75.76392
#
# Poissons Ratio (x) = 0.67378 0.21485
# Poissons Ratio (y) = 0.35336 0.11568
# Poissons Ratio (z) = 0.15970 0.16396
#
# Static dielectric constant tensor:
#      x y z
#    x 1.693150 0.000000 0.030470 
#    y 0.000000 1.585630 0.000000 
#    z 0.030470 0.000000 1.785590 
# 
# From -- ./inp_files/163849.got.cif
#   From: 2010.05.17/outbox.cif.g08.bks.cpg/sg15_82_cif.got.tgz:163849.got - 2010.06.03 18:47:42.
