data_PCOD9297441
_publ_section_title
;
Structure prediction by ZEFSAII (Michael W. Deem and Ramdas Pophale) SiO2 
 PCOD9297441
Probable space group: C 2/C
;
_chemical_formula_sum "Si O2"
_cell_formula_units_Z 44
_cell_length_a 10.623669
_cell_length_b 9.124542
_cell_length_c 22.241956
_cell_angle_alpha 90.000000
_cell_angle_beta 64.690688
_cell_angle_gamma 90.000000
_cell_volume 1949.096303
_symmetry_space_group_name_H-M "C 2/C"
_symmetry_group_IT_number 15
_symmetry_cell_setting 'monoclinic'
loop_
_space_group_symop_operation_xyz
x,y,z
-x,y,1/2-z
-x,-y,-z
x,-y,1/2+z
1/2+x,1/2+y,z
1/2-x,1/2+y,1/2-z
1/2-x,1/2-y,-z
1/2+x,1/2-y,1/2+z
loop_
_atom_site_type_symbol
_atom_site_label
_atom_site_fract_x
_atom_site_fract_y
_atom_site_fract_z
Si Si1 0.408630 0.887668 0.457902
Si Si2 0.500000 0.061014 0.750000
Si Si3 0.543385 0.393448 0.171477
Si Si4 0.596282 0.110701 0.341048
Si Si5 0.307004 0.842970 0.044467
Si Si6 0.640560 0.303932 0.639394
O O1 0.535097 0.807880 0.467485
O O2 0.331384 0.778610 0.428812
O O3 0.490397 0.010984 0.401199
O O4 0.316307 0.988590 0.519878
O O5 0.586947 0.171237 0.691316
O O6 0.407904 0.960388 0.724465
O O7 0.500000 0.385935 0.250000
O O8 0.449092 0.278834 0.155133
O O9 0.698055 0.334769 0.121581
O O10 0.531890 0.562457 0.153201
O O11 0.740885 0.117916 0.345732
O O12 0.250000 0.750000 0.000000
#
# Coordination Sequence:
#
# PCOD9297441 Si02
#       6
#     8   4   8   8   8   8
#     4  10  24  46  71  99 134 180 234 280 346 407
#     4  10  24  40  66  98 140 186 222 274 354 398
#     4  12  25  44  68 104 140 177 228 286 346 408
#     4  11  23  43  67 100 135 182 227 281 341 409
#     4  11  23  46  74  98 137 185 232 287 342 410
#     4  11  25  42  67 103 136 180 226 288 338 414
#
# _framework density 22.574565
#
# number of rings (size 3 to 8) (size 9 to 14) (size 15 to 20)
#    0.000    1.091    5.455    0.000    2.545    2.182 
#    0.000    1.818    0.000    0.000    0.000    0.000 
#    0.000    0.000    0.000    0.000    0.000    0.000 
#
# Total GULP energy -122880.933135 kJ/mol
# GULP energy per Si atom -5585.496961 kJ/mol
# Density = 2.252318 g / cm^3
# Si number density = 22.574565 Si / 1000 Ang^3
#
#
#
# Elastic Constant Matrix: (Units=GPa)
#
#
# Indices 1 2 3 4 5 6 
#
# 1 69.0784 47.6966 32.0819 0.0000 22.7523 0.0000
# 2 47.6966 111.2685 24.5525 0.0000 21.4768 0.0000
# 3 32.0819 24.5525 125.0591 0.0000 6.5047 0.0000
# 4 0.0000 0.0000 0.0000 35.9126 0.0000 4.1363
# 5 22.7523 21.4768 6.5047 0.0000 32.7853 0.0000
# 6 0.0000 0.0000 0.0000 4.1363 0.0000 39.9425
#
#
#
# Elastic Compliance Matrix: (Units=1/GPa)
#
#
# Indices 1 2 3 4 5 6 
#
# 1 0.025884 -0.007796 -0.004487 0.000000 -0.011966 0.000000
# 2 -0.007796 0.013001 -0.000395 0.000000 -0.003028 0.000000
# 3 -0.004487 -0.000395 0.009144 0.000000 0.001559 0.000000
# 4 0.000000 0.000000 0.000000 0.028181 0.000000 -0.002918
# 5 -0.011966 -0.003028 0.001559 0.000000 0.040480 0.000000
# 6 0.000000 0.000000 0.000000 -0.002918 0.000000 0.025338
#
#
# Mechanical properties :
#
#
# Convention : Reuss Voigt Hill
#
# Bulk Modulus (GPa) = 44.10608 57.11865 50.61237
# Shear Modulus (GPa) = 28.58088 35.13309 31.85699
#
# Velocity S-wave (km/s) = 3.56204 3.94929 3.76066
# Velocity P-wave (km/s) = 6.04135 6.79360 6.42849
#
# Compressibility (1/GPa) = 0.02267261
#
# Stress axis : x y z
#
# Youngs Moduli (GPa) = 38.63342 76.91938 109.36326
#
# Poissons Ratio (x) = 0.59965 0.49074
# Poissons Ratio (y) = 0.30118 0.04320
# Poissons Ratio (z) = 0.17336 0.03038
#
# Static dielectric constant tensor:
#      x y z
#    x 1.860420 0.000000 -0.055870 
#    y 0.000000 1.830870 0.000000 
#    z -0.055870 0.000000 1.923970 
# 
# From -- ./inp_files/267598.got.cif
#   From: 2010.05.17/outbox.cif.g08.bks.cpg/sg15_134_cif.got.tgz:267598.got - 2010.06.03 18:47:42.
