data_PCOD9297804
_publ_section_title
;
Structure prediction by ZEFSAII (Michael W. Deem and Ramdas Pophale) SiO2 
 PCOD9297804
Probable space group: C 2/C
;
_chemical_formula_sum "Si O2"
_cell_formula_units_Z 56
_cell_length_a 14.255757
_cell_length_b 13.956869
_cell_length_c 21.060102
_cell_angle_alpha 90.000000
_cell_angle_beta 35.331433
_cell_angle_gamma 90.000000
_cell_volume 2423.237116
_symmetry_space_group_name_H-M "C 2/C"
_symmetry_group_IT_number 15
_symmetry_cell_setting 'monoclinic'
loop_
_space_group_symop_operation_xyz
x,y,z
-x,y,1/2-z
-x,-y,-z
x,-y,1/2+z
1/2+x,1/2+y,z
1/2-x,1/2+y,1/2-z
1/2-x,1/2-y,-z
1/2+x,1/2-y,1/2+z
loop_
_atom_site_type_symbol
_atom_site_label
_atom_site_fract_x
_atom_site_fract_y
_atom_site_fract_z
Si Si1 0.124116 0.679749 0.038080
Si Si2 0.096929 0.783009 0.441349
Si Si3 0.567266 0.439384 0.882911
Si Si4 0.116649 0.979940 0.124413
Si Si5 0.613233 0.132703 0.544219
Si Si6 0.441196 0.277650 0.716384
Si Si7 0.072366 0.524903 0.279779
O O1 0.018329 0.745408 0.050418
O O2 0.242612 0.598724 0.942862
O O3 0.250000 0.750000 0.000000
O O4 0.009334 0.624133 0.151369
O O5 0.042534 0.880602 0.506270
O O6 0.082824 0.694277 0.498620
O O7 0.281442 0.785972 0.315693
O O8 0.483894 0.523746 0.886985
O O9 0.605158 0.359209 0.807893
O O10 0.734600 0.466974 0.823998
O O11 0.000000 0.977134 0.250000
O O12 0.219465 0.076899 0.054767
O O13 0.589103 0.211402 0.611961
O O14 0.484756 0.051862 0.635865
O O15 0.500000 0.318600 0.750000
O O16 0.000000 0.501292 0.250000
#
# Coordination Sequence:
#
# PCOD9297804 Si02
#       7
#     8   8   8   8   8   8   8
#     4  11  26  46  68  99 141 190 240 286 353 423
#     4  11  23  42  70 101 140 186 232 291 351 427
#     4  11  23  40  67 103 136 182 238 288 353 417
#     4  11  25  43  72 105 143 185 235 295 346 423
#     4  10  24  42  68 101 138 178 227 286 360 408
#     4  11  21  40  68 100 141 178 225 288 354 422
#     4  11  24  44  67  94 137 181 232 292 348 418
#
# _framework density 23.109583000000001
#
# number of rings (size 3 to 8) (size 9 to 14) (size 15 to 20)
#    0.000    1.143    1.429    4.286    2.000    7.429 
#    0.000    4.286    0.000    0.000    0.000    0.000 
#    0.000    0.000    0.000    0.000    0.000    0.000 
#
# Total GULP energy -156588.161874 kJ/mol
# GULP energy per Si atom -5592.434353 kJ/mol
# Density = 2.305698 g / cm^3
# Si number density = 23.109583 Si / 1000 Ang^3
#
#
#
# Elastic Constant Matrix: (Units=GPa)
#
#
# Indices 1 2 3 4 5 6 
#
# 1 117.1997 20.4635 55.3979 -0.0001 -17.2002 0.0000
# 2 20.4635 74.3075 40.4085 -0.0001 1.3599 0.0000
# 3 55.3979 40.4085 157.4546 -0.0004 -7.7681 0.0001
# 4 -0.0001 -0.0001 -0.0004 29.7967 0.0001 -5.8505
# 5 -17.2002 1.3599 -7.7681 0.0001 33.6217 0.0000
# 6 0.0000 0.0000 0.0001 -5.8505 0.0000 18.2742
#
#
#
# Elastic Compliance Matrix: (Units=1/GPa)
#
#
# Indices 1 2 3 4 5 6 
#
# 1 0.011052 -0.001339 -0.003301 0.000000 0.004946 0.000000
# 2 -0.001339 0.015886 -0.003714 0.000000 -0.002186 0.000000
# 3 -0.003301 -0.003714 0.008486 0.000000 0.000422 0.000000
# 4 0.000000 0.000000 0.000000 0.035812 0.000000 0.011465
# 5 0.004946 -0.002186 0.000422 0.000000 0.032459 0.000000
# 6 0.000000 0.000000 0.000000 0.011465 0.000000 0.058393
#
#
# Mechanical properties :
#
#
# Convention : Reuss Voigt Hill
#
# Bulk Modulus (GPa) = 53.42683 64.61129 59.01906
# Shear Modulus (GPa) = 27.02207 31.85131 29.43669
#
# Velocity S-wave (km/s) = 3.42321 3.71654 3.57289
# Velocity P-wave (km/s) = 6.22845 6.81441 6.52801
#
# Compressibility (1/GPa) = 0.01871719
#
# Stress axis : x y z
#
# Youngs Moduli (GPa) = 90.47830 62.94931 117.83737
#
# Poissons Ratio (x) = 0.08430 0.38897
# Poissons Ratio (y) = 0.12117 0.43759
# Poissons Ratio (z) = 0.29866 0.23376
#
# Static dielectric constant tensor:
#      x y z
#    x 1.904920 0.000000 0.008690 
#    y 0.000000 1.991690 0.000000 
#    z 0.008690 0.000000 1.905420 
# 
# From -- ./inp_files/274479.got.cif
#   From: 2010.05.17/outbox.cif.g08.bks.cpg/sg15_138_cif.got.tgz:274479.got - 2010.06.03 18:47:42.
