data_PCOD9297150
_publ_section_title
;
Structure prediction by ZEFSAII (Michael W. Deem and Ramdas Pophale) SiO2 
 PCOD9297150
Probable space group: C 2/C
;
_chemical_formula_sum "Si O2"
_cell_formula_units_Z 48
_cell_length_a 22.196506
_cell_length_b 10.089072
_cell_length_c 15.965259
_cell_angle_alpha 90.000000
_cell_angle_beta 149.221162
_cell_angle_gamma 90.000000
_cell_volume 1829.569577
_symmetry_space_group_name_H-M "C 2/C"
_symmetry_group_IT_number 15
_symmetry_cell_setting 'monoclinic'
loop_
_space_group_symop_operation_xyz
x,y,z
-x,y,1/2-z
-x,-y,-z
x,-y,1/2+z
1/2+x,1/2+y,z
1/2-x,1/2+y,1/2-z
1/2-x,1/2-y,-z
1/2+x,1/2-y,1/2+z
loop_
_atom_site_type_symbol
_atom_site_label
_atom_site_fract_x
_atom_site_fract_y
_atom_site_fract_z
Si Si1 0.117514 0.460852 0.688788
Si Si2 0.731501 0.547936 0.482379
Si Si3 0.295552 0.694024 0.664337
Si Si4 0.390519 0.218976 0.577304
Si Si5 0.356521 0.627336 0.410050
Si Si6 0.039307 0.132382 0.493707
O O1 0.174288 0.552191 0.828764
O O2 0.114323 0.318892 0.733061
O O3 0.226606 0.438153 0.755286
O O4 0.000000 0.500000 0.500000
O O5 0.711039 0.398800 0.424978
O O6 0.630409 0.644521 0.395910
O O7 0.781815 0.625157 0.463007
O O8 0.174185 0.756717 0.558668
O O9 0.359721 0.615788 0.815661
O O10 0.500000 0.147346 0.750000
O O11 0.420409 0.254016 0.519406
O O12 0.419526 0.670107 0.399091
O O13 0.447174 0.506673 0.540838
#
# Coordination Sequence:
#
# PCOD9297150 Si02
#       6
#     8   8   8   8   8   8
#     4  10  23  48  79 116 157 204 267 333 406 490
#     4  11  25  50  76 116 155 203 270 341 408 478
#     4  10  25  44  82 112 160 203 266 340 403 487
#     4  11  27  45  77 109 158 205 270 334 406 489
#     4   9  24  44  73 114 151 203 268 321 400 487
#     4  11  23  46  74 114 149 215 257 329 407 490
#
# _framework density 26.235679000000001
#
# number of rings (size 3 to 8) (size 9 to 14) (size 15 to 20)
#    1.000    0.667    1.667    0.500    9.333    2.667 
#    3.000    0.833    0.000    0.000    0.000    2.333 
#    0.000    0.000    0.000    0.000    0.000    0.000 
#
# Total GULP energy -133804.376096 kJ/mol
# GULP energy per Si atom -5575.182337 kJ/mol
# Density = 2.617597 g / cm^3
# Si number density = 26.235679 Si / 1000 Ang^3
#
#
#
# Elastic Constant Matrix: (Units=GPa)
#
#
# Indices 1 2 3 4 5 6 
#
# 1 172.0158 26.2189 44.2475 0.0000 25.4445 0.0000
# 2 26.2189 85.2297 17.5564 0.0000 10.5964 0.0000
# 3 44.2475 17.5564 125.1226 0.0000 -5.5784 0.0000
# 4 0.0000 0.0000 0.0000 30.3338 0.0000 -6.7534
# 5 25.4445 10.5964 -5.5784 0.0000 23.1201 0.0000
# 6 0.0000 0.0000 0.0000 -6.7534 0.0000 55.2767
#
#
#
# Elastic Compliance Matrix: (Units=1/GPa)
#
#
# Indices 1 2 3 4 5 6 
#
# 1 0.008132 -0.000672 -0.003201 0.000000 -0.009414 0.000000
# 2 -0.000672 0.013025 -0.001843 0.000000 -0.005675 0.000000
# 3 -0.003201 -0.001843 0.009682 0.000000 0.006704 0.000000
# 4 0.000000 0.000000 0.000000 0.033888 0.000000 0.004140
# 5 -0.009414 -0.005675 0.006704 0.000000 0.057831 0.000000
# 6 0.000000 0.000000 0.000000 0.004140 0.000000 0.018597
#
#
# Mechanical properties :
#
#
# Convention : Reuss Voigt Hill
#
# Bulk Modulus (GPa) = 51.52918 62.04596 56.78757
# Shear Modulus (GPa) = 31.43578 41.36915 36.40247
#
# Velocity S-wave (km/s) = 3.46527 3.97524 3.72898
# Velocity P-wave (km/s) = 5.97447 6.69110 6.34291
#
# Compressibility (1/GPa) = 0.01940648
#
# Stress axis : x y z
#
# Youngs Moduli (GPa) = 122.97567 76.77635 103.28827
#
# Poissons Ratio (x) = 0.05157 0.33063
# Poissons Ratio (y) = 0.08261 0.19036
# Poissons Ratio (z) = 0.39365 0.14150
#
# Static dielectric constant tensor:
#      x y z
#    x 2.061020 0.000000 0.000700 
#    y 0.000000 2.246750 0.000000 
#    z 0.000700 0.000000 2.152360 
# 
# From -- ./inp_files/167905.got.cif
#   From: 2010.05.17/outbox.cif.g08.bks.cpg/sg15_84_cif.got.tgz:167905.got - 2010.06.03 18:47:42.
