data_PCOD9297475
_publ_section_title
;
Structure prediction by ZEFSAII (Michael W. Deem and Ramdas Pophale) SiO2 
 PCOD9297475
Probable space group: C 2/C
;
_chemical_formula_sum "Si O2"
_cell_formula_units_Z 44
_cell_length_a 22.787709
_cell_length_b 5.059255
_cell_length_c 15.104477
_cell_angle_alpha 90.000000
_cell_angle_beta 78.994505
_cell_angle_gamma 90.000000
_cell_volume 1709.351608
_symmetry_space_group_name_H-M "C 2/C"
_symmetry_group_IT_number 15
_symmetry_cell_setting 'monoclinic'
loop_
_space_group_symop_operation_xyz
x,y,z
-x,y,1/2-z
-x,-y,-z
x,-y,1/2+z
1/2+x,1/2+y,z
1/2-x,1/2+y,1/2-z
1/2-x,1/2-y,-z
1/2+x,1/2-y,1/2+z
loop_
_atom_site_type_symbol
_atom_site_label
_atom_site_fract_x
_atom_site_fract_y
_atom_site_fract_z
Si Si1 0.760461 0.735300 0.856964
Si Si2 0.750000 0.250000 0.000000
Si Si3 0.036584 0.224570 0.092836
Si Si4 0.849097 0.569003 0.227283
Si Si5 0.349175 0.388676 0.404183
Si Si6 0.972587 0.717712 0.115845
O O1 0.817660 0.693163 0.775838
O O2 0.702994 0.806566 0.817455
O O3 0.780787 0.980029 0.914771
O O4 0.750886 0.472486 0.914768
O O5 0.672620 0.202065 0.011304
O O6 0.101340 0.101112 0.089701
O O7 0.024779 0.517465 0.131174
O O8 0.027663 0.250531 0.990071
O O9 0.988831 0.011155 0.143806
O O10 0.911308 0.576595 0.159288
O O11 0.861416 0.745587 0.310100
#
# Coordination Sequence:
#
# PCOD9297475 Si02
#       6
#     8   4   8   8   8   8
#     4  11  23  44  65 103 138 180 227 294 348 425
#     4  10  24  40  70 100 132 182 228 282 356 412
#     4  10  24  47  70  99 138 178 246 280 349 412
#     4  11  24  42  67 101 141 180 232 283 364 410
#     4  11  24  44  66 103 136 181 229 292 343 431
#     4  10  24  46  71  99 134 189 226 299 341 418
#
# _framework density 25.740755
#
# number of rings (size 3 to 8) (size 9 to 14) (size 15 to 20)
#    0.000    1.455    1.818    1.636    7.636    0.727 
#    9.818    0.000    0.000    0.000    0.000    0.000 
#    0.000    0.000    0.000    0.000    0.000    0.000 
#
# Total GULP energy -122808.580925 kJ/mol
# GULP energy per Si atom -5582.208224 kJ/mol
# Density = 2.568217 g / cm^3
# Si number density = 25.740755 Si / 1000 Ang^3
#
#
#
# Elastic Constant Matrix: (Units=GPa)
#
#
# Indices 1 2 3 4 5 6 
#
# 1 157.8900 51.0758 32.1894 0.0000 -3.6772 0.0000
# 2 51.0758 127.8875 35.0433 0.0000 7.9072 0.0000
# 3 32.1894 35.0433 56.5735 0.0000 -16.3861 0.0000
# 4 0.0000 0.0000 0.0000 34.5992 0.0000 1.9784
# 5 -3.6772 7.9072 -16.3861 0.0000 39.9212 0.0000
# 6 0.0000 0.0000 0.0000 1.9784 0.0000 52.9978
#
#
#
# Elastic Compliance Matrix: (Units=1/GPa)
#
#
# Indices 1 2 3 4 5 6 
#
# 1 0.007666 -0.002234 -0.003003 0.000000 -0.000084 0.000000
# 2 -0.002234 0.010970 -0.007051 0.000000 -0.005273 0.000000
# 3 -0.003003 -0.007051 0.027325 0.000000 0.012336 0.000000
# 4 0.000000 0.000000 0.000000 0.028964 0.000000 -0.001081
# 5 -0.000084 -0.005273 0.012336 0.000000 0.031149 0.000000
# 6 0.000000 0.000000 0.000000 -0.001081 0.000000 0.018909
#
#
# Mechanical properties :
#
#
# Convention : Reuss Voigt Hill
#
# Bulk Modulus (GPa) = 46.75927 64.32978 55.54452
# Shear Modulus (GPa) = 31.91059 40.43979 36.17519
#
# Velocity S-wave (km/s) = 3.52474 3.96794 3.75289
# Velocity P-wave (km/s) = 5.89661 6.78516 6.35643
#
# Compressibility (1/GPa) = 0.02138613
#
# Stress axis : x y z
#
# Youngs Moduli (GPa) = 130.44026 91.16055 36.59622
#
# Poissons Ratio (x) = 0.20364 0.10988
# Poissons Ratio (y) = 0.29138 0.25804
# Poissons Ratio (z) = 0.39166 0.64278
#
# Static dielectric constant tensor:
#      x y z
#    x 2.067670 0.000000 -0.054820 
#    y 0.000000 2.185480 0.000000 
#    z -0.054820 0.000000 2.102910 
# 
# From -- ./inp_files/212818.got.cif
#   From: 2010.05.17/outbox.cif.g08.bks.cpg/sg15_107_cif.got.tgz:212818.got - 2010.06.03 18:47:42.
