data_PCOD9297815
_publ_section_title
;
Structure prediction by ZEFSAII (Michael W. Deem and Ramdas Pophale) SiO2 
 PCOD9297815
Probable space group: C 2/C
;
_chemical_formula_sum "Si O2"
_cell_formula_units_Z 48
_cell_length_a 25.152041
_cell_length_b 8.547140
_cell_length_c 9.812495
_cell_angle_alpha 90.000000
_cell_angle_beta 111.078037
_cell_angle_gamma 90.000000
_cell_volume 1968.329105
_symmetry_space_group_name_H-M "C 2/C"
_symmetry_group_IT_number 15
_symmetry_cell_setting 'monoclinic'
loop_
_space_group_symop_operation_xyz
x,y,z
-x,y,1/2-z
-x,-y,-z
x,-y,1/2+z
1/2+x,1/2+y,z
1/2-x,1/2+y,1/2-z
1/2-x,1/2-y,-z
1/2+x,1/2-y,1/2+z
loop_
_atom_site_type_symbol
_atom_site_label
_atom_site_fract_x
_atom_site_fract_y
_atom_site_fract_z
Si Si1 0.556200 0.044424 0.966141
Si Si2 0.258876 0.060513 0.008406
Si Si3 0.827930 0.428283 0.314348
Si Si4 0.500000 0.304727 0.750000
Si Si5 0.146128 0.075433 0.052911
Si Si6 0.425587 0.432967 0.286866
Si Si7 0.500000 0.806695 0.750000
O O1 0.544198 0.202733 0.876047
O O2 0.551767 0.913752 0.844880
O O3 0.500000 0.000000 0.000000
O O4 0.614572 0.021280 0.097191
O O5 0.200516 0.005557 0.023712
O O6 0.307651 0.984087 0.147764
O O7 0.250000 0.250000 0.000000
O O8 0.277320 0.022065 0.872003
O O9 0.840210 0.243071 0.359489
O O10 0.537801 0.409655 0.686222
O O11 0.121247 0.956522 0.141583
O O12 0.101447 0.094842 0.887728
O O13 0.472978 0.299449 0.342880
#
# Coordination Sequence:
#
# PCOD9297815 Si02
#       7
#     8   8   8   4   8   8   4
#     4  11  24  41  70 103 144 188 241 291 360 425
#     4  10  25  48  73 107 141 187 238 298 358 423
#     4  11  24  47  74 105 144 185 242 297 356 424
#     4  10  26  40  62 110 140 190 236 296 358 424
#     4  11  24  46  72 104 137 192 237 297 355 423
#     4  11  24  44  71 101 147 186 240 291 358 427
#     4  10  24  42  68 104 144 194 236 290 358 430
#
# _framework density 24.386165999999999
#
# number of rings (size 3 to 8) (size 9 to 14) (size 15 to 20)
#    0.000    1.333    1.667    2.000    9.333    1.333 
#    6.000    4.167    0.000    0.000    0.000    0.000 
#    0.000    0.000    0.000    0.000    0.000    0.000 
#
# Total GULP energy -134249.475503 kJ/mol
# GULP energy per Si atom -5593.728146 kJ/mol
# Density = 2.433066 g / cm^3
# Si number density = 24.386166 Si / 1000 Ang^3
#
#
#
# Elastic Constant Matrix: (Units=GPa)
#
#
# Indices 1 2 3 4 5 6 
#
# 1 109.3078 12.5871 -15.7092 0.0000 -15.0334 0.0000
# 2 12.5871 86.1126 24.8157 0.0000 2.4232 0.0000
# 3 -15.7092 24.8157 88.1517 0.0000 -0.0214 0.0000
# 4 0.0000 0.0000 0.0000 22.6204 0.0000 12.7460
# 5 -15.0334 2.4232 -0.0214 0.0000 52.5120 0.0000
# 6 0.0000 0.0000 0.0000 12.7460 0.0000 17.1625
#
#
#
# Elastic Compliance Matrix: (Units=1/GPa)
#
#
# Indices 1 2 3 4 5 6 
#
# 1 0.010180 -0.002281 0.002457 0.000000 0.003021 0.000000
# 2 -0.002281 0.013167 -0.004113 0.000000 -0.001262 0.000000
# 3 0.002457 -0.004113 0.012940 0.000000 0.000898 0.000000
# 4 0.000000 0.000000 0.000000 0.076020 0.000000 -0.056457
# 5 0.003021 -0.001262 0.000898 0.000000 0.019967 0.000000
# 6 0.000000 0.000000 0.000000 -0.056457 0.000000 0.100195
#
#
# Mechanical properties :
#
#
# Convention : Reuss Voigt Hill
#
# Bulk Modulus (GPa) = 35.19665 36.32881 35.76273
# Shear Modulus (GPa) = 20.01488 35.91756 27.96622
#
# Velocity S-wave (km/s) = 2.86798 3.84196 3.39013
# Velocity P-wave (km/s) = 5.04296 5.88307 5.47914
#
# Compressibility (1/GPa) = 0.02841180
#
# Stress axis : x y z
#
# Youngs Moduli (GPa) = 98.23507 75.94719 77.27901
#
# Poissons Ratio (x) = 0.17323 -0.18987
# Poissons Ratio (y) = 0.22407 0.31788
# Poissons Ratio (z) = -0.24136 0.31241
#
# Static dielectric constant tensor:
#      x y z
#    x 1.934680 0.000000 -0.026220 
#    y 0.000000 1.994900 0.000000 
#    z -0.026220 0.000000 2.008580 
# 
# From -- ./inp_files/116816.got.cif
#   From: 2010.05.17/outbox.cif.g08.bks.cpg/sg15_59_cif.got.tgz:116816.got - 2010.06.03 18:47:42.
