data_PCOD9297360
_publ_section_title
;
Structure prediction by ZEFSAII (Michael W. Deem and Ramdas Pophale) SiO2 
 PCOD9297360
Probable space group: C 2/C
;
_chemical_formula_sum "Si O2"
_cell_formula_units_Z 56
_cell_length_a 11.043043
_cell_length_b 20.687063
_cell_length_c 14.404685
_cell_angle_alpha 90.000000
_cell_angle_beta 41.436484
_cell_angle_gamma 90.000000
_cell_volume 2177.765719
_symmetry_space_group_name_H-M "C 2/C"
_symmetry_group_IT_number 15
_symmetry_cell_setting 'monoclinic'
loop_
_space_group_symop_operation_xyz
x,y,z
-x,y,1/2-z
-x,-y,-z
x,-y,1/2+z
1/2+x,1/2+y,z
1/2-x,1/2+y,1/2-z
1/2-x,1/2-y,-z
1/2+x,1/2-y,1/2+z
loop_
_atom_site_type_symbol
_atom_site_label
_atom_site_fract_x
_atom_site_fract_y
_atom_site_fract_z
Si Si1 0.611012 0.763554 0.986808
Si Si2 0.141945 0.133777 0.878560
Si Si3 0.195734 0.109387 0.538041
Si Si4 0.563340 0.975383 0.314100
Si Si5 0.230875 0.780859 0.149333
Si Si6 0.500000 0.159196 0.250000
Si Si7 0.500000 0.738570 0.250000
Si Si8 0.786990 0.020551 0.359416
O O1 0.620935 0.684898 0.973515
O O2 0.803901 0.794663 0.848016
O O3 0.448210 0.781858 0.013631
O O4 0.547683 0.776889 0.128357
O O5 0.305047 0.083722 0.790724
O O6 0.191697 0.180451 0.764549
O O7 0.953640 0.098583 0.956367
O O8 0.155687 0.178992 0.606371
O O9 0.398775 0.116943 0.383795
O O10 0.193416 0.054122 0.616429
O O11 0.500000 0.000630 0.250000
O O12 0.694320 0.016879 0.309914
O O13 0.379322 0.955025 0.477876
O O14 0.155558 0.708822 0.195778
O O15 0.000000 0.045850 0.250000
#
# Coordination Sequence:
#
# PCOD9297360 Si02
#       8
#     8   8   8   8   8   4   4   8
#     4  11  23  39  64  91 143 194 242 285 344 418
#     4  12  22  42  70 101 141 192 236 286 367 429
#     4  12  23  41  70 105 143 186 233 296 365 427
#     4  11  27  47  79 110 140 187 241 308 375 439
#     4  12  21  38  65 102 143 188 234 293 348 425
#     4  12  24  34  62 115 150 177 240 300 350 426
#     4  10  24  40  56  91 136 209 242 280 328 424
#     4  11  24  52  81 106 140 185 244 310 376 434
#
# _framework density 25.714427000000001
#
# number of rings (size 3 to 8) (size 9 to 14) (size 15 to 20)
#    0.000    0.571    7.143    1.286    2.000    0.571 
#    0.000    0.000    6.286    0.000    0.000    0.000 
#    0.000    0.000    0.000    0.000    0.000    0.000 
#
# Total GULP energy -156437.478158 kJ/mol
# GULP energy per Si atom -5587.052791 kJ/mol
# Density = 2.565590 g / cm^3
# Si number density = 25.714427 Si / 1000 Ang^3
#
#
#
# Elastic Constant Matrix: (Units=GPa)
#
#
# Indices 1 2 3 4 5 6 
#
# 1 182.0616 33.9008 64.0714 -0.0002 -28.6020 0.0000
# 2 33.9008 50.6398 13.3333 -0.0001 -0.1396 0.0000
# 3 64.0714 13.3333 144.6960 -0.0004 -24.6775 0.0003
# 4 -0.0002 -0.0001 -0.0004 32.1450 0.0003 -8.8180
# 5 -28.6020 -0.1396 -24.6775 0.0003 61.5993 -0.0001
# 6 0.0000 0.0000 0.0003 -8.8180 -0.0001 4.5548
#
#
#
# Elastic Compliance Matrix: (Units=1/GPa)
#
#
# Indices 1 2 3 4 5 6 
#
# 1 0.007599 -0.004414 -0.002531 0.000000 0.002504 0.000001
# 2 -0.004414 0.022835 -0.000526 0.000000 -0.002208 0.000000
# 3 -0.002531 -0.000526 0.008457 0.000000 0.002212 -0.000001
# 4 0.000000 0.000000 0.000000 0.066340 0.000000 0.128432
# 5 0.002504 -0.002208 0.002212 0.000000 0.018278 0.000000
# 6 0.000001 0.000000 -0.000001 0.128432 0.000000 0.468188
#
#
# Mechanical properties :
#
#
# Convention : Reuss Voigt Hill
#
# Bulk Modulus (GPa) = 41.75583 66.66759 54.21171
# Shear Modulus (GPa) = 8.13510 37.39929 22.76720
#
# Velocity S-wave (km/s) = 1.78059 3.81781 2.97877
# Velocity P-wave (km/s) = 4.52779 6.73919 5.74097
#
# Compressibility (1/GPa) = 0.02394875
#
# Stress axis : x y z
#
# Youngs Moduli (GPa) = 131.60379 43.79337 118.23915
#
# Poissons Ratio (x) = 0.19329 0.29925
# Poissons Ratio (y) = 0.58085 0.06225
# Poissons Ratio (z) = 0.33307 0.02305
#
# Static dielectric constant tensor:
#      x y z
#    x 2.116080 0.000000 -0.039200 
#    y 0.000000 2.030060 0.000000 
#    z -0.039200 0.000000 2.090990 
# 
# From -- ./inp_files/148556.got.cif
#   From: 2010.05.17/outbox.cif.g08.bks.cpg/sg15_75_cif.got.tgz:148556.got - 2010.06.03 18:47:42.
