data_PCOD9297250
_publ_section_title
;
Structure prediction by ZEFSAII (Michael W. Deem and Ramdas Pophale) SiO2 
 PCOD9297250
Probable space group: C 2/C
;
_chemical_formula_sum "Si O2"
_cell_formula_units_Z 52
_cell_length_a 25.306447
_cell_length_b 15.579470
_cell_length_c 12.329340
_cell_angle_alpha 90.000000
_cell_angle_beta 31.733351
_cell_angle_gamma 90.000000
_cell_volume 2556.713237
_symmetry_space_group_name_H-M "C 2/C"
_symmetry_group_IT_number 15
_symmetry_cell_setting 'monoclinic'
loop_
_space_group_symop_operation_xyz
x,y,z
-x,y,1/2-z
-x,-y,-z
x,-y,1/2+z
1/2+x,1/2+y,z
1/2-x,1/2+y,1/2-z
1/2-x,1/2-y,-z
1/2+x,1/2-y,1/2+z
loop_
_atom_site_type_symbol
_atom_site_label
_atom_site_fract_x
_atom_site_fract_y
_atom_site_fract_z
Si Si1 0.500000 0.403243 0.250000
Si Si2 0.152300 0.650041 0.823722
Si Si3 0.000000 0.294702 0.250000
Si Si4 0.636519 0.648608 0.950731
Si Si5 0.361711 0.076250 0.883192
Si Si6 0.540144 0.560131 0.325180
Si Si7 0.154677 0.150290 0.315150
Si Si8 0.000000 0.431712 0.750000
O O1 0.545177 0.466532 0.263514
O O2 0.408221 0.352402 0.463580
O O3 0.245384 0.643545 0.745594
O O4 0.164436 0.585944 0.699188
O O5 0.156666 0.749584 0.776692
O O6 0.054072 0.624182 0.062738
O O7 0.914462 0.241351 0.462805
O O8 0.945727 0.351947 0.256220
O O9 0.596186 0.616968 0.137582
O O10 0.576900 0.589037 0.970697
O O11 0.415057 0.991436 0.838750
O O12 0.264590 0.107521 0.120986
O O13 0.592947 0.589710 0.340978
#
# Coordination Sequence:
#
# PCOD9297250 Si02
#       8
#     4   8   4   8   8   8   8   4
#     4  10  24  38  56  98 134 154 200 270 332 360
#     4  12  22  43  65  94 123 169 216 258 313 392
#     4   9  17  36  55  99 114 150 218 271 281 360
#     4   9  17  33  63  89 120 151 206 265 301 352
#     4  11  23  39  67  90 120 174 218 253 311 389
#     4   9  20  37  60  90 121 158 206 260 301 372
#     4  12  22  39  70  93 124 171 214 258 315 381
#     4  11  29  42  61  95 142 158 202 281 337 360
#
# _framework density 20.338612999999999
#
# number of rings (size 3 to 8) (size 9 to 14) (size 15 to 20)
#    0.000    1.846    3.077    3.692    4.308    0.000 
#    0.000    0.000    0.000    2.769    0.000    0.000 
#    0.000    0.000    0.000    0.000    0.000    0.000 
#
# Total GULP energy -144815.059603 kJ/mol
# GULP energy per Si atom -5569.809985 kJ/mol
# Density = 2.029232 g / cm^3
# Si number density = 20.338613 Si / 1000 Ang^3
#
#
#
# Elastic Constant Matrix: (Units=GPa)
#
#
# Indices 1 2 3 4 5 6 
#
# 1 67.3520 20.6086 17.5127 0.0000 -25.4246 0.0000
# 2 20.6086 55.8674 16.7910 0.0000 -3.0737 0.0000
# 3 17.5127 16.7910 106.1641 0.0000 -12.6829 0.0000
# 4 0.0000 0.0000 0.0000 24.2958 0.0000 2.2122
# 5 -25.4246 -3.0737 -12.6829 0.0000 20.4639 0.0000
# 6 0.0000 0.0000 0.0000 2.2122 0.0000 25.8528
#
#
#
# Elastic Compliance Matrix: (Units=1/GPa)
#
#
# Indices 1 2 3 4 5 6 
#
# 1 0.032684 -0.010161 0.000955 0.000000 0.039673 0.000000
# 2 -0.010161 0.021973 -0.003146 0.000000 -0.011274 0.000000
# 3 0.000955 -0.003146 0.010632 0.000000 0.007303 0.000000
# 4 0.000000 0.000000 0.000000 0.041483 0.000000 -0.003550
# 5 0.039673 -0.011274 0.007303 0.000000 0.100990 0.000000
# 6 0.000000 0.000000 0.000000 -0.003550 0.000000 0.038984
#
#
# Mechanical properties :
#
#
# Convention : Reuss Voigt Hill
#
# Bulk Modulus (GPa) = 24.63944 37.68981 31.16463
# Shear Modulus (GPa) = 17.54517 25.75389 21.64953
#
# Velocity S-wave (km/s) = 2.94028 3.56231 3.26614
# Velocity P-wave (km/s) = 4.86497 5.95747 5.43872
#
# Compressibility (1/GPa) = 0.04058535
#
# Stress axis : x y z
#
# Youngs Moduli (GPa) = 30.59570 45.51021 94.05660
#
# Poissons Ratio (x) = 0.46243 -0.08983
# Poissons Ratio (y) = 0.31089 0.29590
# Poissons Ratio (z) = -0.02922 0.14317
#
# Static dielectric constant tensor:
#      x y z
#    x 1.860290 0.000000 0.012270 
#    y 0.000000 1.762340 0.000000 
#    z 0.012270 0.000000 1.746650 
# 
# From -- ./inp_files/123887.got.cif
#   From: 2010.05.17/outbox.cif.g08.bks.cpg/sg15_62_cif.got.tgz:123887.got - 2010.06.03 18:47:42.
