data_PCOD9297375
_publ_section_title
;
Structure prediction by ZEFSAII (Michael W. Deem and Ramdas Pophale) SiO2 
 PCOD9297375
Probable space group: C 2/C
;
_chemical_formula_sum "Si O2"
_cell_formula_units_Z 52
_cell_length_a 16.784188
_cell_length_b 17.834705
_cell_length_c 8.856938
_cell_angle_alpha 90.000000
_cell_angle_beta 54.858775
_cell_angle_gamma 90.000000
_cell_volume 2168.017943
_symmetry_space_group_name_H-M "C 2/C"
_symmetry_group_IT_number 15
_symmetry_cell_setting 'monoclinic'
loop_
_space_group_symop_operation_xyz
x,y,z
-x,y,1/2-z
-x,-y,-z
x,-y,1/2+z
1/2+x,1/2+y,z
1/2-x,1/2+y,1/2-z
1/2-x,1/2-y,-z
1/2+x,1/2-y,1/2+z
loop_
_atom_site_type_symbol
_atom_site_label
_atom_site_fract_x
_atom_site_fract_y
_atom_site_fract_z
Si Si1 0.819545 0.754290 0.774789
Si Si2 0.000000 0.995204 0.750000
Si Si3 0.110546 0.921437 0.366397
Si Si4 0.201950 0.321929 0.646753
Si Si5 0.025875 0.230949 0.899712
Si Si6 0.813732 0.577955 0.780780
Si Si7 0.387688 0.966666 0.912033
O O1 0.769372 0.815966 0.720661
O O2 0.820038 0.665607 0.740104
O O3 0.934937 0.770805 0.614151
O O4 0.750000 0.750000 0.000000
O O5 0.915530 0.046205 0.769311
O O6 0.030580 0.945643 0.575790
O O7 0.101636 0.832934 0.364445
O O8 0.208961 0.947218 0.335368
O O9 0.250000 0.250000 0.500000
O O10 0.092211 0.304079 0.822264
O O11 0.183747 0.399288 0.575038
O O12 0.000000 0.218136 0.750000
O O13 0.841037 0.545669 0.912214
O O14 0.887492 0.536947 0.591234
O O15 0.500000 0.956413 0.750000
#
# Coordination Sequence:
#
# PCOD9297375 Si02
#       7
#     8   4   8   8   8   8   8
#     4  12  29  46  73 113 151 195 252 322 383 441
#     4  10  24  40  62 106 144 180 236 288 378 438
#     4  11  23  41  69 102 141 188 234 303 366 454
#     4  12  23  47  78 108 144 196 258 307 370 461
#     4  12  23  43  76 102 141 191 251 302 368 446
#     4  12  26  49  71 107 147 193 254 304 387 452
#     4  12  27  48  76 108 147 200 255 320 379 453
#
# _framework density 23.985042
#
# number of rings (size 3 to 8) (size 9 to 14) (size 15 to 20)
#    0.000    0.308    5.385    2.769    4.308    3.077 
#    0.000    0.000    0.000    0.000    0.000    0.000 
#    0.000    0.000    0.000    0.000    0.000    0.000 
#
# Total GULP energy -144916.943416 kJ/mol
# GULP energy per Si atom -5573.728593 kJ/mol
# Density = 2.393045 g / cm^3
# Si number density = 23.985042 Si / 1000 Ang^3
#
#
#
# Elastic Constant Matrix: (Units=GPa)
#
#
# Indices 1 2 3 4 5 6 
#
# 1 72.5682 22.2373 13.5688 0.0000 -17.8098 0.0000
# 2 22.2373 68.7183 -12.6332 0.0000 3.8846 0.0000
# 3 13.5688 -12.6332 89.7483 0.0000 -18.6941 0.0000
# 4 0.0000 0.0000 0.0000 28.1681 0.0000 -0.5260
# 5 -17.8098 3.8846 -18.6941 0.0000 37.3456 0.0000
# 6 0.0000 0.0000 0.0000 -0.5260 0.0000 37.6497
#
#
#
# Elastic Compliance Matrix: (Units=1/GPa)
#
#
# Indices 1 2 3 4 5 6 
#
# 1 0.018289 -0.006755 -0.001957 0.000000 0.008445 0.000000
# 2 -0.006755 0.017444 0.002710 0.000000 -0.003679 0.000000
# 3 -0.001957 0.002710 0.012913 0.000000 0.005249 0.000000
# 4 0.000000 0.000000 0.000000 0.035510 0.000000 0.000496
# 5 0.008445 -0.003679 0.005249 0.000000 0.033814 0.000000
# 6 0.000000 0.000000 0.000000 0.000496 0.000000 0.026568
#
#
# Mechanical properties :
#
#
# Convention : Reuss Voigt Hill
#
# Bulk Modulus (GPa) = 27.29072 30.82006 29.05539
# Shear Modulus (GPa) = 29.62858 34.49014 32.05936
#
# Velocity S-wave (km/s) = 3.51849 3.79619 3.65997
# Velocity P-wave (km/s) = 5.28292 5.66501 5.47730
#
# Compressibility (1/GPa) = 0.03664250
#
# Stress axis : x y z
#
# Youngs Moduli (GPa) = 54.67875 57.32472 77.44166
#
# Poissons Ratio (x) = 0.38725 0.15155
# Poissons Ratio (y) = 0.36937 -0.20990
# Poissons Ratio (z) = 0.10700 -0.15538
#
# Static dielectric constant tensor:
#      x y z
#    x 2.318520 0.000000 -0.149340 
#    y 0.000000 1.989040 0.000000 
#    z -0.149340 0.000000 2.085800 
# 
# From -- ./inp_files/50575.got.cif
#   From: 2010.05.17/outbox.cif.g08.bks.cpg/sg15_26_cif.got.tgz:50575.got - 2010.06.03 18:47:42.
