data_PCOD9297392
_publ_section_title
;
Structure prediction by ZEFSAII (Michael W. Deem and Ramdas Pophale) SiO2 
 PCOD9297392
Probable space group: C 2/C
;
_chemical_formula_sum "Si O2"
_cell_formula_units_Z 64
_cell_length_a 7.677295
_cell_length_b 11.567088
_cell_length_c 31.126112
_cell_angle_alpha 90.000000
_cell_angle_beta 97.242729
_cell_angle_gamma 90.000000
_cell_volume 2742.066550
_symmetry_space_group_name_H-M "C 2/C"
_symmetry_group_IT_number 15
_symmetry_cell_setting 'monoclinic'
loop_
_space_group_symop_operation_xyz
x,y,z
-x,y,1/2-z
-x,-y,-z
x,-y,1/2+z
1/2+x,1/2+y,z
1/2-x,1/2+y,1/2-z
1/2-x,1/2-y,-z
1/2+x,1/2-y,1/2+z
loop_
_atom_site_type_symbol
_atom_site_label
_atom_site_fract_x
_atom_site_fract_y
_atom_site_fract_z
Si Si1 0.819446 0.297437 0.046802
Si Si2 0.689588 0.133008 0.118076
Si Si3 0.039711 0.178234 0.856530
Si Si4 0.288596 0.274134 0.928811
Si Si5 0.194820 0.881871 0.272147
Si Si6 0.423420 0.034066 0.043869
Si Si7 0.411390 0.564702 0.354354
Si Si8 0.700973 0.373493 0.742169
O O1 0.740648 0.226702 0.083432
O O2 0.787695 0.432626 0.050500
O O3 0.028858 0.280290 0.052782
O O4 0.750000 0.250000 0.000000
O O5 0.567759 0.201207 0.148311
O O6 0.568130 0.045547 0.086536
O O7 0.877134 0.090685 0.141744
O O8 0.156228 0.184561 0.902975
O O9 0.171261 0.150416 0.821408
O O10 0.903725 0.073343 0.855489
O O11 0.181440 0.346005 0.960488
O O12 0.336710 0.366454 0.892540
O O13 0.239495 0.760226 0.250038
O O14 0.000000 0.905446 0.250000
O O15 0.284513 0.008144 0.265860
O O16 0.500000 0.000000 0.000000
O O17 0.307671 0.603579 0.309041
O O18 0.500000 0.367191 0.750000
#
# Coordination Sequence:
#
# PCOD9297392 Si02
#       8
#     8   8   8   8   8   8   8   8
#     4  11  22  42  61  93 128 165 211 262 318 384
#     4  10  24  40  63  92 124 162 214 264 317 378
#     4  11  21  42  65  91 123 166 212 266 317 384
#     4  10  24  40  65  92 126 168 216 264 327 382
#     4  11  24  43  66  95 130 169 214 267 326 391
#     4  11  22  42  61  93 128 165 211 262 318 384
#     4  11  21  42  65  91 123 166 212 266 317 384
#     4  11  24  43  66  95 130 169 214 267 326 391
#
# _framework density 23.340062
#
# number of rings (size 3 to 8) (size 9 to 14) (size 15 to 20)
#    0.000    1.250    5.000    1.500    1.750    1.500 
#    2.250    0.000    0.000    0.000    0.000    0.000 
#    0.000    0.000    0.000    0.000    0.000    0.000 
#
# Total GULP energy -178684.995139 kJ/mol
# GULP energy per Si atom -5583.906098 kJ/mol
# Density = 2.328694 g / cm^3
# Si number density = 23.340062 Si / 1000 Ang^3
#
#
#
# Elastic Constant Matrix: (Units=GPa)
#
#
# Indices 1 2 3 4 5 6 
#
# 1 42.7977 -1.8245 -5.8587 0.0000 -5.5134 0.0000
# 2 -1.8245 126.8763 28.4200 0.0000 -13.8414 0.0000
# 3 -5.8587 28.4200 76.0677 0.0000 -16.0177 0.0000
# 4 0.0000 0.0000 0.0000 42.4215 0.0000 -8.2122
# 5 -5.5134 -13.8414 -16.0177 0.0000 26.6990 0.0000
# 6 0.0000 0.0000 0.0000 -8.2122 0.0000 61.3316
#
#
#
# Elastic Compliance Matrix: (Units=1/GPa)
#
#
# Indices 1 2 3 4 5 6 
#
# 1 0.024775 0.000416 0.003291 0.000000 0.007306 0.000000
# 2 0.000416 0.008809 -0.002609 0.000000 0.003087 0.000000
# 3 0.003291 -0.002609 0.016291 0.000000 0.009100 0.000000
# 4 0.000000 0.000000 0.000000 0.024200 0.000000 0.003240
# 5 0.007306 0.003087 0.009100 0.000000 0.046024 0.000000
# 6 0.000000 0.000000 0.000000 0.003240 0.000000 0.016739
#
#
# Mechanical properties :
#
#
# Convention : Reuss Voigt Hill
#
# Bulk Modulus (GPa) = 19.20429 31.91282 25.55855
# Shear Modulus (GPa) = 32.89519 41.09075 36.99297
#
# Velocity S-wave (km/s) = 3.75825 4.20041 3.98547
# Velocity P-wave (km/s) = 5.20370 6.10142 5.67035
#
# Compressibility (1/GPa) = 0.05207171
#
# Stress axis : x y z
#
# Youngs Moduli (GPa) = 40.36281 113.52159 61.38464
#
# Poissons Ratio (x) = -0.04724 -0.20203
# Poissons Ratio (y) = -0.01680 0.16015
# Poissons Ratio (z) = -0.13284 0.29617
#
# Static dielectric constant tensor:
#      x y z
#    x 1.861760 0.000000 -0.060610 
#    y 0.000000 1.954210 0.000000 
#    z -0.060610 0.000000 1.932520 
# 
# From -- ./inp_files/307490.got.cif
#   From: 2010.05.17/outbox.cif.g08.bks.cpg/sg15_154_cif.got.tgz:307490.got - 2010.06.03 18:47:42.
