data_PCOD9297830
_publ_section_title
;
Structure prediction by ZEFSAII (Michael W. Deem and Ramdas Pophale) SiO2 
 PCOD9297830
Probable space group: C 2/C
;
_chemical_formula_sum "Si O2"
_cell_formula_units_Z 44
_cell_length_a 22.765264
_cell_length_b 11.126972
_cell_length_c 7.328580
_cell_angle_alpha 90.000000
_cell_angle_beta 90.862681
_cell_angle_gamma 90.000000
_cell_volume 1856.180858
_symmetry_space_group_name_H-M "C 2/C"
_symmetry_group_IT_number 15
_symmetry_cell_setting 'monoclinic'
loop_
_space_group_symop_operation_xyz
x,y,z
-x,y,1/2-z
-x,-y,-z
x,-y,1/2+z
1/2+x,1/2+y,z
1/2-x,1/2+y,1/2-z
1/2-x,1/2-y,-z
1/2+x,1/2-y,1/2+z
loop_
_atom_site_type_symbol
_atom_site_label
_atom_site_fract_x
_atom_site_fract_y
_atom_site_fract_z
Si Si1 0.936180 0.343079 0.542100
Si Si2 0.818839 0.693881 0.815329
Si Si3 0.147459 0.161510 0.523655
Si Si4 0.000000 0.484642 0.250000
Si Si5 0.510122 0.361493 0.964640
Si Si6 0.700122 0.595979 0.903824
O O1 0.877447 0.346111 0.423390
O O2 0.987412 0.397853 0.416542
O O3 0.943505 0.429586 0.714766
O O4 0.960057 0.209998 0.572512
O O5 0.828424 0.732997 0.606487
O O6 0.767808 0.596478 0.841862
O O7 0.802162 0.818014 0.919809
O O8 0.077359 0.167880 0.509535
O O9 0.167463 0.162365 0.734388
O O10 0.171221 0.032436 0.447435
O O11 0.500000 0.340599 0.750000
O O12 0.500000 0.500000 0.000000
#
# Coordination Sequence:
#
# PCOD9297830 Si02
#       6
#     8   8   8   4   8   8
#     4  11  23  46  65 100 133 175 227 275 343 409
#     4  11  24  45  65  95 134 173 230 277 328 412
#     4  12  22  44  67  95 137 170 223 280 345 403
#     4  10  24  42  68  94 134 178 220 272 336 414
#     4  12  24  40  69 103 136 171 222 286 351 409
#     4  11  25  41  66  96 130 178 223 274 337 405
#
# _framework density 23.704585999999999
#
# number of rings (size 3 to 8) (size 9 to 14) (size 15 to 20)
#    0.000    0.727    4.545    2.727    3.818    1.455 
#    0.000    0.000    0.000    0.000    0.000    0.000 
#    0.000    0.000    0.000    0.000    0.000    0.000 
#
# Total GULP energy -123088.530321 kJ/mol
# GULP energy per Si atom -5594.933196 kJ/mol
# Density = 2.365063 g / cm^3
# Si number density = 23.704586 Si / 1000 Ang^3
#
#
#
# Elastic Constant Matrix: (Units=GPa)
#
#
# Indices 1 2 3 4 5 6 
#
# 1 121.0374 10.8908 8.4636 0.0000 16.6794 0.0000
# 2 10.8908 65.3857 2.1898 0.0000 -0.6630 0.0000
# 3 8.4636 2.1898 85.6854 0.0000 -0.6215 0.0000
# 4 0.0000 0.0000 0.0000 33.1297 0.0000 -3.4053
# 5 16.6794 -0.6630 -0.6215 0.0000 36.4805 0.0000
# 6 0.0000 0.0000 0.0000 -3.4053 0.0000 25.2348
#
#
#
# Elastic Compliance Matrix: (Units=1/GPa)
#
#
# Indices 1 2 3 4 5 6 
#
# 1 0.009035 -0.001518 -0.000884 0.000000 -0.004174 0.000000
# 2 -0.001518 0.015565 -0.000241 0.000000 0.000973 0.000000
# 3 -0.000884 -0.000241 0.011768 0.000000 0.000600 0.000000
# 4 0.000000 0.000000 0.000000 0.030609 0.000000 0.004130
# 5 -0.004174 0.000973 0.000600 0.000000 0.029348 0.000000
# 6 0.000000 0.000000 0.000000 0.004130 0.000000 0.040185
#
#
# Mechanical properties :
#
#
# Convention : Reuss Voigt Hill
#
# Bulk Modulus (GPa) = 32.17136 35.02186 33.59661
# Shear Modulus (GPa) = 32.86084 35.67329 34.26707
#
# Velocity S-wave (km/s) = 3.72730 3.88353 3.80621
# Velocity P-wave (km/s) = 5.66788 5.90893 5.78966
#
# Compressibility (1/GPa) = 0.03108354
#
# Stress axis : x y z
#
# Youngs Moduli (GPa) = 110.67524 64.24845 84.97314
#
# Poissons Ratio (x) = 0.09751 0.07511
# Poissons Ratio (y) = 0.16797 0.02046
# Poissons Ratio (z) = 0.09783 0.01547
#
# Static dielectric constant tensor:
#      x y z
#    x 1.909930 0.000000 -0.056640 
#    y 0.000000 1.877460 0.000000 
#    z -0.056640 0.000000 2.078150 
# 
# From -- ./inp_files/54474.got.cif
#   From: 2010.05.17/outbox.cif.g08.bks.cpg/sg15_28_cif.got.tgz:54474.got - 2010.06.03 18:47:42.
