data_PCOD9297241
_publ_section_title
;
Structure prediction by ZEFSAII (Michael W. Deem and Ramdas Pophale) SiO2 
 PCOD9297241
Probable space group: C 2/C
;
_chemical_formula_sum "Si O2"
_cell_formula_units_Z 28
_cell_length_a 18.798307
_cell_length_b 10.054653
_cell_length_c 9.429828
_cell_angle_alpha 90.000000
_cell_angle_beta 37.220820
_cell_angle_gamma 90.000000
_cell_volume 1078.114621
_symmetry_space_group_name_H-M "C 2/C"
_symmetry_group_IT_number 15
_symmetry_cell_setting 'monoclinic'
loop_
_space_group_symop_operation_xyz
x,y,z
-x,y,1/2-z
-x,-y,-z
x,-y,1/2+z
1/2+x,1/2+y,z
1/2-x,1/2+y,1/2-z
1/2-x,1/2-y,-z
1/2+x,1/2-y,1/2+z
loop_
_atom_site_type_symbol
_atom_site_label
_atom_site_fract_x
_atom_site_fract_y
_atom_site_fract_z
Si Si1 0.374836 0.631306 0.910198
Si Si2 0.500000 0.155540 0.750000
Si Si3 0.737443 0.726502 0.853666
Si Si4 0.830457 0.428092 0.960496
O O1 0.500000 0.572402 0.750000
O O2 0.289252 0.558652 0.937941
O O3 0.307746 0.656688 0.163219
O O4 0.387217 0.783875 0.829793
O O5 0.601026 0.251007 0.528594
O O6 0.579655 0.047361 0.707908
O O7 0.794868 0.601088 0.681223
O O8 0.750000 0.750000 0.000000
#
# Coordination Sequence:
#
# PCOD9297241 Si02
#       4
#     8   4   8   8
#     4   9  19  42  62  89 145 172 219 291 328 398
#     4  12  24  44  80  94 140 186 232 270 362 416
#     4  10  24  37  64 110 133 169 232 294 327 401
#     4   9  21  40  64 101 129 186 226 269 351 408
#
# _framework density 25.971267000000001
#
# number of rings (size 3 to 8) (size 9 to 14) (size 15 to 20)
#    1.714    0.571    1.429    0.000    4.000    6.857 
#    0.000    1.429    6.286    0.000    0.000    0.000 
#    0.000    0.000    0.000    0.000    0.000    0.000 
#
# Total GULP energy -78090.326065 kJ/mol
# GULP energy per Si atom -5577.880433 kJ/mol
# Density = 2.591216 g / cm^3
# Si number density = 25.971267 Si / 1000 Ang^3
#
#
#
# Elastic Constant Matrix: (Units=GPa)
#
#
# Indices 1 2 3 4 5 6 
#
# 1 192.0096 -0.1951 63.0137 0.0000 -13.6430 0.0000
# 2 -0.1951 80.4888 -12.6330 0.0000 -3.8921 0.0000
# 3 63.0137 -12.6330 131.1639 0.0000 3.9717 0.0000
# 4 0.0000 0.0000 0.0000 -23.3376 0.0000 -11.4108
# 5 -13.6430 -3.8921 3.9717 0.0000 66.9804 0.0000
# 6 0.0000 0.0000 0.0000 -11.4108 0.0000 23.2141
#
#
#
# Elastic Compliance Matrix: (Units=1/GPa)
#
#
# Indices 1 2 3 4 5 6 
#
# 1 0.006337 -0.000405 -0.003128 0.000000 0.001453 0.000000
# 2 -0.000405 0.012670 0.001398 0.000000 0.000571 0.000000
# 3 -0.003128 0.001398 0.009295 0.000000 -0.001107 0.000000
# 4 0.000000 0.000000 0.000000 -0.034546 0.000000 -0.016981
# 5 0.001453 0.000571 -0.001107 0.000000 0.015324 0.000000
# 6 0.000000 0.000000 0.000000 -0.016981 0.000000 0.034730
#
#
# Mechanical properties :
#
#
# Convention : Reuss Voigt Hill
#
# Bulk Modulus (GPa) = 41.61141 56.00373 48.80757
# Shear Modulus (GPa) = 89.14054 36.93649 63.03851
#
# Velocity S-wave (km/s) = 5.86492 3.77531 4.93205
# Velocity P-wave (km/s) = 7.86892 6.37295 7.16011
#
# Compressibility (1/GPa) = 0.02403187
#
# Stress axis : x y z
#
# Youngs Moduli (GPa) = 157.79604 78.92606 107.58766
#
# Poissons Ratio (x) = 0.03199 0.33649
# Poissons Ratio (y) = 0.06395 -0.15038
# Poissons Ratio (z) = 0.49352 -0.11032
#
# Static dielectric constant tensor:
#      x y z
#    x 2.005970 0.000000 -0.067570 
#    y 0.000000 2.242760 0.000000 
#    z -0.067570 0.000000 1.940080 
# 
# From -- ./inp_files/53977.got.cif
#   From: 2010.05.17/outbox.cif.g08.bks.cpg/sg15_27_cif.got.tgz:53977.got - 2010.06.03 18:47:42.
