data_PCOD9297961
_publ_section_title
;
Structure prediction by ZEFSAII (Michael W. Deem and Ramdas Pophale) SiO2 
 PCOD9297961
Probable space group: C 2/C
;
_chemical_formula_sum "Si O2"
_cell_formula_units_Z 48
_cell_length_a 25.780039
_cell_length_b 11.537704
_cell_length_c 18.452721
_cell_angle_alpha 90.000000
_cell_angle_beta 18.866059
_cell_angle_gamma 90.000000
_cell_volume 1774.784120
_symmetry_space_group_name_H-M "C 2/C"
_symmetry_group_IT_number 15
_symmetry_cell_setting 'monoclinic'
loop_
_space_group_symop_operation_xyz
x,y,z
-x,y,1/2-z
-x,-y,-z
x,-y,1/2+z
1/2+x,1/2+y,z
1/2-x,1/2+y,1/2-z
1/2-x,1/2-y,-z
1/2+x,1/2-y,1/2+z
loop_
_atom_site_type_symbol
_atom_site_label
_atom_site_fract_x
_atom_site_fract_y
_atom_site_fract_z
Si Si1 0.717360 0.542720 0.155182
Si Si2 0.152361 0.618996 0.673265
Si Si3 0.728991 0.888094 0.624515
Si Si4 0.667554 0.736581 0.937953
Si Si5 0.025300 0.876519 0.327891
Si Si6 0.805744 0.327059 0.111788
O O1 0.716009 0.650261 0.210927
O O2 0.564020 0.464394 0.340868
O O3 0.834594 0.445034 0.032083
O O4 0.779246 0.590049 0.996430
O O5 0.111348 0.496961 0.768251
O O6 0.209364 0.825905 0.458211
O O7 0.004004 0.705942 0.854791
O O8 0.877788 0.931531 0.478298
O O9 0.702114 0.765216 0.700748
O O10 0.818094 0.870046 0.430098
O O11 0.719537 0.659085 0.801924
O O12 0.967352 0.744219 0.411708
#
# Coordination Sequence:
#
# PCOD9297961 Si02
#       6
#     8   8   8   8   8   8
#     4  11  25  47  75 104 152 209 253 305 378 470
#     4  11  27  49  75 107 157 205 256 309 377 472
#     4   8  19  43  70 103 141 199 244 308 363 451
#     4  12  29  45  76 115 154 200 254 320 383 451
#     4   8  19  41  70 105 141 196 252 303 369 451
#     4  10  24  42  74 115 151 194 249 326 381 439
#
# _framework density 27.045542000000001
#
# number of rings (size 3 to 8) (size 9 to 14) (size 15 to 20)
#    1.000    1.000    0.000    1.000    7.000    8.000 
#    3.000    0.000    0.000    0.000    0.000    0.000 
#    0.000    0.000    0.000    0.000    0.000    0.000 
#
# Total GULP energy -134135.761401 kJ/mol
# GULP energy per Si atom -5588.990058 kJ/mol
# Density = 2.698399 g / cm^3
# Si number density = 27.045542 Si / 1000 Ang^3
#
#
#
# Elastic Constant Matrix: (Units=GPa)
#
#
# Indices 1 2 3 4 5 6 
#
# 1 135.9282 38.5159 25.9692 0.0000 -2.9983 -0.0001
# 2 38.5159 118.6412 23.7121 0.0001 11.5728 -0.0001
# 3 25.9692 23.7121 68.8585 0.0000 18.1461 0.0000
# 4 0.0000 0.0001 0.0000 28.7136 0.0001 7.7585
# 5 -2.9983 11.5728 18.1461 0.0001 37.0295 -0.0001
# 6 -0.0001 -0.0001 0.0000 7.7585 -0.0001 60.1155
#
#
#
# Elastic Compliance Matrix: (Units=1/GPa)
#
#
# Indices 1 2 3 4 5 6 
#
# 1 0.008753 -0.002492 -0.003255 0.000000 0.003083 0.000000
# 2 -0.002492 0.009834 -0.001818 0.000000 -0.002384 0.000000
# 3 -0.003255 -0.001818 0.018713 0.000000 -0.008865 0.000000
# 4 0.000000 0.000000 0.000000 0.036085 0.000000 -0.004657
# 5 0.003083 -0.002384 -0.008865 0.000000 0.032345 0.000000
# 6 0.000000 0.000000 0.000000 -0.004657 0.000000 0.017236
#
#
# Mechanical properties :
#
#
# Convention : Reuss Voigt Hill
#
# Bulk Modulus (GPa) = 45.10933 55.53582 50.32258
# Shear Modulus (GPa) = 34.36789 40.85375 37.61082
#
# Velocity S-wave (km/s) = 3.56861 3.89080 3.73318
# Velocity P-wave (km/s) = 5.80476 6.38461 6.10158
#
# Compressibility (1/GPa) = 0.02216836
#
# Stress axis : x y z
#
# Youngs Moduli (GPa) = 114.24961 101.69196 53.43966
#
# Poissons Ratio (x) = 0.25337 0.17397
# Poissons Ratio (y) = 0.28466 0.09717
# Poissons Ratio (z) = 0.37193 0.18492
#
# Static dielectric constant tensor:
#      x y z
#    x 2.179920 0.000000 -0.077030 
#    y 0.000000 2.181950 0.000000 
#    z -0.077030 0.000000 2.098400 
# 
# From -- ./inp_files/225601.got.cif
#   From: 2010.05.17/outbox.cif.g08.bks.cpg/sg15_113_cif.got.tgz:225601.got - 2010.06.03 18:47:42.
