data_PCOD9297012
_publ_section_title
;
Structure prediction by ZEFSAII (Michael W. Deem and Ramdas Pophale) SiO2 
 PCOD9297012
Probable space group: C 2/C
;
_chemical_formula_sum "Si O2"
_cell_formula_units_Z 36
_cell_length_a 20.343347
_cell_length_b 7.732612
_cell_length_c 9.678835
_cell_angle_alpha 90.000000
_cell_angle_beta 85.425165
_cell_angle_gamma 90.000000
_cell_volume 1517.699686
_symmetry_space_group_name_H-M "C 2/C"
_symmetry_group_IT_number 15
_symmetry_cell_setting 'monoclinic'
loop_
_space_group_symop_operation_xyz
x,y,z
-x,y,1/2-z
-x,-y,-z
x,-y,1/2+z
1/2+x,1/2+y,z
1/2-x,1/2+y,1/2-z
1/2-x,1/2-y,-z
1/2+x,1/2-y,1/2+z
loop_
_atom_site_type_symbol
_atom_site_label
_atom_site_fract_x
_atom_site_fract_y
_atom_site_fract_z
Si Si1 0.356878 0.977254 0.288225
Si Si2 0.500000 0.097169 0.250000
Si Si3 0.356771 0.589110 0.307803
Si Si4 0.222840 0.427275 0.939349
Si Si5 0.058791 0.883838 0.431578
O O1 0.342803 0.778616 0.246180
O O2 0.313680 0.021549 0.429463
O O3 0.434619 0.992943 0.300939
O O4 0.331702 0.096920 0.168996
O O5 0.523997 0.216253 0.372741
O O6 0.287905 0.495772 0.355912
O O7 0.402590 0.479583 0.199134
O O8 0.392749 0.633060 0.446249
O O9 0.250000 0.250000 0.000000
O O10 0.000000 0.000000 0.500000
#
# Coordination Sequence:
#
# PCOD9297012 Si02
#       5
#     8   4   8   8   8
#     4  11  26  44  75 105 139 185 233 295 344 416
#     4  12  26  42  72 104 144 178 244 284 352 418
#     4  11  25  47  72 100 141 185 236 287 352 417
#     4  10  23  47  69 103 140 175 232 289 349 407
#     4  12  25  46  68 103 143 187 229 288 354 415
#
# _framework density 23.720109999999998
#
# number of rings (size 3 to 8) (size 9 to 14) (size 15 to 20)
#    0.000    0.889    2.222    4.000    6.222    3.556 
#    0.000    6.667    0.000    0.000    0.000    0.000 
#    0.000    0.000    0.000    0.000    0.000    0.000 
#
# Total GULP energy -100756.033739 kJ/mol
# GULP energy per Si atom -5597.557430 kJ/mol
# Density = 2.366612 g / cm^3
# Si number density = 23.720110 Si / 1000 Ang^3
#
#
#
# Elastic Constant Matrix: (Units=GPa)
#
#
# Indices 1 2 3 4 5 6 
#
# 1 159.2725 24.4721 58.9847 0.0000 -3.7740 0.0000
# 2 24.4721 51.9305 28.0842 0.0000 -5.8363 0.0000
# 3 58.9847 28.0842 145.2688 0.0000 -6.2833 0.0000
# 4 0.0000 0.0000 0.0000 30.5172 0.0000 0.1780
# 5 -3.7740 -5.8363 -6.2833 0.0000 48.8441 0.0000
# 6 0.0000 0.0000 0.0000 0.1780 0.0000 29.8319
#
#
#
# Elastic Compliance Matrix: (Units=1/GPa)
#
#
# Indices 1 2 3 4 5 6 
#
# 1 0.007596 -0.002136 -0.002672 0.000000 -0.000012 0.000000
# 2 -0.002136 0.022311 -0.003356 0.000000 0.002069 0.000000
# 3 -0.002672 -0.003356 0.008639 0.000000 0.000504 0.000000
# 4 0.000000 0.000000 0.000000 0.032770 0.000000 -0.000196
# 5 -0.000012 0.002069 0.000504 0.000000 0.020784 0.000000
# 6 0.000000 0.000000 0.000000 -0.000196 0.000000 0.033522
#
#
# Mechanical properties :
#
#
# Convention : Reuss Voigt Hill
#
# Bulk Modulus (GPa) = 45.00949 64.39488 54.70218
# Shear Modulus (GPa) = 33.47688 38.16735 35.82212
#
# Velocity S-wave (km/s) = 3.76084 4.01568 3.89035
# Velocity P-wave (km/s) = 6.15427 6.97908 6.57961
#
# Compressibility (1/GPa) = 0.02221754
#
# Stress axis : x y z
#
# Youngs Moduli (GPa) = 131.64938 44.82126 115.74958
#
# Poissons Ratio (x) = 0.09574 0.30926
# Poissons Ratio (y) = 0.28120 0.38851
# Poissons Ratio (z) = 0.35174 0.15044
#
# Static dielectric constant tensor:
#      x y z
#    x 1.942760 0.000000 -0.008330 
#    y 0.000000 1.938280 0.000000 
#    z -0.008330 0.000000 1.886530 
# 
# From -- ./inp_files/53614.got.cif
#   From: 2010.05.17/outbox.cif.g08.bks.cpg/sg15_27_cif.got.tgz:53614.got - 2010.06.03 18:47:42.
