data_PCOD9297910
_publ_section_title
;
Structure prediction by ZEFSAII (Michael W. Deem and Ramdas Pophale) SiO2 
 PCOD9297910
Probable space group: C 2/C
;
_chemical_formula_sum "Si O2"
_cell_formula_units_Z 36
_cell_length_a 12.314104
_cell_length_b 19.707503
_cell_length_c 8.957126
_cell_angle_alpha 90.000000
_cell_angle_beta 56.688009
_cell_angle_gamma 90.000000
_cell_volume 1816.559287
_symmetry_space_group_name_H-M "C 2/C"
_symmetry_group_IT_number 15
_symmetry_cell_setting 'monoclinic'
loop_
_space_group_symop_operation_xyz
x,y,z
-x,y,1/2-z
-x,-y,-z
x,-y,1/2+z
1/2+x,1/2+y,z
1/2-x,1/2+y,1/2-z
1/2-x,1/2-y,-z
1/2+x,1/2-y,1/2+z
loop_
_atom_site_type_symbol
_atom_site_label
_atom_site_fract_x
_atom_site_fract_y
_atom_site_fract_z
Si Si1 0.000000 0.217644 0.250000
Si Si2 0.132915 0.028867 0.570754
Si Si3 0.666628 0.596722 0.223389
Si Si4 0.922617 0.442894 0.961227
Si Si5 0.947542 0.650845 0.944544
O O1 0.091933 0.167619 0.271866
O O2 0.069292 0.270323 0.084355
O O3 0.139136 0.053869 0.394927
O O4 0.269658 0.046928 0.547872
O O5 0.000000 0.054671 0.750000
O O6 0.131778 0.947809 0.602633
O O7 0.816888 0.616355 0.097923
O O8 0.000000 0.443161 0.750000
O O9 0.000000 0.500000 0.000000
O O10 0.943195 0.369599 0.021020
O O11 0.000000 0.619401 0.750000
#
# Coordination Sequence:
#
# PCOD9297910 Si02
#       5
#     4   8   8   8   8
#     4  10  26  44  70  92 146 186 228 272 354 422
#     4  12  26  41  72 105 143 175 224 301 351 398
#     4  12  24  45  68 103 139 179 232 284 350 410
#     4  12  22  41  70 104 135 173 233 289 340 400
#     4  10  24  42  71  98 131 187 233 278 330 420
#
# _framework density 19.817685999999998
#
# number of rings (size 3 to 8) (size 9 to 14) (size 15 to 20)
#    0.667    0.000    5.556    2.000    3.111    0.000 
#    0.000    2.222    0.000    0.000    0.000    0.000 
#    0.000    0.000    0.000    0.000    0.000    0.000 
#
# Total GULP energy -100318.493492 kJ/mol
# GULP energy per Si atom -5573.249638 kJ/mol
# Density = 1.977258 g / cm^3
# Si number density = 19.817686 Si / 1000 Ang^3
#
#
#
# Elastic Constant Matrix: (Units=GPa)
#
#
# Indices 1 2 3 4 5 6 
#
# 1 110.7413 39.8966 46.4707 0.0000 -11.9068 0.0000
# 2 39.8966 117.3125 53.6248 0.0000 11.6652 0.0000
# 3 46.4707 53.6248 136.8722 0.0000 -3.9086 0.0000
# 4 0.0000 0.0000 0.0000 25.4757 0.0000 2.6932
# 5 -11.9068 11.6652 -3.9086 0.0000 42.2430 0.0000
# 6 0.0000 0.0000 0.0000 2.6932 0.0000 25.1550
#
#
#
# Elastic Compliance Matrix: (Units=1/GPa)
#
#
# Indices 1 2 3 4 5 6 
#
# 1 0.011693 -0.003172 -0.002615 0.000000 0.003930 0.000000
# 2 -0.003172 0.011710 -0.003638 0.000000 -0.004464 0.000000
# 3 -0.002615 -0.003638 0.009653 0.000000 0.001161 0.000000
# 4 0.000000 0.000000 0.000000 0.039703 0.000000 -0.004251
# 5 0.003930 -0.004464 0.001161 0.000000 0.026120 0.000000
# 6 0.000000 0.000000 0.000000 -0.004251 0.000000 0.040209
#
#
# Mechanical properties :
#
#
# Convention : Reuss Voigt Hill
#
# Bulk Modulus (GPa) = 70.39947 71.65669 71.02808
# Shear Modulus (GPa) = 30.73662 33.57032 32.15347
#
# Velocity S-wave (km/s) = 3.94251 4.12024 4.03235
# Velocity P-wave (km/s) = 7.50501 7.67278 7.58936
#
# Compressibility (1/GPa) = 0.01420465
#
# Stress axis : x y z
#
# Youngs Moduli (GPa) = 85.52380 85.39653 103.59987
#
# Poissons Ratio (x) = 0.27088 0.27090
# Poissons Ratio (y) = 0.27128 0.37694
# Poissons Ratio (z) = 0.22364 0.31071
#
# Static dielectric constant tensor:
#      x y z
#    x 1.747030 0.000000 -0.065170 
#    y 0.000000 1.721140 0.000000 
#    z -0.065170 0.000000 1.621480 
# 
# From -- ./inp_files/31287.got.cif
#   From: 2010.05.17/outbox.cif.g08.bks.cpg/sg15_16_cif.got.tgz:31287.got - 2010.06.03 18:47:42.
