data_PCOD9297091
_publ_section_title
;
Structure prediction by ZEFSAII (Michael W. Deem and Ramdas Pophale) SiO2 
 PCOD9297091
Probable space group: C 2/C
;
_chemical_formula_sum "Si O2"
_cell_formula_units_Z 40
_cell_length_a 28.213241
_cell_length_b 5.093744
_cell_length_c 13.293665
_cell_angle_alpha 90.000000
_cell_angle_beta 72.067354
_cell_angle_gamma 90.000000
_cell_volume 1817.635098
_symmetry_space_group_name_H-M "C 2/C"
_symmetry_group_IT_number 15
_symmetry_cell_setting 'monoclinic'
loop_
_space_group_symop_operation_xyz
x,y,z
-x,y,1/2-z
-x,-y,-z
x,-y,1/2+z
1/2+x,1/2+y,z
1/2-x,1/2+y,1/2-z
1/2-x,1/2-y,-z
1/2+x,1/2-y,1/2+z
loop_
_atom_site_type_symbol
_atom_site_label
_atom_site_fract_x
_atom_site_fract_y
_atom_site_fract_z
Si Si1 0.364300 0.106668 0.229103
Si Si2 0.301745 0.385402 0.434219
Si Si3 0.617023 0.558411 0.960364
Si Si4 0.558292 0.952895 0.457140
Si Si5 0.778679 0.750670 0.765077
O O1 0.337666 0.181199 0.349777
O O2 0.257524 0.504229 0.215466
O O3 0.419682 0.000050 0.171172
O O4 0.328989 0.893958 0.197589
O O5 0.250000 0.250000 0.500000
O O6 0.337288 0.496667 0.497433
O O7 0.286637 0.620951 0.368737
O O8 0.576724 0.328173 0.981973
O O9 0.635975 0.628323 0.835905
O O10 0.587690 0.828364 0.003484
O O11 0.500000 0.000000 0.500000
#
# Coordination Sequence:
#
# PCOD9297091 Si02
#       5
#     8   8   8   8   8
#     4  10  26  45  73  99 154 179 250 294 372 420
#     4  12  29  46  74 110 151 195 246 295 373 445
#     4  10  26  47  75 105 145 187 242 303 361 443
#     4  10  23  47  80 102 138 188 242 305 377 423
#     4  12  27  46  71 102 147 200 238 294 361 434
#
# _framework density 22.006616999999999
#
# number of rings (size 3 to 8) (size 9 to 14) (size 15 to 20)
#    1.200    0.000    2.000    1.800   11.200    0.800 
#    0.000    2.000    0.000    0.000    0.000    0.000 
#    0.000    0.000    0.000    0.000    0.000    0.000 
#
# Total GULP energy -111561.044997 kJ/mol
# GULP energy per Si atom -5578.052250 kJ/mol
# Density = 2.195653 g / cm^3
# Si number density = 22.006617 Si / 1000 Ang^3
#
#
#
# Elastic Constant Matrix: (Units=GPa)
#
#
# Indices 1 2 3 4 5 6 
#
# 1 106.7222 38.2208 53.5652 0.0000 -25.7051 0.0000
# 2 38.2208 164.7326 22.9630 0.0000 -9.7850 0.0000
# 3 53.5652 22.9630 92.2711 0.0000 -31.1101 0.0000
# 4 0.0000 0.0000 0.0000 29.7666 0.0000 1.2461
# 5 -25.7051 -9.7850 -31.1101 0.0000 46.3944 0.0000
# 6 0.0000 0.0000 0.0000 1.2461 0.0000 38.2978
#
#
#
# Elastic Compliance Matrix: (Units=1/GPa)
#
#
# Indices 1 2 3 4 5 6 
#
# 1 0.014238 -0.002191 -0.006740 0.000000 0.002907 0.000000
# 2 -0.002191 0.006630 -0.000408 0.000000 -0.000089 0.000000
# 3 -0.006740 -0.000408 0.017526 0.000000 0.007932 0.000000
# 4 0.000000 0.000000 0.000000 0.033640 0.000000 -0.001095
# 5 0.002907 -0.000089 0.007932 0.000000 0.028465 0.000000
# 6 0.000000 0.000000 0.000000 -0.001095 0.000000 0.026147
#
#
# Mechanical properties :
#
#
# Convention : Reuss Voigt Hill
#
# Bulk Modulus (GPa) = 50.72062 65.91376 58.31719
# Shear Modulus (GPa) = 32.91696 39.49022 36.20359
#
# Velocity S-wave (km/s) = 3.87172 4.24071 4.06041
# Velocity P-wave (km/s) = 6.56391 7.34813 6.96706
#
# Compressibility (1/GPa) = 0.01971585
#
# Stress axis : x y z
#
# Youngs Moduli (GPa) = 70.23501 150.81961 57.05740
#
# Poissons Ratio (x) = 0.33048 0.38457
# Poissons Ratio (y) = 0.15390 0.02329
# Poissons Ratio (z) = 0.47338 0.06155
#
# Static dielectric constant tensor:
#      x y z
#    x 1.790970 0.000000 0.002640 
#    y 0.000000 1.867840 0.000000 
#    z 0.002640 0.000000 1.943440 
# 
# From -- ./inp_files/217425.got.cif
#   From: 2010.05.17/outbox.cif.g08.bks.cpg/sg15_109_cif.got.tgz:217425.got - 2010.06.03 18:47:42.
