data_PCOD9297327
_publ_section_title
;
Structure prediction by ZEFSAII (Michael W. Deem and Ramdas Pophale) SiO2 
 PCOD9297327
Probable space group: C 2/C
;
_chemical_formula_sum "Si O2"
_cell_formula_units_Z 60
_cell_length_a 9.238414
_cell_length_b 11.680410
_cell_length_c 22.614787
_cell_angle_alpha 90.000000
_cell_angle_beta 83.918211
_cell_angle_gamma 90.000000
_cell_volume 2426.591945
_symmetry_space_group_name_H-M "C 2/C"
_symmetry_group_IT_number 15
_symmetry_cell_setting 'monoclinic'
loop_
_space_group_symop_operation_xyz
x,y,z
-x,y,1/2-z
-x,-y,-z
x,-y,1/2+z
1/2+x,1/2+y,z
1/2-x,1/2+y,1/2-z
1/2-x,1/2-y,-z
1/2+x,1/2-y,1/2+z
loop_
_atom_site_type_symbol
_atom_site_label
_atom_site_fract_x
_atom_site_fract_y
_atom_site_fract_z
Si Si1 0.000000 0.097968 0.750000
Si Si2 0.270943 0.680937 0.674248
Si Si3 0.470757 0.534806 0.876758
Si Si4 0.604410 0.174898 0.506576
Si Si5 0.411488 0.106258 0.120691
Si Si6 0.062955 0.886669 0.966450
Si Si7 0.972568 0.639187 0.641349
Si Si8 0.202067 0.260351 0.604209
O O1 0.864100 0.170079 0.730419
O O2 0.946507 0.026256 0.808093
O O3 0.366033 0.592827 0.628386
O O4 0.290254 0.805266 0.645965
O O5 0.101374 0.655499 0.682426
O O6 0.479954 0.414082 0.908315
O O7 0.358145 0.630543 0.906365
O O8 0.750000 0.250000 0.500000
O O9 0.601382 0.092827 0.450211
O O10 0.487811 0.273530 0.498740
O O11 0.558823 0.133505 0.573581
O O12 0.560583 0.172332 0.132360
O O13 0.404654 0.985421 0.151648
O O14 0.228067 0.852781 0.944677
O O15 0.000000 0.000000 0.000000
O O16 0.840935 0.729004 0.639465
#
# Coordination Sequence:
#
# PCOD9297327 Si02
#       8
#     4   8   8   8   8   8   8   8
#     4   8  20  42  74  92 126 178 220 280 352 392
#     4   9  19  41  67  92 123 172 215 277 332 399
#     4   9  20  41  69  88 130 173 216 275 341 395
#     4  11  24  38  56  97 132 178 219 259 323 403
#     4  11  22  41  66  87 141 174 211 273 337 392
#     4  11  23  37  65  98 133 175 219 267 335 400
#     4  11  23  38  66  93 134 169 223 268 328 395
#     4  10  24  39  63 101 132 167 226 273 318 404
#
# _framework density 24.726037000000002
#
# number of rings (size 3 to 8) (size 9 to 14) (size 15 to 20)
#    0.800    1.067    1.333    2.800    3.733    4.800 
#    0.000    0.667   17.600    0.000    0.000    0.000 
#    0.000    0.000    0.000    0.000    0.000    0.000 
#
# Total GULP energy -167251.054621 kJ/mol
# GULP energy per Si atom -5575.035154 kJ/mol
# Density = 2.466976 g / cm^3
# Si number density = 24.726037 Si / 1000 Ang^3
#
#
#
# Elastic Constant Matrix: (Units=GPa)
#
#
# Indices 1 2 3 4 5 6 
#
# 1 131.7325 27.2556 17.5374 0.0000 17.8765 0.0000
# 2 27.2556 71.8453 -1.1204 0.0000 -2.8796 0.0000
# 3 17.5374 -1.1204 75.2074 0.0000 14.2591 0.0000
# 4 0.0000 0.0000 0.0000 17.3024 0.0000 3.8019
# 5 17.8765 -2.8796 14.2591 0.0000 36.0448 0.0000
# 6 0.0000 0.0000 0.0000 3.8019 0.0000 24.3289
#
#
#
# Elastic Compliance Matrix: (Units=1/GPa)
#
#
# Indices 1 2 3 4 5 6 
#
# 1 0.009107 -0.003647 -0.001369 0.000000 -0.004266 0.000000
# 2 -0.003647 0.015424 0.000545 0.000000 0.002826 0.000000
# 3 -0.001369 0.000545 0.014581 0.000000 -0.005045 0.000000
# 4 0.000000 0.000000 0.000000 0.059850 0.000000 -0.009353
# 5 -0.004266 0.002826 -0.005045 0.000000 0.032081 0.000000
# 6 0.000000 0.000000 0.000000 -0.009353 0.000000 0.042565
#
#
# Mechanical properties :
#
#
# Convention : Reuss Voigt Hill
#
# Bulk Modulus (GPa) = 33.14752 40.68117 36.91434
# Shear Modulus (GPa) = 25.95952 31.20939 28.58446
#
# Velocity S-wave (km/s) = 3.24371 3.55661 3.40376
# Velocity P-wave (km/s) = 5.24060 5.77533 5.51445
#
# Compressibility (1/GPa) = 0.03016817
#
# Stress axis : x y z
#
# Youngs Moduli (GPa) = 109.80590 64.83332 68.58454
#
# Poissons Ratio (x) = 0.23646 0.09390
# Poissons Ratio (y) = 0.40049 -0.03735
# Poissons Ratio (z) = 0.15033 -0.03530
#
# Static dielectric constant tensor:
#      x y z
#    x 2.683700 0.000000 -0.108680 
#    y 0.000000 1.915680 0.000000 
#    z -0.108680 0.000000 2.135660 
# 
# From -- ./inp_files/288017.got.cif
#   From: 2010.05.17/outbox.cif.g08.bks.cpg/sg15_145_cif.got.tgz:288017.got - 2010.06.03 18:47:42.
