data_PCOD9297379
_publ_section_title
;
Structure prediction by ZEFSAII (Michael W. Deem and Ramdas Pophale) SiO2 
 PCOD9297379
Probable space group: C 2/C
;
_chemical_formula_sum "Si O2"
_cell_formula_units_Z 60
_cell_length_a 17.414564
_cell_length_b 22.655202
_cell_length_c 9.139306
_cell_angle_alpha 90.000000
_cell_angle_beta 123.229237
_cell_angle_gamma 90.000000
_cell_volume 3016.142200
_symmetry_space_group_name_H-M "C 2/C"
_symmetry_group_IT_number 15
_symmetry_cell_setting 'monoclinic'
loop_
_space_group_symop_operation_xyz
x,y,z
-x,y,1/2-z
-x,-y,-z
x,-y,1/2+z
1/2+x,1/2+y,z
1/2-x,1/2+y,1/2-z
1/2-x,1/2-y,-z
1/2+x,1/2-y,1/2+z
loop_
_atom_site_type_symbol
_atom_site_label
_atom_site_fract_x
_atom_site_fract_y
_atom_site_fract_z
Si Si1 0.746227 0.826603 0.154185
Si Si2 0.109692 0.249726 0.848431
Si Si3 0.098446 0.579529 0.469498
Si Si4 0.839086 0.496991 0.712366
Si Si5 0.447589 0.837919 0.947950
Si Si6 0.000000 0.246964 0.250000
Si Si7 0.694461 0.310977 0.955890
Si Si8 0.211088 0.584391 0.096827
O O1 0.833760 0.806094 0.151491
O O2 0.696217 0.886832 0.059800
O O3 0.777462 0.832312 0.353408
O O4 0.668410 0.775754 0.045167
O O5 0.115688 0.301032 0.730233
O O6 0.000000 0.239938 0.750000
O O7 0.105034 0.534807 0.611408
O O8 0.094394 0.543977 0.314542
O O9 0.025141 0.628816 0.436877
O O10 0.793421 0.541053 0.547674
O O11 0.773865 0.455284 0.743035
O O12 0.387658 0.884367 0.977285
O O13 0.491074 0.790281 0.102101
O O14 0.089206 0.206731 0.335457
O O15 0.723067 0.360986 0.870449
O O16 0.750000 0.250000 0.000000
#
# Coordination Sequence:
#
# PCOD9297379 Si02
#       8
#     8   8   8   8   8   4   8   8
#     4  11  22  40  62  88 128 175 211 261 319 381
#     4  11  23  38  61  96 134 170 209 256 325 392
#     4  11  22  40  62  90 129 170 219 267 313 389
#     4  10  24  40  62  93 123 180 220 265 321 380
#     4  12  23  38  62  95 138 172 207 264 326 396
#     4  12  24  40  68  98 132 176 210 266 338 398
#     4  12  23  42  66  96 131 171 220 270 331 393
#     4  11  23  41  64  94 128 173 217 270 322 389
#
# _framework density 19.892961
#
# number of rings (size 3 to 8) (size 9 to 14) (size 15 to 20)
#    0.000    0.800    5.333    2.400    0.000    4.267 
#    0.000    0.000    0.000    0.800    6.933    0.000 
#    0.000    0.000    0.000    0.000    0.000    0.000 
#
# Total GULP energy -167721.351339 kJ/mol
# GULP energy per Si atom -5590.711711 kJ/mol
# Density = 1.984768 g / cm^3
# Si number density = 19.892961 Si / 1000 Ang^3
#
#
#
# Elastic Constant Matrix: (Units=GPa)
#
#
# Indices 1 2 3 4 5 6 
#
# 1 126.8689 66.8123 51.0603 0.0000 5.1448 0.0000
# 2 66.8123 116.1854 45.2790 0.0000 -10.1431 0.0000
# 3 51.0603 45.2790 88.1185 0.0000 -10.7525 0.0000
# 4 0.0000 0.0000 0.0000 32.9581 0.0000 -17.3467
# 5 5.1448 -10.1431 -10.7525 0.0000 34.8954 0.0000
# 6 0.0000 0.0000 0.0000 -17.3467 0.0000 45.4064
#
#
#
# Elastic Compliance Matrix: (Units=1/GPa)
#
#
# Indices 1 2 3 4 5 6 
#
# 1 0.013480 -0.006155 -0.005308 0.000000 -0.005412 0.000000
# 2 -0.006155 0.013647 -0.002962 0.000000 0.003961 0.000000
# 3 -0.005308 -0.002962 0.016559 0.000000 0.005024 0.000000
# 4 0.000000 0.000000 0.000000 0.037978 0.000000 0.014509
# 5 -0.005412 0.003961 0.005024 0.000000 0.032155 0.000000
# 6 0.000000 0.000000 0.000000 0.014509 0.000000 0.027566
#
#
# Mechanical properties :
#
#
# Convention : Reuss Voigt Hill
#
# Bulk Modulus (GPa) = 67.41188 73.05291 70.23239
# Shear Modulus (GPa) = 28.54194 33.85338 31.19766
#
# Velocity S-wave (km/s) = 3.79195 4.12973 3.96444
# Velocity P-wave (km/s) = 7.28922 7.71637 7.50583
#
# Compressibility (1/GPa) = 0.01483418
#
# Stress axis : x y z
#
# Youngs Moduli (GPa) = 74.18669 73.27770 60.38837
#
# Poissons Ratio (x) = 0.45103 0.32056
# Poissons Ratio (y) = 0.45663 0.17889
# Poissons Ratio (z) = 0.39381 0.21707
#
# Static dielectric constant tensor:
#      x y z
#    x 1.688400 0.000000 -0.030900 
#    y 0.000000 1.718160 0.000000 
#    z -0.030900 0.000000 1.752700 
# 
# From -- ./inp_files/50688.got.cif
#   From: 2010.05.17/outbox.cif.g08.bks.cpg/sg15_26_cif.got.tgz:50688.got - 2010.06.03 18:47:42.
