data_PCOD9297440
_publ_section_title
;
Structure prediction by ZEFSAII (Michael W. Deem and Ramdas Pophale) SiO2 
 PCOD9297440
Probable space group: C 2/C
;
_chemical_formula_sum "Si O2"
_cell_formula_units_Z 36
_cell_length_a 16.093786
_cell_length_b 11.135577
_cell_length_c 9.159629
_cell_angle_alpha 90.000000
_cell_angle_beta 103.915476
_cell_angle_gamma 90.000000
_cell_volume 1593.353678
_symmetry_space_group_name_H-M "C 2/C"
_symmetry_group_IT_number 15
_symmetry_cell_setting 'monoclinic'
loop_
_space_group_symop_operation_xyz
x,y,z
-x,y,1/2-z
-x,-y,-z
x,-y,1/2+z
1/2+x,1/2+y,z
1/2-x,1/2+y,1/2-z
1/2-x,1/2-y,-z
1/2+x,1/2-y,1/2+z
loop_
_atom_site_type_symbol
_atom_site_label
_atom_site_fract_x
_atom_site_fract_y
_atom_site_fract_z
Si Si1 0.341070 0.626666 0.646326
Si Si2 0.914942 0.503655 0.797590
Si Si3 0.581285 0.417387 0.004247
Si Si4 0.000000 0.266265 0.250000
Si Si5 0.650715 0.877059 0.971824
O O1 0.360354 0.502065 0.572365
O O2 0.381370 0.741625 0.576951
O O3 0.238993 0.640730 0.594712
O O4 0.376084 0.621013 0.825612
O O5 0.838994 0.434923 0.685207
O O6 0.000000 0.450650 0.750000
O O7 0.925852 0.645045 0.773542
O O8 0.900742 0.515862 0.964168
O O9 0.543274 0.309280 0.894637
O O10 0.500000 0.500000 0.000000
#
# Coordination Sequence:
#
# PCOD9297440 Si02
#       5
#     8   8   8   4   8
#     4  11  26  41  70  94 138 170 214 269 325 391
#     4  10  24  42  68  93 131 168 221 268 317 383
#     4  12  22  44  66  98 129 173 219 269 323 382
#     4  10  24  40  66  98 124 166 226 266 320 378
#     4  11  24  46  63 102 130 174 215 265 331 384
#
# _framework density 22.593855000000001
#
# number of rings (size 3 to 8) (size 9 to 14) (size 15 to 20)
#    0.667    0.444    2.222    3.333    3.111    1.778 
#    0.000    2.222    0.000    0.000    0.000    0.000 
#    0.000    0.000    0.000    0.000    0.000    0.000 
#
# Total GULP energy -100299.697297 kJ/mol
# GULP energy per Si atom -5572.205405 kJ/mol
# Density = 2.254243 g / cm^3
# Si number density = 22.593855 Si / 1000 Ang^3
#
#
#
# Elastic Constant Matrix: (Units=GPa)
#
#
# Indices 1 2 3 4 5 6 
#
# 1 42.8348 7.3932 27.8788 0.0000 13.9620 0.0000
# 2 7.3932 78.1709 28.0109 0.0000 19.8415 0.0000
# 3 27.8788 28.0109 161.8060 0.0000 42.9568 0.0000
# 4 0.0000 0.0000 0.0000 47.4661 0.0000 -1.3699
# 5 13.9620 19.8415 42.9568 0.0000 36.2180 0.0000
# 6 0.0000 0.0000 0.0000 -1.3699 0.0000 28.1667
#
#
#
# Elastic Compliance Matrix: (Units=1/GPa)
#
#
# Indices 1 2 3 4 5 6 
#
# 1 0.027556 0.000293 -0.002825 0.000000 -0.007432 0.000000
# 2 0.000293 0.014902 -0.000632 0.000000 -0.007527 0.000000
# 3 -0.002825 -0.000632 0.009335 0.000000 -0.009636 0.000000
# 4 0.000000 0.000000 0.000000 0.021097 0.000000 0.001026
# 5 -0.007432 -0.007527 -0.009636 0.000000 0.046028 0.000000
# 6 0.000000 0.000000 0.000000 0.001026 0.000000 0.035553
#
#
# Mechanical properties :
#
#
# Convention : Reuss Voigt Hill
#
# Bulk Modulus (GPa) = 21.99559 45.48641 33.74100
# Shear Modulus (GPa) = 28.41632 37.00541 32.71087
#
# Velocity S-wave (km/s) = 3.55026 4.05143 3.80909
# Velocity P-wave (km/s) = 5.15384 6.48547 5.85762
#
# Compressibility (1/GPa) = 0.04546366
#
# Stress axis : x y z
#
# Youngs Moduli (GPa) = 36.28917 67.10616 107.12737
#
# Poissons Ratio (x) = -0.01964 0.30269
# Poissons Ratio (y) = -0.01062 0.06768
# Poissons Ratio (z) = 0.10253 0.04240
#
# Static dielectric constant tensor:
#      x y z
#    x 1.970990 0.000000 -0.009780 
#    y 0.000000 3.558950 0.000000 
#    z -0.009780 0.000000 1.726200 
# 
# From -- ./inp_files/45928.got.cif
#   From: 2010.05.17/outbox.cif.g08.bks.cpg/sg15_23_cif.got.tgz:45928.got - 2010.06.03 18:47:42.
