data_PCOD9297699
_publ_section_title
;
Structure prediction by ZEFSAII (Michael W. Deem and Ramdas Pophale) SiO2 
 PCOD9297699
Probable space group: C 2/C
;
_chemical_formula_sum "Si O2"
_cell_formula_units_Z 60
_cell_length_a 25.323432
_cell_length_b 9.502431
_cell_length_c 27.730956
_cell_angle_alpha 90.000000
_cell_angle_beta 156.455538
_cell_angle_gamma 90.000000
_cell_volume 2665.606722
_symmetry_space_group_name_H-M "C 2/C"
_symmetry_group_IT_number 15
_symmetry_cell_setting 'monoclinic'
loop_
_space_group_symop_operation_xyz
x,y,z
-x,y,1/2-z
-x,-y,-z
x,-y,1/2+z
1/2+x,1/2+y,z
1/2-x,1/2+y,1/2-z
1/2-x,1/2-y,-z
1/2+x,1/2-y,1/2+z
loop_
_atom_site_type_symbol
_atom_site_label
_atom_site_fract_x
_atom_site_fract_y
_atom_site_fract_z
Si Si1 0.903219 0.981212 0.372552
Si Si2 0.848596 0.841677 0.548223
Si Si3 0.585472 0.916853 0.970073
Si Si4 0.298506 0.185527 0.406358
Si Si5 0.873490 0.434469 0.228489
Si Si6 0.141073 0.668163 0.145982
Si Si7 0.000000 0.701335 0.750000
Si Si8 0.131882 0.092533 0.994337
O O1 0.840876 0.826225 0.320999
O O2 0.001098 0.975020 0.408766
O O3 0.779532 0.086115 0.266951
O O4 0.000000 0.000000 0.500000
O O5 0.750000 0.750000 0.500000
O O6 0.847361 0.765924 0.495215
O O7 0.976717 0.805461 0.686185
O O8 0.845353 0.007730 0.536180
O O9 0.502518 0.999874 0.859940
O O10 0.480358 0.897421 0.925815
O O11 0.623000 0.760083 0.985268
O O12 0.707229 0.020249 0.085347
O O13 0.178699 0.289702 0.291237
O O14 0.392812 0.183413 0.439026
O O15 0.899098 0.401755 0.193149
O O16 0.754796 0.546528 0.131188
#
# Coordination Sequence:
#
# PCOD9297699 Si02
#       8
#     8   8   8   8   8   8   4   8
#     4  11  24  42  64  95 141 182 230 288 338 404
#     4  11  22  43  69  99 127 175 234 290 340 419
#     4  11  24  44  66 100 146 181 222 294 353 403
#     4  11  23  40  69  99 132 180 240 279 337 418
#     4  11  24  44  69  99 131 180 231 285 339 417
#     4  11  25  41  66  99 139 189 234 277 346 414
#     4  12  22  42  76  92 128 168 234 284 334 398
#     4  10  24  42  64  95 142 173 223 289 355 401
#
# _framework density 22.508946000000002
#
# number of rings (size 3 to 8) (size 9 to 14) (size 15 to 20)
#    0.000    1.067    4.000    3.600    1.867    8.533 
#    0.000    3.333    0.000    0.000    0.000    0.000 
#    0.000    0.000    0.000    0.000    0.000    0.000 
#
# Total GULP energy -167196.087697 kJ/mol
# GULP energy per Si atom -5573.202923 kJ/mol
# Density = 2.245771 g / cm^3
# Si number density = 22.508946 Si / 1000 Ang^3
#
#
#
# Elastic Constant Matrix: (Units=GPa)
#
#
# Indices 1 2 3 4 5 6 
#
# 1 74.6481 44.9534 9.2556 -0.0002 -15.5452 0.0000
# 2 44.9534 192.4212 48.8204 -0.0006 25.0995 -0.0002
# 3 9.2556 48.8204 41.7635 -0.0014 7.6935 -0.0004
# 4 -0.0002 -0.0006 -0.0014 32.1324 -0.0005 1.3522
# 5 -15.5452 25.0995 7.6935 -0.0005 29.0832 -0.0001
# 6 0.0000 -0.0002 -0.0004 1.3522 -0.0001 35.8559
#
#
#
# Elastic Compliance Matrix: (Units=1/GPa)
#
#
# Indices 1 2 3 4 5 6 
#
# 1 0.021575 -0.007566 0.000773 0.000000 0.017857 0.000000
# 2 -0.007566 0.010591 -0.008699 0.000000 -0.010883 0.000000
# 3 0.000773 -0.008699 0.034147 0.000001 -0.001112 0.000000
# 4 0.000000 0.000000 0.000001 0.031171 0.000001 -0.001176
# 5 0.017857 -0.010883 -0.001112 0.000001 0.053616 0.000000
# 6 0.000000 0.000000 0.000000 -0.001176 0.000000 0.027934
#
#
# Mechanical properties :
#
#
# Convention : Reuss Voigt Hill
#
# Bulk Modulus (GPa) = 28.30476 57.21018 42.75747
# Shear Modulus (GPa) = 22.54348 33.13453 27.83900
#
# Velocity S-wave (km/s) = 3.16814 3.84091 3.52063
# Velocity P-wave (km/s) = 5.09755 6.71877 5.96351
#
# Compressibility (1/GPa) = 0.03532975
#
# Stress axis : x y z
#
# Youngs Moduli (GPa) = 46.34965 94.41781 29.28509
#
# Poissons Ratio (x) = 0.71435 -0.02265
# Poissons Ratio (y) = 0.35067 0.25476
# Poissons Ratio (z) = -0.03584 0.82137
#
# Static dielectric constant tensor:
#      x y z
#    x 1.894080 0.000000 0.070610 
#    y 0.000000 1.808700 0.000000 
#    z 0.070610 0.000000 2.256730 
# 
# From -- ./inp_files/302071.got.cif
#   From: 2010.05.17/outbox.cif.g08.bks.cpg/sg15_152_cif.got.tgz:302071.got - 2010.06.03 18:47:42.
