data_PCOD9297484
_publ_section_title
;
Structure prediction by ZEFSAII (Michael W. Deem and Ramdas Pophale) SiO2 
 PCOD9297484
Probable space group: C 2/C
;
_chemical_formula_sum "Si O2"
_cell_formula_units_Z 52
_cell_length_a 4.906125
_cell_length_b 27.041016
_cell_length_c 19.208446
_cell_angle_alpha 90.000000
_cell_angle_beta 117.267946
_cell_angle_gamma 90.000000
_cell_volume 2265.133974
_symmetry_space_group_name_H-M "C 2/C"
_symmetry_group_IT_number 15
_symmetry_cell_setting 'monoclinic'
loop_
_space_group_symop_operation_xyz
x,y,z
-x,y,1/2-z
-x,-y,-z
x,-y,1/2+z
1/2+x,1/2+y,z
1/2-x,1/2+y,1/2-z
1/2-x,1/2-y,-z
1/2+x,1/2-y,1/2+z
loop_
_atom_site_type_symbol
_atom_site_label
_atom_site_fract_x
_atom_site_fract_y
_atom_site_fract_z
Si Si1 0.202707 0.072300 0.668769
Si Si2 0.149122 0.988006 0.943674
Si Si3 0.433293 0.642572 0.538320
Si Si4 0.750558 0.123194 0.061713
Si Si5 0.190204 0.275454 0.119798
Si Si6 0.000000 0.153387 0.750000
Si Si7 0.228184 0.214181 0.341788
O O1 0.500000 0.060287 0.750000
O O2 0.048630 0.115916 0.694059
O O3 0.200874 0.104442 0.597360
O O4 0.000790 0.024505 0.630597
O O5 0.103406 0.931012 0.917288
O O6 0.500000 0.000000 0.000000
O O7 0.000000 0.000000 0.000000
O O8 0.579360 0.653421 0.480421
O O9 0.302947 0.689476 0.568369
O O10 0.111665 0.613916 0.493884
O O11 0.767689 0.158296 0.130518
O O12 0.234716 0.310903 0.192686
O O13 0.443197 0.232576 0.146009
O O14 0.875567 0.248586 0.104217
O O15 0.000000 0.219519 0.250000
#
# Coordination Sequence:
#
# PCOD9297484 Si02
#       7
#     8   8   8   8   8   4   8
#     4  11  26  42  75 110 139 174 242 303 356 414
#     4  12  25  49  72 100 142 189 230 288 366 420
#     4  11  25  43  73 106 140 179 236 288 366 418
#     4  12  25  47  71  99 142 196 228 289 350 440
#     4  11  24  41  71  99 143 181 230 298 352 409
#     4  10  24  40  70 106 138 174 234 300 364 400
#     4  12  25  45  66 101 141 190 240 282 346 421
#
# _framework density 22.956699
#
# number of rings (size 3 to 8) (size 9 to 14) (size 15 to 20)
#    0.000    0.615    4.615    1.846   10.769    3.692 
#    1.385    1.538    0.000    0.000    0.000    0.000 
#    0.000    0.000    0.000    0.000    0.000    0.000 
#
# Total GULP energy -144973.607738 kJ/mol
# GULP energy per Si atom -5575.907990 kJ/mol
# Density = 2.290445 g / cm^3
# Si number density = 22.956699 Si / 1000 Ang^3
#
#
#
# Elastic Constant Matrix: (Units=GPa)
#
#
# Indices 1 2 3 4 5 6 
#
# 1 102.0806 25.2453 28.1779 0.0000 10.1121 0.0000
# 2 25.2453 162.5863 51.9805 0.0000 -3.5910 0.0000
# 3 28.1779 51.9805 68.5507 0.0000 5.0765 0.0000
# 4 0.0000 0.0000 0.0000 40.2694 0.0000 -5.4402
# 5 10.1121 -3.5910 5.0765 0.0000 30.1270 0.0000
# 6 0.0000 0.0000 0.0000 -5.4402 0.0000 20.6956
#
#
#
# Elastic Compliance Matrix: (Units=1/GPa)
#
#
# Indices 1 2 3 4 5 6 
#
# 1 0.011357 -0.000551 -0.004014 0.000000 -0.003201 0.000000
# 2 -0.000551 0.008270 -0.006209 0.000000 0.002217 0.000000
# 3 -0.004014 -0.006209 0.021165 0.000000 -0.002959 0.000000
# 4 0.000000 0.000000 0.000000 0.025747 0.000000 0.006768
# 5 -0.003201 0.002217 -0.002959 0.000000 0.035030 0.000000
# 6 0.000000 0.000000 0.000000 0.006768 0.000000 0.050098
#
#
# Mechanical properties :
#
#
# Convention : Reuss Voigt Hill
#
# Bulk Modulus (GPa) = 51.96012 60.44721 56.20366
# Shear Modulus (GPa) = 27.83501 33.40599 30.62050
#
# Velocity S-wave (km/s) = 3.48588 3.81881 3.65614
# Velocity P-wave (km/s) = 6.23577 6.76998 6.50836
#
# Compressibility (1/GPa) = 0.01924553
#
# Stress axis : x y z
#
# Youngs Moduli (GPa) = 88.04755 120.91760 47.24863
#
# Poissons Ratio (x) = 0.06663 0.18964
# Poissons Ratio (y) = 0.04852 0.29335
# Poissons Ratio (z) = 0.35339 0.75074
#
# Static dielectric constant tensor:
#      x y z
#    x 1.763600 0.000000 0.097960 
#    y 0.000000 2.097900 0.000000 
#    z 0.097960 0.000000 1.841600 
# 
# From -- ./inp_files/228644.got.cif
#   From: 2010.05.17/outbox.cif.g08.bks.cpg/sg15_115_cif.got.tgz:228644.got - 2010.06.03 18:47:42.
