data_PCOD9297266
_publ_section_title
;
Structure prediction by ZEFSAII (Michael W. Deem and Ramdas Pophale) SiO2 
 PCOD9297266
Probable space group: C 2/C
;
_chemical_formula_sum "Si O2"
_cell_formula_units_Z 44
_cell_length_a 15.431755
_cell_length_b 5.639198
_cell_length_c 24.536611
_cell_angle_alpha 90.000000
_cell_angle_beta 75.442794
_cell_angle_gamma 90.000000
_cell_volume 2066.695344
_symmetry_space_group_name_H-M "C 2/C"
_symmetry_group_IT_number 15
_symmetry_cell_setting 'monoclinic'
loop_
_space_group_symop_operation_xyz
x,y,z
-x,y,1/2-z
-x,-y,-z
x,-y,1/2+z
1/2+x,1/2+y,z
1/2-x,1/2+y,1/2-z
1/2-x,1/2-y,-z
1/2+x,1/2-y,1/2+z
loop_
_atom_site_type_symbol
_atom_site_label
_atom_site_fract_x
_atom_site_fract_y
_atom_site_fract_z
Si Si1 0.056865 0.245554 0.051788
Si Si2 0.500000 0.388959 0.750000
Si Si3 0.117473 0.627519 0.652429
Si Si4 0.337834 0.271782 0.289148
Si Si5 0.791037 0.357190 0.676937
Si Si6 0.551235 0.248640 0.428823
O O1 0.001211 0.494967 0.064981
O O2 0.126037 0.281624 0.090108
O O3 0.004907 0.994433 0.069180
O O4 0.090062 0.236149 0.984322
O O5 0.527671 0.233961 0.693519
O O6 0.588736 0.541671 0.744406
O O7 0.112933 0.352643 0.668028
O O8 0.205250 0.701266 0.672769
O O9 0.247253 0.381115 0.327816
O O10 0.311945 0.141489 0.237629
O O11 0.873687 0.273292 0.628690
#
# Coordination Sequence:
#
# PCOD9297266 Si02
#       6
#     8   4   8   8   8   8
#     4  10  24  45  68  98 124 169 230 267 324 386
#     4  10  24  38  62  90 122 178 216 270 326 388
#     4  11  24  39  62  93 129 169 217 273 321 399
#     4  11  23  40  57  97 128 169 217 265 333 395
#     4  11  24  39  63  91 134 170 211 268 332 387
#     4  10  24  45  71  93 128 173 217 278 323 384
#
# _framework density 21.290029000000001
#
# number of rings (size 3 to 8) (size 9 to 14) (size 15 to 20)
#    0.000    1.455    1.818    1.636   12.727    0.727 
#    0.000    0.909    0.000    0.000    0.000    0.000 
#    0.000    0.000    0.000    0.000    0.000    0.000 
#
# Total GULP energy -122543.733239 kJ/mol
# GULP energy per Si atom -5570.169693 kJ/mol
# Density = 2.124157 g / cm^3
# Si number density = 21.290029 Si / 1000 Ang^3
#
#
#
# Elastic Constant Matrix: (Units=GPa)
#
#
# Indices 1 2 3 4 5 6 
#
# 1 30.3169 17.3082 26.3223 0.0001 13.8938 0.0003
# 2 17.3082 95.4260 33.5270 0.0004 8.5573 0.0004
# 3 26.3223 33.5270 113.0821 0.0001 20.3345 -0.0001
# 4 0.0001 0.0004 0.0001 22.6187 0.0000 -2.4189
# 5 13.8938 8.5573 20.3345 0.0000 25.2118 0.0002
# 6 0.0003 0.0004 -0.0001 -2.4189 0.0002 8.0364
#
#
#
# Elastic Compliance Matrix: (Units=1/GPa)
#
#
# Indices 1 2 3 4 5 6 
#
# 1 0.051380 -0.005084 -0.006633 0.000000 -0.021239 -0.000001
# 2 -0.005084 0.012242 -0.002576 0.000000 0.000725 0.000000
# 3 -0.006633 -0.002576 0.012090 0.000000 -0.005221 0.000001
# 4 0.000000 0.000000 0.000000 0.045682 0.000000 0.013750
# 5 -0.021239 0.000725 -0.005221 0.000000 0.055333 -0.000001
# 6 -0.000001 0.000000 0.000001 0.013750 -0.000001 0.128572
#
#
# Mechanical properties :
#
#
# Convention : Reuss Voigt Hill
#
# Bulk Modulus (GPa) = 21.22049 43.68222 32.45135
# Shear Modulus (GPa) = 14.30227 21.95122 18.12675
#
# Velocity S-wave (km/s) = 2.59469 3.21449 2.92107
# Velocity P-wave (km/s) = 4.35494 5.85999 5.16261
#
# Compressibility (1/GPa) = 0.04712427
#
# Stress axis : x y z
#
# Youngs Moduli (GPa) = 19.46277 81.68836 82.71393
#
# Poissons Ratio (x) = 0.41531 0.54867
# Poissons Ratio (y) = 0.09895 0.21310
# Poissons Ratio (z) = 0.12910 0.21045
#
# Static dielectric constant tensor:
#      x y z
#    x 1.754900 0.000000 0.043020 
#    y 0.000000 2.034220 0.000000 
#    z 0.043020 0.000000 1.730640 
# 
# From -- ./inp_files/271859.got.cif
#   From: 2010.05.17/outbox.cif.g08.bks.cpg/sg15_136_cif.got.tgz:271859.got - 2010.06.03 18:47:42.
