data_PCOD9297538
_publ_section_title
;
Structure prediction by ZEFSAII (Michael W. Deem and Ramdas Pophale) SiO2 
 PCOD9297538
Probable space group: C 2/C
;
_chemical_formula_sum "Si O2"
_cell_formula_units_Z 56
_cell_length_a 18.149966
_cell_length_b 16.905177
_cell_length_c 9.017555
_cell_angle_alpha 90.000000
_cell_angle_beta 74.149236
_cell_angle_gamma 90.000000
_cell_volume 2661.636507
_symmetry_space_group_name_H-M "C 2/C"
_symmetry_group_IT_number 15
_symmetry_cell_setting 'monoclinic'
loop_
_space_group_symop_operation_xyz
x,y,z
-x,y,1/2-z
-x,-y,-z
x,-y,1/2+z
1/2+x,1/2+y,z
1/2-x,1/2+y,1/2-z
1/2-x,1/2-y,-z
1/2+x,1/2-y,1/2+z
loop_
_atom_site_type_symbol
_atom_site_label
_atom_site_fract_x
_atom_site_fract_y
_atom_site_fract_z
Si Si1 0.786253 0.437607 0.093865
Si Si2 0.390269 0.347102 0.071508
Si Si3 0.962721 0.427229 0.931678
Si Si4 0.831930 0.827258 0.779146
Si Si5 0.474458 0.762041 0.095173
Si Si6 0.812672 0.017186 0.131282
Si Si7 0.726699 0.273075 0.178104
O O1 0.765003 0.497429 0.235672
O O2 0.774128 0.353097 0.178110
O O3 0.870866 0.441042 0.982178
O O4 0.719157 0.451912 0.008619
O O5 0.368648 0.440500 0.095324
O O6 0.358038 0.301772 0.233694
O O7 0.343707 0.322896 0.947804
O O8 0.473795 0.310828 0.994480
O O9 0.000000 0.426111 0.750000
O O10 0.978589 0.342217 0.999596
O O11 0.000000 0.500000 0.000000
O O12 0.888985 0.769702 0.660632
O O13 0.850302 0.913485 0.705943
O O14 0.748955 0.798684 0.772838
O O15 0.500000 0.779124 0.250000
O O16 0.750000 0.250000 0.000000
#
# Coordination Sequence:
#
# PCOD9297538 Si02
#       7
#     8   8   8   8   8   8   8
#     4  11  23  41  62  96 127 165 220 268 323 387
#     4  10  24  41  62  96 129 176 217 265 330 393
#     4  12  26  44  66  96 133 176 216 270 334 391
#     4  11  21  42  65  93 129 171 213 277 327 391
#     4  10  24  44  66  92 135 174 221 264 331 399
#     4  11  22  40  68  94 130 167 220 271 327 382
#     4  11  22  37  65  92 126 164 216 273 317 379
#
# _framework density 21.039688000000002
#
# number of rings (size 3 to 8) (size 9 to 14) (size 15 to 20)
#    0.000    1.143    4.286    1.714    2.000    1.714 
#    2.571    0.000    0.000    0.000    0.000    0.000 
#    0.000    0.000    0.000    0.000    0.000    0.000 
#
# Total GULP energy -156170.953642 kJ/mol
# GULP energy per Si atom -5577.534059 kJ/mol
# Density = 2.099180 g / cm^3
# Si number density = 21.039688 Si / 1000 Ang^3
#
#
#
# Elastic Constant Matrix: (Units=GPa)
#
#
# Indices 1 2 3 4 5 6 
#
# 1 32.2602 18.3660 5.5306 0.0000 -9.1911 0.0000
# 2 18.3660 120.2769 34.4600 0.0000 -10.3403 0.0000
# 3 5.5306 34.4600 98.7977 0.0000 -16.3214 0.0000
# 4 0.0000 0.0000 0.0000 42.1276 0.0000 -1.5632
# 5 -9.1911 -10.3403 -16.3214 0.0000 19.4414 0.0000
# 6 0.0000 0.0000 0.0000 -1.5632 0.0000 19.5880
#
#
#
# Elastic Compliance Matrix: (Units=1/GPa)
#
#
# Indices 1 2 3 4 5 6 
#
# 1 0.038477 -0.005086 0.002529 0.000000 0.017608 0.000000
# 2 -0.005086 0.010021 -0.003166 0.000000 0.000267 0.000000
# 3 0.002529 -0.003166 0.012776 0.000000 0.010237 0.000000
# 4 0.000000 0.000000 0.000000 0.023808 0.000000 0.001900
# 5 0.017608 0.000267 0.010237 0.000000 0.068497 0.000000
# 6 0.000000 0.000000 0.000000 0.001900 0.000000 0.051203
#
#
# Mechanical properties :
#
#
# Convention : Reuss Voigt Hill
#
# Bulk Modulus (GPa) = 20.06974 40.89423 30.48199
# Shear Modulus (GPa) = 21.47423 29.09662 25.28542
#
# Velocity S-wave (km/s) = 3.19823 3.72282 3.47045
# Velocity P-wave (km/s) = 4.81643 6.16102 5.52974
#
# Compressibility (1/GPa) = 0.04982624
#
# Stress axis : x y z
#
# Youngs Moduli (GPa) = 25.98980 99.79115 78.27375
#
# Poissons Ratio (x) = 0.50754 -0.19795
# Poissons Ratio (y) = 0.13219 0.24785
# Poissons Ratio (z) = -0.06573 0.31598
#
# Static dielectric constant tensor:
#      x y z
#    x 1.900870 0.000000 0.031530 
#    y 0.000000 1.884080 0.000000 
#    z 0.031530 0.000000 1.767670 
# 
# From -- ./inp_files/48986.got.cif
#   From: 2010.05.17/outbox.cif.g08.bks.cpg/sg15_25_cif.got.tgz:48986.got - 2010.06.03 18:47:42.
