data_PCOD9297729
_publ_section_title
;
Structure prediction by ZEFSAII (Michael W. Deem and Ramdas Pophale) SiO2 
 PCOD9297729
Probable space group: C 2/C
;
_chemical_formula_sum "Si O2"
_cell_formula_units_Z 28
_cell_length_a 17.915851
_cell_length_b 4.869352
_cell_length_c 15.322665
_cell_angle_alpha 90.000000
_cell_angle_beta 46.203194
_cell_angle_gamma 90.000000
_cell_volume 964.848401
_symmetry_space_group_name_H-M "C 2/C"
_symmetry_group_IT_number 15
_symmetry_cell_setting 'monoclinic'
loop_
_space_group_symop_operation_xyz
x,y,z
-x,y,1/2-z
-x,-y,-z
x,-y,1/2+z
1/2+x,1/2+y,z
1/2-x,1/2+y,1/2-z
1/2-x,1/2-y,-z
1/2+x,1/2-y,1/2+z
loop_
_atom_site_type_symbol
_atom_site_label
_atom_site_fract_x
_atom_site_fract_y
_atom_site_fract_z
Si Si1 0.934843 0.943212 0.441756
Si Si2 0.361752 0.244123 0.769646
Si Si3 0.250000 0.250000 0.000000
Si Si4 0.858628 0.435024 0.591003
O O1 0.838581 0.021986 0.459787
O O2 0.904129 0.131441 0.551727
O O3 0.040526 0.063223 0.318739
O O4 0.932078 0.632086 0.475941
O O5 0.250742 0.408689 0.872563
O O6 0.343283 0.065219 0.697760
O O7 0.348495 0.077785 0.868360
#
# Coordination Sequence:
#
# PCOD9297729 Si02
#       4
#     8   8   4   8
#     4  11  25  45  70 100 134 178 223 279 334 392
#     4  11  23  45  69 100 139 175 222 281 334 396
#     4  10  24  42  66 100 134 174 218 266 334 400
#     4  11  25  43  71 100 130 176 231 274 330 400
#
# _framework density 29.020105000000001
#
# number of rings (size 3 to 8) (size 9 to 14) (size 15 to 20)
#    0.000    1.143    0.000    6.000    0.000   11.429 
#    0.000    5.714    0.000    0.000    0.000    0.000 
#    0.000    0.000    0.000    0.000    0.000    0.000 
#
# Total GULP energy -78132.413651 kJ/mol
# GULP energy per Si atom -5580.886689 kJ/mol
# Density = 2.895405 g / cm^3
# Si number density = 29.020105 Si / 1000 Ang^3
#
#
#
# Elastic Constant Matrix: (Units=GPa)
#
#
# Indices 1 2 3 4 5 6 
#
# 1 103.8275 36.8639 29.7793 0.0148 4.3775 0.0093
# 2 36.8639 116.8596 28.8235 0.0308 0.7122 0.0748
# 3 29.7793 28.8235 193.1836 0.0003 -17.5836 0.0059
# 4 0.0148 0.0308 0.0003 30.3111 -0.0019 -1.3349
# 5 4.3775 0.7122 -17.5836 -0.0019 61.4345 0.0029
# 6 0.0093 0.0748 0.0059 -1.3349 0.0029 48.3168
#
#
#
# Elastic Compliance Matrix: (Units=1/GPa)
#
#
# Indices 1 2 3 4 5 6 
#
# 1 0.011202 -0.003192 -0.001355 -0.000002 -0.001149 0.000003
# 2 -0.003192 0.009809 -0.000987 -0.000009 -0.000169 -0.000015
# 3 -0.001355 -0.000987 0.005691 0.000002 0.001737 0.000001
# 4 -0.000002 -0.000009 0.000002 0.033031 0.000002 0.000913
# 5 -0.001149 -0.000169 0.001737 0.000002 0.016858 -0.000001
# 6 0.000003 -0.000015 0.000001 0.000913 -0.000001 0.020722
#
#
# Mechanical properties :
#
#
# Convention : Reuss Voigt Hill
#
# Bulk Modulus (GPa) = 63.96795 67.20047 65.58421
# Shear Modulus (GPa) = 44.01695 49.23940 46.62817
#
# Velocity S-wave (km/s) = 3.89880 4.12361 4.01278
# Velocity P-wave (km/s) = 6.50831 6.77341 6.64218
#
# Compressibility (1/GPa) = 0.01563283
#
# Stress axis : x y z
#
# Youngs Moduli (GPa) = 89.27023 101.94957 175.72831
#
# Poissons Ratio (x) = 0.32547 0.23812
# Poissons Ratio (y) = 0.28499 0.17340
# Poissons Ratio (z) = 0.12096 0.10060
#
# Static dielectric constant tensor:
#      x y z
#    x 0.701940 -0.000090 -1.675570 
#    y -0.000090 1.913140 -0.000020 
#    z -1.675570 -0.000020 0.430730 
# 
# From -- ./inp_files/158129.got.cif
#   From: 2010.05.17/outbox.cif.g08.bks.cpg/sg15_80_cif.got.tgz:158129.got - 2010.06.03 18:47:42.
