data_PCOD9297653
_publ_section_title
;
Structure prediction by ZEFSAII (Michael W. Deem and Ramdas Pophale) SiO2 
 PCOD9297653
Probable space group: C 2/C
;
_chemical_formula_sum "Si O2"
_cell_formula_units_Z 56
_cell_length_a 23.770432
_cell_length_b 13.485503
_cell_length_c 7.892262
_cell_angle_alpha 90.000000
_cell_angle_beta 107.552553
_cell_angle_gamma 90.000000
_cell_volume 2412.122844
_symmetry_space_group_name_H-M "C 2/C"
_symmetry_group_IT_number 15
_symmetry_cell_setting 'monoclinic'
loop_
_space_group_symop_operation_xyz
x,y,z
-x,y,1/2-z
-x,-y,-z
x,-y,1/2+z
1/2+x,1/2+y,z
1/2-x,1/2+y,1/2-z
1/2-x,1/2-y,-z
1/2+x,1/2-y,1/2+z
loop_
_atom_site_type_symbol
_atom_site_label
_atom_site_fract_x
_atom_site_fract_y
_atom_site_fract_z
Si Si1 0.000000 0.056396 0.250000
Si Si2 0.914020 0.397886 0.390204
Si Si3 0.709852 0.961885 0.337412
Si Si4 0.000000 0.538550 0.250000
Si Si5 0.285738 0.836758 0.803691
Si Si6 0.912816 0.046549 0.428110
Si Si7 0.332948 0.631360 0.868442
Si Si8 0.845447 0.201365 0.260398
O O1 0.956922 0.106493 0.342706
O O2 0.044101 0.987214 0.389769
O O3 0.849730 0.449713 0.327893
O O4 0.955984 0.464209 0.309041
O O5 0.891004 0.291283 0.307310
O O6 0.954459 0.397187 0.595221
O O7 0.704087 0.898289 0.508683
O O8 0.769475 0.922337 0.302807
O O9 0.716525 0.081424 0.345942
O O10 0.330445 0.746215 0.809030
O O11 0.223579 0.779712 0.773897
O O12 0.880836 0.945162 0.339556
O O13 0.862284 0.123615 0.421572
O O14 0.346854 0.643850 0.082400
#
# Coordination Sequence:
#
# PCOD9297653 Si02
#       8
#     4   8   8   4   8   8   8   8
#     4  10  24  42  60  92 126 184 214 264 324 386
#     4  11  22  45  68  96 131 177 223 276 326 399
#     4  11  21  39  71  97 134 164 218 274 338 393
#     4  10  26  44  68  94 136 178 232 278 320 374
#     4  11  22  40  67 106 129 175 210 273 349 407
#     4  11  22  42  67  93 136 170 224 272 327 396
#     4  11  21  41  68 101 130 177 214 270 344 404
#     4  11  21  39  70  98 132 171 216 273 338 402
#
# _framework density 23.216065
#
# number of rings (size 3 to 8) (size 9 to 14) (size 15 to 20)
#    0.000    1.143    5.714    1.714    0.000    1.143 
#    0.000    3.571    0.000    0.000    0.000    0.000 
#    0.000    0.000    0.000    0.000    0.000    0.000 
#
# Total GULP energy -155923.889428 kJ/mol
# GULP energy per Si atom -5568.710337 kJ/mol
# Density = 2.316322 g / cm^3
# Si number density = 23.216065 Si / 1000 Ang^3
#
#
#
# Elastic Constant Matrix: (Units=GPa)
#
#
# Indices 1 2 3 4 5 6 
#
# 1 116.9137 41.7410 49.5243 0.0000 31.1367 0.0000
# 2 41.7410 118.6600 20.1664 0.0000 15.1444 0.0000
# 3 49.5243 20.1664 67.0344 0.0000 37.6498 0.0000
# 4 0.0000 0.0000 0.0000 44.4826 0.0000 14.0979
# 5 31.1367 15.1444 37.6498 0.0000 38.3918 0.0000
# 6 0.0000 0.0000 0.0000 14.0979 0.0000 34.8776
#
#
#
# Elastic Compliance Matrix: (Units=1/GPa)
#
#
# Indices 1 2 3 4 5 6 
#
# 1 0.013589 -0.003175 -0.008009 0.000000 -0.001914 0.000000
# 2 -0.003175 0.009690 0.000292 0.000000 -0.001534 0.000000
# 3 -0.008009 0.000292 0.038209 0.000000 -0.031089 0.000000
# 4 0.000000 0.000000 0.000000 0.025784 0.000000 -0.010422
# 5 -0.001914 -0.001534 -0.031089 0.000000 0.058693 0.000000
# 6 0.000000 0.000000 0.000000 -0.010422 0.000000 0.032884
#
#
# Mechanical properties :
#
#
# Convention : Reuss Voigt Hill
#
# Bulk Modulus (GPa) = 25.18674 58.38572 41.78623
# Shear Modulus (GPa) = 23.37878 36.29549 29.83713
#
# Velocity S-wave (km/s) = 3.17678 3.95825 3.58885
# Velocity P-wave (km/s) = 4.93238 6.78924 5.93389
#
# Compressibility (1/GPa) = 0.03970342
#
# Stress axis : x y z
#
# Youngs Moduli (GPa) = 73.58684 103.19472 26.17218
#
# Poissons Ratio (x) = 0.32762 0.20962
# Poissons Ratio (y) = 0.23362 -0.00764
# Poissons Ratio (z) = 0.58939 -0.03011
#
# Static dielectric constant tensor:
#      x y z
#    x 1.847040 0.000000 -0.030870 
#    y 0.000000 1.870200 0.000000 
#    z -0.030870 0.000000 1.995170 
# 
# From -- ./inp_files/65560.got.cif
#   From: 2010.05.17/outbox.cif.g08.bks.cpg/sg15_33_cif.got.tgz:65560.got - 2010.06.03 18:47:42.
