data_PCOD9297269
_publ_section_title
;
Structure prediction by ZEFSAII (Michael W. Deem and Ramdas Pophale) SiO2 
 PCOD9297269
Probable space group: C 2/C
;
_chemical_formula_sum "Si O2"
_cell_formula_units_Z 48
_cell_length_a 23.461128
_cell_length_b 6.478147
_cell_length_c 14.036690
_cell_angle_alpha 90.000000
_cell_angle_beta 97.162734
_cell_angle_gamma 90.000000
_cell_volume 2116.712490
_symmetry_space_group_name_H-M "C 2/C"
_symmetry_group_IT_number 15
_symmetry_cell_setting 'monoclinic'
loop_
_space_group_symop_operation_xyz
x,y,z
-x,y,1/2-z
-x,-y,-z
x,-y,1/2+z
1/2+x,1/2+y,z
1/2-x,1/2+y,1/2-z
1/2-x,1/2-y,-z
1/2+x,1/2-y,1/2+z
loop_
_atom_site_type_symbol
_atom_site_label
_atom_site_fract_x
_atom_site_fract_y
_atom_site_fract_z
Si Si1 0.207283 0.605781 0.345564
Si Si2 0.750000 0.250000 0.000000
Si Si3 0.500000 0.997866 0.250000
Si Si4 0.853601 0.007824 0.106947
Si Si5 0.973979 0.838747 0.102050
Si Si6 0.556193 0.305462 0.613289
Si Si7 0.827137 0.737707 0.791795
O O1 0.228341 0.429836 0.421516
O O2 0.174555 0.492466 0.251869
O O3 0.263540 0.717910 0.315666
O O4 0.169052 0.774344 0.389813
O O5 0.812814 0.130920 0.026905
O O6 0.466537 0.151580 0.172721
O O7 0.461928 0.851630 0.308183
O O8 0.842896 0.110340 0.208142
O O9 0.920924 0.998332 0.098871
O O10 0.973034 0.759227 0.993814
O O11 0.032132 0.967259 0.134181
O O12 0.624491 0.280867 0.619998
#
# Coordination Sequence:
#
# PCOD9297269 Si02
#       7
#     8   4   4   8   8   8   8
#     4  11  22  41  63  97 131 174 229 279 341 401
#     4  10  24  38  62  94 128 176 218 278 336 398
#     4  12  22  44  70 102 134 180 230 278 348 408
#     4  11  22  42  65  95 137 176 225 283 340 410
#     4  11  25  45  68 102 138 182 226 286 350 402
#     4  11  25  44  69  99 140 177 232 284 339 423
#     4  11  22  40  66  97 131 180 227 280 345 401
#
# _framework density 22.676673000000001
#
# number of rings (size 3 to 8) (size 9 to 14) (size 15 to 20)
#    0.000    1.000    1.667    5.500    0.000    1.333 
#    0.000    3.333    0.000    0.000    0.000    0.000 
#    0.000    0.000    0.000    0.000    0.000    0.000 
#
# Total GULP energy -133768.231762 kJ/mol
# GULP energy per Si atom -5573.676323 kJ/mol
# Density = 2.262506 g / cm^3
# Si number density = 22.676673 Si / 1000 Ang^3
#
#
#
# Elastic Constant Matrix: (Units=GPa)
#
#
# Indices 1 2 3 4 5 6 
#
# 1 85.4865 11.6285 14.6037 0.0000 8.4966 0.0000
# 2 11.6285 53.9041 28.2615 0.0000 -0.3512 0.0000
# 3 14.6037 28.2615 57.2673 0.0000 3.4103 0.0000
# 4 0.0000 0.0000 0.0000 17.2712 0.0000 -7.9064
# 5 8.4966 -0.3512 3.4103 0.0000 36.5616 0.0000
# 6 0.0000 0.0000 0.0000 -7.9064 0.0000 14.4835
#
#
#
# Elastic Compliance Matrix: (Units=1/GPa)
#
#
# Indices 1 2 3 4 5 6 
#
# 1 0.012567 -0.001529 -0.002288 0.000000 -0.002722 0.000000
# 2 -0.001529 0.025284 -0.012191 0.000000 0.001735 0.000000
# 3 -0.002288 -0.012191 0.024171 0.000000 -0.001840 0.000000
# 4 0.000000 0.000000 0.000000 0.077189 0.000000 0.042137
# 5 -0.002722 0.001735 -0.001840 0.000000 0.028172 0.000000
# 6 0.000000 0.000000 0.000000 0.042137 0.000000 0.092046
#
#
# Mechanical properties :
#
#
# Convention : Reuss Voigt Hill
#
# Bulk Modulus (GPa) = 33.32661 33.96057 33.64359
# Shear Modulus (GPa) = 16.58654 23.14086 19.86370
#
# Velocity S-wave (km/s) = 2.70744 3.19794 2.96286
# Velocity P-wave (km/s) = 4.94995 5.35204 5.15491
#
# Compressibility (1/GPa) = 0.03000605
#
# Stress axis : x y z
#
# Youngs Moduli (GPa) = 79.57253 39.54994 41.37116
#
# Poissons Ratio (x) = 0.06048 0.09466
# Poissons Ratio (y) = 0.12168 0.50437
# Poissons Ratio (z) = 0.18206 0.48217
#
# Static dielectric constant tensor:
#      x y z
#    x 1.825400 0.000000 0.019090 
#    y 0.000000 1.820780 0.000000 
#    z 0.019090 0.000000 1.851710 
# 
# From -- ./inp_files/217838.got.cif
#   From: 2010.05.17/outbox.cif.g08.bks.cpg/sg15_109_cif.got.tgz:217838.got - 2010.06.03 18:47:42.
