data_PCOD9297843
_publ_section_title
;
Structure prediction by ZEFSAII (Michael W. Deem and Ramdas Pophale) SiO2 
 PCOD9297843
Probable space group: C 2/C
;
_chemical_formula_sum "Si O2"
_cell_formula_units_Z 52
_cell_length_a 14.721416
_cell_length_b 16.068177
_cell_length_c 11.805991
_cell_angle_alpha 90.000000
_cell_angle_beta 48.687941
_cell_angle_gamma 90.000000
_cell_volume 2097.640100
_symmetry_space_group_name_H-M "C 2/C"
_symmetry_group_IT_number 15
_symmetry_cell_setting 'monoclinic'
loop_
_space_group_symop_operation_xyz
x,y,z
-x,y,1/2-z
-x,-y,-z
x,-y,1/2+z
1/2+x,1/2+y,z
1/2-x,1/2+y,1/2-z
1/2-x,1/2-y,-z
1/2+x,1/2-y,1/2+z
loop_
_atom_site_type_symbol
_atom_site_label
_atom_site_fract_x
_atom_site_fract_y
_atom_site_fract_z
Si Si1 0.268822 0.584601 0.325792
Si Si2 0.127847 0.355748 0.582449
Si Si3 0.335238 0.932262 0.171227
Si Si4 0.000000 0.934687 0.750000
Si Si5 0.353649 0.678019 0.051878
Si Si6 0.408772 0.344802 0.052107
Si Si7 0.946853 0.329064 0.410064
O O1 0.201110 0.528164 0.287935
O O2 0.379281 0.531764 0.287496
O O3 0.319210 0.662823 0.211588
O O4 0.179066 0.621722 0.492803
O O5 0.138280 0.428674 0.484285
O O6 0.245141 0.355506 0.564897
O O7 0.133011 0.271939 0.502047
O O8 0.000000 0.356769 0.750000
O O9 0.220294 0.875979 0.299478
O O10 0.452719 0.895049 0.133030
O O11 0.060585 0.886644 0.593627
O O12 0.486204 0.635540 0.941596
O O13 0.422277 0.246232 0.017018
O O14 0.000000 0.293814 0.250000
#
# Coordination Sequence:
#
# PCOD9297843 Si02
#       7
#     8   8   8   4   8   8   8
#     4  11  26  47  67 102 144 178 228 280 353 420
#     4  11  24  41  68  98 132 182 234 280 335 401
#     4  12  27  44  71 101 142 185 222 287 350 410
#     4  10  24  46  74 104 136 184 228 286 350 404
#     4  10  24  42  68  97 134 181 229 287 332 406
#     4  11  24  43  73 103 135 176 239 285 343 403
#     4  12  25  43  75 103 136 178 233 293 342 405
#
# _framework density 24.789762
#
# number of rings (size 3 to 8) (size 9 to 14) (size 15 to 20)
#    0.000    0.923    2.308    3.231    6.462    8.000 
#    0.000    0.000    1.692    0.000    0.000    0.000 
#    0.000    0.000    0.000    0.000    0.000    0.000 
#
# Total GULP energy -145304.638179 kJ/mol
# GULP energy per Si atom -5588.639930 kJ/mol
# Density = 2.473334 g / cm^3
# Si number density = 24.789762 Si / 1000 Ang^3
#
#
#
# Elastic Constant Matrix: (Units=GPa)
#
#
# Indices 1 2 3 4 5 6 
#
# 1 79.0786 0.7590 29.5767 0.0000 -15.2065 0.0000
# 2 0.7590 58.8000 41.5047 0.0000 3.7792 0.0000
# 3 29.5767 41.5047 153.9453 0.0000 -20.0344 0.0000
# 4 0.0000 0.0000 0.0000 27.8066 0.0000 -4.8191
# 5 -15.2065 3.7792 -20.0344 0.0000 36.1601 0.0000
# 6 0.0000 0.0000 0.0000 -4.8191 0.0000 19.1425
#
#
#
# Elastic Compliance Matrix: (Units=1/GPa)
#
#
# Indices 1 2 3 4 5 6 
#
# 1 0.014456 0.001317 -0.002542 0.000000 0.004533 0.000000
# 2 0.001317 0.022294 -0.006999 0.000000 -0.005654 0.000000
# 3 -0.002542 -0.006999 0.009513 0.000000 0.004933 0.000000
# 4 0.000000 0.000000 0.000000 0.037603 0.000000 0.009467
# 5 0.004533 -0.005654 0.004933 0.000000 0.032885 0.000000
# 6 0.000000 0.000000 0.000000 0.009467 0.000000 0.054623
#
#
# Mechanical properties :
#
#
# Convention : Reuss Voigt Hill
#
# Bulk Modulus (GPa) = 33.54299 48.38942 40.96620
# Shear Modulus (GPa) = 25.28293 31.28740 28.28517
#
# Velocity S-wave (km/s) = 3.19704 3.55647 3.38154
# Velocity P-wave (km/s) = 5.21426 6.03548 5.63983
#
# Compressibility (1/GPa) = 0.02981249
#
# Stress axis : x y z
#
# Youngs Moduli (GPa) = 69.17772 44.85557 105.11563
#
# Poissons Ratio (x) = -0.05906 0.26724
# Poissons Ratio (y) = -0.09108 0.73574
# Poissons Ratio (z) = 0.17587 0.31396
#
# Static dielectric constant tensor:
#      x y z
#    x 1.966700 0.000000 -0.029290 
#    y 0.000000 1.970770 0.000000 
#    z -0.029290 0.000000 1.938940 
# 
# From -- ./inp_files/155414.got.cif
#   From: 2010.05.17/outbox.cif.g08.bks.cpg/sg15_78_cif.got.tgz:155414.got - 2010.06.03 18:47:42.
