data_PCOD9297066
_publ_section_title
;
Structure prediction by ZEFSAII (Michael W. Deem and Ramdas Pophale) SiO2 
 PCOD9297066
Probable space group: C 2/C
;
_chemical_formula_sum "Si O2"
_cell_formula_units_Z 60
_cell_length_a 14.218403
_cell_length_b 8.096461
_cell_length_c 22.672414
_cell_angle_alpha 90.000000
_cell_angle_beta 94.584849
_cell_angle_gamma 90.000000
_cell_volume 2601.667924
_symmetry_space_group_name_H-M "C 2/C"
_symmetry_group_IT_number 15
_symmetry_cell_setting 'monoclinic'
loop_
_space_group_symop_operation_xyz
x,y,z
-x,y,1/2-z
-x,-y,-z
x,-y,1/2+z
1/2+x,1/2+y,z
1/2-x,1/2+y,1/2-z
1/2-x,1/2-y,-z
1/2+x,1/2-y,1/2+z
loop_
_atom_site_type_symbol
_atom_site_label
_atom_site_fract_x
_atom_site_fract_y
_atom_site_fract_z
Si Si1 0.797120 0.204650 0.165949
Si Si2 0.019942 0.729516 0.378764
Si Si3 0.787219 0.523044 0.232894
Si Si4 0.500000 0.936894 0.750000
Si Si5 0.162512 0.434888 0.572120
Si Si6 0.504595 0.576694 0.319789
Si Si7 0.203699 0.606186 0.458486
Si Si8 0.686431 0.291394 0.636928
O O1 0.753871 0.367212 0.193482
O O2 0.909366 0.203831 0.167808
O O3 0.768113 0.060637 0.210328
O O4 0.750789 0.166410 0.101539
O O5 0.113344 0.672079 0.417881
O O6 0.011409 0.655975 0.312601
O O7 0.931058 0.660215 0.411386
O O8 0.021490 0.923873 0.364684
O O9 0.896297 0.484679 0.251949
O O10 0.768564 0.681940 0.189969
O O11 0.171460 0.467909 0.503014
O O12 0.170225 0.613884 0.605719
O O13 0.500000 0.529523 0.250000
O O14 0.407115 0.657493 0.333825
O O15 0.250000 0.750000 0.500000
O O16 0.284010 0.580787 0.413376
#
# Coordination Sequence:
#
# PCOD9297066 Si02
#       8
#     8   8   8   4   8   8   8   8
#     4  12  27  42  68 101 147 184 240 292 364 431
#     4  12  24  44  71 105 142 187 234 294 363 423
#     4  12  26  43  67 103 143 187 228 302 364 424
#     4  12  26  40  72 102 140 176 236 278 370 418
#     4  11  25  46  72 102 138 193 244 290 350 429
#     4  12  26  40  66 104 146 179 229 295 368 429
#     4  10  23  47  74  98 141 195 245 295 343 421
#     4  11  24  45  71 102 144 185 241 293 354 424
#
# _framework density 23.062127
#
# number of rings (size 3 to 8) (size 9 to 14) (size 15 to 20)
#    0.000    0.533    4.667    3.600    4.667    0.000 
#    0.000    8.667    0.000    0.000    0.000    0.000 
#    0.000    0.000    0.000    0.000    0.000    0.000 
#
# Total GULP energy -167714.593273 kJ/mol
# GULP energy per Si atom -5590.486442 kJ/mol
# Density = 2.300964 g / cm^3
# Si number density = 23.062127 Si / 1000 Ang^3
#
#
#
# Elastic Constant Matrix: (Units=GPa)
#
#
# Indices 1 2 3 4 5 6 
#
# 1 140.0874 5.5467 42.5608 0.0000 -3.7258 0.0000
# 2 5.5467 73.5849 19.9005 0.0000 -0.0772 0.0000
# 3 42.5608 19.9005 120.4205 0.0000 -2.2502 0.0000
# 4 0.0000 0.0000 0.0000 35.8622 0.0000 0.8374
# 5 -3.7258 -0.0772 -2.2502 0.0000 46.1452 0.0000
# 6 0.0000 0.0000 0.0000 0.8374 0.0000 22.4614
#
#
#
# Elastic Compliance Matrix: (Units=1/GPa)
#
#
# Indices 1 2 3 4 5 6 
#
# 1 0.008011 0.000167 -0.002850 0.000000 0.000508 0.000000
# 2 0.000167 0.014229 -0.002412 0.000000 -0.000080 0.000000
# 3 -0.002850 -0.002412 0.009714 0.000000 0.000240 0.000000
# 4 0.000000 0.000000 0.000000 0.027909 0.000000 -0.001040
# 5 0.000508 -0.000080 0.000240 0.000000 0.021723 0.000000
# 6 0.000000 0.000000 0.000000 -0.001040 0.000000 0.044560
#
#
# Mechanical properties :
#
#
# Convention : Reuss Voigt Hill
#
# Bulk Modulus (GPa) = 45.94297 52.23434 49.08866
# Shear Modulus (GPa) = 34.82117 38.63274 36.72695
#
# Velocity S-wave (km/s) = 3.88994 4.09731 3.99497
# Velocity P-wave (km/s) = 6.33563 6.71435 6.52774
#
# Compressibility (1/GPa) = 0.02176611
#
# Stress axis : x y z
#
# Youngs Moduli (GPa) = 124.82802 70.27704 102.93928
#
# Poissons Ratio (x) = -0.01176 0.29333
# Poissons Ratio (y) = -0.02089 0.24831
# Poissons Ratio (z) = 0.35570 0.16952
#
# Static dielectric constant tensor:
#      x y z
#    x 1.845600 0.000000 -0.008100 
#    y 0.000000 1.910760 0.000000 
#    z -0.008100 0.000000 1.853110 
# 
# From -- ./inp_files/272816.got.cif
#   From: 2010.05.17/outbox.cif.g08.bks.cpg/sg15_137_cif.got.tgz:272816.got - 2010.06.03 18:47:42.
