data_PCOD9297297
_publ_section_title
;
Structure prediction by ZEFSAII (Michael W. Deem and Ramdas Pophale) SiO2 
 PCOD9297297
Probable space group: C 2/C
;
_chemical_formula_sum "Si O2"
_cell_formula_units_Z 40
_cell_length_a 11.512199
_cell_length_b 7.563700
_cell_length_c 19.332111
_cell_angle_alpha 90.000000
_cell_angle_beta 96.887028
_cell_angle_gamma 90.000000
_cell_volume 1671.193964
_symmetry_space_group_name_H-M "C 2/C"
_symmetry_group_IT_number 15
_symmetry_cell_setting 'monoclinic'
loop_
_space_group_symop_operation_xyz
x,y,z
-x,y,1/2-z
-x,-y,-z
x,-y,1/2+z
1/2+x,1/2+y,z
1/2-x,1/2+y,1/2-z
1/2-x,1/2-y,-z
1/2+x,1/2-y,1/2+z
loop_
_atom_site_type_symbol
_atom_site_label
_atom_site_fract_x
_atom_site_fract_y
_atom_site_fract_z
Si Si1 0.630458 0.141734 0.916033
Si Si2 0.386416 0.372507 0.784538
Si Si3 0.204176 0.979966 0.454258
Si Si4 0.608251 0.286808 0.567781
Si Si5 0.874684 0.518409 0.235469
O O1 0.666064 0.348498 0.909319
O O2 0.499291 0.153971 0.934184
O O3 0.638279 0.039379 0.845160
O O4 0.710152 0.054550 0.979829
O O5 0.500000 0.439548 0.750000
O O6 0.397998 0.416436 0.866677
O O7 0.253061 0.410976 0.751778
O O8 0.394872 0.159943 0.780530
O O9 0.273218 0.828168 0.419125
O O10 0.106690 0.883859 0.493863
O O11 0.000000 0.620537 0.250000
#
# Coordination Sequence:
#
# PCOD9297297 Si02
#       5
#     8   8   8   8   8
#     4  11  21  42  63  94 126 165 207 265 317 380
#     4  11  24  43  66  92 129 171 217 265 318 380
#     4  10  24  38  66  96 128 158 212 260 330 376
#     4  11  21  42  63  94 126 165 207 265 317 380
#     4  11  24  43  66  92 129 171 217 265 318 380
#
# _framework density 23.934982000000002
#
# number of rings (size 3 to 8) (size 9 to 14) (size 15 to 20)
#    0.000    1.200    6.000    1.200    2.800    0.800 
#    0.000    0.000    0.000    0.000    0.000    0.000 
#    0.000    0.000    0.000    0.000    0.000    0.000 
#
# Total GULP energy -111717.917480 kJ/mol
# GULP energy per Si atom -5585.895874 kJ/mol
# Density = 2.388050 g / cm^3
# Si number density = 23.934982 Si / 1000 Ang^3
#
#
#
# Elastic Constant Matrix: (Units=GPa)
#
#
# Indices 1 2 3 4 5 6 
#
# 1 165.1136 24.3911 39.2456 0.0000 -25.7040 0.0000
# 2 24.3911 55.8001 5.8069 0.0000 -12.0168 0.0000
# 3 39.2456 5.8069 93.1016 0.0000 -18.9793 0.0000
# 4 0.0000 0.0000 0.0000 11.2511 0.0000 1.7974
# 5 -25.7040 -12.0168 -18.9793 0.0000 42.0699 0.0000
# 6 0.0000 0.0000 0.0000 1.7974 0.0000 36.3944
#
#
#
# Elastic Compliance Matrix: (Units=1/GPa)
#
#
# Indices 1 2 3 4 5 6 
#
# 1 0.007413 -0.002396 -0.002414 0.000000 0.002756 0.000000
# 2 -0.002396 0.019871 0.000693 0.000000 0.004525 0.000000
# 3 -0.002414 0.000693 0.012615 0.000000 0.004414 0.000000
# 4 0.000000 0.000000 0.000000 0.089587 0.000000 -0.004424
# 5 0.002756 0.004525 0.004414 0.000000 0.028738 0.000000
# 6 0.000000 0.000000 0.000000 -0.004424 0.000000 0.027695
#
#
# Mechanical properties :
#
#
# Convention : Reuss Voigt Hill
#
# Bulk Modulus (GPa) = 31.57968 50.32249 40.95108
# Shear Modulus (GPa) = 24.42516 34.24785 29.33651
#
# Velocity S-wave (km/s) = 3.19796 3.78679 3.50476
# Velocity P-wave (km/s) = 5.18252 6.33956 5.79001
#
# Compressibility (1/GPa) = 0.03166594
#
# Stress axis : x y z
#
# Youngs Moduli (GPa) = 134.89687 50.32558 79.27040
#
# Poissons Ratio (x) = 0.12056 0.19133
# Poissons Ratio (y) = 0.32317 -0.05492
# Poissons Ratio (z) = 0.32559 -0.03487
#
# Static dielectric constant tensor:
#      x y z
#    x 2.001710 0.000000 0.011540 
#    y 0.000000 1.917920 0.000000 
#    z 0.011540 0.000000 1.970330 
# 
# From -- ./inp_files/187976.got.cif
#   From: 2010.05.17/outbox.cif.g08.bks.cpg/sg15_94_cif.got.tgz:187976.got - 2010.06.03 18:47:42.
