data_PCOD9297256
_publ_section_title
;
Structure prediction by ZEFSAII (Michael W. Deem and Ramdas Pophale) SiO2 
 PCOD9297256
Probable space group: C 2/C
;
_chemical_formula_sum "Si O2"
_cell_formula_units_Z 24
_cell_length_a 9.233148
_cell_length_b 20.578434
_cell_length_c 5.299656
_cell_angle_alpha 90.000000
_cell_angle_beta 105.374304
_cell_angle_gamma 90.000000
_cell_volume 970.919927
_symmetry_space_group_name_H-M "C 2/C"
_symmetry_group_IT_number 15
_symmetry_cell_setting 'monoclinic'
loop_
_space_group_symop_operation_xyz
x,y,z
-x,y,1/2-z
-x,-y,-z
x,-y,1/2+z
1/2+x,1/2+y,z
1/2-x,1/2+y,1/2-z
1/2-x,1/2-y,-z
1/2+x,1/2-y,1/2+z
loop_
_atom_site_type_symbol
_atom_site_label
_atom_site_fract_x
_atom_site_fract_y
_atom_site_fract_z
Si Si1 0.500000 0.955709 0.750000
Si Si2 0.862362 0.650746 0.484250
Si Si3 0.956163 0.885846 0.475996
Si Si4 0.000000 0.764656 0.250000
O O1 0.629312 0.904659 0.729697
O O2 0.500000 0.000000 0.500000
O O3 0.713577 0.637993 0.574842
O O4 0.000000 0.645564 0.750000
O O5 0.886082 0.717740 0.343528
O O6 0.000000 0.919469 0.750000
O O7 0.051990 0.818196 0.481480
O O8 0.000000 0.924636 0.250000
#
# Coordination Sequence:
#
# PCOD9297256 Si02
#       4
#     4   8   8   4
#     4  11  24  42  66  92 116 152 210 271 304 352
#     4  11  23  39  67  93 121 163 209 251 302 361
#     4  10  24  38  59  90 137 165 196 240 302 366
#     4   9  22  34  64  88 138 156 214 225 312 346
#
# _framework density 24.718824999999999
#
# number of rings (size 3 to 8) (size 9 to 14) (size 15 to 20)
#    1.000    0.667    1.667    2.000    9.333    2.667 
#    0.000    0.000    0.000    6.000    0.000    0.000 
#    0.000    0.000    0.000    0.000    0.000    0.000 
#
# Total GULP energy -66833.692098 kJ/mol
# GULP energy per Si atom -5569.474341 kJ/mol
# Density = 2.466256 g / cm^3
# Si number density = 24.718825 Si / 1000 Ang^3
#
#
#
# Elastic Constant Matrix: (Units=GPa)
#
#
# Indices 1 2 3 4 5 6 
#
# 1 149.3375 1.6552 69.7830 0.0000 -30.2772 0.0000
# 2 1.6552 125.6332 30.9922 0.0000 -20.9628 0.0000
# 3 69.7830 30.9922 174.7904 0.0000 -46.7379 0.0000
# 4 0.0000 0.0000 0.0000 12.5978 0.0000 -20.6827
# 5 -30.2772 -20.9628 -46.7379 0.0000 52.6067 0.0000
# 6 0.0000 0.0000 0.0000 -20.6827 0.0000 -11.3821
#
#
#
# Elastic Compliance Matrix: (Units=1/GPa)
#
#
# Indices 1 2 3 4 5 6 
#
# 1 0.008596 0.001065 -0.002865 0.000000 0.002827 0.000000
# 2 0.001065 0.008743 -0.001154 0.000000 0.003072 0.000000
# 3 -0.002865 -0.001154 0.008533 0.000000 0.005472 0.000000
# 4 0.000000 0.000000 0.000000 0.019928 0.000000 -0.036212
# 5 0.002827 0.003072 0.005472 0.000000 0.026721 0.000000
# 6 0.000000 0.000000 0.000000 -0.036212 0.000000 -0.022056
#
#
# Mechanical properties :
#
#
# Convention : Reuss Voigt Hill
#
# Bulk Modulus (GPa) = 50.09043 72.73577 61.41310
# Shear Modulus (GPa) = 79.33048 33.91986 56.62517
#
# Velocity S-wave (km/s) = 5.67123 3.70838 4.79139
# Velocity P-wave (km/s) = 7.94933 6.91558 7.45040
#
# Compressibility (1/GPa) = 0.01996389
#
# Stress axis : x y z
#
# Youngs Moduli (GPa) = 116.32944 114.37893 117.19496
#
# Poissons Ratio (x) = -0.12183 0.33577
# Poissons Ratio (y) = -0.12391 0.13526
# Poissons Ratio (z) = 0.33329 0.13201
#
# Static dielectric constant tensor:
#      x y z
#    x 2.002920 0.000000 0.006050 
#    y 0.000000 1.938100 0.000000 
#    z 0.006050 0.000000 2.126870 
# 
# From -- ./inp_files/1852.got.cif
#   From: 2010.05.17/outbox.cif.g08.bks.cpg/sg15_1_cif.got.tgz:1852.got - 2010.06.03 18:47:42.
