data_PCOD9297525
_publ_section_title
;
Structure prediction by ZEFSAII (Michael W. Deem and Ramdas Pophale) SiO2 
 PCOD9297525
Probable space group: C 2/C
;
_chemical_formula_sum "Si O2"
_cell_formula_units_Z 52
_cell_length_a 5.278295
_cell_length_b 27.674746
_cell_length_c 15.163551
_cell_angle_alpha 90.000000
_cell_angle_beta 83.507904
_cell_angle_gamma 90.000000
_cell_volume 2200.818974
_symmetry_space_group_name_H-M "C 2/C"
_symmetry_group_IT_number 15
_symmetry_cell_setting 'monoclinic'
loop_
_space_group_symop_operation_xyz
x,y,z
-x,y,1/2-z
-x,-y,-z
x,-y,1/2+z
1/2+x,1/2+y,z
1/2-x,1/2+y,1/2-z
1/2-x,1/2-y,-z
1/2+x,1/2-y,1/2+z
loop_
_atom_site_type_symbol
_atom_site_label
_atom_site_fract_x
_atom_site_fract_y
_atom_site_fract_z
Si Si1 0.141808 0.101726 0.165285
Si Si2 0.103745 0.911915 0.100153
Si Si3 0.083994 0.007933 0.394924
Si Si4 0.895054 0.625353 0.984218
Si Si5 0.484861 0.234607 0.553761
Si Si6 0.500000 0.334951 0.250000
Si Si7 0.000000 0.728307 0.750000
Si Si8 0.500000 0.974591 0.750000
O O1 0.314553 0.061980 0.206291
O O2 0.000000 0.129061 0.250000
O O3 0.296883 0.131541 0.088014
O O4 0.959041 0.064533 0.120619
O O5 0.086854 0.965467 0.140900
O O6 0.840379 0.898080 0.059898
O O7 0.357974 0.908484 0.031661
O O8 0.114325 0.870858 0.173161
O O9 0.350417 0.998191 0.334269
O O10 0.000000 0.000000 0.500000
O O11 0.988834 0.676663 0.944833
O O12 0.750000 0.250000 0.500000
O O13 0.460008 0.253166 0.655690
O O14 0.250000 0.250000 0.500000
O O15 0.737745 0.302471 0.272219
#
# Coordination Sequence:
#
# PCOD9297525 Si02
#       8
#     8   8   8   8   8   4   4   4
#     4  10  24  44  64  95 141 195 243 297 349 420
#     4  12  25  39  69 107 140 193 237 292 358 426
#     4  11  23  40  63  95 143 193 245 301 350 414
#     4  12  25  47  72 102 141 181 244 299 360 437
#     4  12  26  50  78 109 145 183 237 300 377 456
#     4  12  22  42  68 107 147 184 229 291 360 432
#     4  12  24  49  76 108 149 184 229 304 374 433
#     4  10  24  41  60  95 142 192 246 299 348 407
#
# _framework density 23.627568
#
# number of rings (size 3 to 8) (size 9 to 14) (size 15 to 20)
#    0.000    0.615    4.615    2.769    7.538    1.846 
#    1.385    0.000    0.000    0.000    0.000    0.000 
#    0.000    0.000    0.000    0.000    0.000    0.000 
#
# Total GULP energy -145076.454227 kJ/mol
# GULP energy per Si atom -5579.863624 kJ/mol
# Density = 2.357379 g / cm^3
# Si number density = 23.627568 Si / 1000 Ang^3
#
#
#
# Elastic Constant Matrix: (Units=GPa)
#
#
# Indices 1 2 3 4 5 6 
#
# 1 125.3338 17.1155 52.8185 0.0000 -3.1357 0.0000
# 2 17.1155 38.0093 7.5574 0.0000 -3.5480 0.0000
# 3 52.8185 7.5574 196.3869 0.0000 -19.0697 0.0000
# 4 0.0000 0.0000 0.0000 38.0495 0.0000 -6.8706
# 5 -3.1357 -3.5480 -19.0697 0.0000 46.3831 0.0000
# 6 0.0000 0.0000 0.0000 -6.8706 0.0000 26.8912
#
#
#
# Elastic Compliance Matrix: (Units=1/GPa)
#
#
# Indices 1 2 3 4 5 6 
#
# 1 0.009535 -0.003863 -0.002481 0.000000 -0.000671 0.000000
# 2 -0.003863 0.028203 0.000143 0.000000 0.001955 0.000000
# 3 -0.002481 0.000143 0.005977 0.000000 0.002301 0.000000
# 4 0.000000 0.000000 0.000000 0.027553 0.000000 0.007040
# 5 -0.000671 0.001955 0.002301 0.000000 0.022610 0.000000
# 6 0.000000 0.000000 0.000000 0.007040 0.000000 0.038986
#
#
# Mechanical properties :
#
#
# Convention : Reuss Voigt Hill
#
# Bulk Modulus (GPa) = 31.93445 57.19032 44.56239
# Shear Modulus (GPa) = 32.11273 41.08067 36.59670
#
# Velocity S-wave (km/s) = 3.69063 4.17427 3.93987
# Velocity P-wave (km/s) = 5.63081 6.89131 6.29270
#
# Compressibility (1/GPa) = 0.03131414
#
# Stress axis : x y z
#
# Youngs Moduli (GPa) = 104.87739 35.45746 167.30476
#
# Poissons Ratio (x) = 0.13697 0.41507
# Poissons Ratio (y) = 0.40513 -0.02400
# Poissons Ratio (z) = 0.26019 -0.00509
#
# Static dielectric constant tensor:
#      x y z
#    x 2.190240 0.000000 0.408170 
#    y 0.000000 1.829660 0.000000 
#    z 0.408170 0.000000 2.617370 
# 
# From -- ./inp_files/130747.got.cif
#   From: 2010.05.17/outbox.cif.g08.bks.cpg/sg15_66_cif.got.tgz:130747.got - 2010.06.03 18:47:42.
