data_PCOD9297028
_publ_section_title
;
Structure prediction by ZEFSAII (Michael W. Deem and Ramdas Pophale) SiO2 
 PCOD9297028
Probable space group: C 2/C
;
_chemical_formula_sum "Si O2"
_cell_formula_units_Z 64
_cell_length_a 16.484998
_cell_length_b 26.329775
_cell_length_c 12.663245
_cell_angle_alpha 90.000000
_cell_angle_beta 33.246673
_cell_angle_gamma 90.000000
_cell_volume 3013.390901
_symmetry_space_group_name_H-M "C 2/C"
_symmetry_group_IT_number 15
_symmetry_cell_setting 'monoclinic'
loop_
_space_group_symop_operation_xyz
x,y,z
-x,y,1/2-z
-x,-y,-z
x,-y,1/2+z
1/2+x,1/2+y,z
1/2-x,1/2+y,1/2-z
1/2-x,1/2-y,-z
1/2+x,1/2-y,1/2+z
loop_
_atom_site_type_symbol
_atom_site_label
_atom_site_fract_x
_atom_site_fract_y
_atom_site_fract_z
Si Si1 0.595093 0.933712 0.944446
Si Si2 0.304030 0.357157 0.820908
Si Si3 0.095447 0.458169 0.542203
Si Si4 0.872750 0.360179 0.269615
Si Si5 0.393247 0.660288 0.575924
Si Si6 0.654028 0.798251 0.645331
Si Si7 0.610904 0.220285 0.437891
Si Si8 0.143060 0.114140 0.661892
O O1 0.470371 0.910530 0.157411
O O2 0.633252 0.990653 0.936428
O O3 0.732017 0.896924 0.817618
O O4 0.519696 0.929943 0.911712
O O5 0.477426 0.364894 0.632648
O O6 0.225085 0.359752 0.019403
O O7 0.263119 0.301695 0.819768
O O8 0.243551 0.428305 0.416018
O O9 0.000000 0.469975 0.750000
O O10 0.764980 0.359477 0.287438
O O11 0.982778 0.312088 0.135873
O O12 0.396905 0.719740 0.545313
O O13 0.414978 0.646850 0.674504
O O14 0.500000 0.802097 0.750000
O O15 0.750000 0.750000 0.500000
O O16 0.755247 0.847393 0.515879
O O17 0.612050 0.792241 0.812991
O O18 0.000000 0.096674 0.750000
#
# Coordination Sequence:
#
# PCOD9297028 Si02
#       8
#     8   8   8   8   8   8   8   8
#     4  10  23  47  70  97 131 165 226 275 341 400
#     4  11  25  41  67  92 133 179 221 284 333 393
#     4  11  24  44  75 101 124 173 222 282 331 405
#     4  11  23  43  66  95 131 178 227 280 331 397
#     4  12  24  40  62  98 140 179 223 275 332 393
#     4  12  25  40  65  96 137 188 221 270 340 399
#     4  11  24  39  64  93 134 180 231 271 321 398
#     4  12  26  43  65 101 143 176 222 275 339 403
#
# _framework density 21.238531999999999
#
# number of rings (size 3 to 8) (size 9 to 14) (size 15 to 20)
#    0.000    0.750    2.500    5.625    8.750    3.000 
#    0.000    3.125    0.000    0.000    0.000    0.000 
#    0.000    0.000    0.000    0.000    0.000    0.000 
#
# Total GULP energy -178917.054896 kJ/mol
# GULP energy per Si atom -5591.157965 kJ/mol
# Density = 2.119019 g / cm^3
# Si number density = 21.238532 Si / 1000 Ang^3
#
#
#
# Elastic Constant Matrix: (Units=GPa)
#
#
# Indices 1 2 3 4 5 6 
#
# 1 105.4870 28.4912 9.8069 -0.0002 -13.7145 0.0005
# 2 28.4912 88.0606 11.4624 -0.0002 -21.3343 0.0001
# 3 9.8069 11.4624 59.1851 -0.0004 -14.0332 0.0005
# 4 -0.0002 -0.0002 -0.0004 6.3282 0.0004 2.8522
# 5 -13.7145 -21.3343 -14.0332 0.0004 40.6040 -0.0005
# 6 0.0005 0.0001 0.0005 2.8522 -0.0005 20.2177
#
#
#
# Elastic Compliance Matrix: (Units=1/GPa)
#
#
# Indices 1 2 3 4 5 6 
#
# 1 0.010563 -0.002885 -0.000768 0.000000 0.001787 0.000000
# 2 -0.002885 0.013852 -0.000773 0.000000 0.006037 0.000000
# 3 -0.000768 -0.000773 0.018534 0.000001 0.005740 0.000000
# 4 0.000000 0.000000 0.000001 0.168754 -0.000002 -0.023807
# 5 0.001787 0.006037 0.005740 -0.000002 0.030387 0.000001
# 6 0.000000 0.000000 0.000000 -0.023807 0.000001 0.052820
#
#
# Mechanical properties :
#
#
# Convention : Reuss Voigt Hill
#
# Bulk Modulus (GPa) = 29.32811 39.13932 34.23372
# Shear Modulus (GPa) = 15.86654 26.96145 21.41399
#
# Velocity S-wave (km/s) = 2.73621 3.56681 3.17876
# Velocity P-wave (km/s) = 4.88071 5.95242 5.44301
#
# Compressibility (1/GPa) = 0.03409698
#
# Stress axis : x y z
#
# Youngs Moduli (GPa) = 94.67335 72.19016 53.95448
#
# Poissons Ratio (x) = 0.20824 0.04143
# Poissons Ratio (y) = 0.27310 0.04173
# Poissons Ratio (z) = 0.07270 0.05584
#
# Static dielectric constant tensor:
#      x y z
#    x 1.788330 0.000000 0.008140 
#    y 0.000000 1.762730 0.000000 
#    z 0.008140 0.000000 1.757820 
# 
# From -- ./inp_files/101312.got.cif
#   From: 2010.05.17/outbox.cif.g08.bks.cpg/sg15_51_cif.got.tgz:101312.got - 2010.06.03 18:47:42.
