data_PCOD9297586
_publ_section_title
;
Structure prediction by ZEFSAII (Michael W. Deem and Ramdas Pophale) SiO2 
 PCOD9297586
Probable space group: C 2/C
;
_chemical_formula_sum "Si O2"
_cell_formula_units_Z 32
_cell_length_a 8.759553
_cell_length_b 27.413827
_cell_length_c 13.614800
_cell_angle_alpha 90.000000
_cell_angle_beta 28.541870
_cell_angle_gamma 90.000000
_cell_volume 1562.103453
_symmetry_space_group_name_H-M "C 2/C"
_symmetry_group_IT_number 15
_symmetry_cell_setting 'monoclinic'
loop_
_space_group_symop_operation_xyz
x,y,z
-x,y,1/2-z
-x,-y,-z
x,-y,1/2+z
1/2+x,1/2+y,z
1/2-x,1/2+y,1/2-z
1/2-x,1/2-y,-z
1/2+x,1/2-y,1/2+z
loop_
_atom_site_type_symbol
_atom_site_label
_atom_site_fract_x
_atom_site_fract_y
_atom_site_fract_z
Si Si1 0.243040 0.865474 0.320890
Si Si2 0.236742 0.192478 0.525446
Si Si3 0.316715 0.451000 0.637355
Si Si4 0.160939 0.616806 0.393478
O O1 0.500000 0.842798 0.250000
O O2 0.951854 0.830445 0.458629
O O3 0.083107 0.910683 0.464738
O O4 0.414027 0.883686 0.124177
O O5 0.250000 0.250000 0.500000
O O6 0.536888 0.158942 0.388284
O O7 0.000000 0.186582 0.750000
O O8 0.500000 0.500000 0.500000
O O9 0.199553 0.434611 0.813057
O O10 0.000000 0.446646 0.750000
O O11 0.500000 0.629625 0.250000
#
# Coordination Sequence:
#
# PCOD9297586 Si02
#       4
#     8   8   8   8
#     4  11  23  44  67  99 138 178 226 284 340 408
#     4  10  24  41  67 101 135 182 228 280 346 401
#     4  12  26  45  70  98 135 180 227 283 350 397
#     4  11  24  44  68  98 139 178 228 285 334 411
#
# _framework density 20.485198
#
# number of rings (size 3 to 8) (size 9 to 14) (size 15 to 20)
#    0.000    1.000    5.000    0.750    3.500    2.000 
#    0.000    5.000    0.000    0.000    0.000    0.000 
#    0.000    0.000    0.000    0.000    0.000    0.000 
#
# Total GULP energy -89182.363692 kJ/mol
# GULP energy per Si atom -5573.897731 kJ/mol
# Density = 2.043857 g / cm^3
# Si number density = 20.485198 Si / 1000 Ang^3
#
#
#
# Elastic Constant Matrix: (Units=GPa)
#
#
# Indices 1 2 3 4 5 6 
#
# 1 145.7854 36.0293 30.2257 0.0000 -25.6971 0.0000
# 2 36.0293 84.0317 -5.9477 0.0000 -7.9526 0.0000
# 3 30.2257 -5.9477 72.2381 0.0000 10.6549 0.0000
# 4 0.0000 0.0000 0.0000 31.5847 0.0000 -0.9301
# 5 -25.6971 -7.9526 10.6549 0.0000 57.1715 0.0000
# 6 0.0000 0.0000 0.0000 -0.9301 0.0000 7.9514
#
#
#
# Elastic Compliance Matrix: (Units=1/GPa)
#
#
# Indices 1 2 3 4 5 6 
#
# 1 0.009782 -0.004105 -0.005136 0.000000 0.004783 0.000000
# 2 -0.004105 0.013823 0.002925 0.000000 -0.000467 0.000000
# 3 -0.005136 0.002925 0.016980 0.000000 -0.005066 0.000000
# 4 0.000000 0.000000 0.000000 0.031770 0.000000 0.003716
# 5 0.004783 -0.000467 -0.005066 0.000000 0.020520 0.000000
# 6 0.000000 0.000000 0.000000 0.003716 0.000000 0.126198
#
#
# Mechanical properties :
#
#
# Convention : Reuss Voigt Hill
#
# Bulk Modulus (GPa) = 35.77572 46.96332 41.36952
# Shear Modulus (GPa) = 20.74475 35.45804 28.10139
#
# Velocity S-wave (km/s) = 3.18570 4.16493 3.70779
# Velocity P-wave (km/s) = 5.57079 6.79000 6.21039
#
# Compressibility (1/GPa) = 0.02795192
#
# Stress axis : x y z
#
# Youngs Moduli (GPa) = 102.22965 72.34270 58.89165
#
# Poissons Ratio (x) = 0.29696 0.30249
# Poissons Ratio (y) = 0.41965 -0.17224
# Poissons Ratio (z) = 0.52509 -0.21158
#
# Static dielectric constant tensor:
#      x y z
#    x 1.778530 0.000000 0.043290 
#    y 0.000000 1.755430 0.000000 
#    z 0.043290 0.000000 1.761130 
# 
# From -- ./inp_files/22994.got.cif
#   From: 2010.05.17/outbox.cif.g08.bks.cpg/sg15_12_cif.got.tgz:22994.got - 2010.06.03 18:47:42.
