data_PCOD9297156
_publ_section_title
;
Structure prediction by ZEFSAII (Michael W. Deem and Ramdas Pophale) SiO2 
 PCOD9297156
Probable space group: C 2/C
;
_chemical_formula_sum "Si O2"
_cell_formula_units_Z 32
_cell_length_a 10.244933
_cell_length_b 7.482228
_cell_length_c 25.466555
_cell_angle_alpha 90.000000
_cell_angle_beta 44.137858
_cell_angle_gamma 90.000000
_cell_volume 1359.443008
_symmetry_space_group_name_H-M "C 2/C"
_symmetry_group_IT_number 15
_symmetry_cell_setting 'monoclinic'
loop_
_space_group_symop_operation_xyz
x,y,z
-x,y,1/2-z
-x,-y,-z
x,-y,1/2+z
1/2+x,1/2+y,z
1/2-x,1/2+y,1/2-z
1/2-x,1/2-y,-z
1/2+x,1/2-y,1/2+z
loop_
_atom_site_type_symbol
_atom_site_label
_atom_site_fract_x
_atom_site_fract_y
_atom_site_fract_z
Si Si1 0.173606 0.049292 0.518791
Si Si2 0.603341 0.228732 0.613846
Si Si3 0.220940 0.856146 0.335211
Si Si4 0.669426 0.762845 0.736357
O O1 0.250000 0.250000 0.500000
O O2 0.951802 0.080096 0.578620
O O3 0.285277 0.937032 0.443268
O O4 0.180162 0.913332 0.566622
O O5 0.640491 0.241294 0.665037
O O6 0.383589 0.200139 0.664433
O O7 0.140380 0.756347 0.307225
O O8 0.314791 0.031061 0.283934
O O9 0.500000 0.684383 0.750000
#
# Coordination Sequence:
#
# PCOD9297156 Si02
#       4
#     8   8   8   8
#     4  10  24  44  74 109 140 189 235 295 363 428
#     4  10  23  49  71 104 147 185 239 300 353 427
#     4  11  25  45  71 105 144 190 238 297 358 425
#     4  11  25  44  70 102 144 191 239 298 357 421
#
# _framework density 23.539052000000002
#
# number of rings (size 3 to 8) (size 9 to 14) (size 15 to 20)
#    0.000    1.500    0.000    3.000    7.000    5.000 
#    0.000    0.000    0.000    0.000    0.000    0.000 
#    0.000    0.000    0.000    0.000    0.000    0.000 
#
# Total GULP energy -89342.051589 kJ/mol
# GULP energy per Si atom -5583.878224 kJ/mol
# Density = 2.348548 g / cm^3
# Si number density = 23.539052 Si / 1000 Ang^3
#
#
#
# Elastic Constant Matrix: (Units=GPa)
#
#
# Indices 1 2 3 4 5 6 
#
# 1 218.9249 63.3903 88.2346 0.0000 10.7319 0.0000
# 2 63.3903 148.3571 63.4628 0.0000 -0.2638 0.0000
# 3 88.2346 63.4628 123.8549 0.0000 4.2188 0.0000
# 4 0.0000 0.0000 0.0000 47.3540 0.0000 -3.5583
# 5 10.7319 -0.2638 4.2188 0.0000 23.0384 0.0000
# 6 0.0000 0.0000 0.0000 -3.5583 0.0000 8.4349
#
#
#
# Elastic Compliance Matrix: (Units=1/GPa)
#
#
# Indices 1 2 3 4 5 6 
#
# 1 0.006652 -0.001093 -0.004098 0.000000 -0.002361 0.000000
# 2 -0.001093 0.008832 -0.003791 0.000000 0.001305 0.000000
# 3 -0.004098 -0.003791 0.012953 0.000000 -0.000506 0.000000
# 4 0.000000 0.000000 0.000000 0.021809 0.000000 0.009200
# 5 -0.002361 0.001305 -0.000506 0.000000 0.044613 0.000000
# 6 0.000000 0.000000 0.000000 0.009200 0.000000 0.122437
#
#
# Mechanical properties :
#
#
# Convention : Reuss Voigt Hill
#
# Bulk Modulus (GPa) = 95.49317 102.36803 98.93060
# Shear Modulus (GPa) = 20.94239 34.16872 27.55555
#
# Velocity S-wave (km/s) = 2.98600 3.81409 3.42516
# Velocity P-wave (km/s) = 7.24874 7.93595 7.60012
#
# Compressibility (1/GPa) = 0.01047195
#
# Stress axis : x y z
#
# Youngs Moduli (GPa) = 150.33620 113.23024 77.20149
#
# Poissons Ratio (x) = 0.12380 0.31638
# Poissons Ratio (y) = 0.16437 0.29266
# Poissons Ratio (z) = 0.61609 0.42923
#
# Static dielectric constant tensor:
#      x y z
#    x 1.952120 0.000000 -0.029920 
#    y 0.000000 1.890860 0.000000 
#    z -0.029920 0.000000 1.937620 
# 
# From -- ./inp_files/286974.got.cif
#   From: 2010.05.17/outbox.cif.g08.bks.cpg/sg15_144_cif.got.tgz:286974.got - 2010.06.03 18:47:42.
