data_PCOD9297751
_publ_section_title
;
Structure prediction by ZEFSAII (Michael W. Deem and Ramdas Pophale) SiO2 
 PCOD9297751
Probable space group: C 2/C
;
_chemical_formula_sum "Si O2"
_cell_formula_units_Z 36
_cell_length_a 18.041758
_cell_length_b 9.109202
_cell_length_c 10.686145
_cell_angle_alpha 90.000000
_cell_angle_beta 113.092840
_cell_angle_gamma 90.000000
_cell_volume 1615.499951
_symmetry_space_group_name_H-M "C 2/C"
_symmetry_group_IT_number 15
_symmetry_cell_setting 'monoclinic'
loop_
_space_group_symop_operation_xyz
x,y,z
-x,y,1/2-z
-x,-y,-z
x,-y,1/2+z
1/2+x,1/2+y,z
1/2-x,1/2+y,1/2-z
1/2-x,1/2-y,-z
1/2+x,1/2-y,1/2+z
loop_
_atom_site_type_symbol
_atom_site_label
_atom_site_fract_x
_atom_site_fract_y
_atom_site_fract_z
Si Si1 0.858961 0.641314 0.148871
Si Si2 0.578622 0.545197 0.472366
Si Si3 0.500000 0.676756 0.750000
Si Si4 0.160516 0.704739 0.892577
Si Si5 0.686008 0.311152 0.632637
O O1 0.937928 0.706523 0.269760
O O2 0.855955 0.467917 0.123711
O O3 0.781381 0.689099 0.176908
O O4 0.850207 0.711958 0.003633
O O5 0.500000 0.500000 0.500000
O O6 0.564220 0.439838 0.344763
O O7 0.596506 0.706715 0.435699
O O8 0.655404 0.477579 0.592843
O O9 0.156900 0.759533 0.747432
O O10 0.250000 0.750000 0.000000
#
# Coordination Sequence:
#
# PCOD9297751 Si02
#       5
#     8   8   4   8   8
#     4  10  24  44  69 101 139 189 235 295 351 419
#     4  11  24  43  67 101 138 183 227 295 357 417
#     4  10  24  42  66  92 140 182 226 286 360 408
#     4  12  26  41  74 105 135 186 242 289 352 425
#     4  10  24  44  67 100 143 184 237 287 355 424
#
# _framework density 22.284125
#
# number of rings (size 3 to 8) (size 9 to 14) (size 15 to 20)
#    0.000    1.333    2.222    1.333    6.222    2.667 
#    0.000    4.444    0.000    0.000    0.000    0.000 
#    0.000    0.000    0.000    0.000    0.000    0.000 
#
# Total GULP energy -100356.008218 kJ/mol
# GULP energy per Si atom -5575.333790 kJ/mol
# Density = 2.223341 g / cm^3
# Si number density = 22.284125 Si / 1000 Ang^3
#
#
#
# Elastic Constant Matrix: (Units=GPa)
#
#
# Indices 1 2 3 4 5 6 
#
# 1 65.9588 -4.6422 5.9099 0.0000 -8.8634 0.0000
# 2 -4.6422 127.7722 7.2429 0.0000 -13.8621 0.0000
# 3 5.9099 7.2429 26.9555 0.0000 -18.2384 0.0000
# 4 0.0000 0.0000 0.0000 12.3980 0.0000 3.8479
# 5 -8.8634 -13.8621 -18.2384 0.0000 38.3455 0.0000
# 6 0.0000 0.0000 0.0000 3.8479 0.0000 37.3075
#
#
#
# Elastic Compliance Matrix: (Units=1/GPa)
#
#
# Indices 1 2 3 4 5 6 
#
# 1 0.015812 0.001019 -0.001502 0.000000 0.003309 0.000000
# 2 0.001019 0.008213 -0.000386 0.000000 0.003021 0.000000
# 3 -0.001502 -0.000386 0.054855 0.000000 0.025604 0.000000
# 4 0.000000 0.000000 0.000000 0.083326 0.000000 -0.008594
# 5 0.003309 0.003021 0.025604 0.000000 0.040114 0.000000
# 6 0.000000 0.000000 0.000000 -0.008594 0.000000 0.027691
#
#
# Mechanical properties :
#
#
# Convention : Reuss Voigt Hill
#
# Bulk Modulus (GPa) = 12.96317 26.41197 19.68757
# Shear Modulus (GPa) = 19.42029 31.75527 25.58778
#
# Velocity S-wave (km/s) = 2.95530 3.77904 3.39226
# Velocity P-wave (km/s) = 4.18030 5.56054 4.91907
#
# Compressibility (1/GPa) = 0.07714163
#
# Stress axis : x y z
#
# Youngs Moduli (GPa) = 63.24374 121.75729 18.22977
#
# Poissons Ratio (x) = -0.12402 0.02737
# Poissons Ratio (y) = -0.06442 0.00704
# Poissons Ratio (z) = 0.09497 0.04703
#
# Static dielectric constant tensor:
#      x y z
#    x 1.843200 0.000000 0.041980 
#    y 0.000000 1.795000 0.000000 
#    z 0.041980 0.000000 1.825080 
# 
# From -- ./inp_files/102634.got.cif
#   From: 2010.05.17/outbox.cif.g08.bks.cpg/sg15_52_cif.got.tgz:102634.got - 2010.06.03 18:47:42.
