data_PCOD9297544
_publ_section_title
;
Structure prediction by ZEFSAII (Michael W. Deem and Ramdas Pophale) SiO2 
 PCOD9297544
Probable space group: C 2/C
;
_chemical_formula_sum "Si O2"
_cell_formula_units_Z 60
_cell_length_a 20.635797
_cell_length_b 17.493283
_cell_length_c 12.773660
_cell_angle_alpha 90.000000
_cell_angle_beta 139.825284
_cell_angle_gamma 90.000000
_cell_volume 2974.738615
_symmetry_space_group_name_H-M "C 2/C"
_symmetry_group_IT_number 15
_symmetry_cell_setting 'monoclinic'
loop_
_space_group_symop_operation_xyz
x,y,z
-x,y,1/2-z
-x,-y,-z
x,-y,1/2+z
1/2+x,1/2+y,z
1/2-x,1/2+y,1/2-z
1/2-x,1/2-y,-z
1/2+x,1/2-y,1/2+z
loop_
_atom_site_type_symbol
_atom_site_label
_atom_site_fract_x
_atom_site_fract_y
_atom_site_fract_z
Si Si1 0.473169 0.319868 0.595864
Si Si2 0.500000 0.872777 0.250000
Si Si3 0.223341 0.761701 0.243644
Si Si4 0.155307 0.268441 0.308328
Si Si5 0.267792 0.089950 0.917490
Si Si6 0.398447 0.481079 0.432310
Si Si7 0.239740 0.908713 0.629576
Si Si8 0.588470 0.989154 0.525560
O O1 0.500000 0.309572 0.750000
O O2 0.390377 0.262989 0.443565
O O3 0.583319 0.302679 0.685466
O O4 0.421845 0.401833 0.520139
O O5 0.581157 0.825855 0.279213
O O6 0.558867 0.926463 0.403122
O O7 0.293194 0.793373 0.235708
O O8 0.236567 0.823880 0.350327
O O9 0.253754 0.678374 0.321963
O O10 0.250000 0.250000 0.500000
O O11 0.184198 0.036908 0.758560
O O12 0.371310 0.062622 0.989974
O O13 0.264255 0.083036 0.037505
O O14 0.500000 0.500000 0.500000
O O15 0.362702 0.548218 0.464799
O O16 0.322055 0.956232 0.794554
O O17 0.500000 0.000000 0.500000
#
# Coordination Sequence:
#
# PCOD9297544 Si02
#       8
#     8   4   8   8   8   8   8   8
#     4  11  22  39  61  96 130 162 206 271 321 376
#     4  12  24  38  64  96 128 164 212 270 322 388
#     4  11  23  42  64  93 130 167 217 266 318 391
#     4  12  21  38  61  95 128 163 204 259 331 379
#     4  10  24  42  63  93 126 169 216 264 320 385
#     4  10  24  41  63  94 129 168 217 262 319 390
#     4  11  23  43  66  92 126 173 216 260 322 386
#     4  11  23  42  63  93 128 166 215 267 320 388
#
# _framework density 20.169840000000001
#
# number of rings (size 3 to 8) (size 9 to 14) (size 15 to 20)
#    0.000    1.067    2.000    4.400    1.867    3.200 
#    0.000    0.000    0.000    6.400    0.000    0.000 
#    0.000    0.000    0.000    0.000    0.000    0.000 
#
# Total GULP energy -167390.295712 kJ/mol
# GULP energy per Si atom -5579.676524 kJ/mol
# Density = 2.012393 g / cm^3
# Si number density = 20.169840 Si / 1000 Ang^3
#
#
#
# Elastic Constant Matrix: (Units=GPa)
#
#
# Indices 1 2 3 4 5 6 
#
# 1 130.0670 42.5071 52.9147 0.0000 -1.7108 0.0000
# 2 42.5071 94.6865 43.5048 0.0000 -4.4193 0.0000
# 3 52.9147 43.5048 108.2475 0.0000 -9.4857 0.0000
# 4 0.0000 0.0000 0.0000 223.4776 0.0000 -87.5499
# 5 -1.7108 -4.4193 -9.4857 0.0000 42.8432 0.0000
# 6 0.0000 0.0000 0.0000 -87.5499 0.0000 70.0643
#
#
#
# Elastic Compliance Matrix: (Units=1/GPa)
#
#
# Indices 1 2 3 4 5 6 
#
# 1 0.010191 -0.002810 -0.003918 0.000000 -0.000750 0.000000
# 2 -0.002810 0.013729 -0.004110 0.000000 0.000394 0.000000
# 3 -0.003918 -0.004110 0.013007 0.000000 0.002299 0.000000
# 4 0.000000 0.000000 0.000000 0.008766 0.000000 0.010954
# 5 -0.000750 0.000394 0.002299 0.000000 0.023861 0.000000
# 6 0.000000 0.000000 0.000000 0.010954 0.000000 0.027960
#
#
# Mechanical properties :
#
#
# Convention : Reuss Voigt Hill
#
# Bulk Modulus (GPa) = 65.56780 67.87270 66.72025
# Shear Modulus (GPa) = 40.23443 80.21532 60.22488
#
# Velocity S-wave (km/s) = 4.47114 6.31318 5.47026
# Velocity P-wave (km/s) = 7.69631 9.32016 8.54689
#
# Compressibility (1/GPa) = 0.01525139
#
# Stress axis : x y z
#
# Youngs Moduli (GPa) = 98.12903 72.83761 76.88425
#
# Poissons Ratio (x) = 0.20465 0.30124
# Poissons Ratio (y) = 0.27571 0.31598
# Poissons Ratio (z) = 0.38447 0.29935
#
# Static dielectric constant tensor:
#      x y z
#    x 1.771560 0.000000 0.038080 
#    y 0.000000 1.626310 0.000000 
#    z 0.038080 0.000000 1.694780 
# 
# From -- ./inp_files/113813.got.cif
#   From: 2010.05.17/outbox.cif.g08.bks.cpg/sg15_57_cif.got.tgz:113813.got - 2010.06.03 18:47:42.
