data_PCOD9297148
_publ_section_title
;
Structure prediction by ZEFSAII (Michael W. Deem and Ramdas Pophale) SiO2 
 PCOD9297148
Probable space group: C 2/C
;
_chemical_formula_sum "Si O2"
_cell_formula_units_Z 48
_cell_length_a 13.139251
_cell_length_b 27.655397
_cell_length_c 8.168511
_cell_angle_alpha 90.000000
_cell_angle_beta 133.791208
_cell_angle_gamma 90.000000
_cell_volume 2142.645136
_symmetry_space_group_name_H-M "C 2/C"
_symmetry_group_IT_number 15
_symmetry_cell_setting 'monoclinic'
loop_
_space_group_symop_operation_xyz
x,y,z
-x,y,1/2-z
-x,-y,-z
x,-y,1/2+z
1/2+x,1/2+y,z
1/2-x,1/2+y,1/2-z
1/2-x,1/2-y,-z
1/2+x,1/2-y,1/2+z
loop_
_atom_site_type_symbol
_atom_site_label
_atom_site_fract_x
_atom_site_fract_y
_atom_site_fract_z
Si Si1 0.123534 0.357991 0.672976
Si Si2 0.500000 0.777879 0.750000
Si Si3 0.129482 0.566999 0.629678
Si Si4 0.143184 0.902901 0.358059
Si Si5 0.774352 0.807086 0.551177
Si Si6 0.000000 0.486962 0.250000
Si Si7 0.555364 0.689209 0.570979
O O1 0.113726 0.316511 0.803703
O O2 0.157611 0.333027 0.535281
O O3 0.977178 0.387529 0.504668
O O4 0.244292 0.394867 0.870541
O O5 0.514418 0.739740 0.614912
O O6 0.277929 0.576449 0.712096
O O7 0.117208 0.547696 0.799976
O O8 0.068400 0.523187 0.454242
O O9 0.907241 0.850467 0.256369
O O10 0.000000 0.929720 0.250000
O O11 0.750000 0.750000 0.500000
O O12 0.915388 0.819424 0.809565
O O13 0.812445 0.817447 0.405669
#
# Coordination Sequence:
#
# PCOD9297148 Si02
#       7
#     8   4   8   8   8   4   8
#     4  12  23  42  65  97 130 180 235 270 331 405
#     4  12  21  40  62  88 132 186 240 266 311 394
#     4  11  24  46  74 104 125 175 215 286 343 421
#     4  12  23  43  66  97 138 175 224 275 340 405
#     4  11  24  40  56  88 137 181 232 279 324 384
#     4  10  23  48  78  98 136 156 228 282 351 414
#     4  11  25  38  57  91 131 185 225 283 325 372
#
# _framework density 22.402215000000002
#
# number of rings (size 3 to 8) (size 9 to 14) (size 15 to 20)
#    0.000    0.667    7.500    0.000    4.667    1.333 
#    0.000    0.833    0.000    0.000    0.000    0.000 
#    0.000    0.000    0.000    0.000    0.000    0.000 
#
# Total GULP energy -133620.531673 kJ/mol
# GULP energy per Si atom -5567.522153 kJ/mol
# Density = 2.235123 g / cm^3
# Si number density = 22.402215 Si / 1000 Ang^3
#
#
#
# Elastic Constant Matrix: (Units=GPa)
#
#
# Indices 1 2 3 4 5 6 
#
# 1 229.3659 53.8346 21.4886 0.0000 -11.7155 0.0000
# 2 53.8346 60.6599 7.7231 0.0000 -1.2668 0.0000
# 3 21.4886 7.7231 21.1425 0.0000 1.8521 0.0000
# 4 0.0000 0.0000 0.0000 20.0241 0.0000 -33.0481
# 5 -11.7155 -1.2668 1.8521 0.0000 26.6306 0.0000
# 6 0.0000 0.0000 0.0000 -33.0481 0.0000 47.3901
#
#
#
# Elastic Compliance Matrix: (Units=1/GPa)
#
#
# Indices 1 2 3 4 5 6 
#
# 1 0.006044 -0.004712 -0.004663 0.000000 0.002759 0.000000
# 2 -0.004712 0.021007 -0.002807 0.000000 -0.000879 0.000000
# 3 -0.004663 -0.002807 0.053580 0.000000 -0.005911 0.000000
# 4 0.000000 0.000000 0.000000 -0.330858 0.000000 -0.230728
# 5 0.002759 -0.000879 -0.005911 0.000000 0.039134 0.000000
# 6 0.000000 0.000000 0.000000 -0.230728 0.000000 -0.139800
#
#
# Mechanical properties :
#
#
# Convention : Reuss Voigt Hill
#
# Bulk Modulus (GPa) = 17.77268 53.02900 35.40084
# Shear Modulus (GPa) = -16.24571 34.01708 8.88568
#
# Velocity S-wave (km/s) = -2.69584 3.90098 1.99375
# Velocity P-wave (km/s) = 1.31888 6.63422 4.59747
#
# Compressibility (1/GPa) = 0.05626615
#
# Stress axis : x y z
#
# Youngs Moduli (GPa) = 165.46266 47.60424 18.66354
#
# Poissons Ratio (x) = 0.22433 0.08703
# Poissons Ratio (y) = 0.77972 0.05239
# Poissons Ratio (z) = 0.77154 0.13362
#
# Static dielectric constant tensor:
#      x y z
#    x 2.038300 0.000000 -0.063270 
#    y 0.000000 1.931830 0.000000 
#    z -0.063270 0.000000 1.893110 
# 
# From -- ./inp_files/33847.got.cif
#   From: 2010.05.17/outbox.cif.g08.bks.cpg/sg15_17_cif.got.tgz:33847.got - 2010.06.03 18:47:42.
