data_PCOD9297191
_publ_section_title
;
Structure prediction by ZEFSAII (Michael W. Deem and Ramdas Pophale) SiO2 
 PCOD9297191
Probable space group: C 2/C
;
_chemical_formula_sum "Si O2"
_cell_formula_units_Z 52
_cell_length_a 24.805141
_cell_length_b 8.262301
_cell_length_c 9.466731
_cell_angle_alpha 90.000000
_cell_angle_beta 85.349474
_cell_angle_gamma 90.000000
_cell_volume 1933.795709
_symmetry_space_group_name_H-M "C 2/C"
_symmetry_group_IT_number 15
_symmetry_cell_setting 'monoclinic'
loop_
_space_group_symop_operation_xyz
x,y,z
-x,y,1/2-z
-x,-y,-z
x,-y,1/2+z
1/2+x,1/2+y,z
1/2-x,1/2+y,1/2-z
1/2-x,1/2-y,-z
1/2+x,1/2-y,1/2+z
loop_
_atom_site_type_symbol
_atom_site_label
_atom_site_fract_x
_atom_site_fract_y
_atom_site_fract_z
Si Si1 0.197622 0.057659 0.035825
Si Si2 0.333136 0.178422 0.501789
Si Si3 0.917656 0.052856 0.456168
Si Si4 0.437365 0.306755 0.231595
Si Si5 0.939648 0.523187 0.581497
Si Si6 0.229328 0.519979 0.724263
Si Si7 0.500000 0.264411 0.750000
O O1 0.183184 0.868888 0.999705
O O2 0.304204 0.898825 0.869510
O O3 0.234984 0.116387 0.899595
O O4 0.139237 0.141352 0.057768
O O5 0.392956 0.095740 0.494039
O O6 0.307946 0.114463 0.655934
O O7 0.227064 0.943305 0.678336
O O8 0.925816 0.051117 0.621128
O O9 0.970247 0.136561 0.378833
O O10 0.914364 0.881921 0.378428
O O11 0.500000 0.282092 0.250000
O O12 0.420458 0.143920 0.156522
O O13 0.000000 0.500000 0.500000
O O14 0.952842 0.653352 0.698259
#
# Coordination Sequence:
#
# PCOD9297191 Si02
#       7
#     8   8   8   8   8   8   4
#     4  11  26  51  80 116 158 203 267 332 395 473
#     4  11  28  48  82 112 161 206 260 330 402 467
#     4  12  28  48  79 115 157 212 261 322 394 463
#     4  12  27  48  74 113 158 212 256 318 380 466
#     4  12  29  51  78 118 165 208 269 317 397 478
#     4  10  23  52  76 115 146 206 261 329 394 467
#     4  12  28  48  78 118 162 210 264 322 386 482
#
# _framework density 26.890121000000001
#
# number of rings (size 3 to 8) (size 9 to 14) (size 15 to 20)
#    0.000    0.615    3.077    3.231   10.769    0.000 
#    5.538    6.154    0.000    0.000    0.000    0.000 
#    0.000    0.000    0.000    0.000    0.000    0.000 
#
# Total GULP energy -145635.864083 kJ/mol
# GULP energy per Si atom -5601.379388 kJ/mol
# Density = 2.682892 g / cm^3
# Si number density = 26.890121 Si / 1000 Ang^3
#
#
#
# Elastic Constant Matrix: (Units=GPa)
#
#
# Indices 1 2 3 4 5 6 
#
# 1 156.0515 18.5531 54.6958 0.0000 20.0845 0.0000
# 2 18.5531 122.4516 72.5956 0.0000 14.0691 0.0000
# 3 54.6958 72.5956 139.9766 0.0000 15.4114 0.0000
# 4 0.0000 0.0000 0.0000 27.5847 0.0000 11.8862
# 5 20.0845 14.0691 15.4114 0.0000 55.1240 0.0000
# 6 0.0000 0.0000 0.0000 11.8862 0.0000 12.5734
#
#
#
# Elastic Compliance Matrix: (Units=1/GPa)
#
#
# Indices 1 2 3 4 5 6 
#
# 1 0.007726 0.001048 -0.003326 0.000000 -0.002153 0.000000
# 2 0.001048 0.012031 -0.006468 0.000000 -0.001644 0.000000
# 3 -0.003326 -0.006468 0.011848 0.000000 -0.000450 0.000000
# 4 0.000000 0.000000 0.000000 0.061169 0.000000 -0.057826
# 5 -0.002153 -0.001644 -0.000450 0.000000 0.019471 0.000000
# 6 0.000000 0.000000 0.000000 -0.057826 0.000000 0.134199
#
#
# Mechanical properties :
#
#
# Convention : Reuss Voigt Hill
#
# Bulk Modulus (GPa) = 70.85215 78.90763 74.87989
# Shear Modulus (GPa) = 18.61229 37.23208 27.92218
#
# Velocity S-wave (km/s) = 2.63375 3.72506 3.22589
# Velocity P-wave (km/s) = 5.97117 6.92168 6.46392
#
# Compressibility (1/GPa) = 0.01411390
#
# Stress axis : x y z
#
# Youngs Moduli (GPa) = 129.42909 83.11602 84.40404
#
# Poissons Ratio (x) = -0.08714 0.28070
# Poissons Ratio (y) = -0.13569 0.54596
# Poissons Ratio (z) = 0.43044 0.53763
#
# Static dielectric constant tensor:
#      x y z
#    x 2.377200 0.000000 -0.509350 
#    y 0.000000 2.190120 0.000000 
#    z -0.509350 0.000000 2.810470 
# 
# From -- ./inp_files/121452.got.cif
#   From: 2010.05.17/outbox.cif.g08.bks.cpg/sg15_61_cif.got.tgz:121452.got - 2010.06.03 18:47:42.
