data_PCOD9297446
_publ_section_title
;
Structure prediction by ZEFSAII (Michael W. Deem and Ramdas Pophale) SiO2 
 PCOD9297446
Probable space group: C 2/C
;
_chemical_formula_sum "Si O2"
_cell_formula_units_Z 32
_cell_length_a 8.976823
_cell_length_b 5.386981
_cell_length_c 27.302410
_cell_angle_alpha 90.000000
_cell_angle_beta 94.246719
_cell_angle_gamma 90.000000
_cell_volume 1316.664308
_symmetry_space_group_name_H-M "C 2/C"
_symmetry_group_IT_number 15
_symmetry_cell_setting 'monoclinic'
loop_
_space_group_symop_operation_xyz
x,y,z
-x,y,1/2-z
-x,-y,-z
x,-y,1/2+z
1/2+x,1/2+y,z
1/2-x,1/2+y,1/2-z
1/2-x,1/2-y,-z
1/2+x,1/2-y,1/2+z
loop_
_atom_site_type_symbol
_atom_site_label
_atom_site_fract_x
_atom_site_fract_y
_atom_site_fract_z
Si Si1 0.071127 0.014492 0.113363
Si Si2 0.673074 0.637152 0.267466
Si Si3 0.780971 0.203498 0.056983
Si Si4 0.858141 0.483680 0.861006
O O1 0.094784 0.241415 0.150670
O O2 0.944671 0.104146 0.072816
O O3 0.223188 0.938974 0.087702
O O4 0.032732 0.752854 0.139130
O O5 0.500000 0.615832 0.250000
O O6 0.735540 0.910842 0.255724
O O7 0.716595 0.594766 0.325562
O O8 0.676199 0.002330 0.081638
O O9 0.750000 0.250000 0.000000
#
# Coordination Sequence:
#
# PCOD9297446 Si02
#       4
#     8   8   8   8
#     4  10  24  40  67  93 136 171 223 272 341 398
#     4  12  28  47  74 105 141 185 238 292 356 421
#     4  10  24  42  66  98 133 176 223 275 339 408
#     4  10  26  42  70  94 137 173 225 282 342 408
#
# _framework density 24.303840000000001
#
# number of rings (size 3 to 8) (size 9 to 14) (size 15 to 20)
#    1.500    0.000    0.000    3.000   10.500    2.000 
#    0.000    0.000    0.000    0.000    0.000    0.000 
#    0.000    0.000    0.000    0.000    0.000    0.000 
#
# Total GULP energy -89199.356285 kJ/mol
# GULP energy per Si atom -5574.959768 kJ/mol
# Density = 2.424852 g / cm^3
# Si number density = 24.303840 Si / 1000 Ang^3
#
#
#
# Elastic Constant Matrix: (Units=GPa)
#
#
# Indices 1 2 3 4 5 6 
#
# 1 109.1424 71.2110 6.4842 0.0000 30.2707 0.0000
# 2 71.2110 198.0447 37.7020 0.0000 13.1972 0.0000
# 3 6.4842 37.7020 74.0737 0.0000 4.1462 0.0000
# 4 0.0000 0.0000 0.0000 21.7577 0.0000 1.6915
# 5 30.2707 13.1972 4.1462 0.0000 35.0499 0.0000
# 6 0.0000 0.0000 0.0000 1.6915 0.0000 43.3308
#
#
#
# Elastic Compliance Matrix: (Units=1/GPa)
#
#
# Indices 1 2 3 4 5 6 
#
# 1 0.015763 -0.005249 0.001956 0.000000 -0.011868 0.000000
# 2 -0.005249 0.007452 -0.003453 0.000000 0.002136 0.000000
# 3 0.001956 -0.003453 0.015209 0.000000 -0.002189 0.000000
# 4 0.000000 0.000000 0.000000 0.046101 0.000000 -0.001800
# 5 -0.011868 0.002136 -0.002189 0.000000 0.038235 0.000000
# 6 0.000000 0.000000 0.000000 -0.001800 0.000000 0.023149
#
#
# Mechanical properties :
#
#
# Convention : Reuss Voigt Hill
#
# Bulk Modulus (GPa) = 40.10981 68.00611 54.05796
# Shear Modulus (GPa) = 29.81327 37.75192 33.78259
#
# Velocity S-wave (km/s) = 3.50621 3.94551 3.73233
# Velocity P-wave (km/s) = 5.73853 6.98559 6.39254
#
# Compressibility (1/GPa) = 0.02493156
#
# Stress axis : x y z
#
# Youngs Moduli (GPa) = 63.44031 134.19448 65.75147
#
# Poissons Ratio (x) = 0.70444 -0.12863
# Poissons Ratio (y) = 0.33302 0.22703
# Poissons Ratio (z) = -0.12411 0.46336
#
# Static dielectric constant tensor:
#      x y z
#    x 1.932990 0.000000 -0.037090 
#    y 0.000000 2.032120 0.000000 
#    z -0.037090 0.000000 1.936940 
# 
# From -- ./inp_files/306164.got.cif
#   From: 2010.05.17/outbox.cif.g08.bks.cpg/sg15_154_cif.got.tgz:306164.got - 2010.06.03 18:47:42.
