data_PCOD9297416
_publ_section_title
;
Structure prediction by ZEFSAII (Michael W. Deem and Ramdas Pophale) SiO2 
 PCOD9297416
Probable space group: C 2/C
;
_chemical_formula_sum "Si O2"
_cell_formula_units_Z 40
_cell_length_a 19.477316
_cell_length_b 17.290489
_cell_length_c 13.425194
_cell_angle_alpha 90.000000
_cell_angle_beta 22.764697
_cell_angle_gamma 90.000000
_cell_volume 1749.480095
_symmetry_space_group_name_H-M "C 2/C"
_symmetry_group_IT_number 15
_symmetry_cell_setting 'monoclinic'
loop_
_space_group_symop_operation_xyz
x,y,z
-x,y,1/2-z
-x,-y,-z
x,-y,1/2+z
1/2+x,1/2+y,z
1/2-x,1/2+y,1/2-z
1/2-x,1/2-y,-z
1/2+x,1/2-y,1/2+z
loop_
_atom_site_type_symbol
_atom_site_label
_atom_site_fract_x
_atom_site_fract_y
_atom_site_fract_z
Si Si1 0.902465 0.232952 0.714848
Si Si2 0.144991 0.099354 0.875701
Si Si3 0.752590 0.361483 0.806386
Si Si4 0.240888 0.450608 0.897108
Si Si5 0.823176 0.481653 0.297866
O O1 0.840442 0.175649 0.709480
O O2 0.910498 0.315748 0.649715
O O3 0.076796 0.192192 0.528018
O O4 0.750000 0.250000 0.000000
O O5 0.228139 0.090782 0.873097
O O6 0.237627 0.032099 0.687213
O O7 0.939855 0.076261 0.159527
O O8 0.809313 0.388260 0.620014
O O9 0.711802 0.439230 0.924792
O O10 0.145006 0.465744 0.129344
O O11 0.000000 0.500000 0.000000
#
# Coordination Sequence:
#
# PCOD9297416 Si02
#       5
#     8   8   8   8   8
#     4  11  22  40  65  96 142 176 224 279 349 416
#     4   9  20  36  64  92 125 173 224 274 342 399
#     4  10  24  40  65 103 133 179 227 282 352 410
#     4   9  19  41  64  91 129 171 230 282 332 406
#     4  11  23  40  70  96 134 175 235 289 343 401
#
# _framework density 22.863935999999999
#
# number of rings (size 3 to 8) (size 9 to 14) (size 15 to 20)
#    0.000    2.000    0.000    3.600    2.800    8.000 
#    3.600    1.000    8.800    0.000    0.000    0.000 
#    0.000    0.000    0.000    0.000    0.000    0.000 
#
# Total GULP energy -111705.757127 kJ/mol
# GULP energy per Si atom -5585.287856 kJ/mol
# Density = 2.281190 g / cm^3
# Si number density = 22.863936 Si / 1000 Ang^3
#
#
#
# Elastic Constant Matrix: (Units=GPa)
#
#
# Indices 1 2 3 4 5 6 
#
# 1 145.6531 29.3543 30.7010 0.0022 19.3160 -0.0014
# 2 29.3543 87.0430 23.3960 0.0030 2.5710 -0.0024
# 3 30.7010 23.3960 90.9558 -0.0007 18.3096 -0.0012
# 4 0.0022 0.0030 -0.0007 28.7834 -0.0009 -21.7884
# 5 19.3160 2.5710 18.3096 -0.0009 40.7160 0.0008
# 6 -0.0014 -0.0024 -0.0012 -21.7884 0.0008 43.4832
#
#
#
# Elastic Compliance Matrix: (Units=1/GPa)
#
#
# Indices 1 2 3 4 5 6 
#
# 1 0.008030 -0.002205 -0.001544 -0.000001 -0.002976 0.000000
# 2 -0.002205 0.012966 -0.002899 -0.000001 0.001531 0.000000
# 3 -0.001544 -0.002899 0.013279 0.000001 -0.005056 0.000001
# 4 -0.000001 -0.000001 0.000001 0.055973 0.000000 0.028047
# 5 -0.002976 0.001531 -0.005056 0.000000 0.028149 0.000000
# 6 0.000000 0.000000 0.000001 0.028047 0.000000 0.037051
#
#
# Mechanical properties :
#
#
# Convention : Reuss Voigt Hill
#
# Bulk Modulus (GPa) = 47.66775 54.50606 51.08691
# Shear Modulus (GPa) = 28.45141 38.60992 33.53066
#
# Velocity S-wave (km/s) = 3.53140 4.11382 3.83369
# Velocity P-wave (km/s) = 6.12548 6.81584 6.47986
#
# Compressibility (1/GPa) = 0.02097854
#
# Stress axis : x y z
#
# Youngs Moduli (GPa) = 124.53015 77.12330 75.30659
#
# Poissons Ratio (x) = 0.17007 0.11629
# Poissons Ratio (y) = 0.27460 0.21832
# Poissons Ratio (z) = 0.19230 0.22359
#
# Static dielectric constant tensor:
#      x y z
#    x 1.883690 0.000000 -0.046230 
#    y 0.000000 1.872160 0.000000 
#    z -0.046230 0.000000 1.920550 
# 
# From -- ./inp_files/169059.got.cif
#   From: 2010.05.17/outbox.cif.g08.bks.cpg/sg15_85_cif.got.tgz:169059.got - 2010.06.03 18:47:42.
