data_PCOD9297107
_publ_section_title
;
Structure prediction by ZEFSAII (Michael W. Deem and Ramdas Pophale) SiO2 
 PCOD9297107
Probable space group: C 2/C
;
_chemical_formula_sum "Si O2"
_cell_formula_units_Z 32
_cell_length_a 11.106984
_cell_length_b 23.210962
_cell_length_c 5.446380
_cell_angle_alpha 90.000000
_cell_angle_beta 86.060326
_cell_angle_gamma 90.000000
_cell_volume 1400.779409
_symmetry_space_group_name_H-M "C 2/C"
_symmetry_group_IT_number 15
_symmetry_cell_setting 'monoclinic'
loop_
_space_group_symop_operation_xyz
x,y,z
-x,y,1/2-z
-x,-y,-z
x,-y,1/2+z
1/2+x,1/2+y,z
1/2-x,1/2+y,1/2-z
1/2-x,1/2-y,-z
1/2+x,1/2-y,1/2+z
loop_
_atom_site_type_symbol
_atom_site_label
_atom_site_fract_x
_atom_site_fract_y
_atom_site_fract_z
Si Si1 0.831180 0.841071 0.963092
Si Si2 0.957246 0.338591 0.506198
Si Si3 0.117713 0.777076 0.037179
Si Si4 0.638023 0.476438 0.486139
O O1 0.882830 0.808058 0.195477
O O2 0.686426 0.830781 0.978332
O O3 0.881815 0.820476 0.693254
O O4 0.858982 0.908016 0.994726
O O5 0.000000 0.368730 0.750000
O O6 0.029739 0.277522 0.504475
O O7 0.000000 0.367873 0.250000
O O8 0.250000 0.750000 0.000000
O O9 0.500000 0.500000 0.500000
O O10 0.695129 0.496929 0.223079
#
# Coordination Sequence:
#
# PCOD9297107 Si02
#       4
#     8   8   8   8
#     4  12  24  44  69  95 139 185 210 283 338 374
#     4  12  23  40  63  99 145 175 222 253 318 417
#     4  12  23  41  64 106 144 178 214 255 325 426
#     4  10  23  48  68  96 124 165 233 293 331 384
#
# _framework density 22.844422999999999
#
# number of rings (size 3 to 8) (size 9 to 14) (size 15 to 20)
#    0.000    0.500    5.000    3.750    0.000    0.000 
#   27.000    0.000    0.000    4.500    0.000    0.000 
#    0.000    0.000    0.000    0.000    0.000    0.000 
#
# Total GULP energy -89517.419746 kJ/mol
# GULP energy per Si atom -5594.838734 kJ/mol
# Density = 2.279243 g / cm^3
# Si number density = 22.844423 Si / 1000 Ang^3
#
#
#
# Elastic Constant Matrix: (Units=GPa)
#
#
# Indices 1 2 3 4 5 6 
#
# 1 120.8899 7.6236 -8.7706 0.0000 31.7110 0.0000
# 2 7.6236 125.5179 23.5751 0.0000 13.1134 0.0000
# 3 -8.7706 23.5751 230.6304 0.0000 17.7752 0.0000
# 4 0.0000 0.0000 0.0000 30.2080 0.0000 3.4986
# 5 31.7110 13.1134 17.7752 0.0000 30.2533 0.0000
# 6 0.0000 0.0000 0.0000 3.4986 0.0000 13.8675
#
#
#
# Elastic Compliance Matrix: (Units=1/GPa)
#
#
# Indices 1 2 3 4 5 6 
#
# 1 0.011891 0.000415 0.001450 0.000000 -0.013496 0.000000
# 2 0.000415 0.008440 -0.000557 0.000000 -0.003767 0.000000
# 3 0.001450 -0.000557 0.004762 0.000000 -0.004077 0.000000
# 4 0.000000 0.000000 0.000000 0.034100 0.000000 -0.008603
# 5 -0.013496 -0.003767 -0.004077 0.000000 0.051228 0.000000
# 6 0.000000 0.000000 0.000000 -0.008603 0.000000 0.074281
#
#
# Mechanical properties :
#
#
# Convention : Reuss Voigt Hill
#
# Bulk Modulus (GPa) = 36.08723 57.98829 47.03776
# Shear Modulus (GPa) = 26.13387 45.17309 35.65348
#
# Velocity S-wave (km/s) = 3.38597 4.45165 3.95487
# Velocity P-wave (km/s) = 5.57832 7.20153 6.44126
#
# Compressibility (1/GPa) = 0.02771063
#
# Stress axis : x y z
#
# Youngs Moduli (GPa) = 84.09586 118.48591 209.98856
#
# Poissons Ratio (x) = -0.04922 -0.30447
# Poissons Ratio (y) = -0.03494 0.11688
# Poissons Ratio (z) = -0.12193 0.06595
#
# Static dielectric constant tensor:
#      x y z
#    x 1.919380 0.000000 -0.114990 
#    y 0.000000 1.891080 0.000000 
#    z -0.114990 0.000000 2.346000 
# 
# From -- ./inp_files/3674.got.cif
#   From: 2010.05.17/outbox.cif.g08.bks.cpg/sg15_2_cif.got.tgz:3674.got - 2010.06.03 18:47:42.
