data_PCOD9297944
_publ_section_title
;
Structure prediction by ZEFSAII (Michael W. Deem and Ramdas Pophale) SiO2 
 PCOD9297944
Probable space group: C 2/C
;
_chemical_formula_sum "Si O2"
_cell_formula_units_Z 36
_cell_length_a 8.190926
_cell_length_b 13.568349
_cell_length_c 17.002242
_cell_angle_alpha 90.000000
_cell_angle_beta 58.859906
_cell_angle_gamma 90.000000
_cell_volume 1617.305181
_symmetry_space_group_name_H-M "C 2/C"
_symmetry_group_IT_number 15
_symmetry_cell_setting 'monoclinic'
loop_
_space_group_symop_operation_xyz
x,y,z
-x,y,1/2-z
-x,-y,-z
x,-y,1/2+z
1/2+x,1/2+y,z
1/2-x,1/2+y,1/2-z
1/2-x,1/2-y,-z
1/2+x,1/2-y,1/2+z
loop_
_atom_site_type_symbol
_atom_site_label
_atom_site_fract_x
_atom_site_fract_y
_atom_site_fract_z
Si Si1 0.177591 0.360142 0.002170
Si Si2 0.526941 0.489012 0.650888
Si Si3 0.243513 0.815345 0.079837
Si Si4 0.000000 0.313787 0.750000
Si Si5 0.640280 0.002405 0.156525
O O1 0.194872 0.435652 0.070571
O O2 0.954730 0.355807 0.039656
O O3 0.250000 0.250000 0.000000
O O4 0.313521 0.407143 0.903256
O O5 0.500000 0.499513 0.750000
O O6 0.601820 0.593875 0.601212
O O7 0.332446 0.465431 0.653295
O O8 0.167014 0.757816 0.176960
O O9 0.250000 0.750000 0.000000
O O10 0.985774 0.397281 0.823627
O O11 0.500000 0.942515 0.250000
#
# Coordination Sequence:
#
# PCOD9297944 Si02
#       5
#     8   8   8   4   8
#     4  12  26  46  71 104 144 190 240 290 367 426
#     4  12  25  44  71 105 144 185 245 297 357 428
#     4  12  25  44  73 107 141 184 237 297 358 429
#     4  10  24  42  72  98 148 180 238 282 364 414
#     4  10  24  45  70  98 145 191 237 292 358 424
#
# _framework density 22.259250000000002
#
# number of rings (size 3 to 8) (size 9 to 14) (size 15 to 20)
#    0.667    0.000    1.111    6.667    3.111    0.889 
#    0.000    0.000    0.000    0.000    0.000    0.000 
#    0.000    0.000    0.000    0.000    0.000    0.000 
#
# Total GULP energy -100443.576419 kJ/mol
# GULP energy per Si atom -5580.198690 kJ/mol
# Density = 2.220859 g / cm^3
# Si number density = 22.259250 Si / 1000 Ang^3
#
#
#
# Elastic Constant Matrix: (Units=GPa)
#
#
# Indices 1 2 3 4 5 6 
#
# 1 108.6486 15.7343 45.4318 0.0000 -20.1064 0.0000
# 2 15.7343 120.1829 56.0295 0.0000 -9.3921 0.0000
# 3 45.4318 56.0295 135.1038 -0.0001 -19.5677 0.0000
# 4 0.0000 0.0000 -0.0001 48.3787 0.0001 -19.1519
# 5 -20.1064 -9.3921 -19.5677 0.0001 31.9214 0.0000
# 6 0.0000 0.0000 0.0000 -19.1519 0.0000 22.5086
#
#
#
# Elastic Compliance Matrix: (Units=1/GPa)
#
#
# Indices 1 2 3 4 5 6 
#
# 1 0.011502 0.000439 -0.003273 0.000000 0.005368 0.000000
# 2 0.000439 0.010338 -0.004340 0.000000 0.000658 0.000000
# 3 -0.003273 -0.004340 0.010775 0.000000 0.003267 0.000000
# 4 0.000000 0.000000 0.000000 0.031169 0.000000 0.026521
# 5 0.005368 0.000658 0.003267 0.000000 0.036904 0.000000
# 6 0.000000 0.000000 0.000000 0.026521 0.000000 0.066993
#
#
# Mechanical properties :
#
#
# Convention : Reuss Voigt Hill
#
# Bulk Modulus (GPa) = 54.73679 66.48075 60.60877
# Shear Modulus (GPa) = 26.57912 37.01104 31.79508
#
# Velocity S-wave (km/s) = 3.45928 4.08208 3.78352
# Velocity P-wave (km/s) = 6.37177 7.22144 6.80987
#
# Compressibility (1/GPa) = 0.01826925
#
# Stress axis : x y z
#
# Youngs Moduli (GPa) = 86.93965 96.73332 92.80690
#
# Poissons Ratio (x) = -0.04250 0.30372
# Poissons Ratio (y) = -0.03820 0.40275
# Poissons Ratio (z) = 0.28452 0.41978
#
# Static dielectric constant tensor:
#      x y z
#    x 1.838550 0.000000 0.008720 
#    y 0.000000 1.858250 0.000000 
#    z 0.008720 0.000000 1.908010 
# 
# From -- ./inp_files/188667.got.cif
#   From: 2010.05.17/outbox.cif.g08.bks.cpg/sg15_95_cif.got.tgz:188667.got - 2010.06.03 18:47:42.
