data_PCOD9297955
_publ_section_title
;
Structure prediction by ZEFSAII (Michael W. Deem and Ramdas Pophale) SiO2 
 PCOD9297955
Probable space group: C 2/C
;
_chemical_formula_sum "Si O2"
_cell_formula_units_Z 28
_cell_length_a 12.219795
_cell_length_b 16.060432
_cell_length_c 8.830563
_cell_angle_alpha 90.000000
_cell_angle_beta 44.293216
_cell_angle_gamma 90.000000
_cell_volume 1210.237406
_symmetry_space_group_name_H-M "C 2/C"
_symmetry_group_IT_number 15
_symmetry_cell_setting 'monoclinic'
loop_
_space_group_symop_operation_xyz
x,y,z
-x,y,1/2-z
-x,-y,-z
x,-y,1/2+z
1/2+x,1/2+y,z
1/2-x,1/2+y,1/2-z
1/2-x,1/2-y,-z
1/2+x,1/2-y,1/2+z
loop_
_atom_site_type_symbol
_atom_site_label
_atom_site_fract_x
_atom_site_fract_y
_atom_site_fract_z
Si Si1 0.000000 0.003668 0.250000
Si Si2 0.121382 0.715325 0.011405
Si Si3 0.502287 0.908445 0.067467
Si Si4 0.150286 0.112822 0.366115
O O1 0.079392 0.061104 0.297518
O O2 0.875832 0.944216 0.459259
O O3 0.138883 0.645632 0.865737
O O4 0.066051 0.799444 0.981712
O O5 0.250000 0.750000 0.000000
O O6 0.000000 0.676836 0.250000
O O7 0.500000 0.910726 0.250000
O O8 0.669333 0.869803 0.852265
O O9 0.500000 0.000000 0.000000
#
# Coordination Sequence:
#
# PCOD9297955 Si02
#       4
#     4   8   8   8
#     4  10  24  42  74 104 142 188 238 306 360 436
#     4  12  26  46  73 105 147 192 240 304 369 433
#     4  12  28  47  75 105 148 195 251 303 367 441
#     4  11  24  45  70 104 142 188 244 295 369 429
#
# _framework density 23.135957999999999
#
# number of rings (size 3 to 8) (size 9 to 14) (size 15 to 20)
#    0.000    0.571    4.286    2.571    6.000    3.429 
#    0.000    0.000    0.000    0.000    0.000    0.000 
#    0.000    0.000    0.000    0.000    0.000    0.000 
#
# Total GULP energy -78261.954759 kJ/mol
# GULP energy per Si atom -5590.139626 kJ/mol
# Density = 2.308330 g / cm^3
# Si number density = 23.135958 Si / 1000 Ang^3
#
#
#
# Elastic Constant Matrix: (Units=GPa)
#
#
# Indices 1 2 3 4 5 6 
#
# 1 117.4236 54.6338 46.1153 0.0000 41.8531 0.0001
# 2 54.6338 146.0124 14.6769 0.0000 46.7847 0.0000
# 3 46.1153 14.6769 108.7719 0.0000 39.8805 0.0000
# 4 0.0000 0.0000 0.0000 27.7352 0.0000 11.9918
# 5 41.8531 46.7847 39.8805 0.0000 46.8776 0.0000
# 6 0.0001 0.0000 0.0000 11.9918 0.0000 45.3753
#
#
#
# Elastic Compliance Matrix: (Units=1/GPa)
#
#
# Indices 1 2 3 4 5 6 
#
# 1 0.013223 -0.002385 -0.002657 0.000000 -0.007165 0.000000
# 2 -0.002385 0.011433 0.004173 0.000000 -0.012831 0.000000
# 3 -0.002657 0.004173 0.015135 0.000000 -0.014668 0.000000
# 4 0.000000 0.000000 0.000000 0.040707 0.000000 -0.010758
# 5 -0.007165 -0.012831 -0.014668 0.000000 0.053013 0.000000
# 6 0.000000 0.000000 0.000000 -0.010758 0.000000 0.024882
#
#
# Mechanical properties :
#
#
# Convention : Reuss Voigt Hill
#
# Bulk Modulus (GPa) = 26.27957 67.00665 46.64311
# Shear Modulus (GPa) = 28.93257 41.11640 35.02448
#
# Velocity S-wave (km/s) = 3.54014 4.22022 3.89505
# Velocity P-wave (km/s) = 5.30034 7.26443 6.35868
#
# Compressibility (1/GPa) = 0.03805237
#
# Stress axis : x y z
#
# Youngs Moduli (GPa) = 75.62453 87.46709 66.07199
#
# Poissons Ratio (x) = 0.20859 0.17557
# Poissons Ratio (y) = 0.18035 -0.27570
# Poissons Ratio (z) = 0.20096 -0.36498
#
# Static dielectric constant tensor:
#      x y z
#    x 1.966810 0.000000 -0.068150 
#    y 0.000000 1.842820 0.000000 
#    z -0.068150 0.000000 1.905960 
# 
# From -- ./inp_files/27489.got.cif
#   From: 2010.05.17/outbox.cif.g08.bks.cpg/sg15_14_cif.got.tgz:27489.got - 2010.06.03 18:47:42.
