data_PCOD9297334
_publ_section_title
;
Structure prediction by ZEFSAII (Michael W. Deem and Ramdas Pophale) SiO2 
 PCOD9297334
Probable space group: C 2/C
;
_chemical_formula_sum "Si O2"
_cell_formula_units_Z 40
_cell_length_a 11.929191
_cell_length_b 14.651076
_cell_length_c 18.583491
_cell_angle_alpha 90.000000
_cell_angle_beta 151.055438
_cell_angle_gamma 90.000000
_cell_volume 1571.882556
_symmetry_space_group_name_H-M "C 2/C"
_symmetry_group_IT_number 15
_symmetry_cell_setting 'monoclinic'
loop_
_space_group_symop_operation_xyz
x,y,z
-x,y,1/2-z
-x,-y,-z
x,-y,1/2+z
1/2+x,1/2+y,z
1/2-x,1/2+y,1/2-z
1/2-x,1/2-y,-z
1/2+x,1/2-y,1/2+z
loop_
_atom_site_type_symbol
_atom_site_label
_atom_site_fract_x
_atom_site_fract_y
_atom_site_fract_z
Si Si1 0.301332 0.061094 0.310030
Si Si2 0.391687 0.192969 0.492009
Si Si3 0.605961 0.639521 0.730343
Si Si4 0.826527 0.115855 0.982780
Si Si5 0.321395 0.083595 0.094622
O O1 0.334509 0.125477 0.396063
O O2 0.097694 0.100224 0.146515
O O3 0.211678 0.962750 0.284703
O O4 0.537596 0.060223 0.398524
O O5 0.669008 0.200502 0.656942
O O6 0.283085 0.147431 0.502496
O O7 0.290632 0.292962 0.417071
O O8 0.500000 0.653425 0.750000
O O9 0.402164 0.640349 0.556037
O O10 0.741728 0.016961 0.909683
O O11 0.500000 0.129225 0.250000
#
# Coordination Sequence:
#
# PCOD9297334 Si02
#       5
#     8   8   8   8   8
#     4  11  21  42  68 101 139 187 238 287 344 424
#     4  11  21  42  67 104 143 183 230 296 351 416
#     4  11  21  39  73 102 133 185 242 288 343 420
#     4  10  24  39  65 103 142 184 229 290 358 413
#     4  11  24  43  68 103 139 189 236 285 347 424
#
# _framework density 25.447195000000001
#
# number of rings (size 3 to 8) (size 9 to 14) (size 15 to 20)
#    0.000    1.200    4.000    3.600    0.000    6.400 
#    3.600    2.000    0.000    0.000    0.000    0.000 
#    0.000    0.000    0.000    0.000    0.000    0.000 
#
# Total GULP energy -112111.688812 kJ/mol
# GULP energy per Si atom -5605.584441 kJ/mol
# Density = 2.538928 g / cm^3
# Si number density = 25.447195 Si / 1000 Ang^3
#
#
#
# Elastic Constant Matrix: (Units=GPa)
#
#
# Indices 1 2 3 4 5 6 
#
# 1 59.5115 20.1662 -17.4621 0.0015 11.6640 0.0000
# 2 20.1662 82.4508 4.5847 0.0046 -3.2650 0.0011
# 3 -17.4621 4.5847 123.3866 0.0086 2.4538 0.0016
# 4 0.0015 0.0046 0.0086 -38.4167 0.0008 19.6489
# 5 11.6640 -3.2650 2.4538 0.0008 42.5911 -0.0005
# 6 0.0000 0.0011 0.0016 19.6489 -0.0005 8.3311
#
#
#
# Elastic Compliance Matrix: (Units=1/GPa)
#
#
# Indices 1 2 3 4 5 6 
#
# 1 0.020888 -0.005543 0.003288 0.000000 -0.006335 -0.000001
# 2 -0.005543 0.013663 -0.001345 0.000000 0.002643 -0.000002
# 3 0.003288 -0.001345 0.008650 0.000000 -0.001502 -0.000003
# 4 0.000000 0.000000 0.000000 -0.011798 0.000000 0.027826
# 5 -0.006335 0.002643 -0.001502 0.000000 0.025503 0.000000
# 6 -0.000001 -0.000002 -0.000003 0.027826 0.000000 0.054404
#
#
# Mechanical properties :
#
#
# Convention : Reuss Voigt Hill
#
# Bulk Modulus (GPa) = 27.77549 31.10295 29.43922
# Shear Modulus (GPa) = 38.31136 19.70512 29.00824
#
# Velocity S-wave (km/s) = 3.88432 2.78574 3.37996
# Velocity P-wave (km/s) = 5.57278 4.75355 5.17939
#
# Compressibility (1/GPa) = 0.03600296
#
# Stress axis : x y z
#
# Youngs Moduli (GPa) = 47.87434 73.18774 115.60993
#
# Poissons Ratio (x) = 0.40565 -0.38013
# Poissons Ratio (y) = 0.26535 0.15546
# Poissons Ratio (z) = -0.15741 0.09841
#
# Static dielectric constant tensor:
#      x y z
#    x 1.990980 0.000000 -0.015890 
#    y 0.000000 1.982690 0.000000 
#    z -0.015890 0.000000 2.019150 
# 
# From -- ./inp_files/199671.got.cif
#   From: 2010.05.17/outbox.cif.g08.bks.cpg/sg15_100_cif.got.tgz:199671.got - 2010.06.03 18:47:42.
