data_PCOD9297510
_publ_section_title
;
Structure prediction by ZEFSAII (Michael W. Deem and Ramdas Pophale) SiO2 
 PCOD9297510
Probable space group: C 2/C
;
_chemical_formula_sum "Si O2"
_cell_formula_units_Z 44
_cell_length_a 28.150428
_cell_length_b 7.727445
_cell_length_c 9.806489
_cell_angle_alpha 90.000000
_cell_angle_beta 59.387767
_cell_angle_gamma 90.000000
_cell_volume 1835.915247
_symmetry_space_group_name_H-M "C 2/C"
_symmetry_group_IT_number 15
_symmetry_cell_setting 'monoclinic'
loop_
_space_group_symop_operation_xyz
x,y,z
-x,y,1/2-z
-x,-y,-z
x,-y,1/2+z
1/2+x,1/2+y,z
1/2-x,1/2+y,1/2-z
1/2-x,1/2-y,-z
1/2+x,1/2-y,1/2+z
loop_
_atom_site_type_symbol
_atom_site_label
_atom_site_fract_x
_atom_site_fract_y
_atom_site_fract_z
Si Si1 0.000000 0.600295 0.750000
Si Si2 0.775779 0.133718 0.083076
Si Si3 0.105850 0.575627 0.732636
Si Si4 0.550999 0.399262 0.494025
Si Si5 0.884424 0.977105 0.835100
Si Si6 0.326260 0.963460 0.116277
O O1 0.049130 0.501823 0.754178
O O2 0.027971 0.725217 0.596002
O O3 0.811779 0.262842 0.122246
O O4 0.727222 0.053957 0.243096
O O5 0.750000 0.250000 0.000000
O O6 0.819701 0.997457 0.960062
O O7 0.101739 0.784290 0.737760
O O8 0.155204 0.532489 0.556704
O O9 0.123325 0.512949 0.854337
O O10 0.500000 0.500000 0.500000
O O11 0.580037 0.497416 0.578630
O O12 0.596456 0.388538 0.308302
#
# Coordination Sequence:
#
# PCOD9297510 Si02
#       6
#     4   8   8   8   8   8
#     4  10  24  40  72  98 144 170 230 274 352 398
#     4  12  28  45  69 104 133 182 227 283 337 407
#     4  11  25  46  70 101 136 184 221 285 336 410
#     4  11  19  40  66 103 130 174 220 280 325 397
#     4  11  25  40  73 100 137 171 230 279 336 396
#     4  12  27  47  71  97 141 179 232 278 345 402
#
# _framework density 23.966246000000002
#
# number of rings (size 3 to 8) (size 9 to 14) (size 15 to 20)
#    0.000    0.727    5.455    2.182   10.182    2.182 
#    0.000    0.000    0.000    0.000    0.000    0.000 
#    0.000    0.000    0.000    0.000    0.000    0.000 
#
# Total GULP energy -123249.838494 kJ/mol
# GULP energy per Si atom -5602.265386 kJ/mol
# Density = 2.391170 g / cm^3
# Si number density = 23.966246 Si / 1000 Ang^3
#
#
#
# Elastic Constant Matrix: (Units=GPa)
#
#
# Indices 1 2 3 4 5 6 
#
# 1 96.6474 3.5239 18.9619 0.0000 3.4155 0.0000
# 2 3.5239 40.9793 6.9676 0.0000 -5.4339 0.0000
# 3 18.9619 6.9676 98.7629 0.0000 4.6773 0.0000
# 4 0.0000 0.0000 0.0000 15.2416 0.0000 -9.1099
# 5 3.4155 -5.4339 4.6773 0.0000 45.8369 0.0000
# 6 0.0000 0.0000 0.0000 -9.1099 0.0000 39.3353
#
#
#
# Elastic Compliance Matrix: (Units=1/GPa)
#
#
# Indices 1 2 3 4 5 6 
#
# 1 0.010786 -0.000679 -0.001991 0.000000 -0.000681 0.000000
# 2 -0.000679 0.025194 -0.001800 0.000000 0.003221 0.000000
# 3 -0.001991 -0.001800 0.010689 0.000000 -0.001156 0.000000
# 4 0.000000 0.000000 0.000000 0.076151 0.000000 0.017636
# 5 -0.000681 0.003221 -0.001156 0.000000 0.022367 0.000000
# 6 0.000000 0.000000 0.000000 0.017636 0.000000 0.029507
#
#
# Mechanical properties :
#
#
# Convention : Reuss Voigt Hill
#
# Bulk Modulus (GPa) = 26.50393 32.81073 29.65733
# Shear Modulus (GPa) = 25.48283 33.87849 29.68066
#
# Velocity S-wave (km/s) = 3.26433 3.76386 3.52296
# Velocity P-wave (km/s) = 5.02899 5.71042 5.38050
#
# Compressibility (1/GPa) = 0.03773026
#
# Stress axis : x y z
#
# Youngs Moduli (GPa) = 92.71011 39.69192 93.55281
#
# Poissons Ratio (x) = 0.02697 0.18624
# Poissons Ratio (y) = 0.06299 0.16835
# Poissons Ratio (z) = 0.18456 0.07143
#
# Static dielectric constant tensor:
#      x y z
#    x 1.928030 0.000000 -0.014110 
#    y 0.000000 1.923380 0.000000 
#    z -0.014110 0.000000 1.903940 
# 
# From -- ./inp_files/68526.got.cif
#   From: 2010.05.17/outbox.cif.g08.bks.cpg/sg15_35_cif.got.tgz:68526.got - 2010.06.03 18:47:42.
