data_PCOD9297291
_publ_section_title
;
Structure prediction by ZEFSAII (Michael W. Deem and Ramdas Pophale) SiO2 
 PCOD9297291
Probable space group: C 2/C
;
_chemical_formula_sum "Si O2"
_cell_formula_units_Z 64
_cell_length_a 23.738297
_cell_length_b 14.685391
_cell_length_c 15.932335
_cell_angle_alpha 90.000000
_cell_angle_beta 145.176843
_cell_angle_gamma 90.000000
_cell_volume 3171.649166
_symmetry_space_group_name_H-M "C 2/C"
_symmetry_group_IT_number 15
_symmetry_cell_setting 'monoclinic'
loop_
_space_group_symop_operation_xyz
x,y,z
-x,y,1/2-z
-x,-y,-z
x,-y,1/2+z
1/2+x,1/2+y,z
1/2-x,1/2+y,1/2-z
1/2-x,1/2-y,-z
1/2+x,1/2-y,1/2+z
loop_
_atom_site_type_symbol
_atom_site_label
_atom_site_fract_x
_atom_site_fract_y
_atom_site_fract_z
Si Si1 0.155362 0.178890 0.128617
Si Si2 0.935734 0.325325 0.597201
Si Si3 0.132549 0.754666 0.138593
Si Si4 0.715520 0.385335 0.376475
Si Si5 0.710507 0.464043 0.553969
Si Si6 0.935776 0.568168 0.367383
Si Si7 0.917302 0.041084 0.338086
Si Si8 0.940247 0.121673 0.103564
O O1 0.260010 0.227479 0.264992
O O2 0.169072 0.095109 0.080739
O O3 0.115954 0.137372 0.165933
O O4 0.084430 0.251165 0.998678
O O5 0.829614 0.360583 0.499888
O O6 0.000000 0.283155 0.750000
O O7 0.002053 0.404628 0.638638
O O8 0.152638 0.808044 0.251077
O O9 0.081113 0.660375 0.099651
O O10 0.084767 0.817188 0.008259
O O11 0.697492 0.404620 0.452753
O O12 0.677658 0.477154 0.285208
O O13 0.828194 0.471032 0.712436
O O14 0.654797 0.561233 0.486933
O O15 0.000000 0.500000 0.500000
O O16 0.975267 0.050573 0.322435
O O17 0.000000 0.000000 0.500000
O O18 0.000000 0.173692 0.250000
#
# Coordination Sequence:
#
# PCOD9297291 Si02
#       8
#     8   8   8   8   8   8   8   8
#     4  10  24  38  65  92 131 169 212 267 329 386
#     4  11  24  40  62  94 129 170 216 267 327 393
#     4  10  24  43  66  94 135 170 216 273 330 389
#     4  11  23  40  66  98 135 162 215 276 324 390
#     4  11  23  41  64 103 130 167 216 274 324 388
#     4  11  26  43  67  91 133 179 223 264 330 397
#     4  12  22  39  66  96 129 171 217 262 331 390
#     4  12  24  42  66  97 131 173 219 268 322 394
#
# _framework density 20.178777
#
# number of rings (size 3 to 8) (size 9 to 14) (size 15 to 20)
#    0.000    1.000    5.000    0.750    8.750    2.000 
#    0.000    2.500    0.000    0.000    0.000    0.000 
#    0.000    0.000    0.000    0.000    0.000    0.000 
#
# Total GULP energy -178694.057832 kJ/mol
# GULP energy per Si atom -5584.189307 kJ/mol
# Density = 2.013285 g / cm^3
# Si number density = 20.178777 Si / 1000 Ang^3
#
#
#
# Elastic Constant Matrix: (Units=GPa)
#
#
# Indices 1 2 3 4 5 6 
#
# 1 61.9843 22.0384 25.9536 0.0000 15.6800 0.0000
# 2 22.0384 77.6721 51.8973 0.0000 13.0137 0.0000
# 3 25.9536 51.8973 127.7666 0.0000 10.1657 0.0000
# 4 0.0000 0.0000 0.0000 10.0509 0.0000 8.6102
# 5 15.6800 13.0137 10.1657 0.0000 23.6874 0.0000
# 6 0.0000 0.0000 0.0000 8.6102 0.0000 24.5159
#
#
#
# Elastic Compliance Matrix: (Units=1/GPa)
#
#
# Indices 1 2 3 4 5 6 
#
# 1 0.020884 -0.002440 -0.002338 0.000000 -0.011480 0.000000
# 2 -0.002440 0.019103 -0.006789 0.000000 -0.005966 0.000000
# 3 -0.002338 -0.006789 0.011015 0.000000 0.000550 0.000000
# 4 0.000000 0.000000 0.000000 0.142311 0.000000 -0.049981
# 5 -0.011480 -0.005966 0.000550 0.000000 0.052858 0.000000
# 6 0.000000 0.000000 0.000000 -0.049981 0.000000 0.058344
#
#
# Mechanical properties :
#
#
# Convention : Reuss Voigt Hill
#
# Bulk Modulus (GPa) = 35.88274 51.91129 43.89702
# Shear Modulus (GPa) = 14.83957 22.81973 18.82965
#
# Velocity S-wave (km/s) = 2.71478 3.36650 3.05805
# Velocity P-wave (km/s) = 5.25811 6.39474 5.85407
#
# Compressibility (1/GPa) = 0.02786855
#
# Stress axis : x y z
#
# Youngs Moduli (GPa) = 47.88444 52.34875 90.78148
#
# Poissons Ratio (x) = 0.12773 0.21221
# Poissons Ratio (y) = 0.11684 0.61631
# Poissons Ratio (z) = 0.11193 0.35539
#
# Static dielectric constant tensor:
#      x y z
#    x 1.745390 0.000000 -0.022880 
#    y 0.000000 1.703440 0.000000 
#    z -0.022880 0.000000 1.738620 
# 
# From -- ./inp_files/173691.got.cif
#   From: 2010.05.17/outbox.cif.g08.bks.cpg/sg15_87_cif.got.tgz:173691.got - 2010.06.03 18:47:42.
