data_PCOD9297310
_publ_section_title
;
Structure prediction by ZEFSAII (Michael W. Deem and Ramdas Pophale) SiO2 
 PCOD9297310
Probable space group: C 2/C
;
_chemical_formula_sum "Si O2"
_cell_formula_units_Z 40
_cell_length_a 11.348861
_cell_length_b 7.354965
_cell_length_c 20.036099
_cell_angle_alpha 90.000000
_cell_angle_beta 106.241363
_cell_angle_gamma 90.000000
_cell_volume 1605.679708
_symmetry_space_group_name_H-M "C 2/C"
_symmetry_group_IT_number 15
_symmetry_cell_setting 'monoclinic'
loop_
_space_group_symop_operation_xyz
x,y,z
-x,y,1/2-z
-x,-y,-z
x,-y,1/2+z
1/2+x,1/2+y,z
1/2-x,1/2+y,1/2-z
1/2-x,1/2-y,-z
1/2+x,1/2-y,1/2+z
loop_
_atom_site_type_symbol
_atom_site_label
_atom_site_fract_x
_atom_site_fract_y
_atom_site_fract_z
Si Si1 0.073577 0.191485 0.974626
Si Si2 0.369623 0.772389 0.740211
Si Si3 0.696079 0.032441 0.409601
Si Si4 0.569516 0.682877 0.421784
Si Si5 0.600462 0.142455 0.708577
O O1 0.098322 0.383497 0.945840
O O2 0.077812 0.035678 0.917883
O O3 0.181269 0.121675 0.041178
O O4 0.955937 0.202893 0.003238
O O5 0.500000 0.669475 0.750000
O O6 0.332001 0.886272 0.667592
O O7 0.244418 0.678823 0.742802
O O8 0.403914 0.925698 0.799525
O O9 0.677399 0.814975 0.412542
O O10 0.451732 0.752654 0.362769
O O11 0.500000 0.188427 0.750000
#
# Coordination Sequence:
#
# PCOD9297310 Si02
#       5
#     8   8   8   8   8
#     4  10  24  38  69 102 134 176 226 282 354 410
#     4  11  24  45  68  98 137 182 233 285 344 412
#     4  11  21  44  66  99 137 176 228 284 343 417
#     4  11  21  44  66  99 137 176 228 284 343 417
#     4  11  24  45  68  98 137 182 233 285 344 412
#
# _framework density 24.911569
#
# number of rings (size 3 to 8) (size 9 to 14) (size 15 to 20)
#    0.000    1.200    6.000    1.200    0.000    4.000 
#    0.000    0.000    0.000    0.000    0.000    0.000 
#    0.000    0.000    0.000    0.000    0.000    0.000 
#
# Total GULP energy -111603.236483 kJ/mol
# GULP energy per Si atom -5580.161824 kJ/mol
# Density = 2.485487 g / cm^3
# Si number density = 24.911569 Si / 1000 Ang^3
#
#
#
# Elastic Constant Matrix: (Units=GPa)
#
#
# Indices 1 2 3 4 5 6 
#
# 1 169.3018 15.9927 33.9386 0.0000 9.1382 0.0000
# 2 15.9927 55.2301 0.1791 0.0000 -2.4650 0.0000
# 3 33.9386 0.1791 49.0528 0.0000 11.4831 0.0000
# 4 0.0000 0.0000 0.0000 27.3767 0.0000 -2.4426
# 5 9.1382 -2.4650 11.4831 0.0000 44.4831 0.0000
# 6 0.0000 0.0000 0.0000 -2.4426 0.0000 42.8574
#
#
#
# Elastic Compliance Matrix: (Units=1/GPa)
#
#
# Indices 1 2 3 4 5 6 
#
# 1 0.007084 -0.002050 -0.004817 0.000000 -0.000325 0.000000
# 2 -0.002050 0.018749 0.001073 0.000000 0.001183 0.000000
# 3 -0.004817 0.001073 0.024979 0.000000 -0.005399 0.000000
# 4 0.000000 0.000000 0.000000 0.036714 0.000000 0.002092
# 5 -0.000325 0.001183 -0.005399 0.000000 0.024007 0.000000
# 6 0.000000 0.000000 0.000000 0.002092 0.000000 0.023452
#
#
# Mechanical properties :
#
#
# Convention : Reuss Voigt Hill
#
# Bulk Modulus (GPa) = 25.49532 41.53398 33.51465
# Shear Modulus (GPa) = 31.31889 37.84171 34.58030
#
# Velocity S-wave (km/s) = 3.54955 3.90172 3.72979
# Velocity P-wave (km/s) = 5.20150 6.08331 5.65960
#
# Compressibility (1/GPa) = 0.03922288
#
# Stress axis : x y z
#
# Youngs Moduli (GPa) = 141.17304 53.33617 40.03330
#
# Poissons Ratio (x) = 0.10934 0.19285
# Poissons Ratio (y) = 0.28941 -0.04295
# Poissons Ratio (z) = 0.68008 -0.05723
#
# Static dielectric constant tensor:
#      x y z
#    x 2.035770 0.000000 0.030640 
#    y 0.000000 1.974280 0.000000 
#    z 0.030640 0.000000 1.984740 
# 
# From -- ./inp_files/195230.got.cif
#   From: 2010.05.17/outbox.cif.g08.bks.cpg/sg15_98_cif.got.tgz:195230.got - 2010.06.03 18:47:42.
