data_PCOD9297389
_publ_section_title
;
Structure prediction by ZEFSAII (Michael W. Deem and Ramdas Pophale) SiO2 
 PCOD9297389
Probable space group: C 2/C
;
_chemical_formula_sum "Si O2"
_cell_formula_units_Z 48
_cell_length_a 24.483567
_cell_length_b 9.843837
_cell_length_c 14.858047
_cell_angle_alpha 90.000000
_cell_angle_beta 42.918279
_cell_angle_gamma 90.000000
_cell_volume 2438.478604
_symmetry_space_group_name_H-M "C 2/C"
_symmetry_group_IT_number 15
_symmetry_cell_setting 'monoclinic'
loop_
_space_group_symop_operation_xyz
x,y,z
-x,y,1/2-z
-x,-y,-z
x,-y,1/2+z
1/2+x,1/2+y,z
1/2-x,1/2+y,1/2-z
1/2-x,1/2-y,-z
1/2+x,1/2-y,1/2+z
loop_
_atom_site_type_symbol
_atom_site_label
_atom_site_fract_x
_atom_site_fract_y
_atom_site_fract_z
Si Si1 0.215572 0.999612 0.720134
Si Si2 0.414695 0.296661 0.555610
Si Si3 0.854319 0.512877 0.695879
Si Si4 0.744880 0.410678 0.491884
Si Si5 0.092299 0.086238 0.634163
Si Si6 0.094126 0.781737 0.326256
O O1 0.147215 0.885073 0.811944
O O2 0.255447 0.984143 0.574807
O O3 0.281234 0.982596 0.716633
O O4 0.167594 0.140878 0.784916
O O5 0.400891 0.140072 0.597384
O O6 0.397907 0.331656 0.470893
O O7 0.507102 0.334838 0.461186
O O8 0.813279 0.552040 0.839170
O O9 0.902893 0.376237 0.654910
O O10 0.750000 0.250000 0.500000
O O11 0.659032 0.468104 0.559839
O O12 0.102486 0.181941 0.709970
O O13 0.000000 0.035248 0.750000
#
# Coordination Sequence:
#
# PCOD9297389 Si02
#       6
#     8   8   8   8   8   8
#     4  11  23  40  64  88 122 169 209 251 307 376
#     4  11  21  42  64  90 124 164 208 253 313 372
#     4  12  24  39  64  93 128 159 205 264 309 364
#     4  11  23  40  61  94 127 157 209 260 312 363
#     4   9  21  41  67  88 120 168 215 251 304 378
#     4  10  24  40  63  91 122 166 211 258 306 362
#
# _framework density 19.684405000000002
#
# number of rings (size 3 to 8) (size 9 to 14) (size 15 to 20)
#    0.000    1.333    3.333    2.000    2.333    1.333 
#    0.000    0.000    0.000    0.000    0.000    0.000 
#    0.000    0.000    0.000    0.000    0.000    0.000 
#
# Total GULP energy -134067.807225 kJ/mol
# GULP energy per Si atom -5586.158634 kJ/mol
# Density = 1.963960 g / cm^3
# Si number density = 19.684405 Si / 1000 Ang^3
#
#
#
# Elastic Constant Matrix: (Units=GPa)
#
#
# Indices 1 2 3 4 5 6 
#
# 1 52.6229 18.5918 41.7064 0.0001 2.0444 0.0000
# 2 18.5918 114.2500 30.7470 0.0003 -6.4000 -0.0002
# 3 41.7064 30.7470 87.2464 0.0002 -1.0731 -0.0001
# 4 0.0001 0.0003 0.0002 39.8463 -0.0001 -11.9439
# 5 2.0444 -6.4000 -1.0731 -0.0001 14.7521 0.0000
# 6 0.0000 -0.0002 -0.0001 -11.9439 0.0000 34.8522
#
#
#
# Elastic Compliance Matrix: (Units=1/GPa)
#
#
# Indices 1 2 3 4 5 6 
#
# 1 0.031249 -0.001529 -0.014474 0.000000 -0.006047 0.000000
# 2 -0.001529 0.009980 -0.002733 0.000000 0.004343 0.000000
# 3 -0.014474 -0.002733 0.019371 0.000000 0.002229 0.000000
# 4 0.000000 0.000000 0.000000 0.027970 0.000000 0.009585
# 5 -0.006047 0.004343 0.002229 0.000000 0.070671 0.000000
# 6 0.000000 0.000000 0.000000 0.009585 0.000000 0.031978
#
#
# Mechanical properties :
#
#
# Convention : Reuss Voigt Hill
#
# Bulk Modulus (GPa) = 43.23407 48.46773 45.85090
# Shear Modulus (GPa) = 21.15057 28.76171 24.95614
#
# Velocity S-wave (km/s) = 3.28149 3.82664 3.56450
# Velocity P-wave (km/s) = 6.03066 6.64831 6.34700
#
# Compressibility (1/GPa) = 0.02312990
#
# Stress axis : x y z
#
# Youngs Moduli (GPa) = 32.00071 100.19749 51.62290
#
# Poissons Ratio (x) = 0.15317 0.74718
# Poissons Ratio (y) = 0.04892 0.14109
# Poissons Ratio (z) = 0.46317 0.27384
#
# Static dielectric constant tensor:
#      x y z
#    x 1.682540 0.000000 -0.000770 
#    y 0.000000 1.683500 0.000000 
#    z -0.000770 0.000000 1.690740 
# 
# From -- ./inp_files/176866.got.cif
#   From: 2010.05.17/outbox.cif.g08.bks.cpg/sg15_89_cif.got.tgz:176866.got - 2010.06.03 18:47:42.
