data_PCOD9297362
_publ_section_title
;
Structure prediction by ZEFSAII (Michael W. Deem and Ramdas Pophale) SiO2 
 PCOD9297362
Probable space group: C 2/C
;
_chemical_formula_sum "Si O2"
_cell_formula_units_Z 52
_cell_length_a 11.799530
_cell_length_b 25.427853
_cell_length_c 13.645002
_cell_angle_alpha 90.000000
_cell_angle_beta 37.280545
_cell_angle_gamma 90.000000
_cell_volume 2479.811503
_symmetry_space_group_name_H-M "C 2/C"
_symmetry_group_IT_number 15
_symmetry_cell_setting 'monoclinic'
loop_
_space_group_symop_operation_xyz
x,y,z
-x,y,1/2-z
-x,-y,-z
x,-y,1/2+z
1/2+x,1/2+y,z
1/2-x,1/2+y,1/2-z
1/2-x,1/2-y,-z
1/2+x,1/2-y,1/2+z
loop_
_atom_site_type_symbol
_atom_site_label
_atom_site_fract_x
_atom_site_fract_y
_atom_site_fract_z
Si Si1 0.000000 0.764820 0.750000
Si Si2 0.683807 0.975349 0.554242
Si Si3 0.369724 0.588036 0.435556
Si Si4 0.865747 0.325755 0.476635
Si Si5 0.544544 0.110926 0.024284
Si Si6 0.653178 0.394056 0.912588
Si Si7 0.795008 0.308826 0.940289
O O1 0.821092 0.800402 0.846173
O O2 0.036776 0.725183 0.635171
O O3 0.500000 0.977643 0.750000
O O4 0.634729 0.946145 0.485259
O O5 0.822985 0.937212 0.518611
O O6 0.767513 0.032875 0.488795
O O7 0.500000 0.595464 0.250000
O O8 0.222151 0.635470 0.543358
O O9 0.492114 0.590547 0.448989
O O10 0.990098 0.363538 0.458686
O O11 0.346852 0.107345 0.217947
O O12 0.678572 0.152952 0.985228
O O13 0.648473 0.337159 0.968365
O O14 0.000000 0.309285 0.750000
O O15 0.750000 0.250000 0.000000
#
# Coordination Sequence:
#
# PCOD9297362 Si02
#       7
#     4   8   8   8   8   8   8
#     4  10  24  40  58  86 124 158 198 250 294 366
#     4   9  21  39  62  86 118 155 204 252 299 353
#     4  12  22  37  60  87 119 163 202 241 303 361
#     4  11  22  40  59  86 119 157 198 243 303 353
#     4   9  18  38  60  84 118 156 197 245 297 359
#     4   9  18  39  58  83 119 160 197 244 302 360
#     4   9  19  34  60  85 113 152 197 244 299 351
#
# _framework density 20.969335000000001
#
# number of rings (size 3 to 8) (size 9 to 14) (size 15 to 20)
#    0.000    2.154    2.308    2.308    1.077    5.538 
#    0.000    4.615    0.000    0.000    0.000    0.000 
#    0.000    0.000    0.000    0.000    0.000    0.000 
#
# Total GULP energy -145029.416969 kJ/mol
# GULP energy per Si atom -5578.054499 kJ/mol
# Density = 2.092161 g / cm^3
# Si number density = 20.969335 Si / 1000 Ang^3
#
#
#
# Elastic Constant Matrix: (Units=GPa)
#
#
# Indices 1 2 3 4 5 6 
#
# 1 120.2100 48.7035 16.5724 0.0000 -16.8184 0.0000
# 2 48.7035 158.6019 21.9757 0.0000 -19.5987 0.0000
# 3 16.5724 21.9757 19.1616 0.0000 -2.5261 0.0000
# 4 0.0000 0.0000 0.0000 26.6347 0.0000 -1.9117
# 5 -16.8184 -19.5987 -2.5261 0.0000 11.3676 0.0000
# 6 0.0000 0.0000 0.0000 -1.9117 0.0000 28.2213
#
#
#
# Elastic Compliance Matrix: (Units=1/GPa)
#
#
# Indices 1 2 3 4 5 6 
#
# 1 0.011636 -0.000812 -0.007260 0.000000 0.014201 0.000000
# 2 -0.000812 0.009306 -0.008255 0.000000 0.013008 0.000000
# 3 -0.007260 -0.008255 0.066592 0.000000 -0.010175 0.000000
# 4 0.000000 0.000000 0.000000 0.037728 0.000000 0.002556
# 5 0.014201 0.013008 -0.010175 0.000000 0.129145 0.000000
# 6 0.000000 0.000000 0.000000 0.002556 0.000000 0.035607
#
#
# Mechanical properties :
#
#
# Convention : Reuss Voigt Hill
#
# Bulk Modulus (GPa) = 18.22164 52.49741 35.35953
# Shear Modulus (GPa) = 14.66441 27.29286 20.97864
#
# Velocity S-wave (km/s) = 2.64735 3.61163 3.16641
# Velocity P-wave (km/s) = 4.24890 6.51778 5.50157
#
# Compressibility (1/GPa) = 0.05487979
#
# Stress axis : x y z
#
# Youngs Moduli (GPa) = 85.94324 107.46094 15.01675
#
# Poissons Ratio (x) = 0.08729 0.10902
# Poissons Ratio (y) = 0.06981 0.12396
# Poissons Ratio (z) = 0.62391 0.88709
#
# Static dielectric constant tensor:
#      x y z
#    x 1.755830 0.000000 0.004990 
#    y 0.000000 1.731270 0.000000 
#    z 0.004990 0.000000 1.794530 
# 
# From -- ./inp_files/148035.got.cif
#   From: 2010.05.17/outbox.cif.g08.bks.cpg/sg15_75_cif.got.tgz:148035.got - 2010.06.03 18:47:42.
