data_PCOD9297397
_publ_section_title
;
Structure prediction by ZEFSAII (Michael W. Deem and Ramdas Pophale) SiO2 
 PCOD9297397
Probable space group: C 2/C
;
_chemical_formula_sum "Si O2"
_cell_formula_units_Z 36
_cell_length_a 15.977576
_cell_length_b 9.548598
_cell_length_c 9.121693
_cell_angle_alpha 90.000000
_cell_angle_beta 85.532910
_cell_angle_gamma 90.000000
_cell_volume 1387.409490
_symmetry_space_group_name_H-M "C 2/C"
_symmetry_group_IT_number 15
_symmetry_cell_setting 'monoclinic'
loop_
_space_group_symop_operation_xyz
x,y,z
-x,y,1/2-z
-x,-y,-z
x,-y,1/2+z
1/2+x,1/2+y,z
1/2-x,1/2+y,1/2-z
1/2-x,1/2-y,-z
1/2+x,1/2-y,1/2+z
loop_
_atom_site_type_symbol
_atom_site_label
_atom_site_fract_x
_atom_site_fract_y
_atom_site_fract_z
Si Si1 0.101054 0.605117 0.461866
Si Si2 0.000000 0.411211 0.250000
Si Si3 0.937487 0.076715 0.118150
Si Si4 0.319570 0.830837 0.079336
Si Si5 0.293567 0.656626 0.626549
O O1 0.045600 0.514687 0.357703
O O2 0.166347 0.482016 0.495516
O O3 0.133825 0.728809 0.355415
O O4 0.062345 0.658860 0.620700
O O5 0.901571 0.231460 0.082428
O O6 0.000000 0.080867 0.250000
O O7 0.850637 0.984521 0.123328
O O8 0.000000 0.000000 0.000000
O O9 0.276262 0.856076 0.241029
O O10 0.250000 0.750000 0.000000
O O11 0.250000 0.750000 0.500000
#
# Coordination Sequence:
#
# PCOD9297397 Si02
#       5
#     8   4   8   8   8
#     4  11  24  41  72  95 138 178 244 279 351 430
#     4  10  24  40  64 100 132 172 234 290 342 398
#     4  12  28  46  72 111 152 187 243 314 378 425
#     4  12  25  46  72 103 144 192 241 292 369 447
#     4  12  25  46  72 103 144 192 241 292 369 447
#
# _framework density 25.947638000000001
#
# number of rings (size 3 to 8) (size 9 to 14) (size 15 to 20)
#    0.000    0.444    0.000    8.000    9.333    0.000 
#    0.000    0.000    0.000    0.000    0.000    0.000 
#    0.000    0.000    0.000    0.000    0.000    0.000 
#
# Total GULP energy -100427.135165 kJ/mol
# GULP energy per Si atom -5579.285287 kJ/mol
# Density = 2.588858 g / cm^3
# Si number density = 25.947638 Si / 1000 Ang^3
#
#
#
# Elastic Constant Matrix: (Units=GPa)
#
#
# Indices 1 2 3 4 5 6 
#
# 1 121.4657 34.5759 43.0697 0.0000 -6.2639 0.0000
# 2 34.5759 178.3326 37.2175 0.0000 -16.4950 0.0000
# 3 43.0697 37.2175 143.6598 0.0000 -23.5587 0.0000
# 4 0.0000 0.0000 0.0000 30.9886 0.0000 -26.2034
# 5 -6.2639 -16.4950 -23.5587 0.0000 59.4214 0.0000
# 6 0.0000 0.0000 0.0000 -26.2034 0.0000 22.8780
#
#
#
# Elastic Compliance Matrix: (Units=1/GPa)
#
#
# Indices 1 2 3 4 5 6 
#
# 1 0.009505 -0.001343 -0.002565 0.000000 -0.000388 0.000000
# 2 -0.001343 0.006187 -0.001007 0.000000 0.001177 0.000000
# 3 -0.002565 -0.001007 0.008450 0.000000 0.002800 0.000000
# 4 0.000000 0.000000 0.000000 1.024176 0.000000 1.173045
# 5 -0.000388 0.001177 0.002800 0.000000 0.018225 0.000000
# 6 0.000000 0.000000 0.000000 1.173045 0.000000 1.387264
#
#
# Mechanical properties :
#
#
# Convention : Reuss Voigt Hill
#
# Bulk Modulus (GPa) = 69.87919 74.79826 72.33872
# Shear Modulus (GPa) = 2.02560 44.56393 23.29476
#
# Velocity S-wave (km/s) = 0.88450 4.14872 2.99952
# Velocity P-wave (km/s) = 5.29457 7.19988 6.31944
#
# Compressibility (1/GPa) = 0.01431041
#
# Stress axis : x y z
#
# Youngs Moduli (GPa) = 105.21084 161.62993 118.34243
#
# Poissons Ratio (x) = 0.21713 0.30357
# Poissons Ratio (y) = 0.14134 0.11919
# Poissons Ratio (z) = 0.26988 0.16279
#
# Static dielectric constant tensor:
#      x y z
#    x 2.461780 0.000000 0.071870 
#    y 0.000000 2.123440 0.000000 
#    z 0.071870 0.000000 2.073990 
# 
# From -- ./inp_files/46083.got.cif
#   From: 2010.05.17/outbox.cif.g08.bks.cpg/sg15_24_cif.got.tgz:46083.got - 2010.06.03 18:47:42.
