data_PCOD9297882
_publ_section_title
;
Structure prediction by ZEFSAII (Michael W. Deem and Ramdas Pophale) SiO2 
 PCOD9297882
Probable space group: C 2/C
;
_chemical_formula_sum "Si O2"
_cell_formula_units_Z 40
_cell_length_a 7.710794
_cell_length_b 11.318755
_cell_length_c 18.500778
_cell_angle_alpha 90.000000
_cell_angle_beta 94.431993
_cell_angle_gamma 90.000000
_cell_volume 1609.856484
_symmetry_space_group_name_H-M "C 2/C"
_symmetry_group_IT_number 15
_symmetry_cell_setting 'monoclinic'
loop_
_space_group_symop_operation_xyz
x,y,z
-x,y,1/2-z
-x,-y,-z
x,-y,1/2+z
1/2+x,1/2+y,z
1/2-x,1/2+y,1/2-z
1/2-x,1/2-y,-z
1/2+x,1/2-y,1/2+z
loop_
_atom_site_type_symbol
_atom_site_label
_atom_site_fract_x
_atom_site_fract_y
_atom_site_fract_z
Si Si1 0.524272 0.156756 0.929407
Si Si2 0.877996 0.095948 0.409768
Si Si3 0.308360 0.776603 0.211331
Si Si4 0.295500 0.025630 0.246215
Si Si5 0.733032 0.964848 0.545485
O O1 0.659068 0.177704 0.868931
O O2 0.392946 0.265557 0.924563
O O3 0.782235 0.964303 0.973620
O O4 0.625628 0.144184 0.008465
O O5 0.784682 0.067354 0.332495
O O6 0.080514 0.056175 0.413287
O O7 0.595774 0.041812 0.585464
O O8 0.500000 0.754419 0.250000
O O9 0.224735 0.646490 0.207977
O O10 0.226364 0.888875 0.252451
O O11 0.500000 0.005554 0.250000
#
# Coordination Sequence:
#
# PCOD9297882 Si02
#       5
#     8   8   8   8   8
#     4  11  22  44  69 101 138 179 228 292 351 424
#     4  11  22  44  68 103 135 180 234 289 351 425
#     4  11  24  47  68 100 141 185 238 292 352 420
#     4  11  26  46  70 100 142 190 240 293 351 422
#     4  10  24  42  70 104 139 175 231 292 362 413
#
# _framework density 24.846934000000001
#
# number of rings (size 3 to 8) (size 9 to 14) (size 15 to 20)
#    0.000    1.200    4.000    1.200    0.000    5.600 
#    3.600    0.000    0.000    0.000    0.000    0.000 
#    0.000    0.000    0.000    0.000    0.000    0.000 
#
# Total GULP energy -111829.230638 kJ/mol
# GULP energy per Si atom -5591.461532 kJ/mol
# Density = 2.479038 g / cm^3
# Si number density = 24.846934 Si / 1000 Ang^3
#
#
#
# Elastic Constant Matrix: (Units=GPa)
#
#
# Indices 1 2 3 4 5 6 
#
# 1 94.1446 13.1357 15.2886 0.0000 21.9589 0.0000
# 2 13.1357 144.3654 5.6611 0.0000 -14.9735 0.0000
# 3 15.2886 5.6611 76.9651 0.0000 2.5809 0.0000
# 4 0.0000 0.0000 0.0000 31.0567 0.0000 -4.3951
# 5 21.9589 -14.9735 2.5809 0.0000 37.6493 0.0000
# 6 0.0000 0.0000 0.0000 -4.3951 0.0000 54.9975
#
#
#
# Elastic Compliance Matrix: (Units=1/GPa)
#
#
# Indices 1 2 3 4 5 6 
#
# 1 0.013199 -0.001979 -0.002197 0.000000 -0.008335 0.000000
# 2 -0.001979 0.007552 -0.000302 0.000000 0.004179 0.000000
# 3 -0.002197 -0.000302 0.013444 0.000000 0.000239 0.000000
# 4 0.000000 0.000000 0.000000 0.032567 0.000000 0.002603
# 5 -0.008335 0.004179 0.000239 0.000000 0.033068 0.000000
# 6 0.000000 0.000000 0.000000 0.002603 0.000000 0.018391
#
#
# Mechanical properties :
#
#
# Convention : Reuss Voigt Hill
#
# Bulk Modulus (GPa) = 39.62345 42.62732 41.12538
# Shear Modulus (GPa) = 36.87582 43.50003 40.18793
#
# Velocity S-wave (km/s) = 3.85661 4.18870 4.02608
# Velocity P-wave (km/s) = 5.98438 6.37078 6.18060
#
# Compressibility (1/GPa) = 0.02523758
#
# Stress axis : x y z
#
# Youngs Moduli (GPa) = 75.76354 132.41097 74.38536
#
# Poissons Ratio (x) = 0.26208 0.16341
# Poissons Ratio (y) = 0.14996 0.02250
# Poissons Ratio (z) = 0.16644 0.04005
#
# Static dielectric constant tensor:
#      x y z
#    x 1.897040 0.000000 -0.022930 
#    y 0.000000 2.046710 0.000000 
#    z -0.022930 0.000000 2.081390 
# 
# From -- ./inp_files/229835.got.cif
#   From: 2010.05.17/outbox.cif.g08.bks.cpg/sg15_115_cif.got.tgz:229835.got - 2010.06.03 18:47:42.
