data_PCOD9297473
_publ_section_title
;
Structure prediction by ZEFSAII (Michael W. Deem and Ramdas Pophale) SiO2 
 PCOD9297473
Probable space group: C 2/C
;
_chemical_formula_sum "Si O2"
_cell_formula_units_Z 24
_cell_length_a 8.306845
_cell_length_b 5.252478
_cell_length_c 19.233706
_cell_angle_alpha 90.000000
_cell_angle_beta 81.512966
_cell_angle_gamma 90.000000
_cell_volume 830.006047
_symmetry_space_group_name_H-M "C 2/C"
_symmetry_group_IT_number 15
_symmetry_cell_setting 'monoclinic'
loop_
_space_group_symop_operation_xyz
x,y,z
-x,y,1/2-z
-x,-y,-z
x,-y,1/2+z
1/2+x,1/2+y,z
1/2-x,1/2+y,1/2-z
1/2-x,1/2-y,-z
1/2+x,1/2-y,1/2+z
loop_
_atom_site_type_symbol
_atom_site_label
_atom_site_fract_x
_atom_site_fract_y
_atom_site_fract_z
Si Si1 0.324611 0.993634 0.117069
Si Si2 0.891614 0.804554 0.961982
Si Si3 0.561293 0.505119 0.823429
O O1 0.304165 0.136489 0.037130
O O2 0.517023 0.924272 0.080453
O O3 0.317678 0.713796 0.156741
O O4 0.352928 0.227236 0.168692
O O5 0.893908 0.989230 0.882131
O O6 0.000000 0.000000 0.000000
O O7 0.500000 0.466491 0.750000
#
# Coordination Sequence:
#
# PCOD9297473 Si02
#       3
#     8   8   8
#     4  10  24  40  69  94 134 175 227 278 343 409
#     4  10  24  43  67  99 135 178 226 282 344 412
#     4  10  24  42  66  96 132 177 225 281 345 408
#
# _framework density 28.91545
#
# number of rings (size 3 to 8) (size 9 to 14) (size 15 to 20)
#    2.000    0.000    0.000    2.000    4.667    5.333 
#    0.000    0.000    0.000    0.000    0.000    0.000 
#    0.000    0.000    0.000    0.000    0.000    0.000 
#
# Total GULP energy -67125.962936 kJ/mol
# GULP energy per Si atom -5593.830245 kJ/mol
# Density = 2.884964 g / cm^3
# Si number density = 28.915450 Si / 1000 Ang^3
#
#
#
# Elastic Constant Matrix: (Units=GPa)
#
#
# Indices 1 2 3 4 5 6 
#
# 1 182.5476 92.7589 74.8245 0.0000 32.5217 0.0000
# 2 92.7589 257.0072 74.6235 0.0000 48.3211 0.0000
# 3 74.8245 74.6235 230.3050 0.0000 24.0928 0.0000
# 4 0.0000 0.0000 0.0000 58.4273 0.0000 39.3809
# 5 32.5217 48.3211 24.0928 0.0000 73.6795 0.0000
# 6 0.0000 0.0000 0.0000 39.3809 0.0000 60.9870
#
#
#
# Elastic Compliance Matrix: (Units=1/GPa)
#
#
# Indices 1 2 3 4 5 6 
#
# 1 0.007378 -0.001915 -0.001623 0.000000 -0.001470 0.000000
# 2 -0.001915 0.005265 -0.000839 0.000000 -0.002333 0.000000
# 3 -0.001623 -0.000839 0.005186 0.000000 -0.000429 0.000000
# 4 0.000000 0.000000 0.000000 0.030305 0.000000 -0.019569
# 5 -0.001470 -0.002333 -0.000429 0.000000 0.015891 0.000000
# 6 0.000000 0.000000 0.000000 -0.019569 0.000000 0.029033
#
#
# Mechanical properties :
#
#
# Convention : Reuss Voigt Hill
#
# Bulk Modulus (GPa) = 110.20814 128.25261 119.23037
# Shear Modulus (GPa) = 47.69261 67.12895 57.41078
#
# Velocity S-wave (km/s) = 4.06566 4.82348 4.46070
# Velocity P-wave (km/s) = 7.76120 8.68746 8.23736
#
# Compressibility (1/GPa) = 0.00907374
#
# Stress axis : x y z
#
# Youngs Moduli (GPa) = 135.53149 189.94807 192.82001
#
# Poissons Ratio (x) = 0.36384 0.31290
# Poissons Ratio (y) = 0.25960 0.16187
# Poissons Ratio (z) = 0.21994 0.15946
#
# Static dielectric constant tensor:
#      x y z
#    x 2.322300 0.000000 -0.194730 
#    y 0.000000 2.068470 0.000000 
#    z -0.194730 0.000000 2.411880 
# 
# From -- ./inp_files/194408.got.cif
#   From: 2010.05.17/outbox.cif.g08.bks.cpg/sg15_98_cif.got.tgz:194408.got - 2010.06.03 18:47:42.
