data_PCOD9297821
_publ_section_title
;
Structure prediction by ZEFSAII (Michael W. Deem and Ramdas Pophale) SiO2 
 PCOD9297821
Probable space group: C 2/C
;
_chemical_formula_sum "Si O2"
_cell_formula_units_Z 32
_cell_length_a 9.045576
_cell_length_b 19.239845
_cell_length_c 8.138647
_cell_angle_alpha 90.000000
_cell_angle_beta 62.370481
_cell_angle_gamma 90.000000
_cell_volume 1254.892317
_symmetry_space_group_name_H-M "C 2/C"
_symmetry_group_IT_number 15
_symmetry_cell_setting 'monoclinic'
loop_
_space_group_symop_operation_xyz
x,y,z
-x,y,1/2-z
-x,-y,-z
x,-y,1/2+z
1/2+x,1/2+y,z
1/2-x,1/2+y,1/2-z
1/2-x,1/2-y,-z
1/2+x,1/2-y,1/2+z
loop_
_atom_site_type_symbol
_atom_site_label
_atom_site_fract_x
_atom_site_fract_y
_atom_site_fract_z
Si Si1 0.000000 0.040444 0.750000
Si Si2 0.271546 0.442592 0.091502
Si Si3 0.500000 0.048841 0.250000
Si Si4 0.666416 0.727958 0.217370
Si Si5 0.463392 0.846223 0.511921
O O1 0.118752 0.987887 0.589355
O O2 0.104801 0.084107 0.829980
O O3 0.147536 0.499494 0.232544
O O4 0.153722 0.387382 0.059636
O O5 0.444210 0.096308 0.429813
O O6 0.500000 0.685510 0.250000
O O7 0.823971 0.687580 0.206556
O O8 0.750000 0.750000 0.000000
O O9 0.412293 0.789770 0.132904
#
# Coordination Sequence:
#
# PCOD9297821 Si02
#       5
#     4   8   4   8   8
#     4  10  24  42  68 112 146 194 232 296 392 424
#     4  11  24  44  71 111 150 189 238 309 380 438
#     4  12  26  42  74 114 146 194 234 318 370 442
#     4   9  22  41  68  98 131 205 233 295 353 417
#     4  11  24  44  71 105 152 188 257 292 367 443
#
# _framework density 25.500195999999999
#
# number of rings (size 3 to 8) (size 9 to 14) (size 15 to 20)
#    0.000    1.500    2.500    0.750    7.000    1.000 
#    0.000    2.500    0.000   15.000    0.000    0.000 
#    0.000    0.000    0.000    0.000    0.000    0.000 
#
# Total GULP energy -89373.706728 kJ/mol
# GULP energy per Si atom -5585.856671 kJ/mol
# Density = 2.544216 g / cm^3
# Si number density = 25.500196 Si / 1000 Ang^3
#
#
#
# Elastic Constant Matrix: (Units=GPa)
#
#
# Indices 1 2 3 4 5 6 
#
# 1 118.5403 42.3011 59.8513 0.0000 4.6876 0.0000
# 2 42.3011 104.7900 45.9554 0.0000 1.0391 0.0000
# 3 59.8513 45.9554 96.9122 0.0000 -13.0586 0.0000
# 4 0.0000 0.0000 0.0000 41.3903 0.0000 -31.7515
# 5 4.6876 1.0391 -13.0586 0.0000 68.6667 0.0000
# 6 0.0000 0.0000 0.0000 -31.7515 0.0000 1.3806
#
#
#
# Elastic Compliance Matrix: (Units=1/GPa)
#
#
# Indices 1 2 3 4 5 6 
#
# 1 0.012948 -0.001975 -0.007364 0.000000 -0.002254 0.000000
# 2 -0.001975 0.012464 -0.004822 0.000000 -0.000971 0.000000
# 3 -0.007364 -0.004822 0.017683 0.000000 0.003939 0.000000
# 4 0.000000 0.000000 0.000000 -0.001452 0.000000 -0.033387
# 5 -0.002254 -0.000971 0.003939 0.000000 0.015481 0.000000
# 6 0.000000 0.000000 0.000000 -0.033387 0.000000 -0.043522
#
#
# Mechanical properties :
#
#
# Convention : Reuss Voigt Hill
#
# Bulk Modulus (GPa) = 67.68170 68.49535 68.08852
# Shear Modulus (GPa) = 106.72996 33.76317 70.24657
#
# Velocity S-wave (km/s) = 6.47653 3.64268 5.25426
# Velocity P-wave (km/s) = 9.08441 6.67916 7.97301
#
# Compressibility (1/GPa) = 0.01477504
#
# Stress axis : x y z
#
# Youngs Moduli (GPa) = 77.23350 80.22929 56.55070
#
# Poissons Ratio (x) = 0.15846 0.41641
# Poissons Ratio (y) = 0.15254 0.27266
# Poissons Ratio (z) = 0.56871 0.38683
#
# Static dielectric constant tensor:
#      x y z
#    x 2.112810 0.000000 -0.004200 
#    y 0.000000 2.105300 0.000000 
#    z -0.004200 0.000000 2.042250 
# 
# From -- ./inp_files/22207.got.cif
#   From: 2010.05.17/outbox.cif.g08.bks.cpg/sg15_12_cif.got.tgz:22207.got - 2010.06.03 18:47:42.
