data_PCOD9297240
_publ_section_title
;
Structure prediction by ZEFSAII (Michael W. Deem and Ramdas Pophale) SiO2 
 PCOD9297240
Probable space group: C 2/C
;
_chemical_formula_sum "Si O2"
_cell_formula_units_Z 60
_cell_length_a 21.635329
_cell_length_b 23.853827
_cell_length_c 8.871308
_cell_angle_alpha 90.000000
_cell_angle_beta 143.602438
_cell_angle_gamma 90.000000
_cell_volume 2716.724032
_symmetry_space_group_name_H-M "C 2/C"
_symmetry_group_IT_number 15
_symmetry_cell_setting 'monoclinic'
loop_
_space_group_symop_operation_xyz
x,y,z
-x,y,1/2-z
-x,-y,-z
x,-y,1/2+z
1/2+x,1/2+y,z
1/2-x,1/2+y,1/2-z
1/2-x,1/2-y,-z
1/2+x,1/2-y,1/2+z
loop_
_atom_site_type_symbol
_atom_site_label
_atom_site_fract_x
_atom_site_fract_y
_atom_site_fract_z
Si Si1 0.790320 0.891504 0.500084
Si Si2 0.859953 0.414391 0.799028
Si Si3 0.000000 0.663894 0.750000
Si Si4 0.989065 0.874790 0.404755
Si Si5 0.394922 0.446137 0.451972
Si Si6 0.293622 0.308109 0.013535
Si Si7 0.796201 0.484383 0.973067
Si Si8 0.792386 0.297816 0.978475
O O1 0.829718 0.896903 0.407692
O O2 0.734231 0.948394 0.440038
O O3 0.709196 0.847993 0.405397
O O4 0.897804 0.876616 0.797854
O O5 0.775482 0.365067 0.598143
O O6 0.839957 0.447517 0.919827
O O7 0.857344 0.460997 0.660026
O O8 0.960850 0.377133 0.038581
O O9 0.905143 0.701718 0.622409
O O10 0.928456 0.928382 0.352407
O O11 0.000000 0.878589 0.250000
O O12 0.912653 0.822537 0.291868
O O13 0.318213 0.497288 0.304710
O O14 0.500000 0.455200 0.750000
O O15 0.285107 0.302561 0.815700
O O16 0.250000 0.250000 0.000000
O O17 0.750000 0.250000 0.000000
#
# Coordination Sequence:
#
# PCOD9297240 Si02
#       8
#     8   8   4   8   8   8   8   8
#     4  11  23  40  63 101 137 177 231 289 361 437
#     4  11  24  43  71  99 142 193 242 306 361 439
#     4  10  24  50  70 106 138 190 256 298 382 424
#     4  11  21  41  67  98 143 179 233 286 364 437
#     4  10  24  37  61 103 141 188 227 281 354 438
#     4  11  24  44  67  99 136 188 242 296 365 436
#     4  12  21  41  68  98 144 186 236 296 361 432
#     4  11  25  46  71  97 140 185 238 308 362 435
#
# _framework density 22.085422000000001
#
# number of rings (size 3 to 8) (size 9 to 14) (size 15 to 20)
#    0.000    1.067    6.667    0.000    1.867    6.400 
#    1.200    0.000    0.000    6.400    0.000    0.000 
#    0.000    0.000    0.000    0.000    0.000    0.000 
#
# Total GULP energy -167213.699466 kJ/mol
# GULP energy per Si atom -5573.789982 kJ/mol
# Density = 2.203515 g / cm^3
# Si number density = 22.085422 Si / 1000 Ang^3
#
#
#
# Elastic Constant Matrix: (Units=GPa)
#
#
# Indices 1 2 3 4 5 6 
#
# 1 73.3290 27.8270 -4.3549 0.0000 -9.1142 0.0000
# 2 27.8270 85.7965 12.2828 0.0000 -10.3973 0.0000
# 3 -4.3549 12.2828 54.1665 0.0000 0.3179 0.0000
# 4 0.0000 0.0000 0.0000 22.4211 0.0000 -7.7210
# 5 -9.1142 -10.3973 0.3179 0.0000 31.8188 0.0000
# 6 0.0000 0.0000 0.0000 -7.7210 0.0000 39.0018
#
#
#
# Elastic Compliance Matrix: (Units=1/GPa)
#
#
# Indices 1 2 3 4 5 6 
#
# 1 0.016129 -0.005235 0.002467 0.000000 0.002885 0.000000
# 2 -0.005235 0.014267 -0.003675 0.000000 0.003199 0.000000
# 3 0.002467 -0.003675 0.019497 0.000000 -0.000689 0.000000
# 4 0.000000 0.000000 0.000000 0.047864 0.000000 0.009475
# 5 0.002885 0.003199 -0.000689 0.000000 0.033307 0.000000
# 6 0.000000 0.000000 0.000000 0.009475 0.000000 0.027516
#
#
# Mechanical properties :
#
#
# Convention : Reuss Voigt Hill
#
# Bulk Modulus (GPa) = 27.02149 31.64466 29.33307
# Shear Modulus (GPa) = 27.20343 30.48415 28.84379
#
# Velocity S-wave (km/s) = 3.51342 3.71925 3.61780
# Velocity P-wave (km/s) = 5.35914 5.72740 5.54633
#
# Compressibility (1/GPa) = 0.03700758
#
# Stress axis : x y z
#
# Youngs Moduli (GPa) = 62.00132 70.09138 51.28926
#
# Poissons Ratio (x) = 0.36691 -0.12652
# Poissons Ratio (y) = 0.32456 0.18848
# Poissons Ratio (z) = -0.15294 0.25757
#
# Static dielectric constant tensor:
#      x y z
#    x 1.813080 0.000000 -0.004500 
#    y 0.000000 1.727500 0.000000 
#    z -0.004500 0.000000 1.813720 
# 
# From -- ./inp_files/63945.got.cif
#   From: 2010.05.17/outbox.cif.g08.bks.cpg/sg15_32_cif.got.tgz:63945.got - 2010.06.03 18:47:42.
