data_PCOD9297119
_publ_section_title
;
Structure prediction by ZEFSAII (Michael W. Deem and Ramdas Pophale) SiO2 
 PCOD9297119
Probable space group: C 2/C
;
_chemical_formula_sum "Si O2"
_cell_formula_units_Z 40
_cell_length_a 12.515911
_cell_length_b 13.848096
_cell_length_c 10.696226
_cell_angle_alpha 90.000000
_cell_angle_beta 64.239504
_cell_angle_gamma 90.000000
_cell_volume 1669.644583
_symmetry_space_group_name_H-M "C 2/C"
_symmetry_group_IT_number 15
_symmetry_cell_setting 'monoclinic'
loop_
_space_group_symop_operation_xyz
x,y,z
-x,y,1/2-z
-x,-y,-z
x,-y,1/2+z
1/2+x,1/2+y,z
1/2-x,1/2+y,1/2-z
1/2-x,1/2-y,-z
1/2+x,1/2-y,1/2+z
loop_
_atom_site_type_symbol
_atom_site_label
_atom_site_fract_x
_atom_site_fract_y
_atom_site_fract_z
Si Si1 0.107239 0.597121 0.797193
Si Si2 0.174338 0.614016 0.255004
Si Si3 0.615976 0.783026 0.545396
Si Si4 0.950196 0.106077 0.045325
Si Si5 0.674127 0.703560 0.932437
O O1 0.122260 0.485977 0.831824
O O2 0.236664 0.625932 0.674878
O O3 0.000000 0.606774 0.750000
O O4 0.093538 0.667455 0.923014
O O5 0.113071 0.635865 0.152952
O O6 0.148299 0.708778 0.349864
O O7 0.317956 0.606498 0.167839
O O8 0.750000 0.750000 0.500000
O O9 0.554001 0.677241 0.574376
O O10 0.059594 0.157948 0.057557
O O11 0.000000 0.000000 0.000000
O O12 0.750000 0.750000 0.000000
#
# Coordination Sequence:
#
# PCOD9297119 Si02
#       5
#     8   8   8   8   8
#     4  12  26  46  73 106 150 198 248 307 380 452
#     4  11  27  49  72 109 149 197 249 309 372 451
#     4  10  23  48  71 102 149 193 245 303 370 448
#     4  11  23  46  74 106 141 190 251 300 369 442
#     4  12  27  45  71 107 148 193 245 314 375 436
#
# _framework density 23.957194999999999
#
# number of rings (size 3 to 8) (size 9 to 14) (size 15 to 20)
#    0.000    0.800    6.000    1.200    5.600    0.800 
#    0.000    2.000    0.000    0.000    0.000    0.000 
#    0.000    0.000    0.000    0.000    0.000    0.000 
#
# Total GULP energy -111615.635235 kJ/mol
# GULP energy per Si atom -5580.781762 kJ/mol
# Density = 2.390267 g / cm^3
# Si number density = 23.957195 Si / 1000 Ang^3
#
#
#
# Elastic Constant Matrix: (Units=GPa)
#
#
# Indices 1 2 3 4 5 6 
#
# 1 148.7119 70.3467 53.5109 0.0000 -14.8294 0.0000
# 2 70.3467 173.8981 25.7380 0.0000 -12.8646 0.0000
# 3 53.5109 25.7380 63.0241 0.0000 -17.1836 0.0000
# 4 0.0000 0.0000 0.0000 30.3968 0.0000 -11.4620
# 5 -14.8294 -12.8646 -17.1836 0.0000 52.6258 0.0000
# 6 0.0000 0.0000 0.0000 -11.4620 0.0000 53.4160
#
#
#
# Elastic Compliance Matrix: (Units=1/GPa)
#
#
# Indices 1 2 3 4 5 6 
#
# 1 0.011256 -0.003354 -0.008284 0.000000 -0.000353 0.000000
# 2 -0.003354 0.007146 0.000162 0.000000 0.000855 0.000000
# 3 -0.008284 0.000162 0.024379 0.000000 0.005666 0.000000
# 4 0.000000 0.000000 0.000000 0.035794 0.000000 0.007681
# 5 -0.000353 0.000855 0.005666 0.000000 0.020962 0.000000
# 6 0.000000 0.000000 0.000000 0.007681 0.000000 0.020369
#
#
# Mechanical properties :
#
#
# Convention : Reuss Voigt Hill
#
# Bulk Modulus (GPa) = 50.42668 76.09169 63.25918
# Shear Modulus (GPa) = 33.45189 43.02362 38.23776
#
# Velocity S-wave (km/s) = 3.74079 4.24235 3.99944
# Velocity P-wave (km/s) = 6.30495 7.47176 6.91301
#
# Compressibility (1/GPa) = 0.01983077
#
# Stress axis : x y z
#
# Youngs Moduli (GPa) = 88.83826 139.93126 41.01878
#
# Poissons Ratio (x) = 0.46927 0.33980
# Poissons Ratio (y) = 0.29792 -0.00664
# Poissons Ratio (z) = 0.73593 -0.02267
#
# Static dielectric constant tensor:
#      x y z
#    x 1.911160 0.000000 -0.084620 
#    y 0.000000 1.112570 0.000000 
#    z -0.084620 0.000000 1.983250 
# 
# From -- ./inp_files/85988.got.cif
#   From: 2010.05.17/outbox.cif.g08.bks.cpg/sg15_43_cif.got.tgz:85988.got - 2010.06.03 18:47:42.
