data_PCOD9297585
_publ_section_title
;
Structure prediction by ZEFSAII (Michael W. Deem and Ramdas Pophale) SiO2 
 PCOD9297585
Probable space group: C 2/C
;
_chemical_formula_sum "Si O2"
_cell_formula_units_Z 64
_cell_length_a 14.885822
_cell_length_b 8.727440
_cell_length_c 31.510591
_cell_angle_alpha 90.000000
_cell_angle_beta 132.959132
_cell_angle_gamma 90.000000
_cell_volume 2995.934874
_symmetry_space_group_name_H-M "C 2/C"
_symmetry_group_IT_number 15
_symmetry_cell_setting 'monoclinic'
loop_
_space_group_symop_operation_xyz
x,y,z
-x,y,1/2-z
-x,-y,-z
x,-y,1/2+z
1/2+x,1/2+y,z
1/2-x,1/2+y,1/2-z
1/2-x,1/2-y,-z
1/2+x,1/2-y,1/2+z
loop_
_atom_site_type_symbol
_atom_site_label
_atom_site_fract_x
_atom_site_fract_y
_atom_site_fract_z
Si Si1 0.754757 0.115790 0.819610
Si Si2 0.437046 0.884658 0.312473
Si Si3 0.571462 0.081327 0.483985
Si Si4 0.917103 0.950684 0.013219
Si Si5 0.016046 0.056520 0.135214
Si Si6 0.309640 0.955717 0.613505
Si Si7 0.652776 0.043172 0.141187
Si Si8 0.799435 0.905944 0.109854
O O1 0.627730 0.132886 0.753669
O O2 0.820392 0.279727 0.842244
O O3 0.844783 0.999697 0.824385
O O4 0.736475 0.052427 0.861061
O O5 0.487628 0.726583 0.347619
O O6 0.548780 0.003183 0.346037
O O7 0.335297 0.945676 0.312639
O O8 0.566140 0.266403 0.478450
O O9 0.489666 0.021902 0.418944
O O10 0.712810 0.051791 0.541378
O O11 0.500000 0.000000 0.500000
O O12 0.777340 0.988841 0.954926
O O13 0.960917 0.032874 0.070118
O O14 0.000000 0.000000 0.000000
O O15 0.935303 0.954121 0.140971
O O16 0.292137 0.775041 0.615451
O O17 0.741606 0.988543 0.132030
#
# Coordination Sequence:
#
# PCOD9297585 Si02
#       8
#     8   8   8   8   8   8   8   8
#     4  12  24  48  68  94 133 179 230 285 332 397
#     4  12  28  43  67  98 132 183 232 276 331 405
#     4   9  20  37  65  95 133 170 212 267 337 400
#     4  11  22  40  68 102 136 174 218 280 345 406
#     4  12  25  43  69 102 141 176 227 278 341 408
#     4  11  24  44  70  99 137 172 225 280 344 403
#     4  11  22  44  68  95 133 176 227 274 335 397
#     4  10  24  41  67 101 135 174 215 275 342 407
#
# _framework density 21.362282
#
# number of rings (size 3 to 8) (size 9 to 14) (size 15 to 20)
#    0.000    1.000    2.500    3.375    5.250    2.500 
#    0.000    5.625    0.000    0.000    0.000    0.000 
#    0.000    0.000    0.000    0.000    0.000    0.000 
#
# Total GULP energy -178826.758427 kJ/mol
# GULP energy per Si atom -5588.336201 kJ/mol
# Density = 2.131366 g / cm^3
# Si number density = 21.362282 Si / 1000 Ang^3
#
#
#
# Elastic Constant Matrix: (Units=GPa)
#
#
# Indices 1 2 3 4 5 6 
#
# 1 34.2327 -19.7481 1.8025 0.0000 8.9690 0.0000
# 2 -19.7481 44.9845 15.4087 0.0000 -10.3192 0.0000
# 3 1.8025 15.4087 112.8697 0.0000 1.6243 0.0000
# 4 0.0000 0.0000 0.0000 12.6377 0.0000 -5.1042
# 5 8.9690 -10.3192 1.6243 0.0000 20.8466 0.0000
# 6 0.0000 0.0000 0.0000 -5.1042 0.0000 34.1975
#
#
#
# Elastic Compliance Matrix: (Units=1/GPa)
#
#
# Indices 1 2 3 4 5 6 
#
# 1 0.041682 0.017171 -0.002877 0.000000 -0.009209 0.000000
# 2 0.017171 0.033709 -0.005015 0.000000 0.009689 0.000000
# 3 -0.002877 -0.005015 0.009619 0.000000 -0.001994 0.000000
# 4 0.000000 0.000000 0.000000 0.084204 0.000000 0.012568
# 5 -0.009209 0.009689 -0.001994 0.000000 0.056883 0.000000
# 6 0.000000 0.000000 0.000000 0.012568 0.000000 0.031118
#
#
# Mechanical properties :
#
#
# Convention : Reuss Voigt Hill
#
# Bulk Modulus (GPa) = 9.65563 20.77925 15.21744
# Shear Modulus (GPa) = 18.30297 26.51128 22.40712
#
# Velocity S-wave (km/s) = 2.93027 3.52665 3.24220
# Velocity P-wave (km/s) = 3.99730 5.13139 4.59944
#
# Compressibility (1/GPa) = 0.10356652
#
# Stress axis : x y z
#
# Youngs Moduli (GPa) = 23.99127 29.66603 103.95955
#
# Poissons Ratio (x) = -0.50940 0.29912
# Poissons Ratio (y) = -0.41196 0.52141
# Poissons Ratio (z) = 0.06903 0.14879
#
# Static dielectric constant tensor:
#      x y z
#    x 1.725840 0.000000 0.044140 
#    y 0.000000 1.715950 0.000000 
#    z 0.044140 0.000000 1.762200 
# 
# From -- ./inp_files/313168.got.cif
#   From: 2010.05.17/outbox.cif.g08.bks.cpg/sg15_157_cif.got.tgz:313168.got - 2010.06.03 18:47:42.
