data_PCOD9297096
_publ_section_title
;
Structure prediction by ZEFSAII (Michael W. Deem and Ramdas Pophale) SiO2 
 PCOD9297096
Probable space group: C 2/C
;
_chemical_formula_sum "Si O2"
_cell_formula_units_Z 36
_cell_length_a 8.058070
_cell_length_b 7.587836
_cell_length_c 21.446018
_cell_angle_alpha 90.000000
_cell_angle_beta 83.351596
_cell_angle_gamma 90.000000
_cell_volume 1302.462651
_symmetry_space_group_name_H-M "C 2/C"
_symmetry_group_IT_number 15
_symmetry_cell_setting 'monoclinic'
loop_
_space_group_symop_operation_xyz
x,y,z
-x,y,1/2-z
-x,-y,-z
x,-y,1/2+z
1/2+x,1/2+y,z
1/2-x,1/2+y,1/2-z
1/2-x,1/2-y,-z
1/2+x,1/2-y,1/2+z
loop_
_atom_site_type_symbol
_atom_site_label
_atom_site_fract_x
_atom_site_fract_y
_atom_site_fract_z
Si Si1 0.161853 0.781472 0.601767
Si Si2 0.997996 0.208155 0.511221
Si Si3 0.177533 0.494861 0.208229
Si Si4 0.662267 0.698536 0.624276
Si Si5 0.500000 0.376890 0.250000
O O1 0.016213 0.721479 0.558645
O O2 0.328471 0.737341 0.556702
O O3 0.142195 0.669056 0.664816
O O4 0.182490 0.990162 0.612680
O O5 0.132939 0.272359 0.555829
O O6 0.000000 0.000000 0.500000
O O7 0.254002 0.651132 0.161091
O O8 0.182064 0.965638 0.245746
O O9 0.000000 0.532346 0.250000
O O10 0.501695 0.694968 0.678379
#
# Coordination Sequence:
#
# PCOD9297096 Si02
#       5
#     8   8   8   8   4
#     4  10  23  47  81 110 154 210 257 325 402 457
#     4   9  20  47  76 112 160 193 260 344 375 458
#     4  12  29  50  79 117 155 213 263 317 398 467
#     4  11  25  47  73 111 158 198 262 327 377 469
#     4  12  28  50  72 114 166 198 260 334 372 466
#
# _framework density 27.639949999999999
#
# number of rings (size 3 to 8) (size 9 to 14) (size 15 to 20)
#    0.000    1.333    3.333    0.000    7.778    0.889 
#    0.000   11.111    0.000    0.000    0.000    0.000 
#    0.000    0.000    0.000    0.000    0.000    0.000 
#
# Total GULP energy -100392.735455 kJ/mol
# GULP energy per Si atom -5577.374192 kJ/mol
# Density = 2.757704 g / cm^3
# Si number density = 27.639950 Si / 1000 Ang^3
#
#
#
# Elastic Constant Matrix: (Units=GPa)
#
#
# Indices 1 2 3 4 5 6 
#
# 1 53.1794 -16.6849 38.1910 0.0000 20.9345 0.0000
# 2 -16.6849 119.3360 41.9767 0.0000 7.9178 0.0000
# 3 38.1910 41.9767 185.0895 0.0000 28.2441 0.0000
# 4 0.0000 0.0000 0.0000 54.2229 0.0000 -15.2252
# 5 20.9345 7.9178 28.2441 0.0000 64.4287 0.0000
# 6 0.0000 0.0000 0.0000 -15.2252 0.0000 9.1009
#
#
#
# Elastic Compliance Matrix: (Units=1/GPa)
#
#
# Indices 1 2 3 4 5 6 
#
# 1 0.028189 0.006606 -0.006209 0.000000 -0.007250 0.000000
# 2 0.006606 0.010657 -0.003486 0.000000 -0.001928 0.000000
# 3 -0.006209 -0.003486 0.007610 0.000000 -0.000890 0.000000
# 4 0.000000 0.000000 0.000000 0.034780 0.000000 0.058185
# 5 -0.007250 -0.001928 -0.000890 0.000000 0.018504 0.000000
# 6 0.000000 0.000000 0.000000 0.058185 0.000000 0.207221
#
#
# Mechanical properties :
#
#
# Convention : Reuss Voigt Hill
#
# Bulk Modulus (GPa) = 24.82578 53.84117 39.33347
# Shear Modulus (GPa) = 15.31087 45.15865 30.23476
#
# Velocity S-wave (km/s) = 2.35615 4.04644 3.31097
# Velocity P-wave (km/s) = 4.05009 6.43065 5.37385
#
# Compressibility (1/GPa) = 0.04028071
#
# Stress axis : x y z
#
# Youngs Moduli (GPa) = 35.47425 93.83120 131.40084
#
# Poissons Ratio (x) = -0.61986 0.81580
# Poissons Ratio (y) = -0.23435 0.45805
# Poissons Ratio (z) = 0.22024 0.32709
#
# Static dielectric constant tensor:
#      x y z
#    x 2.532520 0.000000 0.015490 
#    y 0.000000 2.631900 0.000000 
#    z 0.015490 0.000000 2.075140 
# 
# From -- ./inp_files/267030.got.cif
#   From: 2010.05.17/outbox.cif.g08.bks.cpg/sg15_134_cif.got.tgz:267030.got - 2010.06.03 18:47:42.
