data_PCOD9297709
_publ_section_title
;
Structure prediction by ZEFSAII (Michael W. Deem and Ramdas Pophale) SiO2 
 PCOD9297709
Probable space group: C 2/C
;
_chemical_formula_sum "Si O2"
_cell_formula_units_Z 48
_cell_length_a 12.265516
_cell_length_b 13.200180
_cell_length_c 13.717056
_cell_angle_alpha 90.000000
_cell_angle_beta 68.519028
_cell_angle_gamma 90.000000
_cell_volume 2066.623085
_symmetry_space_group_name_H-M "C 2/C"
_symmetry_group_IT_number 15
_symmetry_cell_setting 'monoclinic'
loop_
_space_group_symop_operation_xyz
x,y,z
-x,y,1/2-z
-x,-y,-z
x,-y,1/2+z
1/2+x,1/2+y,z
1/2-x,1/2+y,1/2-z
1/2-x,1/2-y,-z
1/2+x,1/2-y,1/2+z
loop_
_atom_site_type_symbol
_atom_site_label
_atom_site_fract_x
_atom_site_fract_y
_atom_site_fract_z
Si Si1 0.665264 0.098888 0.686393
Si Si2 0.132695 0.698068 0.503408
Si Si3 0.133736 0.022723 0.429697
Si Si4 0.169693 0.600467 0.989695
Si Si5 0.920897 0.437497 0.640385
Si Si6 0.119231 0.765045 0.862195
O O1 0.616231 0.112257 0.593282
O O2 0.634100 0.197515 0.760261
O O3 0.803374 0.077328 0.632369
O O4 0.616923 0.996605 0.751216
O O5 0.250000 0.750000 0.500000
O O6 0.145065 0.656321 0.390377
O O7 0.015149 0.761013 0.556594
O O8 0.215094 0.058503 0.494633
O O9 0.146239 0.116481 0.350438
O O10 0.000000 0.000000 0.500000
O O11 0.053892 0.604978 0.095337
O O12 0.117672 0.525308 0.924137
O O13 0.189873 0.704791 0.923688
#
# Coordination Sequence:
#
# PCOD9297709 Si02
#       6
#     8   8   8   8   8   8
#     4  11  24  42  70  98 140 182 243 280 341 426
#     4  11  22  40  70 101 144 177 227 299 355 413
#     4  12  25  43  69 100 142 188 224 293 367 409
#     4   9  19  41  69  90 140 171 227 284 341 407
#     4   9  20  39  68 104 123 183 235 284 334 418
#     4  10  24  42  65 105 133 180 237 283 349 420
#
# _framework density 23.226296999999999
#
# number of rings (size 3 to 8) (size 9 to 14) (size 15 to 20)
#    0.000    1.667    1.667    3.000    4.667    0.000 
#    0.000    3.333    3.667    0.000    0.000    0.000 
#    0.000    0.000    0.000    0.000    0.000    0.000 
#
# Total GULP energy -133879.713203 kJ/mol
# GULP energy per Si atom -5578.321383 kJ/mol
# Density = 2.317343 g / cm^3
# Si number density = 23.226297 Si / 1000 Ang^3
#
#
#
# Elastic Constant Matrix: (Units=GPa)
#
#
# Indices 1 2 3 4 5 6 
#
# 1 143.1458 21.1688 28.7297 0.0000 -9.8789 0.0000
# 2 21.1688 84.7917 9.4518 0.0000 0.0565 0.0000
# 3 28.7297 9.4518 63.5871 0.0000 6.4873 0.0000
# 4 0.0000 0.0000 0.0000 39.6298 0.0000 0.8853
# 5 -9.8789 0.0565 6.4873 0.0000 40.9655 0.0000
# 6 0.0000 0.0000 0.0000 0.8853 0.0000 41.1426
#
#
#
# Elastic Compliance Matrix: (Units=1/GPa)
#
#
# Indices 1 2 3 4 5 6 
#
# 1 0.008144 -0.001623 -0.003699 0.000000 0.002552 0.000000
# 2 -0.001623 0.012319 -0.001074 0.000000 -0.000238 0.000000
# 3 -0.003699 -0.001074 0.017938 0.000000 -0.003731 0.000000
# 4 0.000000 0.000000 0.000000 0.025246 0.000000 -0.000543
# 5 0.002552 -0.000238 -0.003731 0.000000 0.025617 0.000000
# 6 0.000000 0.000000 0.000000 -0.000543 0.000000 0.024317
#
#
# Mechanical properties :
#
#
# Convention : Reuss Voigt Hill
#
# Bulk Modulus (GPa) = 39.04657 45.58058 42.31358
# Shear Modulus (GPa) = 37.06215 39.82586 38.44400
#
# Velocity S-wave (km/s) = 3.99895 4.14537 4.07282
# Velocity P-wave (km/s) = 6.17819 6.52528 6.35411
#
# Compressibility (1/GPa) = 0.02561044
#
# Stress axis : x y z
#
# Youngs Moduli (GPa) = 122.78453 81.17831 55.74779
#
# Poissons Ratio (x) = 0.13173 0.20621
# Poissons Ratio (y) = 0.19924 0.05985
# Poissons Ratio (z) = 0.45417 0.08715
#
# Static dielectric constant tensor:
#      x y z
#    x 1.901410 0.000000 -0.018560 
#    y 0.000000 1.993460 0.000000 
#    z -0.018560 0.000000 1.982980 
# 
# From -- ./inp_files/143455.got.cif
#   From: 2010.05.17/outbox.cif.g08.bks.cpg/sg15_72_cif.got.tgz:143455.got - 2010.06.03 18:47:42.
