data_PCOD9297254
_publ_section_title
;
Structure prediction by ZEFSAII (Michael W. Deem and Ramdas Pophale) SiO2 
 PCOD9297254
Probable space group: C 2/C
;
_chemical_formula_sum "Si O2"
_cell_formula_units_Z 56
_cell_length_a 26.125875
_cell_length_b 12.798948
_cell_length_c 8.497875
_cell_angle_alpha 90.000000
_cell_angle_beta 71.145078
_cell_angle_gamma 90.000000
_cell_volume 2689.073137
_symmetry_space_group_name_H-M "C 2/C"
_symmetry_group_IT_number 15
_symmetry_cell_setting 'monoclinic'
loop_
_space_group_symop_operation_xyz
x,y,z
-x,y,1/2-z
-x,-y,-z
x,-y,1/2+z
1/2+x,1/2+y,z
1/2-x,1/2+y,1/2-z
1/2-x,1/2-y,-z
1/2+x,1/2-y,1/2+z
loop_
_atom_site_type_symbol
_atom_site_label
_atom_site_fract_x
_atom_site_fract_y
_atom_site_fract_z
Si Si1 0.660640 0.802622 0.761378
Si Si2 0.250365 0.654609 0.709222
Si Si3 0.042165 0.346747 0.995538
Si Si4 0.839744 0.799374 0.584289
Si Si5 0.749267 0.451449 0.948560
Si Si6 0.541744 0.346236 0.920868
Si Si7 0.000000 0.513404 0.250000
Si Si8 0.500000 0.513804 0.750000
O O1 0.697846 0.727947 0.829392
O O2 0.602673 0.813608 0.896910
O O3 0.653466 0.751813 0.595424
O O4 0.697145 0.904933 0.689793
O O5 0.197424 0.725044 0.773054
O O6 0.251340 0.574831 0.566277
O O7 0.250630 0.588932 0.873014
O O8 0.021132 0.412274 0.866099
O O9 0.042747 0.431355 0.135535
O O10 0.000587 0.249667 0.062164
O O11 0.803490 0.902071 0.584793
O O12 0.897905 0.810829 0.603130
O O13 0.542510 0.431711 0.780744
O O14 0.521656 0.411810 0.092175
#
# Coordination Sequence:
#
# PCOD9297254 Si02
#       8
#     8   8   8   8   8   8   4   4
#     4   9  19  36  58  82 113 155 193 234 293 351
#     4   9  19  37  58  84 114 153 193 237 295 343
#     4  11  22  40  60  85 119 154 196 248 295 353
#     4   9  19  36  58  82 113 155 193 234 293 351
#     4   9  19  35  56  82 114 147 193 237 280 353
#     4  11  22  40  60  85 119 154 196 248 295 353
#     4  10  24  38  58  88 114 154 200 238 304 358
#     4  10  24  38  58  88 114 154 200 238 304 358
#
# _framework density 20.825019000000001
#
# number of rings (size 3 to 8) (size 9 to 14) (size 15 to 20)
#    0.000    2.286    0.000    4.286    0.000    9.143 
#    0.000    5.714    0.000    0.000    0.000    0.000 
#    0.000    0.000    0.000    0.000    0.000    0.000 
#
# Total GULP energy -156384.113450 kJ/mol
# GULP energy per Si atom -5585.146909 kJ/mol
# Density = 2.077762 g / cm^3
# Si number density = 20.825019 Si / 1000 Ang^3
#
#
#
# Elastic Constant Matrix: (Units=GPa)
#
#
# Indices 1 2 3 4 5 6 
#
# 1 102.0483 37.2715 21.2769 0.0000 -40.3107 0.0000
# 2 37.2715 98.0766 29.7014 0.0000 -10.6542 0.0000
# 3 21.2769 29.7014 26.0157 0.0000 -1.7661 0.0000
# 4 0.0000 0.0000 0.0000 36.6676 0.0000 14.1494
# 5 -40.3107 -10.6542 -1.7661 0.0000 20.1025 0.0000
# 6 0.0000 0.0000 0.0000 14.1494 0.0000 2.8156
#
#
#
# Elastic Compliance Matrix: (Units=1/GPa)
#
#
# Indices 1 2 3 4 5 6 
#
# 1 0.113508 0.007176 -0.085827 0.000000 0.223877 0.000000
# 2 0.007176 0.017001 -0.023832 0.000000 0.021307 0.000000
# 3 -0.085827 -0.023832 0.124039 0.000000 -0.173840 0.000000
# 4 0.000000 0.000000 0.000000 -0.029037 0.000000 0.145922
# 5 0.223877 0.021307 -0.173840 0.000000 0.494697 0.000000
# 6 0.000000 0.000000 0.000000 0.145922 0.000000 -0.378153
#
#
# Mechanical properties :
#
#
# Convention : Reuss Voigt Hill
#
# Bulk Modulus (GPa) = 20.16866 44.73779 32.45322
# Shear Modulus (GPa) = 8.87234 21.10984 14.99109
#
# Velocity S-wave (km/s) = 2.06632 3.18728 2.68593
# Velocity P-wave (km/s) = 3.92412 5.92236 5.02360
#
# Compressibility (1/GPa) = 0.04958188
#
# Stress axis : x y z
#
# Youngs Moduli (GPa) = 8.80994 58.82059 8.06197
#
# Poissons Ratio (x) = -0.42211 0.69194
# Poissons Ratio (y) = -0.06322 0.19213
# Poissons Ratio (z) = 0.75613 1.40181
#
# Static dielectric constant tensor:
#      x y z
#    x 1.723510 0.000000 0.020150 
#    y 0.000000 1.747700 0.000000 
#    z 0.020150 0.000000 1.772850 
# 
# From -- ./inp_files/65477.got.cif
#   From: 2010.05.17/outbox.cif.g08.bks.cpg/sg15_33_cif.got.tgz:65477.got - 2010.06.03 18:47:42.
