data_PCOD9297991
_publ_section_title
;
Structure prediction by ZEFSAII (Michael W. Deem and Ramdas Pophale) SiO2 
 PCOD9297991
Probable space group: C 2/C
;
_chemical_formula_sum "Si O2"
_cell_formula_units_Z 44
_cell_length_a 13.394016
_cell_length_b 17.511601
_cell_length_c 7.899250
_cell_angle_alpha 90.000000
_cell_angle_beta 80.193819
_cell_angle_gamma 90.000000
_cell_volume 1825.704430
_symmetry_space_group_name_H-M "C 2/C"
_symmetry_group_IT_number 15
_symmetry_cell_setting 'monoclinic'
loop_
_space_group_symop_operation_xyz
x,y,z
-x,y,1/2-z
-x,-y,-z
x,-y,1/2+z
1/2+x,1/2+y,z
1/2-x,1/2+y,1/2-z
1/2-x,1/2-y,-z
1/2+x,1/2-y,1/2+z
loop_
_atom_site_type_symbol
_atom_site_label
_atom_site_fract_x
_atom_site_fract_y
_atom_site_fract_z
Si Si1 0.101313 0.714778 0.640123
Si Si2 0.500000 0.316353 0.250000
Si Si3 0.195117 0.828625 0.351577
Si Si4 0.939967 0.572125 0.095349
Si Si5 0.919929 0.068584 0.028464
Si Si6 0.207511 0.041466 0.112422
O O1 0.159996 0.780045 0.524573
O O2 0.189180 0.684310 0.738450
O O3 0.066833 0.644942 0.527901
O O4 0.000000 0.745042 0.750000
O O5 0.615172 0.290994 0.243907
O O6 0.517409 0.363668 0.072436
O O7 0.198785 0.912986 0.436440
O O8 0.821787 0.547781 0.148356
O O9 0.000000 0.592511 0.250000
O O10 0.000000 0.500000 0.000000
O O11 0.831388 0.043358 0.922729
O O12 0.869193 0.075366 0.225404
O O13 0.000000 0.000000 0.000000
#
# Coordination Sequence:
#
# PCOD9297991 Si02
#       6
#     8   4   8   8   8   8
#     4  10  24  45  68  88 128 165 214 257 314 377
#     4  12  24  36  64  90 134 158 212 256 310 384
#     4  10  24  43  62  95 124 171 206 259 317 378
#     4  11  24  42  66  94 123 165 212 260 311 369
#     4  12  21  35  57  94 125 161 205 252 311 375
#     4  11  22  39  62  90 132 165 207 258 318 373
#
# _framework density 24.100285
#
# number of rings (size 3 to 8) (size 9 to 14) (size 15 to 20)
#    0.000    1.091    3.636    1.636    3.818    5.818 
#    0.000    0.909    0.000    0.000    0.000    0.000 
#    0.000    0.000    0.000    0.000    0.000    0.000 
#
# Total GULP energy -122667.379779 kJ/mol
# GULP energy per Si atom -5575.789990 kJ/mol
# Density = 2.404543 g / cm^3
# Si number density = 24.100285 Si / 1000 Ang^3
#
#
#
# Elastic Constant Matrix: (Units=GPa)
#
#
# Indices 1 2 3 4 5 6 
#
# 1 197.9729 -8.5656 23.4398 0.0000 8.4497 0.0000
# 2 -8.5656 30.6736 -11.6458 0.0000 -4.4469 0.0000
# 3 23.4398 -11.6458 56.4818 0.0000 -1.2192 0.0000
# 4 0.0000 0.0000 0.0000 16.6332 0.0000 4.7574
# 5 8.4497 -4.4469 -1.2192 0.0000 53.4480 0.0000
# 6 0.0000 0.0000 0.0000 4.7574 0.0000 22.5309
#
#
#
# Elastic Compliance Matrix: (Units=1/GPa)
#
#
# Indices 1 2 3 4 5 6 
#
# 1 0.005364 0.000567 -0.002127 0.000000 -0.000849 0.000000
# 2 0.000567 0.035955 0.007244 0.000000 0.003067 0.000000
# 3 -0.002127 0.007244 0.020112 0.000000 0.001398 0.000000
# 4 0.000000 0.000000 0.000000 0.063985 0.000000 -0.013510
# 5 -0.000849 0.003067 0.001398 0.000000 0.019131 0.000000
# 6 0.000000 0.000000 0.000000 -0.013510 0.000000 0.047236
#
#
# Mechanical properties :
#
#
# Convention : Reuss Voigt Hill
#
# Bulk Modulus (GPa) = 13.73666 32.39835 23.06750
# Shear Modulus (GPa) = 24.42831 37.31575 30.87203
#
# Velocity S-wave (km/s) = 3.18718 3.93918 3.58296
# Velocity P-wave (km/s) = 4.38820 5.84481 5.16808
#
# Compressibility (1/GPa) = 0.07279792
#
# Stress axis : x y z
#
# Youngs Moduli (GPa) = 186.43273 27.81275 49.72266
#
# Poissons Ratio (x) = -0.01577 0.10578
# Poissons Ratio (y) = -0.10571 -0.36021
# Poissons Ratio (z) = 0.39662 -0.20148
#
# Static dielectric constant tensor:
#      x y z
#    x 2.041870 0.000000 0.031360 
#    y 0.000000 2.049930 0.000000 
#    z 0.031360 0.000000 1.865910 
# 
# From -- ./inp_files/30745.got.cif
#   From: 2010.05.17/outbox.cif.g08.bks.cpg/sg15_16_cif.got.tgz:30745.got - 2010.06.03 18:47:42.
