data_PCOD9297507
_publ_section_title
;
Structure prediction by ZEFSAII (Michael W. Deem and Ramdas Pophale) SiO2 
 PCOD9297507
Probable space group: C 2/C
;
_chemical_formula_sum "Si O2"
_cell_formula_units_Z 60
_cell_length_a 25.565741
_cell_length_b 11.479891
_cell_length_c 8.742699
_cell_angle_alpha 90.000000
_cell_angle_beta 73.394167
_cell_angle_gamma 90.000000
_cell_volume 2458.896288
_symmetry_space_group_name_H-M "C 2/C"
_symmetry_group_IT_number 15
_symmetry_cell_setting 'monoclinic'
loop_
_space_group_symop_operation_xyz
x,y,z
-x,y,1/2-z
-x,-y,-z
x,-y,1/2+z
1/2+x,1/2+y,z
1/2-x,1/2+y,1/2-z
1/2-x,1/2-y,-z
1/2+x,1/2-y,1/2+z
loop_
_atom_site_type_symbol
_atom_site_label
_atom_site_fract_x
_atom_site_fract_y
_atom_site_fract_z
Si Si1 0.323856 0.864378 0.590325
Si Si2 0.088018 0.385979 0.222456
Si Si3 0.798417 0.582784 0.783246
Si Si4 0.021022 0.201463 0.569572
Si Si5 0.188281 0.875971 0.238606
Si Si6 0.370384 0.442816 0.507957
Si Si7 0.500000 0.926189 0.750000
Si Si8 0.552905 0.642848 0.140324
O O1 0.380920 0.905167 0.467058
O O2 0.285543 0.881776 0.470483
O O3 0.331133 0.734512 0.645332
O O4 0.303685 0.945551 0.744314
O O5 0.139773 0.373767 0.291002
O O6 0.046313 0.490032 0.279345
O O7 0.060526 0.261025 0.228783
O O8 0.753369 0.628697 0.705472
O O9 0.077042 0.133309 0.486040
O O10 0.000000 0.158734 0.750000
O O11 0.025910 0.340015 0.600346
O O12 0.968884 0.179300 0.506841
O O13 0.165145 0.874474 0.087344
O O14 0.167275 0.997038 0.332369
O O15 0.397251 0.556428 0.405392
O O16 0.500000 0.580269 0.250000
#
# Coordination Sequence:
#
# PCOD9297507 Si02
#       8
#     8   8   8   8   8   8   4   8
#     4  10  24  45  72  99 145 180 233 295 347 413
#     4  10  24  40  72  94 146 172 235 283 352 409
#     4  10  24  44  71 104 137 187 233 290 352 420
#     4  10  25  41  67  95 143 182 224 291 346 410
#     4  12  25  46  73 103 144 184 237 294 351 415
#     4  12  24  43  72 102 139 186 235 286 352 419
#     4  10  24  44  66 106 132 186 228 286 350 420
#     4  12  23  42  65 104 135 179 232 287 344 420
#
# _framework density 24.401191000000001
#
# number of rings (size 3 to 8) (size 9 to 14) (size 15 to 20)
#    1.200    0.000    2.000    3.600    3.733    2.667 
#    0.000    6.667    0.000    0.000    0.000    0.000 
#    0.000    0.000    0.000    0.000    0.000    0.000 
#
# Total GULP energy -167516.856799 kJ/mol
# GULP energy per Si atom -5583.895227 kJ/mol
# Density = 2.434565 g / cm^3
# Si number density = 24.401191 Si / 1000 Ang^3
#
#
#
# Elastic Constant Matrix: (Units=GPa)
#
#
# Indices 1 2 3 4 5 6 
#
# 1 131.4540 36.4475 9.4459 0.0000 26.1145 0.0000
# 2 36.4475 125.3805 24.7730 0.0000 15.1888 0.0000
# 3 9.4459 24.7730 52.4251 0.0000 24.6057 0.0000
# 4 0.0000 0.0000 0.0000 34.2379 0.0000 -15.4816
# 5 26.1145 15.1888 24.6057 0.0000 38.8160 0.0000
# 6 0.0000 0.0000 0.0000 -15.4816 0.0000 17.1788
#
#
#
# Elastic Compliance Matrix: (Units=1/GPa)
#
#
# Indices 1 2 3 4 5 6 
#
# 1 0.009523 -0.002452 0.002847 0.000000 -0.007252 0.000000
# 2 -0.002452 0.009465 -0.004366 0.000000 0.000714 0.000000
# 3 0.002847 -0.004366 0.029498 0.000000 -0.018906 0.000000
# 4 0.000000 0.000000 0.000000 0.049296 0.000000 0.044426
# 5 -0.007252 0.000714 -0.018906 0.000000 0.042347 0.000000
# 6 0.000000 0.000000 0.000000 0.044426 0.000000 0.098248
#
#
# Mechanical properties :
#
#
# Convention : Reuss Voigt Hill
#
# Bulk Modulus (GPa) = 24.66462 50.06583 37.36523
# Shear Modulus (GPa) = 19.24305 33.95274 26.59789
#
# Velocity S-wave (km/s) = 2.81127 3.73425 3.30513
# Velocity P-wave (km/s) = 4.54616 6.25740 5.46912
#
# Compressibility (1/GPa) = 0.04054390
#
# Stress axis : x y z
#
# Youngs Moduli (GPa) = 105.00601 105.65580 33.90014
#
# Poissons Ratio (x) = 0.25910 -0.09650
# Poissons Ratio (y) = 0.25751 0.14799
# Poissons Ratio (z) = -0.29891 0.46124
#
# Static dielectric constant tensor:
#      x y z
#    x 1.936740 0.000000 -0.024470 
#    y 0.000000 1.922500 0.000000 
#    z -0.024470 0.000000 2.063270 
# 
# From -- ./inp_files/65506.got.cif
#   From: 2010.05.17/outbox.cif.g08.bks.cpg/sg15_33_cif.got.tgz:65506.got - 2010.06.03 18:47:42.
