data_PCOD9297604
_publ_section_title
;
Structure prediction by ZEFSAII (Michael W. Deem and Ramdas Pophale) SiO2 
 PCOD9297604
Probable space group: C 2/C
;
_chemical_formula_sum "Si O2"
_cell_formula_units_Z 60
_cell_length_a 22.827610
_cell_length_b 7.786451
_cell_length_c 30.107294
_cell_angle_alpha 90.000000
_cell_angle_beta 144.054617
_cell_angle_gamma 90.000000
_cell_volume 3141.376774
_symmetry_space_group_name_H-M "C 2/C"
_symmetry_group_IT_number 15
_symmetry_cell_setting 'monoclinic'
loop_
_space_group_symop_operation_xyz
x,y,z
-x,y,1/2-z
-x,-y,-z
x,-y,1/2+z
1/2+x,1/2+y,z
1/2-x,1/2+y,1/2-z
1/2-x,1/2-y,-z
1/2+x,1/2-y,1/2+z
loop_
_atom_site_type_symbol
_atom_site_label
_atom_site_fract_x
_atom_site_fract_y
_atom_site_fract_z
Si Si1 0.000000 0.677776 0.250000
Si Si2 0.987756 0.906268 0.154501
Si Si3 0.262173 0.456939 0.004963
Si Si4 0.392845 0.437111 0.706608
Si Si5 0.180768 0.472719 0.047419
Si Si6 0.618529 0.670496 0.553281
Si Si7 0.474833 0.661398 0.546332
Si Si8 0.314523 0.934391 0.138264
O O1 0.983511 0.764045 0.190904
O O2 0.900434 0.570415 0.197336
O O3 0.878490 0.993974 0.085746
O O4 0.004366 0.831477 0.115927
O O5 0.076440 0.034329 0.223578
O O6 0.193545 0.518099 0.003234
O O7 0.250000 0.250000 0.000000
O O8 0.232527 0.529733 0.939067
O O9 0.500000 0.476534 0.750000
O O10 0.295692 0.550451 0.634937
O O11 0.364785 0.251051 0.672549
O O12 0.135480 0.641397 0.042759
O O13 0.114363 0.302269 0.013754
O O14 0.562599 0.696545 0.565303
O O15 0.557824 0.533835 0.485916
O O16 0.726501 0.578236 0.620371
#
# Coordination Sequence:
#
# PCOD9297604 Si02
#       8
#     4   8   8   8   8   8   8   8
#     4  12  22  36  66  96 134 166 202 272 346 390
#     4  12  23  38  63  95 128 173 212 262 336 397
#     4  12  20  37  66 100 125 166 219 273 334 389
#     4  11  23  37  57  93 135 164 195 264 341 393
#     4  11  22  40  68  95 129 166 217 270 325 395
#     4  10  24  41  68  93 121 175 221 270 318 375
#     4  11  23  45  66  90 128 169 228 268 311 387
#     4  11  23  40  59  96 132 166 211 270 329 397
#
# _framework density 19.099905
#
# number of rings (size 3 to 8) (size 9 to 14) (size 15 to 20)
#    0.000    0.800    6.667    0.400    1.867    3.200 
#    2.400    2.667    0.000    0.000    0.000    0.000 
#    0.000    0.000    0.000    0.000    0.000    0.000 
#
# Total GULP energy -167210.674903 kJ/mol
# GULP energy per Si atom -5573.689163 kJ/mol
# Density = 1.905643 g / cm^3
# Si number density = 19.099905 Si / 1000 Ang^3
#
#
#
# Elastic Constant Matrix: (Units=GPa)
#
#
# Indices 1 2 3 4 5 6 
#
# 1 169.5969 50.4077 62.1714 0.0001 -0.1773 0.0000
# 2 50.4077 91.3938 57.6325 0.0007 -10.8201 -0.0007
# 3 62.1714 57.6325 133.6366 -0.0001 0.0265 0.0002
# 4 0.0001 0.0007 -0.0001 31.6166 0.0001 2.9484
# 5 -0.1773 -10.8201 0.0265 0.0001 15.9651 -0.0004
# 6 0.0000 -0.0007 0.0002 2.9484 -0.0004 21.4004
#
#
#
# Elastic Compliance Matrix: (Units=1/GPa)
#
#
# Indices 1 2 3 4 5 6 
#
# 1 0.007612 -0.003018 -0.002239 0.000000 -0.001957 0.000000
# 2 -0.003018 0.018091 -0.006400 0.000000 0.012238 0.000001
# 3 -0.002239 -0.006400 0.011286 0.000000 -0.004381 0.000000
# 4 0.000000 0.000000 0.000000 0.032041 -0.000001 -0.004414
# 5 -0.001957 0.012238 -0.004381 -0.000001 0.070916 0.000002
# 6 0.000000 0.000001 0.000000 -0.004414 0.000002 0.047336
#
#
# Mechanical properties :
#
#
# Convention : Reuss Voigt Hill
#
# Bulk Modulus (GPa) = 73.13365 81.67228 77.40297
# Shear Modulus (GPa) = 23.23892 28.75748 25.99820
#
# Velocity S-wave (km/s) = 3.49191 3.88446 3.69340
# Velocity P-wave (km/s) = 7.39129 7.93550 7.66822
#
# Compressibility (1/GPa) = 0.01367360
#
# Stress axis : x y z
#
# Youngs Moduli (GPa) = 131.36705 55.27558 88.60542
#
# Poissons Ratio (x) = 0.16682 0.19843
# Poissons Ratio (y) = 0.39646 0.56711
# Poissons Ratio (z) = 0.29420 0.35379
#
# Static dielectric constant tensor:
#      x y z
#    x 1.679610 0.000000 -0.000570 
#    y 0.000000 1.796470 0.000000 
#    z -0.000570 0.000000 1.697330 
# 
# From -- ./inp_files/300543.got.cif
#   From: 2010.05.17/outbox.cif.g08.bks.cpg/sg15_151_cif.got.tgz:300543.got - 2010.06.03 18:47:42.
