data_PCOD9297443
_publ_section_title
;
Structure prediction by ZEFSAII (Michael W. Deem and Ramdas Pophale) SiO2 
 PCOD9297443
Probable space group: C 2/C
;
_chemical_formula_sum "Si O2"
_cell_formula_units_Z 52
_cell_length_a 19.489919
_cell_length_b 12.711637
_cell_length_c 19.921986
_cell_angle_alpha 90.000000
_cell_angle_beta 31.067505
_cell_angle_gamma 90.000000
_cell_volume 2547.029208
_symmetry_space_group_name_H-M "C 2/C"
_symmetry_group_IT_number 15
_symmetry_cell_setting 'monoclinic'
loop_
_space_group_symop_operation_xyz
x,y,z
-x,y,1/2-z
-x,-y,-z
x,-y,1/2+z
1/2+x,1/2+y,z
1/2-x,1/2+y,1/2-z
1/2-x,1/2-y,-z
1/2+x,1/2-y,1/2+z
loop_
_atom_site_type_symbol
_atom_site_label
_atom_site_fract_x
_atom_site_fract_y
_atom_site_fract_z
Si Si1 0.153923 0.605155 0.822458
Si Si2 0.532426 0.333197 0.300170
Si Si3 0.584448 0.515061 0.362248
Si Si4 0.165759 0.321251 0.457741
Si Si5 0.324854 0.707980 0.288300
Si Si6 0.000000 0.326100 0.250000
Si Si7 0.388572 0.944177 0.466114
O O1 0.264101 0.518915 0.747950
O O2 0.112732 0.661000 0.926535
O O3 0.218733 0.693528 0.720325
O O4 0.028096 0.557939 0.889312
O O5 0.500000 0.356962 0.250000
O O6 0.537091 0.436208 0.343279
O O7 0.681451 0.284859 0.176638
O O8 0.425586 0.254428 0.422026
O O9 0.500000 0.500000 0.500000
O O10 0.584738 0.632741 0.333782
O O11 0.167526 0.438317 0.487687
O O12 0.408906 0.754622 0.279108
O O13 0.208630 0.635647 0.414326
O O14 0.085984 0.399149 0.128948
#
# Coordination Sequence:
#
# PCOD9297443 Si02
#       7
#     8   8   8   8   8   4   8
#     4  10  24  40  67 100 126 177 216 283 327 400
#     4  11  25  45  64  99 131 181 221 279 337 402
#     4  11  25  43  66 101 131 174 224 275 342 396
#     4  11  24  43  70  94 138 172 229 272 340 403
#     4  11  23  43  70  95 137 170 223 276 337 395
#     4  10  26  42  66 104 130 182 218 282 330 408
#     4  11  23  44  67  97 133 175 224 269 342 396
#
# _framework density 20.415942000000001
#
# number of rings (size 3 to 8) (size 9 to 14) (size 15 to 20)
#    0.000    1.231    3.077    2.308   10.769    1.231 
#    5.538    0.000    0.000    0.000    0.000    0.000 
#    0.000    0.000    0.000    0.000    0.000    0.000 
#
# Total GULP energy -145409.176954 kJ/mol
# GULP energy per Si atom -5592.660652 kJ/mol
# Density = 2.036947 g / cm^3
# Si number density = 20.415942 Si / 1000 Ang^3
#
#
#
# Elastic Constant Matrix: (Units=GPa)
#
#
# Indices 1 2 3 4 5 6 
#
# 1 97.2493 28.6151 27.6114 0.0000 26.7326 0.0000
# 2 28.6151 50.1410 12.9562 -0.0001 2.5209 0.0000
# 3 27.6114 12.9562 95.4583 -0.0001 21.0937 0.0000
# 4 0.0000 -0.0001 -0.0001 38.1593 0.0001 11.4263
# 5 26.7326 2.5209 21.0937 0.0001 28.1362 0.0000
# 6 0.0000 0.0000 0.0000 11.4263 0.0000 22.3465
#
#
#
# Elastic Compliance Matrix: (Units=1/GPa)
#
#
# Indices 1 2 3 4 5 6 
#
# 1 0.017230 -0.008964 -0.000392 0.000000 -0.015274 0.000000
# 2 -0.008964 0.025334 -0.002668 0.000000 0.008247 0.000000
# 3 -0.000392 -0.002668 0.012964 0.000000 -0.009107 0.000000
# 4 0.000000 0.000000 0.000000 0.030944 0.000000 -0.015822
# 5 -0.015274 0.008247 -0.009107 0.000000 0.056142 0.000000
# 6 0.000000 0.000000 0.000000 -0.015822 0.000000 0.052840
#
#
# Mechanical properties :
#
#
# Convention : Reuss Voigt Hill
#
# Bulk Modulus (GPa) = 31.76638 42.35714 37.06176
# Shear Modulus (GPa) = 21.73951 29.30610 25.52281
#
# Velocity S-wave (km/s) = 3.26671 3.79285 3.53957
# Velocity P-wave (km/s) = 5.46095 6.32242 5.90741
#
# Compressibility (1/GPa) = 0.03147982
#
# Stress axis : x y z
#
# Youngs Moduli (GPa) = 58.03718 39.47224 77.13788
#
# Poissons Ratio (x) = 0.35383 0.03025
# Poissons Ratio (y) = 0.52025 0.20581
# Poissons Ratio (z) = 0.02276 0.10532
#
# Static dielectric constant tensor:
#      x y z
#    x 1.715640 0.000000 -0.001420 
#    y 0.000000 1.696820 0.000000 
#    z -0.001420 0.000000 1.737320 
# 
# From -- ./inp_files/110957.got.cif
#   From: 2010.05.17/outbox.cif.g08.bks.cpg/sg15_56_cif.got.tgz:110957.got - 2010.06.03 18:47:42.
