data_PCOD9297868
_publ_section_title
;
Structure prediction by ZEFSAII (Michael W. Deem and Ramdas Pophale) SiO2 
 PCOD9297868
Probable space group: C 2/C
;
_chemical_formula_sum "Si O2"
_cell_formula_units_Z 40
_cell_length_a 11.848149
_cell_length_b 21.119310
_cell_length_c 10.497095
_cell_angle_alpha 90.000000
_cell_angle_beta 137.876212
_cell_angle_gamma 90.000000
_cell_volume 1761.773523
_symmetry_space_group_name_H-M "C 2/C"
_symmetry_group_IT_number 15
_symmetry_cell_setting 'monoclinic'
loop_
_space_group_symop_operation_xyz
x,y,z
-x,y,1/2-z
-x,-y,-z
x,-y,1/2+z
1/2+x,1/2+y,z
1/2-x,1/2+y,1/2-z
1/2-x,1/2-y,-z
1/2+x,1/2-y,1/2+z
loop_
_atom_site_type_symbol
_atom_site_label
_atom_site_fract_x
_atom_site_fract_y
_atom_site_fract_z
Si Si1 0.000000 0.358949 0.750000
Si Si2 0.029381 0.172020 0.077442
Si Si3 0.648753 0.590386 0.972424
Si Si4 0.599004 0.810756 0.553004
Si Si5 0.859578 0.954203 0.521554
Si Si6 0.500000 0.099382 0.750000
O O1 0.836873 0.401004 0.580485
O O2 0.956323 0.322581 0.845888
O O3 0.202383 0.174147 0.303328
O O4 0.913507 0.110773 0.998980
O O5 0.106167 0.156412 0.004391
O O6 0.935194 0.237769 0.007416
O O7 0.500000 0.583174 0.750000
O O8 0.645696 0.523972 0.048424
O O9 0.496353 0.855748 0.371678
O O10 0.668185 0.941969 0.403709
O O11 0.000000 0.957327 0.750000
#
# Coordination Sequence:
#
# PCOD9297868 Si02
#       6
#     4   8   8   8   8   4
#     4  10  25  48  64 104 133 170 224 276 322 404
#     4  11  24  43  65 100 134 173 224 276 323 401
#     4  10  24  42  69  96 131 181 218 272 331 391
#     4  11  26  42  72  97 137 174 221 272 336 384
#     4  11  23  44  66  98 135 172 224 274 327 396
#     4  12  25  44  72 100 129 182 212 280 332 390
#
# _framework density 22.704394000000001
#
# number of rings (size 3 to 8) (size 9 to 14) (size 15 to 20)
#    0.000    1.200    2.000    2.400    8.400    3.200 
#    0.000    3.000    0.000    0.000    0.000    0.000 
#    0.000    0.000    0.000    0.000    0.000    0.000 
#
# Total GULP energy -111480.957107 kJ/mol
# GULP energy per Si atom -5574.047855 kJ/mol
# Density = 2.265272 g / cm^3
# Si number density = 22.704394 Si / 1000 Ang^3
#
#
#
# Elastic Constant Matrix: (Units=GPa)
#
#
# Indices 1 2 3 4 5 6 
#
# 1 44.6382 -2.0833 24.7459 0.0000 12.2198 0.0000
# 2 -2.0833 84.4615 24.9442 0.0000 8.8785 0.0000
# 3 24.7459 24.9442 114.5667 0.0000 29.2192 0.0000
# 4 0.0000 0.0000 0.0000 30.4233 0.0000 8.1885
# 5 12.2198 8.8785 29.2192 0.0000 49.1418 0.0000
# 6 0.0000 0.0000 0.0000 8.1885 0.0000 27.9493
#
#
#
# Elastic Compliance Matrix: (Units=1/GPa)
#
#
# Indices 1 2 3 4 5 6 
#
# 1 0.026540 0.002634 -0.005306 0.000000 -0.003920 0.000000
# 2 0.002634 0.012939 -0.003092 0.000000 -0.001154 0.000000
# 3 -0.005306 -0.003092 0.011869 0.000000 -0.005179 0.000000
# 4 0.000000 0.000000 0.000000 0.035683 0.000000 -0.010454
# 5 -0.003920 -0.001154 -0.005179 0.000000 0.024612 0.000000
# 6 0.000000 0.000000 0.000000 -0.010454 0.000000 0.038842
#
#
# Mechanical properties :
#
#
# Convention : Reuss Voigt Hill
#
# Bulk Modulus (GPa) = 25.11314 37.65335 31.38324
# Shear Modulus (GPa) = 28.52473 34.57351 31.54912
#
# Velocity S-wave (km/s) = 3.54835 3.90650 3.73172
# Velocity P-wave (km/s) = 5.27946 6.08012 5.69388
#
# Compressibility (1/GPa) = 0.03981980
#
# Stress axis : x y z
#
# Youngs Moduli (GPa) = 37.67893 77.28522 84.25584
#
# Poissons Ratio (x) = -0.20355 0.44707
# Poissons Ratio (y) = -0.09924 0.26049
# Poissons Ratio (z) = 0.19993 0.23894
#
# Static dielectric constant tensor:
#      x y z
#    x 1.967260 0.000000 -0.002910 
#    y 0.000000 1.827860 0.000000 
#    z -0.002910 0.000000 1.866730 
# 
# From -- ./inp_files/89343.got.cif
#   From: 2010.05.17/outbox.cif.g08.bks.cpg/sg15_45_cif.got.tgz:89343.got - 2010.06.03 18:47:42.
