data_PCOD9297759
_publ_section_title
;
Structure prediction by ZEFSAII (Michael W. Deem and Ramdas Pophale) SiO2 
 PCOD9297759
Probable space group: C 2/C
;
_chemical_formula_sum "Si O2"
_cell_formula_units_Z 52
_cell_length_a 8.553961
_cell_length_b 17.780902
_cell_length_c 22.416457
_cell_angle_alpha 90.000000
_cell_angle_beta 48.641840
_cell_angle_gamma 90.000000
_cell_volume 2559.133801
_symmetry_space_group_name_H-M "C 2/C"
_symmetry_group_IT_number 15
_symmetry_cell_setting 'monoclinic'
loop_
_space_group_symop_operation_xyz
x,y,z
-x,y,1/2-z
-x,-y,-z
x,-y,1/2+z
1/2+x,1/2+y,z
1/2-x,1/2+y,1/2-z
1/2-x,1/2-y,-z
1/2+x,1/2-y,1/2+z
loop_
_atom_site_type_symbol
_atom_site_label
_atom_site_fract_x
_atom_site_fract_y
_atom_site_fract_z
Si Si1 0.028999 0.907766 0.646976
Si Si2 0.917845 0.623428 0.622117
Si Si3 0.010322 0.414467 0.969839
Si Si4 0.869568 0.074353 0.519062
Si Si5 0.296404 0.323216 0.528042
Si Si6 0.500000 0.469612 0.250000
Si Si7 0.743957 0.219406 0.179568
O O1 0.262575 0.893859 0.612791
O O2 0.086489 0.917184 0.562737
O O3 0.957900 0.979684 0.702221
O O4 0.850641 0.845272 0.692387
O O5 0.956860 0.634227 0.541623
O O6 0.705833 0.578094 0.684995
O O7 0.878619 0.705912 0.657415
O O8 0.122287 0.578575 0.592282
O O9 0.844151 0.391584 0.962097
O O10 0.000000 0.500000 0.000000
O O11 0.970252 0.143741 0.529993
O O12 0.000000 0.000000 0.500000
O O13 0.250000 0.250000 0.500000
O O14 0.256018 0.304562 0.607149
O O15 0.500000 0.233237 0.250000
#
# Coordination Sequence:
#
# PCOD9297759 Si02
#       7
#     8   8   8   8   8   4   8
#     4  10  25  39  67  93 129 170 218 268 326 390
#     4  11  23  42  68  93 131 174 219 271 330 392
#     4  11  21  40  69  96 123 168 231 267 311 387
#     4  10  24  42  66  96 130 167 221 277 323 378
#     4  11  23  39  68  94 125 169 221 266 318 391
#     4  12  24  42  70  96 128 180 222 260 340 404
#     4  11  25  43  61  98 141 170 213 277 345 387
#
# _framework density 20.319375000000001
#
# number of rings (size 3 to 8) (size 9 to 14) (size 15 to 20)
#    0.000    1.231    3.846    1.846    4.308    3.077 
#    0.000    0.000    0.000    0.000    0.000    0.000 
#    0.000    0.000    0.000    0.000    0.000    0.000 
#
# Total GULP energy -144973.210001 kJ/mol
# GULP energy per Si atom -5575.892692 kJ/mol
# Density = 2.027313 g / cm^3
# Si number density = 20.319375 Si / 1000 Ang^3
#
#
#
# Elastic Constant Matrix: (Units=GPa)
#
#
# Indices 1 2 3 4 5 6 
#
# 1 89.3939 42.2061 17.2564 -0.0003 -21.3783 0.0000
# 2 42.2061 97.8247 16.7779 -0.0013 -11.8241 0.0005
# 3 17.2564 16.7779 67.7328 -0.0017 -27.2104 0.0010
# 4 -0.0003 -0.0013 -0.0017 18.2553 0.0004 -10.0722
# 5 -21.3783 -11.8241 -27.2104 0.0004 28.9235 -0.0003
# 6 0.0000 0.0005 0.0010 -10.0722 -0.0003 43.5167
#
#
#
# Elastic Compliance Matrix: (Units=1/GPa)
#
#
# Indices 1 2 3 4 5 6 
#
# 1 0.016400 -0.006019 0.001919 0.000000 0.011467 0.000000
# 2 -0.006019 0.013051 -0.002159 0.000001 -0.001145 0.000000
# 3 0.001919 -0.002159 0.024154 0.000002 0.023259 0.000000
# 4 0.000000 0.000001 0.000002 0.062798 0.000001 0.014535
# 5 0.011467 -0.001145 0.023259 0.000001 0.064463 0.000000
# 6 0.000000 0.000000 0.000000 0.014535 0.000000 0.026344
#
#
# Mechanical properties :
#
#
# Convention : Reuss Voigt Hill
#
# Bulk Modulus (GPa) = 24.33876 45.27026 34.80451
# Shear Modulus (GPa) = 21.42034 30.05316 25.73675
#
# Velocity S-wave (km/s) = 3.25034 3.85000 3.56281
# Velocity P-wave (km/s) = 5.10788 6.48776 5.83873
#
# Compressibility (1/GPa) = 0.04108674
#
# Stress axis : x y z
#
# Youngs Moduli (GPa) = 60.97589 76.62158 41.40175
#
# Poissons Ratio (x) = 0.46117 -0.07946
# Poissons Ratio (y) = 0.36701 0.08940
# Poissons Ratio (z) = -0.11703 0.16545
#
# Static dielectric constant tensor:
#      x y z
#    x 1.779350 0.000000 -0.037000 
#    y 0.000000 1.782010 0.000000 
#    z -0.037000 0.000000 1.710780 
# 
# From -- ./inp_files/289520.got.cif
#   From: 2010.05.17/outbox.cif.g08.bks.cpg/sg15_145_cif.got.tgz:289520.got - 2010.06.03 18:47:42.
