data_PCOD9297044
_publ_section_title
;
Structure prediction by ZEFSAII (Michael W. Deem and Ramdas Pophale) SiO2 
 PCOD9297044
Probable space group: C 2/C
;
_chemical_formula_sum "Si O2"
_cell_formula_units_Z 36
_cell_length_a 18.025424
_cell_length_b 15.320592
_cell_length_c 12.220070
_cell_angle_alpha 90.000000
_cell_angle_beta 26.004460
_cell_angle_gamma 90.000000
_cell_volume 1479.605706
_symmetry_space_group_name_H-M "C 2/C"
_symmetry_group_IT_number 15
_symmetry_cell_setting 'monoclinic'
loop_
_space_group_symop_operation_xyz
x,y,z
-x,y,1/2-z
-x,-y,-z
x,-y,1/2+z
1/2+x,1/2+y,z
1/2-x,1/2+y,1/2-z
1/2-x,1/2-y,-z
1/2+x,1/2-y,1/2+z
loop_
_atom_site_type_symbol
_atom_site_label
_atom_site_fract_x
_atom_site_fract_y
_atom_site_fract_z
Si Si1 0.000000 0.317602 0.750000
Si Si2 0.014076 0.083265 0.354855
Si Si3 0.895409 0.764707 0.600376
Si Si4 0.784929 0.522419 0.611757
Si Si5 0.037723 0.351966 0.075165
O O1 0.991165 0.256939 0.655055
O O2 0.147434 0.385559 0.520757
O O3 0.787744 0.302651 0.689275
O O4 0.031908 0.161842 0.416075
O O5 0.180624 0.024944 0.153460
O O6 0.000000 0.111947 0.250000
O O7 0.649520 0.531103 0.888282
O O8 0.897234 0.678840 0.675344
O O9 0.927652 0.455303 0.464017
O O10 0.000000 0.324754 0.250000
#
# Coordination Sequence:
#
# PCOD9297044 Si02
#       5
#     4   8   8   8   8
#     4  12  26  46  68 106 144 182 236 286 344 430
#     4  10  23  47  72 103 140 188 231 290 351 425
#     4  11  26  43  73 102 143 188 235 287 354 410
#     4  10  24  43  69 109 140 184 229 291 362 404
#     4  11  23  45  69 106 138 185 237 292 345 421
#
# _framework density 24.330807
#
# number of rings (size 3 to 8) (size 9 to 14) (size 15 to 20)
#    0.000    1.333    1.111    2.667    3.111    9.778 
#   14.000    0.000    0.000    0.000    0.000    0.000 
#    0.000    0.000    0.000    0.000    0.000    0.000 
#
# Total GULP energy -100771.588679 kJ/mol
# GULP energy per Si atom -5598.421593 kJ/mol
# Density = 2.427543 g / cm^3
# Si number density = 24.330807 Si / 1000 Ang^3
#
#
#
# Elastic Constant Matrix: (Units=GPa)
#
#
# Indices 1 2 3 4 5 6 
#
# 1 91.4788 47.2260 38.6773 0.0000 38.0066 -0.0001
# 2 47.2260 82.1376 28.5999 0.0001 4.6849 0.0000
# 3 38.6773 28.5999 89.7129 0.0000 16.0071 0.0000
# 4 0.0000 0.0001 0.0000 47.8879 0.0001 -4.4472
# 5 38.0066 4.6849 16.0071 0.0001 39.2773 0.0000
# 6 -0.0001 0.0000 0.0000 -4.4472 0.0000 39.3662
#
#
#
# Elastic Compliance Matrix: (Units=1/GPa)
#
#
# Indices 1 2 3 4 5 6 
#
# 1 0.032033 -0.015466 -0.003967 0.000000 -0.027535 0.000000
# 2 -0.015466 0.021163 -0.002479 0.000000 0.013452 0.000000
# 3 -0.003967 -0.002479 0.013922 0.000000 -0.001540 0.000000
# 4 0.000000 0.000000 0.000000 0.021104 0.000000 0.002384
# 5 -0.027535 0.013452 -0.001540 0.000000 0.051128 0.000000
# 6 0.000000 0.000000 0.000000 0.002384 0.000000 0.025672
#
#
# Mechanical properties :
#
#
# Convention : Reuss Voigt Hill
#
# Bulk Modulus (GPa) = 42.92876 54.70398 48.81637
# Shear Modulus (GPa) = 23.08306 35.22802 29.15554
#
# Velocity S-wave (km/s) = 3.08347 3.80923 3.46540
# Velocity P-wave (km/s) = 5.50991 6.47141 6.00992
#
# Compressibility (1/GPa) = 0.02329441
#
# Stress axis : x y z
#
# Youngs Moduli (GPa) = 31.21773 47.25221 71.82983
#
# Poissons Ratio (x) = 0.73081 0.28492
# Poissons Ratio (y) = 0.48282 0.17807
# Poissons Ratio (z) = 0.12383 0.11714
#
# Static dielectric constant tensor:
#      x y z
#    x 1.934670 0.000000 -0.063180 
#    y 0.000000 1.991860 0.000000 
#    z -0.063180 0.000000 1.957860 
# 
# From -- ./inp_files/112586.got.cif
#   From: 2010.05.17/outbox.cif.g08.bks.cpg/sg15_57_cif.got.tgz:112586.got - 2010.06.03 18:47:42.
