data_PCOD9297596
_publ_section_title
;
Structure prediction by ZEFSAII (Michael W. Deem and Ramdas Pophale) SiO2 
 PCOD9297596
Probable space group: C 2/C
;
_chemical_formula_sum "Si O2"
_cell_formula_units_Z 32
_cell_length_a 8.791963
_cell_length_b 16.563090
_cell_length_c 17.516567
_cell_angle_alpha 90.000000
_cell_angle_beta 145.119469
_cell_angle_gamma 90.000000
_cell_volume 1458.718065
_symmetry_space_group_name_H-M "C 2/C"
_symmetry_group_IT_number 15
_symmetry_cell_setting 'monoclinic'
loop_
_space_group_symop_operation_xyz
x,y,z
-x,y,1/2-z
-x,-y,-z
x,-y,1/2+z
1/2+x,1/2+y,z
1/2-x,1/2+y,1/2-z
1/2-x,1/2-y,-z
1/2+x,1/2-y,1/2+z
loop_
_atom_site_type_symbol
_atom_site_label
_atom_site_fract_x
_atom_site_fract_y
_atom_site_fract_z
Si Si1 0.411131 0.546173 0.038235
Si Si2 0.882765 0.633357 0.992838
Si Si3 0.290632 0.686109 0.410133
Si Si4 0.695011 0.009378 0.669390
O O1 0.510176 0.636639 0.061843
O O2 0.589024 0.505948 0.177354
O O3 0.500000 0.500000 0.000000
O O4 0.096354 0.535018 0.918883
O O5 0.895968 0.723578 0.966631
O O6 0.757245 0.576825 0.875381
O O7 0.746792 0.645592 0.020671
O O8 0.148085 0.580698 0.116008
O O9 0.000000 0.687334 0.250000
#
# Coordination Sequence:
#
# PCOD9297596 Si02
#       4
#     8   8   8   8
#     4  12  23  45  69 101 137 178 227 278 337 402
#     4  10  24  41  68 100 133 181 223 278 339 405
#     4  11  22  43  67 101 137 179 223 282 339 406
#     4  11  25  44  70 102 133 179 228 278 338 406
#
# _framework density 21.937069999999999
#
# number of rings (size 3 to 8) (size 9 to 14) (size 15 to 20)
#    0.000    1.000    5.000    0.750    3.500    4.000 
#    0.000    0.000    5.500    0.000    0.000    0.000 
#    0.000    0.000    0.000    0.000    0.000    0.000 
#
# Total GULP energy -89277.878030 kJ/mol
# GULP energy per Si atom -5579.867377 kJ/mol
# Density = 2.188714 g / cm^3
# Si number density = 21.937070 Si / 1000 Ang^3
#
#
#
# Elastic Constant Matrix: (Units=GPa)
#
#
# Indices 1 2 3 4 5 6 
#
# 1 122.4364 74.5705 82.1310 0.0004 -5.2463 0.0001
# 2 74.5705 193.7385 61.3090 -0.0001 -13.8783 -0.0001
# 3 82.1310 61.3090 105.3441 0.0017 -3.1574 0.0013
# 4 0.0004 -0.0001 0.0017 5.4847 0.0010 -22.4241
# 5 -5.2463 -13.8783 -3.1574 0.0010 42.9930 0.0003
# 6 0.0001 -0.0001 0.0013 -22.4241 0.0003 43.6704
#
#
#
# Elastic Compliance Matrix: (Units=1/GPa)
#
#
# Indices 1 2 3 4 5 6 
#
# 1 0.018568 -0.003120 -0.012651 -0.000003 0.000330 -0.000001
# 2 -0.003120 0.006989 -0.001583 -0.000001 0.001759 0.000000
# 3 -0.012651 -0.001583 0.020260 0.000007 -0.000567 0.000003
# 4 -0.000003 -0.000001 0.000007 -0.165843 0.000004 -0.085158
# 5 0.000330 0.001759 -0.000567 0.000004 0.023826 0.000002
# 6 -0.000001 0.000000 0.000003 -0.085158 0.000002 -0.020829
#
#
# Mechanical properties :
#
#
# Convention : Reuss Voigt Hill
#
# Bulk Modulus (GPa) = 90.00373 95.28222 92.64297
# Shear Modulus (GPa) = -63.59880 31.99685 -15.80098
#
# Velocity S-wave (km/s) = -5.39021 3.82327 -2.68673
# Velocity P-wave (km/s) = 1.54208 7.93842 5.71824
#
# Compressibility (1/GPa) = 0.01111065
#
# Stress axis : x y z
#
# Youngs Moduli (GPa) = 53.85566 143.07647 49.35837
#
# Poissons Ratio (x) = 0.44638 0.62443
# Poissons Ratio (y) = 0.16802 0.07811
# Poissons Ratio (z) = 0.68133 0.22642
#
# Static dielectric constant tensor:
#      x y z
#    x 1.916150 0.000000 0.011530 
#    y 0.000000 1.848220 0.000000 
#    z 0.011530 0.000000 1.866650 
# 
# From -- ./inp_files/190108.got.cif
#   From: 2010.05.17/outbox.cif.g08.bks.cpg/sg15_96_cif.got.tgz:190108.got - 2010.06.03 18:47:42.
