data_PCOD9297772
_publ_section_title
;
Structure prediction by ZEFSAII (Michael W. Deem and Ramdas Pophale) SiO2 
 PCOD9297772
Probable space group: C 2/C
;
_chemical_formula_sum "Si O2"
_cell_formula_units_Z 52
_cell_length_a 18.676465
_cell_length_b 5.001344
_cell_length_c 26.905925
_cell_angle_alpha 90.000000
_cell_angle_beta 122.020166
_cell_angle_gamma 90.000000
_cell_volume 2130.856796
_symmetry_space_group_name_H-M "C 2/C"
_symmetry_group_IT_number 15
_symmetry_cell_setting 'monoclinic'
loop_
_space_group_symop_operation_xyz
x,y,z
-x,y,1/2-z
-x,-y,-z
x,-y,1/2+z
1/2+x,1/2+y,z
1/2-x,1/2+y,1/2-z
1/2-x,1/2-y,-z
1/2+x,1/2-y,1/2+z
loop_
_atom_site_type_symbol
_atom_site_label
_atom_site_fract_x
_atom_site_fract_y
_atom_site_fract_z
Si Si1 0.609141 0.154869 0.371021
Si Si2 0.460566 0.222544 0.825243
Si Si3 0.027290 0.077170 0.930879
Si Si4 0.292404 0.718356 0.394554
Si Si5 0.901005 0.287811 0.957133
Si Si6 0.500000 0.527965 0.750000
Si Si7 0.708825 0.001146 0.212189
O O1 0.594735 0.296816 0.418482
O O2 0.705196 0.160286 0.390370
O O3 0.556742 0.300996 0.307990
O O4 0.556806 0.880929 0.357283
O O5 0.460549 0.433185 0.869724
O O6 0.442473 0.350638 0.765200
O O7 0.390910 0.002109 0.811812
O O8 0.066665 0.853139 0.980977
O O9 0.979440 0.292596 0.947660
O O10 0.339362 0.435218 0.410324
O O11 0.277856 0.863581 0.336384
O O12 0.352514 0.934171 0.444357
O O13 0.752294 0.791877 0.266250
#
# Coordination Sequence:
#
# PCOD9297772 Si02
#       7
#     8   8   8   8   8   4   8
#     4  11  26  43  71 100 144 183 236 290 362 424
#     4  11  24  44  70 102 140 186 237 286 358 430
#     4  10  25  46  73 100 135 192 235 289 354 431
#     4  12  27  46  70 108 142 181 234 300 351 418
#     4  11  26  48  74 101 142 184 242 290 353 420
#     4  10  24  42  66  98 134 188 228 284 340 436
#     4  12  27  44  72 101 141 183 235 289 350 415
#
# _framework density 24.403327999999998
#
# number of rings (size 3 to 8) (size 9 to 14) (size 15 to 20)
#    0.000    0.923    1.538    3.231   15.077    2.462 
#    0.000    0.000    0.000    0.000    0.000    0.000 
#    0.000    0.000    0.000    0.000    0.000    0.000 
#
# Total GULP energy -145742.021232 kJ/mol
# GULP energy per Si atom -5605.462355 kJ/mol
# Density = 2.434779 g / cm^3
# Si number density = 24.403328 Si / 1000 Ang^3
#
#
#
# Elastic Constant Matrix: (Units=GPa)
#
#
# Indices 1 2 3 4 5 6 
#
# 1 169.8528 23.5786 40.0123 -0.0002 2.3074 -0.0009
# 2 23.5786 87.6403 10.2025 -0.0002 9.0779 -0.0011
# 3 40.0123 10.2025 96.3646 -0.0003 -22.9157 -0.0003
# 4 -0.0002 -0.0002 -0.0003 32.5082 -0.0001 9.3824
# 5 2.3074 9.0779 -22.9157 -0.0001 36.8899 -0.0004
# 6 -0.0009 -0.0011 -0.0003 9.3824 -0.0004 29.6186
#
#
#
# Elastic Compliance Matrix: (Units=1/GPa)
#
#
# Indices 1 2 3 4 5 6 
#
# 1 0.006847 -0.001248 -0.003214 0.000000 -0.002118 0.000000
# 2 -0.001248 0.012371 -0.001756 0.000000 -0.004057 0.000000
# 3 -0.003214 -0.001756 0.014137 0.000000 0.009415 0.000000
# 4 0.000000 0.000000 0.000000 0.033857 0.000000 -0.010725
# 5 -0.002118 -0.004057 0.009415 0.000000 0.034087 0.000000
# 6 0.000000 0.000000 0.000000 -0.010725 0.000000 0.037160
#
#
# Mechanical properties :
#
#
# Convention : Reuss Voigt Hill
#
# Bulk Modulus (GPa) = 47.80934 55.71605 51.76269
# Shear Modulus (GPa) = 31.67203 38.47428 35.07315
#
# Velocity S-wave (km/s) = 3.60649 3.97495 3.79519
# Velocity P-wave (km/s) = 6.08080 6.62932 6.36098
#
# Compressibility (1/GPa) = 0.02091642
#
# Stress axis : x y z
#
# Youngs Moduli (GPa) = 146.05521 80.83522 70.73792
#
# Poissons Ratio (x) = 0.10092 0.22737
# Poissons Ratio (y) = 0.18235 0.12423
# Poissons Ratio (z) = 0.46947 0.14196
#
# Static dielectric constant tensor:
#      x y z
#    x 1.922580 0.000000 0.012780 
#    y 0.000000 1.943990 0.000000 
#    z 0.012780 0.000000 1.961860 
# 
# From -- ./inp_files/297697.got.cif
#   From: 2010.05.17/outbox.cif.g08.bks.cpg/sg15_149_cif.got.tgz:297697.got - 2010.06.03 18:47:42.
