data_PCOD9297807
_publ_section_title
;
Structure prediction by ZEFSAII (Michael W. Deem and Ramdas Pophale) SiO2 
 PCOD9297807
Probable space group: C 2/C
;
_chemical_formula_sum "Si O2"
_cell_formula_units_Z 44
_cell_length_a 19.192158
_cell_length_b 11.369112
_cell_length_c 9.633068
_cell_angle_alpha 90.000000
_cell_angle_beta 62.410380
_cell_angle_gamma 90.000000
_cell_volume 1862.900264
_symmetry_space_group_name_H-M "C 2/C"
_symmetry_group_IT_number 15
_symmetry_cell_setting 'monoclinic'
loop_
_space_group_symop_operation_xyz
x,y,z
-x,y,1/2-z
-x,-y,-z
x,-y,1/2+z
1/2+x,1/2+y,z
1/2-x,1/2+y,1/2-z
1/2-x,1/2-y,-z
1/2+x,1/2-y,1/2+z
loop_
_atom_site_type_symbol
_atom_site_label
_atom_site_fract_x
_atom_site_fract_y
_atom_site_fract_z
Si Si1 0.399950 0.455058 0.089236
Si Si2 0.319606 0.762442 0.624117
Si Si3 0.000000 0.989173 0.750000
Si Si4 0.409588 0.852401 0.792578
Si Si5 0.349710 0.279717 0.600905
Si Si6 0.909024 0.631766 0.793385
O O1 0.322731 0.378105 0.143856
O O2 0.440467 0.441424 0.202544
O O3 0.389997 0.593138 0.072256
O O4 0.452636 0.415628 0.908718
O O5 0.388925 0.813271 0.656898
O O6 0.236599 0.802514 0.758529
O O7 0.344306 0.804252 0.449783
O O8 0.500000 0.829786 0.750000
O O9 0.395335 0.991955 0.815972
O O10 0.353978 0.776991 0.945399
O O11 0.394383 0.185701 0.655858
O O12 0.000000 0.651680 0.750000
#
# Coordination Sequence:
#
# PCOD9297807 Si02
#       6
#     8   8   4   8   8   8
#     4  11  26  42  72 102 135 176 228 274 357 388
#     4  12  27  45  72 101 142 180 223 287 340 411
#     4  10  24  42  68 102 134 174 214 294 316 428
#     4  11  26  47  74 100 134 183 235 281 333 401
#     4  12  27  45  72 101 142 180 223 287 340 411
#     4  11  26  47  74 100 134 183 235 281 333 401
#
# _framework density 23.619084999999998
#
# number of rings (size 3 to 8) (size 9 to 14) (size 15 to 20)
#    0.000    0.727    0.000    5.455   20.364    2.909 
#    0.000    0.000    0.000    0.000    0.000    0.000 
#    0.000    0.000    0.000    0.000    0.000    0.000 
#
# Total GULP energy -123140.900316 kJ/mol
# GULP energy per Si atom -5597.313651 kJ/mol
# Density = 2.356533 g / cm^3
# Si number density = 23.619085 Si / 1000 Ang^3
#
#
#
# Elastic Constant Matrix: (Units=GPa)
#
#
# Indices 1 2 3 4 5 6 
#
# 1 34.2222 7.2127 5.0584 0.0000 -2.2287 0.0000
# 2 7.2127 123.7117 13.0982 0.0000 -2.0918 0.0000
# 3 5.0584 13.0982 113.9238 0.0000 10.0043 0.0000
# 4 0.0000 0.0000 0.0000 22.8550 0.0000 -1.4949
# 5 -2.2287 -2.0918 10.0043 0.0000 40.9013 0.0000
# 6 0.0000 0.0000 0.0000 -1.4949 0.0000 22.3143
#
#
#
# Elastic Compliance Matrix: (Units=1/GPa)
#
#
# Indices 1 2 3 4 5 6 
#
# 1 0.029867 -0.001571 -0.001309 0.000000 0.001867 0.000000
# 2 -0.001571 0.008283 -0.000932 0.000000 0.000566 0.000000
# 3 -0.001309 -0.000932 0.009150 0.000000 -0.002357 0.000000
# 4 0.000000 0.000000 0.000000 0.043947 0.000000 0.002944
# 5 0.001867 0.000566 -0.002357 0.000000 0.025156 0.000000
# 6 0.000000 0.000000 0.000000 0.002944 0.000000 0.045012
#
#
# Mechanical properties :
#
#
# Convention : Reuss Voigt Hill
#
# Bulk Modulus (GPa) = 25.20505 35.84403 30.52454
# Shear Modulus (GPa) = 27.43248 33.64667 30.53958
#
# Velocity S-wave (km/s) = 3.41171 3.77842 3.59974
# Velocity P-wave (km/s) = 5.11999 5.85185 5.49811
#
# Compressibility (1/GPa) = 0.03967459
#
# Stress axis : x y z
#
# Youngs Moduli (GPa) = 33.48170 120.72642 109.28818
#
# Poissons Ratio (x) = 0.18967 0.14311
# Poissons Ratio (y) = 0.05260 0.10189
# Poissons Ratio (z) = 0.04384 0.11255
#
# Static dielectric constant tensor:
#      x y z
#    x 1.881390 0.000000 -0.009270 
#    y 0.000000 1.875960 0.000000 
#    z -0.009270 0.000000 1.822120 
# 
# From -- ./inp_files/54371.got.cif
#   From: 2010.05.17/outbox.cif.g08.bks.cpg/sg15_28_cif.got.tgz:54371.got - 2010.06.03 18:47:42.
