data_PCOD9297936
_publ_section_title
;
Structure prediction by ZEFSAII (Michael W. Deem and Ramdas Pophale) SiO2 
 PCOD9297936
Probable space group: C 2/C
;
_chemical_formula_sum "Si O2"
_cell_formula_units_Z 44
_cell_length_a 8.917976
_cell_length_b 25.297883
_cell_length_c 13.358320
_cell_angle_alpha 90.000000
_cell_angle_beta 133.530038
_cell_angle_gamma 90.000000
_cell_volume 2184.984453
_symmetry_space_group_name_H-M "C 2/C"
_symmetry_group_IT_number 15
_symmetry_cell_setting 'monoclinic'
loop_
_space_group_symop_operation_xyz
x,y,z
-x,y,1/2-z
-x,-y,-z
x,-y,1/2+z
1/2+x,1/2+y,z
1/2-x,1/2+y,1/2-z
1/2-x,1/2-y,-z
1/2+x,1/2-y,1/2+z
loop_
_atom_site_type_symbol
_atom_site_label
_atom_site_fract_x
_atom_site_fract_y
_atom_site_fract_z
Si Si1 0.470095 0.388574 0.960614
Si Si2 0.500000 0.629516 0.250000
Si Si3 0.813631 0.083207 0.744193
Si Si4 0.180742 0.525595 0.263864
Si Si5 0.043308 0.620263 0.057441
Si Si6 0.687751 0.200134 0.406248
O O1 0.531616 0.397581 0.873233
O O2 0.314062 0.437987 0.900962
O O3 0.358875 0.331654 0.920783
O O4 0.633185 0.391143 0.124326
O O5 0.263594 0.651124 0.148971
O O6 0.596001 0.104504 0.601210
O O7 0.000000 0.093045 0.750000
O O8 0.796463 0.020964 0.760121
O O9 0.096580 0.566816 0.142712
O O10 0.000000 0.502210 0.250000
O O11 0.897919 0.655520 0.059326
O O12 0.500000 0.216876 0.250000
O O13 0.750000 0.250000 0.500000
#
# Coordination Sequence:
#
# PCOD9297936 Si02
#       6
#     8   4   8   8   8   8
#     4  11  23  45  66  99 145 178 228 292 342 417
#     4  10  24  42  72  86 134 202 202 260 374 404
#     4  12  25  37  67 108 140 178 242 289 332 411
#     4  11  21  40  62  93 147 193 229 269 347 421
#     4  11  23  45  66  99 145 178 228 292 342 417
#     4  12  24  46  78 102 128 183 240 296 352 402
#
# _framework density 20.137443999999999
#
# number of rings (size 3 to 8) (size 9 to 14) (size 15 to 20)
#    0.000    0.727    7.273    1.091   10.182    0.000 
#    0.000    0.909    0.000    0.000    0.000    0.000 
#    0.000    0.000    0.000    0.000    0.000    0.000 
#
# Total GULP energy -122525.747691 kJ/mol
# GULP energy per Si atom -5569.352168 kJ/mol
# Density = 2.009161 g / cm^3
# Si number density = 20.137444 Si / 1000 Ang^3
#
#
#
# Elastic Constant Matrix: (Units=GPa)
#
#
# Indices 1 2 3 4 5 6 
#
# 1 66.2859 8.9041 18.6804 0.0000 -11.6259 0.0000
# 2 8.9041 63.1169 41.4123 0.0000 -11.0078 0.0000
# 3 18.6804 41.4123 194.6457 0.0000 -25.6313 0.0000
# 4 0.0000 0.0000 0.0000 57.0162 0.0000 21.1751
# 5 -11.6259 -11.0078 -25.6313 0.0000 27.1990 0.0000
# 6 0.0000 0.0000 0.0000 21.1751 0.0000 49.6907
#
#
#
# Elastic Compliance Matrix: (Units=1/GPa)
#
#
# Indices 1 2 3 4 5 6 
#
# 1 0.016442 -0.000866 -0.000587 0.000000 0.006124 0.000000
# 2 -0.000866 0.018910 -0.003403 0.000000 0.004076 0.000000
# 3 -0.000587 -0.003403 0.006512 0.000000 0.004508 0.000000
# 4 0.000000 0.000000 0.000000 0.020836 0.000000 -0.008879
# 5 0.006124 0.004076 0.004508 0.000000 0.045281 0.000000
# 6 0.000000 0.000000 0.000000 -0.008879 0.000000 0.023908
#
#
# Mechanical properties :
#
#
# Convention : Reuss Voigt Hill
#
# Bulk Modulus (GPa) = 31.10448 51.33800 41.22124
# Shear Modulus (GPa) = 32.82578 43.78464 38.30521
#
# Velocity S-wave (km/s) = 4.04181 4.66799 4.36614
# Velocity P-wave (km/s) = 6.10420 7.38936 6.77731
#
# Compressibility (1/GPa) = 0.03214971
#
# Stress axis : x y z
#
# Youngs Moduli (GPa) = 60.81945 52.88317 153.57232
#
# Poissons Ratio (x) = 0.04581 0.09019
# Poissons Ratio (y) = 0.05268 0.52266
# Poissons Ratio (z) = 0.03572 0.17998
#
# Static dielectric constant tensor:
#      x y z
#    x 1.835790 0.000000 0.042930 
#    y 0.000000 1.684280 0.000000 
#    z 0.042930 0.000000 1.762880 
# 
# From -- ./inp_files/138828.got.cif
#   From: 2010.05.17/outbox.cif.g08.bks.cpg/sg15_70_cif.got.tgz:138828.got - 2010.06.03 18:47:42.
