data_PCOD9297782
_publ_section_title
;
Structure prediction by ZEFSAII (Michael W. Deem and Ramdas Pophale) SiO2 
 PCOD9297782
Probable space group: C 2/C
;
_chemical_formula_sum "Si O2"
_cell_formula_units_Z 32
_cell_length_a 12.842924
_cell_length_b 9.917413
_cell_length_c 10.149122
_cell_angle_alpha 90.000000
_cell_angle_beta 85.973090
_cell_angle_gamma 90.000000
_cell_volume 1289.487877
_symmetry_space_group_name_H-M "C 2/C"
_symmetry_group_IT_number 15
_symmetry_cell_setting 'monoclinic'
loop_
_space_group_symop_operation_xyz
x,y,z
-x,y,1/2-z
-x,-y,-z
x,-y,1/2+z
1/2+x,1/2+y,z
1/2-x,1/2+y,1/2-z
1/2-x,1/2-y,-z
1/2+x,1/2-y,1/2+z
loop_
_atom_site_type_symbol
_atom_site_label
_atom_site_fract_x
_atom_site_fract_y
_atom_site_fract_z
Si Si1 0.891867 0.299948 0.531453
Si Si2 0.571950 0.540530 0.117608
Si Si3 0.777859 0.200038 0.803716
Si Si4 0.128235 0.608904 0.003368
O O1 0.880969 0.184838 0.423452
O O2 0.828877 0.242091 0.661650
O O3 0.860132 0.448886 0.490379
O O4 0.015019 0.329437 0.548657
O O5 0.500000 0.554210 0.250000
O O6 0.654905 0.425182 0.144569
O O7 0.500000 0.500000 0.000000
O O8 0.795443 0.329054 0.895293
O O9 0.660646 0.154307 0.852311
#
# Coordination Sequence:
#
# PCOD9297782 Si02
#       4
#     8   8   8   8
#     4  11  24  44  70 100 140 182 230 293 350 416
#     4  12  23  42  72 100 139 189 229 285 350 413
#     4  11  23  44  68  99 141 181 235 291 348 414
#     4  10  24  42  67 101 138 184 228 291 353 415
#
# _framework density 24.816054000000001
#
# number of rings (size 3 to 8) (size 9 to 14) (size 15 to 20)
#    0.000    1.000    5.000    0.750    0.000   11.000 
#    0.000    0.000    0.000    0.000    0.000    0.000 
#    0.000    0.000    0.000    0.000    0.000    0.000 
#
# Total GULP energy -89597.519510 kJ/mol
# GULP energy per Si atom -5599.844969 kJ/mol
# Density = 2.475957 g / cm^3
# Si number density = 24.816054 Si / 1000 Ang^3
#
#
#
# Elastic Constant Matrix: (Units=GPa)
#
#
# Indices 1 2 3 4 5 6 
#
# 1 65.3313 25.2632 25.3751 0.0000 -19.9156 0.0000
# 2 25.2632 174.1445 39.2807 0.0000 -5.9067 0.0000
# 3 25.3751 39.2807 177.0568 0.0000 -38.7531 0.0000
# 4 0.0000 0.0000 0.0000 38.9203 0.0000 -5.3949
# 5 -19.9156 -5.9067 -38.7531 0.0000 33.2464 0.0000
# 6 0.0000 0.0000 0.0000 -5.3949 0.0000 27.5627
#
#
#
# Elastic Compliance Matrix: (Units=1/GPa)
#
#
# Indices 1 2 3 4 5 6 
#
# 1 0.019745 -0.002534 0.000299 0.000000 0.011726 0.000000
# 2 -0.002534 0.006381 -0.001526 0.000000 -0.002163 0.000000
# 3 0.000299 -0.001526 0.007952 0.000000 0.009177 0.000000
# 4 0.000000 0.000000 0.000000 0.026410 0.000000 0.005169
# 5 0.011726 -0.002163 0.009177 0.000000 0.047416 0.000000
# 6 0.000000 0.000000 0.000000 0.005169 0.000000 0.037293
#
#
# Mechanical properties :
#
#
# Convention : Reuss Voigt Hill
#
# Bulk Modulus (GPa) = 37.65614 66.26340 51.95977
# Shear Modulus (GPa) = 30.94616 41.72010 36.33313
#
# Velocity S-wave (km/s) = 3.53515 4.10466 3.83050
# Velocity P-wave (km/s) = 5.64536 7.01599 6.36766
#
# Compressibility (1/GPa) = 0.02655610
#
# Stress axis : x y z
#
# Youngs Moduli (GPa) = 50.64573 156.72032 125.75033
#
# Poissons Ratio (x) = 0.39715 -0.03760
# Poissons Ratio (y) = 0.12834 0.19187
# Poissons Ratio (z) = -0.01514 0.23913
#
# Static dielectric constant tensor:
#      x y z
#    x 2.092080 0.000000 0.017340 
#    y 0.000000 1.946620 0.000000 
#    z 0.017340 0.000000 1.994730 
# 
# From -- ./inp_files/93405.got.cif
#   From: 2010.05.17/outbox.cif.g08.bks.cpg/sg15_47_cif.got.tgz:93405.got - 2010.06.03 18:47:42.
