data_PCOD9297396
_publ_section_title
;
Structure prediction by ZEFSAII (Michael W. Deem and Ramdas Pophale) SiO2 
 PCOD9297396
Probable space group: C 2/C
;
_chemical_formula_sum "Si O2"
_cell_formula_units_Z 40
_cell_length_a 10.375266
_cell_length_b 8.702607
_cell_length_c 20.822259
_cell_angle_alpha 90.000000
_cell_angle_beta 75.225766
_cell_angle_gamma 90.000000
_cell_volume 1817.921634
_symmetry_space_group_name_H-M "C 2/C"
_symmetry_group_IT_number 15
_symmetry_cell_setting 'monoclinic'
loop_
_space_group_symop_operation_xyz
x,y,z
-x,y,1/2-z
-x,-y,-z
x,-y,1/2+z
1/2+x,1/2+y,z
1/2-x,1/2+y,1/2-z
1/2-x,1/2-y,-z
1/2+x,1/2-y,1/2+z
loop_
_atom_site_type_symbol
_atom_site_label
_atom_site_fract_x
_atom_site_fract_y
_atom_site_fract_z
Si Si1 0.450919 0.755273 0.494238
Si Si2 0.882908 0.038245 0.940786
Si Si3 0.091986 0.003851 0.800958
Si Si4 0.374287 0.025864 0.599706
Si Si5 0.142292 0.641701 0.265388
O O1 0.570226 0.662324 0.513827
O O2 0.354890 0.620158 0.482285
O O3 0.402947 0.873815 0.553910
O O4 0.506619 0.856253 0.428440
O O5 0.002138 0.001540 0.876010
O O6 0.760505 0.092554 0.913455
O O7 0.139933 0.179740 0.785472
O O8 0.000000 0.964194 0.750000
O O9 0.222332 0.897328 0.789750
O O10 0.353601 0.969829 0.673843
O O11 0.000000 0.613898 0.250000
#
# Coordination Sequence:
#
# PCOD9297396 Si02
#       5
#     8   8   8   8   8
#     4  10  24  40  63  98 125 167 207 258 319 375
#     4  11  22  42  67  94 125 166 213 259 314 380
#     4  11  24  44  66  91 129 169 213 264 320 373
#     4  11  22  44  65  92 132 163 209 264 314 374
#     4  11  26  43  65  95 127 169 214 262 319 380
#
# _framework density 22.003149000000001
#
# number of rings (size 3 to 8) (size 9 to 14) (size 15 to 20)
#    0.000    1.200    4.000    1.200    2.800    2.400 
#   14.400    0.000    0.000    0.000    0.000    0.000 
#    0.000    0.000    0.000    0.000    0.000    0.000 
#
# Total GULP energy -111835.224178 kJ/mol
# GULP energy per Si atom -5591.761209 kJ/mol
# Density = 2.195307 g / cm^3
# Si number density = 22.003149 Si / 1000 Ang^3
#
#
#
# Elastic Constant Matrix: (Units=GPa)
#
#
# Indices 1 2 3 4 5 6 
#
# 1 42.3847 7.4614 -17.1734 0.0000 10.2427 0.0000
# 2 7.4614 47.3903 11.8458 0.0000 7.9209 0.0000
# 3 -17.1734 11.8458 43.0551 0.0000 -15.3171 0.0000
# 4 0.0000 0.0000 0.0000 23.3670 0.0000 -7.0805
# 5 10.2427 7.9209 -15.3171 0.0000 34.0957 0.0000
# 6 0.0000 0.0000 0.0000 -7.0805 0.0000 19.0436
#
#
#
# Elastic Compliance Matrix: (Units=1/GPa)
#
#
# Indices 1 2 3 4 5 6 
#
# 1 0.031109 -0.008326 0.014357 0.000000 -0.000961 0.000000
# 2 -0.008326 0.027876 -0.014764 0.000000 -0.010607 0.000000
# 3 0.014357 -0.014764 0.038921 0.000000 0.016602 0.000000
# 4 0.000000 0.000000 0.000000 0.048229 0.000000 0.017932
# 5 -0.000961 -0.010607 0.016602 0.000000 0.039540 0.000000
# 6 0.000000 0.000000 0.000000 0.017932 0.000000 0.059178
#
#
# Mechanical properties :
#
#
# Convention : Reuss Voigt Hill
#
# Bulk Modulus (GPa) = 12.43176 15.23308 13.83242
# Shear Modulus (GPa) = 17.29319 24.01436 20.65378
#
# Velocity S-wave (km/s) = 2.80651 3.30723 3.06710
# Velocity P-wave (km/s) = 4.02048 4.63916 4.34086
#
# Compressibility (1/GPa) = 0.08043914
#
# Stress axis : x y z
#
# Youngs Moduli (GPa) = 32.14542 35.87367 25.69325
#
# Poissons Ratio (x) = 0.29868 -0.36888
# Poissons Ratio (y) = 0.26764 0.37933
# Poissons Ratio (z) = -0.46151 0.52964
#
# Static dielectric constant tensor:
#      x y z
#    x 1.825410 0.000000 -0.008010 
#    y 0.000000 1.791780 0.000000 
#    z -0.008010 0.000000 1.764410 
# 
# From -- ./inp_files/195103.got.cif
#   From: 2010.05.17/outbox.cif.g08.bks.cpg/sg15_98_cif.got.tgz:195103.got - 2010.06.03 18:47:42.
