data_PCOD9297722
_publ_section_title
;
Structure prediction by ZEFSAII (Michael W. Deem and Ramdas Pophale) SiO2 
 PCOD9297722
Probable space group: C 2/C
;
_chemical_formula_sum "Si O2"
_cell_formula_units_Z 32
_cell_length_a 28.196848
_cell_length_b 4.786542
_cell_length_c 12.391121
_cell_angle_alpha 90.000000
_cell_angle_beta 44.330871
_cell_angle_gamma 90.000000
_cell_volume 1168.655288
_symmetry_space_group_name_H-M "C 2/C"
_symmetry_group_IT_number 15
_symmetry_cell_setting 'monoclinic'
loop_
_space_group_symop_operation_xyz
x,y,z
-x,y,1/2-z
-x,-y,-z
x,-y,1/2+z
1/2+x,1/2+y,z
1/2-x,1/2+y,1/2-z
1/2-x,1/2-y,-z
1/2+x,1/2-y,1/2+z
loop_
_atom_site_type_symbol
_atom_site_label
_atom_site_fract_x
_atom_site_fract_y
_atom_site_fract_z
Si Si1 0.839169 0.533555 0.163980
Si Si2 0.476483 0.694788 0.442769
Si Si3 0.105278 0.174878 0.116870
Si Si4 0.298659 0.533932 0.358937
O O1 0.821782 0.220391 0.219442
O O2 0.790233 0.733948 0.315949
O O3 0.917006 0.594450 0.072778
O O4 0.842560 0.625527 0.033282
O O5 0.500000 0.500000 0.500000
O O6 0.543348 0.826230 0.279617
O O7 0.435838 0.527855 0.413599
O O8 0.143016 0.996702 0.145073
O O9 0.250000 0.750000 0.500000
#
# Coordination Sequence:
#
# PCOD9297722 Si02
#       4
#     8   8   8   8
#     4  10  24  42  65  96 130 171 221 277 328 394
#     4   9  17  42  65  99 129 164 216 273 335 395
#     4   9  20  40  66 100 126 176 212 276 337 393
#     4  12  25  43  65  94 134 178 225 269 324 398
#
# _framework density 27.381899000000001
#
# number of rings (size 3 to 8) (size 9 to 14) (size 15 to 20)
#    1.500    0.500    2.500    0.750    0.000    5.000 
#    0.000    2.500    0.000    0.000    0.000    0.000 
#    0.000    0.000    0.000    0.000    0.000    0.000 
#
# Total GULP energy -89281.080009 kJ/mol
# GULP energy per Si atom -5580.067501 kJ/mol
# Density = 2.731958 g / cm^3
# Si number density = 27.381899 Si / 1000 Ang^3
#
#
#
# Elastic Constant Matrix: (Units=GPa)
#
#
# Indices 1 2 3 4 5 6 
#
# 1 100.9794 14.4551 13.1259 0.0001 26.9443 0.0006
# 2 14.4551 110.0812 28.5411 0.0071 7.2458 0.0037
# 3 13.1259 28.5411 133.5618 0.0007 -11.5433 -0.0004
# 4 0.0001 0.0071 0.0007 23.2923 -0.0007 14.5922
# 5 26.9443 7.2458 -11.5433 -0.0007 51.3345 -0.0002
# 6 0.0006 0.0037 -0.0004 14.5922 -0.0002 8.5821
#
#
#
# Elastic Compliance Matrix: (Units=1/GPa)
#
#
# Indices 1 2 3 4 5 6 
#
# 1 0.011955 -0.000730 -0.001583 -0.000008 -0.006528 0.000012
# 2 -0.000730 0.009838 -0.002159 0.000005 -0.001491 -0.000012
# 3 -0.001583 -0.002159 0.008365 0.000006 0.003017 -0.000009
# 4 -0.000008 0.000005 0.000006 -0.658252 0.000001 1.119236
# 5 -0.006528 -0.001491 0.003017 0.000001 0.023795 0.000001
# 6 0.000012 -0.000012 -0.000009 1.119236 0.000001 -1.786532
#
#
# Mechanical properties :
#
#
# Convention : Reuss Voigt Hill
#
# Bulk Modulus (GPa) = 47.13994 50.76296 48.95145
# Shear Modulus (GPa) = -2.10543 35.87511 16.88484
#
# Velocity S-wave (km/s) = -0.87783 3.62356 2.48592
# Velocity P-wave (km/s) = 4.02811 6.00717 5.11428
#
# Compressibility (1/GPa) = 0.02121343
#
# Stress axis : x y z
#
# Youngs Moduli (GPa) = 83.64620 101.64590 119.54639
#
# Poissons Ratio (x) = 0.07417 0.18926
# Poissons Ratio (y) = 0.06104 0.25816
# Poissons Ratio (z) = 0.13243 0.21950
#
# Static dielectric constant tensor:
#      x y z
#    x 2.172010 0.000000 -0.057780 
#    y 0.000000 2.033820 0.000000 
#    z -0.057780 0.000000 2.219120 
# 
# From -- ./inp_files/124681.got.cif
#   From: 2010.05.17/outbox.cif.g08.bks.cpg/sg15_63_cif.got.tgz:124681.got - 2010.06.03 18:47:42.
