data_PCOD9297499
_publ_section_title
;
Structure prediction by ZEFSAII (Michael W. Deem and Ramdas Pophale) SiO2 
 PCOD9297499
Probable space group: C 2/C
;
_chemical_formula_sum "Si O2"
_cell_formula_units_Z 36
_cell_length_a 26.524079
_cell_length_b 10.211661
_cell_length_c 8.858003
_cell_angle_alpha 90.000000
_cell_angle_beta 38.721559
_cell_angle_gamma 90.000000
_cell_volume 1500.807599
_symmetry_space_group_name_H-M "C 2/C"
_symmetry_group_IT_number 15
_symmetry_cell_setting 'monoclinic'
loop_
_space_group_symop_operation_xyz
x,y,z
-x,y,1/2-z
-x,-y,-z
x,-y,1/2+z
1/2+x,1/2+y,z
1/2-x,1/2+y,1/2-z
1/2-x,1/2-y,-z
1/2+x,1/2-y,1/2+z
loop_
_atom_site_type_symbol
_atom_site_label
_atom_site_fract_x
_atom_site_fract_y
_atom_site_fract_z
Si Si1 0.906280 0.369679 0.729870
Si Si2 0.500000 0.010786 0.250000
Si Si3 0.318531 0.342702 0.918750
Si Si4 0.731460 0.606947 0.618296
Si Si5 0.997483 0.856816 0.574026
O O1 0.931904 0.400334 0.838689
O O2 0.966350 0.423683 0.462466
O O3 0.921542 0.216759 0.670240
O O4 0.823395 0.442746 0.902177
O O5 0.315996 0.485496 0.843799
O O6 0.412599 0.295276 0.709726
O O7 0.250000 0.250000 0.000000
O O8 0.295946 0.364809 0.147319
O O9 0.750000 0.750000 0.500000
O O10 0.000000 0.859073 0.750000
O O11 0.000000 0.000000 0.500000
#
# Coordination Sequence:
#
# PCOD9297499 Si02
#       5
#     8   4   8   8   8
#     4  11  24  43  72  99 137 177 241 282 349 417
#     4  10  24  40  70  98 132 172 232 292 340 400
#     4  12  28  47  74 108 148 187 239 304 365 423
#     4  12  26  46  72 104 145 190 237 294 364 427
#     4  12  27  47  72 102 143 189 238 288 353 428
#
# _framework density 23.987085
#
# number of rings (size 3 to 8) (size 9 to 14) (size 15 to 20)
#    0.000    0.444    1.111    6.667   10.889    0.000 
#    0.000    0.000    0.000    0.000    0.000    0.000 
#    0.000    0.000    0.000    0.000    0.000    0.000 
#
# Total GULP energy -100504.202809 kJ/mol
# GULP energy per Si atom -5583.566823 kJ/mol
# Density = 2.393249 g / cm^3
# Si number density = 23.987085 Si / 1000 Ang^3
#
#
#
# Elastic Constant Matrix: (Units=GPa)
#
#
# Indices 1 2 3 4 5 6 
#
# 1 124.6032 31.6449 25.8445 0.0000 0.9734 0.0000
# 2 31.6449 86.1594 7.8935 0.0000 23.8142 0.0000
# 3 25.8445 7.8935 58.2940 0.0000 -12.4967 0.0000
# 4 0.0000 0.0000 0.0000 51.9781 0.0000 0.7003
# 5 0.9734 23.8142 -12.4967 0.0000 49.3431 0.0000
# 6 0.0000 0.0000 0.0000 0.7003 0.0000 55.3345
#
#
#
# Elastic Compliance Matrix: (Units=1/GPa)
#
#
# Indices 1 2 3 4 5 6 
#
# 1 0.009639 -0.003331 -0.003721 0.000000 0.000475 0.000000
# 2 -0.003331 0.015206 -0.002264 0.000000 -0.007847 0.000000
# 3 -0.003721 -0.002264 0.020472 0.000000 0.006351 0.000000
# 4 0.000000 0.000000 0.000000 0.019242 0.000000 -0.000244
# 5 0.000475 -0.007847 0.006351 0.000000 0.025652 0.000000
# 6 0.000000 0.000000 0.000000 -0.000244 0.000000 0.018075
#
#
# Mechanical properties :
#
#
# Convention : Reuss Voigt Hill
#
# Bulk Modulus (GPa) = 37.47346 44.42472 40.94909
# Shear Modulus (GPa) = 36.81503 44.90938 40.86221
#
# Velocity S-wave (km/s) = 3.92188 4.33162 4.13184
# Velocity P-wave (km/s) = 6.01369 6.60134 6.31436
#
# Compressibility (1/GPa) = 0.02668555
#
# Stress axis : x y z
#
# Youngs Moduli (GPa) = 103.74074 65.76366 48.84693
#
# Poissons Ratio (x) = 0.21905 0.18175
# Poissons Ratio (y) = 0.34554 0.11061
# Poissons Ratio (z) = 0.38599 0.14892
#
# Static dielectric constant tensor:
#      x y z
#    x 1.950520 0.000000 -0.094380 
#    y 0.000000 2.006740 0.000000 
#    z -0.094380 0.000000 1.858870 
# 
# From -- ./inp_files/64992.got.cif
#   From: 2010.05.17/outbox.cif.g08.bks.cpg/sg15_33_cif.got.tgz:64992.got - 2010.06.03 18:47:42.
