data_PCOD9297848
_publ_section_title
;
Structure prediction by ZEFSAII (Michael W. Deem and Ramdas Pophale) SiO2 
 PCOD9297848
Probable space group: C 2/C
;
_chemical_formula_sum "Si O2"
_cell_formula_units_Z 60
_cell_length_a 17.858327
_cell_length_b 9.016330
_cell_length_c 17.741186
_cell_angle_alpha 90.000000
_cell_angle_beta 72.772276
_cell_angle_gamma 90.000000
_cell_volume 2728.462902
_symmetry_space_group_name_H-M "C 2/C"
_symmetry_group_IT_number 15
_symmetry_cell_setting 'monoclinic'
loop_
_space_group_symop_operation_xyz
x,y,z
-x,y,1/2-z
-x,-y,-z
x,-y,1/2+z
1/2+x,1/2+y,z
1/2-x,1/2+y,1/2-z
1/2-x,1/2-y,-z
1/2+x,1/2-y,1/2+z
loop_
_atom_site_type_symbol
_atom_site_label
_atom_site_fract_x
_atom_site_fract_y
_atom_site_fract_z
Si Si1 0.857524 0.618521 0.992426
Si Si2 0.162422 0.184946 0.423768
Si Si3 0.838523 0.194689 0.349413
Si Si4 0.844589 0.650946 0.169467
Si Si5 0.500000 0.748326 0.250000
Si Si6 0.780846 0.088642 0.942620
Si Si7 0.228955 0.934623 0.295514
Si Si8 0.530724 0.911902 0.395665
O O1 0.847448 0.738575 0.930735
O O2 0.948400 0.570407 0.964273
O O3 0.834927 0.678220 0.081811
O O4 0.796274 0.486416 0.995128
O O5 0.155675 0.127161 0.512229
O O6 0.243491 0.276308 0.408120
O O7 0.093774 0.297326 0.415957
O O8 0.180941 0.048396 0.363027
O O9 0.918575 0.166142 0.281257
O O10 0.791584 0.322290 0.317679
O O11 0.809227 0.031758 0.376058
O O12 0.833032 0.808985 0.212895
O O13 0.782214 0.537044 0.225491
O O14 0.925771 0.562285 0.141928
O O15 0.505076 0.842149 0.324152
#
# Coordination Sequence:
#
# PCOD9297848 Si02
#       8
#     8   8   8   8   4   8   8   8
#     4  11  22  40  71  97 134 188 226 273 345 429
#     4  11  24  41  67 106 134 176 225 294 344 409
#     4  11  21  43  71  95 134 186 229 277 345 421
#     4  12  24  40  66 102 129 178 228 284 343 416
#     4  10  24  42  68  98 132 188 232 276 356 420
#     4  11  22  40  73 100 134 174 239 280 340 412
#     4  12  24  41  69  97 135 171 238 284 350 411
#     4  11  23  44  70  97 141 180 231 281 353 417
#
# _framework density 21.990402
#
# number of rings (size 3 to 8) (size 9 to 14) (size 15 to 20)
#    0.000    0.800    5.333    2.400    0.000    0.000 
#    0.000    6.000    0.000    0.800    0.000    0.000 
#    0.000    0.000    0.000    0.000    0.000    0.000 
#
# Total GULP energy -167287.490148 kJ/mol
# GULP energy per Si atom -5576.249672 kJ/mol
# Density = 2.194035 g / cm^3
# Si number density = 21.990402 Si / 1000 Ang^3
#
#
#
# Elastic Constant Matrix: (Units=GPa)
#
#
# Indices 1 2 3 4 5 6 
#
# 1 61.4766 20.3423 16.2982 0.0000 -10.6124 0.0000
# 2 20.3423 127.0405 38.3516 0.0000 -20.2444 0.0000
# 3 16.2982 38.3516 83.4895 0.0000 -14.4958 0.0000
# 4 0.0000 0.0000 0.0000 38.4656 0.0000 -5.6536
# 5 -10.6124 -20.2444 -14.4958 0.0000 42.2514 0.0000
# 6 0.0000 0.0000 0.0000 -5.6536 0.0000 5.1671
#
#
#
# Elastic Compliance Matrix: (Units=1/GPa)
#
#
# Indices 1 2 3 4 5 6 
#
# 1 0.017928 -0.001744 -0.002192 0.000000 0.002915 0.000000
# 2 -0.001744 0.009714 -0.003604 0.000000 0.002980 0.000000
# 3 -0.002192 -0.003604 0.014531 0.000000 0.002708 0.000000
# 4 0.000000 0.000000 0.000000 0.030979 0.000000 0.033896
# 5 0.002915 0.002980 0.002708 0.000000 0.026757 0.000000
# 6 0.000000 0.000000 0.000000 0.033896 0.000000 0.230621
#
#
# Mechanical properties :
#
#
# Convention : Reuss Voigt Hill
#
# Bulk Modulus (GPa) = 36.91249 46.88787 41.90018
# Shear Modulus (GPa) = 14.09871 30.31113 22.20492
#
# Velocity S-wave (km/s) = 2.53480 3.71668 3.18111
# Velocity P-wave (km/s) = 5.03876 6.30766 5.70858
#
# Compressibility (1/GPa) = 0.02709110
#
# Stress axis : x y z
#
# Youngs Moduli (GPa) = 55.77870 102.94760 68.81692
#
# Poissons Ratio (x) = 0.17958 0.15087
# Poissons Ratio (y) = 0.09730 0.24803
# Poissons Ratio (z) = 0.12229 0.37105
#
# Static dielectric constant tensor:
#      x y z
#    x 1.924270 0.000000 0.030380 
#    y 0.000000 1.838280 0.000000 
#    z 0.030380 0.000000 1.857530 
# 
# From -- ./inp_files/213868.got.cif
#   From: 2010.05.17/outbox.cif.g08.bks.cpg/sg15_107_cif.got.tgz:213868.got - 2010.06.03 18:47:42.
