data_PCOD9297987
_publ_section_title
;
Structure prediction by ZEFSAII (Michael W. Deem and Ramdas Pophale) SiO2 
 PCOD9297987
Probable space group: C 2/C
;
_chemical_formula_sum "Si O2"
_cell_formula_units_Z 48
_cell_length_a 9.004723
_cell_length_b 12.924603
_cell_length_c 18.610671
_cell_angle_alpha 90.000000
_cell_angle_beta 63.239745
_cell_angle_gamma 90.000000
_cell_volume 1933.978452
_symmetry_space_group_name_H-M "C 2/C"
_symmetry_group_IT_number 15
_symmetry_cell_setting 'monoclinic'
loop_
_space_group_symop_operation_xyz
x,y,z
-x,y,1/2-z
-x,-y,-z
x,-y,1/2+z
1/2+x,1/2+y,z
1/2-x,1/2+y,1/2-z
1/2-x,1/2-y,-z
1/2+x,1/2-y,1/2+z
loop_
_atom_site_type_symbol
_atom_site_label
_atom_site_fract_x
_atom_site_fract_y
_atom_site_fract_z
Si Si1 0.544100 0.371572 0.533400
Si Si2 0.125131 0.930031 0.784816
Si Si3 0.016854 0.374802 0.862440
Si Si4 0.060341 0.139062 0.877029
Si Si5 0.409695 0.077353 0.842582
Si Si6 0.418999 0.872189 0.488381
O O1 0.427258 0.380368 0.628024
O O2 0.474498 0.405552 0.469150
O O3 0.569998 0.250535 0.513084
O O4 0.728550 0.409172 0.518167
O O5 0.307968 0.904141 0.714192
O O6 0.000000 0.894384 0.750000
O O7 0.085957 0.051599 0.811030
O O8 0.995121 0.250060 0.864512
O O9 0.886092 0.453254 0.854669
O O10 0.018416 0.403013 0.947031
O O11 0.246396 0.146323 0.869701
O O12 0.500000 0.097739 0.750000
O O13 0.507873 0.102483 0.893672
#
# Coordination Sequence:
#
# PCOD9297987 Si02
#       6
#     8   8   8   8   8   8
#     4   9  19  36  63  87 121 167 206 256 317 380
#     4  12  23  37  63  92 125 160 208 262 321 376
#     4  11  23  41  63  94 124 163 214 262 312 380
#     4  10  24  43  61  87 128 169 205 261 317 376
#     4  11  22  38  65  92 122 163 211 258 315 375
#     4   9  19  37  61  92 120 158 211 263 310 377
#
# _framework density 24.819306000000001
#
# number of rings (size 3 to 8) (size 9 to 14) (size 15 to 20)
#    0.000    1.667    3.333    2.000    2.333    0.667 
#    0.000    0.000    0.000    6.000    0.000    0.000 
#    0.000    0.000    0.000    0.000    0.000    0.000 
#
# Total GULP energy -133852.034412 kJ/mol
# GULP energy per Si atom -5577.168100 kJ/mol
# Density = 2.476282 g / cm^3
# Si number density = 24.819306 Si / 1000 Ang^3
#
#
#
# Elastic Constant Matrix: (Units=GPa)
#
#
# Indices 1 2 3 4 5 6 
#
# 1 26.3829 -5.9846 30.2124 0.0000 9.7220 0.0000
# 2 -5.9846 83.5599 24.3256 0.0000 -1.3555 0.0000
# 3 30.2124 24.3256 198.8286 0.0000 25.0340 0.0000
# 4 0.0000 0.0000 0.0000 35.8998 0.0000 7.0740
# 5 9.7220 -1.3555 25.0340 0.0000 20.3542 0.0000
# 6 0.0000 0.0000 0.0000 7.0740 0.0000 29.8268
#
#
#
# Elastic Compliance Matrix: (Units=1/GPa)
#
#
# Indices 1 2 3 4 5 6 
#
# 1 0.052860 0.005430 -0.006582 0.000000 -0.016791 0.000000
# 2 0.005430 0.013144 -0.002623 0.000000 0.001508 0.000000
# 3 -0.006582 -0.002623 0.007072 0.000000 -0.005728 0.000000
# 4 0.000000 0.000000 0.000000 0.029221 0.000000 -0.006930
# 5 -0.016791 0.001508 -0.005728 0.000000 0.064296 0.000000
# 6 0.000000 0.000000 0.000000 -0.006930 0.000000 0.035171
#
#
# Mechanical properties :
#
#
# Convention : Reuss Voigt Hill
#
# Bulk Modulus (GPa) = 15.26138 45.09758 30.17948
# Shear Modulus (GPa) = 21.63035 34.56404 28.09719
#
# Velocity S-wave (km/s) = 2.95534 3.73584 3.36828
# Velocity P-wave (km/s) = 4.21992 6.06782 5.22619
#
# Compressibility (1/GPa) = 0.06552487
#
# Stress axis : x y z
#
# Youngs Moduli (GPa) = 18.91785 76.07781 141.40582
#
# Poissons Ratio (x) = -0.41308 0.93079
# Poissons Ratio (y) = -0.10272 0.37092
# Poissons Ratio (z) = 0.12453 0.19956
#
# Static dielectric constant tensor:
#      x y z
#    x 1.966570 0.000000 -0.001620 
#    y 0.000000 2.041720 0.000000 
#    z -0.001620 0.000000 2.097830 
# 
# From -- ./inp_files/238233.got.cif
#   From: 2010.05.17/outbox.cif.g08.bks.cpg/sg15_120_cif.got.tgz:238233.got - 2010.06.03 18:47:42.
