data_PCOD9297866
_publ_section_title
;
Structure prediction by ZEFSAII (Michael W. Deem and Ramdas Pophale) SiO2 
 PCOD9297866
Probable space group: C 2/C
;
_chemical_formula_sum "Si O2"
_cell_formula_units_Z 56
_cell_length_a 14.030977
_cell_length_b 11.502317
_cell_length_c 17.890593
_cell_angle_alpha 90.000000
_cell_angle_beta 118.195264
_cell_angle_gamma 90.000000
_cell_volume 2544.735796
_symmetry_space_group_name_H-M "C 2/C"
_symmetry_group_IT_number 15
_symmetry_cell_setting 'monoclinic'
loop_
_space_group_symop_operation_xyz
x,y,z
-x,y,1/2-z
-x,-y,-z
x,-y,1/2+z
1/2+x,1/2+y,z
1/2-x,1/2+y,1/2-z
1/2-x,1/2-y,-z
1/2+x,1/2-y,1/2+z
loop_
_atom_site_type_symbol
_atom_site_label
_atom_site_fract_x
_atom_site_fract_y
_atom_site_fract_z
Si Si1 0.223792 0.944042 0.453968
Si Si2 0.540370 0.289475 0.602655
Si Si3 0.757967 0.931526 0.868415
Si Si4 0.881114 0.630564 0.740345
Si Si5 0.925785 0.744952 0.153792
Si Si6 0.315479 0.689406 0.091892
Si Si7 0.035311 0.378041 0.975274
O O1 0.227782 0.982158 0.542410
O O2 0.123333 0.858629 0.404408
O O3 0.333914 0.875772 0.477410
O O4 0.228857 0.061609 0.408190
O O5 0.627715 0.386943 0.617934
O O6 0.597005 0.187398 0.671758
O O7 0.438310 0.332640 0.610742
O O8 0.496310 0.227009 0.512266
O O9 0.676708 0.824588 0.851588
O O10 0.697422 0.021396 0.792664
O O11 0.826451 0.726926 0.666579
O O12 0.000000 0.600783 0.750000
O O13 0.987583 0.657242 0.119191
O O14 0.000000 0.779032 0.250000
O O15 0.250000 0.750000 0.000000
O O16 0.000000 0.500000 0.000000
#
# Coordination Sequence:
#
# PCOD9297866 Si02
#       7
#     8   8   8   8   8   8   8
#     4  11  22  45  68  92 139 173 215 274 339 396
#     4  11  24  43  64 100 133 166 230 274 323 397
#     4  11  21  45  67  96 131 174 222 280 331 389
#     4  10  24  42  69  94 131 179 223 275 332 398
#     4  11  24  43  67  98 137 179 217 272 345 391
#     4  11  23  44  66  97 132 182 216 268 346 399
#     4  11  23  42  69  98 127 174 229 275 316 397
#
# _framework density 22.006212999999999
#
# number of rings (size 3 to 8) (size 9 to 14) (size 15 to 20)
#    0.000    1.143    4.286    2.143    8.000    3.429 
#    5.143    0.000    0.000    0.000    0.000    0.000 
#    0.000    0.000    0.000    0.000    0.000    0.000 
#
# Total GULP energy -156524.336113 kJ/mol
# GULP energy per Si atom -5590.154861 kJ/mol
# Density = 2.195613 g / cm^3
# Si number density = 22.006213 Si / 1000 Ang^3
#
#
#
# Elastic Constant Matrix: (Units=GPa)
#
#
# Indices 1 2 3 4 5 6 
#
# 1 35.3913 -2.6799 2.5878 0.0000 -5.2006 0.0000
# 2 -2.6799 61.2929 -0.9354 0.0000 14.2274 0.0000
# 3 2.5878 -0.9354 74.7068 0.0000 10.5425 0.0000
# 4 0.0000 0.0000 0.0000 28.7954 0.0000 15.2098
# 5 -5.2006 14.2274 10.5425 0.0000 20.2514 0.0000
# 6 0.0000 0.0000 0.0000 15.2098 0.0000 35.1133
#
#
#
# Elastic Compliance Matrix: (Units=1/GPa)
#
#
# Indices 1 2 3 4 5 6 
#
# 1 0.029763 -0.000954 -0.002392 0.000000 0.009558 0.000000
# 2 -0.000954 0.019914 0.002473 0.000000 -0.015523 0.000000
# 3 -0.002392 0.002473 0.014928 0.000000 -0.010123 0.000000
# 4 0.000000 0.000000 0.000000 0.045031 0.000000 -0.019506
# 5 0.009558 -0.015523 -0.010123 0.000000 0.068009 0.000000
# 6 0.000000 0.000000 0.000000 -0.019506 0.000000 0.036928
#
#
# Mechanical properties :
#
#
# Convention : Reuss Voigt Hill
#
# Bulk Modulus (GPa) = 15.90844 18.81511 17.36178
# Shear Modulus (GPa) = 21.07285 28.32657 24.69971
#
# Velocity S-wave (km/s) = 3.09785 3.59166 3.35385
# Velocity P-wave (km/s) = 4.47664 5.07627 4.78585
#
# Compressibility (1/GPa) = 0.06285970
#
# Stress axis : x y z
#
# Youngs Moduli (GPa) = 33.59899 50.21506 66.98817
#
# Poissons Ratio (x) = 0.04790 0.16022
# Poissons Ratio (y) = 0.03205 -0.16566
# Poissons Ratio (z) = 0.08036 -0.12418
#
# Static dielectric constant tensor:
#      x y z
#    x 1.778030 0.000000 -0.007590 
#    y 0.000000 1.828340 0.000000 
#    z -0.007590 0.000000 1.872780 
# 
# From -- ./inp_files/204366.got.cif
#   From: 2010.05.17/outbox.cif.g08.bks.cpg/sg15_103_cif.got.tgz:204366.got - 2010.06.03 18:47:42.
