data_PCOD9297185
_publ_section_title
;
Structure prediction by ZEFSAII (Michael W. Deem and Ramdas Pophale) SiO2 
 PCOD9297185
Probable space group: C 2/C
;
_chemical_formula_sum "Si O2"
_cell_formula_units_Z 32
_cell_length_a 6.922648
_cell_length_b 18.289002
_cell_length_c 9.301353
_cell_angle_alpha 90.000000
_cell_angle_beta 112.041617
_cell_angle_gamma 90.000000
_cell_volume 1091.557606
_symmetry_space_group_name_H-M "C 2/C"
_symmetry_group_IT_number 15
_symmetry_cell_setting 'monoclinic'
loop_
_space_group_symop_operation_xyz
x,y,z
-x,y,1/2-z
-x,-y,-z
x,-y,1/2+z
1/2+x,1/2+y,z
1/2-x,1/2+y,1/2-z
1/2-x,1/2-y,-z
1/2+x,1/2-y,1/2+z
loop_
_atom_site_type_symbol
_atom_site_label
_atom_site_fract_x
_atom_site_fract_y
_atom_site_fract_z
Si Si1 0.131699 0.911752 0.622047
Si Si2 0.162642 0.458409 0.444945
Si Si3 0.189261 0.273290 0.646735
Si Si4 0.827688 0.658829 0.911851
O O1 0.204677 0.843688 0.742648
O O2 0.169704 0.887328 0.465897
O O3 0.272632 0.985860 0.665847
O O4 0.108702 0.935850 0.931643
O O5 0.000000 0.500000 0.500000
O O6 0.022436 0.386084 0.399913
O O7 0.250000 0.250000 0.500000
O O8 0.232358 0.204358 0.757563
O O9 0.948068 0.291600 0.561911
#
# Coordination Sequence:
#
# PCOD9297185 Si02
#       4
#     8   8   8   8
#     4  10  23  50  89 126 178 233 301 378 463 556
#     4   9  22  49  91 127 171 234 304 374 456 548
#     4  12  28  50  84 130 183 240 301 386 468 558
#     4  11  26  51  86 126 177 236 306 373 468 557
#
# _framework density 29.315905000000001
#
# number of rings (size 3 to 8) (size 9 to 14) (size 15 to 20)
#    0.000    1.500    0.000    2.250    7.000    0.000 
#    0.000   16.250   16.500   13.500    0.000    0.000 
#    0.000    0.000    0.000    0.000    0.000    0.000 
#
# Total GULP energy -89629.990763 kJ/mol
# GULP energy per Si atom -5601.874423 kJ/mol
# Density = 2.924918 g / cm^3
# Si number density = 29.315905 Si / 1000 Ang^3
#
#
#
# Elastic Constant Matrix: (Units=GPa)
#
#
# Indices 1 2 3 4 5 6 
#
# 1 266.6403 91.7065 96.0076 0.0000 -10.4469 0.0000
# 2 91.7065 173.2053 91.8319 0.0000 -3.7114 0.0000
# 3 96.0076 91.8319 199.5835 0.0000 1.2450 0.0000
# 4 0.0000 0.0000 0.0000 36.5050 0.0000 -11.3522
# 5 -10.4469 -3.7114 1.2450 0.0000 53.7768 0.0000
# 6 0.0000 0.0000 0.0000 -11.3522 0.0000 64.2844
#
#
#
# Elastic Compliance Matrix: (Units=1/GPa)
#
#
# Indices 1 2 3 4 5 6 
#
# 1 0.004962 -0.001772 -0.001577 0.000000 0.000878 0.000000
# 2 -0.001772 0.008289 -0.002963 0.000000 0.000296 0.000000
# 3 -0.001577 -0.002963 0.007137 0.000000 -0.000676 0.000000
# 4 0.000000 0.000000 0.000000 0.028985 0.000000 0.005119
# 5 0.000878 0.000296 -0.000676 0.000000 0.018802 0.000000
# 6 0.000000 0.000000 0.000000 0.005119 0.000000 0.016460
#
#
# Mechanical properties :
#
#
# Convention : Reuss Voigt Hill
#
# Bulk Modulus (GPa) = 128.81840 133.16902 130.99371
# Shear Modulus (GPa) = 50.07585 54.90546 52.49065
#
# Velocity S-wave (km/s) = 4.13746 4.33238 4.23604
# Velocity P-wave (km/s) = 8.17689 8.39942 8.28890
#
# Compressibility (1/GPa) = 0.00776287
#
# Stress axis : x y z
#
# Youngs Moduli (GPa) = 201.52465 120.63567 140.12008
#
# Poissons Ratio (x) = 0.21381 0.22097
# Poissons Ratio (y) = 0.35718 0.41523
# Poissons Ratio (z) = 0.31780 0.35749
#
# Static dielectric constant tensor:
#      x y z
#    x 2.249310 0.000000 -0.039250 
#    y 0.000000 2.545030 0.000000 
#    z -0.039250 0.000000 2.555320 
# 
# From -- ./inp_files/22320.got.cif
#   From: 2010.05.17/outbox.cif.g08.bks.cpg/sg15_12_cif.got.tgz:22320.got - 2010.06.03 18:47:42.
