data_PCOD9297798
_publ_section_title
;
Structure prediction by ZEFSAII (Michael W. Deem and Ramdas Pophale) SiO2 
 PCOD9297798
Probable space group: C 2/C
;
_chemical_formula_sum "Si O2"
_cell_formula_units_Z 64
_cell_length_a 11.608239
_cell_length_b 11.369160
_cell_length_c 22.542441
_cell_angle_alpha 90.000000
_cell_angle_beta 106.756320
_cell_angle_gamma 90.000000
_cell_volume 2848.737216
_symmetry_space_group_name_H-M "C 2/C"
_symmetry_group_IT_number 15
_symmetry_cell_setting 'monoclinic'
loop_
_space_group_symop_operation_xyz
x,y,z
-x,y,1/2-z
-x,-y,-z
x,-y,1/2+z
1/2+x,1/2+y,z
1/2-x,1/2+y,1/2-z
1/2-x,1/2-y,-z
1/2+x,1/2-y,1/2+z
loop_
_atom_site_type_symbol
_atom_site_label
_atom_site_fract_x
_atom_site_fract_y
_atom_site_fract_z
Si Si1 0.106417 0.908812 0.826238
Si Si2 0.100089 0.666054 0.528518
Si Si3 0.865843 0.737361 0.558817
Si Si4 0.652591 0.796749 0.906313
Si Si5 0.315887 0.191851 0.739070
Si Si6 0.147468 0.544774 0.648374
Si Si7 0.102539 0.479930 0.346429
Si Si8 0.964293 0.858674 0.310155
O O1 0.122030 0.841023 0.890961
O O2 0.123468 0.807924 0.778664
O O3 0.222556 0.988895 0.829863
O O4 0.995141 0.000767 0.814466
O O5 0.221459 0.737119 0.560595
O O6 0.102121 0.645346 0.459208
O O7 0.113039 0.556419 0.574490
O O8 0.982003 0.732357 0.533680
O O9 0.750000 0.750000 0.500000
O O10 0.865381 0.617416 0.598305
O O11 0.555262 0.702954 0.869202
O O12 0.675172 0.900824 0.863531
O O13 0.342307 0.167014 0.812380
O O14 0.373570 0.084809 0.710970
O O15 0.174121 0.179277 0.703043
O O16 0.035645 0.482234 0.663048
O O17 0.000000 0.816558 0.250000
#
# Coordination Sequence:
#
# PCOD9297798 Si02
#       8
#     8   8   8   8   8   8   8   8
#     4  11  25  45  71 102 143 182 229 301 357 423
#     4  10  24  42  67  99 133 188 226 287 349 428
#     4  10  25  42  67 100 138 182 235 287 364 429
#     4  11  24  44  67  98 141 178 242 290 351 426
#     4  11  25  45  70 106 140 180 242 290 362 436
#     4  11  22  46  66  99 137 182 234 284 361 425
#     4  10  25  40  68  98 133 186 231 294 355 425
#     4  12  25  46  71 105 140 191 236 295 367 426
#
# _framework density 22.466094999999999
#
# number of rings (size 3 to 8) (size 9 to 14) (size 15 to 20)
#    0.000    1.250    2.500    1.125    8.750    7.000 
#    0.000    1.250    0.000    0.000    0.000    0.000 
#    0.000    0.000    0.000    0.000    0.000    0.000 
#
# Total GULP energy -178831.390919 kJ/mol
# GULP energy per Si atom -5588.480966 kJ/mol
# Density = 2.241496 g / cm^3
# Si number density = 22.466095 Si / 1000 Ang^3
#
#
#
# Elastic Constant Matrix: (Units=GPa)
#
#
# Indices 1 2 3 4 5 6 
#
# 1 130.0914 13.3085 19.5890 0.0000 21.5888 0.0000
# 2 13.3085 78.2476 27.7939 0.0000 3.5103 0.0000
# 3 19.5890 27.7939 76.8397 0.0000 9.6425 0.0000
# 4 0.0000 0.0000 0.0000 16.0031 0.0000 4.3334
# 5 21.5888 3.5103 9.6425 0.0000 39.5646 0.0000
# 6 0.0000 0.0000 0.0000 4.3334 0.0000 23.8828
#
#
#
# Elastic Compliance Matrix: (Units=1/GPa)
#
#
# Indices 1 2 3 4 5 6 
#
# 1 0.008696 -0.000792 -0.001386 0.000000 -0.004337 0.000000
# 2 -0.000792 0.014736 -0.005177 0.000000 0.000386 0.000000
# 3 -0.001386 -0.005177 0.015563 0.000000 -0.002577 0.000000
# 4 0.000000 0.000000 0.000000 0.065717 0.000000 -0.011924
# 5 -0.004337 0.000386 -0.002577 0.000000 0.028236 0.000000
# 6 0.000000 0.000000 0.000000 -0.011924 0.000000 0.044035
#
#
# Mechanical properties :
#
#
# Convention : Reuss Voigt Hill
#
# Bulk Modulus (GPa) = 41.17648 45.17348 43.17498
# Shear Modulus (GPa) = 25.02643 30.85590 27.94117
#
# Velocity S-wave (km/s) = 3.34123 3.71002 3.53044
# Velocity P-wave (km/s) = 5.76656 6.20511 5.98985
#
# Compressibility (1/GPa) = 0.02428571
#
# Stress axis : x y z
#
# Youngs Moduli (GPa) = 114.98964 67.86031 64.25311
#
# Poissons Ratio (x) = 0.05375 0.08907
# Poissons Ratio (y) = 0.09109 0.33263
# Poissons Ratio (z) = 0.15940 0.35130
#
# Static dielectric constant tensor:
#      x y z
#    x 1.822360 0.000000 0.016970 
#    y 0.000000 1.836620 0.000000 
#    z 0.016970 0.000000 1.846050 
# 
# From -- ./inp_files/269288.got.cif
#   From: 2010.05.17/outbox.cif.g08.bks.cpg/sg15_135_cif.got.tgz:269288.got - 2010.06.03 18:47:42.
