data_PCOD9297284
_publ_section_title
;
Structure prediction by ZEFSAII (Michael W. Deem and Ramdas Pophale) SiO2 
 PCOD9297284
Probable space group: C 2/C
;
_chemical_formula_sum "Si O2"
_cell_formula_units_Z 36
_cell_length_a 11.565567
_cell_length_b 16.028186
_cell_length_c 12.093107
_cell_angle_alpha 90.000000
_cell_angle_beta 135.949471
_cell_angle_gamma 90.000000
_cell_volume 1558.679174
_symmetry_space_group_name_H-M "C 2/C"
_symmetry_group_IT_number 15
_symmetry_cell_setting 'monoclinic'
loop_
_space_group_symop_operation_xyz
x,y,z
-x,y,1/2-z
-x,-y,-z
x,-y,1/2+z
1/2+x,1/2+y,z
1/2-x,1/2+y,1/2-z
1/2-x,1/2-y,-z
1/2+x,1/2-y,1/2+z
loop_
_atom_site_type_symbol
_atom_site_label
_atom_site_fract_x
_atom_site_fract_y
_atom_site_fract_z
Si Si1 0.232415 0.359557 0.426443
Si Si2 0.813907 0.031343 0.394237
Si Si3 0.659213 0.162215 0.440621
Si Si4 0.500000 0.285038 0.750000
Si Si5 0.427532 0.907565 0.952147
O O1 0.220656 0.443057 0.347946
O O2 0.418648 0.338433 0.595848
O O3 0.133807 0.377889 0.471922
O O4 0.149687 0.277323 0.318107
O O5 0.780153 0.087924 0.480316
O O6 0.731673 0.083942 0.238840
O O7 0.000000 0.000000 0.500000
O O8 0.500000 0.160864 0.250000
O O9 0.750000 0.250000 0.500000
O O10 0.574175 0.147100 0.500278
O O11 0.500000 0.000000 0.000000
#
# Coordination Sequence:
#
# PCOD9297284 Si02
#       5
#     8   8   8   4   8
#     4  11  22  42  64  96 132 167 224 268 340 394
#     4  11  24  42  66  95 133 174 222 273 331 402
#     4  10  24  43  64  96 134 173 220 270 331 395
#     4  10  24  38  64  96 132 164 214 282 324 396
#     4  11  22  40  69  93 129 179 215 270 335 395
#
# _framework density 23.096478999999999
#
# number of rings (size 3 to 8) (size 9 to 14) (size 15 to 20)
#    0.000    1.333    2.222    2.667    1.556    8.889 
#    2.000    0.000    0.000    0.000    0.000    0.000 
#    0.000    0.000    0.000    0.000    0.000    0.000 
#
# Total GULP energy -100640.368106 kJ/mol
# GULP energy per Si atom -5591.131561 kJ/mol
# Density = 2.304391 g / cm^3
# Si number density = 23.096479 Si / 1000 Ang^3
#
#
#
# Elastic Constant Matrix: (Units=GPa)
#
#
# Indices 1 2 3 4 5 6 
#
# 1 137.7883 38.0641 36.3880 0.0000 24.8921 0.0000
# 2 38.0641 119.4290 20.2054 0.0000 22.0647 0.0000
# 3 36.3880 20.2054 84.8901 0.0001 20.9302 0.0000
# 4 0.0000 0.0000 0.0001 50.5084 0.0000 14.4169
# 5 24.8921 22.0647 20.9302 0.0000 33.5002 0.0000
# 6 0.0000 0.0000 0.0000 14.4169 0.0000 40.6994
#
#
#
# Elastic Compliance Matrix: (Units=1/GPa)
#
#
# Indices 1 2 3 4 5 6 
#
# 1 0.009134 -0.001734 -0.002495 0.000000 -0.004086 0.000000
# 2 -0.001734 0.009915 -0.000383 0.000000 -0.005002 0.000000
# 3 -0.002495 -0.000383 0.014683 0.000000 -0.007067 0.000000
# 4 0.000000 0.000000 0.000000 0.022026 0.000000 -0.007802
# 5 -0.004086 -0.005002 -0.007067 0.000000 0.040597 0.000000
# 6 0.000000 0.000000 0.000000 -0.007802 0.000000 0.027334
#
#
# Mechanical properties :
#
#
# Convention : Reuss Voigt Hill
#
# Bulk Modulus (GPa) = 40.80470 59.04693 49.92581
# Shear Modulus (GPa) = 35.44048 41.43829 38.43938
#
# Velocity S-wave (km/s) = 3.92146 4.24032 4.08400
# Velocity P-wave (km/s) = 6.18136 7.04234 6.62585
#
# Compressibility (1/GPa) = 0.02450698
#
# Stress axis : x y z
#
# Youngs Moduli (GPa) = 109.48660 100.85836 68.10535
#
# Poissons Ratio (x) = 0.17490 0.16992
# Poissons Ratio (y) = 0.18986 0.02610
# Poissons Ratio (z) = 0.27317 0.03865
#
# Static dielectric constant tensor:
#      x y z
#    x 1.854950 0.000000 -0.016280 
#    y 0.000000 1.832580 0.000000 
#    z -0.016280 0.000000 1.941740 
# 
# From -- ./inp_files/87050.got.cif
#   From: 2010.05.17/outbox.cif.g08.bks.cpg/sg15_44_cif.got.tgz:87050.got - 2010.06.03 18:47:42.
