data_PCOD9297325
_publ_section_title
;
Structure prediction by ZEFSAII (Michael W. Deem and Ramdas Pophale) SiO2 
 PCOD9297325
Probable space group: C 2/C
;
_chemical_formula_sum "Si O2"
_cell_formula_units_Z 64
_cell_length_a 13.703542
_cell_length_b 31.083463
_cell_length_c 11.415778
_cell_angle_alpha 90.000000
_cell_angle_beta 144.332721
_cell_angle_gamma 90.000000
_cell_volume 2835.266680
_symmetry_space_group_name_H-M "C 2/C"
_symmetry_group_IT_number 15
_symmetry_cell_setting 'monoclinic'
loop_
_space_group_symop_operation_xyz
x,y,z
-x,y,1/2-z
-x,-y,-z
x,-y,1/2+z
1/2+x,1/2+y,z
1/2-x,1/2+y,1/2-z
1/2-x,1/2-y,-z
1/2+x,1/2-y,1/2+z
loop_
_atom_site_type_symbol
_atom_site_label
_atom_site_fract_x
_atom_site_fract_y
_atom_site_fract_z
Si Si1 0.693477 0.795484 0.396815
Si Si2 0.242363 0.438770 0.946914
Si Si3 0.910380 0.924436 0.351400
Si Si4 0.752313 0.162552 0.722193
Si Si5 0.658720 0.471541 0.981327
Si Si6 0.298989 0.200642 0.068253
Si Si7 0.191489 0.613577 0.985225
Si Si8 0.126954 0.633028 0.181696
O O1 0.500000 0.797760 0.250000
O O2 0.750000 0.750000 0.500000
O O3 0.743572 0.799419 0.308773
O O4 0.764840 0.840389 0.516703
O O5 0.119806 0.404356 0.770757
O O6 0.276374 0.431396 0.116744
O O7 0.412622 0.428119 0.040191
O O8 0.210973 0.489106 0.893960
O O9 0.872284 0.877294 0.366794
O O10 0.890509 0.958673 0.435386
O O11 0.789147 0.176765 0.625840
O O12 0.560177 0.146769 0.534676
O O13 0.500000 0.487087 0.750000
O O14 0.720897 0.428249 0.980414
O O15 0.500000 0.198042 0.250000
O O16 0.274559 0.173729 0.164495
O O17 0.250000 0.250000 0.000000
O O18 0.000000 0.611552 0.750000
O O19 0.200596 0.614532 0.133917
#
# Coordination Sequence:
#
# PCOD9297325 Si02
#       8
#     8   8   8   8   8   8   8   8
#     4  11  24  45  69  99 137 174 221 274 334 398
#     4  11  25  40  65  98 130 174 223 279 336 388
#     4  11  22  43  63  94 132 174 220 272 331 395
#     4  11  22  45  69  91 133 172 221 270 328 402
#     4  12  24  42  66  97 134 176 222 278 339 400
#     4  10  24  39  62  92 122 165 210 267 328 387
#     4  11  23  45  66  95 134 175 219 276 334 402
#     4  11  22  44  67  91 131 178 214 273 336 396
#
# _framework density 22.572834
#
# number of rings (size 3 to 8) (size 9 to 14) (size 15 to 20)
#    0.000    1.000    6.250    1.125    3.500    1.500 
#    4.500    1.250    0.000    0.000    0.000    0.000 
#    0.000    0.000    0.000    0.000    0.000    0.000 
#
# Total GULP energy -178814.897769 kJ/mol
# GULP energy per Si atom -5587.965555 kJ/mol
# Density = 2.252146 g / cm^3
# Si number density = 22.572834 Si / 1000 Ang^3
#
#
#
# Elastic Constant Matrix: (Units=GPa)
#
#
# Indices 1 2 3 4 5 6 
#
# 1 85.5092 25.8385 29.1510 0.0000 -32.3768 0.0000
# 2 25.8385 157.9770 30.8529 0.0000 -6.5796 0.0000
# 3 29.1510 30.8529 65.7755 0.0000 -28.5611 0.0000
# 4 0.0000 0.0000 0.0000 31.7085 0.0000 0.7121
# 5 -32.3768 -6.5796 -28.5611 0.0000 34.8353 0.0000
# 6 0.0000 0.0000 0.0000 0.7121 0.0000 6.5884
#
#
#
# Elastic Compliance Matrix: (Units=1/GPa)
#
#
# Indices 1 2 3 4 5 6 
#
# 1 0.018894 -0.002426 0.000296 0.000000 0.017345 0.000000
# 2 -0.002426 0.007382 -0.004287 0.000000 -0.004375 0.000000
# 3 0.000296 -0.004287 0.026167 0.000000 0.020919 0.000000
# 4 0.000000 0.000000 0.000000 0.031614 0.000000 -0.003417
# 5 0.017345 -0.004375 0.020919 0.000000 0.061152 0.000000
# 6 0.000000 0.000000 0.000000 -0.003417 0.000000 0.152150
#
#
# Mechanical properties :
#
#
# Convention : Reuss Voigt Hill
#
# Bulk Modulus (GPa) = 25.24755 53.43850 39.34303
# Shear Modulus (GPa) = 15.46089 29.52105 22.49097
#
# Velocity S-wave (km/s) = 2.61996 3.62029 3.15996
# Velocity P-wave (km/s) = 4.51237 6.41877 5.54807
#
# Compressibility (1/GPa) = 0.03960780
#
# Stress axis : x y z
#
# Youngs Moduli (GPa) = 52.92608 135.46696 38.21662
#
# Poissons Ratio (x) = 0.32860 -0.01130
# Poissons Ratio (y) = 0.12838 0.16385
# Poissons Ratio (z) = -0.01565 0.58081
#
# Static dielectric constant tensor:
#      x y z
#    x 1.878740 0.000000 0.017600 
#    y 0.000000 1.852620 0.000000 
#    z 0.017600 0.000000 1.866750 
# 
# From -- ./inp_files/101671.got.cif
#   From: 2010.05.17/outbox.cif.g08.bks.cpg/sg15_51_cif.got.tgz:101671.got - 2010.06.03 18:47:42.
