data_PCOD9297008
_publ_section_title
;
Structure prediction by ZEFSAII (Michael W. Deem and Ramdas Pophale) SiO2 
 PCOD9297008
Probable space group: C 2/C
;
_chemical_formula_sum "Si O2"
_cell_formula_units_Z 36
_cell_length_a 14.453821
_cell_length_b 11.986507
_cell_length_c 10.094610
_cell_angle_alpha 90.000000
_cell_angle_beta 126.950238
_cell_angle_gamma 90.000000
_cell_volume 1397.646858
_symmetry_space_group_name_H-M "C 2/C"
_symmetry_group_IT_number 15
_symmetry_cell_setting 'monoclinic'
loop_
_space_group_symop_operation_xyz
x,y,z
-x,y,1/2-z
-x,-y,-z
x,-y,1/2+z
1/2+x,1/2+y,z
1/2-x,1/2+y,1/2-z
1/2-x,1/2-y,-z
1/2+x,1/2-y,1/2+z
loop_
_atom_site_type_symbol
_atom_site_label
_atom_site_fract_x
_atom_site_fract_y
_atom_site_fract_z
Si Si1 0.332703 0.352929 0.694223
Si Si2 0.769461 0.377883 0.172317
Si Si3 0.352011 0.301465 0.171921
Si Si4 0.399287 0.920565 0.850240
Si Si5 0.000000 0.012792 0.750000
O O1 0.316072 0.354164 0.521587
O O2 0.357001 0.226825 0.756913
O O3 0.207564 0.387756 0.644148
O O4 0.438519 0.435879 0.805213
O O5 0.701097 0.370207 0.250661
O O6 0.836506 0.490981 0.200185
O O7 0.424056 0.197220 0.298292
O O8 0.407958 0.394655 0.124394
O O9 0.250000 0.250000 0.000000
O O10 0.500000 0.000000 0.000000
#
# Coordination Sequence:
#
# PCOD9297008 Si02
#       5
#     8   8   8   8   4
#     4  10  24  45  69 105 135 188 238 298 367 437
#     4  10  23  47  68  97 147 179 239 294 367 439
#     4  11  26  45  69 106 144 187 238 304 365 435
#     4  11  25  45  72 100 142 191 238 299 365 441
#     4  12  24  44  76 102 140 182 244 302 356 442
#
# _framework density 25.757580000000001
#
# number of rings (size 3 to 8) (size 9 to 14) (size 15 to 20)
#    0.000    1.333    2.222    1.333    3.111    7.111 
#    4.000    0.000    0.000    0.000    0.000    0.000 
#    0.000    0.000    0.000    0.000    0.000    0.000 
#
# Total GULP energy -100472.810561 kJ/mol
# GULP energy per Si atom -5581.822809 kJ/mol
# Density = 2.569895 g / cm^3
# Si number density = 25.757580 Si / 1000 Ang^3
#
#
#
# Elastic Constant Matrix: (Units=GPa)
#
#
# Indices 1 2 3 4 5 6 
#
# 1 114.4597 45.4307 12.2762 0.0000 -3.8126 0.0000
# 2 45.4307 183.3753 -5.8351 0.0000 11.4466 0.0000
# 3 12.2762 -5.8351 45.0565 0.0000 -2.3485 0.0000
# 4 0.0000 0.0000 0.0000 32.3093 0.0000 2.3769
# 5 -3.8126 11.4466 -2.3485 0.0000 31.3223 0.0000
# 6 0.0000 0.0000 0.0000 2.3769 0.0000 64.5505
#
#
#
# Elastic Compliance Matrix: (Units=1/GPa)
#
#
# Indices 1 2 3 4 5 6 
#
# 1 0.010224 -0.002756 -0.003037 0.000000 0.002024 0.000000
# 2 -0.002756 0.006341 0.001439 0.000000 -0.002545 0.000000
# 3 -0.003037 0.001439 0.023252 0.000000 0.000848 0.000000
# 4 0.000000 0.000000 0.000000 0.031035 0.000000 -0.001143
# 5 0.002024 -0.002545 0.000848 0.000000 0.033166 0.000000
# 6 0.000000 0.000000 0.000000 -0.001143 0.000000 0.015534
#
#
# Mechanical properties :
#
#
# Convention : Reuss Voigt Hill
#
# Bulk Modulus (GPa) = 32.14411 49.62612 40.88511
# Shear Modulus (GPa) = 36.06764 45.03772 40.55268
#
# Velocity S-wave (km/s) = 3.74608 4.18607 3.97217
# Velocity P-wave (km/s) = 5.58725 6.53243 6.07824
#
# Compressibility (1/GPa) = 0.03110990
#
# Stress axis : x y z
#
# Youngs Moduli (GPa) = 97.81211 157.71130 43.00628
#
# Poissons Ratio (x) = 0.43463 0.13061
# Poissons Ratio (y) = 0.26956 -0.06190
# Poissons Ratio (z) = 0.29705 -0.22701
#
# Static dielectric constant tensor:
#      x y z
#    x 2.145440 0.000000 0.102710 
#    y 0.000000 2.152390 0.000000 
#    z 0.102710 0.000000 2.042490 
# 
# From -- ./inp_files/103985.got.cif
#   From: 2010.05.17/outbox.cif.g08.bks.cpg/sg15_52_cif.got.tgz:103985.got - 2010.06.03 18:47:42.
