data_PCOD9297251
_publ_section_title
;
Structure prediction by ZEFSAII (Michael W. Deem and Ramdas Pophale) SiO2 
 PCOD9297251
Probable space group: C 2/C
;
_chemical_formula_sum "Si O2"
_cell_formula_units_Z 48
_cell_length_a 5.494028
_cell_length_b 29.507444
_cell_length_c 15.207722
_cell_angle_alpha 90.000000
_cell_angle_beta 108.942385
_cell_angle_gamma 90.000000
_cell_volume 2331.883329
_symmetry_space_group_name_H-M "C 2/C"
_symmetry_group_IT_number 15
_symmetry_cell_setting 'monoclinic'
loop_
_space_group_symop_operation_xyz
x,y,z
-x,y,1/2-z
-x,-y,-z
x,-y,1/2+z
1/2+x,1/2+y,z
1/2-x,1/2+y,1/2-z
1/2-x,1/2-y,-z
1/2+x,1/2-y,1/2+z
loop_
_atom_site_type_symbol
_atom_site_label
_atom_site_fract_x
_atom_site_fract_y
_atom_site_fract_z
Si Si1 0.500000 0.049735 0.250000
Si Si2 0.295069 0.996416 0.396733
Si Si3 0.986004 0.919665 0.852974
Si Si4 0.707085 0.147683 0.994996
Si Si5 0.601680 0.092542 0.673646
Si Si6 0.168141 0.799108 0.456505
Si Si7 0.500000 0.328818 0.250000
O O1 0.317545 0.082382 0.170267
O O2 0.384005 0.018466 0.313990
O O3 0.245114 0.943871 0.367617
O O4 0.500000 0.000000 0.500000
O O5 0.062769 0.029839 0.394089
O O6 0.000000 0.916901 0.750000
O O7 0.166229 0.882230 0.914466
O O8 0.632506 0.111741 0.910715
O O9 0.434504 0.171515 0.986605
O O10 0.934210 0.180452 0.986989
O O11 0.500000 0.070066 0.750000
O O12 0.763192 0.136004 0.723785
O O13 0.250000 0.750000 0.500000
O O14 0.052368 0.800046 0.343697
#
# Coordination Sequence:
#
# PCOD9297251 Si02
#       7
#     4   8   8   8   8   8   4
#     4  10  24  38  57  80 138 176 220 289 320 392
#     4  11  22  37  59  92 128 181 230 281 331 396
#     4  10  24  42  59  94 136 180 234 275 339 398
#     4  11  24  45  72  97 136 181 226 285 346 422
#     4  11  21  39  63  96 134 178 227 282 344 398
#     4  11  25  47  73 104 135 172 225 290 359 426
#     4  10  24  40  71  98 136 168 226 281 350 416
#
# _framework density 20.584219999999998
#
# number of rings (size 3 to 8) (size 9 to 14) (size 15 to 20)
#    0.000    1.333    4.167    0.500    8.167    0.667 
#    3.000    0.000    0.000    0.000    0.000    0.000 
#    0.000    0.000    0.000    0.000    0.000    0.000 
#
# Total GULP energy -133725.142926 kJ/mol
# GULP energy per Si atom -5571.880955 kJ/mol
# Density = 2.053737 g / cm^3
# Si number density = 20.584220 Si / 1000 Ang^3
#
#
#
# Elastic Constant Matrix: (Units=GPa)
#
#
# Indices 1 2 3 4 5 6 
#
# 1 74.3082 25.6587 26.7642 0.0000 23.6202 0.0000
# 2 25.6587 99.2643 61.0498 0.0000 15.3428 0.0000
# 3 26.7642 61.0498 145.1012 0.0000 33.3821 0.0000
# 4 0.0000 0.0000 0.0000 33.8882 0.0000 11.2919
# 5 23.6202 15.3428 33.3821 0.0000 30.2707 0.0000
# 6 0.0000 0.0000 0.0000 11.2919 0.0000 22.0861
#
#
#
# Elastic Compliance Matrix: (Units=1/GPa)
#
#
# Indices 1 2 3 4 5 6 
#
# 1 0.018715 -0.003411 0.001266 0.000000 -0.014271 0.000000
# 2 -0.003411 0.014226 -0.005775 0.000000 0.001819 0.000000
# 3 0.001266 -0.005775 0.011580 0.000000 -0.010831 0.000000
# 4 0.000000 0.000000 0.000000 0.035568 0.000000 -0.018185
# 5 -0.014271 0.001819 -0.010831 0.000000 0.055193 0.000000
# 6 0.000000 0.000000 0.000000 -0.018185 0.000000 0.054575
#
#
# Mechanical properties :
#
#
# Convention : Reuss Voigt Hill
#
# Bulk Modulus (GPa) = 34.86441 60.62434 47.74437
# Shear Modulus (GPa) = 23.22803 30.92907 27.07855
#
# Velocity S-wave (km/s) = 3.36287 3.88049 3.63092
# Velocity P-wave (km/s) = 5.66151 7.04226 6.38929
#
# Compressibility (1/GPa) = 0.02868255
#
# Stress axis : x y z
#
# Youngs Moduli (GPa) = 53.43168 70.29236 86.35782
#
# Poissons Ratio (x) = 0.23974 -0.10934
# Poissons Ratio (y) = 0.18223 0.49872
# Poissons Ratio (z) = -0.06765 0.40594
#
# Static dielectric constant tensor:
#      x y z
#    x 1.938960 0.000000 0.033540 
#    y 0.000000 1.722320 0.000000 
#    z 0.033540 0.000000 1.725350 
# 
# From -- ./inp_files/130495.got.cif
#   From: 2010.05.17/outbox.cif.g08.bks.cpg/sg15_66_cif.got.tgz:130495.got - 2010.06.03 18:47:42.
