data_PCOD9297146
_publ_section_title
;
Structure prediction by ZEFSAII (Michael W. Deem and Ramdas Pophale) SiO2 
 PCOD9297146
Probable space group: C 2/C
;
_chemical_formula_sum "Si O2"
_cell_formula_units_Z 24
_cell_length_a 9.627853
_cell_length_b 10.790849
_cell_length_c 22.814736
_cell_angle_alpha 90.000000
_cell_angle_beta 22.463374
_cell_angle_gamma 90.000000
_cell_volume 905.668647
_symmetry_space_group_name_H-M "C 2/C"
_symmetry_group_IT_number 15
_symmetry_cell_setting 'monoclinic'
loop_
_space_group_symop_operation_xyz
x,y,z
-x,y,1/2-z
-x,-y,-z
x,-y,1/2+z
1/2+x,1/2+y,z
1/2-x,1/2+y,1/2-z
1/2-x,1/2-y,-z
1/2+x,1/2-y,1/2+z
loop_
_atom_site_type_symbol
_atom_site_label
_atom_site_fract_x
_atom_site_fract_y
_atom_site_fract_z
Si Si1 0.097470 0.934908 0.384719
Si Si2 0.133275 0.071671 0.133064
Si Si3 0.889126 0.796582 0.568799
O O1 0.500000 0.904557 0.250000
O O2 0.848953 0.832492 0.514678
O O3 0.005219 0.070675 0.446033
O O4 0.091844 0.973653 0.318593
O O5 0.000000 0.097579 0.250000
O O6 0.283060 0.201184 0.049433
O O7 0.500000 0.000000 0.000000
O O8 0.500000 0.761190 0.750000
#
# Coordination Sequence:
#
# PCOD9297146 Si02
#       3
#     8   8   8
#     4  10  24  49  76 107 144 198 249 298 374 441
#     4  12  28  47  72 112 152 190 249 309 367 443
#     4  10  23  48  78 105 146 194 244 302 374 437
#
# _framework density 26.499758
#
# number of rings (size 3 to 8) (size 9 to 14) (size 15 to 20)
#    0.000    1.333    0.000    3.000   14.000    2.667 
#   18.000    0.000    0.000    0.000    0.000    0.000 
#    0.000    0.000    0.000    0.000    0.000    0.000 
#
# Total GULP energy -66987.636491 kJ/mol
# GULP energy per Si atom -5582.303041 kJ/mol
# Density = 2.643944 g / cm^3
# Si number density = 26.499758 Si / 1000 Ang^3
#
#
#
# Elastic Constant Matrix: (Units=GPa)
#
#
# Indices 1 2 3 4 5 6 
#
# 1 134.2430 27.2625 58.9373 -0.0193 24.2634 -0.0085
# 2 27.2625 77.7711 49.1303 0.0142 17.4391 0.0177
# 3 58.9373 49.1303 192.9950 0.0034 20.8101 -0.0786
# 4 -0.0193 0.0142 0.0034 51.2862 0.0226 9.0451
# 5 24.2634 17.4391 20.8101 0.0226 37.3893 0.0583
# 6 -0.0085 0.0177 -0.0786 9.0451 0.0583 37.2176
#
#
#
# Elastic Compliance Matrix: (Units=1/GPa)
#
#
# Indices 1 2 3 4 5 6 
#
# 1 0.009388 -0.000933 -0.002148 0.000005 -0.004461 0.000004
# 2 -0.000933 0.016468 -0.003345 -0.000001 -0.005213 -0.000007
# 3 -0.002148 -0.003345 0.006777 -0.000003 -0.000818 0.000017
# 4 0.000005 -0.000001 -0.000003 0.020372 -0.000006 -0.004951
# 5 -0.004461 -0.005213 -0.000818 -0.000006 0.032528 -0.000050
# 6 0.000004 -0.000007 0.000017 -0.004951 -0.000050 0.028072
#
#
# Mechanical properties :
#
#
# Convention : Reuss Voigt Hill
#
# Bulk Modulus (GPa) = 50.55702 75.07435 62.81569
# Shear Modulus (GPa) = 37.57946 43.15721 40.36833
#
# Velocity S-wave (km/s) = 3.76986 4.03996 3.90724
# Velocity P-wave (km/s) = 6.16999 7.08190 6.64162
#
# Compressibility (1/GPa) = 0.01977965
#
# Stress axis : x y z
#
# Youngs Moduli (GPa) = 106.51563 60.72540 147.55264
#
# Poissons Ratio (x) = 0.05669 0.31699
# Poissons Ratio (y) = 0.09943 0.49355
# Poissons Ratio (z) = 0.22883 0.20312
#
# Static dielectric constant tensor:
#      x y z
#    x 2.206710 0.063390 0.095730 
#    y 0.063390 20.900470 0.082440 
#    z 0.095730 0.082440 2.095180 
# 
# From -- ./inp_files/268613.got.cif
#   From: 2010.05.17/outbox.cif.g08.bks.cpg/sg15_135_cif.got.tgz:268613.got - 2010.06.03 18:47:42.
