data_PCOD9297814
_publ_section_title
;
Structure prediction by ZEFSAII (Michael W. Deem and Ramdas Pophale) SiO2 
 PCOD9297814
Probable space group: C 2/C
;
_chemical_formula_sum "Si O2"
_cell_formula_units_Z 40
_cell_length_a 21.432776
_cell_length_b 13.352256
_cell_length_c 10.740689
_cell_angle_alpha 90.000000
_cell_angle_beta 147.618481
_cell_angle_gamma 90.000000
_cell_volume 1646.147814
_symmetry_space_group_name_H-M "C 2/C"
_symmetry_group_IT_number 15
_symmetry_cell_setting 'monoclinic'
loop_
_space_group_symop_operation_xyz
x,y,z
-x,y,1/2-z
-x,-y,-z
x,-y,1/2+z
1/2+x,1/2+y,z
1/2-x,1/2+y,1/2-z
1/2-x,1/2-y,-z
1/2+x,1/2-y,1/2+z
loop_
_atom_site_type_symbol
_atom_site_label
_atom_site_fract_x
_atom_site_fract_y
_atom_site_fract_z
Si Si1 0.367613 0.428696 0.061746
Si Si2 0.613809 0.230945 0.758652
Si Si3 0.116099 0.808039 0.159998
Si Si4 0.800866 0.588438 0.786281
Si Si5 0.653730 0.118863 0.072768
O O1 0.500000 0.452612 0.250000
O O2 0.366231 0.350133 0.172616
O O3 0.286871 0.526128 0.954400
O O4 0.296341 0.384440 0.822873
O O5 0.520864 0.320298 0.603668
O O6 0.612579 0.165747 0.631523
O O7 0.750000 0.250000 0.000000
O O8 0.601436 0.164620 0.861289
O O9 0.210753 0.860048 0.230031
O O10 0.125391 0.689564 0.143476
O O11 0.874681 0.497322 0.965545
#
# Coordination Sequence:
#
# PCOD9297814 Si02
#       5
#     8   8   8   8   8
#     4  10  24  42  68 103 135 179 229 284 341 408
#     4  12  24  42  71 103 138 182 228 281 346 411
#     4  12  24  45  72  99 143 182 231 286 344 414
#     4  10  26  43  72  99 143 178 232 287 343 411
#     4  10  24  43  70 101 138 180 229 281 348 406
#
# _framework density 24.299154000000001
#
# number of rings (size 3 to 8) (size 9 to 14) (size 15 to 20)
#    1.200    0.000    2.000    3.600    2.800    1.600 
#    0.000    0.000    0.000    0.000    0.000    0.000 
#    0.000    0.000    0.000    0.000    0.000    0.000 
#
# Total GULP energy -111479.431741 kJ/mol
# GULP energy per Si atom -5573.971587 kJ/mol
# Density = 2.424385 g / cm^3
# Si number density = 24.299154 Si / 1000 Ang^3
#
#
#
# Elastic Constant Matrix: (Units=GPa)
#
#
# Indices 1 2 3 4 5 6 
#
# 1 105.0059 38.5180 4.0244 0.0000 10.9369 0.0000
# 2 38.5180 76.0686 2.8033 0.0000 -3.2650 0.0000
# 3 4.0244 2.8033 71.3795 0.0000 -4.5258 0.0000
# 4 0.0000 0.0000 0.0000 37.0539 0.0000 12.4591
# 5 10.9369 -3.2650 -4.5258 0.0000 35.5991 0.0000
# 6 0.0000 0.0000 0.0000 12.4591 0.0000 -3.9040
#
#
#
# Elastic Compliance Matrix: (Units=1/GPa)
#
#
# Indices 1 2 3 4 5 6 
#
# 1 0.012378 -0.006434 -0.000730 0.000000 -0.004486 0.000000
# 2 -0.006434 0.016556 -0.000066 0.000000 0.003487 0.000000
# 3 -0.000730 -0.000066 0.014182 0.000000 0.002021 0.000000
# 4 0.000000 0.000000 0.000000 0.013018 0.000000 0.041546
# 5 -0.004486 0.003487 0.002021 0.000000 0.030045 0.000000
# 6 0.000000 0.000000 0.000000 0.041546 0.000000 -0.123559
#
#
# Mechanical properties :
#
#
# Convention : Reuss Voigt Hill
#
# Bulk Modulus (GPa) = 34.89610 38.12725 36.51167
# Shear Modulus (GPa) = -374.02302 27.55702 -173.23300
#
# Velocity S-wave (km/s) = -12.42008 3.37125 -8.45261
# Velocity P-wave (km/s) = 13.83061 5.55685 8.95564
#
# Compressibility (1/GPa) = 0.02865650
#
# Stress axis : x y z
#
# Youngs Moduli (GPa) = 80.78595 60.40174 70.51436
#
# Poissons Ratio (x) = 0.38860 0.05145
# Poissons Ratio (y) = 0.51974 0.00468
# Poissons Ratio (z) = 0.05895 0.00401
#
# Static dielectric constant tensor:
#      x y z
#    x 1.669820 0.000000 0.106740 
#    y 0.000000 2.075910 0.000000 
#    z 0.106740 0.000000 2.041870 
# 
# From -- ./inp_files/118871.got.cif
#   From: 2010.05.17/outbox.cif.g08.bks.cpg/sg15_60_cif.got.tgz:118871.got - 2010.06.03 18:47:42.
