data_PCOD9297401
_publ_section_title
;
Structure prediction by ZEFSAII (Michael W. Deem and Ramdas Pophale) SiO2 
 PCOD9297401
Probable space group: C 2/C
;
_chemical_formula_sum "Si O2"
_cell_formula_units_Z 36
_cell_length_a 14.565918
_cell_length_b 19.679814
_cell_length_c 8.772990
_cell_angle_alpha 90.000000
_cell_angle_beta 137.511727
_cell_angle_gamma 90.000000
_cell_volume 1698.606592
_symmetry_space_group_name_H-M "C 2/C"
_symmetry_group_IT_number 15
_symmetry_cell_setting 'monoclinic'
loop_
_space_group_symop_operation_xyz
x,y,z
-x,y,1/2-z
-x,-y,-z
x,-y,1/2+z
1/2+x,1/2+y,z
1/2-x,1/2+y,1/2-z
1/2-x,1/2-y,-z
1/2+x,1/2-y,1/2+z
loop_
_atom_site_type_symbol
_atom_site_label
_atom_site_fract_x
_atom_site_fract_y
_atom_site_fract_z
Si Si1 0.145431 0.223824 0.002255
Si Si2 0.000000 0.986261 0.250000
Si Si3 0.806827 0.615605 0.392526
Si Si4 0.695064 0.537308 0.741508
Si Si5 0.888039 0.644481 0.831878
O O1 0.206643 0.160462 0.168583
O O2 0.123261 0.283970 0.098035
O O3 0.250000 0.250000 0.000000
O O4 0.000000 0.209421 0.750000
O O5 0.085210 0.031847 0.471669
O O6 0.890213 0.945159 0.212736
O O7 0.758027 0.537745 0.339057
O O8 0.820062 0.643516 0.581132
O O9 0.956438 0.622130 0.502538
O O10 0.809986 0.590046 0.839873
#
# Coordination Sequence:
#
# PCOD9297401 Si02
#       5
#     8   4   8   8   8
#     4  12  27  48  72 106 143 185 239 296 351 421
#     4  10  24  40  64 108 142 180 230 284 362 410
#     4  11  25  47  73 104 140 192 233 291 358 420
#     4  11  23  45  69 106 142 184 237 292 353 424
#     4  11  25  48  71 103 142 187 238 288 360 422
#
# _framework density 21.193840999999999
#
# number of rings (size 3 to 8) (size 9 to 14) (size 15 to 20)
#    0.000    0.889    4.444    1.333    4.667    1.778 
#    4.000    0.000    0.000    0.000    0.000    0.000 
#    0.000    0.000    0.000    0.000    0.000    0.000 
#
# Total GULP energy -100810.615307 kJ/mol
# GULP energy per Si atom -5600.589739 kJ/mol
# Density = 2.114560 g / cm^3
# Si number density = 21.193841 Si / 1000 Ang^3
#
#
#
# Elastic Constant Matrix: (Units=GPa)
#
#
# Indices 1 2 3 4 5 6 
#
# 1 185.7170 62.4562 56.9620 0.0000 4.8459 0.0000
# 2 62.4562 111.2133 72.7855 0.0000 -3.0026 0.0000
# 3 56.9620 72.7855 153.6918 0.0000 5.6444 0.0000
# 4 0.0000 0.0000 0.0000 7.0421 0.0000 -12.4277
# 5 4.8459 -3.0026 5.6444 0.0000 25.7130 0.0000
# 6 0.0000 0.0000 0.0000 -12.4277 0.0000 26.1207
#
#
#
# Elastic Compliance Matrix: (Units=1/GPa)
#
#
# Indices 1 2 3 4 5 6 
#
# 1 0.006800 -0.003252 -0.000927 0.000000 -0.001458 0.000000
# 2 -0.003252 0.014803 -0.005939 0.000000 0.003645 0.000000
# 3 -0.000927 -0.005939 0.009761 0.000000 -0.002661 0.000000
# 4 0.000000 0.000000 0.000000 0.885561 0.000000 0.421331
# 5 -0.001458 0.003645 -0.002661 0.000000 0.040175 0.000000
# 6 0.000000 0.000000 0.000000 0.421331 0.000000 0.238744
#
#
# Mechanical properties :
#
#
# Convention : Reuss Voigt Hill
#
# Bulk Modulus (GPa) = 89.85987 92.78104 91.32046
# Shear Modulus (GPa) = 4.09906 29.00306 16.55106
#
# Velocity S-wave (km/s) = 1.39222 3.70329 2.79756
# Velocity P-wave (km/s) = 6.71383 7.88405 7.32235
#
# Compressibility (1/GPa) = 0.01112844
#
# Stress axis : x y z
#
# Youngs Moduli (GPa) = 147.04944 67.55208 102.45355
#
# Poissons Ratio (x) = 0.21967 0.09496
# Poissons Ratio (y) = 0.47818 0.60850
# Poissons Ratio (z) = 0.13630 0.40121
#
# Static dielectric constant tensor:
#      x y z
#    x 1.759010 0.000000 -0.016020 
#    y 0.000000 1.716990 0.000000 
#    z -0.016020 0.000000 1.744500 
# 
# From -- ./inp_files/41312.got.cif
#   From: 2010.05.17/outbox.cif.g08.bks.cpg/sg15_21_cif.got.tgz:41312.got - 2010.06.03 18:47:42.
