data_PCOD9297239
_publ_section_title
;
Structure prediction by ZEFSAII (Michael W. Deem and Ramdas Pophale) SiO2 
 PCOD9297239
Probable space group: C 2/C
;
_chemical_formula_sum "Si O2"
_cell_formula_units_Z 60
_cell_length_a 19.176456
_cell_length_b 18.208841
_cell_length_c 12.501751
_cell_angle_alpha 90.000000
_cell_angle_beta 134.475301
_cell_angle_gamma 90.000000
_cell_volume 3114.923944
_symmetry_space_group_name_H-M "C 2/C"
_symmetry_group_IT_number 15
_symmetry_cell_setting 'monoclinic'
loop_
_space_group_symop_operation_xyz
x,y,z
-x,y,1/2-z
-x,-y,-z
x,-y,1/2+z
1/2+x,1/2+y,z
1/2-x,1/2+y,1/2-z
1/2-x,1/2-y,-z
1/2+x,1/2-y,1/2+z
loop_
_atom_site_type_symbol
_atom_site_label
_atom_site_fract_x
_atom_site_fract_y
_atom_site_fract_z
Si Si1 0.201404 0.264054 0.747753
Si Si2 0.000000 0.611245 0.750000
Si Si3 0.493888 0.768684 0.423968
Si Si4 0.355095 0.854904 0.425673
Si Si5 0.694626 0.307089 0.860810
Si Si6 0.678592 0.105294 0.385028
Si Si7 0.384083 0.994212 0.871495
Si Si8 0.794431 0.544015 0.500531
O O1 0.255148 0.188658 0.833982
O O2 0.257603 0.298459 0.705605
O O3 0.208298 0.319119 0.857210
O O4 0.094538 0.244746 0.586462
O O5 0.981619 0.664661 0.630169
O O6 0.098515 0.565115 0.835074
O O7 0.431388 0.800833 0.454404
O O8 0.419370 0.715059 0.279013
O O9 0.384065 0.879976 0.575634
O O10 0.344691 0.922439 0.332752
O O11 0.750000 0.250000 0.000000
O O12 0.720124 0.388288 0.931176
O O13 0.628788 0.063804 0.234678
O O14 0.673095 0.963136 0.587516
O O15 0.256304 0.964858 0.501755
O O16 0.500000 0.000000 0.000000
#
# Coordination Sequence:
#
# PCOD9297239 Si02
#       8
#     8   4   8   8   8   8   8   8
#     4  11  22  40  58  88 123 158 208 253 300 365
#     4  12  18  34  56  90 122 152 188 248 306 362
#     4  11  21  35  60  86 122 156 203 252 298 358
#     4  10  24  37  60  92 118 164 202 246 308 366
#     4  11  21  37  59  86 118 160 203 250 301 363
#     4  11  22  38  58  84 128 162 194 250 308 373
#     4  11  21  36  57  90 123 154 193 246 313 366
#     4  11  21  33  56  88 120 155 196 245 308 366
#
# _framework density 19.262107
#
# number of rings (size 3 to 8) (size 9 to 14) (size 15 to 20)
#    0.000    1.067    4.000    3.600    1.867    5.333 
#    0.000    0.000    0.000    3.200    6.933    0.000 
#    0.000    0.000    0.000    0.000    0.000    0.000 
#
# Total GULP energy -167084.072184 kJ/mol
# GULP energy per Si atom -5569.469073 kJ/mol
# Density = 1.921827 g / cm^3
# Si number density = 19.262107 Si / 1000 Ang^3
#
#
#
# Elastic Constant Matrix: (Units=GPa)
#
#
# Indices 1 2 3 4 5 6 
#
# 1 57.7615 31.8866 31.8453 0.0000 -3.3497 0.0000
# 2 31.8866 112.2830 35.0260 0.0000 16.1169 0.0000
# 3 31.8453 35.0260 73.0611 0.0000 -3.6923 0.0000
# 4 0.0000 0.0000 0.0000 29.3675 0.0000 -9.8994
# 5 -3.3497 16.1169 -3.6923 0.0000 39.4136 0.0000
# 6 0.0000 0.0000 0.0000 -9.8994 0.0000 30.7966
#
#
#
# Elastic Compliance Matrix: (Units=1/GPa)
#
#
# Indices 1 2 3 4 5 6 
#
# 1 0.024794 -0.004944 -0.008268 0.000000 0.003354 0.000000
# 2 -0.004944 0.012436 -0.004105 0.000000 -0.005890 0.000000
# 3 -0.008268 -0.004105 0.019400 0.000000 0.002793 0.000000
# 4 0.000000 0.000000 0.000000 0.038189 0.000000 0.012276
# 5 0.003354 -0.005890 0.002793 0.000000 0.028327 0.000000
# 6 0.000000 0.000000 0.000000 0.012276 0.000000 0.036417
#
#
# Mechanical properties :
#
#
# Convention : Reuss Voigt Hill
#
# Bulk Modulus (GPa) = 45.45860 48.95793 47.20827
# Shear Modulus (GPa) = 24.81046 29.53872 27.17459
#
# Velocity S-wave (km/s) = 3.59283 3.92026 3.76011
# Velocity P-wave (km/s) = 6.39238 6.77961 6.58884
#
# Compressibility (1/GPa) = 0.02199804
#
# Stress axis : x y z
#
# Youngs Moduli (GPa) = 40.33181 80.41273 51.54697
#
# Poissons Ratio (x) = 0.39753 0.42617
# Poissons Ratio (y) = 0.19939 0.21158
# Poissons Ratio (z) = 0.33345 0.33007
#
# Static dielectric constant tensor:
#      x y z
#    x 1.683980 0.000000 -0.039870 
#    y 0.000000 1.734360 0.000000 
#    z -0.039870 0.000000 1.492060 
# 
# From -- ./inp_files/119464.got.cif
#   From: 2010.05.17/outbox.cif.g08.bks.cpg/sg15_60_cif.got.tgz:119464.got - 2010.06.03 18:47:42.
