data_PCOD9297172
_publ_section_title
;
Structure prediction by ZEFSAII (Michael W. Deem and Ramdas Pophale) SiO2 
 PCOD9297172
Probable space group: C 2/C
;
_chemical_formula_sum "Si O2"
_cell_formula_units_Z 40
_cell_length_a 10.197506
_cell_length_b 9.567985
_cell_length_c 15.028527
_cell_angle_alpha 90.000000
_cell_angle_beta 101.877064
_cell_angle_gamma 90.000000
_cell_volume 1434.935199
_symmetry_space_group_name_H-M "C 2/C"
_symmetry_group_IT_number 15
_symmetry_cell_setting 'monoclinic'
loop_
_space_group_symop_operation_xyz
x,y,z
-x,y,1/2-z
-x,-y,-z
x,-y,1/2+z
1/2+x,1/2+y,z
1/2-x,1/2+y,1/2-z
1/2-x,1/2-y,-z
1/2+x,1/2-y,1/2+z
loop_
_atom_site_type_symbol
_atom_site_label
_atom_site_fract_x
_atom_site_fract_y
_atom_site_fract_z
Si Si1 0.321972 0.941807 0.529390
Si Si2 0.355254 0.391944 0.392939
Si Si3 0.198784 0.203264 0.236733
Si Si4 0.639465 0.422964 0.336147
Si Si5 0.005179 0.718952 0.943454
O O1 0.240996 0.960524 0.427903
O O2 0.403270 0.805171 0.513206
O O3 0.215348 0.960871 0.593143
O O4 0.424243 0.069164 0.558292
O O5 0.244080 0.292430 0.331657
O O6 0.489999 0.413598 0.354299
O O7 0.396725 0.328279 0.495068
O O8 0.320306 0.269493 0.194685
O O9 0.176468 0.047737 0.271748
O O10 0.067485 0.246319 0.160004
#
# Coordination Sequence:
#
# PCOD9297172 Si02
#       5
#     8   8   8   8   8
#     4  10  23  49  79 115 154 210 262 322 396 473
#     4  12  25  48  81 114 161 202 263 331 389 470
#     4  11  27  49  80 121 158 207 267 324 395 475
#     4  11  26  50  82 116 161 209 265 327 397 468
#     4  10  24  47  83 111 158 211 263 319 396 468
#
# _framework density 27.875823
#
# number of rings (size 3 to 8) (size 9 to 14) (size 15 to 20)
#    0.000    1.200    2.000    1.800    0.000   12.000 
#    0.000    0.000    4.400    0.000    0.000    0.000 
#    0.000    0.000    0.000    0.000    0.000    0.000 
#
# Total GULP energy -111860.196693 kJ/mol
# GULP energy per Si atom -5593.009835 kJ/mol
# Density = 2.781238 g / cm^3
# Si number density = 27.875823 Si / 1000 Ang^3
#
#
#
# Elastic Constant Matrix: (Units=GPa)
#
#
# Indices 1 2 3 4 5 6 
#
# 1 132.1637 62.1330 58.8128 0.0000 -6.9928 0.0000
# 2 62.1330 176.3249 60.3662 0.0000 13.3837 0.0000
# 3 58.8128 60.3662 141.6606 0.0000 19.4413 0.0000
# 4 0.0000 0.0000 0.0000 48.2563 0.0000 8.9347
# 5 -6.9928 13.3837 19.4413 0.0000 64.9763 0.0000
# 6 0.0000 0.0000 0.0000 8.9347 0.0000 51.0669
#
#
#
# Elastic Compliance Matrix: (Units=1/GPa)
#
#
# Indices 1 2 3 4 5 6 
#
# 1 0.010600 -0.002704 -0.003631 0.000000 0.002784 0.000000
# 2 -0.002704 0.007348 -0.001837 0.000000 -0.001255 0.000000
# 3 -0.003631 -0.001837 0.009751 0.000000 -0.002930 0.000000
# 4 0.000000 0.000000 0.000000 0.021416 0.000000 -0.003747
# 5 0.002784 -0.001255 -0.002930 0.000000 0.016825 0.000000
# 6 0.000000 0.000000 0.000000 -0.003747 0.000000 0.020238
#
#
# Mechanical properties :
#
#
# Convention : Reuss Voigt Hill
#
# Bulk Modulus (GPa) = 88.04680 90.30814 89.17747
# Shear Modulus (GPa) = 47.03347 50.78238 48.90792
#
# Velocity S-wave (km/s) = 4.11207 4.27281 4.19321
# Velocity P-wave (km/s) = 7.36203 7.53720 7.45013
#
# Compressibility (1/GPa) = 0.01135760
#
# Stress axis : x y z
#
# Youngs Moduli (GPa) = 94.33533 136.09027 102.55013
#
# Poissons Ratio (x) = 0.36794 0.37236
# Poissons Ratio (y) = 0.25505 0.18834
# Poissons Ratio (z) = 0.34253 0.24994
#
# Static dielectric constant tensor:
#      x y z
#    x 2.291600 0.000000 -0.072130 
#    y 0.000000 2.121150 0.000000 
#    z -0.072130 0.000000 2.283110 
# 
# From -- ./inp_files/151274.got.cif
#   From: 2010.05.17/outbox.cif.g08.bks.cpg/sg15_76_cif.got.tgz:151274.got - 2010.06.03 18:47:42.
