data_PCOD9297529
_publ_section_title
;
Structure prediction by ZEFSAII (Michael W. Deem and Ramdas Pophale) SiO2 
 PCOD9297529
Probable space group: C 2/C
;
_chemical_formula_sum "Si O2"
_cell_formula_units_Z 32
_cell_length_a 18.050107
_cell_length_b 7.210379
_cell_length_c 11.361661
_cell_angle_alpha 90.000000
_cell_angle_beta 112.835171
_cell_angle_gamma 90.000000
_cell_volume 1362.805871
_symmetry_space_group_name_H-M "C 2/C"
_symmetry_group_IT_number 15
_symmetry_cell_setting 'monoclinic'
loop_
_space_group_symop_operation_xyz
x,y,z
-x,y,1/2-z
-x,-y,-z
x,-y,1/2+z
1/2+x,1/2+y,z
1/2-x,1/2+y,1/2-z
1/2-x,1/2-y,-z
1/2+x,1/2-y,1/2+z
loop_
_atom_site_type_symbol
_atom_site_label
_atom_site_fract_x
_atom_site_fract_y
_atom_site_fract_z
Si Si1 0.022076 0.900307 0.133210
Si Si2 0.930690 0.479334 0.627890
Si Si3 0.810306 0.236525 0.702322
Si Si4 0.217286 0.392754 0.575559
O O1 0.117302 0.881596 0.197606
O O2 0.000000 0.979514 0.250000
O O3 0.975942 0.701221 0.104441
O O4 0.000000 0.000000 0.000000
O O5 0.859187 0.398689 0.666237
O O6 0.879458 0.591083 0.501195
O O7 0.000000 0.573740 0.750000
O O8 0.762443 0.320650 0.781689
O O9 0.757966 0.095222 0.593662
O O10 0.250000 0.250000 0.500000
#
# Coordination Sequence:
#
# PCOD9297529 Si02
#       4
#     8   8   8   8
#     4   9  21  40  68  95 132 177 225 283 341 414
#     4   9  22  45  66  95 134 172 228 283 340 412
#     4  10  24  41  61  99 128 173 227 278 349 406
#     4  12  25  41  67  94 136 179 225 286 347 413
#
# _framework density 23.480969000000002
#
# number of rings (size 3 to 8) (size 9 to 14) (size 15 to 20)
#    0.000    2.500    0.000    2.250   10.500    4.000 
#    4.500    0.000    0.000    0.000    0.000    0.000 
#    0.000    0.000    0.000    0.000    0.000    0.000 
#
# Total GULP energy -89351.258790 kJ/mol
# GULP energy per Si atom -5584.453674 kJ/mol
# Density = 2.342753 g / cm^3
# Si number density = 23.480969 Si / 1000 Ang^3
#
#
#
# Elastic Constant Matrix: (Units=GPa)
#
#
# Indices 1 2 3 4 5 6 
#
# 1 87.0500 36.7189 35.3037 0.0000 -1.8922 0.0000
# 2 36.7189 76.4495 45.3683 0.0000 -3.5547 0.0000
# 3 35.3037 45.3683 123.4386 0.0000 22.1425 0.0000
# 4 0.0000 0.0000 0.0000 49.4517 0.0000 2.1778
# 5 -1.8922 -3.5547 22.1425 0.0000 45.0948 0.0000
# 6 0.0000 0.0000 0.0000 2.1778 0.0000 4.2549
#
#
#
# Elastic Compliance Matrix: (Units=1/GPa)
#
#
# Indices 1 2 3 4 5 6 
#
# 1 0.014883 -0.005643 -0.002429 0.000000 0.001372 0.000000
# 2 -0.005643 0.019855 -0.006494 0.000000 0.004517 0.000000
# 3 -0.002429 -0.006494 0.012383 0.000000 -0.006694 0.000000
# 4 0.000000 0.000000 0.000000 0.020688 0.000000 -0.010589
# 5 0.001372 0.004517 -0.006694 0.000000 0.025876 0.000000
# 6 0.000000 0.000000 0.000000 -0.010589 0.000000 0.240443
#
#
# Mechanical properties :
#
#
# Convention : Reuss Voigt Hill
#
# Bulk Modulus (GPa) = 55.58677 57.96887 56.77782
# Shear Modulus (GPa) = 13.54079 31.06345 22.30212
#
# Velocity S-wave (km/s) = 2.40400 3.64114 3.08522
# Velocity P-wave (km/s) = 5.60626 6.51294 6.07654
#
# Compressibility (1/GPa) = 0.01798989
#
# Stress axis : x y z
#
# Youngs Moduli (GPa) = 67.19176 50.36635 80.75482
#
# Poissons Ratio (x) = 0.28423 0.19612
# Poissons Ratio (y) = 0.37918 0.52438
# Poissons Ratio (z) = 0.16318 0.32705
#
# Static dielectric constant tensor:
#      x y z
#    x 1.749240 0.000000 0.036130 
#    y 0.000000 1.944960 0.000000 
#    z 0.036130 0.000000 1.957580 
# 
# From -- ./inp_files/93545.got.cif
#   From: 2010.05.17/outbox.cif.g08.bks.cpg/sg15_47_cif.got.tgz:93545.got - 2010.06.03 18:47:42.
