data_PCOD9297657
_publ_section_title
;
Structure prediction by ZEFSAII (Michael W. Deem and Ramdas Pophale) SiO2 
 PCOD9297657
Probable space group: C 2/C
;
_chemical_formula_sum "Si O2"
_cell_formula_units_Z 40
_cell_length_a 16.576633
_cell_length_b 11.789955
_cell_length_c 10.817678
_cell_angle_alpha 90.000000
_cell_angle_beta 80.211334
_cell_angle_gamma 90.000000
_cell_volume 2083.403501
_symmetry_space_group_name_H-M "C 2/C"
_symmetry_group_IT_number 15
_symmetry_cell_setting 'monoclinic'
loop_
_space_group_symop_operation_xyz
x,y,z
-x,y,1/2-z
-x,-y,-z
x,-y,1/2+z
1/2+x,1/2+y,z
1/2-x,1/2+y,1/2-z
1/2-x,1/2-y,-z
1/2+x,1/2-y,1/2+z
loop_
_atom_site_type_symbol
_atom_site_label
_atom_site_fract_x
_atom_site_fract_y
_atom_site_fract_z
Si Si1 0.305501 0.157435 0.915269
Si Si2 0.339627 0.210468 0.621876
Si Si3 0.955222 0.039038 0.386553
Si Si4 0.479399 0.809168 0.392800
Si Si5 0.287379 0.435304 0.502559
O O1 0.326118 0.199716 0.771945
O O2 0.393668 0.138980 0.959254
O O3 0.257968 0.039296 0.920391
O O4 0.250000 0.250000 0.000000
O O5 0.433696 0.181383 0.561667
O O6 0.321408 0.339162 0.585619
O O7 0.276153 0.128504 0.570051
O O8 0.864119 0.989848 0.411787
O O9 0.000000 0.000452 0.250000
O O10 0.958666 0.175347 0.387670
O O11 0.000000 0.000000 0.500000
O O12 0.500000 0.854047 0.250000
#
# Coordination Sequence:
#
# PCOD9297657 Si02
#       5
#     8   8   8   8   8
#     4  11  23  36  66  92 118 163 210 247 310 378
#     4  10  24  42  61  88 130 156 207 259 312 359
#     4  11  22  36  65  92 125 162 210 260 310 363
#     4   9  19  38  57  87 120 161 201 252 306 369
#     4  11  24  40  64  92 124 165 200 265 308 364
#
# _framework density 19.199354
#
# number of rings (size 3 to 8) (size 9 to 14) (size 15 to 20)
#    0.000    1.600    4.000    0.000    5.600    0.800 
#    0.000    0.000    0.000    0.000    0.000    0.000 
#    0.000    0.000    0.000    0.000    0.000    0.000 
#
# Total GULP energy -111593.997822 kJ/mol
# GULP energy per Si atom -5579.699891 kJ/mol
# Density = 1.915566 g / cm^3
# Si number density = 19.199354 Si / 1000 Ang^3
#
#
#
# Elastic Constant Matrix: (Units=GPa)
#
#
# Indices 1 2 3 4 5 6 
#
# 1 163.8567 28.4429 36.2476 0.0000 -25.9374 0.0000
# 2 28.4429 33.1878 7.0999 0.0000 -5.7754 0.0000
# 3 36.2476 7.0999 74.0498 0.0000 -10.7055 0.0000
# 4 0.0000 0.0000 0.0000 15.8147 0.0000 -8.0442
# 5 -25.9374 -5.7754 -10.7055 0.0000 33.6265 0.0000
# 6 0.0000 0.0000 0.0000 -8.0442 0.0000 33.4523
#
#
#
# Elastic Compliance Matrix: (Units=1/GPa)
#
#
# Indices 1 2 3 4 5 6 
#
# 1 0.008498 -0.005853 -0.002931 0.000000 0.004616 0.000000
# 2 -0.005853 0.035473 -0.000323 0.000000 0.001475 0.000000
# 3 -0.002931 -0.000323 0.015341 0.000000 0.002568 0.000000
# 4 0.000000 0.000000 0.000000 0.072044 0.000000 0.017324
# 5 0.004616 0.001475 0.002568 0.000000 0.034370 0.000000
# 6 0.000000 0.000000 0.000000 0.017324 0.000000 0.034059
#
#
# Mechanical properties :
#
#
# Convention : Reuss Voigt Hill
#
# Bulk Modulus (GPa) = 24.33149 46.07503 35.20326
# Shear Modulus (GPa) = 21.57964 29.86562 25.72263
#
# Velocity S-wave (km/s) = 3.35621 3.94833 3.66425
# Velocity P-wave (km/s) = 5.26493 6.69597 6.02310
#
# Compressibility (1/GPa) = 0.04109901
#
# Stress axis : x y z
#
# Youngs Moduli (GPa) = 117.67476 28.19025 65.18280
#
# Poissons Ratio (x) = 0.16499 0.19107
# Poissons Ratio (y) = 0.68870 0.02105
# Poissons Ratio (z) = 0.34493 0.00911
#
# Static dielectric constant tensor:
#      x y z
#    x 1.713510 0.000000 -0.000870 
#    y 0.000000 1.652730 0.000000 
#    z -0.000870 0.000000 1.639110 
# 
# From -- ./inp_files/94484.got.cif
#   From: 2010.05.17/outbox.cif.g08.bks.cpg/sg15_48_cif.got.tgz:94484.got - 2010.06.03 18:47:42.
