data_PCOD9297788
_publ_section_title
;
Structure prediction by ZEFSAII (Michael W. Deem and Ramdas Pophale) SiO2 
 PCOD9297788
Probable space group: C 2/C
;
_chemical_formula_sum "Si O2"
_cell_formula_units_Z 48
_cell_length_a 13.953724
_cell_length_b 26.163218
_cell_length_c 14.715428
_cell_angle_alpha 90.000000
_cell_angle_beta 158.251162
_cell_angle_gamma 90.000000
_cell_volume 1990.616701
_symmetry_space_group_name_H-M "C 2/C"
_symmetry_group_IT_number 15
_symmetry_cell_setting 'monoclinic'
loop_
_space_group_symop_operation_xyz
x,y,z
-x,y,1/2-z
-x,-y,-z
x,-y,1/2+z
1/2+x,1/2+y,z
1/2-x,1/2+y,1/2-z
1/2-x,1/2-y,-z
1/2+x,1/2-y,1/2+z
loop_
_atom_site_type_symbol
_atom_site_label
_atom_site_fract_x
_atom_site_fract_y
_atom_site_fract_z
Si Si1 0.925667 0.640309 0.503497
Si Si2 0.406120 0.498950 0.574087
Si Si3 0.000000 0.783511 0.250000
Si Si4 0.302442 0.434688 0.823715
Si Si5 0.000000 0.584742 0.750000
Si Si6 0.932800 0.169891 0.883228
Si Si7 0.426862 0.723254 0.324934
O O1 0.918713 0.596797 0.421202
O O2 0.022650 0.618195 0.681817
O O3 0.646308 0.665953 0.274001
O O4 0.138226 0.679921 0.655682
O O5 0.500000 0.525652 0.750000
O O6 0.600120 0.473225 0.670374
O O7 0.240276 0.534675 0.360439
O O8 0.243466 0.452206 0.470111
O O9 0.250000 0.750000 0.500000
O O10 0.051705 0.818573 0.208134
O O11 0.493516 0.388404 0.024078
O O12 0.109144 0.208647 0.098563
O O13 0.717242 0.744764 0.581505
#
# Coordination Sequence:
#
# PCOD9297788 Si02
#       7
#     8   8   4   8   4   8   8
#     4  11  24  43  74 103 146 183 244 303 368 433
#     4  11  23  43  68 100 146 189 248 298 363 444
#     4  12  30  46  69 106 142 190 245 290 366 446
#     4  10  24  42  67 104 142 192 240 304 365 426
#     4  12  24  44  69 106 134 196 239 302 368 438
#     4  11  24  45  71 102 145 184 238 305 358 437
#     4  11  22  42  72 103 137 187 231 287 367 428
#
# _framework density 24.113129000000001
#
# number of rings (size 3 to 8) (size 9 to 14) (size 15 to 20)
#    0.000    1.000    5.000    1.000    5.833    2.000 
#    0.000    0.833    0.000    0.000    0.000    0.000 
#    0.000    0.000    0.000    0.000    0.000    0.000 
#
# Total GULP energy -133844.715677 kJ/mol
# GULP energy per Si atom -5576.863153 kJ/mol
# Density = 2.405825 g / cm^3
# Si number density = 24.113129 Si / 1000 Ang^3
#
#
#
# Elastic Constant Matrix: (Units=GPa)
#
#
# Indices 1 2 3 4 5 6 
#
# 1 133.5493 22.4984 43.8898 0.0021 -35.8558 0.0010
# 2 22.4984 64.1636 22.5366 -0.0002 -12.6713 -0.0001
# 3 43.8898 22.5366 124.5924 0.0030 -16.2447 0.0009
# 4 0.0021 -0.0002 0.0030 56.5271 0.0007 -5.5228
# 5 -35.8558 -12.6713 -16.2447 0.0007 29.8461 0.0018
# 6 0.0010 -0.0001 0.0009 -5.5228 0.0018 23.1257
#
#
#
# Elastic Compliance Matrix: (Units=1/GPa)
#
#
# Indices 1 2 3 4 5 6 
#
# 1 0.011756 -0.000826 -0.002364 -0.000001 0.012486 -0.000002
# 2 -0.000826 0.017704 -0.002218 0.000000 0.005317 0.000000
# 3 -0.002364 -0.002218 0.009437 0.000000 0.001355 0.000000
# 4 -0.000001 0.000000 0.000000 0.018113 -0.000002 0.004326
# 5 0.012486 0.005317 0.001355 -0.000002 0.051500 -0.000005
# 6 -0.000002 0.000000 0.000000 0.004326 -0.000005 0.044275
#
#
# Mechanical properties :
#
#
# Convention : Reuss Voigt Hill
#
# Bulk Modulus (GPa) = 35.61192 55.57276 45.59234
# Shear Modulus (GPa) = 28.90819 37.45849 33.18334
#
# Velocity S-wave (km/s) = 3.46621 3.94566 3.71368
# Velocity P-wave (km/s) = 5.55159 6.62226 6.11042
#
# Compressibility (1/GPa) = 0.02808049
#
# Stress axis : x y z
#
# Youngs Moduli (GPa) = 85.06134 56.48487 105.96870
#
# Poissons Ratio (x) = 0.04666 0.25050
# Poissons Ratio (y) = 0.07027 0.23505
# Poissons Ratio (z) = 0.20108 0.12529
#
# Static dielectric constant tensor:
#      x y z
#    x 2.071430 0.000000 -0.054400 
#    y 0.000000 2.015610 0.000000 
#    z -0.054400 0.000000 2.062850 
# 
# From -- ./inp_files/157744.got.cif
#   From: 2010.05.17/outbox.cif.g08.bks.cpg/sg15_79_cif.got.tgz:157744.got - 2010.06.03 18:47:42.
