data_PCOD9297931
_publ_section_title
;
Structure prediction by ZEFSAII (Michael W. Deem and Ramdas Pophale) SiO2 
 PCOD9297931
Probable space group: C 2/C
;
_chemical_formula_sum "Si O2"
_cell_formula_units_Z 52
_cell_length_a 12.259099
_cell_length_b 16.432339
_cell_length_c 14.290122
_cell_angle_alpha 90.000000
_cell_angle_beta 115.446079
_cell_angle_gamma 90.000000
_cell_volume 2599.422261
_symmetry_space_group_name_H-M "C 2/C"
_symmetry_group_IT_number 15
_symmetry_cell_setting 'monoclinic'
loop_
_space_group_symop_operation_xyz
x,y,z
-x,y,1/2-z
-x,-y,-z
x,-y,1/2+z
1/2+x,1/2+y,z
1/2-x,1/2+y,1/2-z
1/2-x,1/2-y,-z
1/2+x,1/2-y,1/2+z
loop_
_atom_site_type_symbol
_atom_site_label
_atom_site_fract_x
_atom_site_fract_y
_atom_site_fract_z
Si Si1 0.954915 0.300022 0.570516
Si Si2 0.000000 0.576046 0.250000
Si Si3 0.871019 0.964209 0.477385
Si Si4 0.112820 0.222782 0.464510
Si Si5 0.000000 0.832300 0.250000
Si Si6 0.000000 0.694098 0.750000
Si Si7 0.258344 0.589994 0.587381
Si Si8 0.818745 0.444886 0.246301
O O1 0.824034 0.333439 0.481823
O O2 0.991364 0.373040 0.652213
O O3 0.045220 0.273630 0.521341
O O4 0.975205 0.224820 0.650188
O O5 0.887058 0.518745 0.222731
O O6 0.887589 0.874241 0.525324
O O7 0.805833 0.947314 0.354793
O O8 0.800775 0.027542 0.521220
O O9 0.000000 0.000000 0.500000
O O10 0.250000 0.250000 0.500000
O O11 0.041406 0.249127 0.347576
O O12 0.877048 0.883866 0.191927
O O13 0.891706 0.636199 0.745116
O O14 0.181098 0.547748 0.641569
#
# Coordination Sequence:
#
# PCOD9297931 Si02
#       8
#     8   4   8   8   4   4   8   8
#     4  11  24  46  72 103 137 191 239 294 360 431
#     4  10  24  42  72 106 134 182 246 288 346 446
#     4  12  27  47  70 105 149 186 237 303 368 430
#     4  12  26  45  72 105 143 183 237 301 362 427
#     4  11  26  44  70 103 142 182 248 293 352 434
#     4  11  24  44  70 103 140 190 238 293 358 432
#     4  12  24  45  73 102 144 196 230 299 372 427
#     4  11  23  43  71 103 142 184 242 294 353 436
#
# _framework density 20.004446999999999
#
# number of rings (size 3 to 8) (size 9 to 14) (size 15 to 20)
#    0.000    0.615    4.615    3.231    2.154    2.462 
#    0.000    0.000    0.000    0.000    0.000    0.000 
#    0.000    0.000    0.000    0.000    0.000    0.000 
#
# Total GULP energy -144852.884897 kJ/mol
# GULP energy per Si atom -5571.264804 kJ/mol
# Density = 1.995892 g / cm^3
# Si number density = 20.004447 Si / 1000 Ang^3
#
#
#
# Elastic Constant Matrix: (Units=GPa)
#
#
# Indices 1 2 3 4 5 6 
#
# 1 110.2312 61.8303 68.0268 0.0000 -7.4399 0.0000
# 2 61.8303 115.8475 50.1509 0.0000 -5.5941 0.0000
# 3 68.0268 50.1509 152.5507 0.0000 -7.5493 0.0000
# 4 0.0000 0.0000 0.0000 210.1554 0.0000 32.9960
# 5 -7.4399 -5.5941 -7.5493 0.0000 49.9418 0.0000
# 6 0.0000 0.0000 0.0000 32.9960 0.0000 17.8070
#
#
#
# Elastic Compliance Matrix: (Units=1/GPa)
#
#
# Indices 1 2 3 4 5 6 
#
# 1 0.015611 -0.006173 -0.004888 0.000000 0.000895 0.000000
# 2 -0.006173 0.012525 -0.001351 0.000000 0.000279 0.000000
# 3 -0.004888 -0.001351 0.009204 0.000000 0.000512 0.000000
# 4 0.000000 0.000000 0.000000 0.006711 0.000000 -0.012435
# 5 0.000895 0.000279 0.000512 0.000000 0.020265 0.000000
# 6 0.000000 0.000000 0.000000 -0.012435 0.000000 0.079199
#
#
# Mechanical properties :
#
#
# Convention : Reuss Voigt Hill
#
# Bulk Modulus (GPa) = 79.89196 82.07169 80.98183
# Shear Modulus (GPa) = 28.98354 68.82228 48.90291
#
# Velocity S-wave (km/s) = 3.81051 5.87181 4.94966
# Velocity P-wave (km/s) = 7.70609 9.33203 8.55776
#
# Compressibility (1/GPa) = 0.01251690
#
# Stress axis : x y z
#
# Youngs Moduli (GPa) = 64.05706 79.84056 108.64436
#
# Poissons Ratio (x) = 0.49284 0.53104
# Poissons Ratio (y) = 0.39541 0.14679
# Poissons Ratio (z) = 0.31310 0.10788
#
# Static dielectric constant tensor:
#      x y z
#    x 1.712600 0.000000 -0.031830 
#    y 0.000000 1.706680 0.000000 
#    z -0.031830 0.000000 1.672620 
# 
# From -- ./inp_files/144362.got.cif
#   From: 2010.05.17/outbox.cif.g08.bks.cpg/sg15_73_cif.got.tgz:144362.got - 2010.06.03 18:47:42.
