data_PCOD9297391
_publ_section_title
;
Structure prediction by ZEFSAII (Michael W. Deem and Ramdas Pophale) SiO2 
 PCOD9297391
Probable space group: C 2/C
;
_chemical_formula_sum "Si O2"
_cell_formula_units_Z 52
_cell_length_a 22.624030
_cell_length_b 10.698292
_cell_length_c 13.462220
_cell_angle_alpha 90.000000
_cell_angle_beta 53.467311
_cell_angle_gamma 90.000000
_cell_volume 2618.161099
_symmetry_space_group_name_H-M "C 2/C"
_symmetry_group_IT_number 15
_symmetry_cell_setting 'monoclinic'
loop_
_space_group_symop_operation_xyz
x,y,z
-x,y,1/2-z
-x,-y,-z
x,-y,1/2+z
1/2+x,1/2+y,z
1/2-x,1/2+y,1/2-z
1/2-x,1/2-y,-z
1/2+x,1/2-y,1/2+z
loop_
_atom_site_type_symbol
_atom_site_label
_atom_site_fract_x
_atom_site_fract_y
_atom_site_fract_z
Si Si1 0.000000 0.731044 0.750000
Si Si2 0.010980 0.634715 0.942133
Si Si3 0.800315 0.052734 0.567920
Si Si4 0.094869 0.839791 0.364068
Si Si5 0.737189 0.219384 0.128200
Si Si6 0.384142 0.429096 0.782142
Si Si7 0.177642 0.716750 0.772672
O O1 0.977087 0.646331 0.865553
O O2 0.938639 0.824335 0.769691
O O3 0.098341 0.653685 0.847816
O O4 0.972360 0.750232 0.038698
O O5 0.000000 0.500000 0.000000
O O6 0.864171 0.098513 0.580707
O O7 0.835054 0.033995 0.424829
O O8 0.737264 0.157482 0.639165
O O9 0.758305 0.923303 0.630655
O O10 0.155838 0.756595 0.245795
O O11 0.075851 0.954533 0.309841
O O12 0.790546 0.296162 0.148525
O O13 0.750000 0.250000 0.000000
O O14 0.335438 0.359285 0.748119
#
# Coordination Sequence:
#
# PCOD9297391 Si02
#       7
#     4   8   8   8   8   8   8
#     4  10  24  42  68  96 130 172 218 272 332 404
#     4  11  24  48  64  94 134 177 223 272 336 401
#     4  11  21  41  64  96 130 169 219 272 332 393
#     4  11  23  40  70  95 133 177 217 278 334 393
#     4  11  22  40  61  97 131 161 215 275 328 389
#     4  11  21  41  65  97 127 172 223 269 335 401
#     4  10  24  40  63  91 126 173 215 269 329 395
#
# _framework density 19.861267000000002
#
# number of rings (size 3 to 8) (size 9 to 14) (size 15 to 20)
#    0.000    1.231    4.615    1.385    0.000    3.692 
#    8.308    0.000    0.000    0.000    0.000    0.000 
#    0.000    0.000    0.000    0.000    0.000    0.000 
#
# Total GULP energy -145077.046566 kJ/mol
# GULP energy per Si atom -5579.886406 kJ/mol
# Density = 1.981606 g / cm^3
# Si number density = 19.861267 Si / 1000 Ang^3
#
#
#
# Elastic Constant Matrix: (Units=GPa)
#
#
# Indices 1 2 3 4 5 6 
#
# 1 62.9362 11.2783 21.6419 0.0000 9.6506 0.0000
# 2 11.2783 102.5839 24.5180 0.0000 12.6841 0.0000
# 3 21.6419 24.5180 87.4193 0.0000 26.7680 0.0000
# 4 0.0000 0.0000 0.0000 35.1720 0.0000 2.8896
# 5 9.6506 12.6841 26.7680 0.0000 25.0683 0.0000
# 6 0.0000 0.0000 0.0000 2.8896 0.0000 30.6692
#
#
#
# Elastic Compliance Matrix: (Units=1/GPa)
#
#
# Indices 1 2 3 4 5 6 
#
# 1 0.017593 -0.000800 -0.003241 0.000000 -0.002907 0.000000
# 2 -0.000800 0.010661 -0.001834 0.000000 -0.003128 0.000000
# 3 -0.003241 -0.001834 0.017963 0.000000 -0.017005 0.000000
# 4 0.000000 0.000000 0.000000 0.028654 0.000000 -0.002700
# 5 -0.002907 -0.003128 -0.017005 0.000000 0.060751 0.000000
# 6 0.000000 0.000000 0.000000 -0.002700 0.000000 0.032860
#
#
# Mechanical properties :
#
#
# Convention : Reuss Voigt Hill
#
# Bulk Modulus (GPa) = 29.01360 40.86841 34.94101
# Shear Modulus (GPa) = 26.07959 31.21530 28.64745
#
# Velocity S-wave (km/s) = 3.62759 3.96873 3.80198
# Velocity P-wave (km/s) = 5.67324 6.45156 6.07488
#
# Compressibility (1/GPa) = 0.03446659
#
# Stress axis : x y z
#
# Youngs Moduli (GPa) = 56.84180 93.79791 55.67032
#
# Poissons Ratio (x) = 0.07505 0.18041
# Poissons Ratio (y) = 0.04548 0.10212
# Poissons Ratio (z) = 0.18420 0.17205
#
# Static dielectric constant tensor:
#      x y z
#    x 1.733230 0.000000 0.018640 
#    y 0.000000 1.728110 0.000000 
#    z 0.018640 0.000000 1.711040 
# 
# From -- ./inp_files/111732.got.cif
#   From: 2010.05.17/outbox.cif.g08.bks.cpg/sg15_56_cif.got.tgz:111732.got - 2010.06.03 18:47:42.
