data_PCOD9297418
_publ_section_title
;
Structure prediction by ZEFSAII (Michael W. Deem and Ramdas Pophale) SiO2 
 PCOD9297418
Probable space group: C 2/C
;
_chemical_formula_sum "Si O2"
_cell_formula_units_Z 60
_cell_length_a 11.970522
_cell_length_b 21.214972
_cell_length_c 13.868757
_cell_angle_alpha 90.000000
_cell_angle_beta 55.370322
_cell_angle_gamma 90.000000
_cell_volume 2898.074923
_symmetry_space_group_name_H-M "C 2/C"
_symmetry_group_IT_number 15
_symmetry_cell_setting 'monoclinic'
loop_
_space_group_symop_operation_xyz
x,y,z
-x,y,1/2-z
-x,-y,-z
x,-y,1/2+z
1/2+x,1/2+y,z
1/2-x,1/2+y,1/2-z
1/2-x,1/2-y,-z
1/2+x,1/2-y,1/2+z
loop_
_atom_site_type_symbol
_atom_site_label
_atom_site_fract_x
_atom_site_fract_y
_atom_site_fract_z
Si Si1 0.373346 0.573627 0.245603
Si Si2 0.216337 0.212653 0.922238
Si Si3 0.638812 0.569168 0.737512
Si Si4 0.290818 0.281405 0.580417
Si Si5 0.006641 0.112294 0.994826
Si Si6 0.500000 0.849172 0.250000
Si Si7 0.364511 0.826580 0.668861
Si Si8 0.906915 0.348935 0.086182
O O1 0.500000 0.592230 0.250000
O O2 0.326860 0.503921 0.298950
O O3 0.432044 0.568973 0.108311
O O4 0.257233 0.626172 0.301313
O O5 0.358957 0.186927 0.817264
O O6 0.152016 0.259942 0.877130
O O7 0.250000 0.250000 0.000000
O O8 0.114389 0.156690 0.995686
O O9 0.500000 0.585338 0.750000
O O10 0.766276 0.612876 0.650874
O O11 0.593842 0.579393 0.869867
O O12 0.250000 0.250000 0.500000
O O13 0.393506 0.339053 0.511107
O O14 0.165835 0.309391 0.704747
O O15 0.365272 0.225733 0.605454
O O16 0.489122 0.873258 0.142108
O O17 0.501061 0.855408 0.555584
#
# Coordination Sequence:
#
# PCOD9297418 Si02
#       8
#     8   8   8   8   8   4   8   8
#     4  10  24  40  65  92 126 175 221 269 319 383
#     4  12  21  34  60  95 134 159 197 261 333 394
#     4  11  24  45  65  89 126 176 227 268 317 390
#     4  11  23  40  62  94 130 172 213 264 330 396
#     4  11  21  40  64  93 126 163 217 267 320 392
#     4  12  22  36  60  98 136 166 202 262 332 408
#     4  11  23  39  59  97 133 164 218 265 331 397
#     4  12  24  40  64  97 130 174 209 270 335 386
#
# _framework density 20.703396999999999
#
# number of rings (size 3 to 8) (size 9 to 14) (size 15 to 20)
#    0.000    0.800    5.333    2.000    2.800    1.067 
#    0.000    0.000    0.000    3.200    0.000    0.000 
#    0.000    0.000    0.000    0.000    0.000    0.000 
#
# Total GULP energy -167322.513315 kJ/mol
# GULP energy per Si atom -5577.417110 kJ/mol
# Density = 2.065628 g / cm^3
# Si number density = 20.703397 Si / 1000 Ang^3
#
#
#
# Elastic Constant Matrix: (Units=GPa)
#
#
# Indices 1 2 3 4 5 6 
#
# 1 76.8240 25.0053 29.2886 0.0000 2.5275 0.0000
# 2 25.0053 65.2010 29.8495 0.0000 -15.3889 0.0000
# 3 29.2886 29.8495 135.4217 0.0000 -14.8297 0.0000
# 4 0.0000 0.0000 0.0000 52.7825 0.0000 12.9671
# 5 2.5275 -15.3889 -14.8297 0.0000 39.1481 0.0000
# 6 0.0000 0.0000 0.0000 12.9671 0.0000 28.5992
#
#
#
# Elastic Compliance Matrix: (Units=1/GPa)
#
#
# Indices 1 2 3 4 5 6 
#
# 1 0.016128 -0.006015 -0.002645 0.000000 -0.004408 0.000000
# 2 -0.006015 0.020522 -0.002396 0.000000 0.007548 0.000000
# 3 -0.002645 -0.002396 0.008764 0.000000 0.002549 0.000000
# 4 0.000000 0.000000 0.000000 0.021321 0.000000 -0.009667
# 5 -0.004408 0.007548 0.002549 0.000000 0.029761 0.000000
# 6 0.000000 0.000000 0.000000 -0.009667 0.000000 0.039349
#
#
# Mechanical properties :
#
#
# Convention : Reuss Voigt Hill
#
# Bulk Modulus (GPa) = 42.91419 49.52593 46.22006
# Shear Modulus (GPa) = 30.17076 36.99283 33.58179
#
# Velocity S-wave (km/s) = 3.82158 4.23164 4.03183
# Velocity P-wave (km/s) = 6.34395 6.91732 6.63683
#
# Compressibility (1/GPa) = 0.02330232
#
# Stress axis : x y z
#
# Youngs Moduli (GPa) = 62.00455 48.72752 114.10774
#
# Poissons Ratio (x) = 0.29308 0.30182
# Poissons Ratio (y) = 0.37293 0.27342
# Poissons Ratio (z) = 0.16400 0.11676
#
# Static dielectric constant tensor:
#      x y z
#    x 1.755900 0.000000 0.034490 
#    y 0.000000 1.709600 0.000000 
#    z 0.034490 0.000000 1.774690 
# 
# From -- ./inp_files/148093.got.cif
#   From: 2010.05.17/outbox.cif.g08.bks.cpg/sg15_75_cif.got.tgz:148093.got - 2010.06.03 18:47:42.
