data_PCOD9297532
_publ_section_title
;
Structure prediction by ZEFSAII (Michael W. Deem and Ramdas Pophale) SiO2 
 PCOD9297532
Probable space group: C 2/C
;
_chemical_formula_sum "Si O2"
_cell_formula_units_Z 56
_cell_length_a 8.374842
_cell_length_b 20.089349
_cell_length_c 18.398202
_cell_angle_alpha 90.000000
_cell_angle_beta 102.778907
_cell_angle_gamma 90.000000
_cell_volume 3018.737152
_symmetry_space_group_name_H-M "C 2/C"
_symmetry_group_IT_number 15
_symmetry_cell_setting 'monoclinic'
loop_
_space_group_symop_operation_xyz
x,y,z
-x,y,1/2-z
-x,-y,-z
x,-y,1/2+z
1/2+x,1/2+y,z
1/2-x,1/2+y,1/2-z
1/2-x,1/2-y,-z
1/2+x,1/2-y,1/2+z
loop_
_atom_site_type_symbol
_atom_site_label
_atom_site_fract_x
_atom_site_fract_y
_atom_site_fract_z
Si Si1 0.202681 0.219659 0.198536
Si Si2 0.380001 0.679357 0.933594
Si Si3 0.698932 0.916027 0.514758
Si Si4 0.810075 0.568420 0.957400
Si Si5 0.190376 0.187263 0.041294
Si Si6 0.812625 0.194043 0.141457
Si Si7 0.120608 0.855805 0.323835
O O1 0.262689 0.187798 0.128956
O O2 0.252416 0.190383 0.281384
O O3 0.272543 0.294812 0.198167
O O4 0.006300 0.209449 0.171244
O O5 0.267604 0.741247 0.903149
O O6 0.500300 0.667660 0.877296
O O7 0.278741 0.615660 0.950401
O O8 0.495590 0.695605 0.014122
O O9 0.503233 0.918176 0.484461
O O10 0.757240 0.869605 0.588146
O O11 0.741329 0.992915 0.532807
O O12 0.731396 0.618106 0.007850
O O13 0.743175 0.592137 0.872778
O O14 0.250000 0.250000 0.000000
O O15 0.000000 0.882495 0.250000
#
# Coordination Sequence:
#
# PCOD9297532 Si02
#       7
#     8   8   8   8   8   8   8
#     4  11  22  38  59  93 123 151 201 247 319 354
#     4  11  21  35  64  87 117 158 205 252 301 355
#     4  11  23  42  60  90 120 164 208 250 305 364
#     4  10  24  41  62  85 125 162 206 253 301 364
#     4  11  20  36  61  90 116 156 203 257 297 359
#     4  11  23  37  61  92 123 159 194 260 302 368
#     4  11  22  40  60  93 122 160 197 256 309 364
#
# _framework density 18.550802999999998
#
# number of rings (size 3 to 8) (size 9 to 14) (size 15 to 20)
#    0.000    1.143    5.714    2.143    0.000    2.286 
#    2.571    0.000    0.000    3.429    0.000    0.000 
#    0.000    0.000    0.000    0.000    0.000    0.000 
#
# Total GULP energy -156061.888261 kJ/mol
# GULP energy per Si atom -5573.638866 kJ/mol
# Density = 1.850858 g / cm^3
# Si number density = 18.550803 Si / 1000 Ang^3
#
#
#
# Elastic Constant Matrix: (Units=GPa)
#
#
# Indices 1 2 3 4 5 6 
#
# 1 57.6513 50.9804 28.1461 0.0000 5.4088 0.0000
# 2 50.9804 136.6179 62.3916 0.0000 7.7751 0.0000
# 3 28.1461 62.3916 129.8739 0.0000 4.0131 0.0000
# 4 0.0000 0.0000 0.0000 16.2767 0.0000 3.7914
# 5 5.4088 7.7751 4.0131 0.0000 30.9018 0.0000
# 6 0.0000 0.0000 0.0000 3.7914 0.0000 25.1574
#
#
#
# Elastic Compliance Matrix: (Units=1/GPa)
#
#
# Indices 1 2 3 4 5 6 
#
# 1 0.026184 -0.009080 -0.001247 0.000000 -0.002137 0.000000
# 2 -0.009080 0.012624 -0.004064 0.000000 -0.001059 0.000000
# 3 -0.001247 -0.004064 0.009924 0.000000 -0.000048 0.000000
# 4 0.000000 0.000000 0.000000 0.063673 0.000000 -0.009596
# 5 -0.002137 -0.001059 -0.000048 0.000000 0.033007 0.000000
# 6 0.000000 0.000000 0.000000 -0.009596 0.000000 0.041196
#
#
# Mechanical properties :
#
#
# Convention : Reuss Voigt Hill
#
# Bulk Modulus (GPa) = 50.12331 67.46436 58.79384
# Shear Modulus (GPa) = 22.51852 26.64220 24.58036
#
# Velocity S-wave (km/s) = 3.48786 3.79380 3.64404
# Velocity P-wave (km/s) = 6.58015 7.45901 7.03332
#
# Compressibility (1/GPa) = 0.01995080
#
# Stress axis : x y z
#
# Youngs Moduli (GPa) = 38.19129 79.21217 100.76727
#
# Poissons Ratio (x) = 0.71924 0.12561
# Poissons Ratio (y) = 0.34678 0.40954
# Poissons Ratio (z) = 0.04761 0.32194
#
# Static dielectric constant tensor:
#      x y z
#    x 1.717030 0.000000 -0.027410 
#    y 0.000000 1.609020 0.000000 
#    z -0.027410 0.000000 1.692300 
# 
# From -- ./inp_files/191689.got.cif
#   From: 2010.05.17/outbox.cif.g08.bks.cpg/sg15_96_cif.got.tgz:191689.got - 2010.06.03 18:47:42.
