data_PCOD9297857
_publ_section_title
;
Structure prediction by ZEFSAII (Michael W. Deem and Ramdas Pophale) SiO2 
 PCOD9297857
Probable space group: C 2/C
;
_chemical_formula_sum "Si O2"
_cell_formula_units_Z 40
_cell_length_a 5.402326
_cell_length_b 23.165591
_cell_length_c 16.337715
_cell_angle_alpha 90.000000
_cell_angle_beta 107.403436
_cell_angle_gamma 90.000000
_cell_volume 1951.035144
_symmetry_space_group_name_H-M "C 2/C"
_symmetry_group_IT_number 15
_symmetry_cell_setting 'monoclinic'
loop_
_space_group_symop_operation_xyz
x,y,z
-x,y,1/2-z
-x,-y,-z
x,-y,1/2+z
1/2+x,1/2+y,z
1/2-x,1/2+y,1/2-z
1/2-x,1/2-y,-z
1/2+x,1/2-y,1/2+z
loop_
_atom_site_type_symbol
_atom_site_label
_atom_site_fract_x
_atom_site_fract_y
_atom_site_fract_z
Si Si1 0.998260 0.712693 0.995645
Si Si2 0.464463 0.121180 0.649420
Si Si3 0.511029 0.431191 0.016138
Si Si4 0.201909 0.505144 0.697381
Si Si5 0.573601 0.103204 0.078290
O O1 0.969723 0.671560 0.910594
O O2 0.750000 0.750000 0.000000
O O3 0.250000 0.750000 0.000000
O O4 0.067467 0.672036 0.080579
O O5 0.500000 0.136454 0.750000
O O6 0.170021 0.096505 0.607590
O O7 0.635613 0.064179 0.642955
O O8 0.500000 0.500000 0.000000
O O9 0.696722 0.409168 0.962404
O O10 0.219644 0.410475 0.977729
O O11 0.500000 0.505517 0.750000
O O12 0.135077 0.443411 0.652835
O O13 0.000000 0.510714 0.750000
#
# Coordination Sequence:
#
# PCOD9297857 Si02
#       5
#     8   8   8   8   8
#     4  11  25  46  67  93 129 186 247 282 322 402
#     4  10  24  42  69 103 141 172 226 292 355 400
#     4  11  21  36  65  99 135 169 208 259 343 419
#     4  11  24  39  64 103 142 170 212 280 361 417
#     4  11  23  41  66  93 134 175 220 276 334 408
#
# _framework density 20.501937000000002
#
# number of rings (size 3 to 8) (size 9 to 14) (size 15 to 20)
#    0.000    1.200    2.000    4.200    5.600    3.200 
#    0.000    3.000    0.000    0.000    0.000    0.000 
#    0.000    0.000    0.000    0.000    0.000    0.000 
#
# Total GULP energy -111379.523946 kJ/mol
# GULP energy per Si atom -5568.976197 kJ/mol
# Density = 2.045527 g / cm^3
# Si number density = 20.501937 Si / 1000 Ang^3
#
#
#
# Elastic Constant Matrix: (Units=GPa)
#
#
# Indices 1 2 3 4 5 6 
#
# 1 166.4339 65.5914 43.5145 0.0000 14.3747 0.0000
# 2 65.5914 164.0918 34.5375 0.0000 7.3221 0.0000
# 3 43.5145 34.5375 51.7500 0.0000 13.3203 0.0000
# 4 0.0000 0.0000 0.0000 42.1152 0.0000 -6.9106
# 5 14.3747 7.3221 13.3203 0.0000 31.2987 0.0000
# 6 0.0000 0.0000 0.0000 -6.9106 0.0000 50.3720
#
#
#
# Elastic Compliance Matrix: (Units=1/GPa)
#
#
# Indices 1 2 3 4 5 6 
#
# 1 0.008339 -0.002173 -0.005286 0.000000 -0.001072 0.000000
# 2 -0.002173 0.007661 -0.003460 0.000000 0.000678 0.000000
# 3 -0.005286 -0.003460 0.028350 0.000000 -0.008828 0.000000
# 4 0.000000 0.000000 0.000000 0.024291 0.000000 0.003333
# 5 -0.001072 0.000678 -0.008828 0.000000 0.036041 0.000000
# 6 0.000000 0.000000 0.000000 0.003333 0.000000 0.020309
#
#
# Mechanical properties :
#
#
# Convention : Reuss Voigt Hill
#
# Bulk Modulus (GPa) = 44.42110 74.39584 59.40847
# Shear Modulus (GPa) = 32.39715 40.66600 36.53157
#
# Velocity S-wave (km/s) = 3.97948 4.45850 4.22579
# Velocity P-wave (km/s) = 6.54438 7.92908 7.26977
#
# Compressibility (1/GPa) = 0.02251182
#
# Stress axis : x y z
#
# Youngs Moduli (GPa) = 119.91223 130.53518 35.27319
#
# Poissons Ratio (x) = 0.28366 0.18646
# Poissons Ratio (y) = 0.26057 0.12205
# Poissons Ratio (z) = 0.63387 0.45167
#
# Static dielectric constant tensor:
#      x y z
#    x 1.702520 0.000000 -0.014950 
#    y 0.000000 1.947740 0.000000 
#    z -0.014950 0.000000 1.876440 
# 
# From -- ./inp_files/184746.got.cif
#   From: 2010.05.17/outbox.cif.g08.bks.cpg/sg15_93_cif.got.tgz:184746.got - 2010.06.03 18:47:42.
