data_PCOD9297739
_publ_section_title
;
Structure prediction by ZEFSAII (Michael W. Deem and Ramdas Pophale) SiO2 
 PCOD9297739
Probable space group: C 2/C
;
_chemical_formula_sum "Si O2"
_cell_formula_units_Z 44
_cell_length_a 25.579406
_cell_length_b 9.571297
_cell_length_c 8.613088
_cell_angle_alpha 90.000000
_cell_angle_beta 76.103397
_cell_angle_gamma 90.000000
_cell_volume 2047.005017
_symmetry_space_group_name_H-M "C 2/C"
_symmetry_group_IT_number 15
_symmetry_cell_setting 'monoclinic'
loop_
_space_group_symop_operation_xyz
x,y,z
-x,y,1/2-z
-x,-y,-z
x,-y,1/2+z
1/2+x,1/2+y,z
1/2-x,1/2+y,1/2-z
1/2-x,1/2-y,-z
1/2+x,1/2-y,1/2+z
loop_
_atom_site_type_symbol
_atom_site_label
_atom_site_fract_x
_atom_site_fract_y
_atom_site_fract_z
Si Si1 0.000000 0.731037 0.750000
Si Si2 0.701235 0.156758 0.970494
Si Si3 0.000000 0.500000 0.500000
Si Si4 0.889747 0.148076 0.834175
Si Si5 0.000000 0.728032 0.250000
Si Si6 0.891514 0.849517 0.960949
Si Si7 0.798934 0.656349 0.901624
O O1 0.021076 0.624131 0.866352
O O2 0.048572 0.821041 0.645693
O O3 0.701749 0.155593 0.784060
O O4 0.750000 0.250000 0.000000
O O5 0.647274 0.229841 0.071847
O O6 0.705614 0.000231 0.031252
O O7 0.021459 0.622292 0.365527
O O8 0.888750 0.146781 0.648623
O O9 0.950824 0.178617 0.841835
O O10 0.871638 0.998234 0.910525
O O11 0.853541 0.726744 0.924902
O O12 0.750000 0.750000 0.000000
#
# Coordination Sequence:
#
# PCOD9297739 Si02
#       7
#     4   8   4   8   4   8   8
#     4  11  25  42  70  98 144 178 232 276 348 402
#     4  12  27  48  75 103 139 179 229 282 343 406
#     4  10  24  42  66 102 140 178 230 286 332 408
#     4  12  27  45  70 101 141 183 231 283 343 407
#     4  11  25  42  70  98 144 178 232 276 348 402
#     4  12  27  45  70 101 141 183 231 283 343 407
#     4  12  27  48  75 103 139 179 229 282 343 406
#
# _framework density 21.494819
#
# number of rings (size 3 to 8) (size 9 to 14) (size 15 to 20)
#    0.000    0.364    1.818    6.000   10.182    1.455 
#    0.000    0.000    0.000    0.000    0.000    0.000 
#    0.000    0.000    0.000    0.000    0.000    0.000 
#
# Total GULP energy -122637.741969 kJ/mol
# GULP energy per Si atom -5574.442817 kJ/mol
# Density = 2.144590 g / cm^3
# Si number density = 21.494819 Si / 1000 Ang^3
#
#
#
# Elastic Constant Matrix: (Units=GPa)
#
#
# Indices 1 2 3 4 5 6 
#
# 1 98.1462 48.2096 35.4472 0.0000 -17.0593 0.0000
# 2 48.2096 187.0711 69.0273 0.0000 -3.8716 0.0000
# 3 35.4472 69.0273 183.3656 0.0000 -2.6310 0.0000
# 4 0.0000 0.0000 0.0000 43.4968 0.0000 -2.6525
# 5 -17.0593 -3.8716 -2.6310 0.0000 36.0828 0.0000
# 6 0.0000 0.0000 0.0000 -2.6525 0.0000 22.1341
#
#
#
# Elastic Compliance Matrix: (Units=1/GPa)
#
#
# Indices 1 2 3 4 5 6 
#
# 1 0.013038 -0.002719 -0.001414 0.000000 0.005769 0.000000
# 2 -0.002719 0.006784 -0.002038 0.000000 -0.000706 0.000000
# 3 -0.001414 -0.002038 0.006488 0.000000 -0.000414 0.000000
# 4 0.000000 0.000000 0.000000 0.023159 0.000000 0.002775
# 5 0.005769 -0.000706 -0.000414 0.000000 0.030336 0.000000
# 6 0.000000 0.000000 0.000000 0.002775 0.000000 0.045512
#
#
# Mechanical properties :
#
#
# Convention : Reuss Voigt Hill
#
# Bulk Modulus (GPa) = 71.59458 85.99459 78.79459
# Shear Modulus (GPa) = 35.13333 41.40265 38.26799
#
# Velocity S-wave (km/s) = 4.04728 4.39358 4.22398
# Velocity P-wave (km/s) = 7.43107 8.11369 7.77987
#
# Compressibility (1/GPa) = 0.01396754
#
# Stress axis : x y z
#
# Youngs Moduli (GPa) = 76.69961 147.41253 154.12316
#
# Poissons Ratio (x) = 0.40078 0.21796
# Poissons Ratio (y) = 0.20853 0.31414
# Poissons Ratio (z) = 0.10847 0.30046
#
# Static dielectric constant tensor:
#      x y z
#    x 1.800810 0.000000 0.027150 
#    y 0.000000 1.744650 0.000000 
#    z 0.027150 0.000000 1.766790 
# 
# From -- ./inp_files/68321.got.cif
#   From: 2010.05.17/outbox.cif.g08.bks.cpg/sg15_35_cif.got.tgz:68321.got - 2010.06.03 18:47:42.
