data_PCOD9297385
_publ_section_title
;
Structure prediction by ZEFSAII (Michael W. Deem and Ramdas Pophale) SiO2 
 PCOD9297385
Probable space group: C 2/C
;
_chemical_formula_sum "Si O2"
_cell_formula_units_Z 52
_cell_length_a 7.348635
_cell_length_b 11.874806
_cell_length_c 23.157074
_cell_angle_alpha 90.000000
_cell_angle_beta 98.556291
_cell_angle_gamma 90.000000
_cell_volume 1998.279161
_symmetry_space_group_name_H-M "C 2/C"
_symmetry_group_IT_number 15
_symmetry_cell_setting 'monoclinic'
loop_
_space_group_symop_operation_xyz
x,y,z
-x,y,1/2-z
-x,-y,-z
x,-y,1/2+z
1/2+x,1/2+y,z
1/2-x,1/2+y,1/2-z
1/2-x,1/2-y,-z
1/2+x,1/2-y,1/2+z
loop_
_atom_site_type_symbol
_atom_site_label
_atom_site_fract_x
_atom_site_fract_y
_atom_site_fract_z
Si Si1 0.722309 0.118027 0.266486
Si Si2 0.029188 0.685005 0.494861
Si Si3 0.242939 0.954837 0.853766
Si Si4 0.854639 0.469440 0.140972
Si Si5 0.000000 0.690122 0.750000
Si Si6 0.186619 0.252533 0.417223
Si Si7 0.628502 0.571692 0.962734
O O1 0.500000 0.134437 0.250000
O O2 0.781560 0.034855 0.216406
O O3 0.834838 0.231862 0.265150
O O4 0.759507 0.063030 0.330587
O O5 0.005318 0.729512 0.559423
O O6 0.818334 0.676093 0.464206
O O7 0.165433 0.581183 0.499726
O O8 0.089536 0.793764 0.461162
O O9 0.187232 0.825317 0.861783
O O10 0.461156 0.973857 0.875336
O O11 0.140930 0.026680 0.897944
O O12 0.756061 0.380557 0.094586
O O13 0.929694 0.389393 0.195569
O O14 0.500000 0.500000 0.000000
#
# Coordination Sequence:
#
# PCOD9297385 Si02
#       7
#     8   8   8   8   4   8   8
#     4  10  24  45  67 105 135 176 240 284 353 430
#     4  10  24  40  62  97 133 180 229 280 347 417
#     4  11  21  40  67  93 134 179 220 286 352 409
#     4  11  23  45  68  99 139 178 226 301 350 414
#     4  12  22  46  76  92 140 184 226 294 346 418
#     4  11  22  42  67  94 134 181 223 283 359 405
#     4  11  22  40  63  97 136 174 234 289 334 427
#
# _framework density 26.022387999999999
#
# number of rings (size 3 to 8) (size 9 to 14) (size 15 to 20)
#    0.000    1.231    6.923    0.000    0.000    3.077 
#    6.923    0.000    0.000    0.000    0.000    0.000 
#    0.000    0.000    0.000    0.000    0.000    0.000 
#
# Total GULP energy -145345.252062 kJ/mol
# GULP energy per Si atom -5590.202002 kJ/mol
# Density = 2.596316 g / cm^3
# Si number density = 26.022388 Si / 1000 Ang^3
#
#
#
# Elastic Constant Matrix: (Units=GPa)
#
#
# Indices 1 2 3 4 5 6 
#
# 1 124.4852 47.5723 41.3564 0.0000 -19.9086 0.0000
# 2 47.5723 105.9915 18.7655 0.0000 -24.7465 0.0000
# 3 41.3564 18.7655 77.8739 0.0000 -29.7326 0.0000
# 4 0.0000 0.0000 0.0000 51.7430 0.0000 -6.5982
# 5 -19.9086 -24.7465 -29.7326 0.0000 51.9063 0.0000
# 6 0.0000 0.0000 0.0000 -6.5982 0.0000 58.9919
#
#
#
# Elastic Compliance Matrix: (Units=1/GPa)
#
#
# Indices 1 2 3 4 5 6 
#
# 1 0.011308 -0.004316 -0.005241 0.000000 -0.000723 0.000000
# 2 -0.004316 0.012303 0.001197 0.000000 0.004896 0.000000
# 3 -0.005241 0.001197 0.018926 0.000000 0.009401 0.000000
# 4 0.000000 0.000000 0.000000 0.019606 0.000000 0.002193
# 5 -0.000723 0.004896 0.009401 0.000000 0.026707 0.000000
# 6 0.000000 0.000000 0.000000 0.002193 0.000000 0.017197
#
#
# Mechanical properties :
#
#
# Convention : Reuss Voigt Hill
#
# Bulk Modulus (GPa) = 38.73673 58.19320 48.46496
# Shear Modulus (GPa) = 38.05922 45.90531 41.98227
#
# Velocity S-wave (km/s) = 3.82849 4.20464 4.02096
# Velocity P-wave (km/s) = 5.87038 6.78110 6.34211
#
# Compressibility (1/GPa) = 0.02581529
#
# Stress axis : x y z
#
# Youngs Moduli (GPa) = 88.43122 81.28016 52.83783
#
# Poissons Ratio (x) = 0.35083 0.27694
# Poissons Ratio (y) = 0.38169 -0.06323
# Poissons Ratio (z) = 0.46350 -0.09726
#
# Static dielectric constant tensor:
#      x y z
#    x 2.183410 0.000000 0.085050 
#    y 0.000000 2.007740 0.000000 
#    z 0.085050 0.000000 2.177180 
# 
# From -- ./inp_files/287673.got.cif
#   From: 2010.05.17/outbox.cif.g08.bks.cpg/sg15_144_cif.got.tgz:287673.got - 2010.06.03 18:47:42.
