data_PCOD9297352
_publ_section_title
;
Structure prediction by ZEFSAII (Michael W. Deem and Ramdas Pophale) SiO2 
 PCOD9297352
Probable space group: C 2/C
;
_chemical_formula_sum "Si O2"
_cell_formula_units_Z 52
_cell_length_a 16.396391
_cell_length_b 17.463024
_cell_length_c 8.888133
_cell_angle_alpha 90.000000
_cell_angle_beta 120.981566
_cell_angle_gamma 90.000000
_cell_volume 2181.864534
_symmetry_space_group_name_H-M "C 2/C"
_symmetry_group_IT_number 15
_symmetry_cell_setting 'monoclinic'
loop_
_space_group_symop_operation_xyz
x,y,z
-x,y,1/2-z
-x,-y,-z
x,-y,1/2+z
1/2+x,1/2+y,z
1/2-x,1/2+y,1/2-z
1/2-x,1/2-y,-z
1/2+x,1/2-y,1/2+z
loop_
_atom_site_type_symbol
_atom_site_label
_atom_site_fract_x
_atom_site_fract_y
_atom_site_fract_z
Si Si1 0.751006 0.612061 0.747420
Si Si2 0.500000 0.483063 0.750000
Si Si3 0.383758 0.411880 0.911087
Si Si4 0.382497 0.262304 0.481764
Si Si5 0.661296 0.900415 0.668433
Si Si6 0.676887 0.003919 0.435574
Si Si7 0.605391 0.248361 0.659517
O O1 0.654220 0.659645 0.629522
O O2 0.772246 0.558814 0.623154
O O3 0.835418 0.675026 0.835870
O O4 0.756724 0.559734 0.900534
O O5 0.440322 0.431730 0.810680
O O6 0.431755 0.536561 0.584304
O O7 0.272284 0.424658 0.782051
O O8 0.387457 0.321250 0.942289
O O9 0.336041 0.188971 0.358572
O O10 0.492704 0.241063 0.570907
O O11 0.358294 0.266678 0.636046
O O12 0.619149 0.936121 0.779174
O O13 0.618200 0.949477 0.491485
#
# Coordination Sequence:
#
# PCOD9297352 Si02
#       7
#     8   4   8   8   8   8   8
#     4  11  22  47  69 101 137 177 233 283 343 408
#     4  10  24  40  62 104 138 174 224 278 332 426
#     4  11  22  41  66  94 140 177 216 276 341 400
#     4  11  23  41  71  97 134 177 228 276 339 418
#     4  11  21  42  65  98 127 179 221 270 342 399
#     4  10  24  39  72  99 130 181 224 287 337 399
#     4  11  23  42  67 101 132 185 223 276 342 413
#
# _framework density 23.832827000000002
#
# number of rings (size 3 to 8) (size 9 to 14) (size 15 to 20)
#    0.000    1.231    3.077    3.231    0.000    8.000 
#    2.769    4.615    0.000    0.923    0.000    0.000 
#    0.000    0.000    0.000    0.000    0.000    0.000 
#
# Total GULP energy -145353.535685 kJ/mol
# GULP energy per Si atom -5590.520603 kJ/mol
# Density = 2.377858 g / cm^3
# Si number density = 23.832827 Si / 1000 Ang^3
#
#
#
# Elastic Constant Matrix: (Units=GPa)
#
#
# Indices 1 2 3 4 5 6 
#
# 1 55.9691 18.9891 17.6996 0.0000 11.9873 0.0000
# 2 18.9891 159.9966 53.0332 0.0000 -0.1460 0.0000
# 3 17.6996 53.0332 88.3005 0.0000 -11.3526 0.0000
# 4 0.0000 0.0000 0.0000 50.3589 0.0000 0.5783
# 5 11.9873 -0.1460 -11.3526 0.0000 33.1387 0.0000
# 6 0.0000 0.0000 0.0000 0.5783 0.0000 20.7804
#
#
#
# Elastic Compliance Matrix: (Units=1/GPa)
#
#
# Indices 1 2 3 4 5 6 
#
# 1 0.021847 -0.000923 -0.005064 0.000000 -0.009642 0.000000
# 2 -0.000923 0.007929 -0.004739 0.000000 -0.001255 0.000000
# 3 -0.005064 -0.004739 0.016129 0.000000 0.007337 0.000000
# 4 0.000000 0.000000 0.000000 0.019864 0.000000 -0.000553
# 5 -0.009642 -0.001255 0.007337 0.000000 0.036172 0.000000
# 6 0.000000 0.000000 0.000000 -0.000553 0.000000 0.048138
#
#
# Mechanical properties :
#
#
# Convention : Reuss Voigt Hill
#
# Bulk Modulus (GPa) = 40.89410 53.74557 47.31983
# Shear Modulus (GPa) = 27.82703 35.15855 31.49279
#
# Velocity S-wave (km/s) = 3.42071 3.84502 3.63906
# Velocity P-wave (km/s) = 5.72693 6.50479 6.12821
#
# Compressibility (1/GPa) = 0.02445341
#
# Stress axis : x y z
#
# Youngs Moduli (GPa) = 45.77348 126.11617 61.99894
#
# Poissons Ratio (x) = 0.11641 0.31398
# Poissons Ratio (y) = 0.04225 0.29378
# Poissons Ratio (z) = 0.23181 0.59761
#
# Static dielectric constant tensor:
#      x y z
#    x 1.987200 0.000000 -0.013850 
#    y 0.000000 1.893930 0.000000 
#    z -0.013850 0.000000 1.978370 
# 
# From -- ./inp_files/57070.got.cif
#   From: 2010.05.17/outbox.cif.g08.bks.cpg/sg15_29_cif.got.tgz:57070.got - 2010.06.03 18:47:42.
