data_PCOD9297748
_publ_section_title
;
Structure prediction by ZEFSAII (Michael W. Deem and Ramdas Pophale) SiO2 
 PCOD9297748
Probable space group: C 2/C
;
_chemical_formula_sum "Si O2"
_cell_formula_units_Z 36
_cell_length_a 12.551341
_cell_length_b 5.094604
_cell_length_c 21.584515
_cell_angle_alpha 90.000000
_cell_angle_beta 104.203206
_cell_angle_gamma 90.000000
_cell_volume 1338.012090
_symmetry_space_group_name_H-M "C 2/C"
_symmetry_group_IT_number 15
_symmetry_cell_setting 'monoclinic'
loop_
_space_group_symop_operation_xyz
x,y,z
-x,y,1/2-z
-x,-y,-z
x,-y,1/2+z
1/2+x,1/2+y,z
1/2-x,1/2+y,1/2-z
1/2-x,1/2-y,-z
1/2+x,1/2-y,1/2+z
loop_
_atom_site_type_symbol
_atom_site_label
_atom_site_fract_x
_atom_site_fract_y
_atom_site_fract_z
Si Si1 0.000000 0.039885 0.750000
Si Si2 0.800559 0.798742 0.785934
Si Si3 0.610106 0.676891 0.453147
Si Si4 0.619080 0.440395 0.087037
Si Si5 0.422027 0.185814 0.123228
O O1 0.074756 0.854707 0.718416
O O2 0.071438 0.225205 0.804933
O O3 0.732209 0.003248 0.733683
O O4 0.799041 0.907668 0.855758
O O5 0.476868 0.648456 0.445119
O O6 0.658881 0.690176 0.528984
O O7 0.642536 0.406233 0.425002
O O8 0.616856 0.906666 0.404721
O O9 0.548362 0.229839 0.116539
#
# Coordination Sequence:
#
# PCOD9297748 Si02
#       5
#     4   8   8   8   8
#     4  10  24  42  66  88 136 168 202 266 312 376
#     4  11  26  41  64  96 126 167 213 255 316 381
#     4   9  17  30  57  89 112 156 214 243 303 375
#     4   8  19  32  58  84 121 155 207 253 302 366
#     4   9  18  30  54  88 109 159 202 241 307 364
#
# _framework density 26.905584999999999
#
# number of rings (size 3 to 8) (size 9 to 14) (size 15 to 20)
#    1.333    1.333    0.000    0.667    6.222    3.556 
#    0.000    0.000    0.000    8.000    0.000    0.000 
#    0.000    0.000    0.000    0.000    0.000    0.000 
#
# Total GULP energy -100753.720381 kJ/mol
# GULP energy per Si atom -5597.428910 kJ/mol
# Density = 2.684435 g / cm^3
# Si number density = 26.905585 Si / 1000 Ang^3
#
#
#
# Elastic Constant Matrix: (Units=GPa)
#
#
# Indices 1 2 3 4 5 6 
#
# 1 59.4662 3.4999 12.8104 0.0000 -4.3237 0.0000
# 2 3.4999 70.8288 -14.7686 0.0000 1.8446 0.0000
# 3 12.8104 -14.7686 132.8206 0.0000 -1.2186 0.0000
# 4 0.0000 0.0000 0.0000 33.3634 0.0000 -3.1981
# 5 -4.3237 1.8446 -1.2186 0.0000 56.0482 0.0000
# 6 0.0000 0.0000 0.0000 -3.1981 0.0000 22.5189
#
#
#
# Elastic Compliance Matrix: (Units=1/GPa)
#
#
# Indices 1 2 3 4 5 6 
#
# 1 0.017378 -0.001270 -0.001805 0.000000 0.001343 0.000000
# 2 -0.001270 0.014557 0.001736 0.000000 -0.000539 0.000000
# 3 -0.001805 0.001736 0.007896 0.000000 -0.000025 0.000000
# 4 0.000000 0.000000 0.000000 0.030387 0.000000 0.004315
# 5 0.001343 -0.000539 -0.000025 0.000000 0.017963 0.000000
# 6 0.000000 0.000000 0.000000 0.004315 0.000000 0.045020
#
#
# Mechanical properties :
#
#
# Convention : Reuss Voigt Hill
#
# Bulk Modulus (GPa) = 26.91555 29.57767 28.24661
# Shear Modulus (GPa) = 33.72410 39.82435 36.77422
#
# Velocity S-wave (km/s) = 3.54421 3.85145 3.70102
# Velocity P-wave (km/s) = 5.17436 5.54934 5.36513
#
# Compressibility (1/GPa) = 0.03715325
#
# Stress axis : x y z
#
# Youngs Moduli (GPa) = 57.54567 68.69374 126.64868
#
# Poissons Ratio (x) = 0.08724 0.22859
# Poissons Ratio (y) = 0.07308 -0.21989
# Poissons Ratio (z) = 0.10387 -0.11927
#
# Static dielectric constant tensor:
#      x y z
#    x 2.257640 0.000000 0.021300 
#    y 0.000000 1.975450 0.000000 
#    z 0.021300 0.000000 2.051810 
# 
# From -- ./inp_files/275520.got.cif
#   From: 2010.05.17/outbox.cif.g08.bks.cpg/sg15_138_cif.got.tgz:275520.got - 2010.06.03 18:47:42.
