data_PCOD9297216
_publ_section_title
;
Structure prediction by ZEFSAII (Michael W. Deem and Ramdas Pophale) SiO2 
 PCOD9297216
Probable space group: C 2/C
;
_chemical_formula_sum "Si O2"
_cell_formula_units_Z 60
_cell_length_a 21.565654
_cell_length_b 18.498430
_cell_length_c 8.556782
_cell_angle_alpha 90.000000
_cell_angle_beta 118.559286
_cell_angle_gamma 90.000000
_cell_volume 2998.210921
_symmetry_space_group_name_H-M "C 2/C"
_symmetry_group_IT_number 15
_symmetry_cell_setting 'monoclinic'
loop_
_space_group_symop_operation_xyz
x,y,z
-x,y,1/2-z
-x,-y,-z
x,-y,1/2+z
1/2+x,1/2+y,z
1/2-x,1/2+y,1/2-z
1/2-x,1/2-y,-z
1/2+x,1/2-y,1/2+z
loop_
_atom_site_type_symbol
_atom_site_label
_atom_site_fract_x
_atom_site_fract_y
_atom_site_fract_z
Si Si1 0.500000 0.961691 0.750000
Si Si2 0.582802 0.078377 0.644855
Si Si3 0.730878 0.903894 0.791890
Si Si4 0.467609 0.231638 0.868247
Si Si5 0.777288 0.798820 0.388141
Si Si6 0.658445 0.273690 0.574861
Si Si7 0.736046 0.947282 0.440368
Si Si8 0.383439 0.785867 0.806190
O O1 0.449159 0.919478 0.568594
O O2 0.546391 0.013903 0.696485
O O3 0.567201 0.153958 0.711549
O O4 0.665128 0.064154 0.754847
O O5 0.792700 0.844237 0.865854
O O6 0.721475 0.933250 0.604760
O O7 0.658212 0.862351 0.748529
O O8 0.754206 0.969877 0.929601
O O9 0.500000 0.264678 0.750000
O O10 0.406436 0.275480 0.882201
O O11 0.534306 0.212302 0.057310
O O12 0.750000 0.750000 0.500000
O O13 0.713342 0.789709 0.188106
O O14 0.786817 0.881766 0.447878
O O15 0.844558 0.760217 0.394868
O O16 0.629402 0.255016 0.370683
#
# Coordination Sequence:
#
# PCOD9297216 Si02
#       8
#     4   8   8   8   8   8   8   8
#     4  10  24  36  50  80 138 178 202 248 310 388
#     4  11  23  37  56  87 129 172 210 252 310 395
#     4  11  26  41  65  98 134 171 218 264 326 390
#     4  12  24  40  67  94 124 171 220 268 326 388
#     4  11  20  41  64  90 127 173 218 269 310 386
#     4  11  24  44  64  93 132 168 223 271 322 384
#     4  12  24  38  64  94 131 172 219 262 325 379
#     4  11  25  41  65  96 133 168 218 268 327 383
#
# _framework density 20.011934
#
# number of rings (size 3 to 8) (size 9 to 14) (size 15 to 20)
#    0.000    0.800    4.667    4.400    9.333    0.000 
#    0.000    0.000    0.000    0.800    0.000    0.000 
#    0.000    0.000    0.000    0.000    0.000    0.000 
#
# Total GULP energy -167764.500761 kJ/mol
# GULP energy per Si atom -5592.150025 kJ/mol
# Density = 1.996639 g / cm^3
# Si number density = 20.011934 Si / 1000 Ang^3
#
#
#
# Elastic Constant Matrix: (Units=GPa)
#
#
# Indices 1 2 3 4 5 6 
#
# 1 73.7438 28.9089 11.2577 0.0000 11.1936 0.0000
# 2 28.9089 97.4514 16.8999 0.0000 4.8253 0.0000
# 3 11.2577 16.8999 78.4808 0.0000 -7.0827 0.0000
# 4 0.0000 0.0000 0.0000 27.6205 0.0000 -5.0253
# 5 11.1936 4.8253 -7.0827 0.0000 21.3120 0.0000
# 6 0.0000 0.0000 0.0000 -5.0253 0.0000 26.6298
#
#
#
# Elastic Compliance Matrix: (Units=1/GPa)
#
#
# Indices 1 2 3 4 5 6 
#
# 1 0.016866 -0.004174 -0.002304 0.000000 -0.008679 0.000000
# 2 -0.004174 0.011919 -0.002076 0.000000 -0.001196 0.000000
# 3 -0.002304 -0.002076 0.014094 0.000000 0.006364 0.000000
# 4 0.000000 0.000000 0.000000 0.037492 0.000000 0.007075
# 5 -0.008679 -0.001196 0.006364 0.000000 0.053866 0.000000
# 6 0.000000 0.000000 0.000000 0.007075 0.000000 0.038887
#
#
# Mechanical properties :
#
#
# Convention : Reuss Voigt Hill
#
# Bulk Modulus (GPa) = 38.80270 40.42321 39.61295
# Shear Modulus (GPa) = 25.14820 27.95310 26.55065
#
# Velocity S-wave (km/s) = 3.54879 3.74146 3.64640
# Velocity P-wave (km/s) = 6.01861 6.23764 6.12910
#
# Compressibility (1/GPa) = 0.02577141
#
# Stress axis : x y z
#
# Youngs Moduli (GPa) = 59.29154 83.89994 70.95338
#
# Poissons Ratio (x) = 0.35020 0.16346
# Poissons Ratio (y) = 0.24748 0.14729
# Poissons Ratio (z) = 0.13659 0.17416
#
# Static dielectric constant tensor:
#      x y z
#    x 1.715280 0.000000 -0.025070 
#    y 0.000000 1.725740 0.000000 
#    z -0.025070 0.000000 1.748290 
# 
# From -- ./inp_files/57042.got.cif
#   From: 2010.05.17/outbox.cif.g08.bks.cpg/sg15_29_cif.got.tgz:57042.got - 2010.06.03 18:47:42.
