data_PCOD9297105
_publ_section_title
;
Structure prediction by ZEFSAII (Michael W. Deem and Ramdas Pophale) SiO2 
 PCOD9297105
Probable space group: C 2/C
;
_chemical_formula_sum "Si O2"
_cell_formula_units_Z 36
_cell_length_a 4.878421
_cell_length_b 18.606469
_cell_length_c 17.469061
_cell_angle_alpha 90.000000
_cell_angle_beta 69.997339
_cell_angle_gamma 90.000000
_cell_volume 1490.017181
_symmetry_space_group_name_H-M "C 2/C"
_symmetry_group_IT_number 15
_symmetry_cell_setting 'monoclinic'
loop_
_space_group_symop_operation_xyz
x,y,z
-x,y,1/2-z
-x,-y,-z
x,-y,1/2+z
1/2+x,1/2+y,z
1/2-x,1/2+y,1/2-z
1/2-x,1/2-y,-z
1/2+x,1/2-y,1/2+z
loop_
_atom_site_type_symbol
_atom_site_label
_atom_site_fract_x
_atom_site_fract_y
_atom_site_fract_z
Si Si1 0.634485 0.115869 0.931008
Si Si2 0.500000 0.473084 0.750000
Si Si3 0.824610 0.747625 0.689425
Si Si4 0.688824 0.528142 0.884080
Si Si5 0.646006 0.387110 0.600588
O O1 0.654672 0.182277 0.871816
O O2 0.479705 0.049958 0.899958
O O3 0.957284 0.091387 0.921517
O O4 0.428401 0.129094 0.023469
O O5 0.681645 0.520004 0.792529
O O6 0.702946 0.420818 0.679574
O O7 0.500000 0.761420 0.750000
O O8 0.000000 0.730589 0.750000
O O9 0.958374 0.816761 0.634465
O O10 0.543906 0.451570 0.919422
#
# Coordination Sequence:
#
# PCOD9297105 Si02
#       5
#     8   4   8   8   8
#     4  12  25  44  70 103 137 170 227 281 337 382
#     4   8  22  42  70 100 134 180 218 274 330 402
#     4  12  27  45  68  99 136 179 225 275 336 396
#     4  10  24  43  68 102 129 177 221 277 329 400
#     4  10  23  48  68 100 134 186 219 274 329 415
#
# _framework density 24.160796000000001
#
# number of rings (size 3 to 8) (size 9 to 14) (size 15 to 20)
#    1.333    0.000    1.111    3.333    4.667    5.333 
#    0.000    4.444    0.000    0.000    0.000    0.000 
#    0.000    0.000    0.000    0.000    0.000    0.000 
#
# Total GULP energy -100780.799908 kJ/mol
# GULP energy per Si atom -5598.933328 kJ/mol
# Density = 2.410581 g / cm^3
# Si number density = 24.160796 Si / 1000 Ang^3
#
#
#
# Elastic Constant Matrix: (Units=GPa)
#
#
# Indices 1 2 3 4 5 6 
#
# 1 64.0979 -5.0629 20.9006 0.0000 -5.7157 0.0000
# 2 -5.0629 123.5104 64.4298 0.0000 -20.9626 0.0000
# 3 20.9006 64.4298 159.0887 0.0000 -9.5351 0.0000
# 4 0.0000 0.0000 0.0000 88.7157 0.0000 -34.8308
# 5 -5.7157 -20.9626 -9.5351 0.0000 35.2457 0.0000
# 6 0.0000 0.0000 0.0000 -34.8308 0.0000 24.9936
#
#
#
# Elastic Compliance Matrix: (Units=1/GPa)
#
#
# Indices 1 2 3 4 5 6 
#
# 1 0.017242 0.003048 -0.003276 0.000000 0.003722 0.000000
# 2 0.003048 0.011777 -0.004798 0.000000 0.006201 0.000000
# 3 -0.003276 -0.004798 0.008596 0.000000 -0.001060 0.000000
# 4 0.000000 0.000000 0.000000 0.024891 0.000000 0.034687
# 5 0.003722 0.006201 -0.001060 0.000000 0.032377 0.000000
# 6 0.000000 0.000000 0.000000 0.034687 0.000000 0.088350
#
#
# Mechanical properties :
#
#
# Convention : Reuss Voigt Hill
#
# Bulk Modulus (GPa) = 36.28317 56.35911 46.32114
# Shear Modulus (GPa) = 24.69453 47.55296 36.12374
#
# Velocity S-wave (km/s) = 3.20048 4.44124 3.87090
# Velocity P-wave (km/s) = 5.35793 7.04818 6.26036
#
# Compressibility (1/GPa) = 0.02756099
#
# Stress axis : x y z
#
# Youngs Moduli (GPa) = 57.99745 84.91231 116.33297
#
# Poissons Ratio (x) = -0.25879 0.38116
# Poissons Ratio (y) = -0.17676 0.55820
# Poissons Ratio (z) = 0.19002 0.40744
#
# Static dielectric constant tensor:
#      x y z
#    x 1.676310 0.000000 0.066800 
#    y 0.000000 1.892830 0.000000 
#    z 0.066800 0.000000 1.973130 
# 
# From -- ./inp_files/184598.got.cif
#   From: 2010.05.17/outbox.cif.g08.bks.cpg/sg15_93_cif.got.tgz:184598.got - 2010.06.03 18:47:42.
