data_PCOD9297471
_publ_section_title
;
Structure prediction by ZEFSAII (Michael W. Deem and Ramdas Pophale) SiO2 
 PCOD9297471
Probable space group: C 2/C
;
_chemical_formula_sum "Si O2"
_cell_formula_units_Z 52
_cell_length_a 10.812728
_cell_length_b 9.467126
_cell_length_c 26.176482
_cell_angle_alpha 90.000000
_cell_angle_beta 120.032462
_cell_angle_gamma 90.000000
_cell_volume 2319.814142
_symmetry_space_group_name_H-M "C 2/C"
_symmetry_group_IT_number 15
_symmetry_cell_setting 'monoclinic'
loop_
_space_group_symop_operation_xyz
x,y,z
-x,y,1/2-z
-x,-y,-z
x,-y,1/2+z
1/2+x,1/2+y,z
1/2-x,1/2+y,1/2-z
1/2-x,1/2-y,-z
1/2+x,1/2-y,1/2+z
loop_
_atom_site_type_symbol
_atom_site_label
_atom_site_fract_x
_atom_site_fract_y
_atom_site_fract_z
Si Si1 0.529095 0.264926 0.859345
Si Si2 0.761334 0.065873 0.264097
Si Si3 0.500000 0.757423 0.750000
Si Si4 0.732239 0.966484 0.551737
Si Si5 0.551770 0.296833 0.374544
Si Si6 0.984807 0.494224 0.582527
Si Si7 0.259347 0.209125 0.685007
O O1 0.410706 0.377490 0.817473
O O2 0.649454 0.346109 0.916807
O O3 0.468245 0.134286 0.878157
O O4 0.613114 0.201733 0.827995
O O5 0.636054 0.145679 0.267861
O O6 0.755897 0.131796 0.206419
O O7 0.728579 0.901641 0.265687
O O8 0.467877 0.677284 0.690391
O O9 0.818405 0.112479 0.577834
O O10 0.612292 0.949256 0.570861
O O11 0.649336 0.968671 0.481388
O O12 0.397486 0.330749 0.368306
O O13 0.564042 0.130463 0.389440
#
# Coordination Sequence:
#
# PCOD9297471 Si02
#       7
#     8   8   4   8   8   8   8
#     4  12  24  44  69  97 136 174 226 281 336 402
#     4  11  25  42  65  97 135 175 218 273 332 404
#     4  10  24  40  68  98 132 176 220 266 342 398
#     4  11  24  46  69 100 134 179 233 280 339 396
#     4  11  22  45  66  98 141 174 225 281 333 405
#     4  11  25  43  71  98 135 183 225 284 339 399
#     4  11  25  42  66  99 135 177 223 270 342 404
#
# _framework density 22.415589000000001
#
# number of rings (size 3 to 8) (size 9 to 14) (size 15 to 20)
#    0.000    0.923    3.077    3.231    6.462    2.462 
#    0.000    0.769    0.000    0.000    0.000    0.000 
#    0.000    0.000    0.000    0.000    0.000    0.000 
#
# Total GULP energy -145401.878186 kJ/mol
# GULP energy per Si atom -5592.379930 kJ/mol
# Density = 2.236457 g / cm^3
# Si number density = 22.415589 Si / 1000 Ang^3
#
#
#
# Elastic Constant Matrix: (Units=GPa)
#
#
# Indices 1 2 3 4 5 6 
#
# 1 68.9302 -8.7572 17.3648 0.0000 9.4974 0.0000
# 2 -8.7572 94.6150 17.7970 0.0000 -5.1053 0.0000
# 3 17.3648 17.7970 97.3224 0.0000 10.1867 0.0000
# 4 0.0000 0.0000 0.0000 34.9903 0.0000 5.2002
# 5 9.4974 -5.1053 10.1867 0.0000 36.2137 0.0000
# 6 0.0000 0.0000 0.0000 5.2002 0.0000 30.3570
#
#
#
# Elastic Compliance Matrix: (Units=1/GPa)
#
#
# Indices 1 2 3 4 5 6 
#
# 1 0.015886 0.001838 -0.002845 0.000000 -0.003107 0.000000
# 2 0.001838 0.011326 -0.002592 0.000000 0.001844 0.000000
# 3 -0.002845 -0.002592 0.011557 0.000000 -0.002870 0.000000
# 4 0.000000 0.000000 0.000000 0.029326 0.000000 -0.005024
# 5 -0.003107 0.001844 -0.002870 0.000000 0.029496 0.000000
# 6 0.000000 0.000000 0.000000 -0.005024 0.000000 0.033802
#
#
# Mechanical properties :
#
#
# Convention : Reuss Voigt Hill
#
# Bulk Modulus (GPa) = 31.67543 34.85296 33.26420
# Shear Modulus (GPa) = 33.53102 35.94307 34.73704
#
# Velocity S-wave (km/s) = 3.87186 4.00870 3.94087
# Velocity P-wave (km/s) = 5.84380 6.08346 5.96484
#
# Compressibility (1/GPa) = 0.03157021
#
# Stress axis : x y z
#
# Youngs Moduli (GPa) = 62.94943 88.28980 86.52578
#
# Poissons Ratio (x) = -0.16227 0.24620
# Poissons Ratio (y) = -0.11570 0.22429
# Poissons Ratio (z) = 0.17911 0.22886
#
# Static dielectric constant tensor:
#      x y z
#    x 1.807380 0.000000 0.012980 
#    y 0.000000 1.828000 0.000000 
#    z 0.012980 0.000000 1.855410 
# 
# From -- ./inp_files/291099.got.cif
#   From: 2010.05.17/outbox.cif.g08.bks.cpg/sg15_146_cif.got.tgz:291099.got - 2010.06.03 18:47:42.
