data_PCOD9297756
_publ_section_title
;
Structure prediction by ZEFSAII (Michael W. Deem and Ramdas Pophale) SiO2 
 PCOD9297756
Probable space group: C 2/C
;
_chemical_formula_sum "Si O2"
_cell_formula_units_Z 40
_cell_length_a 19.283230
_cell_length_b 17.706372
_cell_length_c 13.920273
_cell_angle_alpha 90.000000
_cell_angle_beta 19.440042
_cell_angle_gamma 90.000000
_cell_volume 1581.855621
_symmetry_space_group_name_H-M "C 2/C"
_symmetry_group_IT_number 15
_symmetry_cell_setting 'monoclinic'
loop_
_space_group_symop_operation_xyz
x,y,z
-x,y,1/2-z
-x,-y,-z
x,-y,1/2+z
1/2+x,1/2+y,z
1/2-x,1/2+y,1/2-z
1/2-x,1/2-y,-z
1/2+x,1/2-y,1/2+z
loop_
_atom_site_type_symbol
_atom_site_label
_atom_site_fract_x
_atom_site_fract_y
_atom_site_fract_z
Si Si1 0.906807 0.628325 0.093166
Si Si2 0.000000 0.301654 0.750000
Si Si3 0.000000 0.198319 0.250000
Si Si4 0.648351 0.733744 0.351629
Si Si5 0.201589 0.582867 0.551560
Si Si6 0.792083 0.082880 0.961088
O O1 0.699020 0.644150 0.300942
O O2 0.874353 0.587328 0.235048
O O3 0.970932 0.716112 0.029046
O O4 0.093212 0.587320 0.797369
O O5 0.069668 0.257089 0.563581
O O6 0.200667 0.354265 0.510127
O O7 0.836155 0.242885 0.530574
O O8 0.877776 0.145706 0.332988
O O9 0.292635 0.499989 0.414691
O O10 0.000000 0.597459 0.750000
O O11 0.000000 0.097448 0.750000
#
# Coordination Sequence:
#
# PCOD9297756 Si02
#       6
#     8   4   4   8   8   8
#     4  10  25  40  64  97 131 171 216 272 324 388
#     4  10  24  44  64 100 132 172 218 272 320 392
#     4  10  24  44  64 100 132 172 218 272 320 392
#     4  10  24  42  66  94 139 165 219 267 327 386
#     4  11  23  42  66  92 131 172 223 267 325 382
#     4  11  23  42  66  92 131 172 223 267 325 382
#
# _framework density 25.286756
#
# number of rings (size 3 to 8) (size 9 to 14) (size 15 to 20)
#    0.000    1.600    2.000    0.600    8.400    3.200 
#    0.000    2.000    0.000    0.000    0.000    0.000 
#    0.000    0.000    0.000    0.000    0.000    0.000 
#
# Total GULP energy -111391.715505 kJ/mol
# GULP energy per Si atom -5569.585775 kJ/mol
# Density = 2.522920 g / cm^3
# Si number density = 25.286756 Si / 1000 Ang^3
#
#
#
# Elastic Constant Matrix: (Units=GPa)
#
#
# Indices 1 2 3 4 5 6 
#
# 1 84.5619 23.6242 22.7165 0.0190 -17.3223 -0.0037
# 2 23.6242 108.7492 13.1866 0.0228 -15.8169 -0.0199
# 3 22.7165 13.1866 72.1264 0.0598 -1.6569 -0.0293
# 4 0.0190 0.0228 0.0598 13.2454 -0.0343 -13.9136
# 5 -17.3223 -15.8169 -1.6569 -0.0343 48.8593 0.0066
# 6 -0.0037 -0.0199 -0.0293 -13.9136 0.0066 22.5096
#
#
#
# Elastic Compliance Matrix: (Units=1/GPa)
#
#
# Indices 1 2 3 4 5 6 
#
# 1 0.014356 -0.002001 -0.004057 0.000017 0.004305 0.000005
# 2 -0.002001 0.010140 -0.001166 0.000011 0.002534 0.000013
# 3 -0.004057 -0.001166 0.015326 -0.000129 -0.001296 -0.000061
# 4 0.000017 0.000011 -0.000129 0.215280 0.000139 0.133068
# 5 0.004305 0.002534 -0.001296 0.000139 0.022769 0.000080
# 6 0.000005 0.000013 -0.000061 0.133068 0.000080 0.126677
#
#
# Mechanical properties :
#
#
# Convention : Reuss Voigt Hill
#
# Bulk Modulus (GPa) = 39.40792 42.72135 41.06464
# Shear Modulus (GPa) = 11.69719 30.65022 21.17370
#
# Velocity S-wave (km/s) = 2.15310 3.48531 2.89683
# Velocity P-wave (km/s) = 4.66898 5.75569 5.24058
#
# Compressibility (1/GPa) = 0.02537561
#
# Stress axis : x y z
#
# Youngs Moduli (GPa) = 69.65640 98.62002 65.24995
#
# Poissons Ratio (x) = 0.19731 0.26471
# Poissons Ratio (y) = 0.13936 0.07605
# Poissons Ratio (z) = 0.28259 0.11494
#
# Static dielectric constant tensor:
#      x y z
#    x 2.139230 0.000000 -0.098680 
#    y 0.000000 1.978000 0.000010 
#    z -0.098680 0.000010 2.073390 
# 
# From -- ./inp_files/29161.got.cif
#   From: 2010.05.17/outbox.cif.g08.bks.cpg/sg15_15_cif.got.tgz:29161.got - 2010.06.03 18:47:42.
