data_PCOD9297429
_publ_section_title
;
Structure prediction by ZEFSAII (Michael W. Deem and Ramdas Pophale) SiO2 
 PCOD9297429
Probable space group: C 2/C
;
_chemical_formula_sum "Si O2"
_cell_formula_units_Z 36
_cell_length_a 9.028796
_cell_length_b 20.810393
_cell_length_c 8.995071
_cell_angle_alpha 90.000000
_cell_angle_beta 96.908171
_cell_angle_gamma 90.000000
_cell_volume 1677.839159
_symmetry_space_group_name_H-M "C 2/C"
_symmetry_group_IT_number 15
_symmetry_cell_setting 'monoclinic'
loop_
_space_group_symop_operation_xyz
x,y,z
-x,y,1/2-z
-x,-y,-z
x,-y,1/2+z
1/2+x,1/2+y,z
1/2-x,1/2+y,1/2-z
1/2-x,1/2-y,-z
1/2+x,1/2-y,1/2+z
loop_
_atom_site_type_symbol
_atom_site_label
_atom_site_fract_x
_atom_site_fract_y
_atom_site_fract_z
Si Si1 0.500000 0.511730 0.250000
Si Si2 0.354158 0.585914 0.504495
Si Si3 0.014365 0.569113 0.427087
Si Si4 0.612217 0.827470 0.395966
Si Si5 0.447802 0.709841 0.900988
O O1 0.406942 0.554718 0.354736
O O2 0.604116 0.465424 0.362118
O O3 0.178136 0.596983 0.481736
O O4 0.445233 0.650808 0.545250
O O5 0.000000 0.563561 0.250000
O O6 0.000000 0.500000 0.500000
O O7 0.892775 0.615936 0.484192
O O8 0.500000 0.843822 0.250000
O O9 0.557072 0.762917 0.471336
O O10 0.779889 0.816388 0.362152
O O11 0.500000 0.738492 0.750000
#
# Coordination Sequence:
#
# PCOD9297429 Si02
#       5
#     4   8   8   8   8
#     4  10  24  40  66 102 132 178 224 274 332 404
#     4  11  24  42  70  97 139 178 228 276 337 413
#     4  12  27  44  70 103 142 181 223 285 345 407
#     4  11  27  45  69 101 137 179 232 287 345 405
#     4  11  25  46  70  98 135 183 232 283 342 413
#
# _framework density 21.456168000000002
#
# number of rings (size 3 to 8) (size 9 to 14) (size 15 to 20)
#    0.000    0.889    1.111    4.000   10.889    5.333 
#    0.000    0.000    0.000    0.000    0.000    0.000 
#    0.000    0.000    0.000    0.000    0.000    0.000 
#
# Total GULP energy -100857.151977 kJ/mol
# GULP energy per Si atom -5603.175110 kJ/mol
# Density = 2.140733 g / cm^3
# Si number density = 21.456168 Si / 1000 Ang^3
#
#
#
# Elastic Constant Matrix: (Units=GPa)
#
#
# Indices 1 2 3 4 5 6 
#
# 1 78.8481 3.5308 25.3575 0.0000 -10.3118 0.0000
# 2 3.5308 67.1627 10.9011 0.0000 -3.3445 0.0000
# 3 25.3575 10.9011 129.1370 0.0000 -8.9384 0.0000
# 4 0.0000 0.0000 0.0000 21.9031 0.0000 -4.4129
# 5 -10.3118 -3.3445 -8.9384 0.0000 28.5205 0.0000
# 6 0.0000 0.0000 0.0000 -4.4129 0.0000 26.8911
#
#
#
# Elastic Compliance Matrix: (Units=1/GPa)
#
#
# Indices 1 2 3 4 5 6 
#
# 1 0.014037 -0.000127 -0.002449 0.000000 0.004293 0.000000
# 2 -0.000127 0.015152 -0.001160 0.000000 0.001368 0.000000
# 3 -0.002449 -0.001160 0.008435 0.000000 0.001622 0.000000
# 4 0.000000 0.000000 0.000000 0.047217 0.000000 0.007748
# 5 0.004293 0.001368 0.001622 0.000000 0.037283 0.000000
# 6 0.000000 0.000000 0.000000 0.007748 0.000000 0.038459
#
#
# Mechanical properties :
#
#
# Convention : Reuss Voigt Hill
#
# Bulk Modulus (GPa) = 33.16258 39.41406 36.28832
# Shear Modulus (GPa) = 28.07351 31.15350 29.61350
#
# Velocity S-wave (km/s) = 3.62112 3.81459 3.71912
# Velocity P-wave (km/s) = 5.74220 6.14906 5.94911
#
# Compressibility (1/GPa) = 0.03015447
#
# Stress axis : x y z
#
# Youngs Moduli (GPa) = 71.23948 65.99708 118.55825
#
# Poissons Ratio (x) = 0.00836 0.29029
# Poissons Ratio (y) = 0.00903 0.13747
# Poissons Ratio (z) = 0.17443 0.07653
#
# Static dielectric constant tensor:
#      x y z
#    x 1.761690 0.000000 -0.005880 
#    y 0.000000 1.742250 0.000000 
#    z -0.005880 0.000000 1.768420 
# 
# From -- ./inp_files/22531.got.cif
#   From: 2010.05.17/outbox.cif.g08.bks.cpg/sg15_12_cif.got.tgz:22531.got - 2010.06.03 18:47:42.
