data_PCOD9297166
_publ_section_title
;
Structure prediction by ZEFSAII (Michael W. Deem and Ramdas Pophale) SiO2 
 PCOD9297166
Probable space group: C 2/C
;
_chemical_formula_sum "Si O2"
_cell_formula_units_Z 40
_cell_length_a 17.880115
_cell_length_b 5.111955
_cell_length_c 19.645709
_cell_angle_alpha 90.000000
_cell_angle_beta 122.043580
_cell_angle_gamma 90.000000
_cell_volume 1522.085091
_symmetry_space_group_name_H-M "C 2/C"
_symmetry_group_IT_number 15
_symmetry_cell_setting 'monoclinic'
loop_
_space_group_symop_operation_xyz
x,y,z
-x,y,1/2-z
-x,-y,-z
x,-y,1/2+z
1/2+x,1/2+y,z
1/2-x,1/2+y,1/2-z
1/2-x,1/2-y,-z
1/2+x,1/2-y,1/2+z
loop_
_atom_site_type_symbol
_atom_site_label
_atom_site_fract_x
_atom_site_fract_y
_atom_site_fract_z
Si Si1 0.110651 0.436415 0.584263
Si Si2 0.296242 0.257951 0.699426
Si Si3 0.773883 0.859432 0.925899
Si Si4 0.449044 0.414192 0.877068
Si Si5 0.636667 0.485028 0.910613
O O1 0.204691 0.406985 0.669951
O O2 0.153351 0.629015 0.547229
O O3 0.037875 0.632146 0.580908
O O4 0.073809 0.142758 0.579821
O O5 0.369719 0.347526 0.787315
O O6 0.337369 0.330620 0.644573
O O7 0.260644 0.969078 0.662663
O O8 0.685756 0.757463 0.919359
O O9 0.819677 0.082199 0.994721
O O10 0.533763 0.492951 0.874584
#
# Coordination Sequence:
#
# PCOD9297166 Si02
#       5
#     8   8   8   8   8
#     4  11  25  45  71 102 143 188 230 296 359 424
#     4  11  23  46  71 100 144 194 235 288 358 431
#     4  10  23  49  75 102 147 193 239 284 371 428
#     4  12  26  44  71 107 144 181 244 299 353 414
#     4  10  25  44  72 109 141 193 236 303 349 433
#
# _framework density 26.279738999999999
#
# number of rings (size 3 to 8) (size 9 to 14) (size 15 to 20)
#    0.000    1.200    2.000    2.400    8.400    1.600 
#    0.000    0.000    0.000    0.000    0.000    0.000 
#    0.000    0.000    0.000    0.000    0.000    0.000 
#
# Total GULP energy -111510.003578 kJ/mol
# GULP energy per Si atom -5575.500179 kJ/mol
# Density = 2.621993 g / cm^3
# Si number density = 26.279739 Si / 1000 Ang^3
#
#
#
# Elastic Constant Matrix: (Units=GPa)
#
#
# Indices 1 2 3 4 5 6 
#
# 1 186.4775 46.6100 17.2798 0.0000 -3.0705 0.0000
# 2 46.6100 168.2108 34.0526 -0.0002 -5.7711 0.0000
# 3 17.2798 34.0526 97.9038 -0.0001 -8.6044 0.0000
# 4 0.0000 -0.0002 -0.0001 21.7095 0.0000 1.7352
# 5 -3.0705 -5.7711 -8.6044 0.0000 43.7018 0.0000
# 6 0.0000 0.0000 0.0000 1.7352 0.0000 38.5978
#
#
#
# Elastic Compliance Matrix: (Units=1/GPa)
#
#
# Indices 1 2 3 4 5 6 
#
# 1 0.005785 -0.001500 -0.000489 0.000000 0.000112 0.000000
# 2 -0.001500 0.006792 -0.002064 0.000000 0.000385 0.000000
# 3 -0.000489 -0.002064 0.011185 0.000000 0.001895 0.000000
# 4 0.000000 0.000000 0.000000 0.046229 0.000000 -0.002078
# 5 0.000112 0.000385 0.001895 0.000000 0.023314 0.000000
# 6 0.000000 0.000000 0.000000 -0.002078 0.000000 0.026002
#
#
# Mechanical properties :
#
#
# Convention : Reuss Voigt Hill
#
# Bulk Modulus (GPa) = 63.87731 72.05298 67.96514
# Shear Modulus (GPa) = 37.69880 44.44512 41.07196
#
# Velocity S-wave (km/s) = 3.79161 4.11692 3.95761
# Velocity P-wave (km/s) = 6.59757 7.07643 6.84119
#
# Compressibility (1/GPa) = 0.01565501
#
# Stress axis : x y z
#
# Youngs Moduli (GPa) = 172.87004 147.24225 89.40686
#
# Poissons Ratio (x) = 0.22086 0.04376
# Poissons Ratio (y) = 0.25930 0.18450
# Poissons Ratio (z) = 0.08461 0.30385
#
# Static dielectric constant tensor:
#      x y z
#    x 2.059000 0.000000 -0.085320 
#    y 0.000000 2.141590 0.000000 
#    z -0.085320 0.000000 2.246200 
# 
# From -- ./inp_files/246303.got.cif
#   From: 2010.05.17/outbox.cif.g08.bks.cpg/sg15_124_cif.got.tgz:246303.got - 2010.06.03 18:47:42.
