data_PCOD9297357
_publ_section_title
;
Structure prediction by ZEFSAII (Michael W. Deem and Ramdas Pophale) SiO2 
 PCOD9297357
Probable space group: C 2/C
;
_chemical_formula_sum "Si O2"
_cell_formula_units_Z 44
_cell_length_a 11.819882
_cell_length_b 24.757898
_cell_length_c 9.525723
_cell_angle_alpha 90.000000
_cell_angle_beta 123.675882
_cell_angle_gamma 90.000000
_cell_volume 2319.776267
_symmetry_space_group_name_H-M "C 2/C"
_symmetry_group_IT_number 15
_symmetry_cell_setting 'monoclinic'
loop_
_space_group_symop_operation_xyz
x,y,z
-x,y,1/2-z
-x,-y,-z
x,-y,1/2+z
1/2+x,1/2+y,z
1/2-x,1/2+y,1/2-z
1/2-x,1/2-y,-z
1/2+x,1/2-y,1/2+z
loop_
_atom_site_type_symbol
_atom_site_label
_atom_site_fract_x
_atom_site_fract_y
_atom_site_fract_z
Si Si1 0.086108 0.278915 0.519698
Si Si2 0.692219 0.199631 0.778395
Si Si3 0.310915 0.527862 0.370182
Si Si4 0.074688 0.389024 0.661860
Si Si5 0.883334 0.575861 0.789563
Si Si6 0.000000 0.001020 0.250000
O O1 0.163970 0.228653 0.640554
O O2 0.137290 0.284511 0.394865
O O3 0.122463 0.336143 0.613007
O O4 0.922817 0.277175 0.405053
O O5 0.687062 0.134823 0.767124
O O6 0.199551 0.573794 0.287776
O O7 0.227662 0.471145 0.302908
O O8 0.406890 0.532437 0.298810
O O9 0.398781 0.529944 0.573605
O O10 0.000000 0.370759 0.750000
O O11 0.968704 0.423010 0.493026
O O12 0.000000 0.571727 0.750000
#
# Coordination Sequence:
#
# PCOD9297357 Si02
#       6
#     8   8   8   8   8   4
#     4   9  18  35  55  85 114 148 193 244 290 338
#     4   9  17  35  57  84 112 147 198 246 279 341
#     4  11  22  39  58  84 119 159 192 238 299 346
#     4  11  21  36  60  89 117 149 193 247 295 347
#     4  11  19  36  62  88 112 148 205 248 284 339
#     4  10  24  40  52  78 130 154 196 234 276 368
#
# _framework density 18.967347
#
# number of rings (size 3 to 8) (size 9 to 14) (size 15 to 20)
#    0.000    1.818    3.636    3.273    0.000    0.000 
#    6.545    3.636    2.000    0.000    0.000    0.000 
#    0.000    0.000    0.000    0.000    0.000    0.000 
#
# Total GULP energy -122683.239621 kJ/mol
# GULP energy per Si atom -5576.510892 kJ/mol
# Density = 1.892418 g / cm^3
# Si number density = 18.967347 Si / 1000 Ang^3
#
#
#
# Elastic Constant Matrix: (Units=GPa)
#
#
# Indices 1 2 3 4 5 6 
#
# 1 51.9372 42.1585 25.0578 0.0000 14.7424 0.0000
# 2 42.1585 66.6245 17.8286 0.0000 24.8382 0.0000
# 3 25.0578 17.8286 79.8127 0.0000 2.6208 0.0000
# 4 0.0000 0.0000 0.0000 8.5321 0.0000 -16.3023
# 5 14.7424 24.8382 2.6208 0.0000 18.7780 0.0000
# 6 0.0000 0.0000 0.0000 -16.3023 0.0000 82.5545
#
#
#
# Elastic Compliance Matrix: (Units=1/GPa)
#
#
# Indices 1 2 3 4 5 6 
#
# 1 0.044004 -0.026114 -0.008019 0.000000 0.001114 0.000000
# 2 -0.026114 0.047576 -0.001040 0.000000 -0.042282 0.000000
# 3 -0.008019 -0.001040 0.015096 0.000000 0.005564 0.000000
# 4 0.000000 0.000000 0.000000 0.188223 0.000000 0.037169
# 5 0.001114 -0.042282 0.005564 0.000000 0.107531 0.000000
# 6 0.000000 0.000000 0.000000 0.037169 0.000000 0.019453
#
#
# Mechanical properties :
#
#
# Convention : Reuss Voigt Hill
#
# Bulk Modulus (GPa) = 27.52563 40.94048 34.23305
# Shear Modulus (GPa) = 9.91397 29.52823 19.72110
#
# Velocity S-wave (km/s) = 2.28871 3.94990 3.22800
# Velocity P-wave (km/s) = 4.63982 6.51413 5.65516
#
# Compressibility (1/GPa) = 0.03632978
#
# Stress axis : x y z
#
# Youngs Moduli (GPa) = 22.72522 21.01911 66.24059
#
# Poissons Ratio (x) = 0.54890 0.53115
# Poissons Ratio (y) = 0.59346 0.06891
# Poissons Ratio (z) = 0.18222 0.02187
#
# Static dielectric constant tensor:
#      x y z
#    x 1.661160 0.000000 0.009080 
#    y 0.000000 1.630090 0.000000 
#    z 0.009080 0.000000 1.695170 
# 
# From -- ./inp_files/32732.got.cif
#   From: 2010.05.17/outbox.cif.g08.bks.cpg/sg15_17_cif.got.tgz:32732.got - 2010.06.03 18:47:42.
