data_PCOD9297632
_publ_section_title
;
Structure prediction by ZEFSAII (Michael W. Deem and Ramdas Pophale) SiO2 
 PCOD9297632
Probable space group: C 2/C
;
_chemical_formula_sum "Si O2"
_cell_formula_units_Z 48
_cell_length_a 27.526268
_cell_length_b 9.670199
_cell_length_c 14.440946
_cell_angle_alpha 90.000000
_cell_angle_beta 143.865908
_cell_angle_gamma 90.000000
_cell_volume 2266.692427
_symmetry_space_group_name_H-M "C 2/C"
_symmetry_group_IT_number 15
_symmetry_cell_setting 'monoclinic'
loop_
_space_group_symop_operation_xyz
x,y,z
-x,y,1/2-z
-x,-y,-z
x,-y,1/2+z
1/2+x,1/2+y,z
1/2-x,1/2+y,1/2-z
1/2-x,1/2-y,-z
1/2+x,1/2-y,1/2+z
loop_
_atom_site_type_symbol
_atom_site_label
_atom_site_fract_x
_atom_site_fract_y
_atom_site_fract_z
Si Si1 0.956753 0.762038 0.777414
Si Si2 0.911913 0.423824 0.363332
Si Si3 0.094427 0.870581 0.131589
Si Si4 0.272038 0.147849 0.183764
Si Si5 0.378783 0.346933 0.926009
Si Si6 0.605799 0.432060 0.349368
O O1 0.000000 0.711197 0.750000
O O2 0.903688 0.647881 0.749587
O O3 0.908349 0.903212 0.678487
O O4 0.028504 0.803997 0.960706
O O5 0.841768 0.532591 0.281081
O O6 0.904210 0.298981 0.424210
O O7 0.000000 0.500000 0.500000
O O8 0.180395 0.791534 0.252012
O O9 0.103947 0.030068 0.118482
O O10 0.069833 0.864597 0.201324
O O11 0.218280 0.149269 0.195206
O O12 0.202189 0.111862 0.000445
O O13 0.420504 0.383703 0.088798
#
# Coordination Sequence:
#
# PCOD9297632 Si02
#       6
#     8   8   8   8   8   8
#     4  12  24  44  70 104 142 191 247 301 374 438
#     4  12  25  48  71 111 150 190 242 319 371 431
#     4  12  21  45  69  97 147 184 243 312 359 445
#     4  10  24  46  69 106 145 189 252 298 381 444
#     4  10  24  43  74  99 142 196 249 295 375 447
#     4  10  24  41  71 103 132 194 247 290 368 442
#
# _framework density 21.17623
#
# number of rings (size 3 to 8) (size 9 to 14) (size 15 to 20)
#    1.000    0.000    5.000    2.000    0.000    0.667 
#    6.000    0.000    0.000    0.000    0.000    0.000 
#    0.000    0.000    0.000    0.000    0.000    0.000 
#
# Total GULP energy -134058.814214 kJ/mol
# GULP energy per Si atom -5585.783926 kJ/mol
# Density = 2.112803 g / cm^3
# Si number density = 21.176230 Si / 1000 Ang^3
#
#
#
# Elastic Constant Matrix: (Units=GPa)
#
#
# Indices 1 2 3 4 5 6 
#
# 1 145.5189 45.4595 52.4639 0.0000 -12.4056 0.0000
# 2 45.4595 102.7191 47.4548 0.0000 -1.0656 0.0000
# 3 52.4639 47.4548 96.3507 0.0000 0.6061 0.0000
# 4 0.0000 0.0000 0.0000 31.1485 0.0000 12.0298
# 5 -12.4056 -1.0656 0.6061 0.0000 42.0638 0.0000
# 6 0.0000 0.0000 0.0000 12.0298 0.0000 45.5040
#
#
#
# Elastic Compliance Matrix: (Units=1/GPa)
#
#
# Indices 1 2 3 4 5 6 
#
# 1 0.009221 -0.002233 -0.003938 0.000000 0.002720 0.000000
# 2 -0.002233 0.013151 -0.005259 0.000000 -0.000250 0.000000
# 3 -0.003938 -0.005259 0.015123 0.000000 -0.001513 0.000000
# 4 0.000000 0.000000 0.000000 0.035755 0.000000 -0.009452
# 5 0.002720 -0.000250 -0.001513 0.000000 0.024591 0.000000
# 6 0.000000 0.000000 0.000000 -0.009452 0.000000 0.024475
#
#
# Mechanical properties :
#
#
# Convention : Reuss Voigt Hill
#
# Bulk Modulus (GPa) = 68.33774 70.59392 69.46583
# Shear Modulus (GPa) = 33.32087 37.02396 35.17242
#
# Velocity S-wave (km/s) = 3.97104 4.18589 4.07988
# Velocity P-wave (km/s) = 7.30525 7.53465 7.42084
#
# Compressibility (1/GPa) = 0.01463320
#
# Stress axis : x y z
#
# Youngs Moduli (GPa) = 108.44362 76.04045 66.12419
#
# Poissons Ratio (x) = 0.16983 0.26041
# Poissons Ratio (y) = 0.24220 0.34778
# Poissons Ratio (z) = 0.42708 0.39993
#
# Static dielectric constant tensor:
#      x y z
#    x 1.850720 0.000000 0.057580 
#    y 0.000000 1.738930 0.000000 
#    z 0.057580 0.000000 1.798030 
# 
# From -- ./inp_files/180889.got.cif
#   From: 2010.05.17/outbox.cif.g08.bks.cpg/sg15_91_cif.got.tgz:180889.got - 2010.06.03 18:47:42.
