data_PCOD9297188
_publ_section_title
;
Structure prediction by ZEFSAII (Michael W. Deem and Ramdas Pophale) SiO2 
 PCOD9297188
Probable space group: C 2/C
;
_chemical_formula_sum "Si O2"
_cell_formula_units_Z 64
_cell_length_a 24.313568
_cell_length_b 8.677027
_cell_length_c 19.819186
_cell_angle_alpha 90.000000
_cell_angle_beta 37.197309
_cell_angle_gamma 90.000000
_cell_volume 2527.819684
_symmetry_space_group_name_H-M "C 2/C"
_symmetry_group_IT_number 15
_symmetry_cell_setting 'monoclinic'
loop_
_space_group_symop_operation_xyz
x,y,z
-x,y,1/2-z
-x,-y,-z
x,-y,1/2+z
1/2+x,1/2+y,z
1/2-x,1/2+y,1/2-z
1/2-x,1/2-y,-z
1/2+x,1/2-y,1/2+z
loop_
_atom_site_type_symbol
_atom_site_label
_atom_site_fract_x
_atom_site_fract_y
_atom_site_fract_z
Si Si1 0.304754 0.609874 0.661269
Si Si2 0.723526 0.089267 0.559263
Si Si3 0.267855 0.270706 0.639644
Si Si4 0.658138 0.709533 0.228828
Si Si5 0.112762 0.661658 0.180260
Si Si6 0.600406 0.492166 0.660968
Si Si7 0.042469 0.403124 0.563186
Si Si8 0.019239 0.725266 0.517993
O O1 0.278017 0.438126 0.665829
O O2 0.276650 0.647699 0.765177
O O3 0.253457 0.748709 0.670622
O O4 0.410588 0.636211 0.547009
O O5 0.750000 0.250000 0.500000
O O6 0.655225 0.137408 0.684933
O O7 0.661858 0.962670 0.582969
O O8 0.826588 0.035051 0.469832
O O9 0.196673 0.304870 0.649811
O O10 0.364667 0.195657 0.525576
O O11 0.642060 0.571903 0.191181
O O12 0.578872 0.719951 0.360385
O O13 0.093903 0.826587 0.168733
O O14 0.022240 0.612680 0.308658
O O15 0.500000 0.422309 0.750000
O O16 0.052557 0.582285 0.531909
O O17 0.987737 0.333720 0.551850
#
# Coordination Sequence:
#
# PCOD9297188 Si02
#       8
#     8   8   8   8   8   8   8   8
#     4  12  25  42  71 106 152 196 236 285 359 447
#     4  10  23  51  73  95 133 191 245 310 355 425
#     4  12  26  42  71 107 153 195 236 285 365 449
#     4  11  24  46  74 100 147 193 238 295 372 426
#     4  12  25  47  74 104 145 190 234 310 370 424
#     4  11  29  48  74 105 138 185 260 317 363 418
#     4  11  24  42  67 107 152 187 233 283 362 449
#     4  11  23  42  68 105 148 189 234 285 350 458
#
# _framework density 25.318262000000001
#
# number of rings (size 3 to 8) (size 9 to 14) (size 15 to 20)
#    0.000    0.750    5.000    1.125    8.750    0.500 
#    0.000    2.500    0.000    0.000    0.000    0.000 
#    0.000    0.000    0.000    0.000    0.000    0.000 
#
# Total GULP energy -178885.908868 kJ/mol
# GULP energy per Si atom -5590.184652 kJ/mol
# Density = 2.526064 g / cm^3
# Si number density = 25.318262 Si / 1000 Ang^3
#
#
#
# Elastic Constant Matrix: (Units=GPa)
#
#
# Indices 1 2 3 4 5 6 
#
# 1 57.7453 23.4394 16.5671 0.0041 -10.8699 -0.0022
# 2 23.4394 87.3106 36.7775 0.0200 -3.2471 -0.0143
# 3 16.5671 36.7775 154.4705 0.0068 -22.7068 -0.0058
# 4 0.0041 0.0200 0.0068 46.9676 -0.0043 0.2049
# 5 -10.8699 -3.2471 -22.7068 -0.0043 41.0711 0.0026
# 6 -0.0022 -0.0143 -0.0058 0.2049 0.0026 33.9762
#
#
#
# Elastic Compliance Matrix: (Units=1/GPa)
#
#
# Indices 1 2 3 4 5 6 
#
# 1 0.020410 -0.005199 -0.000237 0.000001 0.004860 -0.000001
# 2 -0.005199 0.014074 -0.003083 -0.000005 -0.001967 0.000005
# 3 -0.000237 -0.003083 0.007824 0.000001 0.004019 0.000000
# 4 0.000001 -0.000005 0.000001 0.021292 0.000002 -0.000128
# 5 0.004860 -0.001967 0.004019 0.000002 0.027701 -0.000002
# 6 -0.000001 0.000005 0.000000 -0.000128 -0.000002 0.029433
#
#
# Mechanical properties :
#
#
# Convention : Reuss Voigt Hill
#
# Bulk Modulus (GPa) = 39.56938 50.34383 44.95660
# Shear Modulus (GPa) = 34.20089 39.25247 36.72668
#
# Velocity S-wave (km/s) = 3.67936 3.94174 3.81281
# Velocity P-wave (km/s) = 5.80629 6.37526 6.09741
#
# Compressibility (1/GPa) = 0.02527207
#
# Stress axis : x y z
#
# Youngs Moduli (GPa) = 48.99444 71.05128 127.81426
#
# Poissons Ratio (x) = 0.36939 0.03027
# Poissons Ratio (y) = 0.25472 0.39399
# Poissons Ratio (z) = 0.01160 0.21902
#
# Static dielectric constant tensor:
#      x y z
#    x 2.108640 0.000000 0.050210 
#    y 0.000000 2.032420 0.000000 
#    z 0.050210 0.000000 1.996530 
# 
# From -- ./inp_files/284425.got.cif
#   From: 2010.05.17/outbox.cif.g08.bks.cpg/sg15_143_cif.got.tgz:284425.got - 2010.06.03 18:47:42.
