data_PCOD9297646
_publ_section_title
;
Structure prediction by ZEFSAII (Michael W. Deem and Ramdas Pophale) SiO2 
 PCOD9297646
Probable space group: C 2/C
;
_chemical_formula_sum "Si O2"
_cell_formula_units_Z 48
_cell_length_a 9.565964
_cell_length_b 14.964810
_cell_length_c 25.346143
_cell_angle_alpha 90.000000
_cell_angle_beta 39.834768
_cell_angle_gamma 90.000000
_cell_volume 2324.247379
_symmetry_space_group_name_H-M "C 2/C"
_symmetry_group_IT_number 15
_symmetry_cell_setting 'monoclinic'
loop_
_space_group_symop_operation_xyz
x,y,z
-x,y,1/2-z
-x,-y,-z
x,-y,1/2+z
1/2+x,1/2+y,z
1/2-x,1/2+y,1/2-z
1/2-x,1/2-y,-z
1/2+x,1/2-y,1/2+z
loop_
_atom_site_type_symbol
_atom_site_label
_atom_site_fract_x
_atom_site_fract_y
_atom_site_fract_z
Si Si1 0.661789 0.006766 0.821181
Si Si2 0.453319 0.744210 0.514460
Si Si3 0.039799 0.293961 0.367490
Si Si4 0.172963 0.431532 0.925909
Si Si5 0.804773 0.930191 0.563328
Si Si6 0.135767 0.899374 0.832728
O O1 0.657389 0.113675 0.821355
O O2 0.766896 0.971813 0.844788
O O3 0.412934 0.971387 0.897251
O O4 0.760128 0.963133 0.740619
O O5 0.208079 0.704228 0.582437
O O6 0.516404 0.777177 0.437086
O O7 0.435922 0.834985 0.552452
O O8 0.616927 0.665206 0.482286
O O9 0.158914 0.205295 0.311480
O O10 0.373882 0.415488 0.907683
O O11 0.000000 0.500000 0.000000
O O12 0.774457 0.915967 0.635016
O O13 0.000000 0.000000 0.500000
#
# Coordination Sequence:
#
# PCOD9297646 Si02
#       6
#     8   8   8   8   8   8
#     4  12  22  39  62  92 120 153 198 254 296 344
#     4   9  18  37  62  86 114 156 202 236 286 362
#     4   9  18  38  63  79 117 169 191 223 304 372
#     4  11  21  39  64  89 115 157 203 243 290 351
#     4  11  21  39  64  89 115 157 203 243 290 351
#     4  10  24  42  57  86 125 158 195 236 305 368
#
# _framework density 20.651847
#
# number of rings (size 3 to 8) (size 9 to 14) (size 15 to 20)
#    0.000    1.667    3.333    3.000    0.000    0.667 
#    6.000    3.333    0.000    0.000    0.000    0.000 
#    0.000    0.000    0.000    0.000    0.000    0.000 
#
# Total GULP energy -134099.365982 kJ/mol
# GULP energy per Si atom -5587.473583 kJ/mol
# Density = 2.060484 g / cm^3
# Si number density = 20.651847 Si / 1000 Ang^3
#
#
#
# Elastic Constant Matrix: (Units=GPa)
#
#
# Indices 1 2 3 4 5 6 
#
# 1 42.5038 5.3143 -15.2736 -0.0006 -3.1051 -0.0002
# 2 5.3143 170.2193 33.1158 -0.0016 8.5993 -0.0004
# 3 -15.2736 33.1158 47.0153 -0.0015 10.1043 -0.0011
# 4 -0.0006 -0.0016 -0.0015 33.6670 -0.0009 -1.7639
# 5 -3.1051 8.5993 10.1043 -0.0009 26.9539 0.0001
# 6 -0.0002 -0.0004 -0.0011 -1.7639 0.0001 24.3124
#
#
#
# Elastic Compliance Matrix: (Units=1/GPa)
#
#
# Indices 1 2 3 4 5 6 
#
# 1 0.027946 -0.003058 0.011236 0.000001 -0.000017 0.000001
# 2 -0.003058 0.007146 -0.005940 0.000000 -0.000406 0.000000
# 3 0.011236 -0.005940 0.030908 0.000001 -0.008397 0.000001
# 4 0.000001 0.000000 0.000001 0.029816 0.000001 0.002163
# 5 -0.000017 -0.000406 -0.008397 0.000001 0.040376 0.000000
# 6 0.000001 0.000000 0.000001 0.002163 0.000000 0.041288
#
#
# Mechanical properties :
#
#
# Convention : Reuss Voigt Hill
#
# Bulk Modulus (GPa) = 14.18885 34.00572 24.09728
# Shear Modulus (GPa) = 25.44584 32.75876 29.10230
#
# Velocity S-wave (km/s) = 3.51398 3.98708 3.75799
# Velocity P-wave (km/s) = 4.83213 6.13985 5.52482
#
# Compressibility (1/GPa) = 0.07047790
#
# Stress axis : x y z
#
# Youngs Moduli (GPa) = 35.78336 139.93302 32.35379
#
# Poissons Ratio (x) = 0.42785 -0.36353
# Poissons Ratio (y) = 0.10941 0.19217
# Poissons Ratio (z) = -0.40206 0.83116
#
# Static dielectric constant tensor:
#      x y z
#    x 1.738750 0.000000 -0.011430 
#    y 0.000000 1.731870 0.000000 
#    z -0.011430 0.000000 1.737380 
# 
# From -- ./inp_files/289003.got.cif
#   From: 2010.05.17/outbox.cif.g08.bks.cpg/sg15_145_cif.got.tgz:289003.got - 2010.06.03 18:47:42.
