data_PCOD9297576
_publ_section_title
;
Structure prediction by ZEFSAII (Michael W. Deem and Ramdas Pophale) SiO2 
 PCOD9297576
Probable space group: C 2/C
;
_chemical_formula_sum "Si O2"
_cell_formula_units_Z 40
_cell_length_a 17.599249
_cell_length_b 7.798616
_cell_length_c 16.313098
_cell_angle_alpha 90.000000
_cell_angle_beta 126.734384
_cell_angle_gamma 90.000000
_cell_volume 1794.347651
_symmetry_space_group_name_H-M "C 2/C"
_symmetry_group_IT_number 15
_symmetry_cell_setting 'monoclinic'
loop_
_space_group_symop_operation_xyz
x,y,z
-x,y,1/2-z
-x,-y,-z
x,-y,1/2+z
1/2+x,1/2+y,z
1/2-x,1/2+y,1/2-z
1/2-x,1/2-y,-z
1/2+x,1/2-y,1/2+z
loop_
_atom_site_type_symbol
_atom_site_label
_atom_site_fract_x
_atom_site_fract_y
_atom_site_fract_z
Si Si1 0.654718 0.589166 0.211669
Si Si2 0.939140 0.459857 0.583493
Si Si3 0.147911 0.769447 0.893761
Si Si4 0.863032 0.456881 0.358883
Si Si5 0.527131 0.415277 0.362660
O O1 0.651994 0.664564 0.303030
O O2 0.758871 0.514392 0.264817
O O3 0.634597 0.750795 0.141547
O O4 0.570383 0.450909 0.151525
O O5 0.903597 0.586895 0.630548
O O6 0.887934 0.518446 0.466482
O O7 0.919793 0.259239 0.581901
O O8 0.051614 0.478416 0.642707
O O9 0.089319 0.912751 0.906339
O O10 0.250000 0.750000 0.000000
O O11 0.500000 0.395103 0.250000
#
# Coordination Sequence:
#
# PCOD9297576 Si02
#       5
#     8   8   8   8   8
#     4  11  23  43  65 100 136 170 219 278 330 394
#     4  11  24  44  66  95 129 176 220 270 330 398
#     4  11  23  45  68  93 133 173 219 276 326 391
#     4  11  24  41  66  97 133 171 218 269 343 391
#     4  10  24  41  66  96 127 168 226 268 322 395
#
# _framework density 22.292224999999998
#
# number of rings (size 3 to 8) (size 9 to 14) (size 15 to 20)
#    0.000    1.200    4.000    1.200    2.800    3.200 
#    0.000    0.000    0.000    0.000    0.000    0.000 
#    0.000    0.000    0.000    0.000    0.000    0.000 
#
# Total GULP energy -111897.111666 kJ/mol
# GULP energy per Si atom -5594.855583 kJ/mol
# Density = 2.224149 g / cm^3
# Si number density = 22.292225 Si / 1000 Ang^3
#
#
#
# Elastic Constant Matrix: (Units=GPa)
#
#
# Indices 1 2 3 4 5 6 
#
# 1 59.2823 11.8247 19.5904 0.0000 19.7853 0.0000
# 2 11.8247 104.7833 11.5561 0.0000 4.0808 0.0000
# 3 19.5904 11.5561 46.1867 0.0000 12.0000 0.0000
# 4 0.0000 0.0000 0.0000 36.0462 0.0000 3.8271
# 5 19.7853 4.0808 12.0000 0.0000 25.0537 0.0000
# 6 0.0000 0.0000 0.0000 3.8271 0.0000 21.6629
#
#
#
# Elastic Compliance Matrix: (Units=1/GPa)
#
#
# Indices 1 2 3 4 5 6 
#
# 1 0.024540 -0.001494 -0.005783 0.000000 -0.016366 0.000000
# 2 -0.001494 0.009910 -0.001979 0.000000 0.000514 0.000000
# 3 -0.005783 -0.001979 0.026645 0.000000 -0.007873 0.000000
# 4 0.000000 0.000000 0.000000 0.028273 0.000000 -0.004995
# 5 -0.016366 0.000514 -0.007873 0.000000 0.056526 0.000000
# 6 0.000000 0.000000 0.000000 -0.004995 0.000000 0.047044
#
#
# Mechanical properties :
#
#
# Convention : Reuss Voigt Hill
#
# Bulk Modulus (GPa) = 23.48382 32.91053 28.19717
# Shear Modulus (GPa) = 22.15881 27.70463 24.93172
#
# Velocity S-wave (km/s) = 3.15622 3.52915 3.34788
# Velocity P-wave (km/s) = 4.88259 5.60373 5.25555
#
# Compressibility (1/GPa) = 0.04258251
#
# Stress axis : x y z
#
# Youngs Moduli (GPa) = 40.75057 100.90409 37.53082
#
# Poissons Ratio (x) = 0.15077 0.21703
# Poissons Ratio (y) = 0.06089 0.07429
# Poissons Ratio (z) = 0.23564 0.19973
#
# Static dielectric constant tensor:
#      x y z
#    x 1.818480 0.000000 -0.016850 
#    y 0.000000 1.843820 0.000000 
#    z -0.016850 0.000000 1.803070 
# 
# From -- ./inp_files/176071.got.cif
#   From: 2010.05.17/outbox.cif.g08.bks.cpg/sg15_89_cif.got.tgz:176071.got - 2010.06.03 18:47:42.
