data_PCOD9297055
_publ_section_title
;
Structure prediction by ZEFSAII (Michael W. Deem and Ramdas Pophale) SiO2 
 PCOD9297055
Probable space group: C 2/C
;
_chemical_formula_sum "Si O2"
_cell_formula_units_Z 56
_cell_length_a 12.588997
_cell_length_b 27.305183
_cell_length_c 7.156186
_cell_angle_alpha 90.000000
_cell_angle_beta 60.734090
_cell_angle_gamma 90.000000
_cell_volume 2145.921005
_symmetry_space_group_name_H-M "C 2/C"
_symmetry_group_IT_number 15
_symmetry_cell_setting 'monoclinic'
loop_
_space_group_symop_operation_xyz
x,y,z
-x,y,1/2-z
-x,-y,-z
x,-y,1/2+z
1/2+x,1/2+y,z
1/2-x,1/2+y,1/2-z
1/2-x,1/2-y,-z
1/2+x,1/2-y,1/2+z
loop_
_atom_site_type_symbol
_atom_site_label
_atom_site_fract_x
_atom_site_fract_y
_atom_site_fract_z
Si Si1 0.749642 0.126692 0.799510
Si Si2 0.907295 0.535351 0.695651
Si Si3 0.377343 0.883915 0.726819
Si Si4 0.838904 0.267673 0.201848
Si Si5 0.705845 0.530792 0.358165
Si Si6 0.599697 0.220937 0.431216
Si Si7 0.538188 0.436284 0.494379
O O1 0.669125 0.077995 0.831293
O O2 0.701485 0.175785 0.750969
O O3 0.881652 0.111241 0.613214
O O4 0.723329 0.134568 0.039222
O O5 0.807512 0.500209 0.883507
O O6 0.000000 0.562039 0.750000
O O7 0.000000 0.500000 0.500000
O O8 0.500000 0.895657 0.750000
O O9 0.301323 0.928484 0.696369
O O10 0.407878 0.838202 0.570446
O O11 0.723928 0.237706 0.226795
O O12 0.875916 0.256786 0.384200
O O13 0.965739 0.262502 0.982890
O O14 0.623276 0.483330 0.362481
O O15 0.588180 0.562653 0.509495
O O16 0.500000 0.560740 0.250000
#
# Coordination Sequence:
#
# PCOD9297055 Si02
#       7
#     8   8   8   8   8   8   8
#     4  11  25  41  67 101 137 182 240 281 354 426
#     4  11  24  38  64 100 137 183 234 291 342 410
#     4  12  24  43  68 105 140 183 227 295 353 420
#     4  10  23  47  73 104 134 181 234 290 357 430
#     4  10  24  40  64  91 140 186 239 285 347 415
#     4  10  24  45  74 101 142 177 229 295 355 428
#     4  10  25  43  64  94 140 195 241 294 348 414
#
# _framework density 26.096021
#
# number of rings (size 3 to 8) (size 9 to 14) (size 15 to 20)
#    0.000    1.429    1.429    2.143   14.000    1.714 
#    2.571    0.000    0.000    0.000    0.000    0.000 
#    0.000    0.000    0.000    0.000    0.000    0.000 
#
# Total GULP energy -155905.060495 kJ/mol
# GULP energy per Si atom -5568.037875 kJ/mol
# Density = 2.603662 g / cm^3
# Si number density = 26.096021 Si / 1000 Ang^3
#
#
#
# Elastic Constant Matrix: (Units=GPa)
#
#
# Indices 1 2 3 4 5 6 
#
# 1 162.5985 62.4693 66.4428 0.0000 -73.2301 0.0000
# 2 62.4693 96.9470 30.4995 0.0000 -37.1950 0.0000
# 3 66.4428 30.4995 114.2106 0.0000 -36.1210 0.0000
# 4 0.0000 0.0000 0.0000 35.8047 0.0000 -2.7269
# 5 -73.2301 -37.1950 -36.1210 0.0000 58.1445 0.0000
# 6 0.0000 0.0000 0.0000 -2.7269 0.0000 27.1668
#
#
#
# Elastic Compliance Matrix: (Units=1/GPa)
#
#
# Indices 1 2 3 4 5 6 
#
# 1 0.015896 -0.003053 -0.003383 0.000000 0.015965 0.000000
# 2 -0.003053 0.014369 -0.000461 0.000000 0.005060 0.000000
# 3 -0.003383 -0.000461 0.011706 0.000000 0.002717 0.000000
# 4 0.000000 0.000000 0.000000 0.028144 0.000000 0.002825
# 5 0.015965 0.005060 0.002717 0.000000 0.042231 0.000000
# 6 0.000000 0.000000 0.000000 0.002825 0.000000 0.037093
#
#
# Mechanical properties :
#
#
# Convention : Reuss Voigt Hill
#
# Bulk Modulus (GPa) = 35.48953 76.95324 56.22139
# Shear Modulus (GPa) = 28.96460 38.51284 33.73872
#
# Velocity S-wave (km/s) = 3.33517 3.84580 3.59955
# Velocity P-wave (km/s) = 5.33481 7.01945 6.23430
#
# Compressibility (1/GPa) = 0.02817732
#
# Stress axis : x y z
#
# Youngs Moduli (GPa) = 62.90942 69.59656 85.42611
#
# Poissons Ratio (x) = 0.21249 0.28899
# Poissons Ratio (y) = 0.19207 0.03934
# Poissons Ratio (z) = 0.21281 0.03205
#
# Static dielectric constant tensor:
#      x y z
#    x 2.097820 0.000000 0.054260 
#    y 0.000000 1.995640 0.000000 
#    z 0.054260 0.000000 2.252560 
# 
# From -- ./inp_files/35598.got.cif
#   From: 2010.05.17/outbox.cif.g08.bks.cpg/sg15_18_cif.got.tgz:35598.got - 2010.06.03 18:47:42.
