data_PCOD9297380
_publ_section_title
;
Structure prediction by ZEFSAII (Michael W. Deem and Ramdas Pophale) SiO2 
 PCOD9297380
Probable space group: C 2/C
;
_chemical_formula_sum "Si O2"
_cell_formula_units_Z 36
_cell_length_a 18.035857
_cell_length_b 15.473527
_cell_length_c 5.162250
_cell_angle_alpha 90.000000
_cell_angle_beta 76.398390
_cell_angle_gamma 90.000000
_cell_volume 1400.267536
_symmetry_space_group_name_H-M "C 2/C"
_symmetry_group_IT_number 15
_symmetry_cell_setting 'monoclinic'
loop_
_space_group_symop_operation_xyz
x,y,z
-x,y,1/2-z
-x,-y,-z
x,-y,1/2+z
1/2+x,1/2+y,z
1/2-x,1/2+y,1/2-z
1/2-x,1/2-y,-z
1/2+x,1/2-y,1/2+z
loop_
_atom_site_type_symbol
_atom_site_label
_atom_site_fract_x
_atom_site_fract_y
_atom_site_fract_z
Si Si1 0.577933 0.825600 0.306680
Si Si2 0.277244 0.941630 0.168524
Si Si3 0.322019 0.688743 0.483017
Si Si4 0.419122 0.438028 0.611093
Si Si5 0.500000 0.701033 0.750000
O O1 0.500000 0.863365 0.250000
O O2 0.644255 0.890963 0.332669
O O3 0.609270 0.757557 0.063796
O O4 0.559193 0.769224 0.575474
O O5 0.207061 0.875272 0.270696
O O6 0.274794 0.014777 0.392118
O O7 0.250000 0.750000 0.500000
O O8 0.348606 0.625558 0.231824
O O9 0.417097 0.499465 0.362288
O O10 0.489027 0.371689 0.488705
#
# Coordination Sequence:
#
# PCOD9297380 Si02
#       5
#     8   8   8   8   4
#     4  10  24  44  70 101 140 185 230 286 352 422
#     4  11  25  47  72 101 137 184 236 291 343 409
#     4   9  21  45  67 100 133 184 229 284 340 416
#     4  11  23  39  64  94 130 172 220 277 333 400
#     4  10  24  40  62  94 138 178 220 270 344 416
#
# _framework density 25.709371000000001
#
# number of rings (size 3 to 8) (size 9 to 14) (size 15 to 20)
#    0.000    1.778    0.000    2.000    9.333    0.889 
#    4.000    4.444    0.000    0.000    0.000    0.000 
#    0.000    0.000    0.000    0.000    0.000    0.000 
#
# Total GULP energy -100392.305186 kJ/mol
# GULP energy per Si atom -5577.350288 kJ/mol
# Density = 2.565086 g / cm^3
# Si number density = 25.709371 Si / 1000 Ang^3
#
#
#
# Elastic Constant Matrix: (Units=GPa)
#
#
# Indices 1 2 3 4 5 6 
#
# 1 65.3235 17.1361 29.4157 0.0000 -13.3120 0.0000
# 2 17.1361 96.2594 30.6484 0.0000 -9.3811 0.0000
# 3 29.4157 30.6484 125.6604 0.0000 6.8693 0.0000
# 4 0.0000 0.0000 0.0000 47.5869 0.0000 -37.0914
# 5 -13.3120 -9.3811 6.8693 0.0000 48.7162 0.0000
# 6 0.0000 0.0000 0.0000 -37.0914 0.0000 45.1722
#
#
#
# Elastic Compliance Matrix: (Units=1/GPa)
#
#
# Indices 1 2 3 4 5 6 
#
# 1 0.018749 -0.001424 -0.004340 0.000000 0.005461 0.000000
# 2 -0.001424 0.011702 -0.002643 0.000000 0.002237 0.000000
# 3 -0.004340 -0.002643 0.009787 0.000000 -0.003075 0.000000
# 4 0.000000 0.000000 0.000000 0.058375 0.000000 0.047932
# 5 0.005461 0.002237 -0.003075 0.000000 0.022884 0.000000
# 6 0.000000 0.000000 0.000000 0.047932 0.000000 0.061495
#
#
# Mechanical properties :
#
#
# Convention : Reuss Voigt Hill
#
# Bulk Modulus (GPa) = 42.69189 49.07153 45.88171
# Shear Modulus (GPa) = 24.08330 42.29791 33.19061
#
# Velocity S-wave (km/s) = 3.06396 4.06055 3.59694
# Velocity P-wave (km/s) = 5.39989 6.41190 5.92753
#
# Compressibility (1/GPa) = 0.02342365
#
# Stress axis : x y z
#
# Youngs Moduli (GPa) = 53.33533 85.45867 102.17942
#
# Poissons Ratio (x) = 0.12166 0.44349
# Poissons Ratio (y) = 0.07593 0.27006
# Poissons Ratio (z) = 0.23149 0.22587
#
# Static dielectric constant tensor:
#      x y z
#    x 2.262920 0.000000 0.064810 
#    y 0.000000 1.980640 0.000000 
#    z 0.064810 0.000000 1.987270 
# 
# From -- ./inp_files/12594.got.cif
#   From: 2010.05.17/outbox.cif.g08.bks.cpg/sg15_7_cif.got.tgz:12594.got - 2010.06.03 18:47:42.
