data_PCOD9297855
_publ_section_title
;
Structure prediction by ZEFSAII (Michael W. Deem and Ramdas Pophale) SiO2 
 PCOD9297855
Probable space group: C 2/C
;
_chemical_formula_sum "Si O2"
_cell_formula_units_Z 44
_cell_length_a 5.509976
_cell_length_b 13.902164
_cell_length_c 22.902884
_cell_angle_alpha 90.000000
_cell_angle_beta 95.512288
_cell_angle_gamma 90.000000
_cell_volume 1746.261532
_symmetry_space_group_name_H-M "C 2/C"
_symmetry_group_IT_number 15
_symmetry_cell_setting 'monoclinic'
loop_
_space_group_symop_operation_xyz
x,y,z
-x,y,1/2-z
-x,-y,-z
x,-y,1/2+z
1/2+x,1/2+y,z
1/2-x,1/2+y,1/2-z
1/2-x,1/2-y,-z
1/2+x,1/2-y,1/2+z
loop_
_atom_site_type_symbol
_atom_site_label
_atom_site_fract_x
_atom_site_fract_y
_atom_site_fract_z
Si Si1 0.500000 0.942592 0.250000
Si Si2 0.166374 0.937582 0.088104
Si Si3 0.069057 0.291154 0.079564
Si Si4 0.116473 0.939346 0.690575
Si Si5 0.780461 0.890200 0.979144
Si Si6 0.710000 0.727939 0.801224
O O1 0.612484 0.014847 0.299657
O O2 0.684367 0.867064 0.226016
O O3 0.341440 0.846084 0.104476
O O4 0.023253 0.994822 0.135943
O O5 0.325614 0.022600 0.060777
O O6 0.976179 0.915176 0.033007
O O7 0.079221 0.179543 0.062595
O O8 0.300147 0.299487 0.129970
O O9 0.084054 0.336606 0.014858
O O10 0.000000 0.963586 0.750000
O O11 0.123252 0.824020 0.689383
O O12 0.500000 0.756655 0.750000
#
# Coordination Sequence:
#
# PCOD9297855 Si02
#       6
#     4   8   8   8   8   8
#     4  12  26  48  72  96 144 190 242 300 368 412
#     4  11  23  44  68  99 138 183 232 291 354 424
#     4  11  23  44  68  99 138 183 232 291 354 424
#     4  12  26  45  70 104 143 191 241 297 365 430
#     4  10  24  42  69 102 136 177 236 284 354 430
#     4  12  26  45  70 104 143 191 241 297 365 430
#
# _framework density 25.196684000000001
#
# number of rings (size 3 to 8) (size 9 to 14) (size 15 to 20)
#    0.000    0.727    5.455    1.636    5.091    0.000 
#    0.000    1.818    0.000    0.000    0.000    0.000 
#    0.000    0.000    0.000    0.000    0.000    0.000 
#
# Total GULP energy -122548.900774 kJ/mol
# GULP energy per Si atom -5570.404581 kJ/mol
# Density = 2.513933 g / cm^3
# Si number density = 25.196684 Si / 1000 Ang^3
#
#
#
# Elastic Constant Matrix: (Units=GPa)
#
#
# Indices 1 2 3 4 5 6 
#
# 1 23.8436 8.0248 7.2593 0.0000 -4.3388 0.0000
# 2 8.0248 127.0562 11.1155 0.0000 -4.7173 0.0000
# 3 7.2593 11.1155 149.4031 0.0000 -1.4129 0.0000
# 4 0.0000 0.0000 0.0000 38.5479 0.0000 0.2930
# 5 -4.3388 -4.7173 -1.4129 0.0000 34.1800 0.0000
# 6 0.0000 0.0000 0.0000 0.2930 0.0000 30.2284
#
#
#
# Elastic Compliance Matrix: (Units=1/GPa)
#
#
# Indices 1 2 3 4 5 6 
#
# 1 0.044292 -0.002436 -0.001922 0.000000 0.005207 0.000000
# 2 -0.002436 0.008095 -0.000476 0.000000 0.000788 0.000000
# 3 -0.001922 -0.000476 0.006822 0.000000 -0.000028 0.000000
# 4 0.000000 0.000000 0.000000 0.025944 0.000000 -0.000251
# 5 0.005207 0.000788 -0.000028 0.000000 0.030026 0.000000
# 6 0.000000 0.000000 0.000000 -0.000251 0.000000 0.033084
#
#
# Mechanical properties :
#
#
# Convention : Reuss Voigt Hill
#
# Bulk Modulus (GPa) = 20.18520 39.23356 29.70938
# Shear Modulus (GPa) = 28.66239 38.85147 33.75693
#
# Velocity S-wave (km/s) = 3.37641 3.93100 3.66421
# Velocity P-wave (km/s) = 4.81961 6.01734 5.45147
#
# Compressibility (1/GPa) = 0.04954124
#
# Stress axis : x y z
#
# Youngs Moduli (GPa) = 22.57729 123.52776 146.58761
#
# Poissons Ratio (x) = 0.30092 0.28169
# Poissons Ratio (y) = 0.05500 0.06984
# Poissons Ratio (z) = 0.04339 0.05886
#
# Static dielectric constant tensor:
#      x y z
#    x 2.213450 0.000000 0.004570 
#    y 0.000000 2.039530 0.000000 
#    z 0.004570 0.000000 2.134780 
# 
# From -- ./inp_files/260400.got.cif
#   From: 2010.05.17/outbox.cif.g08.bks.cpg/sg15_131_cif.got.tgz:260400.got - 2010.06.03 18:47:42.
