data_PCOD9297317
_publ_section_title
;
Structure prediction by ZEFSAII (Michael W. Deem and Ramdas Pophale) SiO2 
 PCOD9297317
Probable space group: C 2/C
;
_chemical_formula_sum "Si O2"
_cell_formula_units_Z 28
_cell_length_a 9.128433
_cell_length_b 17.062998
_cell_length_c 7.933858
_cell_angle_alpha 90.000000
_cell_angle_beta 100.279019
_cell_angle_gamma 90.000000
_cell_volume 1215.931817
_symmetry_space_group_name_H-M "C 2/C"
_symmetry_group_IT_number 15
_symmetry_cell_setting 'monoclinic'
loop_
_space_group_symop_operation_xyz
x,y,z
-x,y,1/2-z
-x,-y,-z
x,-y,1/2+z
1/2+x,1/2+y,z
1/2-x,1/2+y,1/2-z
1/2-x,1/2-y,-z
1/2+x,1/2-y,1/2+z
loop_
_atom_site_type_symbol
_atom_site_label
_atom_site_fract_x
_atom_site_fract_y
_atom_site_fract_z
Si Si1 0.959476 0.412074 0.438452
Si Si2 0.867715 0.889327 0.001322
Si Si3 0.571797 0.754102 0.456519
Si Si4 0.500000 0.473619 0.750000
O O1 0.793319 0.383064 0.450060
O O2 0.000000 0.412365 0.250000
O O3 0.000000 0.500000 0.500000
O O4 0.048932 0.339644 0.533363
O O5 0.980118 0.815419 0.031704
O O6 0.926802 0.965939 0.108215
O O7 0.876304 0.918086 0.809106
O O8 0.500000 0.753307 0.250000
O O9 0.750000 0.750000 0.500000
#
# Coordination Sequence:
#
# PCOD9297317 Si02
#       4
#     8   8   8   4
#     4  11  26  45  71 106 145 191 245 298 370 438
#     4  11  23  46  72 107 147 193 242 309 366 443
#     4  11  27  48  74 107 149 191 251 304 374 439
#     4  10  24  38  78 104 144 184 252 290 378 420
#
# _framework density 23.027608000000001
#
# number of rings (size 3 to 8) (size 9 to 14) (size 15 to 20)
#    0.000    1.143    1.429    2.571   16.000    2.286 
#    2.571    0.000    0.000    0.000    0.000    0.000 
#    0.000    0.000    0.000    0.000    0.000    0.000 
#
# Total GULP energy -77978.736418 kJ/mol
# GULP energy per Si atom -5569.909744 kJ/mol
# Density = 2.297520 g / cm^3
# Si number density = 23.027608 Si / 1000 Ang^3
#
#
#
# Elastic Constant Matrix: (Units=GPa)
#
#
# Indices 1 2 3 4 5 6 
#
# 1 235.9029 97.6279 43.4880 0.0000 -27.8274 0.0000
# 2 97.6279 204.5705 20.4415 0.0000 -22.4017 0.0000
# 3 43.4880 20.4415 63.2900 0.0000 -23.2892 0.0000
# 4 0.0000 0.0000 0.0000 42.0631 0.0000 -19.9986
# 5 -27.8274 -22.4017 -23.2892 0.0000 39.0591 0.0000
# 6 0.0000 0.0000 0.0000 -19.9986 0.0000 63.5191
#
#
#
# Elastic Compliance Matrix: (Units=1/GPa)
#
#
# Indices 1 2 3 4 5 6 
#
# 1 0.005893 -0.002405 -0.002864 0.000000 0.001112 0.000000
# 2 -0.002405 0.006225 0.000416 0.000000 0.002105 0.000000
# 3 -0.002864 0.000416 0.021741 0.000000 0.011162 0.000000
# 4 0.000000 0.000000 0.000000 0.027959 0.000000 0.008803
# 5 0.001112 0.002105 0.011162 0.000000 0.034257 0.000000
# 6 0.000000 0.000000 0.000000 0.008803 0.000000 0.018515
#
#
# Mechanical properties :
#
#
# Convention : Reuss Voigt Hill
#
# Bulk Modulus (GPa) = 41.39868 91.87534 66.63701
# Shear Modulus (GPa) = 37.78019 51.74199 44.76109
#
# Velocity S-wave (km/s) = 4.05488 4.74535 4.41364
# Velocity P-wave (km/s) = 6.31978 8.36714 7.41447
#
# Compressibility (1/GPa) = 0.02415536
#
# Stress axis : x y z
#
# Youngs Moduli (GPa) = 169.68696 160.64920 45.99689
#
# Poissons Ratio (x) = 0.38628 0.13171
# Poissons Ratio (y) = 0.40802 -0.01915
# Poissons Ratio (z) = 0.48590 -0.06690
#
# Static dielectric constant tensor:
#      x y z
#    x -1.310770 0.000000 -4.722070 
#    y 0.000000 1.863100 0.000000 
#    z -4.722070 0.000000 -4.318010 
# 
# From -- ./inp_files/21595.got.cif
#   From: 2010.05.17/outbox.cif.g08.bks.cpg/sg15_11_cif.got.tgz:21595.got - 2010.06.03 18:47:42.
