data_PCOD9297114
_publ_section_title
;
Structure prediction by ZEFSAII (Michael W. Deem and Ramdas Pophale) SiO2 
 PCOD9297114
Probable space group: C 2/C
;
_chemical_formula_sum "Si O2"
_cell_formula_units_Z 48
_cell_length_a 14.355385
_cell_length_b 11.292016
_cell_length_c 19.781673
_cell_angle_alpha 90.000000
_cell_angle_beta 37.679646
_cell_angle_gamma 90.000000
_cell_volume 1960.041758
_symmetry_space_group_name_H-M "C 2/C"
_symmetry_group_IT_number 15
_symmetry_cell_setting 'monoclinic'
loop_
_space_group_symop_operation_xyz
x,y,z
-x,y,1/2-z
-x,-y,-z
x,-y,1/2+z
1/2+x,1/2+y,z
1/2-x,1/2+y,1/2-z
1/2-x,1/2-y,-z
1/2+x,1/2-y,1/2+z
loop_
_atom_site_type_symbol
_atom_site_label
_atom_site_fract_x
_atom_site_fract_y
_atom_site_fract_z
Si Si1 0.523657 0.442877 0.598427
Si Si2 0.816171 0.167135 0.727596
Si Si3 0.000000 0.837732 0.250000
Si Si4 0.326300 0.734645 0.576098
Si Si5 0.500000 0.713846 0.250000
Si Si6 0.487997 0.945323 0.433071
Si Si7 0.261959 0.109046 0.505303
O O1 0.389482 0.537430 0.673416
O O2 0.545898 0.353981 0.524056
O O3 0.504692 0.366158 0.678667
O O4 0.673070 0.526561 0.504444
O O5 0.843078 0.247318 0.646625
O O6 0.639041 0.132199 0.834885
O O7 0.909856 0.219069 0.738104
O O8 0.855853 0.907624 0.363817
O O9 0.150176 0.705167 0.665053
O O10 0.350668 0.852100 0.518273
O O11 0.500000 0.000000 0.500000
O O12 0.426010 0.051379 0.422333
O O13 0.250000 0.250000 0.500000
#
# Coordination Sequence:
#
# PCOD9297114 Si02
#       7
#     8   8   4   8   4   8   8
#     4  11  24  48  72 103 151 195 237 311 374 444
#     4  11  25  45  74 108 149 195 251 308 381 441
#     4  10  23  48  69  98 142 201 240 295 378 438
#     4  12  27  44  75 114 149 188 250 319 375 440
#     4  12  23  46  79 106 148 201 248 297 382 464
#     4  12  25  45  72 109 143 194 254 301 367 464
#     4  11  25  47  72 102 143 194 243 301 376 448
#
# _framework density 24.489273000000001
#
# number of rings (size 3 to 8) (size 9 to 14) (size 15 to 20)
#    0.000    0.667    3.333    5.000    7.000    0.000 
#    3.000    0.000    0.000    0.000    0.000    0.000 
#    0.000    0.000    0.000    0.000    0.000    0.000 
#
# Total GULP energy -133865.344279 kJ/mol
# GULP energy per Si atom -5577.722678 kJ/mol
# Density = 2.443353 g / cm^3
# Si number density = 24.489273 Si / 1000 Ang^3
#
#
#
# Elastic Constant Matrix: (Units=GPa)
#
#
# Indices 1 2 3 4 5 6 
#
# 1 93.7583 26.2668 47.2959 0.0000 -16.3757 0.0000
# 2 26.2668 87.1277 29.3646 0.0000 -1.7514 0.0000
# 3 47.2959 29.3646 95.4676 -0.0001 -14.6658 0.0000
# 4 0.0000 0.0000 -0.0001 30.9709 0.0000 -4.0593
# 5 -16.3757 -1.7514 -14.6658 0.0000 36.5205 0.0000
# 6 0.0000 0.0000 0.0000 -4.0593 0.0000 38.5140
#
#
#
# Elastic Compliance Matrix: (Units=1/GPa)
#
#
# Indices 1 2 3 4 5 6 
#
# 1 0.015171 -0.002426 -0.006120 0.000000 0.004229 0.000000
# 2 -0.002426 0.013229 -0.003130 0.000000 -0.001710 0.000000
# 3 -0.006120 -0.003130 0.014947 0.000000 0.003108 0.000000
# 4 0.000000 0.000000 0.000000 0.032741 0.000000 0.003451
# 5 0.004229 -0.001710 0.003108 0.000000 0.030444 0.000000
# 6 0.000000 0.000000 0.000000 0.003451 0.000000 0.026328
#
#
# Mechanical properties :
#
#
# Convention : Reuss Voigt Hill
#
# Bulk Modulus (GPa) = 50.01246 53.57871 51.79558
# Shear Modulus (GPa) = 30.69778 32.76283 31.73031
#
# Velocity S-wave (km/s) = 3.54435 3.66162 3.60346
# Velocity P-wave (km/s) = 6.10052 6.30893 6.20560
#
# Compressibility (1/GPa) = 0.01999502
#
# Stress axis : x y z
#
# Youngs Moduli (GPa) = 65.91399 75.58960 66.90309
#
# Poissons Ratio (x) = 0.18339 0.40946
# Poissons Ratio (y) = 0.15991 0.20941
# Poissons Ratio (z) = 0.40341 0.23660
#
# Static dielectric constant tensor:
#      x y z
#    x 2.035230 0.000000 0.032150 
#    y 0.000000 1.979770 0.000000 
#    z 0.032150 0.000000 2.000450 
# 
# From -- ./inp_files/243951.got.cif
#   From: 2010.05.17/outbox.cif.g08.bks.cpg/sg15_122_cif.got.tgz:243951.got - 2010.06.03 18:47:42.
