data_PCOD9297903
_publ_section_title
;
Structure prediction by ZEFSAII (Michael W. Deem and Ramdas Pophale) SiO2 
 PCOD9297903
Probable space group: C 2/C
;
_chemical_formula_sum "Si O2"
_cell_formula_units_Z 52
_cell_length_a 5.260678
_cell_length_b 18.402270
_cell_length_c 21.433708
_cell_angle_alpha 90.000000
_cell_angle_beta 101.788632
_cell_angle_gamma 90.000000
_cell_volume 2031.198096
_symmetry_space_group_name_H-M "C 2/C"
_symmetry_group_IT_number 15
_symmetry_cell_setting 'monoclinic'
loop_
_space_group_symop_operation_xyz
x,y,z
-x,y,1/2-z
-x,-y,-z
x,-y,1/2+z
1/2+x,1/2+y,z
1/2-x,1/2+y,1/2-z
1/2-x,1/2-y,-z
1/2+x,1/2-y,1/2+z
loop_
_atom_site_type_symbol
_atom_site_label
_atom_site_fract_x
_atom_site_fract_y
_atom_site_fract_z
Si Si1 0.769982 0.709137 0.196216
Si Si2 0.265736 0.871355 0.114396
Si Si3 0.500000 0.161963 0.750000
Si Si4 0.507942 0.436505 0.821976
Si Si5 0.431919 0.979931 0.599813
Si Si6 0.553005 0.746593 0.066444
Si Si7 0.306524 0.628304 0.508267
O O1 0.695928 0.784150 0.224935
O O2 0.540379 0.650336 0.184088
O O3 0.797249 0.728724 0.124659
O O4 0.000000 0.677145 0.250000
O O5 0.336594 0.879870 0.190242
O O6 0.347830 0.789707 0.098966
O O7 0.432098 0.933808 0.088843
O O8 0.977348 0.888116 0.077425
O O9 0.500000 0.464275 0.750000
O O10 0.273826 0.464117 0.854405
O O11 0.785312 0.453578 0.865739
O O12 0.322025 0.937213 0.534690
O O13 0.498058 0.670408 0.030416
O O14 0.614631 0.807124 0.017894
#
# Coordination Sequence:
#
# PCOD9297903 Si02
#       7
#     8   8   4   8   8   8   8
#     4  11  21  42  73 107 143 192 248 312 376 439
#     4  11  26  46  70 105 153 198 246 312 378 451
#     4  10  24  42  72 104 146 186 252 304 388 438
#     4  12  27  47  77 108 149 195 253 307 368 445
#     4  12  29  48  77 109 151 201 253 303 377 457
#     4  10  24  42  71 107 149 192 256 309 376 439
#     4  11  24  45  74 106 148 198 256 307 375 444
#
# _framework density 25.600652
#
# number of rings (size 3 to 8) (size 9 to 14) (size 15 to 20)
#    0.000    0.923    2.308    3.231    6.462    5.538 
#    0.000    0.000    0.000    0.000    0.000    0.000 
#    0.000    0.000    0.000    0.000    0.000    0.000 
#
# Total GULP energy -145509.843760 kJ/mol
# GULP energy per Si atom -5596.532452 kJ/mol
# Density = 2.554238 g / cm^3
# Si number density = 25.600652 Si / 1000 Ang^3
#
#
#
# Elastic Constant Matrix: (Units=GPa)
#
#
# Indices 1 2 3 4 5 6 
#
# 1 108.2478 15.3112 33.3861 0.0000 20.8321 0.0000
# 2 15.3112 109.0565 24.3374 0.0000 19.0740 0.0000
# 3 33.3861 24.3374 133.8599 0.0000 26.2203 0.0000
# 4 0.0000 0.0000 0.0000 -72.9407 0.0000 -19.3197
# 5 20.8321 19.0740 26.2203 0.0000 53.6631 0.0000
# 6 0.0000 0.0000 0.0000 -19.3197 0.0000 22.2162
#
#
#
# Elastic Compliance Matrix: (Units=1/GPa)
#
#
# Indices 1 2 3 4 5 6 
#
# 1 0.010476 -0.000524 -0.001943 0.000000 -0.002931 0.000000
# 2 -0.000524 0.009985 -0.001138 0.000000 -0.002789 0.000000
# 3 -0.001943 -0.001138 0.008775 0.000000 -0.003129 0.000000
# 4 0.000000 0.000000 0.000000 -0.011143 0.000000 -0.009690
# 5 -0.002931 -0.002789 -0.003129 0.000000 0.022293 0.000000
# 6 0.000000 0.000000 0.000000 -0.009690 0.000000 0.036585
#
#
# Mechanical properties :
#
#
# Convention : Reuss Voigt Hill
#
# Bulk Modulus (GPa) = 45.40589 55.24819 50.32704
# Shear Modulus (GPa) = 54.63074 19.12969 36.88022
#
# Velocity S-wave (km/s) = 4.62449 2.73652 3.79964
# Velocity P-wave (km/s) = 6.80362 5.62249 6.24106
#
# Compressibility (1/GPa) = 0.02202357
#
# Stress axis : x y z
#
# Youngs Moduli (GPa) = 95.45975 100.14964 113.96092
#
# Poissons Ratio (x) = 0.05253 0.22146
# Poissons Ratio (y) = 0.05007 0.12971
# Poissons Ratio (z) = 0.18551 0.11399
#
# Static dielectric constant tensor:
#      x y z
#    x 2.113170 0.000000 -0.073530 
#    y 0.000000 2.007640 0.000000 
#    z -0.073530 0.000000 2.059390 
# 
# From -- ./inp_files/261445.got.cif
#   From: 2010.05.17/outbox.cif.g08.bks.cpg/sg15_131_cif.got.tgz:261445.got - 2010.06.03 18:47:42.
