data_PCOD9297405
_publ_section_title
;
Structure prediction by ZEFSAII (Michael W. Deem and Ramdas Pophale) SiO2 
 PCOD9297405
Probable space group: C 2/C
;
_chemical_formula_sum "Si O2"
_cell_formula_units_Z 48
_cell_length_a 23.875841
_cell_length_b 5.918561
_cell_length_c 17.544224
_cell_angle_alpha 90.000000
_cell_angle_beta 123.611248
_cell_angle_gamma 90.000000
_cell_volume 2064.696633
_symmetry_space_group_name_H-M "C 2/C"
_symmetry_group_IT_number 15
_symmetry_cell_setting 'monoclinic'
loop_
_space_group_symop_operation_xyz
x,y,z
-x,y,1/2-z
-x,-y,-z
x,-y,1/2+z
1/2+x,1/2+y,z
1/2-x,1/2+y,1/2-z
1/2-x,1/2-y,-z
1/2+x,1/2-y,1/2+z
loop_
_atom_site_type_symbol
_atom_site_label
_atom_site_fract_x
_atom_site_fract_y
_atom_site_fract_z
Si Si1 0.959075 0.792884 0.323475
Si Si2 0.186622 0.816463 0.534428
Si Si3 0.260781 0.564979 0.169197
Si Si4 0.750000 0.250000 0.000000
Si Si5 0.410713 0.064415 0.139856
Si Si6 0.500000 0.322189 0.750000
Si Si7 0.643370 0.605652 0.633239
O O1 0.910367 0.707725 0.217738
O O2 0.923378 0.801584 0.377101
O O3 0.024981 0.640343 0.362316
O O4 0.983976 0.033138 0.312232
O O5 0.240586 0.686730 0.626775
O O6 0.153329 0.612818 0.459757
O O7 0.214355 0.009420 0.500901
O O8 0.136078 0.948950 0.553261
O O9 0.278093 0.710867 0.108395
O O10 0.319195 0.544680 0.274509
O O11 0.194316 0.689655 0.152135
O O12 0.432975 0.817951 0.181103
#
# Coordination Sequence:
#
# PCOD9297405 Si02
#       7
#     8   8   8   4   8   4   8
#     4   9  20  39  64  88 125 163 208 271 323 390
#     4  11  23  40  63  91 129 164 217 267 316 393
#     4  11  23  42  60  91 126 171 218 268 325 389
#     4  10  24  40  64  90 118 170 214 264 314 376
#     4   9  20  39  60  97 121 159 219 263 319 389
#     4   8  18  38  64  90 124 166 214 264 328 386
#     4  11  23  40  60  88 128 169 211 268 330 382
#
# _framework density 23.247966999999999
#
# number of rings (size 3 to 8) (size 9 to 14) (size 15 to 20)
#    0.000    2.333    1.667    1.500    0.000   10.000 
#    0.000    5.000    0.000    0.000    0.000    0.000 
#    0.000    0.000    0.000    0.000    0.000    0.000 
#
# Total GULP energy -133642.913115 kJ/mol
# GULP energy per Si atom -5568.454713 kJ/mol
# Density = 2.319505 g / cm^3
# Si number density = 23.247967 Si / 1000 Ang^3
#
#
#
# Elastic Constant Matrix: (Units=GPa)
#
#
# Indices 1 2 3 4 5 6 
#
# 1 91.1548 -11.6779 15.3084 -0.0001 -23.7589 0.0004
# 2 -11.6779 30.5174 -7.8155 0.0005 -1.8951 -0.0007
# 3 15.3084 -7.8155 65.6049 -0.0001 -5.9757 0.0001
# 4 -0.0001 0.0005 -0.0001 27.4072 0.0001 -0.3756
# 5 -23.7589 -1.8951 -5.9757 0.0001 32.6644 0.0000
# 6 0.0004 -0.0007 0.0001 -0.3756 0.0000 6.4811
#
#
#
# Elastic Compliance Matrix: (Units=1/GPa)
#
#
# Indices 1 2 3 4 5 6 
#
# 1 0.014842 0.005896 -0.001776 0.000000 0.010813 0.000000
# 2 0.005896 0.036385 0.003602 -0.000001 0.007059 0.000003
# 3 -0.001776 0.003602 0.016259 0.000000 0.001892 0.000000
# 4 0.000000 -0.000001 0.000000 0.036516 0.000000 0.002116
# 5 0.010813 0.007059 0.001892 0.000000 0.039235 0.000000
# 6 0.000000 0.000003 0.000000 0.002116 0.000000 0.154417
#
#
# Mechanical properties :
#
#
# Convention : Reuss Voigt Hill
#
# Bulk Modulus (GPa) = 12.05837 19.87854 15.96846
# Shear Modulus (GPa) = 16.13668 26.07469 21.10568
#
# Velocity S-wave (km/s) = 2.63746 3.35265 3.01632
# Velocity P-wave (km/s) = 3.80434 4.85347 4.36058
#
# Compressibility (1/GPa) = 0.08292993
#
# Stress axis : x y z
#
# Youngs Moduli (GPa) = 67.37505 27.48369 61.50609
#
# Poissons Ratio (x) = -0.16205 0.10923
# Poissons Ratio (y) = -0.39726 -0.22153
# Poissons Ratio (z) = 0.11966 -0.09899
#
# Static dielectric constant tensor:
#      x y z
#    x 2.034890 0.000000 0.103110 
#    y 0.000000 1.989830 0.000000 
#    z 0.103110 0.000000 1.907730 
# 
# From -- ./inp_files/217840.got.cif
#   From: 2010.05.17/outbox.cif.g08.bks.cpg/sg15_109_cif.got.tgz:217840.got - 2010.06.03 18:47:42.
