data_PCOD9297336
_publ_section_title
;
Structure prediction by ZEFSAII (Michael W. Deem and Ramdas Pophale) SiO2 
 PCOD9297336
Probable space group: C 2/C
;
_chemical_formula_sum "Si O2"
_cell_formula_units_Z 56
_cell_length_a 16.090900
_cell_length_b 8.625201
_cell_length_c 23.905529
_cell_angle_alpha 90.000000
_cell_angle_beta 45.734919
_cell_angle_gamma 90.000000
_cell_volume 2375.924639
_symmetry_space_group_name_H-M "C 2/C"
_symmetry_group_IT_number 15
_symmetry_cell_setting 'monoclinic'
loop_
_space_group_symop_operation_xyz
x,y,z
-x,y,1/2-z
-x,-y,-z
x,-y,1/2+z
1/2+x,1/2+y,z
1/2-x,1/2+y,1/2-z
1/2-x,1/2-y,-z
1/2+x,1/2-y,1/2+z
loop_
_atom_site_type_symbol
_atom_site_label
_atom_site_fract_x
_atom_site_fract_y
_atom_site_fract_z
Si Si1 0.502087 0.481288 0.087018
Si Si2 0.046630 0.384805 0.168004
Si Si3 0.838724 0.200994 0.217530
Si Si4 0.221427 0.696400 0.873153
Si Si5 0.975355 0.260368 0.509043
Si Si6 0.752929 0.596487 0.462267
Si Si7 0.723965 0.632813 0.130631
O O1 0.407580 0.538958 0.175313
O O2 0.477624 0.315192 0.070100
O O3 0.491816 0.615003 0.045478
O O4 0.638100 0.490518 0.037477
O O5 0.130227 0.498531 0.094493
O O6 0.124733 0.235626 0.148687
O O7 0.000000 0.448784 0.250000
O O8 0.938295 0.328570 0.182596
O O9 0.768256 0.251073 0.195799
O O10 0.770805 0.183343 0.306726
O O11 0.236908 0.844309 0.905979
O O12 0.297382 0.551278 0.857765
O O13 0.088891 0.636177 0.945866
O O14 0.850780 0.320885 0.548800
O O15 0.750000 0.750000 0.500000
#
# Coordination Sequence:
#
# PCOD9297336 Si02
#       7
#     8   8   8   8   8   8   8
#     4   9  19  37  60  89 124 160 209 256 310 368
#     4  10  24  45  63  94 132 172 207 258 322 385
#     4  10  24  39  65  97 130 168 212 256 323 379
#     4  10  24  42  62 101 124 161 222 262 310 385
#     4   9  18  37  64  86 124 164 206 261 305 369
#     4  11  24  43  67  92 125 173 216 263 323 368
#     4  11  22  39  69  93 132 167 211 259 323 374
#
# _framework density 23.569770999999999
#
# number of rings (size 3 to 8) (size 9 to 14) (size 15 to 20)
#    0.000    2.000    1.429    1.286    4.000    6.286 
#    2.571    0.000    0.000    0.000    0.000    0.000 
#    0.000    0.000    0.000    0.000    0.000    0.000 
#
# Total GULP energy -156389.735250 kJ/mol
# GULP energy per Si atom -5585.347688 kJ/mol
# Density = 2.351612 g / cm^3
# Si number density = 23.569771 Si / 1000 Ang^3
#
#
#
# Elastic Constant Matrix: (Units=GPa)
#
#
# Indices 1 2 3 4 5 6 
#
# 1 37.3507 -3.2513 10.6053 0.0000 21.6229 0.0001
# 2 -3.2513 46.1942 18.2952 0.0000 5.4530 0.0002
# 3 10.6053 18.2952 55.8597 0.0000 2.4035 0.0000
# 4 0.0000 0.0000 0.0000 34.5781 0.0000 0.5150
# 5 21.6229 5.4530 2.4035 0.0000 31.9870 0.0000
# 6 0.0001 0.0002 0.0000 0.5150 0.0000 19.3982
#
#
#
# Elastic Compliance Matrix: (Units=1/GPa)
#
#
# Indices 1 2 3 4 5 6 
#
# 1 0.053067 0.013189 -0.012796 0.000000 -0.037160 0.000000
# 2 0.013189 0.028582 -0.011309 0.000000 -0.012939 0.000000
# 3 -0.012796 -0.011309 0.023657 0.000000 0.008800 0.000000
# 4 0.000000 0.000000 0.000000 0.028931 0.000000 -0.000768
# 5 -0.037160 -0.012939 0.008800 0.000000 0.057927 0.000000
# 6 0.000000 0.000000 0.000000 -0.000768 0.000000 0.051571
#
#
# Mechanical properties :
#
#
# Convention : Reuss Voigt Hill
#
# Bulk Modulus (GPa) = 11.97962 21.18923 16.58443
# Shear Modulus (GPa) = 17.04212 24.77636 20.90924
#
# Velocity S-wave (km/s) = 2.69188 3.24573 2.98169
# Velocity P-wave (km/s) = 3.84126 4.80165 4.34805
#
# Compressibility (1/GPa) = 0.08347508
#
# Stress axis : x y z
#
# Youngs Moduli (GPa) = 18.84416 34.98689 42.27161
#
# Poissons Ratio (x) = -0.46145 0.54090
# Poissons Ratio (y) = -0.24854 0.47803
# Poissons Ratio (z) = 0.24113 0.39565
#
# Static dielectric constant tensor:
#      x y z
#    x 1.927460 0.000000 0.012210 
#    y 0.000000 1.952230 0.000000 
#    z 0.012210 0.000000 1.932730 
# 
# From -- ./inp_files/298527.got.cif
#   From: 2010.05.17/outbox.cif.g08.bks.cpg/sg15_150_cif.got.tgz:298527.got - 2010.06.03 18:47:42.
