data_PCOD9297570
_publ_section_title
;
Structure prediction by ZEFSAII (Michael W. Deem and Ramdas Pophale) SiO2 
 PCOD9297570
Probable space group: C 2/C
;
_chemical_formula_sum "Si O2"
_cell_formula_units_Z 56
_cell_length_a 18.515230
_cell_length_b 24.638758
_cell_length_c 9.193384
_cell_angle_alpha 90.000000
_cell_angle_beta 143.545126
_cell_angle_gamma 90.000000
_cell_volume 2492.001431
_symmetry_space_group_name_H-M "C 2/C"
_symmetry_group_IT_number 15
_symmetry_cell_setting 'monoclinic'
loop_
_space_group_symop_operation_xyz
x,y,z
-x,y,1/2-z
-x,-y,-z
x,-y,1/2+z
1/2+x,1/2+y,z
1/2-x,1/2+y,1/2-z
1/2-x,1/2-y,-z
1/2+x,1/2-y,1/2+z
loop_
_atom_site_type_symbol
_atom_site_label
_atom_site_fract_x
_atom_site_fract_y
_atom_site_fract_z
Si Si1 0.840833 0.798517 0.623942
Si Si2 0.109074 0.361981 0.606544
Si Si3 0.297989 0.630401 0.644356
Si Si4 0.474614 0.443967 0.037261
Si Si5 0.907640 0.416967 0.476218
Si Si6 0.594509 0.732210 0.593350
Si Si7 0.783589 0.410800 0.996203
O O1 0.750000 0.750000 0.500000
O O2 0.881140 0.794596 0.523444
O O3 0.773728 0.854477 0.539696
O O4 0.957178 0.784524 0.911601
O O5 0.107590 0.296481 0.594397
O O6 0.120994 0.391691 0.471380
O O7 0.996753 0.377054 0.529866
O O8 0.229417 0.382386 0.884340
O O9 0.428016 0.600455 0.866665
O O10 0.201557 0.611054 0.610501
O O11 0.316671 0.695517 0.667474
O O12 0.500000 0.446132 0.250000
O O13 0.500000 0.500000 0.000000
O O14 0.333326 0.435984 0.770359
O O15 0.840361 0.444007 0.225740
O O16 0.000000 0.442308 0.750000
#
# Coordination Sequence:
#
# PCOD9297570 Si02
#       7
#     8   8   8   8   8   8   8
#     4  11  21  33  56  94 139 189 240 280 343 419
#     4  11  23  39  65 100 143 198 238 283 345 425
#     4  11  23  45  64 100 147 180 237 297 350 426
#     4  12  29  50  79 110 135 180 238 305 373 420
#     4  10  24  41  65  98 139 190 235 278 350 418
#     4  11  22  33  58  96 142 192 238 278 347 423
#     4  12  22  43  71  98 146 187 240 304 348 417
#
# _framework density 22.471895
#
# number of rings (size 3 to 8) (size 9 to 14) (size 15 to 20)
#    0.000    0.857    5.714    1.714    4.000    0.000 
#    0.000    0.714    0.000    9.429    0.000    0.000 
#    0.000    0.000    0.000    0.000    0.000    0.000 
#
# Total GULP energy -156069.639331 kJ/mol
# GULP energy per Si atom -5573.915690 kJ/mol
# Density = 2.242075 g / cm^3
# Si number density = 22.471895 Si / 1000 Ang^3
#
#
#
# Elastic Constant Matrix: (Units=GPa)
#
#
# Indices 1 2 3 4 5 6 
#
# 1 112.0329 21.7594 52.2774 0.0000 2.3926 0.0000
# 2 21.7594 49.9764 13.6712 0.0000 3.9238 0.0000
# 3 52.2774 13.6712 164.7954 0.0000 -1.5483 0.0000
# 4 0.0000 0.0000 0.0000 9.5669 0.0000 -6.9803
# 5 2.3926 3.9238 -1.5483 0.0000 39.6776 0.0000
# 6 0.0000 0.0000 0.0000 -6.9803 0.0000 6.3034
#
#
#
# Elastic Compliance Matrix: (Units=1/GPa)
#
#
# Indices 1 2 3 4 5 6 
#
# 1 0.011213 -0.003966 -0.003232 0.000000 -0.000410 0.000000
# 2 -0.003966 0.022052 -0.000590 0.000000 -0.001965 0.000000
# 3 -0.003232 -0.000590 0.007147 0.000000 0.000532 0.000000
# 4 0.000000 0.000000 0.000000 0.544341 0.000000 0.602791
# 5 -0.000410 -0.001965 0.000532 0.000000 0.025443 0.000000
# 6 0.000000 0.000000 0.000000 0.602791 0.000000 0.826162
#
#
# Mechanical properties :
#
#
# Convention : Reuss Voigt Hill
#
# Bulk Modulus (GPa) = 40.26241 55.80231 48.03236
# Shear Modulus (GPa) = 3.42416 27.04937 15.23676
#
# Velocity S-wave (km/s) = 1.23574 3.47320 2.60674
# Velocity P-wave (km/s) = 4.47121 6.40079 5.52095
#
# Compressibility (1/GPa) = 0.02483706
#
# Stress axis : x y z
#
# Youngs Moduli (GPa) = 89.18171 45.34793 139.91281
#
# Poissons Ratio (x) = 0.17984 0.45219
# Poissons Ratio (y) = 0.35368 0.08252
# Poissons Ratio (z) = 0.28823 0.02675
#
# Static dielectric constant tensor:
#      x y z
#    x 1.752350 0.000000 0.025650 
#    y 0.000000 1.806830 0.000000 
#    z 0.025650 0.000000 1.958340 
# 
# From -- ./inp_files/52351.got.cif
#   From: 2010.05.17/outbox.cif.g08.bks.cpg/sg15_27_cif.got.tgz:52351.got - 2010.06.03 18:47:42.
