data_PCOD9297569
_publ_section_title
;
Structure prediction by ZEFSAII (Michael W. Deem and Ramdas Pophale) SiO2 
 PCOD9297569
Probable space group: C 2/C
;
_chemical_formula_sum "Si O2"
_cell_formula_units_Z 56
_cell_length_a 21.819569
_cell_length_b 18.701621
_cell_length_c 16.750806
_cell_angle_alpha 90.000000
_cell_angle_beta 25.920886
_cell_angle_gamma 90.000000
_cell_volume 2987.936873
_symmetry_space_group_name_H-M "C 2/C"
_symmetry_group_IT_number 15
_symmetry_cell_setting 'monoclinic'
loop_
_space_group_symop_operation_xyz
x,y,z
-x,y,1/2-z
-x,-y,-z
x,-y,1/2+z
1/2+x,1/2+y,z
1/2-x,1/2+y,1/2-z
1/2-x,1/2-y,-z
1/2+x,1/2-y,1/2+z
loop_
_atom_site_type_symbol
_atom_site_label
_atom_site_fract_x
_atom_site_fract_y
_atom_site_fract_z
Si Si1 0.829820 0.600197 0.352715
Si Si2 0.284609 0.224476 0.281315
Si Si3 0.138680 0.187454 0.138572
Si Si4 0.849055 0.959823 0.963295
Si Si5 0.558425 0.700410 0.416656
Si Si6 0.336101 0.880045 0.030802
Si Si7 0.393599 0.439135 0.098981
O O1 0.772977 0.663741 0.362602
O O2 0.762379 0.524013 0.408428
O O3 0.795178 0.610049 0.486495
O O4 0.998692 0.606392 0.151133
O O5 0.198356 0.203942 0.303815
O O6 0.210576 0.298873 0.394175
O O7 0.447802 0.236795 0.066730
O O8 0.189751 0.110516 0.044021
O O9 0.095348 0.189289 0.281396
O O10 0.000000 0.203386 0.250000
O O11 0.250000 0.250000 0.000000
O O12 0.000000 0.983645 0.750000
O O13 0.871601 0.938013 0.029410
O O14 0.469679 0.631166 0.542161
O O15 0.253886 0.936250 0.182870
O O16 0.500000 0.500000 0.000000
#
# Coordination Sequence:
#
# PCOD9297569 Si02
#       7
#     8   8   8   8   8   8   8
#     4  11  23  44  64  97 140 176 224 282 346 401
#     4  11  22  41  67  99 132 178 222 273 342 402
#     4  11  23  43  66  96 130 172 221 279 333 394
#     4  11  23  43  67  96 135 176 228 278 338 407
#     4  11  22  39  67  95 131 170 221 276 325 405
#     4  10  24  41  65  96 139 176 222 284 333 410
#     4  11  22  41  65  95 130 176 226 277 333 404
#
# _framework density 18.74203
#
# number of rings (size 3 to 8) (size 9 to 14) (size 15 to 20)
#    0.000    1.143    4.286    3.000    2.000    1.714 
#    5.143    1.429    0.000    0.000    0.000    0.000 
#    0.000    0.000    0.000    0.000    0.000    0.000 
#
# Total GULP energy -156183.670541 kJ/mol
# GULP energy per Si atom -5577.988234 kJ/mol
# Density = 1.869937 g / cm^3
# Si number density = 18.742030 Si / 1000 Ang^3
#
#
#
# Elastic Constant Matrix: (Units=GPa)
#
#
# Indices 1 2 3 4 5 6 
#
# 1 129.1250 45.8961 43.8120 0.0006 7.3861 -0.0001
# 2 45.8961 114.8619 42.7381 0.0004 -7.8075 -0.0002
# 3 43.8120 42.7381 95.0586 0.0005 12.5084 -0.0002
# 4 0.0006 0.0004 0.0005 24.5942 -0.0004 -8.7577
# 5 7.3861 -7.8075 12.5084 -0.0004 29.7015 0.0001
# 6 -0.0001 -0.0002 -0.0002 -8.7577 0.0001 26.1907
#
#
#
# Elastic Compliance Matrix: (Units=1/GPa)
#
#
# Indices 1 2 3 4 5 6 
#
# 1 0.009932 -0.003003 -0.002963 0.000000 -0.002011 0.000000
# 2 -0.003003 0.012117 -0.004850 0.000000 0.005974 0.000000
# 3 -0.002963 -0.004850 0.014966 0.000000 -0.006841 0.000000
# 4 0.000000 0.000000 0.000000 0.046156 0.000001 0.015434
# 5 -0.002011 0.005974 -0.006841 0.000001 0.038620 0.000000
# 6 0.000000 0.000000 0.000000 0.015434 0.000000 0.043342
#
#
# Mechanical properties :
#
#
# Convention : Reuss Voigt Hill
#
# Bulk Modulus (GPa) = 65.00384 67.10422 66.05403
# Shear Modulus (GPa) = 26.05644 29.87058 27.96351
#
# Velocity S-wave (km/s) = 3.73267 3.99654 3.86686
# Velocity P-wave (km/s) = 7.30314 7.56164 7.43351
#
# Compressibility (1/GPa) = 0.01538371
#
# Stress axis : x y z
#
# Youngs Moduli (GPa) = 100.68307 82.53169 66.81842
#
# Poissons Ratio (x) = 0.24784 0.19797
# Poissons Ratio (y) = 0.30235 0.32405
# Poissons Ratio (z) = 0.29831 0.40025
#
# Static dielectric constant tensor:
#      x y z
#    x 1.627410 0.000000 -0.006020 
#    y 0.000000 1.710410 0.000000 
#    z -0.006020 0.000000 1.724870 
# 
# From -- ./inp_files/169114.got.cif
#   From: 2010.05.17/outbox.cif.g08.bks.cpg/sg15_85_cif.got.tgz:169114.got - 2010.06.03 18:47:42.
