data_PCOD9297637
_publ_section_title
;
Structure prediction by ZEFSAII (Michael W. Deem and Ramdas Pophale) SiO2 
 PCOD9297637
Probable space group: C 2/C
;
_chemical_formula_sum "Si O2"
_cell_formula_units_Z 60
_cell_length_a 19.323335
_cell_length_b 22.578420
_cell_length_c 9.230742
_cell_angle_alpha 90.000000
_cell_angle_beta 43.975633
_cell_angle_gamma 90.000000
_cell_volume 2796.354158
_symmetry_space_group_name_H-M "C 2/C"
_symmetry_group_IT_number 15
_symmetry_cell_setting 'monoclinic'
loop_
_space_group_symop_operation_xyz
x,y,z
-x,y,1/2-z
-x,-y,-z
x,-y,1/2+z
1/2+x,1/2+y,z
1/2-x,1/2+y,1/2-z
1/2-x,1/2-y,-z
1/2+x,1/2-y,1/2+z
loop_
_atom_site_type_symbol
_atom_site_label
_atom_site_fract_x
_atom_site_fract_y
_atom_site_fract_z
Si Si1 0.685624 0.349822 0.264161
Si Si2 0.500000 0.018721 0.750000
Si Si3 0.677577 0.560439 0.273827
Si Si4 0.617880 0.116712 0.441429
Si Si5 0.609360 0.099980 0.125133
Si Si6 0.609930 0.333272 0.052811
Si Si7 0.217212 0.730759 0.387219
Si Si8 0.890361 0.951343 0.948305
O O1 0.657613 0.344957 0.138176
O O2 0.684754 0.287370 0.344694
O O3 0.607759 0.391192 0.464437
O O4 0.796267 0.379424 0.110800
O O5 0.528948 0.067931 0.586122
O O6 0.411602 0.971539 0.847652
O O7 0.787801 0.582703 0.137414
O O8 0.604900 0.605977 0.467740
O O9 0.664413 0.497657 0.367774
O O10 0.659714 0.558343 0.130758
O O11 0.631399 0.124368 0.251141
O O12 0.630501 0.179969 0.503921
O O13 0.500000 0.124633 0.250000
O O14 0.500000 0.308767 0.250000
O O15 0.684995 0.294132 0.843759
O O16 0.250000 0.750000 0.500000
O O17 0.000000 0.974288 0.750000
#
# Coordination Sequence:
#
# PCOD9297637 Si02
#       8
#     8   4   8   8   8   8   8   8
#     4  12  23  46  69  97 142 186 237 302 355 437
#     4  10  24  42  70 106 144 178 246 292 384 436
#     4  11  23  40  68  95 138 177 229 287 372 422
#     4  11  23  45  66 100 142 185 231 305 356 442
#     4  10  24  41  72 106 139 182 240 297 376 440
#     4  11  23  44  73  99 133 182 240 297 359 427
#     4  11  26  47  68  97 142 192 243 294 369 433
#     4  12  25  40  65 100 138 179 232 292 362 432
#
# _framework density 21.456510999999999
#
# number of rings (size 3 to 8) (size 9 to 14) (size 15 to 20)
#    0.400    0.533    2.667    5.600    1.867    2.667 
#    3.600    0.000    0.000    0.000    0.000    0.000 
#    0.000    0.000    0.000    0.000    0.000    0.000 
#
# Total GULP energy -167383.576900 kJ/mol
# GULP energy per Si atom -5579.452563 kJ/mol
# Density = 2.140768 g / cm^3
# Si number density = 21.456511 Si / 1000 Ang^3
#
#
#
# Elastic Constant Matrix: (Units=GPa)
#
#
# Indices 1 2 3 4 5 6 
#
# 1 100.1991 17.8792 20.9772 0.0000 16.6885 0.0000
# 2 17.8792 131.4868 24.6701 0.0000 17.9692 0.0000
# 3 20.9772 24.6701 57.7210 0.0000 18.1202 0.0000
# 4 0.0000 0.0000 0.0000 42.5152 0.0000 3.7127
# 5 16.6885 17.9692 18.1202 0.0000 61.2897 0.0000
# 6 0.0000 0.0000 0.0000 3.7127 0.0000 16.7769
#
#
#
# Elastic Compliance Matrix: (Units=1/GPa)
#
#
# Indices 1 2 3 4 5 6 
#
# 1 0.011072 -0.000656 -0.003150 0.000000 -0.001891 0.000000
# 2 -0.000656 0.008438 -0.002918 0.000000 -0.001432 0.000000
# 3 -0.003150 -0.002918 0.021141 0.000000 -0.004537 0.000000
# 4 0.000000 0.000000 0.000000 0.023984 0.000000 -0.005308
# 5 -0.001891 -0.001432 -0.004537 0.000000 0.018592 0.000000
# 6 0.000000 0.000000 0.000000 -0.005308 0.000000 0.060780
#
#
# Mechanical properties :
#
#
# Convention : Reuss Voigt Hill
#
# Bulk Modulus (GPa) = 36.76133 46.27334 41.51733
# Shear Modulus (GPa) = 30.02592 39.17505 34.60048
#
# Velocity S-wave (km/s) = 3.74489 4.27756 4.02006
# Velocity P-wave (km/s) = 5.98908 6.78304 6.39839
#
# Compressibility (1/GPa) = 0.02720250
#
# Stress axis : x y z
#
# Youngs Moduli (GPa) = 90.32155 118.51390 47.30161
#
# Poissons Ratio (x) = 0.07776 0.14898
# Poissons Ratio (y) = 0.05926 0.13804
# Poissons Ratio (z) = 0.28447 0.34585
#
# Static dielectric constant tensor:
#      x y z
#    x 1.732820 0.000000 -0.044430 
#    y 0.000000 1.776500 0.000000 
#    z -0.044430 0.000000 1.855390 
# 
# From -- ./inp_files/58752.got.cif
#   From: 2010.05.17/outbox.cif.g08.bks.cpg/sg15_30_cif.got.tgz:58752.got - 2010.06.03 18:47:42.
