data_PCOD9297636
_publ_section_title
;
Structure prediction by ZEFSAII (Michael W. Deem and Ramdas Pophale) SiO2 
 PCOD9297636
Probable space group: C 2/C
;
_chemical_formula_sum "Si O2"
_cell_formula_units_Z 48
_cell_length_a 11.009738
_cell_length_b 20.278440
_cell_length_c 14.725523
_cell_angle_alpha 90.000000
_cell_angle_beta 141.692747
_cell_angle_gamma 90.000000
_cell_volume 2037.927536
_symmetry_space_group_name_H-M "C 2/C"
_symmetry_group_IT_number 15
_symmetry_cell_setting 'monoclinic'
loop_
_space_group_symop_operation_xyz
x,y,z
-x,y,1/2-z
-x,-y,-z
x,-y,1/2+z
1/2+x,1/2+y,z
1/2-x,1/2+y,1/2-z
1/2-x,1/2-y,-z
1/2+x,1/2-y,1/2+z
loop_
_atom_site_type_symbol
_atom_site_label
_atom_site_fract_x
_atom_site_fract_y
_atom_site_fract_z
Si Si1 0.456747 0.169476 0.924801
Si Si2 0.000000 0.637665 0.750000
Si Si3 0.076738 0.898625 0.042274
Si Si4 0.166748 0.210490 0.036730
Si Si5 0.000000 0.601464 0.250000
Si Si6 0.840938 0.048351 0.731003
Si Si7 0.287553 0.913267 0.800886
O O1 0.514550 0.176105 0.853754
O O2 0.346665 0.234254 0.894345
O O3 0.321598 0.104663 0.857530
O O4 0.633713 0.149498 0.097146
O O5 0.798096 0.597262 0.637567
O O6 0.037618 0.829017 0.073127
O O7 0.919830 0.899423 0.869853
O O8 0.054167 0.952239 0.108691
O O9 0.318162 0.150506 0.131309
O O10 0.250000 0.250000 0.000000
O O11 0.057943 0.567292 0.189345
O O12 0.000000 0.066018 0.750000
O O13 0.747240 0.977282 0.658114
#
# Coordination Sequence:
#
# PCOD9297636 Si02
#       7
#     8   4   8   8   4   8   8
#     4  11  25  44  71 107 141 193 236 296 365 419
#     4  10  26  45  66  96 148 185 232 282 356 444
#     4  10  25  45  68 104 137 192 234 295 364 419
#     4  11  22  42  74 103 144 176 242 303 358 428
#     4  10  24  41  72 106 138 183 234 304 356 422
#     4  11  25  43  69 102 145 188 242 290 360 428
#     4  11  24  44  69 104 139 186 241 293 356 421
#
# _framework density 23.553339000000001
#
# number of rings (size 3 to 8) (size 9 to 14) (size 15 to 20)
#    0.000    1.333    1.667    2.000   10.500    3.333 
#    0.000    0.000    0.000    0.000    0.000    0.000 
#    0.000    0.000    0.000    0.000    0.000    0.000 
#
# Total GULP energy -134022.677005 kJ/mol
# GULP energy per Si atom -5584.278209 kJ/mol
# Density = 2.349973 g / cm^3
# Si number density = 23.553339 Si / 1000 Ang^3
#
#
#
# Elastic Constant Matrix: (Units=GPa)
#
#
# Indices 1 2 3 4 5 6 
#
# 1 151.0049 7.8346 37.8151 -0.0001 -9.3879 -0.0001
# 2 7.8346 52.6440 -1.3880 0.0000 4.6888 0.0000
# 3 37.8151 -1.3880 111.1128 -0.0004 6.5384 -0.0003
# 4 -0.0001 0.0000 -0.0004 27.8984 -0.0002 -13.8809
# 5 -9.3879 4.6888 6.5384 -0.0002 36.9812 -0.0002
# 6 -0.0001 0.0000 -0.0003 -13.8809 -0.0002 19.4212
#
#
#
# Elastic Compliance Matrix: (Units=1/GPa)
#
#
# Indices 1 2 3 4 5 6 
#
# 1 0.007542 -0.001424 -0.002736 0.000000 0.002579 0.000000
# 2 -0.001424 0.019498 0.000904 0.000000 -0.002994 0.000000
# 3 -0.002736 0.000904 0.010095 0.000000 -0.002594 0.000000
# 4 0.000000 0.000000 0.000000 0.055626 0.000001 0.039757
# 5 0.002579 -0.002994 -0.002594 0.000001 0.028534 0.000001
# 6 0.000000 0.000000 0.000000 0.039757 0.000001 0.079906
#
#
# Mechanical properties :
#
#
# Convention : Reuss Voigt Hill
#
# Bulk Modulus (GPa) = 32.65551 44.80944 38.73248
# Shear Modulus (GPa) = 22.94429 34.89350 28.91889
#
# Velocity S-wave (km/s) = 3.12451 3.85316 3.50781
# Velocity P-wave (km/s) = 5.18761 6.23392 5.73468
#
# Compressibility (1/GPa) = 0.03062270
#
# Stress axis : x y z
#
# Youngs Moduli (GPa) = 132.59547 51.28742 99.05866
#
# Poissons Ratio (x) = 0.07304 0.27105
# Poissons Ratio (y) = 0.18884 -0.08959
# Poissons Ratio (z) = 0.36281 -0.04639
#
# Static dielectric constant tensor:
#      x y z
#    x 1.915630 0.000000 -0.003120 
#    y 0.000000 1.905210 0.000000 
#    z -0.003120 0.000000 1.998900 
# 
# From -- ./inp_files/147500.got.cif
#   From: 2010.05.17/outbox.cif.g08.bks.cpg/sg15_74_cif.got.tgz:147500.got - 2010.06.03 18:47:42.
