data_PCOD9297758
_publ_section_title
;
Structure prediction by ZEFSAII (Michael W. Deem and Ramdas Pophale) SiO2 
 PCOD9297758
Probable space group: C 2/C
;
_chemical_formula_sum "Si O2"
_cell_formula_units_Z 60
_cell_length_a 7.697585
_cell_length_b 12.320709
_cell_length_c 27.249228
_cell_angle_alpha 90.000000
_cell_angle_beta 103.601399
_cell_angle_gamma 90.000000
_cell_volume 2511.832469
_symmetry_space_group_name_H-M "C 2/C"
_symmetry_group_IT_number 15
_symmetry_cell_setting 'monoclinic'
loop_
_space_group_symop_operation_xyz
x,y,z
-x,y,1/2-z
-x,-y,-z
x,-y,1/2+z
1/2+x,1/2+y,z
1/2-x,1/2+y,1/2-z
1/2-x,1/2-y,-z
1/2+x,1/2-y,1/2+z
loop_
_atom_site_type_symbol
_atom_site_label
_atom_site_fract_x
_atom_site_fract_y
_atom_site_fract_z
Si Si1 0.891631 0.340414 0.192088
Si Si2 0.209956 0.112811 0.334729
Si Si3 0.741104 0.308841 0.327695
Si Si4 0.000000 0.963047 0.250000
Si Si5 0.718060 0.896534 0.551509
Si Si6 0.232930 0.368862 0.064018
Si Si7 0.423256 0.073430 0.189784
Si Si8 0.502192 0.302533 0.002369
O O1 0.046128 0.317903 0.162683
O O2 0.814508 0.460412 0.179187
O O3 0.000000 0.339429 0.250000
O O4 0.767213 0.236629 0.182296
O O5 0.178690 0.112975 0.390274
O O6 0.403134 0.062452 0.333664
O O7 0.050858 0.051558 0.295710
O O8 0.653100 0.375440 0.276368
O O9 0.688734 0.361131 0.376247
O O10 0.681651 0.184115 0.324677
O O11 0.582374 0.796801 0.539389
O O12 0.848148 0.873481 0.514347
O O13 0.634625 0.016485 0.549746
O O14 0.381941 0.368808 0.031749
O O15 0.114642 0.262336 0.045759
O O16 0.500000 0.077955 0.250000
#
# Coordination Sequence:
#
# PCOD9297758 Si02
#       8
#     8   8   8   4   8   8   8   8
#     4  11  24  41  60  90 128 173 219 263 302 376
#     4  12  24  42  66  95 132 173 214 255 326 379
#     4  12  24  42  66  95 132 173 214 255 326 379
#     4  12  24  40  68  96 136 172 208 264 312 384
#     4  11  22  43  67  94 127 166 208 267 323 380
#     4  11  22  43  67  94 127 166 208 267 323 380
#     4  11  24  41  60  90 128 173 219 263 302 376
#     4  10  24  42  66  96 124 160 218 270 316 374
#
# _framework density 23.886944
#
# number of rings (size 3 to 8) (size 9 to 14) (size 15 to 20)
#    0.000    0.800    4.000    3.200    0.000    0.000 
#    0.000    6.667    0.000    0.000    0.000    0.000 
#    0.000    0.000    0.000    0.000    0.000    0.000 
#
# Total GULP energy -167595.420659 kJ/mol
# GULP energy per Si atom -5586.514022 kJ/mol
# Density = 2.383258 g / cm^3
# Si number density = 23.886944 Si / 1000 Ang^3
#
#
#
# Elastic Constant Matrix: (Units=GPa)
#
#
# Indices 1 2 3 4 5 6 
#
# 1 24.5644 12.9529 0.9936 0.0000 2.3733 0.0000
# 2 12.9529 129.3790 13.2211 0.0000 -1.8070 0.0000
# 3 0.9936 13.2211 84.5117 0.0000 2.0077 0.0000
# 4 0.0000 0.0000 0.0000 13.5970 0.0000 1.8837
# 5 2.3733 -1.8070 2.0077 0.0000 14.9117 0.0000
# 6 0.0000 0.0000 0.0000 1.8837 0.0000 23.5246
#
#
#
# Elastic Compliance Matrix: (Units=1/GPa)
#
#
# Indices 1 2 3 4 5 6 
#
# 1 0.043815 -0.004530 0.000374 0.000000 -0.007573 0.000000
# 2 -0.004530 0.008342 -0.001297 0.000000 0.001907 0.000000
# 3 0.000374 -0.001297 0.012075 0.000000 -0.001842 0.000000
# 4 0.000000 0.000000 0.000000 0.074371 0.000000 -0.005955
# 5 -0.007573 0.001907 -0.001842 0.000000 0.068746 0.000000
# 6 0.000000 0.000000 0.000000 -0.005955 0.000000 0.042986
#
#
# Mechanical properties :
#
#
# Convention : Reuss Voigt Hill
#
# Bulk Modulus (GPa) = 18.75342 32.53227 25.64284
# Shear Modulus (GPa) = 17.92010 24.49249 21.20630
#
# Velocity S-wave (km/s) = 2.74196 3.20558 2.98279
# Velocity P-wave (km/s) = 4.22994 5.22971 4.75617
#
# Compressibility (1/GPa) = 0.05332361
#
# Stress axis : x y z
#
# Youngs Moduli (GPa) = 22.82339 119.87564 82.81596
#
# Poissons Ratio (x) = 0.54310 -0.03093
# Poissons Ratio (y) = 0.10340 0.10742
# Poissons Ratio (z) = -0.00853 0.15549
#
# Static dielectric constant tensor:
#      x y z
#    x 1.919470 0.000000 -0.013260 
#    y 0.000000 1.931670 0.000000 
#    z -0.013260 0.000000 1.894030 
# 
# From -- ./inp_files/288015.got.cif
#   From: 2010.05.17/outbox.cif.g08.bks.cpg/sg15_145_cif.got.tgz:288015.got - 2010.06.03 18:47:42.
