data_PCOD9297705
_publ_section_title
;
Structure prediction by ZEFSAII (Michael W. Deem and Ramdas Pophale) SiO2 
 PCOD9297705
Probable space group: C 2/C
;
_chemical_formula_sum "Si O2"
_cell_formula_units_Z 56
_cell_length_a 10.165529
_cell_length_b 10.297162
_cell_length_c 22.356792
_cell_angle_alpha 90.000000
_cell_angle_beta 111.161832
_cell_angle_gamma 90.000000
_cell_volume 2182.407730
_symmetry_space_group_name_H-M "C 2/C"
_symmetry_group_IT_number 15
_symmetry_cell_setting 'monoclinic'
loop_
_space_group_symop_operation_xyz
x,y,z
-x,y,1/2-z
-x,-y,-z
x,-y,1/2+z
1/2+x,1/2+y,z
1/2-x,1/2+y,1/2-z
1/2-x,1/2-y,-z
1/2+x,1/2-y,1/2+z
loop_
_atom_site_type_symbol
_atom_site_label
_atom_site_fract_x
_atom_site_fract_y
_atom_site_fract_z
Si Si1 0.709111 0.951963 0.787664
Si Si2 0.128793 0.459702 0.147016
Si Si3 0.064330 0.036976 0.610369
Si Si4 0.167434 0.073452 0.513339
Si Si5 0.586557 0.220034 0.820450
Si Si6 0.414778 0.306204 0.178246
Si Si7 0.154942 0.661507 0.060413
O O1 0.669063 0.952894 0.711560
O O2 0.876099 0.945107 0.827463
O O3 0.629845 0.839379 0.810631
O O4 0.667548 0.098179 0.801570
O O5 0.271226 0.388458 0.148315
O O6 0.076741 0.555460 0.086549
O O7 0.019608 0.351172 0.151133
O O8 0.930925 0.991450 0.551165
O O9 0.185344 0.005073 0.579388
O O10 0.014991 0.166138 0.637891
O O11 0.091416 0.200730 0.530089
O O12 0.301783 0.107997 0.497335
O O13 0.500000 0.278763 0.750000
O O14 0.703457 0.300045 0.877353
O O15 0.500000 0.355118 0.250000
#
# Coordination Sequence:
#
# PCOD9297705 Si02
#       7
#     8   8   8   8   8   8   8
#     4  11  25  42  69  99 135 174 217 282 346 396
#     4  11  25  41  68 104 132 172 224 280 341 405
#     4  11  23  47  65  95 136 174 228 272 327 403
#     4  10  24  42  69  90 131 185 223 270 324 393
#     4  10  24  42  65 101 132 171 222 278 343 402
#     4  12  25  42  70 103 134 174 221 282 346 399
#     4  11  23  45  67  92 135 180 219 275 334 390
#
# _framework density 25.659732000000002
#
# number of rings (size 3 to 8) (size 9 to 14) (size 15 to 20)
#    0.000    1.143    4.286    1.286   10.000    0.571 
#    0.000    8.571    0.000    0.000    0.000    0.000 
#    0.000    0.000    0.000    0.000    0.000    0.000 
#
# Total GULP energy -156339.773653 kJ/mol
# GULP energy per Si atom -5583.563345 kJ/mol
# Density = 2.560133 g / cm^3
# Si number density = 25.659732 Si / 1000 Ang^3
#
#
#
# Elastic Constant Matrix: (Units=GPa)
#
#
# Indices 1 2 3 4 5 6 
#
# 1 69.0093 30.9613 39.6716 0.0000 -15.1464 0.0000
# 2 30.9613 81.2033 40.2030 0.0000 -11.4117 0.0000
# 3 39.6716 40.2030 117.0830 0.0000 -25.4657 0.0000
# 4 0.0000 0.0000 0.0000 49.7092 0.0000 -10.6825
# 5 -15.1464 -11.4117 -25.4657 0.0000 51.8811 0.0000
# 6 0.0000 0.0000 0.0000 -10.6825 0.0000 36.8481
#
#
#
# Elastic Compliance Matrix: (Units=1/GPa)
#
#
# Indices 1 2 3 4 5 6 
#
# 1 0.019853 -0.005008 -0.004462 0.000000 0.002504 0.000000
# 2 -0.005008 0.016134 -0.003794 0.000000 0.000224 0.000000
# 3 -0.004462 -0.003794 0.012193 0.000000 0.003847 0.000000
# 4 0.000000 0.000000 0.000000 0.021454 0.000000 0.006220
# 5 0.002504 0.000224 0.003847 0.000000 0.021944 0.000000
# 6 0.000000 0.000000 0.000000 0.006220 0.000000 0.028942
#
#
# Mechanical properties :
#
#
# Convention : Reuss Voigt Hill
#
# Bulk Modulus (GPa) = 46.19020 54.32970 50.25995
# Shear Modulus (GPa) = 32.41173 38.11833 35.26503
#
# Velocity S-wave (km/s) = 3.55792 3.85844 3.71122
# Velocity P-wave (km/s) = 5.90919 6.40852 6.16391
#
# Compressibility (1/GPa) = 0.02164961
#
# Stress axis : x y z
#
# Youngs Moduli (GPa) = 50.37103 61.97941 82.01659
#
# Poissons Ratio (x) = 0.31041 0.36600
# Poissons Ratio (y) = 0.25227 0.31120
# Poissons Ratio (z) = 0.22478 0.23517
#
# Static dielectric constant tensor:
#      x y z
#    x 2.217140 0.000000 -0.068880 
#    y 0.000000 2.126990 0.000000 
#    z -0.068880 0.000000 2.128930 
# 
# From -- ./inp_files/237657.got.cif
#   From: 2010.05.17/outbox.cif.g08.bks.cpg/sg15_119_cif.got.tgz:237657.got - 2010.06.03 18:47:42.
