data_PCOD9297303
_publ_section_title
;
Structure prediction by ZEFSAII (Michael W. Deem and Ramdas Pophale) SiO2 
 PCOD9297303
Probable space group: C 2/C
;
_chemical_formula_sum "Si O2"
_cell_formula_units_Z 52
_cell_length_a 11.966910
_cell_length_b 28.334163
_cell_length_c 16.665412
_cell_angle_alpha 90.000000
_cell_angle_beta 26.267972
_cell_angle_gamma 90.000000
_cell_volume 2500.866046
_symmetry_space_group_name_H-M "C 2/C"
_symmetry_group_IT_number 15
_symmetry_cell_setting 'monoclinic'
loop_
_space_group_symop_operation_xyz
x,y,z
-x,y,1/2-z
-x,-y,-z
x,-y,1/2+z
1/2+x,1/2+y,z
1/2-x,1/2+y,1/2-z
1/2-x,1/2-y,-z
1/2+x,1/2-y,1/2+z
loop_
_atom_site_type_symbol
_atom_site_label
_atom_site_fract_x
_atom_site_fract_y
_atom_site_fract_z
Si Si1 0.378355 0.920018 0.915682
Si Si2 0.956995 0.472889 0.373758
Si Si3 0.584484 0.858531 0.922904
Si Si4 0.894073 0.226970 0.227802
Si Si5 0.247503 0.824583 0.371039
Si Si6 0.843071 0.900291 0.191392
Si Si7 0.000000 0.916084 0.750000
O O1 0.500000 0.917725 0.750000
O O2 0.502025 0.881681 0.893138
O O3 0.431609 0.972456 0.914494
O O4 0.082751 0.911739 0.090968
O O5 0.705072 0.446352 0.567532
O O6 0.000000 0.470660 0.250000
O O7 0.200071 0.447515 0.255607
O O8 0.642216 0.803499 0.880866
O O9 0.836583 0.883629 0.795267
O O10 0.363074 0.871228 0.126350
O O11 0.843609 0.282473 0.251050
O O12 0.000000 0.221244 0.250000
O O13 0.086038 0.203428 0.041407
O O14 0.500000 0.845255 0.250000
O O15 0.101812 0.866325 0.420102
#
# Coordination Sequence:
#
# PCOD9297303 Si02
#       7
#     8   8   8   8   8   8   4
#     4  11  26  42  63  93 127 175 214 266 326 389
#     4  10  25  40  65  92 129 170 223 274 322 387
#     4  11  23  41  64  94 129 168 215 267 318 391
#     4  11  21  38  63  97 129 166 214 265 323 378
#     4  11  22  37  65  94 132 166 213 268 320 385
#     4  11  24  42  63  93 128 172 215 265 331 380
#     4  10  24  38  68  92 126 168 222 266 334 370
#
# _framework density 20.792795999999999
#
# number of rings (size 3 to 8) (size 9 to 14) (size 15 to 20)
#    0.000    1.231    0.769    5.538   10.769    2.462 
#    0.000    0.769    0.000    0.000    0.000    0.000 
#    0.000    0.000    0.000    0.000    0.000    0.000 
#
# Total GULP energy -145437.368655 kJ/mol
# GULP energy per Si atom -5593.744948 kJ/mol
# Density = 2.074547 g / cm^3
# Si number density = 20.792796 Si / 1000 Ang^3
#
#
#
# Elastic Constant Matrix: (Units=GPa)
#
#
# Indices 1 2 3 4 5 6 
#
# 1 87.6974 51.0314 27.7106 0.0309 -21.9918 -0.0077
# 2 51.0314 111.5163 15.8225 -0.0303 -19.2893 -0.0585
# 3 27.7106 15.8225 69.8439 0.0711 -9.9427 0.0236
# 4 0.0309 -0.0303 0.0711 26.5295 -0.0239 8.1634
# 5 -21.9918 -19.2893 -9.9427 -0.0239 39.2564 0.0519
# 6 -0.0077 -0.0585 0.0236 8.1634 0.0519 43.5293
#
#
#
# Elastic Compliance Matrix: (Units=1/GPa)
#
#
# Indices 1 2 3 4 5 6 
#
# 1 0.018277 -0.006677 -0.004926 -0.000008 0.005710 -0.000008
# 2 -0.006677 0.012413 0.000179 0.000021 0.002404 0.000009
# 3 -0.004926 0.000179 0.016444 -0.000035 0.001493 -0.000005
# 4 -0.000008 0.000021 -0.000035 0.040003 0.000031 -0.007502
# 5 0.005710 0.002404 0.001493 0.000031 0.030232 -0.000038
# 6 -0.000008 0.000009 -0.000005 -0.007502 -0.000038 0.024380
#
#
# Mechanical properties :
#
#
# Convention : Reuss Voigt Hill
#
# Bulk Modulus (GPa) = 41.17460 50.90963 46.04212
# Shear Modulus (GPa) = 28.95339 33.49589 31.22464
#
# Velocity S-wave (km/s) = 3.73563 4.01800 3.87939
# Velocity P-wave (km/s) = 6.20096 6.78699 6.50058
#
# Compressibility (1/GPa) = 0.02428682
#
# Stress axis : x y z
#
# Youngs Moduli (GPa) = 54.71468 80.55899 60.81256
#
# Poissons Ratio (x) = 0.53789 0.29955
# Poissons Ratio (y) = 0.36533 -0.01090
# Poissons Ratio (z) = 0.26951 -0.01444
#
# Static dielectric constant tensor:
#      x y z
#    x 1.766560 0.000010 0.028630 
#    y 0.000010 1.762710 0.000000 
#    z 0.028630 0.000000 1.798150 
# 
# From -- ./inp_files/245771.got.cif
#   From: 2010.05.17/outbox.cif.g08.bks.cpg/sg15_123_cif.got.tgz:245771.got - 2010.06.03 18:47:42.
