data_PCOD9297355
_publ_section_title
;
Structure prediction by ZEFSAII (Michael W. Deem and Ramdas Pophale) SiO2 
 PCOD9297355
Probable space group: C 2/C
;
_chemical_formula_sum "Si O2"
_cell_formula_units_Z 36
_cell_length_a 11.889371
_cell_length_b 7.596895
_cell_length_c 20.017384
_cell_angle_alpha 90.000000
_cell_angle_beta 77.368644
_cell_angle_gamma 90.000000
_cell_volume 1764.257231
_symmetry_space_group_name_H-M "C 2/C"
_symmetry_group_IT_number 15
_symmetry_cell_setting 'monoclinic'
loop_
_space_group_symop_operation_xyz
x,y,z
-x,y,1/2-z
-x,-y,-z
x,-y,1/2+z
1/2+x,1/2+y,z
1/2-x,1/2+y,1/2-z
1/2-x,1/2-y,-z
1/2+x,1/2-y,1/2+z
loop_
_atom_site_type_symbol
_atom_site_label
_atom_site_fract_x
_atom_site_fract_y
_atom_site_fract_z
Si Si1 0.000000 0.309256 0.750000
Si Si2 0.048605 0.188195 0.075539
Si Si3 0.910044 0.187566 0.965084
Si Si4 0.098195 0.071874 0.842561
Si Si5 0.164125 0.523637 0.120067
O O1 0.090556 0.181486 0.776029
O O2 0.067632 0.421577 0.686619
O O3 0.123267 0.352443 0.085572
O O4 0.119043 0.020831 0.035968
O O5 0.982787 0.101680 0.147340
O O6 0.949880 0.234805 0.034132
O O7 0.827737 0.316606 0.934651
O O8 0.030929 0.188111 0.907188
O O9 0.221098 0.018494 0.854116
#
# Coordination Sequence:
#
# PCOD9297355 Si02
#       5
#     4   8   8   8   8
#     4  10  24  40  50  84 118 136 206 240 242 344
#     4   9  19  39  59  84 119 141 176 241 280 326
#     4   8  19  41  54  91 120 128 189 240 263 350
#     4   9  21  39  57  81 112 148 186 230 277 327
#     4  11  21  38  61  82 109 158 184 222 291 324
#
# _framework density 20.405190000000001
#
# number of rings (size 3 to 8) (size 9 to 14) (size 15 to 20)
#    1.333    1.333    0.000    0.667    0.000    6.222 
#    8.000    0.000    0.000    0.000    0.000    0.000 
#    0.000    0.000    0.000    0.000    0.000    0.000 
#
# Total GULP energy -100259.164522 kJ/mol
# GULP energy per Si atom -5569.953585 kJ/mol
# Density = 2.035875 g / cm^3
# Si number density = 20.405190 Si / 1000 Ang^3
#
#
#
# Elastic Constant Matrix: (Units=GPa)
#
#
# Indices 1 2 3 4 5 6 
#
# 1 73.9210 43.8230 9.2146 0.0000 24.1809 0.0000
# 2 43.8230 89.3879 35.0837 0.0000 28.8458 0.0000
# 3 9.2146 35.0837 49.3535 0.0000 6.8648 0.0000
# 4 0.0000 0.0000 0.0000 22.9147 0.0000 11.5789
# 5 24.1809 28.8458 6.8648 0.0000 28.5212 0.0000
# 6 0.0000 0.0000 0.0000 11.5789 0.0000 28.5796
#
#
#
# Elastic Compliance Matrix: (Units=1/GPa)
#
#
# Indices 1 2 3 4 5 6 
#
# 1 0.021615 -0.008606 0.003539 0.000000 -0.010473 0.000000
# 2 -0.008606 0.026356 -0.014936 0.000000 -0.015764 0.000000
# 3 0.003539 -0.014936 0.029523 0.000000 0.005000 0.000000
# 4 0.000000 0.000000 0.000000 0.054874 0.000000 -0.022232
# 5 -0.010473 -0.015764 0.005000 0.000000 0.058682 0.000000
# 6 0.000000 0.000000 0.000000 -0.022232 0.000000 0.043997
#
#
# Mechanical properties :
#
#
# Convention : Reuss Voigt Hill
#
# Bulk Modulus (GPa) = 26.67535 43.21166 34.94350
# Shear Modulus (GPa) = 17.38842 24.30586 20.84714
#
# Velocity S-wave (km/s) = 2.92234 3.45506 3.19981
# Velocity P-wave (km/s) = 4.94853 6.09421 5.55101
#
# Compressibility (1/GPa) = 0.03748780
#
# Stress axis : x y z
#
# Youngs Moduli (GPa) = 46.26475 37.94254 33.87166
#
# Poissons Ratio (x) = 0.32653 -0.11987
# Poissons Ratio (y) = 0.39815 0.50590
# Poissons Ratio (z) = -0.16372 0.56670
#
# Static dielectric constant tensor:
#      x y z
#    x 1.745050 0.000000 -0.047270 
#    y 0.000000 1.739080 0.000000 
#    z -0.047270 0.000000 1.751350 
# 
# From -- ./inp_files/235522.got.cif
#   From: 2010.05.17/outbox.cif.g08.bks.cpg/sg15_118_cif.got.tgz:235522.got - 2010.06.03 18:47:42.
