data_PCOD9297142
_publ_section_title
;
Structure prediction by ZEFSAII (Michael W. Deem and Ramdas Pophale) SiO2 
 PCOD9297142
Probable space group: C 2/C
;
_chemical_formula_sum "Si O2"
_cell_formula_units_Z 40
_cell_length_a 10.406303
_cell_length_b 19.254224
_cell_length_c 13.663260
_cell_angle_alpha 90.000000
_cell_angle_beta 41.330877
_cell_angle_gamma 90.000000
_cell_volume 1807.957072
_symmetry_space_group_name_H-M "C 2/C"
_symmetry_group_IT_number 15
_symmetry_cell_setting 'monoclinic'
loop_
_space_group_symop_operation_xyz
x,y,z
-x,y,1/2-z
-x,-y,-z
x,-y,1/2+z
1/2+x,1/2+y,z
1/2-x,1/2+y,1/2-z
1/2-x,1/2-y,-z
1/2+x,1/2-y,1/2+z
loop_
_atom_site_type_symbol
_atom_site_label
_atom_site_fract_x
_atom_site_fract_y
_atom_site_fract_z
Si Si1 0.895657 0.043680 0.475011
Si Si2 0.500000 0.112026 0.250000
Si Si3 0.316550 0.327203 0.695158
Si Si4 0.844731 0.454360 0.029246
Si Si5 0.500000 0.891394 0.250000
Si Si6 0.016691 0.323368 0.448029
O O1 0.028734 0.110946 0.375942
O O2 0.697411 0.066164 0.641709
O O3 0.832920 0.999504 0.414058
O O4 0.000000 0.000000 0.500000
O O5 0.545747 0.066662 0.131332
O O6 0.686906 0.155205 0.174150
O O7 0.832421 0.322785 0.627485
O O8 0.410777 0.254112 0.613179
O O9 0.000000 0.500000 0.000000
O O10 0.829061 0.380503 0.095873
O O11 0.468317 0.849620 0.367638
#
# Coordination Sequence:
#
# PCOD9297142 Si02
#       6
#     8   4   8   8   4   8
#     4  12  26  48  82 113 154 208 257 320 391 466
#     4  10  23  48  76 106 165 190 260 320 385 458
#     4  11  26  49  80 114 152 210 262 320 392 466
#     4  11  23  46  76 109 152 203 246 319 385 456
#     4  12  27  52  76 110 165 196 262 326 391 456
#     4  11  27  50  78 112 157 207 258 324 386 470
#
# _framework density 22.124419
#
# number of rings (size 3 to 8) (size 9 to 14) (size 15 to 20)
#    0.000    0.800    4.000    1.800    2.800    7.200 
#    7.200    0.000    0.000    0.000    0.000    0.000 
#    0.000    0.000    0.000    0.000    0.000    0.000 
#
# Total GULP energy -111726.917836 kJ/mol
# GULP energy per Si atom -5586.345892 kJ/mol
# Density = 2.207406 g / cm^3
# Si number density = 22.124419 Si / 1000 Ang^3
#
#
#
# Elastic Constant Matrix: (Units=GPa)
#
#
# Indices 1 2 3 4 5 6 
#
# 1 180.4362 107.9526 64.7170 0.0001 0.6780 0.0003
# 2 107.9526 201.1518 77.9976 0.0000 -12.9377 0.0001
# 3 64.7170 77.9976 135.7789 -0.0007 0.5509 0.0007
# 4 0.0001 0.0000 -0.0007 43.1115 -0.0002 -8.4432
# 5 0.6780 -12.9377 0.5509 -0.0002 46.0538 -0.0005
# 6 0.0003 0.0001 0.0007 -8.4432 -0.0005 4.4302
#
#
#
# Elastic Compliance Matrix: (Units=1/GPa)
#
#
# Indices 1 2 3 4 5 6 
#
# 1 0.008574 -0.003985 -0.001792 0.000000 -0.001224 -0.000001
# 2 -0.003985 0.008408 -0.002941 0.000000 0.002456 0.000001
# 3 -0.001792 -0.002941 0.009912 0.000000 -0.000918 -0.000002
# 4 0.000000 0.000000 0.000000 0.037009 0.000001 0.070534
# 5 -0.001224 0.002456 -0.000918 0.000001 0.022433 0.000005
# 6 -0.000001 0.000001 -0.000002 0.070534 0.000005 0.360148
#
#
# Mechanical properties :
#
#
# Convention : Reuss Voigt Hill
#
# Bulk Modulus (GPa) = 105.72991 113.18905 109.45948
# Shear Modulus (GPa) = 10.70495 36.49907 23.60201
#
# Velocity S-wave (km/s) = 2.20205 4.06608 3.26971
# Velocity P-wave (km/s) = 7.37278 8.56244 7.98978
#
# Compressibility (1/GPa) = 0.00945806
#
# Stress axis : x y z
#
# Youngs Moduli (GPa) = 116.63411 118.93090 100.88572
#
# Poissons Ratio (x) = 0.47395 0.18083
# Poissons Ratio (y) = 0.46479 0.29667
# Poissons Ratio (z) = 0.20906 0.34973
#
# Static dielectric constant tensor:
#      x y z
#    x 1.864700 0.000000 -0.011770 
#    y 0.000000 1.916270 0.000000 
#    z -0.011770 0.000000 1.798620 
# 
# From -- ./inp_files/135793.got.cif
#   From: 2010.05.17/outbox.cif.g08.bks.cpg/sg15_68_cif.got.tgz:135793.got - 2010.06.03 18:47:42.
