data_PCOD9297282
_publ_section_title
;
Structure prediction by ZEFSAII (Michael W. Deem and Ramdas Pophale) SiO2 
 PCOD9297282
Probable space group: C 2/C
;
_chemical_formula_sum "Si O2"
_cell_formula_units_Z 36
_cell_length_a 9.268032
_cell_length_b 21.574685
_cell_length_c 9.061367
_cell_angle_alpha 90.000000
_cell_angle_beta 88.560097
_cell_angle_gamma 90.000000
_cell_volume 1811.292340
_symmetry_space_group_name_H-M "C 2/C"
_symmetry_group_IT_number 15
_symmetry_cell_setting 'monoclinic'
loop_
_space_group_symop_operation_xyz
x,y,z
-x,y,1/2-z
-x,-y,-z
x,-y,1/2+z
1/2+x,1/2+y,z
1/2-x,1/2+y,1/2-z
1/2-x,1/2-y,-z
1/2+x,1/2-y,1/2+z
loop_
_atom_site_type_symbol
_atom_site_label
_atom_site_fract_x
_atom_site_fract_y
_atom_site_fract_z
Si Si1 0.134808 0.919047 0.519128
Si Si2 0.000000 0.983190 0.250000
Si Si3 0.533629 0.064907 0.423483
Si Si4 0.062556 0.199713 0.399319
Si Si5 0.104754 0.316151 0.606184
O O1 0.303945 0.913040 0.546679
O O2 0.101415 0.942223 0.353759
O O3 0.038774 0.857832 0.551448
O O4 0.084540 0.972109 0.635445
O O5 0.500000 0.056983 0.250000
O O6 0.433316 0.121222 0.480269
O O7 0.500000 0.000000 0.500000
O O8 0.073126 0.253390 0.519487
O O9 0.226393 0.179158 0.362486
O O10 0.000000 0.226427 0.250000
O O11 0.000000 0.315446 0.750000
#
# Coordination Sequence:
#
# PCOD9297282 Si02
#       5
#     8   4   8   8   8
#     4  11  23  41  65  94 127 171 210 261 315 385
#     4  10  24  38  64  94 128 164 214 254 310 382
#     4  11  24  41  64  95 129 164 204 263 319 376
#     4  11  23  43  66  91 126 170 215 263 315 385
#     4  10  25  43  62  93 127 165 216 265 318 376
#
# _framework density 19.875312999999998
#
# number of rings (size 3 to 8) (size 9 to 14) (size 15 to 20)
#    0.000    1.333    1.111    4.000    7.778    4.444 
#    4.000    0.000    0.000    0.000    0.000    0.000 
#    0.000    0.000    0.000    0.000    0.000    0.000 
#
# Total GULP energy -100534.078207 kJ/mol
# GULP energy per Si atom -5585.226567 kJ/mol
# Density = 1.983008 g / cm^3
# Si number density = 19.875313 Si / 1000 Ang^3
#
#
#
# Elastic Constant Matrix: (Units=GPa)
#
#
# Indices 1 2 3 4 5 6 
#
# 1 166.5483 63.0330 44.0433 0.0000 23.0781 0.0000
# 2 63.0330 99.2150 32.7539 0.0000 -0.9047 0.0000
# 3 44.0433 32.7539 89.6927 0.0000 20.7330 0.0000
# 4 0.0000 0.0000 0.0000 24.1132 0.0000 4.2516
# 5 23.0781 -0.9047 20.7330 0.0000 31.3941 0.0000
# 6 0.0000 0.0000 0.0000 4.2516 0.0000 28.7119
#
#
#
# Elastic Compliance Matrix: (Units=1/GPa)
#
#
# Indices 1 2 3 4 5 6 
#
# 1 0.009273 -0.005600 -0.001057 0.000000 -0.006280 0.000000
# 2 -0.005600 0.015208 -0.004552 0.000000 0.007561 0.000000
# 3 -0.001057 -0.004552 0.015556 0.000000 -0.009627 0.000000
# 4 0.000000 0.000000 0.000000 0.042583 0.000000 -0.006306
# 5 -0.006280 0.007561 -0.009627 0.000000 0.043046 0.000000
# 6 0.000000 0.000000 0.000000 -0.006306 0.000000 0.035763
#
#
# Mechanical properties :
#
#
# Convention : Reuss Voigt Hill
#
# Bulk Modulus (GPa) = 56.75213 70.56849 63.66031
# Shear Modulus (GPa) = 26.35473 31.21891 28.78682
#
# Velocity S-wave (km/s) = 3.64538 3.96755 3.80988
# Velocity P-wave (km/s) = 6.80694 7.52139 7.17307
#
# Compressibility (1/GPa) = 0.01762048
#
# Stress axis : x y z
#
# Youngs Moduli (GPa) = 107.83555 65.75305 64.28458
#
# Poissons Ratio (x) = 0.36821 0.06795
# Poissons Ratio (y) = 0.60386 0.29261
# Poissons Ratio (z) = 0.11398 0.29929
#
# Static dielectric constant tensor:
#      x y z
#    x 1.728080 0.000000 -0.006730 
#    y 0.000000 1.703190 0.000000 
#    z -0.006730 0.000000 1.697230 
# 
# From -- ./inp_files/22509.got.cif
#   From: 2010.05.17/outbox.cif.g08.bks.cpg/sg15_12_cif.got.tgz:22509.got - 2010.06.03 18:47:42.
