data_PCOD9297769
_publ_section_title
;
Structure prediction by ZEFSAII (Michael W. Deem and Ramdas Pophale) SiO2 
 PCOD9297769
Probable space group: C 2/C
;
_chemical_formula_sum "Si O2"
_cell_formula_units_Z 56
_cell_length_a 5.717696
_cell_length_b 14.584123
_cell_length_c 25.392653
_cell_angle_alpha 90.000000
_cell_angle_beta 95.908788
_cell_angle_gamma 90.000000
_cell_volume 2106.182095
_symmetry_space_group_name_H-M "C 2/C"
_symmetry_group_IT_number 15
_symmetry_cell_setting 'monoclinic'
loop_
_space_group_symop_operation_xyz
x,y,z
-x,y,1/2-z
-x,-y,-z
x,-y,1/2+z
1/2+x,1/2+y,z
1/2-x,1/2+y,1/2-z
1/2-x,1/2-y,-z
1/2+x,1/2-y,1/2+z
loop_
_atom_site_type_symbol
_atom_site_label
_atom_site_fract_x
_atom_site_fract_y
_atom_site_fract_z
Si Si1 0.679939 0.577347 0.991743
Si Si2 0.500000 0.535578 0.750000
Si Si3 0.000000 0.743074 0.750000
Si Si4 0.659591 0.897519 0.707615
Si Si5 0.473830 0.048899 0.571188
Si Si6 0.983107 0.712034 0.393519
Si Si7 0.012742 0.764367 0.949141
Si Si8 0.213190 0.371658 0.331814
O O1 0.562083 0.675101 0.001222
O O2 0.880233 0.541370 0.038119
O O3 0.500000 0.500000 0.000000
O O4 0.750595 0.552954 0.933710
O O5 0.366300 0.470147 0.705604
O O6 0.673962 0.593301 0.718861
O O7 0.223491 0.808217 0.762786
O O8 0.994622 0.687655 0.804558
O O9 0.500000 0.937897 0.750000
O O10 0.542023 0.865930 0.651493
O O11 0.440609 0.154055 0.544711
O O12 0.376768 0.057640 0.626990
O O13 0.754716 0.698338 0.428260
O O14 0.898269 0.806191 0.364502
O O15 0.261091 0.722163 0.413493
#
# Coordination Sequence:
#
# PCOD9297769 Si02
#       8
#     8   4   4   8   8   8   8   8
#     4  11  27  49  77 113 148 193 248 321 386 462
#     4  11  26  42  64 111 138 198 248 315 370 438
#     4   9  22  44  70  97 134 190 246 299 364 444
#     4  10  24  42  66  97 147 190 247 300 376 442
#     4  10  26  48  74 109 148 198 244 313 380 462
#     4  10  26  45  77 106 146 201 248 305 376 451
#     4  11  26  50  78 112 147 200 249 309 382 459
#     4  10  24  45  71 104 144 190 251 307 368 442
#
# _framework density 26.588393
#
# number of rings (size 3 to 8) (size 9 to 14) (size 15 to 20)
#    0.000    1.714    0.000    0.429   23.000    0.571 
#    2.571    0.000    0.000    0.000    0.000    0.000 
#    0.000    0.000    0.000    0.000    0.000    0.000 
#
# Total GULP energy -156260.664410 kJ/mol
# GULP energy per Si atom -5580.738015 kJ/mol
# Density = 2.652788 g / cm^3
# Si number density = 26.588393 Si / 1000 Ang^3
#
#
#
# Elastic Constant Matrix: (Units=GPa)
#
#
# Indices 1 2 3 4 5 6 
#
# 1 135.6332 32.2072 67.5819 0.0000 11.7473 0.0000
# 2 32.2072 107.1810 20.1863 0.0000 -7.5253 0.0000
# 3 67.5819 20.1863 95.5331 0.0000 -11.4223 0.0000
# 4 0.0000 0.0000 0.0000 25.1504 0.0000 -8.0656
# 5 11.7473 -7.5253 -11.4223 0.0000 59.8014 0.0000
# 6 0.0000 0.0000 0.0000 -8.0656 0.0000 37.0325
#
#
#
# Elastic Compliance Matrix: (Units=1/GPa)
#
#
# Indices 1 2 3 4 5 6 
#
# 1 0.012933 -0.002481 -0.009175 0.000000 -0.004605 0.000000
# 2 -0.002481 0.010235 -0.000200 0.000000 0.001737 0.000000
# 3 -0.009175 -0.000200 0.017615 0.000000 0.005142 0.000000
# 4 0.000000 0.000000 0.000000 0.042746 0.000000 0.009310
# 5 -0.004605 0.001737 0.005142 0.000000 0.018827 0.000000
# 6 0.000000 0.000000 0.000000 0.009310 0.000000 0.029031
#
#
# Mechanical properties :
#
#
# Convention : Reuss Voigt Hill
#
# Bulk Modulus (GPa) = 58.57956 64.25535 61.41746
# Shear Modulus (GPa) = 31.09646 38.95500 35.02573
#
# Velocity S-wave (km/s) = 3.42358 3.83183 3.63344
# Velocity P-wave (km/s) = 6.14066 6.61789 6.38373
#
# Compressibility (1/GPa) = 0.01707080
#
# Stress axis : x y z
#
# Youngs Moduli (GPa) = 77.32417 97.70166 56.76948
#
# Poissons Ratio (x) = 0.24244 0.52086
# Poissons Ratio (y) = 0.19188 0.01133
# Poissons Ratio (z) = 0.70945 0.01950
#
# Static dielectric constant tensor:
#      x y z
#    x -5.207750 0.000000 -6.815120 
#    y 0.000000 2.939600 0.000000 
#    z -6.815120 0.000000 -3.965220 
# 
# From -- ./inp_files/305438.got.cif
#   From: 2010.05.17/outbox.cif.g08.bks.cpg/sg15_153_cif.got.tgz:305438.got - 2010.06.03 18:47:42.
