data_PCOD9297358
_publ_section_title
;
Structure prediction by ZEFSAII (Michael W. Deem and Ramdas Pophale) SiO2 
 PCOD9297358
Probable space group: C 2/C
;
_chemical_formula_sum "Si O2"
_cell_formula_units_Z 36
_cell_length_a 10.160873
_cell_length_b 9.639684
_cell_length_c 14.992346
_cell_angle_alpha 90.000000
_cell_angle_beta 61.190523
_cell_angle_gamma 90.000000
_cell_volume 1286.708116
_symmetry_space_group_name_H-M "C 2/C"
_symmetry_group_IT_number 15
_symmetry_cell_setting 'monoclinic'
loop_
_space_group_symop_operation_xyz
x,y,z
-x,y,1/2-z
-x,-y,-z
x,-y,1/2+z
1/2+x,1/2+y,z
1/2-x,1/2+y,1/2-z
1/2-x,1/2-y,-z
1/2+x,1/2-y,1/2+z
loop_
_atom_site_type_symbol
_atom_site_label
_atom_site_fract_x
_atom_site_fract_y
_atom_site_fract_z
Si Si1 0.796065 0.985555 0.750533
Si Si2 0.500000 0.928178 0.750000
Si Si3 0.485677 0.726484 0.092601
Si Si4 0.293665 0.093437 0.048064
Si Si5 0.007069 0.780835 0.396137
O O1 0.647463 0.002476 0.739288
O O2 0.754616 0.025920 0.866938
O O3 0.875887 0.835856 0.702282
O O4 0.922829 0.088981 0.674444
O O5 0.558458 0.825862 0.652555
O O6 0.641888 0.640104 0.051186
O O7 0.561565 0.882912 0.063268
O O8 0.418294 0.692672 0.016653
O O9 0.351520 0.197479 0.106775
#
# Coordination Sequence:
#
# PCOD9297358 Si02
#       5
#     8   4   8   8   8
#     4  11  20  38  62  85 122 162 188 252 307 342
#     4  10  24  40  54  96 124 148 212 246 290 374
#     4   9  18  37  62  87 114 157 203 243 296 360
#     4   8  19  36  58  91 116 144 210 242 285 372
#     4   9  20  38  59  86 117 155 198 242 303 353
#
# _framework density 27.978370999999999
#
# number of rings (size 3 to 8) (size 9 to 14) (size 15 to 20)
#    1.333    1.333    0.000    1.333    3.111    0.889 
#    8.000    0.000    0.000    9.333    0.000    0.000 
#    0.000    0.000    0.000    0.000    0.000    0.000 
#
# Total GULP energy -100309.475166 kJ/mol
# GULP energy per Si atom -5572.748620 kJ/mol
# Density = 2.791469 g / cm^3
# Si number density = 27.978371 Si / 1000 Ang^3
#
#
#
# Elastic Constant Matrix: (Units=GPa)
#
#
# Indices 1 2 3 4 5 6 
#
# 1 122.4076 17.0861 31.3734 0.0000 -10.3812 0.0000
# 2 17.0861 83.8243 33.9478 0.0000 -12.1328 0.0000
# 3 31.3734 33.9478 86.4885 0.0000 -29.8281 0.0000
# 4 0.0000 0.0000 0.0000 38.2430 0.0000 -7.7981
# 5 -10.3812 -12.1328 -29.8281 0.0000 57.7343 0.0000
# 6 0.0000 0.0000 0.0000 -7.7981 0.0000 19.8597
#
#
#
# Elastic Compliance Matrix: (Units=1/GPa)
#
#
# Indices 1 2 3 4 5 6 
#
# 1 0.009033 -0.000612 -0.003067 0.000000 -0.000089 0.000000
# 2 -0.000612 0.014227 -0.005316 0.000000 0.000133 0.000000
# 3 -0.003067 -0.005316 0.017262 0.000000 0.007249 0.000000
# 4 0.000000 0.000000 0.000000 0.028424 0.000000 0.011161
# 5 -0.000089 0.000133 0.007249 0.000000 0.021078 0.000000
# 6 0.000000 0.000000 0.000000 0.011161 0.000000 0.054736
#
#
# Mechanical properties :
#
#
# Convention : Reuss Voigt Hill
#
# Bulk Modulus (GPa) = 44.38372 50.83724 47.61048
# Shear Modulus (GPa) = 29.36655 37.18827 33.27741
#
# Velocity S-wave (km/s) = 3.24329 3.64975 3.45251
# Velocity P-wave (km/s) = 5.47022 5.99754 5.73994
#
# Compressibility (1/GPa) = 0.02253079
#
# Stress axis : x y z
#
# Youngs Moduli (GPa) = 110.69942 70.29012 57.93139
#
# Poissons Ratio (x) = 0.04301 0.17770
# Poissons Ratio (y) = 0.06774 0.30798
# Poissons Ratio (z) = 0.33956 0.37368
#
# Static dielectric constant tensor:
#      x y z
#    x 2.090420 0.000000 0.007340 
#    y 0.000000 2.452760 0.000000 
#    z 0.007340 0.000000 2.575580 
# 
# From -- ./inp_files/178247.got.cif
#   From: 2010.05.17/outbox.cif.g08.bks.cpg/sg15_90_cif.got.tgz:178247.got - 2010.06.03 18:47:42.
