data_PCOD9297616
_publ_section_title
;
Structure prediction by ZEFSAII (Michael W. Deem and Ramdas Pophale) SiO2 
 PCOD9297616
Probable space group: C 2/C
;
_chemical_formula_sum "Si O2"
_cell_formula_units_Z 36
_cell_length_a 6.943089
_cell_length_b 21.103348
_cell_length_c 13.242768
_cell_angle_alpha 90.000000
_cell_angle_beta 134.748044
_cell_angle_gamma 90.000000
_cell_volume 1378.063676
_symmetry_space_group_name_H-M "C 2/C"
_symmetry_group_IT_number 15
_symmetry_cell_setting 'monoclinic'
loop_
_space_group_symop_operation_xyz
x,y,z
-x,y,1/2-z
-x,-y,-z
x,-y,1/2+z
1/2+x,1/2+y,z
1/2-x,1/2+y,1/2-z
1/2-x,1/2-y,-z
1/2+x,1/2-y,1/2+z
loop_
_atom_site_type_symbol
_atom_site_label
_atom_site_fract_x
_atom_site_fract_y
_atom_site_fract_z
Si Si1 0.000000 0.636028 0.750000
Si Si2 0.311632 0.359567 0.088251
Si Si3 0.572019 0.430077 0.994444
Si Si4 0.181208 0.378434 0.718457
Si Si5 0.918862 0.743335 0.869592
O O1 0.881067 0.588166 0.623147
O O2 0.144982 0.688109 0.733234
O O3 0.500000 0.385169 0.250000
O O4 0.458433 0.379382 0.037014
O O5 0.230285 0.286824 0.087814
O O6 0.009010 0.385509 0.948191
O O7 0.500000 0.500000 0.000000
O O8 0.449368 0.418160 0.839966
O O9 0.286965 0.306934 0.777827
O O10 0.000000 0.396167 0.750000
O O11 0.250000 0.750000 0.000000
#
# Coordination Sequence:
#
# PCOD9297616 Si02
#       5
#     4   8   8   8   8
#     4  12  24  42  72  98 136 186 230 306 356 426
#     4  11  24  45  70 102 138 189 240 290 359 437
#     4  11  26  48  69  98 142 195 240 295 360 425
#     4  10  24  41  69 100 142 185 225 296 364 433
#     4  12  23  42  69 107 144 176 233 295 374 432
#
# _framework density 26.123611
#
# number of rings (size 3 to 8) (size 9 to 14) (size 15 to 20)
#    0.000    0.889    4.444    2.000    4.667    2.667 
#    0.000    4.444    0.000    0.000    0.000    0.000 
#    0.000    0.000    0.000    0.000    0.000    0.000 
#
# Total GULP energy -100295.272193 kJ/mol
# GULP energy per Si atom -5571.959566 kJ/mol
# Density = 2.606415 g / cm^3
# Si number density = 26.123611 Si / 1000 Ang^3
#
#
#
# Elastic Constant Matrix: (Units=GPa)
#
#
# Indices 1 2 3 4 5 6 
#
# 1 74.7357 4.1706 15.1617 0.0000 -23.3372 0.0000
# 2 4.1706 109.5002 40.5409 0.0000 -7.8109 0.0000
# 3 15.1617 40.5409 285.8558 0.0000 -11.6002 0.0000
# 4 0.0000 0.0000 0.0000 -9.6415 0.0000 -1.6022
# 5 -23.3372 -7.8109 -11.6002 0.0000 34.3903 0.0000
# 6 0.0000 0.0000 0.0000 -1.6022 0.0000 7.7378
#
#
#
# Elastic Compliance Matrix: (Units=1/GPa)
#
#
# Indices 1 2 3 4 5 6 
#
# 1 0.017045 0.000350 -0.000488 0.000000 0.011482 0.000000
# 2 0.000350 0.009751 -0.001320 0.000000 0.002007 0.000000
# 3 -0.000488 -0.001320 0.003737 0.000000 0.000630 0.000000
# 4 0.000000 0.000000 0.000000 -0.100268 0.000000 -0.020762
# 5 0.011482 0.002007 0.000630 0.000000 0.037538 0.000000
# 6 0.000000 0.000000 0.000000 -0.020762 0.000000 0.124937
#
#
# Mechanical properties :
#
#
# Convention : Reuss Voigt Hill
#
# Bulk Modulus (GPa) = 36.20793 65.53757 50.87275
# Shear Modulus (GPa) = 47.68217 33.84523 40.76370
#
# Velocity S-wave (km/s) = 4.27693 3.60332 3.95450
# Velocity P-wave (km/s) = 6.18707 6.51566 6.35349
#
# Compressibility (1/GPa) = 0.02761826
#
# Stress axis : x y z
#
# Youngs Moduli (GPa) = 58.66730 102.55398 267.60117
#
# Poissons Ratio (x) = -0.03594 0.13054
# Poissons Ratio (y) = -0.02056 0.35324
# Poissons Ratio (z) = 0.02862 0.13538
#
# Static dielectric constant tensor:
#      x y z
#    x 2.517720 0.000000 0.258420 
#    y 0.000000 1.906930 0.000000 
#    z 0.258420 0.000000 2.440450 
# 
# From -- ./inp_files/137043.got.cif
#   From: 2010.05.17/outbox.cif.g08.bks.cpg/sg15_69_cif.got.tgz:137043.got - 2010.06.03 18:47:42.
