data_PCOD9297975
_publ_section_title
;
Structure prediction by ZEFSAII (Michael W. Deem and Ramdas Pophale) SiO2 
 PCOD9297975
Probable space group: C 2/C
;
_chemical_formula_sum "Si O2"
_cell_formula_units_Z 60
_cell_length_a 8.043343
_cell_length_b 14.748702
_cell_length_c 18.935885
_cell_angle_alpha 90.000000
_cell_angle_beta 96.228233
_cell_angle_gamma 90.000000
_cell_volume 2233.083866
_symmetry_space_group_name_H-M "C 2/C"
_symmetry_group_IT_number 15
_symmetry_cell_setting 'monoclinic'
loop_
_space_group_symop_operation_xyz
x,y,z
-x,y,1/2-z
-x,-y,-z
x,-y,1/2+z
1/2+x,1/2+y,z
1/2-x,1/2+y,1/2-z
1/2-x,1/2-y,-z
1/2+x,1/2-y,1/2+z
loop_
_atom_site_type_symbol
_atom_site_label
_atom_site_fract_x
_atom_site_fract_y
_atom_site_fract_z
Si Si1 0.925910 0.156676 0.181502
Si Si2 0.928754 0.073752 0.443007
Si Si3 0.924990 0.464722 0.318685
Si Si4 0.250000 0.750000 0.500000
Si Si5 0.590015 0.916549 0.545081
Si Si6 0.275633 0.793403 0.338227
Si Si7 0.566480 0.759944 0.639410
Si Si8 0.243523 0.407667 0.406396
O O1 0.741372 0.199462 0.175543
O O2 0.000000 0.099313 0.250000
O O3 0.940802 0.102564 0.109785
O O4 0.073852 0.231374 0.182414
O O5 0.852029 0.160095 0.476253
O O6 0.786044 0.013611 0.399145
O O7 0.000000 0.000000 0.500000
O O8 0.880515 0.535567 0.377540
O O9 0.778770 0.391601 0.301434
O O10 0.000000 0.504264 0.250000
O O11 0.070363 0.400082 0.357315
O O12 0.287730 0.801967 0.423653
O O13 0.507977 0.820636 0.567426
O O14 0.712266 0.885653 0.487435
O O15 0.500000 0.000000 0.500000
O O16 0.903118 0.744799 0.179192
O O17 0.618096 0.659833 0.616502
#
# Coordination Sequence:
#
# PCOD9297975 Si02
#       8
#     8   8   8   4   8   8   8   8
#     4  11  27  51  77 112 162 210 269 340 411 494
#     4  11  24  47  78 113 159 209 271 342 409 497
#     4  11  25  49  73 108 162 209 261 335 404 484
#     4  10  24  42  76 112 156 202 272 330 408 482
#     4  10  25  44  76 113 157 209 266 328 404 491
#     4  11  25  44  78 110 155 207 263 331 410 482
#     4  12  26  46  79 116 153 212 268 336 407 498
#     4  11  24  45  77 112 159 201 273 331 404 489
#
# _framework density 26.868675
#
# number of rings (size 3 to 8) (size 9 to 14) (size 15 to 20)
#    0.000    1.067    1.333    3.200   11.200    3.733 
#    0.000    0.000    0.000    0.000    0.000    0.000 
#    0.000    0.000    0.000    0.000    0.000    0.000 
#
# Total GULP energy -167486.449350 kJ/mol
# GULP energy per Si atom -5582.881645 kJ/mol
# Density = 2.680752 g / cm^3
# Si number density = 26.868675 Si / 1000 Ang^3
#
#
#
# Elastic Constant Matrix: (Units=GPa)
#
#
# Indices 1 2 3 4 5 6 
#
# 1 162.4745 42.6989 43.7445 0.0000 -19.7812 0.0000
# 2 42.6989 147.5643 17.2733 0.0000 -15.1991 0.0000
# 3 43.7445 17.2733 145.3101 0.0000 -8.8890 0.0000
# 4 0.0000 0.0000 0.0000 18.0351 0.0000 -2.5737
# 5 -19.7812 -15.1991 -8.8890 0.0000 43.3898 0.0000
# 6 0.0000 0.0000 0.0000 -2.5737 0.0000 48.8412
#
#
#
# Elastic Compliance Matrix: (Units=1/GPa)
#
#
# Indices 1 2 3 4 5 6 
#
# 1 0.007392 -0.001672 -0.001880 0.000000 0.002399 0.000000
# 2 -0.001672 0.007478 -0.000275 0.000000 0.001801 0.000000
# 3 -0.001880 -0.000275 0.007516 0.000000 0.000586 0.000000
# 4 0.000000 0.000000 0.000000 0.055867 0.000000 0.002944
# 5 0.002399 0.001801 0.000586 0.000000 0.024892 0.000000
# 6 0.000000 0.000000 0.000000 0.002944 0.000000 0.020630
#
#
# Mechanical properties :
#
#
# Convention : Reuss Voigt Hill
#
# Bulk Modulus (GPa) = 67.87707 73.64247 70.75977
# Shear Modulus (GPa) = 36.67266 45.49537 41.08401
#
# Velocity S-wave (km/s) = 3.69844 4.11938 3.91457
# Velocity P-wave (km/s) = 6.59965 7.07767 6.84284
#
# Compressibility (1/GPa) = 0.01473252
#
# Stress axis : x y z
#
# Youngs Moduli (GPa) = 135.27287 133.72166 133.04276
#
# Poissons Ratio (x) = 0.22357 0.25011
# Poissons Ratio (y) = 0.22616 0.03665
# Poissons Ratio (z) = 0.25430 0.03684
#
# Static dielectric constant tensor:
#      x y z
#    x 2.300530 0.000000 0.108820 
#    y 0.000000 2.019080 0.000000 
#    z 0.108820 0.000000 2.146910 
# 
# From -- ./inp_files/197901.got.cif
#   From: 2010.05.17/outbox.cif.g08.bks.cpg/sg15_99_cif.got.tgz:197901.got - 2010.06.03 18:47:42.
