data_PCOD9297490
_publ_section_title
;
Structure prediction by ZEFSAII (Michael W. Deem and Ramdas Pophale) SiO2 
 PCOD9297490
Probable space group: C 2/C
;
_chemical_formula_sum "Si O2"
_cell_formula_units_Z 52
_cell_length_a 9.622092
_cell_length_b 15.229659
_cell_length_c 30.663745
_cell_angle_alpha 90.000000
_cell_angle_beta 141.974574
_cell_angle_gamma 90.000000
_cell_volume 2768.046762
_symmetry_space_group_name_H-M "C 2/C"
_symmetry_group_IT_number 15
_symmetry_cell_setting 'monoclinic'
loop_
_space_group_symop_operation_xyz
x,y,z
-x,y,1/2-z
-x,-y,-z
x,-y,1/2+z
1/2+x,1/2+y,z
1/2-x,1/2+y,1/2-z
1/2-x,1/2-y,-z
1/2+x,1/2-y,1/2+z
loop_
_atom_site_type_symbol
_atom_site_label
_atom_site_fract_x
_atom_site_fract_y
_atom_site_fract_z
Si Si1 0.194493 0.503470 0.466487
Si Si2 0.709869 0.488296 0.612625
Si Si3 0.470293 0.808489 0.545799
Si Si4 0.120680 0.702247 0.326428
Si Si5 0.758621 0.229733 0.196616
Si Si6 0.500000 0.896573 0.250000
Si Si7 0.459403 0.186877 0.539642
O O1 0.446263 0.512024 0.548607
O O2 0.217797 0.502238 0.419895
O O3 0.063347 0.591039 0.447644
O O4 0.089492 0.412189 0.456894
O O5 0.743257 0.388774 0.636672
O O6 0.865560 0.546812 0.681989
O O7 0.250000 0.750000 0.500000
O O8 0.657586 0.766698 0.623311
O O9 0.522430 0.807979 0.507959
O O10 0.305261 0.776842 0.382550
O O11 0.000000 0.712731 0.250000
O O12 0.927182 0.695793 0.315858
O O13 0.000000 0.181599 0.250000
O O14 0.826474 0.327602 0.228874
O O15 0.250000 0.250000 0.500000
#
# Coordination Sequence:
#
# PCOD9297490 Si02
#       7
#     8   8   8   8   8   4   8
#     4  11  25  42  69 103 131 175 229 281 340 394
#     4  11  22  43  69  98 133 176 229 274 333 408
#     4  12  23  47  71  96 138 176 231 279 334 405
#     4  12  25  46  66 101 139 176 220 280 340 404
#     4  10  25  43  67  97 131 182 222 266 341 398
#     4  10  24  40  70  92 128 184 222 268 328 408
#     4  12  27  43  69 105 135 178 224 288 339 396
#
# _framework density 18.785810000000001
#
# number of rings (size 3 to 8) (size 9 to 14) (size 15 to 20)
#    0.462    0.308    5.385    1.385    8.615    0.000 
#    0.000    0.769    0.000    0.000    0.000    0.000 
#    0.000    0.000    0.000    0.000    0.000    0.000 
#
# Total GULP energy -145153.744514 kJ/mol
# GULP energy per Si atom -5582.836327 kJ/mol
# Density = 1.874305 g / cm^3
# Si number density = 18.785810 Si / 1000 Ang^3
#
#
#
# Elastic Constant Matrix: (Units=GPa)
#
#
# Indices 1 2 3 4 5 6 
#
# 1 72.3919 9.4833 21.8726 0.0000 -1.4938 0.0000
# 2 9.4833 85.6601 7.8556 0.0000 7.3587 0.0000
# 3 21.8726 7.8556 131.8324 0.0000 -3.0715 0.0000
# 4 0.0000 0.0000 0.0000 31.5032 0.0000 2.3030
# 5 -1.4938 7.3587 -3.0715 0.0000 29.2397 0.0000
# 6 0.0000 0.0000 0.0000 2.3030 0.0000 26.4874
#
#
#
# Elastic Compliance Matrix: (Units=1/GPa)
#
#
# Indices 1 2 3 4 5 6 
#
# 1 0.014733 -0.001493 -0.002335 0.000000 0.000883 0.000000
# 2 -0.001493 0.012164 -0.000552 0.000000 -0.003196 0.000000
# 3 -0.002335 -0.000552 0.008026 0.000000 0.000863 0.000000
# 4 0.000000 0.000000 0.000000 0.031946 0.000000 -0.002778
# 5 0.000883 -0.003196 0.000863 0.000000 0.035140 0.000000
# 6 0.000000 0.000000 0.000000 -0.002778 0.000000 0.037995
#
#
# Mechanical properties :
#
#
# Convention : Reuss Voigt Hill
#
# Bulk Modulus (GPa) = 38.21967 40.92304 39.57135
# Shear Modulus (GPa) = 31.74919 34.15759 32.95339
#
# Velocity S-wave (km/s) = 4.11550 4.26874 4.19282
# Velocity P-wave (km/s) = 6.55532 6.79172 6.67457
#
# Compressibility (1/GPa) = 0.02616454
#
# Stress axis : x y z
#
# Youngs Moduli (GPa) = 67.87516 82.20694 124.59925
#
# Poissons Ratio (x) = 0.12272 0.29092
# Poissons Ratio (y) = 0.10132 0.06873
# Poissons Ratio (z) = 0.15848 0.04535
#
# Static dielectric constant tensor:
#      x y z
#    x 1.617630 0.000000 0.005590 
#    y 0.000000 1.640540 0.000000 
#    z 0.005590 0.000000 1.659720 
# 
# From -- ./inp_files/308338.got.cif
#   From: 2010.05.17/outbox.cif.g08.bks.cpg/sg15_155_cif.got.tgz:308338.got - 2010.06.03 18:47:42.
