data_PCOD9297501
_publ_section_title
;
Structure prediction by ZEFSAII (Michael W. Deem and Ramdas Pophale) SiO2 
 PCOD9297501
Probable space group: C 2/C
;
_chemical_formula_sum "Si O2"
_cell_formula_units_Z 40
_cell_length_a 24.926585
_cell_length_b 9.068872
_cell_length_c 10.911324
_cell_angle_alpha 90.000000
_cell_angle_beta 130.615018
_cell_angle_gamma 90.000000
_cell_volume 1872.375293
_symmetry_space_group_name_H-M "C 2/C"
_symmetry_group_IT_number 15
_symmetry_cell_setting 'monoclinic'
loop_
_space_group_symop_operation_xyz
x,y,z
-x,y,1/2-z
-x,-y,-z
x,-y,1/2+z
1/2+x,1/2+y,z
1/2-x,1/2+y,1/2-z
1/2-x,1/2-y,-z
1/2+x,1/2-y,1/2+z
loop_
_atom_site_type_symbol
_atom_site_label
_atom_site_fract_x
_atom_site_fract_y
_atom_site_fract_z
Si Si1 0.000000 0.694260 0.250000
Si Si2 0.780456 0.578238 0.673656
Si Si3 0.719281 0.426040 0.823377
Si Si4 0.500000 0.305666 0.750000
Si Si5 0.061624 0.044974 0.999721
Si Si6 0.938214 0.545446 0.816423
O O1 0.058137 0.585610 0.277919
O O2 0.038829 0.802233 0.402895
O O3 0.758433 0.503113 0.767795
O O4 0.741291 0.520687 0.491966
O O5 0.764213 0.752028 0.658251
O O6 0.863348 0.557403 0.769628
O O7 0.636250 0.446826 0.676151
O O8 0.558269 0.414069 0.894805
O O9 0.461226 0.197957 0.787498
O O10 0.000000 0.000000 0.000000
O O11 0.000000 0.500000 0.000000
#
# Coordination Sequence:
#
# PCOD9297501 Si02
#       6
#     4   8   8   4   8   8
#     4  10  24  40  72 100 134 176 248 280 352 410
#     4  11  28  48  71 105 145 188 233 291 356 421
#     4  11  28  47  72 105 146 187 233 290 358 421
#     4  10  24  40  74  98 140 176 240 288 350 404
#     4  11  24  44  69 104 136 184 234 291 345 418
#     4  11  24  45  70 102 135 185 234 292 344 417
#
# _framework density 21.363237000000002
#
# number of rings (size 3 to 8) (size 9 to 14) (size 15 to 20)
#    0.000    1.200    0.000    3.600   19.600    2.400 
#    0.000    0.000    0.000    0.000    0.000    0.000 
#    0.000    0.000    0.000    0.000    0.000    0.000 
#
# Total GULP energy -111953.679889 kJ/mol
# GULP energy per Si atom -5597.683994 kJ/mol
# Density = 2.131461 g / cm^3
# Si number density = 21.363237 Si / 1000 Ang^3
#
#
#
# Elastic Constant Matrix: (Units=GPa)
#
#
# Indices 1 2 3 4 5 6 
#
# 1 85.0704 23.5333 14.8279 0.0000 -11.6348 0.0000
# 2 23.5333 112.6263 25.1890 0.0000 -21.5029 0.0000
# 3 14.8279 25.1890 123.2011 0.0000 -7.5480 0.0000
# 4 0.0000 0.0000 0.0000 31.4167 0.0000 -12.5079
# 5 -11.6348 -21.5029 -7.5480 0.0000 33.4300 0.0000
# 6 0.0000 0.0000 0.0000 -12.5079 0.0000 32.8816
#
#
#
# Elastic Compliance Matrix: (Units=1/GPa)
#
#
# Indices 1 2 3 4 5 6 
#
# 1 0.012864 -0.001889 -0.000976 0.000000 0.003042 0.000000
# 2 -0.001889 0.010760 -0.001611 0.000000 0.005900 0.000000
# 3 -0.000976 -0.001611 0.008598 0.000000 0.000565 0.000000
# 4 0.000000 0.000000 0.000000 0.037511 0.000000 0.014269
# 5 0.003042 0.005900 0.000565 0.000000 0.034895 0.000000
# 6 0.000000 0.000000 0.000000 0.014269 0.000000 0.035840
#
#
# Mechanical properties :
#
#
# Convention : Reuss Voigt Hill
#
# Bulk Modulus (GPa) = 42.97235 49.77755 46.37495
# Shear Modulus (GPa) = 31.81141 36.70218 34.25680
#
# Velocity S-wave (km/s) = 3.86304 4.14938 4.00877
# Velocity P-wave (km/s) = 6.32899 6.80497 6.57129
#
# Compressibility (1/GPa) = 0.02327078
#
# Stress axis : x y z
#
# Youngs Moduli (GPa) = 77.73899 92.93314 116.30213
#
# Poissons Ratio (x) = 0.17554 0.11347
# Poissons Ratio (y) = 0.14684 0.18739
# Poissons Ratio (z) = 0.07585 0.14973
#
# Static dielectric constant tensor:
#      x y z
#    x 1.766070 0.000000 -0.063710 
#    y 0.000000 1.774000 0.000000 
#    z -0.063710 0.000000 1.816260 
# 
# From -- ./inp_files/109614.got.cif
#   From: 2010.05.17/outbox.cif.g08.bks.cpg/sg15_55_cif.got.tgz:109614.got - 2010.06.03 18:47:42.
