data_PCOD9297700
_publ_section_title
;
Structure prediction by ZEFSAII (Michael W. Deem and Ramdas Pophale) SiO2 
 PCOD9297700
Probable space group: C 2/C
;
_chemical_formula_sum "Si O2"
_cell_formula_units_Z 48
_cell_length_a 12.140999
_cell_length_b 22.693692
_cell_length_c 14.899588
_cell_angle_alpha 90.000000
_cell_angle_beta 35.388372
_cell_angle_gamma 90.000000
_cell_volume 2377.383273
_symmetry_space_group_name_H-M "C 2/C"
_symmetry_group_IT_number 15
_symmetry_cell_setting 'monoclinic'
loop_
_space_group_symop_operation_xyz
x,y,z
-x,y,1/2-z
-x,-y,-z
x,-y,1/2+z
1/2+x,1/2+y,z
1/2-x,1/2+y,1/2-z
1/2-x,1/2-y,-z
1/2+x,1/2-y,1/2+z
loop_
_atom_site_type_symbol
_atom_site_label
_atom_site_fract_x
_atom_site_fract_y
_atom_site_fract_z
Si Si1 0.959229 0.436924 0.172693
Si Si2 0.353944 0.178996 0.519226
Si Si3 0.607502 0.180878 0.512800
Si Si4 0.000000 0.255369 0.750000
Si Si5 0.000000 0.753942 0.750000
Si Si6 0.722427 0.958235 0.455749
Si Si7 0.565030 0.467224 0.364935
O O1 0.738822 0.427969 0.291130
O O2 0.000000 0.427481 0.250000
O O3 0.086417 0.388750 0.038198
O O4 0.038558 0.502183 0.098843
O O5 0.520583 0.196670 0.475290
O O6 0.406871 0.203463 0.386653
O O7 0.326172 0.108985 0.535974
O O8 0.162876 0.211730 0.677830
O O9 0.818231 0.204898 0.380835
O O10 0.488412 0.212202 0.670919
O O11 0.823177 0.987767 0.300985
O O12 0.865481 0.952528 0.446565
O O13 0.500000 0.500000 0.500000
#
# Coordination Sequence:
#
# PCOD9297700 Si02
#       7
#     8   8   8   4   4   8   8
#     4  12  24  44  66 100 138 176 217 274 340 403
#     4  11  23  43  67  94 132 172 219 280 328 395
#     4  11  23  44  69  95 135 172 219 279 330 393
#     4  10  24  42  64  96 122 172 226 266 330 394
#     4  10  24  44  68 102 126 178 226 270 334 400
#     4  11  25  43  68  99 135 172 224 273 343 403
#     4  11  23  42  65  93 135 176 215 272 330 403
#
# _framework density 20.190266000000001
#
# number of rings (size 3 to 8) (size 9 to 14) (size 15 to 20)
#    0.000    1.000    4.167    2.500    1.167    1.333 
#    0.000    0.000    0.000    0.000    0.000    0.000 
#    0.000    0.000    0.000    0.000    0.000    0.000 
#
# Total GULP energy -133652.749523 kJ/mol
# GULP energy per Si atom -5568.864563 kJ/mol
# Density = 2.014431 g / cm^3
# Si number density = 20.190266 Si / 1000 Ang^3
#
#
#
# Elastic Constant Matrix: (Units=GPa)
#
#
# Indices 1 2 3 4 5 6 
#
# 1 124.8410 14.5923 8.1484 -0.0033 7.7694 -0.0012
# 2 14.5923 97.7303 31.2761 -0.0005 -7.1448 -0.0015
# 3 8.1484 31.2761 59.1454 -0.0012 5.1983 -0.0020
# 4 -0.0033 -0.0005 -0.0012 8.5878 0.0057 -21.7708
# 5 7.7694 -7.1448 5.1983 0.0057 31.3065 0.0019
# 6 -0.0012 -0.0015 -0.0020 -21.7708 0.0019 -10.2964
#
#
#
# Elastic Compliance Matrix: (Units=1/GPa)
#
#
# Indices 1 2 3 4 5 6 
#
# 1 0.008327 -0.001339 -0.000234 0.000000 -0.002333 -0.000002
# 2 -0.001339 0.013033 -0.007102 0.000000 0.004486 0.000001
# 3 -0.000234 -0.007102 0.021141 -0.000001 -0.005073 -0.000003
# 4 0.000000 0.000000 -0.000001 0.018308 -0.000001 -0.038711
# 5 -0.002333 0.004486 -0.005073 -0.000001 0.034387 0.000009
# 6 -0.000002 0.000001 -0.000003 -0.038711 0.000009 -0.015270
#
#
# Mechanical properties :
#
#
# Convention : Reuss Voigt Hill
#
# Bulk Modulus (GPa) = 39.75887 43.30558 41.53222
# Shear Modulus (GPa) = 47.32185 21.09957 34.21071
#
# Velocity S-wave (km/s) = 4.84653 3.23621 4.12079
# Velocity P-wave (km/s) = 7.14516 5.95478 6.57695
#
# Compressibility (1/GPa) = 0.02515162
#
# Stress axis : x y z
#
# Youngs Moduli (GPa) = 120.08845 76.72957 47.30171
#
# Poissons Ratio (x) = 0.10274 0.01107
# Poissons Ratio (y) = 0.16080 0.33591
# Poissons Ratio (z) = 0.02811 0.54490
#
# Static dielectric constant tensor:
#      x y z
#    x 1.748400 0.000000 0.000400 
#    y 0.000000 1.685000 0.000000 
#    z 0.000400 0.000000 1.728800 
# 
# From -- ./inp_files/32094.got.cif
#   From: 2010.05.17/outbox.cif.g08.bks.cpg/sg15_17_cif.got.tgz:32094.got - 2010.06.03 18:47:42.
