data_PCOD9297647
_publ_section_title
;
Structure prediction by ZEFSAII (Michael W. Deem and Ramdas Pophale) SiO2 
 PCOD9297647
Probable space group: C 2/C
;
_chemical_formula_sum "Si O2"
_cell_formula_units_Z 44
_cell_length_a 14.818465
_cell_length_b 26.449791
_cell_length_c 11.658164
_cell_angle_alpha 90.000000
_cell_angle_beta 29.116566
_cell_angle_gamma 90.000000
_cell_volume 2223.396992
_symmetry_space_group_name_H-M "C 2/C"
_symmetry_group_IT_number 15
_symmetry_cell_setting 'monoclinic'
loop_
_space_group_symop_operation_xyz
x,y,z
-x,y,1/2-z
-x,-y,-z
x,-y,1/2+z
1/2+x,1/2+y,z
1/2-x,1/2+y,1/2-z
1/2-x,1/2-y,-z
1/2+x,1/2-y,1/2+z
loop_
_atom_site_type_symbol
_atom_site_label
_atom_site_fract_x
_atom_site_fract_y
_atom_site_fract_z
Si Si1 0.000000 0.619963 0.250000
Si Si2 0.184754 0.367006 0.327569
Si Si3 0.994709 0.204900 0.117461
Si Si4 0.714401 0.484079 0.261359
Si Si5 0.079949 0.318250 0.033673
Si Si6 0.772714 0.031589 0.008060
O O1 0.894352 0.650807 0.463245
O O2 0.843672 0.583467 0.367897
O O3 0.257429 0.423829 0.260137
O O4 0.011723 0.363094 0.434446
O O5 0.342112 0.330353 0.106988
O O6 0.799914 0.182754 0.293747
O O7 0.000000 0.205406 0.250000
O O8 0.016267 0.263294 0.057129
O O9 0.500000 0.500000 0.500000
O O10 0.783326 0.506659 0.307265
O O11 0.778339 0.495906 0.057967
O O12 0.000000 0.321056 0.250000
O O13 0.000000 0.037730 0.750000
#
# Coordination Sequence:
#
# PCOD9297647 Si02
#       6
#     4   8   8   8   8   8
#     4  10  24  42  58  82 128 172 212 248 308 378
#     4  11  23  39  61  96 124 166 214 253 311 380
#     4  11  20  38  66  91 130 161 203 260 328 377
#     4   9  20  39  61  88 125 162 212 257 314 370
#     4  11  20  39  63  95 127 162 199 264 327 375
#     4   9  19  39  60  82 120 168 204 259 314 363
#
# _framework density 19.789538
#
# number of rings (size 3 to 8) (size 9 to 14) (size 15 to 20)
#    0.000    1.818    3.636    1.091    0.000    9.455 
#    4.909    0.909    0.000    0.000    0.000    0.000 
#    0.000    0.000    0.000    0.000    0.000    0.000 
#
# Total GULP energy -122619.468338 kJ/mol
# GULP energy per Si atom -5573.612197 kJ/mol
# Density = 1.974450 g / cm^3
# Si number density = 19.789538 Si / 1000 Ang^3
#
#
#
# Elastic Constant Matrix: (Units=GPa)
#
#
# Indices 1 2 3 4 5 6 
#
# 1 109.9814 34.3891 42.7778 -0.0007 8.2903 -0.0005
# 2 34.3891 37.0968 15.3073 -0.0019 3.0043 0.0010
# 3 42.7778 15.3073 93.6690 -0.0047 5.5159 -0.0014
# 4 -0.0007 -0.0019 -0.0047 3.3608 0.0017 1.0741
# 5 8.2903 3.0043 5.5159 0.0017 45.8226 0.0009
# 6 -0.0005 0.0010 -0.0014 1.0741 0.0009 30.4801
#
#
#
# Elastic Compliance Matrix: (Units=1/GPa)
#
#
# Indices 1 2 3 4 5 6 
#
# 1 0.014625 -0.011502 -0.004722 -0.000010 -0.001324 0.000001
# 2 -0.011502 0.038033 -0.000945 0.000019 -0.000299 -0.000002
# 3 -0.004722 -0.000945 0.013025 0.000017 -0.000652 0.000000
# 4 -0.000010 0.000019 0.000017 0.300938 -0.000012 -0.010605
# 5 -0.001324 -0.000299 -0.000652 -0.000012 0.022161 0.000000
# 6 0.000001 -0.000002 0.000000 -0.010605 0.000000 0.033182
#
#
# Mechanical properties :
#
#
# Convention : Reuss Voigt Hill
#
# Bulk Modulus (GPa) = 31.90181 47.29951 39.60066
# Shear Modulus (GPa) = 10.71237 25.81756 18.26496
#
# Velocity S-wave (km/s) = 2.32914 3.61585 3.04132
# Velocity P-wave (km/s) = 4.83619 6.43317 5.69098
#
# Compressibility (1/GPa) = 0.03134618
#
# Stress axis : x y z
#
# Youngs Moduli (GPa) = 68.37496 26.29279 76.77564
#
# Poissons Ratio (x) = 0.30243 0.36250
# Poissons Ratio (y) = 0.78647 0.07254
# Poissons Ratio (z) = 0.32284 0.02484
#
# Static dielectric constant tensor:
#      x y z
#    x 1.652420 0.000000 0.058180 
#    y 0.000000 1.655410 0.000000 
#    z 0.058180 0.000000 1.688650 
# 
# From -- ./inp_files/101518.got.cif
#   From: 2010.05.17/outbox.cif.g08.bks.cpg/sg15_51_cif.got.tgz:101518.got - 2010.06.03 18:47:42.
