data_PCOD9297061
_publ_section_title
;
Structure prediction by ZEFSAII (Michael W. Deem and Ramdas Pophale) SiO2 
 PCOD9297061
Probable space group: C 2/C
;
_chemical_formula_sum "Si O2"
_cell_formula_units_Z 40
_cell_length_a 21.323704
_cell_length_b 16.206003
_cell_length_c 13.674281
_cell_angle_alpha 90.000000
_cell_angle_beta 19.552193
_cell_angle_gamma 90.000000
_cell_volume 1581.444256
_symmetry_space_group_name_H-M "C 2/C"
_symmetry_group_IT_number 15
_symmetry_cell_setting 'monoclinic'
loop_
_space_group_symop_operation_xyz
x,y,z
-x,y,1/2-z
-x,-y,-z
x,-y,1/2+z
1/2+x,1/2+y,z
1/2-x,1/2+y,1/2-z
1/2-x,1/2-y,-z
1/2+x,1/2-y,1/2+z
loop_
_atom_site_type_symbol
_atom_site_label
_atom_site_fract_x
_atom_site_fract_y
_atom_site_fract_z
Si Si1 0.277085 0.588769 0.394303
Si Si2 0.646379 0.886253 0.733836
Si Si3 0.343665 0.241011 0.680345
Si Si4 0.000000 0.126588 0.250000
Si Si5 0.398034 0.984461 0.515040
Si Si6 0.000000 0.199245 0.750000
O O1 0.316916 0.674399 0.279975
O O2 0.414286 0.578207 0.283730
O O3 0.260844 0.520635 0.332873
O O4 0.064823 0.581651 0.748450
O O5 0.678681 0.955811 0.768596
O O6 0.849010 0.853134 0.409806
O O7 0.524807 0.809464 0.949999
O O8 0.510131 0.930490 0.857032
O O9 0.385191 0.255373 0.504173
O O10 0.165099 0.184315 0.965429
#
# Coordination Sequence:
#
# PCOD9297061 Si02
#       6
#     8   8   8   4   8   4
#     4  11  23  44  77 111 146 202 263 316 376 459
#     4  11  24  47  71 108 164 206 248 323 398 464
#     4  12  25  46  77 120 159 202 261 326 390 473
#     4  12  24  41  78 119 150 198 266 318 380 459
#     4  10  23  47  74 103 155 206 248 329 385 448
#     4  12  26  45  76 111 160 210 260 316 400 485
#
# _framework density 25.293334999999999
#
# number of rings (size 3 to 8) (size 9 to 14) (size 15 to 20)
#    0.000    0.800    4.000    3.600    0.000    2.400 
#    0.000    2.000    0.000    0.000    0.000    0.000 
#    0.000    0.000    0.000    0.000    0.000    0.000 
#
# Total GULP energy -111825.707304 kJ/mol
# GULP energy per Si atom -5591.285365 kJ/mol
# Density = 2.523577 g / cm^3
# Si number density = 25.293335 Si / 1000 Ang^3
#
#
#
# Elastic Constant Matrix: (Units=GPa)
#
#
# Indices 1 2 3 4 5 6 
#
# 1 159.5863 41.4207 50.2844 -0.0002 -19.3959 -0.0008
# 2 41.4207 87.0340 51.6792 0.0016 -3.0145 0.0039
# 3 50.2844 51.6792 141.4128 0.0058 -13.9410 0.0077
# 4 -0.0002 0.0016 0.0058 51.2874 0.0000 23.2755
# 5 -19.3959 -3.0145 -13.9410 0.0000 48.3823 0.0002
# 6 -0.0008 0.0039 0.0077 23.2755 0.0002 32.8869
#
#
#
# Elastic Compliance Matrix: (Units=1/GPa)
#
#
# Indices 1 2 3 4 5 6 
#
# 1 0.007750 -0.002697 -0.001524 0.000000 0.002500 0.000001
# 2 -0.002697 0.015632 -0.004904 0.000001 -0.001520 -0.000001
# 3 -0.001524 -0.004904 0.009587 0.000000 0.001846 -0.000002
# 4 0.000000 0.000001 0.000000 0.028724 0.000000 -0.020329
# 5 0.002500 -0.001520 0.001846 0.000000 0.022108 0.000000
# 6 0.000001 -0.000001 -0.000002 -0.020329 0.000000 0.044795
#
#
# Mechanical properties :
#
#
# Convention : Reuss Voigt Hill
#
# Bulk Modulus (GPa) = 67.93043 74.97795 71.45419
# Shear Modulus (GPa) = 32.94827 42.82125 37.88476
#
# Velocity S-wave (km/s) = 3.61313 4.11905 3.87436
# Velocity P-wave (km/s) = 6.65745 7.23394 6.95167
#
# Compressibility (1/GPa) = 0.01472094
#
# Stress axis : x y z
#
# Youngs Moduli (GPa) = 129.02929 63.96973 104.30391
#
# Poissons Ratio (x) = 0.17253 0.15894
# Poissons Ratio (y) = 0.34800 0.51147
# Poissons Ratio (z) = 0.19661 0.31369
#
# Static dielectric constant tensor:
#      x y z
#    x 2.083050 0.000000 0.015650 
#    y 0.000000 2.013930 0.000000 
#    z 0.015650 0.000000 1.948550 
# 
# From -- ./inp_files/169076.got.cif
#   From: 2010.05.17/outbox.cif.g08.bks.cpg/sg15_85_cif.got.tgz:169076.got - 2010.06.03 18:47:42.
