data_PCOD9297445
_publ_section_title
;
Structure prediction by ZEFSAII (Michael W. Deem and Ramdas Pophale) SiO2 
 PCOD9297445
Probable space group: C 2/C
;
_chemical_formula_sum "Si O2"
_cell_formula_units_Z 32
_cell_length_a 12.632224
_cell_length_b 11.181787
_cell_length_c 11.248615
_cell_angle_alpha 90.000000
_cell_angle_beta 62.900283
_cell_angle_gamma 90.000000
_cell_volume 1414.441599
_symmetry_space_group_name_H-M "C 2/C"
_symmetry_group_IT_number 15
_symmetry_cell_setting 'monoclinic'
loop_
_space_group_symop_operation_xyz
x,y,z
-x,y,1/2-z
-x,-y,-z
x,-y,1/2+z
1/2+x,1/2+y,z
1/2-x,1/2+y,1/2-z
1/2-x,1/2-y,-z
1/2+x,1/2-y,1/2+z
loop_
_atom_site_type_symbol
_atom_site_label
_atom_site_fract_x
_atom_site_fract_y
_atom_site_fract_z
Si Si1 0.135995 0.240642 0.212736
Si Si2 0.864698 0.302772 0.012199
Si Si3 0.453676 0.567911 0.907236
Si Si4 0.793934 0.554219 0.005866
O O1 0.234579 0.138054 0.137635
O O2 0.000000 0.203435 0.250000
O O3 0.160459 0.352879 0.114409
O O4 0.850935 0.280350 0.158961
O O5 0.967094 0.210391 0.920814
O O6 0.750000 0.250000 0.000000
O O7 0.882707 0.444476 0.986397
O O8 0.500000 0.546038 0.750000
O O9 0.319759 0.520066 0.978516
O O10 0.500000 0.500000 0.000000
#
# Coordination Sequence:
#
# PCOD9297445 Si02
#       4
#     8   8   8   8
#     4  11  24  45  68  99 141 187 234 287 366 424
#     4  10  24  40  67 103 134 180 232 294 348 417
#     4  11  23  41  72 104 139 179 234 288 357 431
#     4  10  24  42  68  96 139 184 230 291 351 429
#
# _framework density 22.623768999999999
#
# number of rings (size 3 to 8) (size 9 to 14) (size 15 to 20)
#    0.000    1.500    0.000    3.750   14.000    2.000 
#    0.000    0.000    0.000    0.000    0.000    0.000 
#    0.000    0.000    0.000    0.000    0.000    0.000 
#
# Total GULP energy -89199.451043 kJ/mol
# GULP energy per Si atom -5574.965690 kJ/mol
# Density = 2.257228 g / cm^3
# Si number density = 22.623769 Si / 1000 Ang^3
#
#
#
# Elastic Constant Matrix: (Units=GPa)
#
#
# Indices 1 2 3 4 5 6 
#
# 1 39.7201 26.1320 33.1301 0.0000 13.0056 0.0000
# 2 26.1320 231.7830 74.9765 0.0000 5.2372 0.0000
# 3 33.1301 74.9765 138.5571 0.0000 22.9605 0.0000
# 4 0.0000 0.0000 0.0000 23.7663 0.0000 1.1567
# 5 13.0056 5.2372 22.9605 0.0000 32.2611 0.0000
# 6 0.0000 0.0000 0.0000 1.1567 0.0000 30.0296
#
#
#
# Elastic Compliance Matrix: (Units=1/GPa)
#
#
# Indices 1 2 3 4 5 6 
#
# 1 0.034159 -0.001822 -0.005610 0.000000 -0.009482 0.000000
# 2 -0.001822 0.005377 -0.002779 0.000000 0.001839 0.000000
# 3 -0.005610 -0.002779 0.010898 0.000000 -0.005043 0.000000
# 4 0.000000 0.000000 0.000000 0.042155 0.000000 -0.001624
# 5 -0.009482 0.001839 -0.005043 0.000000 0.038110 0.000000
# 6 0.000000 0.000000 0.000000 -0.001624 0.000000 0.033363
#
#
# Mechanical properties :
#
#
# Convention : Reuss Voigt Hill
#
# Bulk Modulus (GPa) = 33.32029 75.39306 54.35668
# Shear Modulus (GPa) = 25.70824 35.59951 30.65387
#
# Velocity S-wave (km/s) = 3.37462 3.97110 3.68495
# Velocity P-wave (km/s) = 5.47211 7.37721 6.49489
#
# Compressibility (1/GPa) = 0.03001174
#
# Stress axis : x y z
#
# Youngs Moduli (GPa) = 29.27463 185.97259 91.75838
#
# Poissons Ratio (x) = 0.33887 0.51481
# Poissons Ratio (y) = 0.05334 0.25498
# Poissons Ratio (z) = 0.16424 0.51678
#
# Static dielectric constant tensor:
#      x y z
#    x 1.879170 0.000000 -0.176720 
#    y 0.000000 1.816520 0.000000 
#    z -0.176720 0.000000 1.447670 
# 
# From -- ./inp_files/83844.got.cif
#   From: 2010.05.17/outbox.cif.g08.bks.cpg/sg15_42_cif.got.tgz:83844.got - 2010.06.03 18:47:42.
