data_PCOD9297153
_publ_section_title
;
Structure prediction by ZEFSAII (Michael W. Deem and Ramdas Pophale) SiO2 
 PCOD9297153
Probable space group: C 2/C
;
_chemical_formula_sum "Si O2"
_cell_formula_units_Z 36
_cell_length_a 6.172449
_cell_length_b 22.268301
_cell_length_c 11.745568
_cell_angle_alpha 90.000000
_cell_angle_beta 81.964910
_cell_angle_gamma 90.000000
_cell_volume 1598.578356
_symmetry_space_group_name_H-M "C 2/C"
_symmetry_group_IT_number 15
_symmetry_cell_setting 'monoclinic'
loop_
_space_group_symop_operation_xyz
x,y,z
-x,y,1/2-z
-x,-y,-z
x,-y,1/2+z
1/2+x,1/2+y,z
1/2-x,1/2+y,1/2-z
1/2-x,1/2-y,-z
1/2+x,1/2-y,1/2+z
loop_
_atom_site_type_symbol
_atom_site_label
_atom_site_fract_x
_atom_site_fract_y
_atom_site_fract_z
Si Si1 0.500000 0.320123 0.750000
Si Si2 0.203050 0.934154 0.170903
Si Si3 0.899512 0.272064 0.593442
Si Si4 0.000000 0.824630 0.250000
Si Si5 0.747754 0.620370 0.424558
Si Si6 0.500000 0.027007 0.250000
O O1 0.725027 0.286446 0.706377
O O2 0.451250 0.353895 0.635539
O O3 0.000000 0.965674 0.250000
O O4 0.204215 0.871111 0.241363
O O5 0.394392 0.980906 0.168463
O O6 0.173459 0.912323 0.044892
O O7 0.750000 0.250000 0.500000
O O8 0.025269 0.214962 0.635806
O O9 0.066199 0.327934 0.564694
O O10 0.849199 0.571152 0.332795
#
# Coordination Sequence:
#
# PCOD9297153 Si02
#       6
#     4   8   8   4   8   4
#     4  12  24  44  74 104 148 190 230 304 362 442
#     4  10  28  45  70 103 144 191 238 298 360 430
#     4  12  26  43  75 106 145 188 235 308 361 445
#     4  10  23  49  60 116 140 180 250 274 382 424
#     4  12  26  50  72 110 144 191 250 295 372 427
#     4  12  25  49  74 104 142 190 254 304 354 420
#
# _framework density 22.520008000000001
#
# number of rings (size 3 to 8) (size 9 to 14) (size 15 to 20)
#    0.667    0.000    4.444    2.000    7.778    2.667 
#    0.000    0.000    0.000    0.000    0.000    0.000 
#    0.000    0.000    0.000    0.000    0.000    0.000 
#
# Total GULP energy -100364.365705 kJ/mol
# GULP energy per Si atom -5575.798095 kJ/mol
# Density = 2.246875 g / cm^3
# Si number density = 22.520008 Si / 1000 Ang^3
#
#
#
# Elastic Constant Matrix: (Units=GPa)
#
#
# Indices 1 2 3 4 5 6 
#
# 1 49.4465 18.5137 5.6100 0.0000 4.0131 0.0000
# 2 18.5137 97.9342 15.0718 0.0000 17.8542 0.0000
# 3 5.6100 15.0718 109.8602 0.0000 5.9610 0.0000
# 4 0.0000 0.0000 0.0000 -86.5332 0.0000 -2.7976
# 5 4.0131 17.8542 5.9610 0.0000 46.8452 0.0000
# 6 0.0000 0.0000 0.0000 -2.7976 0.0000 -22.4841
#
#
#
# Elastic Compliance Matrix: (Units=1/GPa)
#
#
# Indices 1 2 3 4 5 6 
#
# 1 0.021801 -0.003986 -0.000551 0.000000 -0.000278 0.000000
# 2 -0.003986 0.011886 -0.001208 0.000000 -0.004035 0.000000
# 3 -0.000551 -0.001208 0.009333 0.000000 -0.000680 0.000000
# 4 0.000000 0.000000 0.000000 -0.011603 0.000000 0.001444
# 5 -0.000278 -0.004035 -0.000680 0.000000 0.022995 0.000000
# 6 0.000000 0.000000 0.000000 0.001444 0.000000 -0.044656
#
#
# Mechanical properties :
#
#
# Convention : Reuss Voigt Hill
#
# Bulk Modulus (GPa) = 31.71585 37.29243 34.50414
# Shear Modulus (GPa) = 157.44126 2.10193 79.77160
#
# Velocity S-wave (km/s) = 8.37039 0.96715 5.95814
# Velocity P-wave (km/s) = 10.36976 4.22408 7.91754
#
# Compressibility (1/GPa) = 0.03152997
#
# Stress axis : x y z
#
# Youngs Moduli (GPa) = 45.86866 84.13294 107.14352
#
# Poissons Ratio (x) = 0.33533 0.05908
# Poissons Ratio (y) = 0.18282 0.12945
# Poissons Ratio (z) = 0.02529 0.10165
#
# Static dielectric constant tensor:
#      x y z
#    x 1.950280 0.000000 0.023740 
#    y 0.000000 1.840090 0.000000 
#    z 0.023740 0.000000 1.895710 
# 
# From -- ./inp_files/72729.got.cif
#   From: 2010.05.17/outbox.cif.g08.bks.cpg/sg15_37_cif.got.tgz:72729.got - 2010.06.03 18:47:42.
