data_PCOD9297502
_publ_section_title
;
Structure prediction by ZEFSAII (Michael W. Deem and Ramdas Pophale) SiO2 
 PCOD9297502
Probable space group: C 2/C
;
_chemical_formula_sum "Si O2"
_cell_formula_units_Z 36
_cell_length_a 14.408723
_cell_length_b 5.871114
_cell_length_c 30.151417
_cell_angle_alpha 90.000000
_cell_angle_beta 143.326189
_cell_angle_gamma 90.000000
_cell_volume 1523.407708
_symmetry_space_group_name_H-M "C 2/C"
_symmetry_group_IT_number 15
_symmetry_cell_setting 'monoclinic'
loop_
_space_group_symop_operation_xyz
x,y,z
-x,y,1/2-z
-x,-y,-z
x,-y,1/2+z
1/2+x,1/2+y,z
1/2-x,1/2+y,1/2-z
1/2-x,1/2-y,-z
1/2+x,1/2-y,1/2+z
loop_
_atom_site_type_symbol
_atom_site_label
_atom_site_fract_x
_atom_site_fract_y
_atom_site_fract_z
Si Si1 0.385276 0.361612 0.342336
Si Si2 0.500000 0.388140 0.250000
Si Si3 0.519043 0.248911 0.484049
Si Si4 0.856643 0.634498 0.119970
Si Si5 0.548854 0.732202 0.189862
O O1 0.405089 0.266494 0.398709
O O2 0.499025 0.213492 0.354924
O O3 0.447345 0.616030 0.356806
O O4 0.208464 0.366682 0.258298
O O5 0.375316 0.230465 0.177097
O O6 0.559126 0.545517 0.232925
O O7 0.500000 0.500000 0.500000
O O8 0.700011 0.269000 0.539725
O O9 0.500000 0.000000 0.500000
O O10 0.888546 0.366370 0.134718
#
# Coordination Sequence:
#
# PCOD9297502 Si02
#       5
#     8   4   8   8   8
#     4  11  25  45  72 105 147 187 249 298 380 438
#     4  10  24  40  72 100 150 182 254 296 376 432
#     4  12  31  49  75 106 151 198 248 305 367 440
#     4  11  25  45  71 104 144 197 241 307 370 443
#     4  11  23  42  73 107 138 192 243 312 367 446
#
# _framework density 23.631231
#
# number of rings (size 3 to 8) (size 9 to 14) (size 15 to 20)
#    0.000    0.889    2.222    2.667   15.556    0.889 
#    0.000    0.000    0.000    0.000    0.000    0.000 
#    0.000    0.000    0.000    0.000    0.000    0.000 
#
# Total GULP energy -100447.115575 kJ/mol
# GULP energy per Si atom -5580.395310 kJ/mol
# Density = 2.357745 g / cm^3
# Si number density = 23.631231 Si / 1000 Ang^3
#
#
#
# Elastic Constant Matrix: (Units=GPa)
#
#
# Indices 1 2 3 4 5 6 
#
# 1 64.4199 41.9015 13.4617 0.0001 0.7023 0.0001
# 2 41.9015 128.6304 34.2700 -0.0002 -2.1840 0.0004
# 3 13.4617 34.2700 82.5806 0.0002 10.6007 0.0000
# 4 0.0001 -0.0002 0.0002 23.3609 0.0007 -5.6832
# 5 0.7023 -2.1840 10.6007 0.0007 31.0877 -0.0002
# 6 0.0001 0.0004 0.0000 -5.6832 -0.0002 26.1540
#
#
#
# Elastic Compliance Matrix: (Units=1/GPa)
#
#
# Indices 1 2 3 4 5 6 
#
# 1 0.019739 -0.006307 -0.000509 0.000000 -0.000716 0.000000
# 2 -0.006307 0.010868 -0.003763 0.000000 0.002189 0.000000
# 3 -0.000509 -0.003763 0.014418 0.000000 -0.005169 0.000000
# 4 0.000000 0.000000 0.000000 0.045196 -0.000001 0.009821
# 5 -0.000716 0.002189 -0.005169 -0.000001 0.034100 0.000000
# 6 0.000000 0.000000 0.000000 0.009821 0.000000 0.040369
#
#
# Mechanical properties :
#
#
# Convention : Reuss Voigt Hill
#
# Bulk Modulus (GPa) = 41.89698 50.54414 46.22056
# Shear Modulus (GPa) = 25.79934 28.52037 27.15985
#
# Velocity S-wave (km/s) = 3.30774 3.47781 3.39384
# Velocity P-wave (km/s) = 5.68825 6.12878 5.91262
#
# Compressibility (1/GPa) = 0.02386807
#
# Stress axis : x y z
#
# Youngs Moduli (GPa) = 50.65995 92.00961 69.35988
#
# Poissons Ratio (x) = 0.58028 0.03528
# Poissons Ratio (y) = 0.31950 0.26102
# Poissons Ratio (z) = 0.02577 0.34625
#
# Static dielectric constant tensor:
#      x y z
#    x 1.920130 0.000000 0.008380 
#    y 0.000000 2.122500 0.000000 
#    z 0.008380 0.000000 1.864290 
# 
# From -- ./inp_files/207951.got.cif
#   From: 2010.05.17/outbox.cif.g08.bks.cpg/sg15_104_cif.got.tgz:207951.got - 2010.06.03 18:47:42.
