data_PCOD9297275
_publ_section_title
;
Structure prediction by ZEFSAII (Michael W. Deem and Ramdas Pophale) SiO2 
 PCOD9297275
Probable space group: C 2/C
;
_chemical_formula_sum "Si O2"
_cell_formula_units_Z 60
_cell_length_a 18.861284
_cell_length_b 14.219627
_cell_length_c 11.517348
_cell_angle_alpha 90.000000
_cell_angle_beta 111.542477
_cell_angle_gamma 90.000000
_cell_volume 2873.180333
_symmetry_space_group_name_H-M "C 2/C"
_symmetry_group_IT_number 15
_symmetry_cell_setting 'monoclinic'
loop_
_space_group_symop_operation_xyz
x,y,z
-x,y,1/2-z
-x,-y,-z
x,-y,1/2+z
1/2+x,1/2+y,z
1/2-x,1/2+y,1/2-z
1/2-x,1/2-y,-z
1/2+x,1/2-y,1/2+z
loop_
_atom_site_type_symbol
_atom_site_label
_atom_site_fract_x
_atom_site_fract_y
_atom_site_fract_z
Si Si1 0.000000 0.871649 0.750000
Si Si2 0.159851 0.649636 0.139644
Si Si3 0.422706 0.502222 0.880669
Si Si4 0.219668 0.311806 0.305546
Si Si5 0.070401 0.690828 0.859557
Si Si6 0.263774 0.652684 0.569604
Si Si7 0.245324 0.981397 0.636193
Si Si8 0.917830 0.193906 0.757381
O O1 0.037898 0.796685 0.862663
O O2 0.059558 0.939759 0.722692
O O3 0.226639 0.722372 0.141963
O O4 0.200849 0.561854 0.228857
O O5 0.112611 0.708714 0.208076
O O6 0.105106 0.640863 0.994044
O O7 0.343310 0.465325 0.884831
O O8 0.414775 0.612804 0.851391
O O9 0.500000 0.500000 0.000000
O O10 0.136287 0.294149 0.304233
O O11 0.227003 0.338181 0.173997
O O12 0.246444 0.408222 0.380000
O O13 0.000000 0.641105 0.750000
O O14 0.250000 0.750000 0.500000
O O15 0.234480 0.570886 0.470515
O O16 0.355098 0.650651 0.633436
O O17 0.000000 0.202178 0.750000
#
# Coordination Sequence:
#
# PCOD9297275 Si02
#       8
#     4   8   8   8   8   8   8   8
#     4  10  24  38  64 100 126 180 220 266 368 386
#     4  11  23  46  63 104 134 183 228 280 345 407
#     4  12  23  39  64 104 140 172 220 278 343 423
#     4  11  24  44  69  97 136 176 227 286 335 419
#     4  10  25  44  68  94 135 175 228 285 346 400
#     4  11  23  43  65  98 136 178 230 272 347 405
#     4  12  25  40  73  99 135 186 228 279 345 411
#     4  11  22  40  63  98 142 175 217 281 335 409
#
# _framework density 20.882783
#
# number of rings (size 3 to 8) (size 9 to 14) (size 15 to 20)
#    0.400    0.533    6.000    2.800    1.867    1.067 
#    0.000    1.333    0.000    0.000    0.000    0.000 
#    0.000    0.000    0.000    0.000    0.000    0.000 
#
# Total GULP energy -167346.005023 kJ/mol
# GULP energy per Si atom -5578.200167 kJ/mol
# Density = 2.083525 g / cm^3
# Si number density = 20.882783 Si / 1000 Ang^3
#
#
#
# Elastic Constant Matrix: (Units=GPa)
#
#
# Indices 1 2 3 4 5 6 
#
# 1 74.3105 -4.2932 25.5149 0.0000 4.7926 0.0000
# 2 -4.2932 35.6637 -3.8752 0.0000 6.8674 0.0000
# 3 25.5149 -3.8752 89.8119 0.0000 24.4048 0.0000
# 4 0.0000 0.0000 0.0000 37.0137 0.0000 10.6499
# 5 4.7926 6.8674 24.4048 0.0000 31.4676 0.0000
# 6 0.0000 0.0000 0.0000 10.6499 0.0000 46.9473
#
#
#
# Elastic Compliance Matrix: (Units=1/GPa)
#
#
# Indices 1 2 3 4 5 6 
#
# 1 0.014996 0.001141 -0.004463 0.000000 0.000928 0.000000
# 2 0.001141 0.030417 0.003597 0.000000 -0.009602 0.000000
# 3 -0.004463 0.003597 0.015947 0.000000 -0.012473 0.000000
# 4 0.000000 0.000000 0.000000 0.028904 0.000000 -0.006557
# 5 0.000928 -0.009602 -0.012473 0.000000 0.043406 0.000000
# 6 0.000000 0.000000 0.000000 -0.006557 0.000000 0.022788
#
#
# Mechanical properties :
#
#
# Convention : Reuss Voigt Hill
#
# Bulk Modulus (GPa) = 16.15236 26.05322 21.10279
# Shear Modulus (GPa) = 28.32177 35.24837 31.78507
#
# Velocity S-wave (km/s) = 3.68669 4.11288 3.90560
# Velocity P-wave (km/s) = 5.08663 5.92093 5.51957
#
# Compressibility (1/GPa) = 0.06191046
#
# Stress axis : x y z
#
# Youngs Moduli (GPa) = 66.68640 32.87640 62.70840
#
# Poissons Ratio (x) = -0.03753 0.27988
# Poissons Ratio (y) = -0.07612 -0.22558
# Poissons Ratio (z) = 0.29763 -0.11827
#
# Static dielectric constant tensor:
#      x y z
#    x 1.731000 0.000000 -0.014900 
#    y 0.000000 1.769750 0.000000 
#    z -0.014900 0.000000 1.751730 
# 
# From -- ./inp_files/105747.got.cif
#   From: 2010.05.17/outbox.cif.g08.bks.cpg/sg15_53_cif.got.tgz:105747.got - 2010.06.03 18:47:42.
