data_PCOD9297285
_publ_section_title
;
Structure prediction by ZEFSAII (Michael W. Deem and Ramdas Pophale) SiO2 
 PCOD9297285
Probable space group: C 2/C
;
_chemical_formula_sum "Si O2"
_cell_formula_units_Z 36
_cell_length_a 15.982516
_cell_length_b 22.104893
_cell_length_c 8.466921
_cell_angle_alpha 90.000000
_cell_angle_beta 34.005939
_cell_angle_gamma 90.000000
_cell_volume 1672.967317
_symmetry_space_group_name_H-M "C 2/C"
_symmetry_group_IT_number 15
_symmetry_cell_setting 'monoclinic'
loop_
_space_group_symop_operation_xyz
x,y,z
-x,y,1/2-z
-x,-y,-z
x,-y,1/2+z
1/2+x,1/2+y,z
1/2-x,1/2+y,1/2-z
1/2-x,1/2-y,-z
1/2+x,1/2-y,1/2+z
loop_
_atom_site_type_symbol
_atom_site_label
_atom_site_fract_x
_atom_site_fract_y
_atom_site_fract_z
Si Si1 0.134566 0.576101 0.295556
Si Si2 0.942156 0.061317 0.663425
Si Si3 0.027416 0.192961 0.518681
Si Si4 0.500000 0.994396 0.750000
Si Si5 0.640988 0.208444 0.415090
O O1 0.122058 0.542722 0.485411
O O2 0.149720 0.646810 0.301029
O O3 0.999545 0.551476 0.400853
O O4 0.266023 0.558366 0.968779
O O5 0.000000 0.063654 0.750000
O O6 0.999794 0.124450 0.500232
O O7 0.000000 0.000000 0.500000
O O8 0.201405 0.213316 0.238360
O O9 0.908397 0.235958 0.618445
O O10 0.000000 0.194118 0.750000
O O11 0.500000 0.200872 0.750000
#
# Coordination Sequence:
#
# PCOD9297285 Si02
#       5
#     8   8   8   4   8
#     4  11  22  41  64  97 132 175 220 276 336 402
#     4  11  23  41  67  94 131 170 221 273 337 400
#     4  11  25  44  69  98 134 181 227 280 340 402
#     4  10  24  38  64  98 134 174 220 270 346 406
#     4  12  25  44  68  99 138 177 230 285 335 407
#
# _framework density 21.518650000000001
#
# number of rings (size 3 to 8) (size 9 to 14) (size 15 to 20)
#    0.000    0.889    5.556    2.667    1.556    0.889 
#    0.000    0.000    0.000    0.000    0.000    0.000 
#    0.000    0.000    0.000    0.000    0.000    0.000 
#
# Total GULP energy -100229.114408 kJ/mol
# GULP energy per Si atom -5568.284134 kJ/mol
# Density = 2.146967 g / cm^3
# Si number density = 21.518650 Si / 1000 Ang^3
#
#
#
# Elastic Constant Matrix: (Units=GPa)
#
#
# Indices 1 2 3 4 5 6 
#
# 1 19.6374 38.6696 1.8628 0.0000 3.5737 0.0000
# 2 38.6696 184.8980 34.0695 0.0000 3.9573 0.0000
# 3 1.8628 34.0695 108.3052 -0.0001 -8.5830 0.0001
# 4 0.0000 0.0000 -0.0001 34.4609 0.0001 6.2678
# 5 3.5737 3.9573 -8.5830 0.0001 27.1918 0.0000
# 6 0.0000 0.0000 0.0001 6.2678 0.0000 26.5082
#
#
#
# Elastic Compliance Matrix: (Units=1/GPa)
#
#
# Indices 1 2 3 4 5 6 
#
# 1 0.090227 -0.019430 0.003943 0.000000 -0.007786 0.000000
# 2 -0.019430 0.009981 -0.002788 0.000000 0.000221 0.000000
# 3 0.003943 -0.002788 0.010291 0.000000 0.003136 0.000000
# 4 0.000000 0.000000 0.000000 0.030322 0.000000 -0.007170
# 5 -0.007786 0.000221 0.003136 0.000000 0.038757 0.000000
# 6 0.000000 0.000000 0.000000 -0.007170 0.000000 0.039419
#
#
# Mechanical properties :
#
#
# Convention : Reuss Voigt Hill
#
# Bulk Modulus (GPa) = 13.52273 51.33826 32.43050
# Shear Modulus (GPa) = 17.84455 33.51476 25.67966
#
# Velocity S-wave (km/s) = 2.88281 3.95077 3.45826
# Velocity P-wave (km/s) = 4.16877 6.68736 5.57223
#
# Compressibility (1/GPa) = 0.07394956
#
# Stress axis : x y z
#
# Youngs Moduli (GPa) = 11.08310 100.19032 97.17345
#
# Poissons Ratio (x) = 1.94671 -0.38318
# Poissons Ratio (y) = 0.21535 0.27092
# Poissons Ratio (z) = -0.04370 0.27933
#
# Static dielectric constant tensor:
#      x y z
#    x 1.848270 0.000000 0.000300 
#    y 0.000000 1.816870 0.000000 
#    z 0.000300 0.000000 1.798760 
# 
# From -- ./inp_files/23876.got.cif
#   From: 2010.05.17/outbox.cif.g08.bks.cpg/sg15_12_cif.got.tgz:23876.got - 2010.06.03 18:47:42.
