data_PCOD9297716
_publ_section_title
;
Structure prediction by ZEFSAII (Michael W. Deem and Ramdas Pophale) SiO2 
 PCOD9297716
Probable space group: C 2/C
;
_chemical_formula_sum "Si O2"
_cell_formula_units_Z 64
_cell_length_a 23.126416
_cell_length_b 22.787823
_cell_length_c 11.494244
_cell_angle_alpha 90.000000
_cell_angle_beta 29.932417
_cell_angle_gamma 90.000000
_cell_volume 3022.547253
_symmetry_space_group_name_H-M "C 2/C"
_symmetry_group_IT_number 15
_symmetry_cell_setting 'monoclinic'
loop_
_space_group_symop_operation_xyz
x,y,z
-x,y,1/2-z
-x,-y,-z
x,-y,1/2+z
1/2+x,1/2+y,z
1/2-x,1/2+y,1/2-z
1/2-x,1/2-y,-z
1/2+x,1/2-y,1/2+z
loop_
_atom_site_type_symbol
_atom_site_label
_atom_site_fract_x
_atom_site_fract_y
_atom_site_fract_z
Si Si1 0.225430 0.935049 0.754281
Si Si2 0.851212 0.277077 0.644740
Si Si3 0.309603 0.705282 0.482468
Si Si4 0.455257 0.904360 0.457699
Si Si5 0.308933 0.091946 0.850685
Si Si6 0.551859 0.341313 0.460079
Si Si7 0.371366 0.448069 0.018207
Si Si8 0.110743 0.160233 0.604955
O O1 0.329934 0.934560 0.667640
O O2 0.266971 0.908513 0.558677
O O3 0.134443 0.891864 0.972424
O O4 0.175493 0.999457 0.820546
O O5 0.846600 0.244759 0.527459
O O6 0.932435 0.334325 0.506019
O O7 0.896112 0.223897 0.643177
O O8 0.725753 0.300661 0.899818
O O9 0.250000 0.750000 0.500000
O O10 0.211756 0.655842 0.669660
O O11 0.421502 0.671294 0.233433
O O12 0.500000 0.916467 0.250000
O O13 0.554376 0.922665 0.376299
O O14 0.220405 0.054624 0.927469
O O15 0.613485 0.385486 0.443075
O O16 0.577336 0.365825 0.288188
O O17 0.500000 0.462634 0.750000
O O18 0.000000 0.195081 0.750000
#
# Coordination Sequence:
#
# PCOD9297716 Si02
#       8
#     8   8   8   8   8   8   8   8
#     4  10  24  42  65  92 124 172 219 275 331 380
#     4  11  21  39  63  94 132 170 208 272 328 389
#     4  12  21  36  67 100 127 168 220 265 324 393
#     4   9  19  39  65  93 123 161 218 271 319 385
#     4  11  22  41  66  96 125 165 226 272 324 392
#     4  12  23  41  61  95 137 168 210 274 329 392
#     4  12  25  41  65  94 131 169 219 276 321 389
#     4  11  24  41  62  92 130 171 216 262 335 395
#
# _framework density 21.174192999999999
#
# number of rings (size 3 to 8) (size 9 to 14) (size 15 to 20)
#    0.000    1.000    2.500    6.375    1.750    1.000 
#    0.000    0.000    0.000    0.000    0.000    0.000 
#    0.000    0.000    0.000    0.000    0.000    0.000 
#
# Total GULP energy -178463.315062 kJ/mol
# GULP energy per Si atom -5576.978596 kJ/mol
# Density = 2.112600 g / cm^3
# Si number density = 21.174193 Si / 1000 Ang^3
#
#
#
# Elastic Constant Matrix: (Units=GPa)
#
#
# Indices 1 2 3 4 5 6 
#
# 1 76.0003 7.1197 25.1370 -0.0003 -19.3445 0.0001
# 2 7.1197 61.1640 4.4752 -0.0003 -14.6350 0.0003
# 3 25.1370 4.4752 61.6923 -0.0004 -12.4480 0.0002
# 4 -0.0003 -0.0003 -0.0004 15.3438 0.0005 3.7757
# 5 -19.3445 -14.6350 -12.4480 0.0005 43.6630 -0.0003
# 6 0.0001 0.0003 0.0002 3.7757 -0.0003 5.1892
#
#
#
# Elastic Compliance Matrix: (Units=1/GPa)
#
#
# Indices 1 2 3 4 5 6 
#
# 1 0.016447 -0.000156 -0.005549 0.000000 0.005652 0.000000
# 2 -0.000156 0.017777 -0.000040 0.000000 0.005878 -0.000001
# 3 -0.005549 -0.000040 0.019072 0.000000 0.002965 -0.000001
# 4 0.000000 0.000000 0.000000 0.079388 -0.000001 -0.057764
# 5 0.005652 0.005878 0.002965 -0.000001 0.028222 0.000002
# 6 0.000000 -0.000001 -0.000001 -0.057764 0.000002 0.234740
#
#
# Mechanical properties :
#
#
# Convention : Reuss Voigt Hill
#
# Bulk Modulus (GPa) = 23.92083 30.25781 27.08932
# Shear Modulus (GPa) = 11.87448 23.64751 17.76099
#
# Velocity S-wave (km/s) = 2.37069 3.34549 2.89935
# Velocity P-wave (km/s) = 4.33765 5.40778 4.90201
#
# Compressibility (1/GPa) = 0.04180458
#
# Stress axis : x y z
#
# Youngs Moduli (GPa) = 60.80299 56.25232 52.43329
#
# Poissons Ratio (x) = 0.00877 0.29098
# Poissons Ratio (y) = 0.00948 0.00209
# Poissons Ratio (z) = 0.33743 0.00225
#
# Static dielectric constant tensor:
#      x y z
#    x 1.862170 0.000000 -0.001930 
#    y 0.000000 1.766150 0.000000 
#    z -0.001930 0.000000 1.791710 
# 
# From -- ./inp_files/120240.got.cif
#   From: 2010.05.17/outbox.cif.g08.bks.cpg/sg15_61_cif.got.tgz:120240.got - 2010.06.03 18:47:42.
