data_PCOD9297118
_publ_section_title
;
Structure prediction by ZEFSAII (Michael W. Deem and Ramdas Pophale) SiO2 
 PCOD9297118
Probable space group: C 2/C
;
_chemical_formula_sum "Si O2"
_cell_formula_units_Z 44
_cell_length_a 20.410000
_cell_length_b 8.348257
_cell_length_c 10.305268
_cell_angle_alpha 90.000000
_cell_angle_beta 79.737555
_cell_angle_gamma 90.000000
_cell_volume 1727.802497
_symmetry_space_group_name_H-M "C 2/C"
_symmetry_group_IT_number 15
_symmetry_cell_setting 'monoclinic'
loop_
_space_group_symop_operation_xyz
x,y,z
-x,y,1/2-z
-x,-y,-z
x,-y,1/2+z
1/2+x,1/2+y,z
1/2-x,1/2+y,1/2-z
1/2-x,1/2-y,-z
1/2+x,1/2-y,1/2+z
loop_
_atom_site_type_symbol
_atom_site_label
_atom_site_fract_x
_atom_site_fract_y
_atom_site_fract_z
Si Si1 0.270258 0.014471 0.058607
Si Si2 0.899742 0.310654 0.766629
Si Si3 0.500000 0.086147 0.750000
Si Si4 0.898358 0.259399 0.477605
Si Si5 0.241934 0.168338 0.330966
Si Si6 0.956607 0.966053 0.389459
O O1 0.287489 0.841313 0.119831
O O2 0.233513 0.112261 0.186363
O O3 0.229097 0.967032 0.944187
O O4 0.335772 0.118354 0.995489
O O5 0.938235 0.475208 0.729101
O O6 0.907497 0.223923 0.626535
O O7 0.821912 0.318618 0.817222
O O8 0.933077 0.214542 0.872263
O O9 0.534817 0.171923 0.615115
O O10 0.894691 0.087040 0.411742
O O11 0.000000 0.008218 0.250000
O O12 0.000000 0.000000 0.500000
#
# Coordination Sequence:
#
# PCOD9297118 Si02
#       6
#     8   8   4   8   8   8
#     4  10  23  48  71 101 137 183 241 298 347 427
#     4  11  23  43  65 102 143 182 228 296 344 426
#     4  12  20  38  68 102 136 186 220 288 348 430
#     4  11  23  41  67 104 139 184 239 282 361 415
#     4  10  23  48  71 104 140 181 239 293 362 406
#     4  12  23  43  65  99 145 187 228 280 351 423
#
# _framework density 25.465872999999998
#
# number of rings (size 3 to 8) (size 9 to 14) (size 15 to 20)
#    0.000    1.091    5.455    0.545    0.000    0.727 
#   19.636    0.000    0.000    0.000    0.000    0.000 
#    0.000    0.000    0.000    0.000    0.000    0.000 
#
# Total GULP energy -122969.487434 kJ/mol
# GULP energy per Si atom -5589.522156 kJ/mol
# Density = 2.540791 g / cm^3
# Si number density = 25.465873 Si / 1000 Ang^3
#
#
#
# Elastic Constant Matrix: (Units=GPa)
#
#
# Indices 1 2 3 4 5 6 
#
# 1 117.9604 45.9347 58.2954 0.0000 -11.9330 0.0000
# 2 45.9347 80.3170 45.0363 0.0000 -21.8983 0.0000
# 3 58.2954 45.0363 158.7776 0.0000 -23.3852 0.0000
# 4 0.0000 0.0000 0.0000 56.2535 0.0000 -7.3224
# 5 -11.9330 -21.8983 -23.3852 0.0000 37.9704 0.0000
# 6 0.0000 0.0000 0.0000 -7.3224 0.0000 33.4675
#
#
#
# Elastic Compliance Matrix: (Units=1/GPa)
#
#
# Indices 1 2 3 4 5 6 
#
# 1 0.011989 -0.005506 -0.003027 0.000000 -0.001272 0.000000
# 2 -0.005506 0.018978 -0.002204 0.000000 0.007857 0.000000
# 3 -0.003027 -0.002204 0.008476 0.000000 0.002998 0.000000
# 4 0.000000 0.000000 0.000000 0.018298 0.000000 0.004003
# 5 -0.001272 0.007857 0.002998 0.000000 0.032314 0.000000
# 6 0.000000 0.000000 0.000000 0.004003 0.000000 0.030756
#
#
# Mechanical properties :
#
#
# Convention : Reuss Voigt Hill
#
# Bulk Modulus (GPa) = 55.65469 72.84311 64.24890
# Shear Modulus (GPa) = 33.72114 39.39086 36.55600
#
# Velocity S-wave (km/s) = 3.64286 3.93722 3.79290
# Velocity P-wave (km/s) = 6.29253 7.02390 6.66825
#
# Compressibility (1/GPa) = 0.01796794
#
# Stress axis : x y z
#
# Youngs Moduli (GPa) = 83.41043 52.69320 117.97516
#
# Poissons Ratio (x) = 0.29013 0.35715
# Poissons Ratio (y) = 0.45926 0.26004
# Poissons Ratio (z) = 0.25251 0.11615
#
# Static dielectric constant tensor:
#      x y z
#    x 2.031030 0.000000 -0.010490 
#    y 0.000000 2.154900 0.000000 
#    z -0.010490 0.000000 2.014920 
# 
# From -- ./inp_files/116223.got.cif
#   From: 2010.05.17/outbox.cif.g08.bks.cpg/sg15_59_cif.got.tgz:116223.got - 2010.06.03 18:47:42.
