data_PCOD9297980
_publ_section_title
;
Structure prediction by ZEFSAII (Michael W. Deem and Ramdas Pophale) SiO2 
 PCOD9297980
Probable space group: C 2/C
;
_chemical_formula_sum "Si O2"
_cell_formula_units_Z 28
_cell_length_a 12.491559
_cell_length_b 17.362271
_cell_length_c 4.841586
_cell_angle_alpha 90.000000
_cell_angle_beta 65.906100
_cell_angle_gamma 90.000000
_cell_volume 958.569037
_symmetry_space_group_name_H-M "C 2/C"
_symmetry_group_IT_number 15
_symmetry_cell_setting 'monoclinic'
loop_
_space_group_symop_operation_xyz
x,y,z
-x,y,1/2-z
-x,-y,-z
x,-y,1/2+z
1/2+x,1/2+y,z
1/2-x,1/2+y,1/2-z
1/2-x,1/2-y,-z
1/2+x,1/2-y,1/2+z
loop_
_atom_site_type_symbol
_atom_site_label
_atom_site_fract_x
_atom_site_fract_y
_atom_site_fract_z
Si Si1 0.887395 0.095205 0.970907
Si Si2 0.500000 0.736336 0.750000
Si Si3 0.796133 0.316447 0.238520
Si Si4 0.157423 0.547168 0.460023
O O1 0.804078 0.134876 0.820393
O O2 0.798999 0.054352 0.270030
O O3 0.955321 0.171206 0.016569
O O4 0.000000 0.048561 0.750000
O O5 0.615094 0.788541 0.596853
O O6 0.750000 0.250000 0.500000
O O7 0.868735 0.374483 0.357002
O O8 0.121115 0.477891 0.697060
#
# Coordination Sequence:
#
# PCOD9297980 Si02
#       4
#     8   4   8   8
#     4  10  24  45  72 111 146 195 244 311 386 435
#     4  10  24  42  78 108 140 196 250 318 368 432
#     4  12  24  48  75 112 151 192 263 307 374 449
#     4  12  26  47  74 106 158 199 244 310 382 455
#
# _framework density 29.210208999999999
#
# number of rings (size 3 to 8) (size 9 to 14) (size 15 to 20)
#    0.857    0.000    5.714    0.857    0.000    5.714 
#    0.000    1.429    0.000    0.000    0.000    0.000 
#    0.000    0.000    0.000    0.000    0.000    0.000 
#
# Total GULP energy -78013.630041 kJ/mol
# GULP energy per Si atom -5572.402146 kJ/mol
# Density = 2.914373 g / cm^3
# Si number density = 29.210209 Si / 1000 Ang^3
#
#
#
# Elastic Constant Matrix: (Units=GPa)
#
#
# Indices 1 2 3 4 5 6 
#
# 1 180.9587 40.3619 100.5799 0.0000 -32.1434 0.0000
# 2 40.3619 118.2045 54.5548 0.0000 13.1208 0.0000
# 3 100.5799 54.5548 169.8742 0.0000 12.9820 0.0000
# 4 0.0000 0.0000 0.0000 25.3673 0.0000 1.2591
# 5 -32.1434 13.1208 12.9820 0.0000 50.5008 0.0000
# 6 0.0000 0.0000 0.0000 1.2591 0.0000 19.8924
#
#
#
# Elastic Compliance Matrix: (Units=1/GPa)
#
#
# Indices 1 2 3 4 5 6 
#
# 1 0.011493 -0.001771 -0.006967 0.000000 0.009566 0.000000
# 2 -0.001771 0.010367 -0.002029 0.000000 -0.003299 0.000000
# 3 -0.006967 -0.002029 0.011182 0.000000 -0.006782 0.000000
# 4 0.000000 0.000000 0.000000 0.039545 0.000000 -0.002503
# 5 0.009566 -0.003299 -0.006782 0.000000 0.028491 0.000000
# 6 0.000000 0.000000 0.000000 -0.002503 0.000000 0.050429
#
#
# Mechanical properties :
#
#
# Convention : Reuss Voigt Hill
#
# Bulk Modulus (GPa) = 86.89414 95.55894 91.22654
# Shear Modulus (GPa) = 28.26850 37.38816 32.82833
#
# Velocity S-wave (km/s) = 3.11426 3.58155 3.35605
# Velocity P-wave (km/s) = 6.53788 7.06318 6.80560
#
# Compressibility (1/GPa) = 0.01150826
#
# Stress axis : x y z
#
# Youngs Moduli (GPa) = 87.01229 96.45908 89.43239
#
# Poissons Ratio (x) = 0.17079 0.62308
# Poissons Ratio (y) = 0.15406 0.18145
# Poissons Ratio (z) = 0.60622 0.19571
#
# Static dielectric constant tensor:
#      x y z
#    x 2.467640 0.000000 -0.081500 
#    y 0.000000 2.419730 0.000000 
#    z -0.081500 0.000000 2.379070 
# 
# From -- ./inp_files/6312.got.cif
#   From: 2010.05.17/outbox.cif.g08.bks.cpg/sg15_4_cif.got.tgz:6312.got - 2010.06.03 18:47:42.
