data_PCOD9297634
_publ_section_title
;
Structure prediction by ZEFSAII (Michael W. Deem and Ramdas Pophale) SiO2 
 PCOD9297634
Probable space group: C 2/C
;
_chemical_formula_sum "Si O2"
_cell_formula_units_Z 40
_cell_length_a 18.668337
_cell_length_b 4.997918
_cell_length_c 17.329854
_cell_angle_alpha 90.000000
_cell_angle_beta 101.652276
_cell_angle_gamma 90.000000
_cell_volume 1583.601630
_symmetry_space_group_name_H-M "C 2/C"
_symmetry_group_IT_number 15
_symmetry_cell_setting 'monoclinic'
loop_
_space_group_symop_operation_xyz
x,y,z
-x,y,1/2-z
-x,-y,-z
x,-y,1/2+z
1/2+x,1/2+y,z
1/2-x,1/2+y,1/2-z
1/2-x,1/2-y,-z
1/2+x,1/2-y,1/2+z
loop_
_atom_site_type_symbol
_atom_site_label
_atom_site_fract_x
_atom_site_fract_y
_atom_site_fract_z
Si Si1 0.064625 0.490535 0.116944
Si Si2 0.776744 0.490298 0.904184
Si Si3 0.064033 0.876838 0.887656
Si Si4 0.500000 0.500000 0.500000
Si Si5 0.000000 0.254480 0.750000
Si Si6 0.309160 0.013419 0.093824
O O1 0.149596 0.441717 0.124375
O O2 0.015110 0.222643 0.090198
O O3 0.045144 0.567978 0.200082
O O4 0.036572 0.729876 0.057405
O O5 0.747276 0.195917 0.880434
O O6 0.710370 0.697709 0.878090
O O7 0.794684 0.503624 0.999094
O O8 0.111650 0.621003 0.879614
O O9 0.048974 0.056090 0.811764
O O10 0.082359 0.041392 0.967821
#
# Coordination Sequence:
#
# PCOD9297634 Si02
#       6
#     8   8   8   4   4   8
#     4  10  25  45  74 106 149 199 253 322 376 472
#     4  10  24  42  72 113 152 190 244 319 383 447
#     4  10  25  44  73 107 145 195 254 323 368 473
#     4   8  24  40  72 108 138 186 266 306 374 440
#     4  12  26  44  78 106 154 200 264 318 410 448
#     4  10  24  41  71 114 151 187 247 316 385 447
#
# _framework density 25.258876999999998
#
# number of rings (size 3 to 8) (size 9 to 14) (size 15 to 20)
#    1.200    0.800    0.000    0.600   16.800    1.600 
#    0.000    0.000    8.800    0.000    5.200    0.000 
#    0.000    0.000    0.000    0.000    0.000    0.000 
#
# Total GULP energy -111741.351525 kJ/mol
# GULP energy per Si atom -5587.067576 kJ/mol
# Density = 2.520139 g / cm^3
# Si number density = 25.258877 Si / 1000 Ang^3
#
#
#
# Elastic Constant Matrix: (Units=GPa)
#
#
# Indices 1 2 3 4 5 6 
#
# 1 143.9908 37.0828 43.6296 0.0000 -29.3269 0.0000
# 2 37.0828 119.5416 42.7096 0.0000 7.2736 0.0000
# 3 43.6296 42.7096 128.9944 0.0000 -16.1685 0.0000
# 4 0.0000 0.0000 0.0000 44.2286 0.0000 4.1544
# 5 -29.3269 7.2736 -16.1685 0.0000 24.3749 0.0000
# 6 0.0000 0.0000 0.0000 4.1544 0.0000 52.3059
#
#
#
# Elastic Compliance Matrix: (Units=1/GPa)
#
#
# Indices 1 2 3 4 5 6 
#
# 1 0.011051 -0.004062 -0.000627 0.000000 0.014093 0.000000
# 2 -0.004062 0.011669 -0.003860 0.000000 -0.010929 0.000000
# 3 -0.000627 -0.003860 0.010135 0.000000 0.007120 0.000000
# 4 0.000000 0.000000 0.000000 0.022780 0.000000 -0.001809
# 5 0.014093 -0.010929 0.007120 0.000000 0.065966 0.000000
# 6 0.000000 0.000000 0.000000 -0.001809 0.000000 0.019262
#
#
# Mechanical properties :
#
#
# Convention : Reuss Voigt Hill
#
# Bulk Modulus (GPa) = 63.45643 71.04119 67.24881
# Shear Modulus (GPa) = 30.63505 42.12218 36.37861
#
# Velocity S-wave (km/s) = 3.48637 4.08808 3.79915
# Velocity P-wave (km/s) = 6.43299 7.10419 6.77690
#
# Compressibility (1/GPa) = 0.01575884
#
# Stress axis : x y z
#
# Youngs Moduli (GPa) = 90.48927 85.69507 98.67136
#
# Poissons Ratio (x) = 0.34807 0.06182
# Poissons Ratio (y) = 0.36754 0.38085
# Poissons Ratio (z) = 0.05670 0.33076
#
# Static dielectric constant tensor:
#      x y z
#    x 2.100530 0.000000 -0.007360 
#    y 0.000000 2.037240 0.000000 
#    z -0.007360 0.000000 2.025970 
# 
# From -- ./inp_files/184410.got.cif
#   From: 2010.05.17/outbox.cif.g08.bks.cpg/sg15_93_cif.got.tgz:184410.got - 2010.06.03 18:47:42.
