data_PCOD9297523
_publ_section_title
;
Structure prediction by ZEFSAII (Michael W. Deem and Ramdas Pophale) SiO2 
 PCOD9297523
Probable space group: C 2/C
;
_chemical_formula_sum "Si O2"
_cell_formula_units_Z 52
_cell_length_a 20.982515
_cell_length_b 15.369689
_cell_length_c 24.992320
_cell_angle_alpha 90.000000
_cell_angle_beta 17.399252
_cell_angle_gamma 90.000000
_cell_volume 2410.135929
_symmetry_space_group_name_H-M "C 2/C"
_symmetry_group_IT_number 15
_symmetry_cell_setting 'monoclinic'
loop_
_space_group_symop_operation_xyz
x,y,z
-x,y,1/2-z
-x,-y,-z
x,-y,1/2+z
1/2+x,1/2+y,z
1/2-x,1/2+y,1/2-z
1/2-x,1/2-y,-z
1/2+x,1/2-y,1/2+z
loop_
_atom_site_type_symbol
_atom_site_label
_atom_site_fract_x
_atom_site_fract_y
_atom_site_fract_z
Si Si1 0.683022 0.713369 0.642200
Si Si2 0.454223 0.945758 0.905545
Si Si3 0.125186 0.438240 0.940892
Si Si4 0.814008 0.854339 0.690566
Si Si5 0.000000 0.525795 0.250000
Si Si6 0.424724 0.621983 0.941323
Si Si7 0.205710 0.156906 0.802982
O O1 0.500000 0.746635 0.750000
O O2 0.835700 0.645794 0.489560
O O3 0.570393 0.662356 0.779196
O O4 0.806281 0.796468 0.564134
O O5 0.665843 0.914628 0.769593
O O6 0.487265 0.999037 0.824249
O O7 0.307943 0.000902 0.063566
O O8 0.948781 0.374727 0.108799
O O9 0.000000 0.500000 0.000000
O O10 0.291239 0.389437 0.769665
O O11 0.718986 0.756059 0.770166
O O12 0.054933 0.848814 0.475590
O O13 0.762984 0.567051 0.433541
O O14 0.585378 0.591240 0.857999
#
# Coordination Sequence:
#
# PCOD9297523 Si02
#       7
#     8   8   8   8   4   8   8
#     4  12  21  32  50  76 117 161 195 229 276 340
#     4  11  23  40  52  83 123 160 195 246 292 353
#     4  10  24  41  57  85 124 158 199 258 303 351
#     4  11  21  37  63  86 119 156 202 248 299 352
#     4  12  22  36  52  78 116 162 202 232 280 352
#     4  12  21  31  52  79 113 155 202 233 274 345
#     4  12  21  37  62  89 116 159 203 247 299 358
#
# _framework density 21.575545999999999
#
# number of rings (size 3 to 8) (size 9 to 14) (size 15 to 20)
#    0.000    0.615    6.923    4.154    0.000    2.462 
#    2.769    0.000    0.000    0.000    0.000    1.077 
#    0.000    0.000    0.000    0.000    0.000    0.000 
#
# Total GULP energy -144883.361832 kJ/mol
# GULP energy per Si atom -5572.436994 kJ/mol
# Density = 2.152644 g / cm^3
# Si number density = 21.575546 Si / 1000 Ang^3
#
#
#
# Elastic Constant Matrix: (Units=GPa)
#
#
# Indices 1 2 3 4 5 6 
#
# 1 73.0128 21.3111 29.9401 -0.0452 27.8825 -0.0159
# 2 21.3111 41.9228 18.8049 -0.0465 4.9356 0.0194
# 3 29.9401 18.8049 125.8429 -0.2571 38.4137 0.0685
# 4 -0.0452 -0.0465 -0.2571 35.0232 0.1156 8.1876
# 5 27.8825 4.9356 38.4137 0.1156 39.5362 0.0027
# 6 -0.0159 0.0194 0.0685 8.1876 0.0027 19.9137
#
#
#
# Elastic Compliance Matrix: (Units=1/GPa)
#
#
# Indices 1 2 3 4 5 6 
#
# 1 0.021964 -0.009765 0.000839 0.000072 -0.015086 -0.000003
# 2 -0.009765 0.029924 -0.004422 -0.000027 0.007447 -0.000012
# 3 0.000839 -0.004422 0.011970 0.000143 -0.011670 -0.000094
# 4 0.000072 -0.000027 0.000143 0.031591 -0.000278 -0.012989
# 5 -0.015086 0.007447 -0.011670 -0.000278 0.046343 0.000129
# 6 -0.000003 -0.000012 -0.000094 -0.012989 0.000129 0.055558
#
#
# Mechanical properties :
#
#
# Convention : Reuss Voigt Hill
#
# Bulk Modulus (GPa) = 26.90923 42.32120 34.61521
# Shear Modulus (GPa) = 21.14770 30.27612 25.71191
#
# Velocity S-wave (km/s) = 3.13416 3.75008 3.45587
# Velocity P-wave (km/s) = 5.05930 6.19748 5.65708
#
# Compressibility (1/GPa) = 0.03716197
#
# Stress axis : x y z
#
# Youngs Moduli (GPa) = 45.52995 33.41802 83.53965
#
# Poissons Ratio (x) = 0.32633 -0.07007
# Poissons Ratio (y) = 0.44460 0.36938
# Poissons Ratio (z) = -0.03819 0.14776
#
# Static dielectric constant tensor:
#      x y z
#    x 1.829000 0.000000 0.010740 
#    y 0.000000 1.855050 0.000020 
#    z 0.010740 0.000020 1.869970 
# 
# From -- ./inp_files/280359.got.cif
#   From: 2010.05.17/outbox.cif.g08.bks.cpg/sg15_141_cif.got.tgz:280359.got - 2010.06.03 18:47:42.
