data_PCOD9297863
_publ_section_title
;
Structure prediction by ZEFSAII (Michael W. Deem and Ramdas Pophale) SiO2 
 PCOD9297863
Probable space group: C 2/C
;
_chemical_formula_sum "Si O2"
_cell_formula_units_Z 60
_cell_length_a 31.897241
_cell_length_b 5.101236
_cell_length_c 17.544304
_cell_angle_alpha 90.000000
_cell_angle_beta 75.315897
_cell_angle_gamma 90.000000
_cell_volume 2761.486872
_symmetry_space_group_name_H-M "C 2/C"
_symmetry_group_IT_number 15
_symmetry_cell_setting 'monoclinic'
loop_
_space_group_symop_operation_xyz
x,y,z
-x,y,1/2-z
-x,-y,-z
x,-y,1/2+z
1/2+x,1/2+y,z
1/2-x,1/2+y,1/2-z
1/2-x,1/2-y,-z
1/2+x,1/2-y,1/2+z
loop_
_atom_site_type_symbol
_atom_site_label
_atom_site_fract_x
_atom_site_fract_y
_atom_site_fract_z
Si Si1 0.935273 0.842858 0.679300
Si Si2 0.000000 0.841804 0.250000
Si Si3 0.074665 0.386598 0.623189
Si Si4 0.299143 0.748545 0.450210
Si Si5 0.665096 0.736366 0.647149
Si Si6 0.120704 0.371392 0.812562
Si Si7 0.622026 0.748367 0.983683
Si Si8 0.955421 0.850556 0.511575
O O1 0.901126 0.622219 0.720399
O O2 0.950844 0.706617 0.593658
O O3 0.976780 0.952097 0.703869
O O4 0.909125 0.112347 0.678317
O O5 0.038093 0.649893 0.203858
O O6 0.115564 0.218277 0.635955
O O7 0.099275 0.624102 0.569509
O O8 0.044934 0.306786 0.564966
O O9 0.250000 0.750000 0.500000
O O10 0.309935 0.529131 0.382498
O O11 0.330729 0.679164 0.506965
O O12 0.312275 0.029229 0.409537
O O13 0.660729 0.801642 0.738715
O O14 0.127983 0.408953 0.900763
O O15 0.588223 0.521117 0.978592
O O16 0.000000 0.000000 0.500000
#
# Coordination Sequence:
#
# PCOD9297863 Si02
#       8
#     8   4   8   8   8   8   8   8
#     4  11  24  39  59  92 130 176 229 280 331 390
#     4  12  24  38  60  96 140 180 242 296 326 404
#     4  11  22  41  59  94 132 185 228 277 344 395
#     4  11  24  45  73 104 131 172 222 278 347 422
#     4  11  23  43  69  97 138 171 221 280 344 404
#     4  11  23  42  66  95 128 180 223 274 344 401
#     4  10  24  42  69  91 138 180 226 283 344 409
#     4  11  21  38  59  87 128 178 229 272 329 400
#
# _framework density 21.727423000000002
#
# number of rings (size 3 to 8) (size 9 to 14) (size 15 to 20)
#    0.000    1.067    5.333    1.200    0.000    2.133 
#    0.000    1.333    0.000    0.000    0.000    0.000 
#    0.000    0.000    0.000    0.000    0.000    0.000 
#
# Total GULP energy -167075.746940 kJ/mol
# GULP energy per Si atom -5569.191565 kJ/mol
# Density = 2.167797 g / cm^3
# Si number density = 21.727423 Si / 1000 Ang^3
#
#
#
# Elastic Constant Matrix: (Units=GPa)
#
#
# Indices 1 2 3 4 5 6 
#
# 1 116.4209 27.8718 41.5035 0.0000 -27.9487 0.0000
# 2 27.8718 62.0250 7.9394 0.0000 -3.2734 0.0000
# 3 41.5035 7.9394 100.4194 0.0000 -7.7972 0.0000
# 4 0.0000 0.0000 0.0000 24.5247 0.0000 -5.8143
# 5 -27.9487 -3.2734 -7.7972 0.0000 30.5672 0.0000
# 6 0.0000 0.0000 0.0000 -5.8143 0.0000 20.1235
#
#
#
# Elastic Compliance Matrix: (Units=1/GPa)
#
#
# Indices 1 2 3 4 5 6 
#
# 1 0.014152 -0.005183 -0.004568 0.000000 0.011220 0.000000
# 2 -0.005183 0.018248 0.000493 0.000000 -0.002659 0.000000
# 3 -0.004568 0.000493 0.011719 0.000000 -0.001135 0.000000
# 4 0.000000 0.000000 0.000000 0.043774 0.000000 0.012648
# 5 0.011220 -0.002659 -0.001135 0.000000 0.042399 0.000000
# 6 0.000000 0.000000 0.000000 0.012648 0.000000 0.053347
#
#
# Mechanical properties :
#
#
# Convention : Reuss Voigt Hill
#
# Bulk Modulus (GPa) = 39.05734 48.16607 43.61171
# Shear Modulus (GPa) = 23.73152 28.47981 26.10566
#
# Velocity S-wave (km/s) = 3.30849 3.62439 3.47004
# Velocity P-wave (km/s) = 5.71051 6.30329 6.01420
#
# Compressibility (1/GPa) = 0.02560338
#
# Stress axis : x y z
#
# Youngs Moduli (GPa) = 70.66004 54.80052 85.32989
#
# Poissons Ratio (x) = 0.28401 0.38981
# Poissons Ratio (y) = 0.36621 -0.04205
# Poissons Ratio (z) = 0.32279 -0.02701
#
# Static dielectric constant tensor:
#      x y z
#    x 1.769720 0.000000 0.209140 
#    y 0.000000 1.898160 0.000000 
#    z 0.209140 0.000000 2.221900 
# 
# From -- ./inp_files/223883.got.cif
#   From: 2010.05.17/outbox.cif.g08.bks.cpg/sg15_112_cif.got.tgz:223883.got - 2010.06.03 18:47:42.
