data_PCOD9297060
_publ_section_title
;
Structure prediction by ZEFSAII (Michael W. Deem and Ramdas Pophale) SiO2 
 PCOD9297060
Probable space group: C 2/C
;
_chemical_formula_sum "Si O2"
_cell_formula_units_Z 60
_cell_length_a 11.232652
_cell_length_b 9.769544
_cell_length_c 24.522155
_cell_angle_alpha 90.000000
_cell_angle_beta 86.114927
_cell_angle_gamma 90.000000
_cell_volume 2684.825463
_symmetry_space_group_name_H-M "C 2/C"
_symmetry_group_IT_number 15
_symmetry_cell_setting 'monoclinic'
loop_
_space_group_symop_operation_xyz
x,y,z
-x,y,1/2-z
-x,-y,-z
x,-y,1/2+z
1/2+x,1/2+y,z
1/2-x,1/2+y,1/2-z
1/2-x,1/2-y,-z
1/2+x,1/2-y,1/2+z
loop_
_atom_site_type_symbol
_atom_site_label
_atom_site_fract_x
_atom_site_fract_y
_atom_site_fract_z
Si Si1 0.500000 0.833475 0.250000
Si Si2 0.189038 0.062385 0.710522
Si Si3 0.106977 0.693484 0.855564
Si Si4 0.145682 0.778342 0.409184
Si Si5 0.509247 0.525013 0.129618
Si Si6 0.111295 0.482132 0.456969
Si Si7 0.133091 0.949917 0.516010
Si Si8 0.753675 0.269251 0.707624
O O1 0.473791 0.882467 0.188339
O O2 0.376267 0.757776 0.263806
O O3 0.258758 0.154088 0.664197
O O4 0.166241 0.159971 0.762257
O O5 0.076706 0.002666 0.683311
O O6 0.272736 0.929504 0.719369
O O7 0.084399 0.639943 0.916572
O O8 0.084996 0.855330 0.856504
O O9 0.113555 0.621853 0.421803
O O10 0.171634 0.841850 0.468110
O O11 0.238365 0.768086 0.356211
O O12 0.045635 0.882523 0.389481
O O13 0.599119 0.582057 0.079926
O O14 0.242853 0.464270 0.480574
O O15 0.000000 0.500000 0.500000
O O16 0.000000 0.000000 0.500000
#
# Coordination Sequence:
#
# PCOD9297060 Si02
#       8
#     4   8   8   8   8   8   8   8
#     4  10  24  40  70  96 142 202 238 298 390 450
#     4  11  24  46  70 106 144 196 255 310 379 462
#     4  11  23  44  72 103 143 196 243 307 374 453
#     4  11  25  44  69 106 146 194 247 318 384 453
#     4  11  23  47  73 102 150 200 248 310 385 461
#     4  12  25  45  75 113 148 189 254 325 381 451
#     4  10  23  47  74 103 146 202 248 306 387 464
#     4  11  24  44  70 103 145 190 259 309 382 459
#
# _framework density 22.347819999999999
#
# number of rings (size 3 to 8) (size 9 to 14) (size 15 to 20)
#    0.000    1.067    4.000    1.200    5.600    0.533 
#    9.600    4.000    0.000    0.000    0.000    0.000 
#    0.000    0.000    0.000    0.000    0.000    0.000 
#
# Total GULP energy -167071.836657 kJ/mol
# GULP energy per Si atom -5569.061222 kJ/mol
# Density = 2.229696 g / cm^3
# Si number density = 22.347820 Si / 1000 Ang^3
#
#
#
# Elastic Constant Matrix: (Units=GPa)
#
#
# Indices 1 2 3 4 5 6 
#
# 1 74.7502 30.6303 40.2449 0.0000 -3.9688 0.0000
# 2 30.6303 95.0679 24.9828 0.0000 16.6003 0.0000
# 3 40.2449 24.9828 105.6707 0.0000 -7.4868 0.0000
# 4 0.0000 0.0000 0.0000 34.9289 0.0000 11.0267
# 5 -3.9688 16.6003 -7.4868 0.0000 55.5767 0.0000
# 6 0.0000 0.0000 0.0000 11.0267 0.0000 8.6792
#
#
#
# Elastic Compliance Matrix: (Units=1/GPa)
#
#
# Indices 1 2 3 4 5 6 
#
# 1 0.018574 -0.004807 -0.005797 0.000000 0.001981 0.000000
# 2 -0.004807 0.013288 -0.001632 0.000000 -0.004532 0.000000
# 3 -0.005797 -0.001632 0.012178 0.000000 0.001714 0.000000
# 4 0.000000 0.000000 0.000000 0.047802 0.000000 -0.060731
# 5 0.001981 -0.004532 0.001714 0.000000 0.019719 0.000000
# 6 0.000000 0.000000 0.000000 -0.060731 0.000000 0.192375
#
#
# Mechanical properties :
#
#
# Convention : Reuss Voigt Hill
#
# Bulk Modulus (GPa) = 51.10298 51.91164 51.50731
# Shear Modulus (GPa) = 14.92846 31.81235 23.37041
#
# Velocity S-wave (km/s) = 2.58738 3.77704 3.23733
# Velocity P-wave (km/s) = 5.64294 6.50390 6.08866
#
# Compressibility (1/GPa) = 0.01956833
#
# Stress axis : x y z
#
# Youngs Moduli (GPa) = 53.83886 75.25714 82.11230
#
# Poissons Ratio (x) = 0.36176 0.47601
# Poissons Ratio (y) = 0.25880 0.13400
# Poissons Ratio (z) = 0.31211 0.12281
#
# Static dielectric constant tensor:
#      x y z
#    x 1.943840 0.000000 -0.020540 
#    y 0.000000 1.845600 0.000000 
#    z -0.020540 0.000000 1.930200 
# 
# From -- ./inp_files/291593.got.cif
#   From: 2010.05.17/outbox.cif.g08.bks.cpg/sg15_146_cif.got.tgz:291593.got - 2010.06.03 18:47:42.
