data_PCOD9297778
_publ_section_title
;
Structure prediction by ZEFSAII (Michael W. Deem and Ramdas Pophale) SiO2 
 PCOD9297778
Probable space group: C 2/C
;
_chemical_formula_sum "Si O2"
_cell_formula_units_Z 32
_cell_length_a 16.362901
_cell_length_b 16.051430
_cell_length_c 9.124481
_cell_angle_alpha 90.000000
_cell_angle_beta 37.771118
_cell_angle_gamma 90.000000
_cell_volume 1467.893149
_symmetry_space_group_name_H-M "C 2/C"
_symmetry_group_IT_number 15
_symmetry_cell_setting 'monoclinic'
loop_
_space_group_symop_operation_xyz
x,y,z
-x,y,1/2-z
-x,-y,-z
x,-y,1/2+z
1/2+x,1/2+y,z
1/2-x,1/2+y,1/2-z
1/2-x,1/2-y,-z
1/2+x,1/2-y,1/2+z
loop_
_atom_site_type_symbol
_atom_site_label
_atom_site_fract_x
_atom_site_fract_y
_atom_site_fract_z
Si Si1 0.909615 0.277298 0.690703
Si Si2 0.222352 0.708859 0.693469
Si Si3 0.130743 0.955118 0.467805
Si Si4 0.310397 0.607887 0.933690
O O1 0.065714 0.283836 0.445667
O O2 0.823782 0.252333 0.666534
O O3 0.881556 0.196930 0.830645
O O4 0.843242 0.360868 0.851602
O O5 0.250000 0.750000 0.500000
O O6 0.259767 0.611556 0.636449
O O7 0.132820 0.940751 0.289544
O O8 0.000000 0.933324 0.750000
O O9 0.165153 0.049288 0.462947
#
# Coordination Sequence:
#
# PCOD9297778 Si02
#       4
#     8   8   8   8
#     4  10  24  43  69  97 139 183 224 278 352 414
#     4  11  23  43  68 102 134 179 230 282 339 413
#     4  11  24  41  66 102 136 176 234 287 340 409
#     4  10  24  42  67 100 133 184 228 283 345 413
#
# _framework density 21.799952000000001
#
# number of rings (size 3 to 8) (size 9 to 14) (size 15 to 20)
#    0.000    1.500    0.000    4.500    7.000    9.000 
#    0.000    0.000    0.000    0.000    0.000    0.000 
#    0.000    0.000    0.000    0.000    0.000    0.000 
#
# Total GULP energy -89373.078187 kJ/mol
# GULP energy per Si atom -5585.817387 kJ/mol
# Density = 2.175033 g / cm^3
# Si number density = 21.799952 Si / 1000 Ang^3
#
#
#
# Elastic Constant Matrix: (Units=GPa)
#
#
# Indices 1 2 3 4 5 6 
#
# 1 135.3100 36.1369 70.1662 0.0000 -11.9406 0.0000
# 2 36.1369 94.7313 50.6229 0.0000 -3.7639 0.0000
# 3 70.1662 50.6229 139.1621 0.0000 -26.0506 0.0000
# 4 0.0000 0.0000 0.0000 42.4517 0.0000 5.9453
# 5 -11.9406 -3.7639 -26.0506 0.0000 56.0021 0.0000
# 6 0.0000 0.0000 0.0000 5.9453 0.0000 24.7633
#
#
#
# Elastic Compliance Matrix: (Units=1/GPa)
#
#
# Indices 1 2 3 4 5 6 
#
# 1 0.010157 -0.001406 -0.004625 0.000000 -0.000080 0.000000
# 2 -0.001406 0.013409 -0.004443 0.000000 -0.001465 0.000000
# 3 -0.004625 -0.004443 0.011932 0.000000 0.004266 0.000000
# 4 0.000000 0.000000 0.000000 0.024376 0.000000 -0.005852
# 5 -0.000080 -0.001465 0.004266 0.000000 0.019725 0.000000
# 6 0.000000 0.000000 0.000000 -0.005852 0.000000 0.041787
#
#
# Mechanical properties :
#
#
# Convention : Reuss Voigt Hill
#
# Bulk Modulus (GPa) = 68.72715 75.89504 72.31109
# Shear Modulus (GPa) = 33.97095 38.79524 36.38310
#
# Velocity S-wave (km/s) = 3.95182 4.22311 4.08971
# Velocity P-wave (km/s) = 7.23997 7.65960 7.45274
#
# Compressibility (1/GPa) = 0.01455029
#
# Stress axis : x y z
#
# Youngs Moduli (GPa) = 98.45291 74.57876 83.80570
#
# Poissons Ratio (x) = 0.10489 0.38757
# Poissons Ratio (y) = 0.13847 0.37233
# Poissons Ratio (z) = 0.45531 0.33134
#
# Static dielectric constant tensor:
#      x y z
#    x 1.659680 0.000000 -0.013840 
#    y 0.000000 1.776410 0.000000 
#    z -0.013840 0.000000 1.825740 
# 
# From -- ./inp_files/37210.got.cif
#   From: 2010.05.17/outbox.cif.g08.bks.cpg/sg15_19_cif.got.tgz:37210.got - 2010.06.03 18:47:42.
