data_PCOD9297469
_publ_section_title
;
Structure prediction by ZEFSAII (Michael W. Deem and Ramdas Pophale) SiO2 
 PCOD9297469
Probable space group: C 2/C
;
_chemical_formula_sum "Si O2"
_cell_formula_units_Z 60
_cell_length_a 25.838469
_cell_length_b 8.147063
_cell_length_c 28.551056
_cell_angle_alpha 90.000000
_cell_angle_beta 27.031905
_cell_angle_gamma 90.000000
_cell_volume 2731.562206
_symmetry_space_group_name_H-M "C 2/C"
_symmetry_group_IT_number 15
_symmetry_cell_setting 'monoclinic'
loop_
_space_group_symop_operation_xyz
x,y,z
-x,y,1/2-z
-x,-y,-z
x,-y,1/2+z
1/2+x,1/2+y,z
1/2-x,1/2+y,1/2-z
1/2-x,1/2-y,-z
1/2+x,1/2-y,1/2+z
loop_
_atom_site_type_symbol
_atom_site_label
_atom_site_fract_x
_atom_site_fract_y
_atom_site_fract_z
Si Si1 0.618759 0.930186 0.882192
Si Si2 0.156531 0.614343 0.085603
Si Si3 0.023404 0.635469 0.634590
Si Si4 0.660860 0.755992 0.940196
Si Si5 0.104882 0.056020 0.237803
Si Si6 0.293348 0.050821 0.346255
Si Si7 0.000000 0.845022 0.250000
Si Si8 0.813340 0.813948 0.254614
O O1 0.649074 0.790843 0.895515
O O2 0.629941 0.824230 0.825002
O O3 0.713334 0.077714 0.810120
O O4 0.500000 0.000000 0.000000
O O5 0.177921 0.566786 0.122130
O O6 0.125090 0.460216 0.079017
O O7 0.044087 0.726530 0.174233
O O8 0.250000 0.750000 0.000000
O O9 0.996590 0.811950 0.678995
O O10 0.904966 0.537387 0.734193
O O11 0.059518 0.669194 0.552368
O O12 0.776163 0.850552 0.860944
O O13 0.684791 0.567148 0.930356
O O14 0.105560 0.947198 0.284718
O O15 0.093385 0.952739 0.199852
O O16 0.268454 0.213299 0.336365
#
# Coordination Sequence:
#
# PCOD9297469 Si02
#       8
#     8   8   8   8   8   8   4   8
#     4  11  25  44  75  97 132 180 231 294 357 420
#     4  12  25  40  65  95 138 187 226 269 337 403
#     4  11  23  42  67  98 142 184 230 280 335 409
#     4  10  24  42  64 100 131 177 226 288 341 406
#     4  10  24  40  68  97 138 177 230 278 344 406
#     4  11  23  44  65  96 141 179 223 284 342 411
#     4  12  22  42  62  98 132 184 220 274 332 418
#     4  11  23  47  68 101 138 179 231 296 352 415
#
# _framework density 21.965454000000001
#
# number of rings (size 3 to 8) (size 9 to 14) (size 15 to 20)
#    0.000    1.067    2.667    2.400    7.467    3.733 
#    0.000    2.000    0.000    0.000    0.000    0.000 
#    0.000    0.000    0.000    0.000    0.000    0.000 
#
# Total GULP energy -167289.783287 kJ/mol
# GULP energy per Si atom -5576.326110 kJ/mol
# Density = 2.191546 g / cm^3
# Si number density = 21.965454 Si / 1000 Ang^3
#
#
#
# Elastic Constant Matrix: (Units=GPa)
#
#
# Indices 1 2 3 4 5 6 
#
# 1 52.9890 37.1891 12.8226 -0.0026 10.4334 0.0025
# 2 37.1891 109.2685 26.5181 -0.0047 1.7165 0.0045
# 3 12.8226 26.5181 71.4726 -0.0036 9.9219 0.0024
# 4 -0.0026 -0.0047 -0.0036 34.8294 0.0009 0.2985
# 5 10.4334 1.7165 9.9219 0.0009 28.9256 -0.0005
# 6 0.0025 0.0045 0.0024 0.2985 -0.0005 34.7697
#
#
#
# Elastic Compliance Matrix: (Units=1/GPa)
#
#
# Indices 1 2 3 4 5 6 
#
# 1 0.027049 -0.009003 -0.000244 0.000001 -0.009139 -0.000001
# 2 -0.009003 0.013068 -0.003755 0.000001 0.003760 -0.000001
# 3 -0.000244 -0.003755 0.016155 0.000001 -0.005230 -0.000001
# 4 0.000001 0.000001 0.000001 0.028713 -0.000002 -0.000247
# 5 -0.009139 0.003760 -0.005230 -0.000002 0.039439 0.000001
# 6 -0.000001 -0.000001 -0.000001 -0.000247 0.000001 0.028763
#
#
# Mechanical properties :
#
#
# Convention : Reuss Voigt Hill
#
# Bulk Modulus (GPa) = 33.03922 42.97664 38.00793
# Shear Modulus (GPa) = 26.41579 30.18496 28.30038
#
# Velocity S-wave (km/s) = 3.47162 3.71104 3.59333
# Velocity P-wave (km/s) = 5.58065 6.16202 5.87853
#
# Compressibility (1/GPa) = 0.03026706
#
# Stress axis : x y z
#
# Youngs Moduli (GPa) = 36.96997 76.52079 61.90216
#
# Poissons Ratio (x) = 0.68894 0.01508
# Poissons Ratio (y) = 0.33285 0.23247
# Poissons Ratio (z) = 0.00901 0.28737
#
# Static dielectric constant tensor:
#      x y z
#    x 1.646690 -0.000010 0.080500 
#    y -0.000010 1.834300 0.000010 
#    z 0.080500 0.000010 1.807340 
# 
# From -- ./inp_files/302061.got.cif
#   From: 2010.05.17/outbox.cif.g08.bks.cpg/sg15_152_cif.got.tgz:302061.got - 2010.06.03 18:47:42.
