data_PCOD9297339
_publ_section_title
;
Structure prediction by ZEFSAII (Michael W. Deem and Ramdas Pophale) SiO2 
 PCOD9297339
Probable space group: C 2/C
;
_chemical_formula_sum "Si O2"
_cell_formula_units_Z 48
_cell_length_a 14.134064
_cell_length_b 12.424676
_cell_length_c 17.528016
_cell_angle_alpha 90.000000
_cell_angle_beta 143.882864
_cell_angle_gamma 90.000000
_cell_volume 1814.358092
_symmetry_space_group_name_H-M "C 2/C"
_symmetry_group_IT_number 15
_symmetry_cell_setting 'monoclinic'
loop_
_space_group_symop_operation_xyz
x,y,z
-x,y,1/2-z
-x,-y,-z
x,-y,1/2+z
1/2+x,1/2+y,z
1/2-x,1/2+y,1/2-z
1/2-x,1/2-y,-z
1/2+x,1/2-y,1/2+z
loop_
_atom_site_type_symbol
_atom_site_label
_atom_site_fract_x
_atom_site_fract_y
_atom_site_fract_z
Si Si1 0.437515 0.180610 0.435978
Si Si2 0.398736 0.604437 0.830757
Si Si3 0.000000 0.021432 0.750000
Si Si4 0.278669 0.699289 0.433855
Si Si5 0.305689 0.325739 0.582844
Si Si6 0.000000 0.651486 0.750000
Si Si7 0.144438 0.531345 0.242702
O O1 0.350729 0.280358 0.334955
O O2 0.618387 0.224313 0.556349
O O3 0.328616 0.164256 0.438242
O O4 0.446448 0.075672 0.390059
O O5 0.392087 0.592233 0.735479
O O6 0.313656 0.506705 0.817531
O O7 0.588567 0.606803 0.967234
O O8 0.115782 0.943929 0.874345
O O9 0.250000 0.750000 0.500000
O O10 0.146926 0.632136 0.302325
O O11 0.500000 0.283887 0.750000
O O12 0.309969 0.186064 0.573186
O O13 0.072755 0.574457 0.733558
#
# Coordination Sequence:
#
# PCOD9297339 Si02
#       7
#     8   8   4   8   8   4   8
#     4  10  24  43  65  98 126 172 215 270 323 381
#     4  10  24  41  65  95 129 173 217 260 334 382
#     4  11  24  41  68  94 134 171 214 273 326 388
#     4  10  24  39  66  98 128 167 216 268 325 377
#     4  11  25  43  64  97 133 166 218 269 324 392
#     4  11  24  41  68  98 122 177 216 269 326 382
#     4  12  22  44  68  91 135 169 219 269 324 393
#
# _framework density 26.455638
#
# number of rings (size 3 to 8) (size 9 to 14) (size 15 to 20)
#    1.000    0.333    3.333    1.500    7.000    0.000 
#    0.000    0.833    0.000    0.000    0.000    0.000 
#    0.000    0.000    0.000    0.000    0.000    0.000 
#
# Total GULP energy -133773.388043 kJ/mol
# GULP energy per Si atom -5573.891168 kJ/mol
# Density = 2.639542 g / cm^3
# Si number density = 26.455638 Si / 1000 Ang^3
#
#
#
# Elastic Constant Matrix: (Units=GPa)
#
#
# Indices 1 2 3 4 5 6 
#
# 1 185.9844 72.1828 37.4426 0.0000 1.8753 0.0000
# 2 72.1828 102.4230 36.1770 -0.0001 -8.7422 0.0000
# 3 37.4426 36.1770 95.2230 -0.0002 -0.4616 -0.0001
# 4 0.0000 -0.0001 -0.0002 17.2421 -0.0001 1.1839
# 5 1.8753 -8.7422 -0.4616 -0.0001 35.0705 0.0000
# 6 0.0000 0.0000 -0.0001 1.1839 0.0000 63.0884
#
#
#
# Elastic Compliance Matrix: (Units=1/GPa)
#
#
# Indices 1 2 3 4 5 6 
#
# 1 0.007595 -0.005128 -0.001046 0.000000 -0.001698 0.000000
# 2 -0.005128 0.015011 -0.003668 0.000000 0.003968 0.000000
# 3 -0.001046 -0.003668 0.012303 0.000000 -0.000696 0.000000
# 4 0.000000 0.000000 0.000000 0.058072 0.000000 -0.001090
# 5 -0.001698 0.003968 -0.000696 0.000000 0.029585 0.000000
# 6 0.000000 0.000000 0.000000 -0.001090 0.000000 0.015871
#
#
# Mechanical properties :
#
#
# Convention : Reuss Voigt Hill
#
# Bulk Modulus (GPa) = 65.67840 75.02616 70.35228
# Shear Modulus (GPa) = 30.63800 38.93541 34.78671
#
# Velocity S-wave (km/s) = 3.40676 3.84047 3.63010
# Velocity P-wave (km/s) = 6.35252 6.93444 6.64984
#
# Compressibility (1/GPa) = 0.01522571
#
# Stress axis : x y z
#
# Youngs Moduli (GPa) = 131.67048 66.61642 81.28011
#
# Poissons Ratio (x) = 0.34159 0.08505
# Poissons Ratio (y) = 0.67517 0.29810
# Poissons Ratio (z) = 0.13778 0.24432
#
# Static dielectric constant tensor:
#      x y z
#    x 2.002600 0.000000 0.087680 
#    y 0.000000 1.960060 0.000000 
#    z 0.087680 0.000000 3.065670 
# 
# From -- ./inp_files/243490.got.cif
#   From: 2010.05.17/outbox.cif.g08.bks.cpg/sg15_122_cif.got.tgz:243490.got - 2010.06.03 18:47:42.
