data_PCOD9297043
_publ_section_title
;
Structure prediction by ZEFSAII (Michael W. Deem and Ramdas Pophale) SiO2 
 PCOD9297043
Probable space group: C 2/C
;
_chemical_formula_sum "Si O2"
_cell_formula_units_Z 52
_cell_length_a 28.205287
_cell_length_b 11.290400
_cell_length_c 7.913201
_cell_angle_alpha 90.000000
_cell_angle_beta 62.617723
_cell_angle_gamma 90.000000
_cell_volume 2237.609636
_symmetry_space_group_name_H-M "C 2/C"
_symmetry_group_IT_number 15
_symmetry_cell_setting 'monoclinic'
loop_
_space_group_symop_operation_xyz
x,y,z
-x,y,1/2-z
-x,-y,-z
x,-y,1/2+z
1/2+x,1/2+y,z
1/2-x,1/2+y,1/2-z
1/2-x,1/2-y,-z
1/2+x,1/2-y,1/2+z
loop_
_atom_site_type_symbol
_atom_site_label
_atom_site_fract_x
_atom_site_fract_y
_atom_site_fract_z
Si Si1 0.596135 0.866038 0.999007
Si Si2 0.887670 0.370709 0.135543
Si Si3 0.676652 0.685745 0.763908
Si Si4 0.652976 0.463725 0.970223
Si Si5 0.000000 0.803028 0.750000
Si Si6 0.720427 0.259652 0.727759
Si Si7 0.956250 0.140968 0.968329
O O1 0.617591 0.867507 0.154224
O O2 0.543781 0.784684 0.095522
O O3 0.638625 0.798404 0.814369
O O4 0.591481 0.000781 0.950283
O O5 0.829445 0.329842 0.168208
O O6 0.930498 0.272510 0.010724
O O7 0.661978 0.603489 0.949452
O O8 0.662407 0.599465 0.633517
O O9 0.736133 0.728508 0.701566
O O10 0.696287 0.390937 0.788941
O O11 0.593883 0.441162 0.995457
O O12 0.977417 0.875557 0.626149
O O13 0.750000 0.250000 0.500000
O O14 0.000000 0.132903 0.750000
#
# Coordination Sequence:
#
# PCOD9297043 Si02
#       7
#     8   8   8   8   4   8   8
#     4  11  25  43  68 107 137 188 233 291 359 424
#     4  10  25  40  71 101 145 176 235 294 353 422
#     4  12  26  45  73 100 148 187 237 288 356 423
#     4  11  27  46  71 104 141 188 238 296 349 426
#     4  10  24  42  74 100 142 182 242 292 362 422
#     4  11  23  46  70 102 139 186 233 289 352 420
#     4  10  23  47  72 103 139 189 244 301 360 423
#
# _framework density 23.239083999999998
#
# number of rings (size 3 to 8) (size 9 to 14) (size 15 to 20)
#    0.000    1.231    1.538    2.308   14.000    2.462 
#    1.385    1.538    0.000    0.000    0.000    0.000 
#    0.000    0.000    0.000    0.000    0.000    0.000 
#
# Total GULP energy -145568.917457 kJ/mol
# GULP energy per Si atom -5598.804518 kJ/mol
# Density = 2.318619 g / cm^3
# Si number density = 23.239084 Si / 1000 Ang^3
#
#
#
# Elastic Constant Matrix: (Units=GPa)
#
#
# Indices 1 2 3 4 5 6 
#
# 1 149.6792 19.5062 48.5694 0.0000 -3.2109 0.0000
# 2 19.5062 92.6263 30.6089 0.0000 1.1086 0.0000
# 3 48.5694 30.6089 104.5566 0.0000 -0.2375 0.0000
# 4 0.0000 0.0000 0.0000 22.0462 0.0000 2.5144
# 5 -3.2109 1.1086 -0.2375 0.0000 20.9293 0.0000
# 6 0.0000 0.0000 0.0000 2.5144 0.0000 12.0191
#
#
#
# Elastic Compliance Matrix: (Units=1/GPa)
#
#
# Indices 1 2 3 4 5 6 
#
# 1 0.007918 -0.000517 -0.003524 0.000000 0.001202 0.000000
# 2 -0.000517 0.011996 -0.003273 0.000000 -0.000752 0.000000
# 3 -0.003524 -0.003273 0.012159 0.000000 -0.000229 0.000000
# 4 0.000000 0.000000 0.000000 0.046468 0.000000 -0.009721
# 5 0.001202 -0.000752 -0.000229 0.000000 0.048002 0.000000
# 6 0.000000 0.000000 0.000000 -0.009721 0.000000 0.085234
#
#
# Mechanical properties :
#
#
# Convention : Reuss Voigt Hill
#
# Bulk Modulus (GPa) = 57.32761 60.47013 58.89887
# Shear Modulus (GPa) = 21.53140 27.54409 24.53774
#
# Velocity S-wave (km/s) = 3.04718 3.44648 3.25296
# Velocity P-wave (km/s) = 6.09119 6.47418 6.28560
#
# Compressibility (1/GPa) = 0.01744360
#
# Stress axis : x y z
#
# Youngs Moduli (GPa) = 126.30118 83.36366 82.24522
#
# Poissons Ratio (x) = 0.04312 0.28981
# Poissons Ratio (y) = 0.06534 0.26920
# Poissons Ratio (z) = 0.44506 0.27286
#
# Static dielectric constant tensor:
#      x y z
#    x 1.872660 0.000000 0.036960 
#    y 0.000000 1.821050 0.000000 
#    z 0.036960 0.000000 1.926160 
# 
# From -- ./inp_files/65123.got.cif
#   From: 2010.05.17/outbox.cif.g08.bks.cpg/sg15_33_cif.got.tgz:65123.got - 2010.06.03 18:47:42.
