data_PCOD9297938
_publ_section_title
;
Structure prediction by ZEFSAII (Michael W. Deem and Ramdas Pophale) SiO2 
 PCOD9297938
Probable space group: C 2/C
;
_chemical_formula_sum "Si O2"
_cell_formula_units_Z 44
_cell_length_a 19.604436
_cell_length_b 13.735730
_cell_length_c 14.520282
_cell_angle_alpha 90.000000
_cell_angle_beta 26.899233
_cell_angle_gamma 90.000000
_cell_volume 1768.990923
_symmetry_space_group_name_H-M "C 2/C"
_symmetry_group_IT_number 15
_symmetry_cell_setting 'monoclinic'
loop_
_space_group_symop_operation_xyz
x,y,z
-x,y,1/2-z
-x,-y,-z
x,-y,1/2+z
1/2+x,1/2+y,z
1/2-x,1/2+y,1/2-z
1/2-x,1/2-y,-z
1/2+x,1/2-y,1/2+z
loop_
_atom_site_type_symbol
_atom_site_label
_atom_site_fract_x
_atom_site_fract_y
_atom_site_fract_z
Si Si1 0.500000 0.244564 0.250000
Si Si2 0.146875 0.629683 0.701717
Si Si3 0.313922 0.177031 0.305110
Si Si4 0.377311 0.350338 0.780023
Si Si5 0.833433 0.440451 0.602015
Si Si6 0.816041 0.870085 0.182234
O O1 0.430154 0.181267 0.250252
O O2 0.358165 0.309718 0.453474
O O3 0.293831 0.600989 0.466794
O O4 0.097524 0.737073 0.727000
O O5 0.189204 0.642836 0.757104
O O6 0.004600 0.560617 0.863359
O O7 0.328304 0.088557 0.215977
O O8 0.343620 0.275659 0.210370
O O9 0.255121 0.357051 0.845890
O O10 0.530446 0.393495 0.556698
O O11 0.743684 0.538407 0.689053
#
# Coordination Sequence:
#
# PCOD9297938 Si02
#       6
#     4   8   8   8   8   8
#     4  10  24  42  72  94 130 192 228 286 336 390
#     4  11  22  42  70 102 138 178 224 288 350 411
#     4  11  22  46  67  98 140 176 237 282 340 415
#     4  11  22  42  70 102 138 178 224 288 350 411
#     4  12  24  43  71 101 140 183 229 282 351 411
#     4  12  24  43  71 101 140 183 229 282 351 411
#
# _framework density 24.872937
#
# number of rings (size 3 to 8) (size 9 to 14) (size 15 to 20)
#    0.000    0.727    3.636    4.364    0.000    2.909 
#   13.091    0.000    0.000    0.000    0.000    0.000 
#    0.000    0.000    0.000    0.000    0.000    0.000 
#
# Total GULP energy -123269.549554 kJ/mol
# GULP energy per Si atom -5603.161343 kJ/mol
# Density = 2.481633 g / cm^3
# Si number density = 24.872937 Si / 1000 Ang^3
#
#
#
# Elastic Constant Matrix: (Units=GPa)
#
#
# Indices 1 2 3 4 5 6 
#
# 1 125.7986 2.0244 15.5932 0.0000 -14.8602 0.0000
# 2 2.0244 74.0495 22.5216 0.0000 -2.6342 0.0000
# 3 15.5932 22.5216 156.2153 0.0000 -0.5083 0.0000
# 4 0.0000 0.0000 0.0000 21.1940 0.0000 -0.1713
# 5 -14.8602 -2.6342 -0.5083 0.0000 37.0880 0.0000
# 6 0.0000 0.0000 0.0000 -0.1713 0.0000 16.0209
#
#
#
# Elastic Compliance Matrix: (Units=1/GPa)
#
#
# Indices 1 2 3 4 5 6 
#
# 1 0.008453 0.000149 -0.000854 0.000000 0.003386 0.000000
# 2 0.000149 0.014162 -0.002053 0.000000 0.001037 0.000000
# 3 -0.000854 -0.002053 0.006781 0.000000 -0.000395 0.000000
# 4 0.000000 0.000000 0.000000 0.047187 0.000000 0.000505
# 5 0.003386 0.001037 -0.000395 0.000000 0.028388 0.000000
# 6 0.000000 0.000000 0.000000 0.000505 0.000000 0.062424
#
#
# Mechanical properties :
#
#
# Convention : Reuss Voigt Hill
#
# Bulk Modulus (GPa) = 41.87732 48.48243 45.17988
# Shear Modulus (GPa) = 27.64406 35.92222 31.78314
#
# Velocity S-wave (km/s) = 3.33740 3.80442 3.57854
# Velocity P-wave (km/s) = 5.63241 6.23158 5.93955
#
# Compressibility (1/GPa) = 0.02387927
#
# Stress axis : x y z
#
# Youngs Moduli (GPa) = 118.30637 70.61254 147.46181
#
# Poissons Ratio (x) = -0.01053 0.12596
# Poissons Ratio (y) = -0.01765 0.30277
# Poissons Ratio (z) = 0.10106 0.14498
#
# Static dielectric constant tensor:
#      x y z
#    x 1.978980 0.000000 0.035160 
#    y 0.000000 1.973350 0.000000 
#    z 0.035160 0.000000 1.955820 
# 
# From -- ./inp_files/219657.got.cif
#   From: 2010.05.17/outbox.cif.g08.bks.cpg/sg15_110_cif.got.tgz:219657.got - 2010.06.03 18:47:42.
