data_PCOD9297820
_publ_section_title
;
Structure prediction by ZEFSAII (Michael W. Deem and Ramdas Pophale) SiO2 
 PCOD9297820
Probable space group: C 2/C
;
_chemical_formula_sum "Si O2"
_cell_formula_units_Z 28
_cell_length_a 7.991688
_cell_length_b 7.041987
_cell_length_c 18.845158
_cell_angle_alpha 90.000000
_cell_angle_beta 74.867418
_cell_angle_gamma 90.000000
_cell_volume 1023.780321
_symmetry_space_group_name_H-M "C 2/C"
_symmetry_group_IT_number 15
_symmetry_cell_setting 'monoclinic'
loop_
_space_group_symop_operation_xyz
x,y,z
-x,y,1/2-z
-x,-y,-z
x,-y,1/2+z
1/2+x,1/2+y,z
1/2-x,1/2+y,1/2-z
1/2-x,1/2-y,-z
1/2+x,1/2-y,1/2+z
loop_
_atom_site_type_symbol
_atom_site_label
_atom_site_fract_x
_atom_site_fract_y
_atom_site_fract_z
Si Si1 0.683884 0.909366 0.687983
Si Si2 0.142655 0.288368 0.092802
Si Si3 0.000000 0.900446 0.750000
Si Si4 0.218273 0.622237 0.934992
O O1 0.500000 0.915664 0.750000
O O2 0.681299 0.707048 0.645387
O O3 0.823813 0.971147 0.731565
O O4 0.748048 0.035502 0.612321
O O5 0.067043 0.224483 0.177294
O O6 0.980957 0.362633 0.066220
O O7 0.227946 0.095837 0.055536
O O8 0.250000 0.750000 0.000000
#
# Coordination Sequence:
#
# PCOD9297820 Si02
#       4
#     8   8   4   8
#     4  11  25  46  74 109 149 197 256 326 392 468
#     4  11  24  45  72 109 146 199 259 311 396 466
#     4  10  24  42  68 110 144 184 250 318 386 450
#     4  11  27  47  72 109 155 202 259 322 392 479
#
# _framework density 27.349619000000001
#
# number of rings (size 3 to 8) (size 9 to 14) (size 15 to 20)
#    0.000    1.143    1.429    2.571    6.000    9.143 
#    0.000    0.000    0.000    5.143    0.000    0.000 
#    0.000    0.000    0.000    0.000    0.000    0.000 
#
# Total GULP energy -78186.866653 kJ/mol
# GULP energy per Si atom -5584.776190 kJ/mol
# Density = 2.728737 g / cm^3
# Si number density = 27.349619 Si / 1000 Ang^3
#
#
#
# Elastic Constant Matrix: (Units=GPa)
#
#
# Indices 1 2 3 4 5 6 
#
# 1 161.1426 30.5271 61.2189 0.0000 34.9198 0.0000
# 2 30.5271 153.1218 34.1929 0.0000 21.7779 0.0000
# 3 61.2189 34.1929 137.7067 0.0000 30.8377 0.0000
# 4 0.0000 0.0000 0.0000 78.5845 0.0000 3.2228
# 5 34.9198 21.7779 30.8377 0.0000 77.6636 0.0000
# 6 0.0000 0.0000 0.0000 3.2228 0.0000 33.1316
#
#
#
# Elastic Compliance Matrix: (Units=1/GPa)
#
#
# Indices 1 2 3 4 5 6 
#
# 1 0.007893 -0.000617 -0.002853 0.000000 -0.002243 0.000000
# 2 -0.000617 0.007100 -0.001213 0.000000 -0.001232 0.000000
# 3 -0.002853 -0.001213 0.009294 0.000000 -0.002068 0.000000
# 4 0.000000 0.000000 0.000000 0.012776 0.000000 -0.001243
# 5 -0.002243 -0.001232 -0.002068 0.000000 0.015051 0.000000
# 6 0.000000 0.000000 0.000000 -0.001243 0.000000 0.030304
#
#
# Mechanical properties :
#
#
# Convention : Reuss Voigt Hill
#
# Bulk Modulus (GPa) = 67.02256 78.20544 72.61400
# Shear Modulus (GPa) = 51.67581 59.61140 55.64360
#
# Velocity S-wave (km/s) = 4.35150 4.67369 4.51547
# Velocity P-wave (km/s) = 7.05737 7.60140 7.33443
#
# Compressibility (1/GPa) = 0.01492035
#
# Stress axis : x y z
#
# Youngs Moduli (GPa) = 126.70121 140.84889 107.59253
#
# Poissons Ratio (x) = 0.08696 0.30698
# Poissons Ratio (y) = 0.07822 0.13047
# Poissons Ratio (z) = 0.36150 0.17079
#
# Static dielectric constant tensor:
#      x y z
#    x 2.394120 0.000000 0.146320 
#    y 0.000000 2.760950 0.000000 
#    z 0.146320 0.000000 1.868800 
# 
# From -- ./inp_files/187148.got.cif
#   From: 2010.05.17/outbox.cif.g08.bks.cpg/sg15_94_cif.got.tgz:187148.got - 2010.06.03 18:47:42.
