data_PCOD9297941
_publ_section_title
;
Structure prediction by ZEFSAII (Michael W. Deem and Ramdas Pophale) SiO2 
 PCOD9297941
Probable space group: C 2/C
;
_chemical_formula_sum "Si O2"
_cell_formula_units_Z 44
_cell_length_a 20.878859
_cell_length_b 13.338340
_cell_length_c 8.490094
_cell_angle_alpha 90.000000
_cell_angle_beta 128.672275
_cell_angle_gamma 90.000000
_cell_volume 1845.965184
_symmetry_space_group_name_H-M "C 2/C"
_symmetry_group_IT_number 15
_symmetry_cell_setting 'monoclinic'
loop_
_space_group_symop_operation_xyz
x,y,z
-x,y,1/2-z
-x,-y,-z
x,-y,1/2+z
1/2+x,1/2+y,z
1/2-x,1/2+y,1/2-z
1/2-x,1/2-y,-z
1/2+x,1/2-y,1/2+z
loop_
_atom_site_type_symbol
_atom_site_label
_atom_site_fract_x
_atom_site_fract_y
_atom_site_fract_z
Si Si1 0.500000 0.527865 0.250000
Si Si2 0.751376 0.093952 0.572758
Si Si3 0.077390 0.565350 0.467448
Si Si4 0.119981 0.085224 0.170546
Si Si5 0.241103 0.295661 0.736107
Si Si6 0.081105 0.644904 0.828728
O O1 0.558923 0.589427 0.224241
O O2 0.562054 0.457014 0.443455
O O3 0.661450 0.083340 0.505717
O O4 0.781648 0.192349 0.712162
O O5 0.742695 0.120881 0.376586
O O6 0.809921 0.998800 0.686819
O O7 0.080800 0.603091 0.650646
O O8 0.071514 0.445350 0.442615
O O9 0.000000 0.607484 0.250000
O O10 0.168801 0.186121 0.200080
O O11 0.170206 0.312383 0.501847
O O12 0.000000 0.707442 0.750000
#
# Coordination Sequence:
#
# PCOD9297941 Si02
#       6
#     4   8   8   8   8   8
#     4  10  24  42  72  96 132 184 234 288 350 396
#     4  11  24  43  69 100 137 181 228 289 352 420
#     4  11  22  39  65  97 132 175 223 278 345 414
#     4  11  22  46  69 100 134 182 234 292 343 421
#     4  11  24  43  69 100 138 181 231 284 357 413
#     4  11  22  39  65  96 133 174 225 277 343 417
#
# _framework density 23.83577
#
# number of rings (size 3 to 8) (size 9 to 14) (size 15 to 20)
#    0.000    1.091    3.636    4.364    2.545    0.727 
#    3.273    1.818    0.000    0.000    0.000    0.000 
#    0.000    0.000    0.000    0.000    0.000    0.000 
#
# Total GULP energy -123059.171743 kJ/mol
# GULP energy per Si atom -5593.598716 kJ/mol
# Density = 2.378152 g / cm^3
# Si number density = 23.835770 Si / 1000 Ang^3
#
#
#
# Elastic Constant Matrix: (Units=GPa)
#
#
# Indices 1 2 3 4 5 6 
#
# 1 175.7422 11.9643 57.4994 0.0000 -5.4816 0.0000
# 2 11.9643 47.2872 23.0099 0.0000 -16.2964 0.0000
# 3 57.4994 23.0099 155.2345 0.0000 -3.2017 0.0000
# 4 0.0000 0.0000 0.0000 12.1917 0.0000 -2.3678
# 5 -5.4816 -16.2964 -3.2017 0.0000 39.3963 0.0000
# 6 0.0000 0.0000 0.0000 -2.3678 0.0000 29.3419
#
#
#
# Elastic Compliance Matrix: (Units=1/GPa)
#
#
# Indices 1 2 3 4 5 6 
#
# 1 0.006498 -0.000297 -0.002351 0.000000 0.000590 0.000000
# 2 -0.000297 0.026672 -0.003623 0.000000 0.010697 0.000000
# 3 -0.002351 -0.003623 0.007825 0.000000 -0.001190 0.000000
# 4 0.000000 0.000000 0.000000 0.083329 0.000000 0.006724
# 5 0.000590 0.010697 -0.001190 0.000000 0.029793 0.000000
# 6 0.000000 0.000000 0.000000 0.006724 0.000000 0.034624
#
#
# Mechanical properties :
#
#
# Convention : Reuss Voigt Hill
#
# Bulk Modulus (GPa) = 35.14435 62.57902 48.86169
# Shear Modulus (GPa) = 23.72294 35.23866 29.48080
#
# Velocity S-wave (km/s) = 3.15821 3.84916 3.52068
# Velocity P-wave (km/s) = 5.29862 6.78719 6.08857
#
# Compressibility (1/GPa) = 0.02845408
#
# Stress axis : x y z
#
# Youngs Moduli (GPa) = 153.89675 37.49259 127.79495
#
# Poissons Ratio (x) = 0.01113 0.30040
# Poissons Ratio (y) = 0.04567 0.46299
# Poissons Ratio (z) = 0.36176 0.13583
#
# Static dielectric constant tensor:
#      x y z
#    x 2.017980 0.000000 0.078960 
#    y 0.000000 2.005940 0.000000 
#    z 0.078960 0.000000 1.918070 
# 
# From -- ./inp_files/56287.got.cif
#   From: 2010.05.17/outbox.cif.g08.bks.cpg/sg15_29_cif.got.tgz:56287.got - 2010.06.03 18:47:42.
