data_PCOD9297959
_publ_section_title
;
Structure prediction by ZEFSAII (Michael W. Deem and Ramdas Pophale) SiO2 
 PCOD9297959
Probable space group: C 2/C
;
_chemical_formula_sum "Si O2"
_cell_formula_units_Z 44
_cell_length_a 15.598130
_cell_length_b 17.286856
_cell_length_c 8.062676
_cell_angle_alpha 90.000000
_cell_angle_beta 58.501815
_cell_angle_gamma 90.000000
_cell_volume 1853.710777
_symmetry_space_group_name_H-M "C 2/C"
_symmetry_group_IT_number 15
_symmetry_cell_setting 'monoclinic'
loop_
_space_group_symop_operation_xyz
x,y,z
-x,y,1/2-z
-x,-y,-z
x,-y,1/2+z
1/2+x,1/2+y,z
1/2-x,1/2+y,1/2-z
1/2-x,1/2-y,-z
1/2+x,1/2-y,1/2+z
loop_
_atom_site_type_symbol
_atom_site_label
_atom_site_fract_x
_atom_site_fract_y
_atom_site_fract_z
Si Si1 0.000000 0.048538 0.750000
Si Si2 0.319468 0.948211 0.080019
Si Si3 0.800553 0.385924 0.732624
Si Si4 0.346486 0.288111 0.813371
Si Si5 0.115145 0.911337 0.456028
Si Si6 0.986862 0.352934 0.077190
O O1 0.080274 0.990196 0.582901
O O2 0.051223 0.094054 0.850270
O O3 0.231429 0.916485 0.287405
O O4 0.425905 0.914925 0.031767
O O5 0.312760 0.040284 0.100180
O O6 0.298327 0.918131 0.918829
O O7 0.701244 0.340427 0.782762
O O8 0.902711 0.337054 0.606102
O O9 0.419737 0.223524 0.666993
O O10 0.250000 0.250000 0.000000
O O11 0.395558 0.342631 0.902644
O O12 0.000000 0.384181 0.250000
#
# Coordination Sequence:
#
# PCOD9297959 Si02
#       6
#     4   8   8   8   8   8
#     4  10  24  42  74 110 142 190 258 300 360 438
#     4  12  25  48  77 110 148 185 252 315 360 433
#     4  12  26  46  79 111 146 194 246 306 369 432
#     4  12  25  48  71 101 151 195 240 296 371 441
#     4  11  23  45  71 108 147 194 245 305 369 429
#     4  12  25  47  73 105 146 195 244 296 371 436
#
# _framework density 23.736173000000001
#
# number of rings (size 3 to 8) (size 9 to 14) (size 15 to 20)
#    0.000    0.364    3.636    5.455    1.273    2.182 
#    0.000    0.000    0.000    0.000    0.000    0.000 
#    0.000    0.000    0.000    0.000    0.000    0.000 
#
# Total GULP energy -123418.606704 kJ/mol
# GULP energy per Si atom -5609.936668 kJ/mol
# Density = 2.368215 g / cm^3
# Si number density = 23.736173 Si / 1000 Ang^3
#
#
#
# Elastic Constant Matrix: (Units=GPa)
#
#
# Indices 1 2 3 4 5 6 
#
# 1 119.5892 32.9542 45.3580 0.0000 22.6977 0.0000
# 2 32.9542 72.1101 23.6564 0.0000 0.3172 0.0000
# 3 45.3580 23.6564 107.4638 0.0000 -1.3308 0.0000
# 4 0.0000 0.0000 0.0000 19.9349 0.0000 -9.1682
# 5 22.6977 0.3172 -1.3308 0.0000 50.6349 0.0000
# 6 0.0000 0.0000 0.0000 -9.1682 0.0000 34.0468
#
#
#
# Elastic Compliance Matrix: (Units=1/GPa)
#
#
# Indices 1 2 3 4 5 6 
#
# 1 0.012186 -0.004133 -0.004302 0.000000 -0.005550 0.000000
# 2 -0.004133 0.016351 -0.001834 0.000000 0.001702 0.000000
# 3 -0.004302 -0.001834 0.011553 0.000000 0.002244 0.000000
# 4 0.000000 0.000000 0.000000 0.057254 0.000000 0.015417
# 5 -0.005550 0.001702 0.002244 0.000000 0.022285 0.000000
# 6 0.000000 0.000000 0.000000 0.015417 0.000000 0.033523
#
#
# Mechanical properties :
#
#
# Convention : Reuss Voigt Hill
#
# Bulk Modulus (GPa) = 51.14819 55.90002 53.52411
# Shear Modulus (GPa) = 27.74587 34.06960 30.90774
#
# Velocity S-wave (km/s) = 3.42267 3.79271 3.61243
# Velocity P-wave (km/s) = 6.10041 6.54073 6.32440
#
# Compressibility (1/GPa) = 0.01955103
#
# Stress axis : x y z
#
# Youngs Moduli (GPa) = 82.06137 61.15980 86.55903
#
# Poissons Ratio (x) = 0.25278 0.37240
# Poissons Ratio (y) = 0.33917 0.15873
# Poissons Ratio (z) = 0.35305 0.11215
#
# Static dielectric constant tensor:
#      x y z
#    x 1.909910 0.000000 -0.028950 
#    y 0.000000 1.906780 0.000000 
#    z -0.028950 0.000000 1.886320 
# 
# From -- ./inp_files/39534.got.cif
#   From: 2010.05.17/outbox.cif.g08.bks.cpg/sg15_20_cif.got.tgz:39534.got - 2010.06.03 18:47:42.
