data_PCOD9297796
_publ_section_title
;
Structure prediction by ZEFSAII (Michael W. Deem and Ramdas Pophale) SiO2 
 PCOD9297796
Probable space group: C 2/C
;
_chemical_formula_sum "Si O2"
_cell_formula_units_Z 44
_cell_length_a 19.401105
_cell_length_b 15.846476
_cell_length_c 10.062876
_cell_angle_alpha 90.000000
_cell_angle_beta 36.435863
_cell_angle_gamma 90.000000
_cell_volume 1837.431333
_symmetry_space_group_name_H-M "C 2/C"
_symmetry_group_IT_number 15
_symmetry_cell_setting 'monoclinic'
loop_
_space_group_symop_operation_xyz
x,y,z
-x,y,1/2-z
-x,-y,-z
x,-y,1/2+z
1/2+x,1/2+y,z
1/2-x,1/2+y,1/2-z
1/2-x,1/2-y,-z
1/2+x,1/2-y,1/2+z
loop_
_atom_site_type_symbol
_atom_site_label
_atom_site_fract_x
_atom_site_fract_y
_atom_site_fract_z
Si Si1 0.376223 0.782080 0.339992
Si Si2 0.500000 0.646016 0.250000
Si Si3 0.095014 0.289960 0.498312
Si Si4 0.000000 0.131946 0.750000
Si Si5 0.207482 0.464085 0.307018
Si Si6 0.000000 0.558821 0.750000
Si Si7 0.363852 0.506800 0.312882
O O1 0.250000 0.750000 0.500000
O O2 0.404113 0.718580 0.418271
O O3 0.404745 0.876637 0.337527
O O4 0.443104 0.776134 0.094994
O O5 0.446124 0.587057 0.220384
O O6 0.103433 0.193980 0.539331
O O7 0.190148 0.363382 0.348759
O O8 0.000000 0.323818 0.750000
O O9 0.055384 0.072477 0.775375
O O10 0.301095 0.496779 0.269998
O O11 0.080094 0.504047 0.527881
O O12 0.262393 0.486791 0.080596
#
# Coordination Sequence:
#
# PCOD9297796 Si02
#       7
#     8   4   8   4   8   4   8
#     4  11  24  44  69 101 137 184 234 283 352 425
#     4  10  24  46  70 100 136 182 234 290 334 428
#     4  10  24  42  67  97 142 174 227 293 350 408
#     4   9  25  45  65 104 132 186 227 303 343 417
#     4  12  25  45  66 104 138 186 233 288 352 424
#     4  11  25  39  71  94 136 184 225 287 337 425
#     4  11  27  42  74  99 140 183 237 286 355 418
#
# _framework density 23.946473999999998
#
# number of rings (size 3 to 8) (size 9 to 14) (size 15 to 20)
#    0.545    0.727    0.909    3.273   10.182    3.636 
#    0.000    0.000    0.000    0.000    0.000    0.000 
#    0.000    0.000    0.000    0.000    0.000    0.000 
#
# Total GULP energy -122538.188303 kJ/mol
# GULP energy per Si atom -5569.917650 kJ/mol
# Density = 2.389197 g / cm^3
# Si number density = 23.946474 Si / 1000 Ang^3
#
#
#
# Elastic Constant Matrix: (Units=GPa)
#
#
# Indices 1 2 3 4 5 6 
#
# 1 109.2128 41.1679 15.9685 0.0000 -6.2582 0.0000
# 2 41.1679 146.6164 36.8820 0.0000 -10.2200 0.0000
# 3 15.9685 36.8820 133.2388 0.0000 6.2345 0.0000
# 4 0.0000 0.0000 0.0000 13.4229 0.0000 -22.7593
# 5 -6.2582 -10.2200 6.2345 0.0000 42.3169 0.0000
# 6 0.0000 0.0000 0.0000 -22.7593 0.0000 45.6003
#
#
#
# Elastic Compliance Matrix: (Units=1/GPa)
#
#
# Indices 1 2 3 4 5 6 
#
# 1 0.010304 -0.002692 -0.000534 0.000000 0.000952 0.000000
# 2 -0.002692 0.008222 -0.002042 0.000000 0.001888 0.000000
# 3 -0.000534 -0.002042 0.008218 0.000000 -0.001783 0.000000
# 4 0.000000 0.000000 0.000000 0.484590 0.000000 0.241861
# 5 0.000952 0.001888 -0.001783 0.000000 0.024491 0.000000
# 6 0.000000 0.000000 0.000000 0.241861 0.000000 0.142644
#
#
# Mechanical properties :
#
#
# Convention : Reuss Voigt Hill
#
# Bulk Modulus (GPa) = 61.70074 64.12277 62.91175
# Shear Modulus (GPa) = 7.20039 39.93800 23.56920
#
# Velocity S-wave (km/s) = 1.73591 4.08830 3.14067
# Velocity P-wave (km/s) = 5.46259 7.00866 6.28336
#
# Compressibility (1/GPa) = 0.01620726
#
# Stress axis : x y z
#
# Youngs Moduli (GPa) = 97.04928 121.62928 121.68593
#
# Poissons Ratio (x) = 0.32749 0.06500
# Poissons Ratio (y) = 0.26130 0.24842
# Poissons Ratio (z) = 0.05184 0.24831
#
# Static dielectric constant tensor:
#      x y z
#    x 2.022860 0.000000 -0.126920 
#    y 0.000000 2.000860 0.000000 
#    z -0.126920 0.000000 1.999450 
# 
# From -- ./inp_files/96620.got.cif
#   From: 2010.05.17/outbox.cif.g08.bks.cpg/sg15_49_cif.got.tgz:96620.got - 2010.06.03 18:47:42.
