data_PCOD9297892
_publ_section_title
;
Structure prediction by ZEFSAII (Michael W. Deem and Ramdas Pophale) SiO2 
 PCOD9297892
Probable space group: C 2/C
;
_chemical_formula_sum "Si O2"
_cell_formula_units_Z 36
_cell_length_a 5.161381
_cell_length_b 22.188436
_cell_length_c 14.633510
_cell_angle_alpha 90.000000
_cell_angle_beta 103.102476
_cell_angle_gamma 90.000000
_cell_volume 1632.243665
_symmetry_space_group_name_H-M "C 2/C"
_symmetry_group_IT_number 15
_symmetry_cell_setting 'monoclinic'
loop_
_space_group_symop_operation_xyz
x,y,z
-x,y,1/2-z
-x,-y,-z
x,-y,1/2+z
1/2+x,1/2+y,z
1/2-x,1/2+y,1/2-z
1/2-x,1/2-y,-z
1/2+x,1/2-y,1/2+z
loop_
_atom_site_type_symbol
_atom_site_label
_atom_site_fract_x
_atom_site_fract_y
_atom_site_fract_z
Si Si1 0.200801 0.874243 0.187442
Si Si2 0.507489 0.707833 0.505789
Si Si3 0.142013 0.084833 0.079974
Si Si4 0.000000 0.480331 0.750000
Si Si5 0.814239 0.024529 0.598110
O O1 0.500000 0.871304 0.250000
O O2 0.000000 0.855151 0.250000
O O3 0.128597 0.830298 0.099517
O O4 0.086038 0.939941 0.147806
O O5 0.250000 0.750000 0.500000
O O6 0.426514 0.654682 0.429386
O O7 0.750000 0.750000 0.500000
O O8 0.299303 0.064142 0.181441
O O9 0.285448 0.064681 0.995666
O O10 0.886326 0.040912 0.064791
O O11 0.139934 0.515830 0.675492
#
# Coordination Sequence:
#
# PCOD9297892 Si02
#       5
#     8   8   8   4   8
#     4  11  24  44  72 107 139 188 246 295 361 447
#     4  11  26  51  73  99 143 194 248 307 360 420
#     4  10  24  44  70 106 146 194 237 296 371 435
#     4  12  22  42  70 116 152 182 244 294 378 452
#     4  10  24  42  70 109 151 188 227 300 374 444
#
# _framework density 22.055530000000001
#
# number of rings (size 3 to 8) (size 9 to 14) (size 15 to 20)
#    0.000    1.333    0.000    4.000    9.333    0.000 
#    6.000    0.000    0.000    0.000    0.000    0.000 
#    0.000    0.000    0.000    0.000    0.000    0.000 
#
# Total GULP energy -100498.513474 kJ/mol
# GULP energy per Si atom -5583.250749 kJ/mol
# Density = 2.200533 g / cm^3
# Si number density = 22.055530 Si / 1000 Ang^3
#
#
#
# Elastic Constant Matrix: (Units=GPa)
#
#
# Indices 1 2 3 4 5 6 
#
# 1 178.3264 72.3598 48.5473 0.0000 2.9975 0.0000
# 2 72.3598 171.1924 29.2490 0.0000 -11.1249 0.0000
# 3 48.5473 29.2490 108.2330 0.0000 -8.4785 0.0000
# 4 0.0000 0.0000 0.0000 30.5200 0.0000 -18.0523
# 5 2.9975 -11.1249 -8.4785 0.0000 44.3926 0.0000
# 6 0.0000 0.0000 0.0000 -18.0523 0.0000 -25.6214
#
#
#
# Elastic Compliance Matrix: (Units=1/GPa)
#
#
# Indices 1 2 3 4 5 6 
#
# 1 0.007533 -0.002827 -0.002751 0.000000 -0.001743 0.000000
# 2 -0.002827 0.007253 -0.000543 0.000000 0.001905 0.000000
# 3 -0.002751 -0.000543 0.010785 0.000000 0.002110 0.000000
# 4 0.000000 0.000000 0.000000 0.023127 0.000000 -0.016295
# 5 -0.001743 0.001905 0.002110 0.000000 0.023524 0.000000
# 6 0.000000 0.000000 0.000000 -0.016295 0.000000 -0.027549
#
#
# Mechanical properties :
#
#
# Convention : Reuss Voigt Hill
#
# Bulk Modulus (GPa) = 75.02582 84.22934 79.62758
# Shear Modulus (GPa) = 81.48636 30.36462 55.92549
#
# Velocity S-wave (km/s) = 6.08492 3.71446 5.04100
# Velocity P-wave (km/s) = 9.13558 7.52787 8.37042
#
# Compressibility (1/GPa) = 0.01332874
#
# Stress axis : x y z
#
# Youngs Moduli (GPa) = 132.74397 137.87508 92.71802
#
# Poissons Ratio (x) = 0.38982 0.25511
# Poissons Ratio (y) = 0.37531 0.05031
# Poissons Ratio (z) = 0.36524 0.07482
#
# Static dielectric constant tensor:
#      x y z
#    x 1.886170 0.000000 0.054620 
#    y 0.000000 1.838220 0.000000 
#    z 0.054620 0.000000 1.761090 
# 
# From -- ./inp_files/128782.got.cif
#   From: 2010.05.17/outbox.cif.g08.bks.cpg/sg15_65_cif.got.tgz:128782.got - 2010.06.03 18:47:42.
