data_PCOD9297999
_publ_section_title
;
Structure prediction by ZEFSAII (Michael W. Deem and Ramdas Pophale) SiO2 
 PCOD9297999
Probable space group: C 2/C
;
_chemical_formula_sum "Si O2"
_cell_formula_units_Z 40
_cell_length_a 26.574064
_cell_length_b 7.333122
_cell_length_c 10.748393
_cell_angle_alpha 90.000000
_cell_angle_beta 125.099112
_cell_angle_gamma 90.000000
_cell_volume 1713.672942
_symmetry_space_group_name_H-M "C 2/C"
_symmetry_group_IT_number 15
_symmetry_cell_setting 'monoclinic'
loop_
_space_group_symop_operation_xyz
x,y,z
-x,y,1/2-z
-x,-y,-z
x,-y,1/2+z
1/2+x,1/2+y,z
1/2-x,1/2+y,1/2-z
1/2-x,1/2-y,-z
1/2+x,1/2-y,1/2+z
loop_
_atom_site_type_symbol
_atom_site_label
_atom_site_fract_x
_atom_site_fract_y
_atom_site_fract_z
Si Si1 0.657526 0.029565 0.622576
Si Si2 0.403518 0.432823 0.805261
Si Si3 0.227518 0.846210 0.840015
Si Si4 0.087161 0.553610 0.778042
Si Si5 0.002826 0.240361 0.615291
O O1 0.692040 0.218628 0.692697
O O2 0.609051 0.023592 0.441369
O O3 0.712260 0.906836 0.646535
O O4 0.631518 0.996184 0.725194
O O5 0.330830 0.475344 0.708762
O O6 0.442276 0.617809 0.862919
O O7 0.411786 0.274897 0.710612
O O8 0.438983 0.311408 0.960456
O O9 0.250000 0.750000 0.000000
O O10 0.024139 0.450388 0.653997
O O11 0.000000 0.168228 0.750000
#
# Coordination Sequence:
#
# PCOD9297999 Si02
#       5
#     8   8   8   8   8
#     4  11  24  43  69 101 135 186 224 283 360 398
#     4  10  24  43  63  99 137 176 222 288 340 398
#     4  11  23  44  67 100 142 174 233 291 341 418
#     4  11  24  45  68 102 136 180 232 281 345 413
#     4  11  24  42  68  99 133 182 232 274 347 415
#
# _framework density 23.341676
#
# number of rings (size 3 to 8) (size 9 to 14) (size 15 to 20)
#    0.000    1.200    4.000    3.000    2.800    8.000 
#    0.000    0.000    0.000    0.000    0.000    0.000 
#    0.000    0.000    0.000    0.000    0.000    0.000 
#
# Total GULP energy -111393.520548 kJ/mol
# GULP energy per Si atom -5569.676027 kJ/mol
# Density = 2.328855 g / cm^3
# Si number density = 23.341676 Si / 1000 Ang^3
#
#
#
# Elastic Constant Matrix: (Units=GPa)
#
#
# Indices 1 2 3 4 5 6 
#
# 1 98.8057 -1.2304 8.2647 0.0000 23.5182 0.0000
# 2 -1.2304 39.2764 -16.8685 0.0000 5.6426 0.0000
# 3 8.2647 -16.8685 97.8052 0.0000 25.3002 0.0000
# 4 0.0000 0.0000 0.0000 -13.3705 0.0000 4.3613
# 5 23.5182 5.6426 25.3002 0.0000 40.9378 0.0000
# 6 0.0000 0.0000 0.0000 4.3613 0.0000 26.5727
#
#
#
# Elastic Compliance Matrix: (Units=1/GPa)
#
#
# Indices 1 2 3 4 5 6 
#
# 1 0.011943 0.002151 0.001444 0.000000 -0.008050 0.000000
# 2 0.002151 0.030277 0.007665 0.000000 -0.010146 0.000000
# 3 0.001444 0.007665 0.014179 0.000000 -0.010649 0.000000
# 4 0.000000 0.000000 0.000000 -0.070991 0.000000 0.011652
# 5 -0.008050 -0.010146 -0.010649 0.000000 0.037032 0.000000
# 6 0.000000 0.000000 0.000000 0.011652 0.000000 0.035720
#
#
# Mechanical properties :
#
#
# Convention : Reuss Voigt Hill
#
# Bulk Modulus (GPa) = 12.67126 24.02432 18.34779
# Shear Modulus (GPa) = 80.71400 27.20942 53.96171
#
# Velocity S-wave (km/s) = 5.88680 3.41794 4.81335
# Velocity P-wave (km/s) = 7.18653 5.08834 6.22646
#
# Compressibility (1/GPa) = 0.07891878
#
# Stress axis : x y z
#
# Youngs Moduli (GPa) = 83.73123 33.02795 70.52699
#
# Poissons Ratio (x) = -0.07104 -0.10185
# Poissons Ratio (y) = -0.18010 -0.54057
# Poissons Ratio (z) = -0.12092 -0.25315
#
# Static dielectric constant tensor:
#      x y z
#    x 2.185090 0.000000 0.062550 
#    y 0.000000 1.973680 0.000000 
#    z 0.062550 0.000000 1.917370 
# 
# From -- ./inp_files/121689.got.cif
#   From: 2010.05.17/outbox.cif.g08.bks.cpg/sg15_61_cif.got.tgz:121689.got - 2010.06.03 18:47:42.
