data_PCOD9297356
_publ_section_title
;
Structure prediction by ZEFSAII (Michael W. Deem and Ramdas Pophale) SiO2 
 PCOD9297356
Probable space group: C 2/C
;
_chemical_formula_sum "Si O2"
_cell_formula_units_Z 36
_cell_length_a 7.407128
_cell_length_b 11.729113
_cell_length_c 21.129564
_cell_angle_alpha 90.000000
_cell_angle_beta 111.205152
_cell_angle_gamma 90.000000
_cell_volume 1711.422266
_symmetry_space_group_name_H-M "C 2/C"
_symmetry_group_IT_number 15
_symmetry_cell_setting 'monoclinic'
loop_
_space_group_symop_operation_xyz
x,y,z
-x,y,1/2-z
-x,-y,-z
x,-y,1/2+z
1/2+x,1/2+y,z
1/2-x,1/2+y,1/2-z
1/2-x,1/2-y,-z
1/2+x,1/2-y,1/2+z
loop_
_atom_site_type_symbol
_atom_site_label
_atom_site_fract_x
_atom_site_fract_y
_atom_site_fract_z
Si Si1 0.756276 0.304070 0.352139
Si Si2 0.824022 0.085940 0.529439
Si Si3 0.433868 0.611582 0.121719
Si Si4 0.001486 0.313140 0.911212
Si Si5 0.000000 0.039768 0.750000
O O1 0.782587 0.385375 0.416661
O O2 0.573413 0.226132 0.351240
O O3 0.686686 0.380685 0.285514
O O4 0.937524 0.223477 0.367477
O O5 0.962730 0.197217 0.542778
O O6 0.658567 0.095792 0.456283
O O7 0.928357 0.967284 0.557839
O O8 0.517851 0.535731 0.189602
O O9 0.214931 0.645932 0.110557
#
# Coordination Sequence:
#
# PCOD9297356 Si02
#       5
#     8   8   8   8   4
#     4   9  21  40  55  82 114 146 187 233 272 331
#     4   8  19  40  54  90 121 129 185 243 263 344
#     4  11  21  37  61  79 110 159 181 223 292 323
#     4   9  19  40  58  86 118 138 183 236 276 336
#     4  10  24  40  50  84 118 136 206 240 246 336
#
# _framework density 21.035136999999999
#
# number of rings (size 3 to 8) (size 9 to 14) (size 15 to 20)
#    1.333    1.333    0.000    0.667    3.111    1.778 
#    8.000    2.222    0.000    0.000    0.000    0.000 
#    0.000    0.000    0.000    0.000    0.000    0.000 
#
# Total GULP energy -100314.149639 kJ/mol
# GULP energy per Si atom -5573.008313 kJ/mol
# Density = 2.098726 g / cm^3
# Si number density = 21.035137 Si / 1000 Ang^3
#
#
#
# Elastic Constant Matrix: (Units=GPa)
#
#
# Indices 1 2 3 4 5 6 
#
# 1 55.8404 31.9984 11.7191 0.0000 20.0693 0.0000
# 2 31.9984 76.7252 26.7262 0.0000 17.2888 0.0000
# 3 11.7191 26.7262 68.1533 0.0000 5.3944 0.0000
# 4 0.0000 0.0000 0.0000 40.8350 0.0000 7.3625
# 5 20.0693 17.2888 5.3944 0.0000 17.3222 0.0000
# 6 0.0000 0.0000 0.0000 7.3625 0.0000 35.7049
#
#
#
# Elastic Compliance Matrix: (Units=1/GPa)
#
#
# Indices 1 2 3 4 5 6 
#
# 1 0.033160 -0.006436 -0.000662 0.000000 -0.031790 0.000000
# 2 -0.006436 0.020254 -0.005973 0.000000 -0.010899 0.000000
# 3 -0.000662 -0.005973 0.017016 0.000000 0.001430 0.000000
# 4 0.000000 0.000000 0.000000 0.025434 0.000000 -0.005245
# 5 -0.031790 -0.010899 0.001430 0.000000 0.104993 0.000000
# 6 0.000000 0.000000 0.000000 -0.005245 0.000000 0.029089
#
#
# Mechanical properties :
#
#
# Convention : Reuss Voigt Hill
#
# Bulk Modulus (GPa) = 22.57941 37.95628 30.26785
# Shear Modulus (GPa) = 18.46031 27.45743 22.95887
#
# Velocity S-wave (km/s) = 2.96564 3.61683 3.30730
# Velocity P-wave (km/s) = 4.74174 5.96031 5.38560
#
# Compressibility (1/GPa) = 0.04428814
#
# Stress axis : x y z
#
# Youngs Moduli (GPa) = 30.15646 49.37277 58.76853
#
# Poissons Ratio (x) = 0.31775 0.03891
# Poissons Ratio (y) = 0.19408 0.35105
# Poissons Ratio (z) = 0.01997 0.29492
#
# Static dielectric constant tensor:
#      x y z
#    x 1.750080 0.000000 -0.043960 
#    y 0.000000 1.815040 0.000000 
#    z -0.043960 0.000000 1.779260 
# 
# From -- ./inp_files/229637.got.cif
#   From: 2010.05.17/outbox.cif.g08.bks.cpg/sg15_115_cif.got.tgz:229637.got - 2010.06.03 18:47:42.
