data_PCOD9297969
_publ_section_title
;
Structure prediction by ZEFSAII (Michael W. Deem and Ramdas Pophale) SiO2 
 PCOD9297969
Probable space group: C 2/C
;
_chemical_formula_sum "Si O2"
_cell_formula_units_Z 48
_cell_length_a 18.991427
_cell_length_b 5.773166
_cell_length_c 18.940530
_cell_angle_alpha 90.000000
_cell_angle_beta 110.584747
_cell_angle_gamma 90.000000
_cell_volume 1944.064557
_symmetry_space_group_name_H-M "C 2/C"
_symmetry_group_IT_number 15
_symmetry_cell_setting 'monoclinic'
loop_
_space_group_symop_operation_xyz
x,y,z
-x,y,1/2-z
-x,-y,-z
x,-y,1/2+z
1/2+x,1/2+y,z
1/2-x,1/2+y,1/2-z
1/2-x,1/2-y,-z
1/2+x,1/2-y,1/2+z
loop_
_atom_site_type_symbol
_atom_site_label
_atom_site_fract_x
_atom_site_fract_y
_atom_site_fract_z
Si Si1 0.824924 0.798109 0.571041
Si Si2 0.414244 0.975545 0.699643
Si Si3 0.828427 0.924861 0.211846
Si Si4 0.835367 0.306317 0.308435
Si Si5 0.969503 0.494463 0.410840
Si Si6 0.025774 0.004783 0.927014
O O1 0.750000 0.750000 0.500000
O O2 0.873344 0.574268 0.615202
O O3 0.884650 0.962861 0.550818
O O4 0.803272 0.912989 0.638020
O O5 0.500000 0.034155 0.750000
O O6 0.398581 0.705357 0.702488
O O7 0.363860 0.068361 0.747334
O O8 0.752057 0.797469 0.205910
O O9 0.854075 0.043656 0.293656
O O10 0.880117 0.454262 0.381670
O O11 0.000000 0.500000 0.500000
O O12 0.993246 0.242503 0.386935
O O13 0.997338 0.741795 0.389149
O O14 0.000000 0.000000 0.000000
#
# Coordination Sequence:
#
# PCOD9297969 Si02
#       6
#     8   8   8   8   8   8
#     4  11  28  48  75 117 158 206 270 338 421 485
#     4  11  26  48  76 112 154 203 265 336 406 488
#     4  11  26  46  76 109 155 208 264 335 404 499
#     4  11  24  46  73 105 152 202 264 319 404 482
#     4  10  24  42  75 110 147 198 263 326 390 467
#     4  10  24  46  71 112 150 203 258 321 402 480
#
# _framework density 24.690539999999999
#
# number of rings (size 3 to 8) (size 9 to 14) (size 15 to 20)
#    0.000    1.333    1.667    1.000   11.667    6.000 
#    0.000    0.000    0.000    0.000    0.000    0.000 
#    0.000    0.000    0.000    0.000    0.000    0.000 
#
# Total GULP energy -133669.178244 kJ/mol
# GULP energy per Si atom -5569.549094 kJ/mol
# Density = 2.463434 g / cm^3
# Si number density = 24.690540 Si / 1000 Ang^3
#
#
#
# Elastic Constant Matrix: (Units=GPa)
#
#
# Indices 1 2 3 4 5 6 
#
# 1 166.8405 56.6320 53.0622 0.0000 27.0155 0.0000
# 2 56.6320 146.3844 42.1914 0.0000 27.0417 0.0001
# 3 53.0622 42.1914 137.2991 0.0000 29.0778 0.0000
# 4 0.0000 0.0000 0.0000 27.0184 0.0000 -4.1122
# 5 27.0155 27.0417 29.0778 0.0000 39.5886 0.0000
# 6 0.0000 0.0001 0.0000 -4.1122 0.0000 38.4038
#
#
#
# Elastic Compliance Matrix: (Units=1/GPa)
#
#
# Indices 1 2 3 4 5 6 
#
# 1 0.007650 -0.001967 -0.001813 0.000000 -0.002545 0.000000
# 2 -0.001967 0.008595 -0.001092 0.000000 -0.003727 0.000000
# 3 -0.001813 -0.001092 0.009355 0.000000 -0.004888 0.000000
# 4 0.000000 0.000000 0.000000 0.037625 0.000000 0.004029
# 5 -0.002545 -0.003727 -0.004888 0.000000 0.033133 0.000000
# 6 0.000000 0.000000 0.000000 0.004029 0.000000 0.026470
#
#
# Mechanical properties :
#
#
# Convention : Reuss Voigt Hill
#
# Bulk Modulus (GPa) = 63.06455 83.81056 73.43756
# Shear Modulus (GPa) = 36.26920 40.91139 38.59030
#
# Velocity S-wave (km/s) = 3.83685 4.07500 3.95772
# Velocity P-wave (km/s) = 6.72503 7.49393 7.11986
#
# Compressibility (1/GPa) = 0.01585677
#
# Stress axis : x y z
#
# Youngs Moduli (GPa) = 130.71625 116.34040 106.89686
#
# Poissons Ratio (x) = 0.22882 0.19382
# Poissons Ratio (y) = 0.25710 0.11672
# Poissons Ratio (z) = 0.23700 0.12703
#
# Static dielectric constant tensor:
#      x y z
#    x 2.046490 0.000000 -0.023650 
#    y 0.000000 2.270630 0.000000 
#    z -0.023650 0.000000 1.947560 
# 
# From -- ./inp_files/275881.got.cif
#   From: 2010.05.17/outbox.cif.g08.bks.cpg/sg15_138_cif.got.tgz:275881.got - 2010.06.03 18:47:42.
