data_PCOD9297801
_publ_section_title
;
Structure prediction by ZEFSAII (Michael W. Deem and Ramdas Pophale) SiO2 
 PCOD9297801
Probable space group: C 2/C
;
_chemical_formula_sum "Si O2"
_cell_formula_units_Z 44
_cell_length_a 22.725764
_cell_length_b 11.285115
_cell_length_c 8.875423
_cell_angle_alpha 90.000000
_cell_angle_beta 57.124711
_cell_angle_gamma 90.000000
_cell_volume 1911.689538
_symmetry_space_group_name_H-M "C 2/C"
_symmetry_group_IT_number 15
_symmetry_cell_setting 'monoclinic'
loop_
_space_group_symop_operation_xyz
x,y,z
-x,y,1/2-z
-x,-y,-z
x,-y,1/2+z
1/2+x,1/2+y,z
1/2-x,1/2+y,1/2-z
1/2-x,1/2-y,-z
1/2+x,1/2-y,1/2+z
loop_
_atom_site_type_symbol
_atom_site_label
_atom_site_fract_x
_atom_site_fract_y
_atom_site_fract_z
Si Si1 0.317470 0.332872 0.407457
Si Si2 0.466250 0.884522 0.129740
Si Si3 0.500000 0.527489 0.250000
Si Si4 0.048993 0.831837 0.416681
Si Si5 0.272651 0.522097 0.225540
Si Si6 0.301077 0.863574 0.420914
O O1 0.250000 0.250000 0.500000
O O2 0.383905 0.267068 0.246888
O O3 0.309114 0.440180 0.299178
O O4 0.322531 0.385455 0.568957
O O5 0.500000 0.881725 0.250000
O O6 0.382402 0.869669 0.264617
O O7 0.489388 0.766093 0.008877
O O8 0.500000 0.000000 0.000000
O O9 0.535543 0.440546 0.321199
O O10 0.448115 0.610768 0.419753
O O11 0.238835 0.443506 0.144359
O O12 0.208798 0.584494 0.398986
O O13 0.250000 0.750000 0.500000
#
# Coordination Sequence:
#
# PCOD9297801 Si02
#       6
#     8   8   4   8   8   8
#     4  11  24  40  67  97 134 177 225 287 351 425
#     4  12  29  48  74 105 154 198 244 301 378 461
#     4  10  24  46  70  98 132 180 238 310 362 434
#     4  11  25  44  72 100 140 182 243 296 375 435
#     4  10  24  42  68 100 137 178 233 290 359 415
#     4  11  25  46  74 104 142 187 248 298 361 438
#
# _framework density 23.016289
#
# number of rings (size 3 to 8) (size 9 to 14) (size 15 to 20)
#    0.000    1.091    0.909    3.273   11.455    8.727 
#    0.000    0.000    0.000    0.000    0.000    0.000 
#    0.000    0.000    0.000    0.000    0.000    0.000 
#
# Total GULP energy -122867.227118 kJ/mol
# GULP energy per Si atom -5584.873960 kJ/mol
# Density = 2.296390 g / cm^3
# Si number density = 23.016289 Si / 1000 Ang^3
#
#
#
# Elastic Constant Matrix: (Units=GPa)
#
#
# Indices 1 2 3 4 5 6 
#
# 1 54.7487 10.4424 41.0205 0.0000 -10.8499 0.0000
# 2 10.4424 91.0002 58.0556 0.0000 -3.6221 0.0000
# 3 41.0205 58.0556 198.8376 0.0000 -22.4201 0.0000
# 4 0.0000 0.0000 0.0000 21.2394 0.0000 -7.7168
# 5 -10.8499 -3.6221 -22.4201 0.0000 47.0259 0.0000
# 6 0.0000 0.0000 0.0000 -7.7168 0.0000 21.8385
#
#
#
# Elastic Compliance Matrix: (Units=1/GPa)
#
#
# Indices 1 2 3 4 5 6 
#
# 1 0.022027 0.000336 -0.004297 0.000000 0.003059 0.000000
# 2 0.000336 0.013545 -0.004119 0.000000 -0.000843 0.000000
# 3 -0.004297 -0.004119 0.007367 0.000000 0.002203 0.000000
# 4 0.000000 0.000000 0.000000 0.054017 0.000000 0.019087
# 5 0.003059 -0.000843 0.002203 0.000000 0.022956 0.000000
# 6 0.000000 0.000000 0.000000 0.019087 0.000000 0.052535
#
#
# Mechanical properties :
#
#
# Convention : Reuss Voigt Hill
#
# Bulk Modulus (GPa) = 37.34470 62.62483 49.98476
# Shear Modulus (GPa) = 25.31195 33.69195 29.50195
#
# Velocity S-wave (km/s) = 3.31983 3.83015 3.58409
# Velocity P-wave (km/s) = 5.56378 6.84311 6.23633
#
# Compressibility (1/GPa) = 0.02677756
#
# Stress axis : x y z
#
# Youngs Moduli (GPa) = 45.39822 73.82937 135.74256
#
# Poissons Ratio (x) = -0.02478 0.58333
# Poissons Ratio (y) = -0.01524 0.55913
# Poissons Ratio (z) = 0.19509 0.30411
#
# Static dielectric constant tensor:
#      x y z
#    x 1.941480 0.000000 -0.074180 
#    y 0.000000 1.815680 0.000000 
#    z -0.074180 0.000000 1.918300 
# 
# From -- ./inp_files/65330.got.cif
#   From: 2010.05.17/outbox.cif.g08.bks.cpg/sg15_33_cif.got.tgz:65330.got - 2010.06.03 18:47:42.
