data_PCOD9297030
_publ_section_title
;
Structure prediction by ZEFSAII (Michael W. Deem and Ramdas Pophale) SiO2 
 PCOD9297030
Probable space group: C 2/C
;
_chemical_formula_sum "Si O2"
_cell_formula_units_Z 44
_cell_length_a 11.576050
_cell_length_b 14.237176
_cell_length_c 13.925432
_cell_angle_alpha 90.000000
_cell_angle_beta 124.740585
_cell_angle_gamma 90.000000
_cell_volume 1885.939099
_symmetry_space_group_name_H-M "C 2/C"
_symmetry_group_IT_number 15
_symmetry_cell_setting 'monoclinic'
loop_
_space_group_symop_operation_xyz
x,y,z
-x,y,1/2-z
-x,-y,-z
x,-y,1/2+z
1/2+x,1/2+y,z
1/2-x,1/2+y,1/2-z
1/2-x,1/2-y,-z
1/2+x,1/2-y,1/2+z
loop_
_atom_site_type_symbol
_atom_site_label
_atom_site_fract_x
_atom_site_fract_y
_atom_site_fract_z
Si Si1 0.281487 0.296458 0.117724
Si Si2 0.293984 0.132047 0.256648
Si Si3 0.566217 0.943136 0.121310
Si Si4 0.511094 0.436673 0.596816
Si Si5 0.283699 0.147225 0.480399
Si Si6 0.500000 0.437918 0.250000
O O1 0.351550 0.219062 0.221922
O O2 0.166933 0.360736 0.123765
O O3 0.394616 0.374833 0.142674
O O4 0.250000 0.250000 0.000000
O O5 0.131307 0.139820 0.142212
O O6 0.301102 0.152119 0.373490
O O7 0.363593 0.027116 0.280751
O O8 0.425671 0.893260 0.095400
O O9 0.500000 0.000000 0.000000
O O10 0.500000 0.500000 0.500000
O O11 0.356967 0.409222 0.558531
O O12 0.580321 0.497195 0.714583
O O13 0.250000 0.250000 0.500000
#
# Coordination Sequence:
#
# PCOD9297030 Si02
#       6
#     8   8   8   8   8   4
#     4  12  27  45  72 110 143 194 252 305 364 448
#     4  11  24  46  70  99 150 188 234 299 372 432
#     4  10  23  47  71 102 146 187 239 306 370 438
#     4  12  24  46  72 101 137 193 237 296 374 446
#     4  11  24  43  73 106 140 182 237 300 370 448
#     4  12  24  46  70 102 146 180 244 306 360 430
#
# _framework density 23.330551
#
# number of rings (size 3 to 8) (size 9 to 14) (size 15 to 20)
#    0.000    0.727    3.636    3.273    7.636    0.000 
#    0.000    3.636    0.000    0.000    0.000    0.000 
#    0.000    0.000    0.000    0.000    0.000    0.000 
#
# Total GULP energy -122652.744497 kJ/mol
# GULP energy per Si atom -5575.124750 kJ/mol
# Density = 2.327745 g / cm^3
# Si number density = 23.330551 Si / 1000 Ang^3
#
#
#
# Elastic Constant Matrix: (Units=GPa)
#
#
# Indices 1 2 3 4 5 6 
#
# 1 100.4823 57.1499 24.9899 0.0000 15.1440 0.0000
# 2 57.1499 152.6287 41.5586 0.0000 -1.5287 0.0000
# 3 24.9899 41.5586 66.6333 0.0000 -13.2410 0.0000
# 4 0.0000 0.0000 0.0000 48.7716 0.0000 5.8446
# 5 15.1440 -1.5287 -13.2410 0.0000 40.7321 0.0000
# 6 0.0000 0.0000 0.0000 5.8446 0.0000 39.2137
#
#
#
# Elastic Compliance Matrix: (Units=1/GPa)
#
#
# Indices 1 2 3 4 5 6 
#
# 1 0.014496 -0.004390 -0.004065 0.000000 -0.006876 0.000000
# 2 -0.004390 0.009296 -0.004017 0.000000 0.000675 0.000000
# 3 -0.004065 -0.004017 0.020641 0.000000 0.008071 0.000000
# 4 0.000000 0.000000 0.000000 0.020877 0.000000 -0.003112
# 5 -0.006876 0.000675 0.008071 0.000000 0.029756 0.000000
# 6 0.000000 0.000000 0.000000 -0.003112 0.000000 0.025965
#
#
# Mechanical properties :
#
#
# Convention : Reuss Voigt Hill
#
# Bulk Modulus (GPa) = 51.31071 63.01570 57.16321
# Shear Modulus (GPa) = 32.79290 38.81320 35.80305
#
# Velocity S-wave (km/s) = 3.75317 4.08318 3.92165
# Velocity P-wave (km/s) = 6.38924 7.02128 6.71270
#
# Compressibility (1/GPa) = 0.01948911
#
# Stress axis : x y z
#
# Youngs Moduli (GPa) = 68.98470 107.57026 48.44636
#
# Poissons Ratio (x) = 0.47222 0.19693
# Poissons Ratio (y) = 0.30284 0.19463
# Poissons Ratio (z) = 0.28041 0.43216
#
# Static dielectric constant tensor:
#      x y z
#    x 1.613990 0.000000 0.039050 
#    y 0.000000 1.854260 0.000000 
#    z 0.039050 0.000000 1.860880 
# 
# From -- ./inp_files/143872.got.cif
#   From: 2010.05.17/outbox.cif.g08.bks.cpg/sg15_72_cif.got.tgz:143872.got - 2010.06.03 18:47:42.
