data_PCOD9297582
_publ_section_title
;
Structure prediction by ZEFSAII (Michael W. Deem and Ramdas Pophale) SiO2 
 PCOD9297582
Probable space group: C 2/C
;
_chemical_formula_sum "Si O2"
_cell_formula_units_Z 64
_cell_length_a 14.517468
_cell_length_b 21.350638
_cell_length_c 14.438038
_cell_angle_alpha 90.000000
_cell_angle_beta 140.430642
_cell_angle_gamma 90.000000
_cell_volume 2850.738687
_symmetry_space_group_name_H-M "C 2/C"
_symmetry_group_IT_number 15
_symmetry_cell_setting 'monoclinic'
loop_
_space_group_symop_operation_xyz
x,y,z
-x,y,1/2-z
-x,-y,-z
x,-y,1/2+z
1/2+x,1/2+y,z
1/2-x,1/2+y,1/2-z
1/2-x,1/2-y,-z
1/2+x,1/2-y,1/2+z
loop_
_atom_site_type_symbol
_atom_site_label
_atom_site_fract_x
_atom_site_fract_y
_atom_site_fract_z
Si Si1 0.665232 0.227209 0.193336
Si Si2 0.889758 0.849429 0.748736
Si Si3 0.662443 0.859835 0.872502
Si Si4 0.821339 0.536087 0.440191
Si Si5 0.871777 0.049840 0.599330
Si Si6 0.068353 0.946638 0.988033
Si Si7 0.631101 0.948279 0.182142
Si Si8 0.353588 0.175258 0.927149
O O1 0.783236 0.202166 0.210712
O O2 0.671045 0.186601 0.292983
O O3 0.719300 0.294717 0.268439
O O4 0.500180 0.217164 0.031753
O O5 0.779698 0.903985 0.630607
O O6 0.000000 0.831877 0.750000
O O7 0.983636 0.882925 0.902770
O O8 0.500000 0.887169 0.750000
O O9 0.788940 0.910114 0.959798
O O10 0.681593 0.830521 0.990422
O O11 0.747386 0.474587 0.423287
O O12 0.846741 0.514830 0.353478
O O13 0.974528 0.547492 0.606805
O O14 0.000000 0.085617 0.750000
O O15 0.935051 0.986050 0.608681
O O16 0.231538 0.936024 0.147584
O O17 0.000000 0.000000 0.000000
O O18 0.615443 0.891255 0.096896
#
# Coordination Sequence:
#
# PCOD9297582 Si02
#       8
#     8   8   8   8   8   8   8   8
#     4  11  26  45  69  94 126 173 226 274 326 397
#     4  12  23  45  66  91 135 178 213 272 334 383
#     4  10  24  41  66  99 132 169 215 267 334 403
#     4  11  21  41  61  93 132 172 205 264 334 389
#     4  12  22  37  60  95 135 172 210 263 324 397
#     4  12  23  36  60  98 132 167 214 256 324 396
#     4  11  24  37  68  94 131 171 213 272 327 397
#     4  11  24  46  68  95 130 170 221 278 337 386
#
# _framework density 22.450320999999999
#
# number of rings (size 3 to 8) (size 9 to 14) (size 15 to 20)
#    0.000    0.750    6.250    1.125    3.500    1.000 
#    0.000    0.625    2.750    0.000    0.000    0.000 
#    0.000    0.000    0.000    0.000    0.000    0.000 
#
# Total GULP energy -178701.790081 kJ/mol
# GULP energy per Si atom -5584.430940 kJ/mol
# Density = 2.239922 g / cm^3
# Si number density = 22.450321 Si / 1000 Ang^3
#
#
#
# Elastic Constant Matrix: (Units=GPa)
#
#
# Indices 1 2 3 4 5 6 
#
# 1 88.0563 0.2620 19.5870 0.0000 5.7911 0.0000
# 2 0.2620 27.2278 -0.8501 0.0000 0.9947 0.0000
# 3 19.5870 -0.8501 89.1340 0.0000 8.0839 0.0000
# 4 0.0000 0.0000 0.0000 50.6241 0.0000 2.6173
# 5 5.7911 0.9947 8.0839 0.0000 21.9784 0.0000
# 6 0.0000 0.0000 0.0000 2.6173 0.0000 17.6486
#
#
#
# Elastic Compliance Matrix: (Units=1/GPa)
#
#
# Indices 1 2 3 4 5 6 
#
# 1 0.012049 -0.000109 -0.002443 0.000000 -0.002271 0.000000
# 2 -0.000109 0.036812 0.000542 0.000000 -0.001837 0.000000
# 3 -0.002443 0.000542 0.012109 0.000000 -0.003835 0.000000
# 4 0.000000 0.000000 0.000000 0.019906 0.000000 -0.002952
# 5 -0.002271 -0.001837 -0.003835 0.000000 0.047591 0.000000
# 6 0.000000 0.000000 0.000000 -0.002952 0.000000 0.057100
#
#
# Mechanical properties :
#
#
# Convention : Reuss Voigt Hill
#
# Bulk Modulus (GPa) = 17.55939 26.93509 22.24724
# Shear Modulus (GPa) = 23.97258 30.41149 27.19203
#
# Velocity S-wave (km/s) = 3.27127 3.68450 3.48402
# Velocity P-wave (km/s) = 4.70178 5.48857 5.11034
#
# Compressibility (1/GPa) = 0.05694958
#
# Stress axis : x y z
#
# Youngs Moduli (GPa) = 82.99125 27.16493 82.58441
#
# Poissons Ratio (x) = 0.00297 0.20174
# Poissons Ratio (y) = 0.00906 -0.04473
# Poissons Ratio (z) = 0.20274 -0.01471
#
# Static dielectric constant tensor:
#      x y z
#    x 4.182300 0.000000 0.012810 
#    y 0.000000 1.784910 0.000000 
#    z 0.012810 0.000000 1.855900 
# 
# From -- ./inp_files/156815.got.cif
#   From: 2010.05.17/outbox.cif.g08.bks.cpg/sg15_79_cif.got.tgz:156815.got - 2010.06.03 18:47:42.
