data_PCOD9297371
_publ_section_title
;
Structure prediction by ZEFSAII (Michael W. Deem and Ramdas Pophale) SiO2 
 PCOD9297371
Probable space group: C 2/C
;
_chemical_formula_sum "Si O2"
_cell_formula_units_Z 60
_cell_length_a 17.458486
_cell_length_b 21.248684
_cell_length_c 12.803202
_cell_angle_alpha 90.000000
_cell_angle_beta 141.983905
_cell_angle_gamma 90.000000
_cell_volume 2925.198205
_symmetry_space_group_name_H-M "C 2/C"
_symmetry_group_IT_number 15
_symmetry_cell_setting 'monoclinic'
loop_
_space_group_symop_operation_xyz
x,y,z
-x,y,1/2-z
-x,-y,-z
x,-y,1/2+z
1/2+x,1/2+y,z
1/2-x,1/2+y,1/2-z
1/2-x,1/2-y,-z
1/2+x,1/2-y,1/2+z
loop_
_atom_site_type_symbol
_atom_site_label
_atom_site_fract_x
_atom_site_fract_y
_atom_site_fract_z
Si Si1 0.499095 0.183986 0.569352
Si Si2 0.349859 0.568425 0.611397
Si Si3 0.500000 0.246412 0.250000
Si Si4 0.644499 0.571385 0.431410
Si Si5 0.089239 0.192064 0.054824
Si Si6 0.829210 0.336696 0.706034
Si Si7 0.936455 0.069855 0.928924
Si Si8 0.692821 0.819136 0.446688
O O1 0.533879 0.255083 0.571608
O O2 0.446319 0.148824 0.409209
O O3 0.397838 0.181645 0.552205
O O4 0.621074 0.162129 0.762834
O O5 0.500000 0.572178 0.750000
O O6 0.306287 0.497214 0.544525
O O7 0.260839 0.612094 0.445458
O O8 0.350091 0.579753 0.735167
O O9 0.533555 0.290105 0.382482
O O10 0.612335 0.203954 0.325595
O O11 0.500000 0.570266 0.250000
O O12 0.645111 0.579303 0.556140
O O13 0.704938 0.627421 0.432563
O O14 0.235820 0.197587 0.187647
O O15 0.043597 0.123097 0.038398
O O16 0.000000 0.000000 0.000000
O O17 0.750000 0.750000 0.500000
#
# Coordination Sequence:
#
# PCOD9297371 Si02
#       8
#     8   8   4   8   8   8   8   8
#     4  10  25  40  61  95 127 176 224 264 337 406
#     4  11  22  42  67  98 131 171 223 282 345 392
#     4  10  24  40  60  98 132 172 224 260 340 414
#     4  11  25  40  68  99 129 172 226 281 342 396
#     4  11  21  38  63  92 128 174 211 276 329 386
#     4  11  22  41  67  92 135 172 220 282 335 410
#     4  12  22  37  64  99 130 162 222 278 336 397
#     4  11  24  42  63  91 137 173 220 277 329 404
#
# _framework density 20.511430000000001
#
# number of rings (size 3 to 8) (size 9 to 14) (size 15 to 20)
#    0.000    1.067    4.000    2.800    5.600    5.333 
#    0.000    2.000    0.000    0.000    0.000    0.000 
#    0.000    0.000    0.000    0.000    0.000    0.000 
#
# Total GULP energy -167383.332183 kJ/mol
# GULP energy per Si atom -5579.444406 kJ/mol
# Density = 2.046475 g / cm^3
# Si number density = 20.511430 Si / 1000 Ang^3
#
#
#
# Elastic Constant Matrix: (Units=GPa)
#
#
# Indices 1 2 3 4 5 6 
#
# 1 91.9631 44.9552 12.4539 0.0000 -6.9363 0.0000
# 2 44.9552 110.3912 29.7822 0.0000 14.1046 0.0000
# 3 12.4539 29.7822 116.6014 0.0000 -20.2128 0.0000
# 4 0.0000 0.0000 0.0000 12.1881 0.0000 -15.6926
# 5 -6.9363 14.1046 -20.2128 0.0000 36.1400 0.0000
# 6 0.0000 0.0000 0.0000 -15.6926 0.0000 5.6461
#
#
#
# Elastic Compliance Matrix: (Units=1/GPa)
#
#
# Indices 1 2 3 4 5 6 
#
# 1 0.014668 -0.007156 0.001366 0.000000 0.006372 0.000000
# 2 -0.007156 0.014431 -0.004580 0.000000 -0.009567 0.000000
# 3 0.001366 -0.004580 0.011024 0.000000 0.008215 0.000000
# 4 0.000000 0.000000 0.000000 -0.031819 0.000000 -0.088437
# 5 0.006372 -0.009567 0.008215 0.000000 0.037222 0.000000
# 6 0.000000 0.000000 0.000000 -0.088437 0.000000 -0.068687
#
#
# Mechanical properties :
#
#
# Convention : Reuss Voigt Hill
#
# Bulk Modulus (GPa) = 51.59313 54.81538 53.20425
# Shear Modulus (GPa) = 1237.76289 26.24578 632.00433
#
# Velocity S-wave (km/s) = 24.59188 3.58099 17.57248
# Velocity P-wave (km/s) = 28.83670 6.62422 20.92170
#
# Compressibility (1/GPa) = 0.01938243
#
# Stress axis : x y z
#
# Youngs Moduli (GPa) = 68.17771 69.29655 90.70847
#
# Poissons Ratio (x) = 0.49586 -0.12387
# Poissons Ratio (y) = 0.48786 0.41545
# Poissons Ratio (z) = -0.09310 0.31738
#
# Static dielectric constant tensor:
#      x y z
#    x 1.748150 0.000000 -0.024040 
#    y 0.000000 1.729960 0.000000 
#    z -0.024040 0.000000 1.847010 
# 
# From -- ./inp_files/107640.got.cif
#   From: 2010.05.17/outbox.cif.g08.bks.cpg/sg15_54_cif.got.tgz:107640.got - 2010.06.03 18:47:42.
