data_PCOD9297851
_publ_section_title
;
Structure prediction by ZEFSAII (Michael W. Deem and Ramdas Pophale) SiO2 
 PCOD9297851
Probable space group: C 2/C
;
_chemical_formula_sum "Si O2"
_cell_formula_units_Z 60
_cell_length_a 13.548677
_cell_length_b 14.033555
_cell_length_c 14.246233
_cell_angle_alpha 90.000000
_cell_angle_beta 119.941290
_cell_angle_gamma 90.000000
_cell_volume 2347.209695
_symmetry_space_group_name_H-M "C 2/C"
_symmetry_group_IT_number 15
_symmetry_cell_setting 'monoclinic'
loop_
_space_group_symop_operation_xyz
x,y,z
-x,y,1/2-z
-x,-y,-z
x,-y,1/2+z
1/2+x,1/2+y,z
1/2-x,1/2+y,1/2-z
1/2-x,1/2-y,-z
1/2+x,1/2-y,1/2+z
loop_
_atom_site_type_symbol
_atom_site_label
_atom_site_fract_x
_atom_site_fract_y
_atom_site_fract_z
Si Si1 0.922629 0.861764 0.128191
Si Si2 0.283249 0.110731 0.632742
Si Si3 0.279335 0.681027 0.173598
Si Si4 0.419912 0.575804 0.099791
Si Si5 0.424703 0.076248 0.408901
Si Si6 0.219551 0.399258 0.165374
Si Si7 0.500000 0.971189 0.750000
Si Si8 0.596749 0.283533 0.587986
O O1 0.799004 0.875227 0.116951
O O2 0.000000 0.822163 0.250000
O O3 0.966897 0.968651 0.124783
O O4 0.906707 0.806207 0.023553
O O5 0.316861 0.220950 0.639395
O O6 0.196153 0.073316 0.515939
O O7 0.224017 0.116699 0.706909
O O8 0.391691 0.041395 0.687319
O O9 0.373576 0.608557 0.178536
O O10 0.145124 0.666040 0.085688
O O11 0.295153 0.686931 0.294321
O O12 0.497409 0.655321 0.087937
O O13 0.500000 0.000000 0.500000
O O14 0.313985 0.008495 0.344636
O O15 0.482828 0.089633 0.335942
O O16 0.107326 0.330903 0.105673
#
# Coordination Sequence:
#
# PCOD9297851 Si02
#       8
#     8   8   8   8   8   8   4   8
#     4  12  25  45  70 101 137 184 240 296 355 425
#     4  10  24  42  69 100 138 184 233 290 347 429
#     4  11  24  42  67 101 139 183 238 284 357 417
#     4  12  24  40  70 101 139 179 235 296 353 414
#     4  11  24  41  67  98 139 180 232 291 349 421
#     4  10  24  45  66  95 142 178 232 291 356 413
#     4  10  24  42  70 100 138 184 234 288 362 404
#     4  11  26  42  71  97 138 187 236 287 357 425
#
# _framework density 25.562266999999999
#
# number of rings (size 3 to 8) (size 9 to 14) (size 15 to 20)
#    0.000    1.067    1.333    4.000   11.200    0.000 
#    0.000    0.000    0.000    0.000    0.000    0.000 
#    0.000    0.000    0.000    0.000    0.000    0.000 
#
# Total GULP energy -167679.074124 kJ/mol
# GULP energy per Si atom -5589.302471 kJ/mol
# Density = 2.550409 g / cm^3
# Si number density = 25.562267 Si / 1000 Ang^3
#
#
#
# Elastic Constant Matrix: (Units=GPa)
#
#
# Indices 1 2 3 4 5 6 
#
# 1 99.7549 4.6130 19.3770 0.0000 -10.9236 0.0000
# 2 4.6130 67.9397 6.8396 0.0000 -2.2857 0.0000
# 3 19.3770 6.8396 134.4527 0.0000 -18.6879 0.0000
# 4 0.0000 0.0000 0.0000 24.4271 0.0000 5.6355
# 5 -10.9236 -2.2857 -18.6879 0.0000 45.9779 0.0000
# 6 0.0000 0.0000 0.0000 5.6355 0.0000 29.6503
#
#
#
# Elastic Compliance Matrix: (Units=1/GPa)
#
#
# Indices 1 2 3 4 5 6 
#
# 1 0.010501 -0.000524 -0.001212 0.000000 0.001976 0.000000
# 2 -0.000524 0.014830 -0.000629 0.000000 0.000357 0.000000
# 3 -0.001212 -0.000629 0.008055 0.000000 0.002955 0.000000
# 4 0.000000 0.000000 0.000000 0.042816 0.000000 -0.008138
# 5 0.001976 0.000357 0.002955 0.000000 0.023438 0.000000
# 6 0.000000 0.000000 0.000000 -0.008138 0.000000 0.035273
#
#
# Mechanical properties :
#
#
# Convention : Reuss Voigt Hill
#
# Bulk Modulus (GPa) = 34.89904 40.42296 37.66100
# Shear Modulus (GPa) = 33.51326 38.09892 35.80609
#
# Velocity S-wave (km/s) = 3.62476 3.86480 3.74671
# Velocity P-wave (km/s) = 5.58576 5.98026 5.78637
#
# Compressibility (1/GPa) = 0.02865409
#
# Stress axis : x y z
#
# Youngs Moduli (GPa) = 95.23230 67.43140 124.14773
#
# Poissons Ratio (x) = 0.03537 0.15047
# Poissons Ratio (y) = 0.04995 0.07811
# Poissons Ratio (z) = 0.11542 0.04243
#
# Static dielectric constant tensor:
#      x y z
#    x 2.159660 0.000000 0.214560 
#    y 0.000000 2.112490 0.000000 
#    z 0.214560 0.000000 2.259890 
# 
# From -- ./inp_files/154268.got.cif
#   From: 2010.05.17/outbox.cif.g08.bks.cpg/sg15_78_cif.got.tgz:154268.got - 2010.06.03 18:47:42.
