data_PCOD9297138
_publ_section_title
;
Structure prediction by ZEFSAII (Michael W. Deem and Ramdas Pophale) SiO2 
 PCOD9297138
Probable space group: C 2/C
;
_chemical_formula_sum "Si O2"
_cell_formula_units_Z 48
_cell_length_a 17.853819
_cell_length_b 7.637416
_cell_length_c 18.531103
_cell_angle_alpha 90.000000
_cell_angle_beta 137.310775
_cell_angle_gamma 90.000000
_cell_volume 1713.256066
_symmetry_space_group_name_H-M "C 2/C"
_symmetry_group_IT_number 15
_symmetry_cell_setting 'monoclinic'
loop_
_space_group_symop_operation_xyz
x,y,z
-x,y,1/2-z
-x,-y,-z
x,-y,1/2+z
1/2+x,1/2+y,z
1/2-x,1/2+y,1/2-z
1/2-x,1/2-y,-z
1/2+x,1/2-y,1/2+z
loop_
_atom_site_type_symbol
_atom_site_label
_atom_site_fract_x
_atom_site_fract_y
_atom_site_fract_z
Si Si1 0.256926 0.207885 0.764898
Si Si2 0.521506 0.001123 0.613339
Si Si3 0.772252 0.957249 0.992897
Si Si4 0.428131 0.646191 0.486897
Si Si5 0.704937 0.815618 0.566528
Si Si6 0.100099 0.763719 0.280772
O O1 0.359942 0.080163 0.822618
O O2 0.318949 0.348119 0.859984
O O3 0.219113 0.282235 0.661396
O O4 0.157800 0.154219 0.749186
O O5 0.521310 0.160085 0.467207
O O6 0.423513 0.143889 0.543390
O O7 0.541569 0.907630 0.703655
O O8 0.746128 0.142423 0.935045
O O9 0.685386 0.814220 0.901295
O O10 0.887527 0.911192 0.036592
O O11 0.764402 0.017658 0.070835
O O12 0.500000 0.500000 0.500000
O O13 0.000000 0.862129 0.250000
#
# Coordination Sequence:
#
# PCOD9297138 Si02
#       6
#     8   8   8   8   8   8
#     4  11  27  45  80 120 157 218 283 332 417 499
#     4  12  26  48  83 118 163 217 275 347 412 487
#     4  10  23  48  74 117 173 212 271 345 414 495
#     4  11  27  49  76 117 164 215 279 344 411 499
#     4  11  24  46  81 121 163 219 273 337 415 495
#     4  11  24  48  76 122 168 215 271 343 417 500
#
# _framework density 28.016825999999998
#
# number of rings (size 3 to 8) (size 9 to 14) (size 15 to 20)
#    0.000    1.000    3.333    1.500    7.000    0.667 
#    3.000    2.500    0.000    0.000    0.000    0.000 
#    0.000    0.000    0.000    0.000    0.000    0.000 
#
# Total GULP energy -134480.912215 kJ/mol
# GULP energy per Si atom -5603.371342 kJ/mol
# Density = 2.795306 g / cm^3
# Si number density = 28.016826 Si / 1000 Ang^3
#
#
#
# Elastic Constant Matrix: (Units=GPa)
#
#
# Indices 1 2 3 4 5 6 
#
# 1 258.6228 47.4115 50.4365 0.0000 -4.2590 0.0000
# 2 47.4115 112.0119 0.8226 0.0000 5.9661 0.0000
# 3 50.4365 0.8226 174.4488 0.0000 -28.7022 0.0000
# 4 0.0000 0.0000 0.0000 48.6751 0.0000 2.9130
# 5 -4.2590 5.9661 -28.7022 0.0000 64.7762 0.0000
# 6 0.0000 0.0000 0.0000 2.9130 0.0000 62.1339
#
#
#
# Elastic Compliance Matrix: (Units=1/GPa)
#
#
# Indices 1 2 3 4 5 6 
#
# 1 0.004462 -0.001873 -0.001299 0.000000 -0.000110 0.000000
# 2 -0.001873 0.009764 0.000353 0.000000 -0.000866 0.000000
# 3 -0.001299 0.000353 0.006566 0.000000 0.002791 0.000000
# 4 0.000000 0.000000 0.000000 0.020602 0.000000 -0.000966
# 5 -0.000110 -0.000866 0.002791 0.000000 0.016747 0.000000
# 6 0.000000 0.000000 0.000000 -0.000966 0.000000 0.016140
#
#
# Mechanical properties :
#
#
# Convention : Reuss Voigt Hill
#
# Bulk Modulus (GPa) = 65.99506 82.49163 74.24335
# Shear Modulus (GPa) = 58.84481 64.87789 61.86135
#
# Velocity S-wave (km/s) = 4.58792 4.81737 4.70404
# Velocity P-wave (km/s) = 7.18832 7.77497 7.48740
#
# Compressibility (1/GPa) = 0.01515265
#
# Stress axis : x y z
#
# Youngs Moduli (GPa) = 224.13666 102.41733 152.31055
#
# Poissons Ratio (x) = 0.19183 0.19788
# Poissons Ratio (y) = 0.41982 -0.05377
# Poissons Ratio (z) = 0.29119 -0.03615
#
# Static dielectric constant tensor:
#      x y z
#    x 2.215830 0.000000 0.020700 
#    y 0.000000 2.250160 0.000000 
#    z 0.020700 0.000000 2.247420 
# 
# From -- ./inp_files/210448.got.cif
#   From: 2010.05.17/outbox.cif.g08.bks.cpg/sg15_106_cif.got.tgz:210448.got - 2010.06.03 18:47:42.
