data_PCOD9297786
_publ_section_title
;
Structure prediction by ZEFSAII (Michael W. Deem and Ramdas Pophale) SiO2 
 PCOD9297786
Probable space group: C 2/C
;
_chemical_formula_sum "Si O2"
_cell_formula_units_Z 48
_cell_length_a 15.300744
_cell_length_b 9.974814
_cell_length_c 26.516737
_cell_angle_alpha 90.000000
_cell_angle_beta 151.939712
_cell_angle_gamma 90.000000
_cell_volume 1903.728813
_symmetry_space_group_name_H-M "C 2/C"
_symmetry_group_IT_number 15
_symmetry_cell_setting 'monoclinic'
loop_
_space_group_symop_operation_xyz
x,y,z
-x,y,1/2-z
-x,-y,-z
x,-y,1/2+z
1/2+x,1/2+y,z
1/2-x,1/2+y,1/2-z
1/2-x,1/2-y,-z
1/2+x,1/2-y,1/2+z
loop_
_atom_site_type_symbol
_atom_site_label
_atom_site_fract_x
_atom_site_fract_y
_atom_site_fract_z
Si Si1 0.286879 0.939724 0.634525
Si Si2 0.289544 0.693134 0.686678
Si Si3 0.531609 0.223237 0.395309
Si Si4 0.517646 0.581682 0.313135
Si Si5 0.454942 0.961353 0.034399
Si Si6 0.019916 0.984857 0.593981
O O1 0.500000 0.981230 0.750000
O O2 0.268810 0.775046 0.624116
O O3 0.186255 0.013512 0.536618
O O4 0.160580 0.961983 0.619792
O O5 0.424559 0.784542 0.788389
O O6 0.393373 0.550614 0.737387
O O7 0.091152 0.664195 0.611022
O O8 0.750000 0.250000 0.500000
O O9 0.450230 0.358985 0.377062
O O10 0.494854 0.088425 0.406483
O O11 0.500000 0.661783 0.250000
O O12 0.738459 0.563845 0.430736
O O13 0.462960 0.599254 0.345014
O O14 0.500000 0.000000 0.000000
#
# Coordination Sequence:
#
# PCOD9297786 Si02
#       6
#     8   8   8   8   8   8
#     4  11  24  43  72  96 138 188 239 296 354 448
#     4  11  24  39  72 103 137 186 247 284 383 419
#     4  11  22  42  72  99 141 184 240 298 359 434
#     4  11  23  43  65 103 139 181 237 300 360 418
#     4  12  24  40  71 105 144 181 243 311 354 437
#     4  10  24  42  67 103 138 182 244 288 365 437
#
# _framework density 25.213676
#
# number of rings (size 3 to 8) (size 9 to 14) (size 15 to 20)
#    0.000    1.000    5.000    2.500    4.667    0.000 
#    0.000    0.833   11.000    0.000    0.000    0.000 
#    0.000    0.000    0.000    0.000    0.000    0.000 
#
# Total GULP energy -134025.843504 kJ/mol
# GULP energy per Si atom -5584.410146 kJ/mol
# Density = 2.515629 g / cm^3
# Si number density = 25.213676 Si / 1000 Ang^3
#
#
#
# Elastic Constant Matrix: (Units=GPa)
#
#
# Indices 1 2 3 4 5 6 
#
# 1 163.9110 35.4141 50.5747 -0.0003 -17.3097 -0.0003
# 2 35.4141 41.2881 17.9850 -0.0001 -3.1016 -0.0001
# 3 50.5747 17.9850 144.9546 0.0009 4.3836 -0.0004
# 4 -0.0003 -0.0001 0.0009 23.7213 -0.0003 -9.7265
# 5 -17.3097 -3.1016 4.3836 -0.0003 47.9955 -0.0004
# 6 -0.0003 -0.0001 -0.0004 -9.7265 -0.0004 30.4893
#
#
#
# Elastic Compliance Matrix: (Units=1/GPa)
#
#
# Indices 1 2 3 4 5 6 
#
# 1 0.008399 -0.006001 -0.002272 0.000000 0.002849 0.000000
# 2 -0.006001 0.030074 -0.001636 0.000000 -0.000071 0.000000
# 3 -0.002272 -0.001636 0.007944 0.000000 -0.001651 0.000000
# 4 0.000000 0.000000 0.000000 0.048500 0.000001 0.015472
# 5 0.002849 -0.000071 -0.001651 0.000001 0.022009 0.000000
# 6 0.000000 0.000000 0.000000 0.015472 0.000000 0.037734
#
#
# Mechanical properties :
#
#
# Convention : Reuss Voigt Hill
#
# Bulk Modulus (GPa) = 37.59262 62.01124 49.80193
# Shear Modulus (GPa) = 27.27100 36.85322 32.06211
#
# Velocity S-wave (km/s) = 3.29233 3.82728 3.56984
# Velocity P-wave (km/s) = 5.42168 6.64669 6.06519
#
# Compressibility (1/GPa) = 0.02660096
#
# Stress axis : x y z
#
# Youngs Moduli (GPa) = 119.05795 33.25125 125.87607
#
# Poissons Ratio (x) = 0.19953 0.28601
# Poissons Ratio (y) = 0.71441 0.20589
# Poissons Ratio (z) = 0.27052 0.05439
#
# Static dielectric constant tensor:
#      x y z
#    x 2.115350 0.000000 -0.029170 
#    y 0.000000 2.098610 0.000000 
#    z -0.029170 0.000000 2.046800 
# 
# From -- ./inp_files/296189.got.cif
#   From: 2010.05.17/outbox.cif.g08.bks.cpg/sg15_149_cif.got.tgz:296189.got - 2010.06.03 18:47:42.
