data_PCOD9297676
_publ_section_title
;
Structure prediction by ZEFSAII (Michael W. Deem and Ramdas Pophale) SiO2 
 PCOD9297676
Probable space group: C 2/C
;
_chemical_formula_sum "Si O2"
_cell_formula_units_Z 40
_cell_length_a 12.428106
_cell_length_b 18.352284
_cell_length_c 8.718708
_cell_angle_alpha 90.000000
_cell_angle_beta 71.414887
_cell_angle_gamma 90.000000
_cell_volume 1884.895992
_symmetry_space_group_name_H-M "C 2/C"
_symmetry_group_IT_number 15
_symmetry_cell_setting 'monoclinic'
loop_
_space_group_symop_operation_xyz
x,y,z
-x,y,1/2-z
-x,-y,-z
x,-y,1/2+z
1/2+x,1/2+y,z
1/2-x,1/2+y,1/2-z
1/2-x,1/2-y,-z
1/2+x,1/2-y,1/2+z
loop_
_atom_site_type_symbol
_atom_site_label
_atom_site_fract_x
_atom_site_fract_y
_atom_site_fract_z
Si Si1 0.068723 0.058479 0.067572
Si Si2 0.385775 0.679351 0.699334
Si Si3 0.442250 0.160980 0.111436
Si Si4 0.147365 0.391824 0.361719
Si Si5 0.174530 0.535929 0.515787
O O1 0.190656 0.025945 0.053648
O O2 0.000000 0.075645 0.250000
O O3 0.091753 0.129565 0.957660
O O4 0.000000 0.000000 0.000000
O O5 0.500000 0.673617 0.750000
O O6 0.374844 0.763387 0.655971
O O7 0.269490 0.647365 0.824482
O O8 0.500000 0.149781 0.250000
O O9 0.363995 0.095110 0.091610
O O10 0.545246 0.163748 0.941245
O O11 0.126589 0.457429 0.491881
O O12 0.144413 0.430613 0.195990
#
# Coordination Sequence:
#
# PCOD9297676 Si02
#       5
#     8   8   8   8   8
#     4  11  22  38  64  94 128 167 214 268 321 386
#     4  10  24  42  63  93 129 172 216 265 327 386
#     4  11  25  42  63  94 130 170 215 265 325 386
#     4  11  23  42  66  92 129 166 213 269 320 387
#     4  11  23  40  66  94 126 168 215 267 322 382
#
# _framework density 21.221329999999998
#
# number of rings (size 3 to 8) (size 9 to 14) (size 15 to 20)
#    0.000    1.200    0.000    6.600    0.000   11.200 
#    0.000    0.000    0.000    0.000    0.000    0.000 
#    0.000    0.000    0.000    0.000    0.000    0.000 
#
# Total GULP energy -111839.237661 kJ/mol
# GULP energy per Si atom -5591.961883 kJ/mol
# Density = 2.117303 g / cm^3
# Si number density = 21.221330 Si / 1000 Ang^3
#
#
#
# Elastic Constant Matrix: (Units=GPa)
#
#
# Indices 1 2 3 4 5 6 
#
# 1 90.4154 39.2357 6.5597 0.0000 -1.4725 0.0000
# 2 39.2357 128.8280 15.7232 0.0000 1.5558 0.0000
# 3 6.5597 15.7232 58.6424 0.0000 -13.0547 0.0000
# 4 0.0000 0.0000 0.0000 22.7802 0.0000 2.2826
# 5 -1.4725 1.5558 -13.0547 0.0000 24.9949 0.0000
# 6 0.0000 0.0000 0.0000 2.2826 0.0000 37.9782
#
#
#
# Elastic Compliance Matrix: (Units=1/GPa)
#
#
# Indices 1 2 3 4 5 6 
#
# 1 0.012771 -0.003877 -0.000190 0.000000 0.000895 0.000000
# 2 -0.003877 0.009277 -0.002527 0.000000 -0.002126 0.000000
# 3 -0.000190 -0.002527 0.020124 0.000000 0.010657 0.000000
# 4 0.000000 0.000000 0.000000 0.044164 0.000000 -0.002654
# 5 0.000895 -0.002126 0.010657 0.000000 0.045759 0.000000
# 6 0.000000 0.000000 0.000000 -0.002654 0.000000 0.026490
#
#
# Mechanical properties :
#
#
# Convention : Reuss Voigt Hill
#
# Bulk Modulus (GPa) = 34.50199 44.54700 39.52449
# Shear Modulus (GPa) = 27.55826 31.57515 29.56670
#
# Velocity S-wave (km/s) = 3.60753 3.86151 3.73668
# Velocity P-wave (km/s) = 5.80051 6.39679 6.10593
#
# Compressibility (1/GPa) = 0.02898384
#
# Stress axis : x y z
#
# Youngs Moduli (GPa) = 78.30315 107.79150 49.69301
#
# Poissons Ratio (x) = 0.41792 0.00943
# Poissons Ratio (y) = 0.30359 0.12557
# Poissons Ratio (z) = 0.01487 0.27238
#
# Static dielectric constant tensor:
#      x y z
#    x 1.756450 0.000000 0.011130 
#    y 0.000000 1.763660 0.000000 
#    z 0.011130 0.000000 1.761040 
# 
# From -- ./inp_files/29051.got.cif
#   From: 2010.05.17/outbox.cif.g08.bks.cpg/sg15_15_cif.got.tgz:29051.got - 2010.06.03 18:47:42.
