data_PCOD9297856
_publ_section_title
;
Structure prediction by ZEFSAII (Michael W. Deem and Ramdas Pophale) SiO2 
 PCOD9297856
Probable space group: C 2/C
;
_chemical_formula_sum "Si O2"
_cell_formula_units_Z 52
_cell_length_a 15.878587
_cell_length_b 15.048899
_cell_length_c 12.709051
_cell_angle_alpha 90.000000
_cell_angle_beta 56.616123
_cell_angle_gamma 90.000000
_cell_volume 2535.815201
_symmetry_space_group_name_H-M "C 2/C"
_symmetry_group_IT_number 15
_symmetry_cell_setting 'monoclinic'
loop_
_space_group_symop_operation_xyz
x,y,z
-x,y,1/2-z
-x,-y,-z
x,-y,1/2+z
1/2+x,1/2+y,z
1/2-x,1/2+y,1/2-z
1/2-x,1/2-y,-z
1/2+x,1/2-y,1/2+z
loop_
_atom_site_type_symbol
_atom_site_label
_atom_site_fract_x
_atom_site_fract_y
_atom_site_fract_z
Si Si1 0.406262 0.370976 0.516606
Si Si2 0.921951 0.432481 0.105310
Si Si3 0.295071 0.103566 0.225967
Si Si4 0.181514 0.818720 0.603952
Si Si5 0.489245 0.187213 0.381279
Si Si6 0.957796 0.937593 0.895541
Si Si7 0.500000 0.182051 0.750000
O O1 0.286865 0.373286 0.626455
O O2 0.450592 0.287818 0.422529
O O3 0.467731 0.380998 0.583325
O O4 0.439410 0.462290 0.440186
O O5 0.830543 0.499256 0.201606
O O6 0.975591 0.381725 0.166249
O O7 0.911506 0.364746 0.013527
O O8 0.000000 0.500000 0.000000
O O9 0.236277 0.129583 0.159983
O O10 0.396866 0.163504 0.158596
O O11 0.250000 0.750000 0.500000
O O12 0.147602 0.888503 0.539415
O O13 0.090876 0.752385 0.694622
O O14 0.500000 0.162851 0.250000
O O15 0.000000 0.937093 0.750000
#
# Coordination Sequence:
#
# PCOD9297856 Si02
#       7
#     8   8   8   8   8   8   4
#     4  11  24  44  66 104 137 184 237 281 364 431
#     4  10  24  42  69 103 138 183 233 294 359 414
#     4  11  24  43  70 105 139 181 244 291 350 436
#     4  12  23  40  70 102 131 178 238 286 349 418
#     4  11  25  48  69  98 149 188 230 293 360 433
#     4  11  22  43  67  94 145 181 223 301 349 414
#     4  12  24  46  76 100 144 184 232 310 352 408
#
# _framework density 20.506226000000002
#
# number of rings (size 3 to 8) (size 9 to 14) (size 15 to 20)
#    0.000    0.923    2.308    5.077    6.462    1.846 
#    5.538    0.000    0.000    0.000    0.000    0.000 
#    0.000    0.000    0.000    0.000    0.000    0.000 
#
# Total GULP energy -144772.555691 kJ/mol
# GULP energy per Si atom -5568.175219 kJ/mol
# Density = 2.045955 g / cm^3
# Si number density = 20.506226 Si / 1000 Ang^3
#
#
#
# Elastic Constant Matrix: (Units=GPa)
#
#
# Indices 1 2 3 4 5 6 
#
# 1 93.7267 45.8907 31.5675 0.0000 -0.2036 0.0000
# 2 45.8907 92.0280 29.7759 0.0000 9.5076 0.0000
# 3 31.5675 29.7759 83.5645 0.0000 9.9534 0.0000
# 4 0.0000 0.0000 0.0000 54.2101 0.0000 -6.9158
# 5 -0.2036 9.5076 9.9534 0.0000 36.7227 0.0000
# 6 0.0000 0.0000 0.0000 -6.9158 0.0000 41.3218
#
#
#
# Elastic Compliance Matrix: (Units=1/GPa)
#
#
# Indices 1 2 3 4 5 6 
#
# 1 0.015184 -0.006667 -0.003695 0.000000 0.002812 0.000000
# 2 -0.006667 0.015362 -0.002560 0.000000 -0.003320 0.000000
# 3 -0.003695 -0.002560 0.014672 0.000000 -0.003334 0.000000
# 4 0.000000 0.000000 0.000000 0.018849 0.000000 0.003155
# 5 0.002812 -0.003320 -0.003334 0.000000 0.029010 0.000000
# 6 0.000000 0.000000 0.000000 0.003155 0.000000 0.024728
#
#
# Mechanical properties :
#
#
# Convention : Reuss Voigt Hill
#
# Bulk Modulus (GPa) = 51.61476 53.75415 52.68446
# Shear Modulus (GPa) = 33.30938 37.25659 35.28298
#
# Velocity S-wave (km/s) = 4.03470 4.26707 4.15251
# Velocity P-wave (km/s) = 6.85055 7.10969 6.98132
#
# Compressibility (1/GPa) = 0.01937430
#
# Stress axis : x y z
#
# Youngs Moduli (GPa) = 65.85805 65.09607 68.15633
#
# Poissons Ratio (x) = 0.43397 0.25187
# Poissons Ratio (y) = 0.43905 0.17448
# Poissons Ratio (z) = 0.24338 0.16664
#
# Static dielectric constant tensor:
#      x y z
#    x 1.877960 0.000000 0.004230 
#    y 0.000000 1.778000 0.000000 
#    z 0.004230 0.000000 1.765510 
# 
# From -- ./inp_files/96946.got.cif
#   From: 2010.05.17/outbox.cif.g08.bks.cpg/sg15_49_cif.got.tgz:96946.got - 2010.06.03 18:47:42.
