data_PCOD9297831
_publ_section_title
;
Structure prediction by ZEFSAII (Michael W. Deem and Ramdas Pophale) SiO2 
 PCOD9297831
Probable space group: C 2/C
;
_chemical_formula_sum "Si O2"
_cell_formula_units_Z 48
_cell_length_a 14.269955
_cell_length_b 12.548312
_cell_length_c 15.466645
_cell_angle_alpha 90.000000
_cell_angle_beta 130.006845
_cell_angle_gamma 90.000000
_cell_volume 2121.360386
_symmetry_space_group_name_H-M "C 2/C"
_symmetry_group_IT_number 15
_symmetry_cell_setting 'monoclinic'
loop_
_space_group_symop_operation_xyz
x,y,z
-x,y,1/2-z
-x,-y,-z
x,-y,1/2+z
1/2+x,1/2+y,z
1/2-x,1/2+y,1/2-z
1/2-x,1/2-y,-z
1/2+x,1/2-y,1/2+z
loop_
_atom_site_type_symbol
_atom_site_label
_atom_site_fract_x
_atom_site_fract_y
_atom_site_fract_z
Si Si1 0.243311 0.698083 0.802838
Si Si2 0.668840 0.894515 0.438599
Si Si3 0.500000 0.069082 0.250000
Si Si4 0.549800 0.111221 0.570069
Si Si5 0.999298 0.256026 0.613813
Si Si6 0.128893 0.104242 0.295868
Si Si7 0.000000 0.096026 0.750000
O O1 0.217849 0.674672 0.888407
O O2 0.383533 0.702161 0.860484
O O3 0.189020 0.818353 0.761784
O O4 0.166967 0.613646 0.701104
O O5 0.560424 0.847775 0.434102
O O6 0.778987 0.914077 0.569782
O O7 0.604078 0.996012 0.354907
O O8 0.454201 0.146771 0.298452
O O9 0.577053 0.190323 0.507367
O O10 0.500000 0.000000 0.500000
O O11 0.937436 0.172747 0.642573
O O12 0.000000 0.155710 0.250000
O O13 0.086374 0.984815 0.248550
#
# Coordination Sequence:
#
# PCOD9297831 Si02
#       7
#     8   8   4   8   8   8   4
#     4  12  25  40  72 101 132 172 232 279 336 400
#     4  12  22  43  71  99 135 175 225 285 333 405
#     4  11  24  45  68 100 134 179 228 275 346 400
#     4  12  24  42  71 105 134 176 228 284 338 405
#     4  11  25  43  66 100 135 175 226 277 337 407
#     4  10  24  42  68  94 135 180 217 274 341 392
#     4   9  26  45  62  92 144 175 218 275 344 396
#
# _framework density 22.626988999999998
#
# number of rings (size 3 to 8) (size 9 to 14) (size 15 to 20)
#    0.500    0.333    5.000    1.500    4.667    2.667 
#    0.000    5.000    0.000    0.000    0.000    0.000 
#    0.000    0.000    0.000    0.000    0.000    0.000 
#
# Total GULP energy -133942.001253 kJ/mol
# GULP energy per Si atom -5580.916719 kJ/mol
# Density = 2.257549 g / cm^3
# Si number density = 22.626989 Si / 1000 Ang^3
#
#
#
# Elastic Constant Matrix: (Units=GPa)
#
#
# Indices 1 2 3 4 5 6 
#
# 1 58.1106 -0.2111 -13.8125 0.0000 -9.9598 0.0000
# 2 -0.2111 91.8858 7.3611 0.0000 -13.9010 0.0000
# 3 -13.8125 7.3611 76.0686 0.0000 -2.3611 0.0000
# 4 0.0000 0.0000 0.0000 26.8833 0.0000 -9.2327
# 5 -9.9598 -13.9010 -2.3611 0.0000 38.8665 0.0000
# 6 0.0000 0.0000 0.0000 -9.2327 0.0000 24.6525
#
#
#
# Elastic Compliance Matrix: (Units=1/GPa)
#
#
# Indices 1 2 3 4 5 6 
#
# 1 0.018959 0.000557 0.003552 0.000000 0.005273 0.000000
# 2 0.000557 0.011597 -0.000890 0.000000 0.004236 0.000000
# 3 0.003552 -0.000890 0.013922 0.000000 0.001438 0.000000
# 4 0.000000 0.000000 0.000000 0.042688 0.000000 0.015987
# 5 0.005273 0.004236 0.001438 0.000000 0.028683 0.000000
# 6 0.000000 0.000000 0.000000 0.015987 0.000000 0.046551
#
#
# Mechanical properties :
#
#
# Convention : Reuss Voigt Hill
#
# Bulk Modulus (GPa) = 19.64024 23.63780 21.63902
# Shear Modulus (GPa) = 28.91298 33.59563 31.25431
#
# Velocity S-wave (km/s) = 3.57852 3.85744 3.72060
# Velocity P-wave (km/s) = 5.07674 5.50538 5.29540
#
# Compressibility (1/GPa) = 0.05091587
#
# Stress axis : x y z
#
# Youngs Moduli (GPa) = 52.74614 86.23290 71.82996
#
# Poissons Ratio (x) = -0.04801 -0.25516
# Poissons Ratio (y) = -0.02937 0.06390
# Poissons Ratio (z) = -0.18737 0.07671
#
# Static dielectric constant tensor:
#      x y z
#    x 1.842280 0.000000 0.001320 
#    y 0.000000 1.933860 0.000000 
#    z 0.001320 0.000000 1.825570 
# 
# From -- ./inp_files/154140.got.cif
#   From: 2010.05.17/outbox.cif.g08.bks.cpg/sg15_78_cif.got.tgz:154140.got - 2010.06.03 18:47:42.
