data_PCOD9297995
_publ_section_title
;
Structure prediction by ZEFSAII (Michael W. Deem and Ramdas Pophale) SiO2 
 PCOD9297995
Probable space group: C 2/C
;
_chemical_formula_sum "Si O2"
_cell_formula_units_Z 56
_cell_length_a 8.689201
_cell_length_b 22.255666
_cell_length_c 15.202174
_cell_angle_alpha 90.000000
_cell_angle_beta 124.915593
_cell_angle_gamma 90.000000
_cell_volume 2410.671002
_symmetry_space_group_name_H-M "C 2/C"
_symmetry_group_IT_number 15
_symmetry_cell_setting 'monoclinic'
loop_
_space_group_symop_operation_xyz
x,y,z
-x,y,1/2-z
-x,-y,-z
x,-y,1/2+z
1/2+x,1/2+y,z
1/2-x,1/2+y,1/2-z
1/2-x,1/2-y,-z
1/2+x,1/2-y,1/2+z
loop_
_atom_site_type_symbol
_atom_site_label
_atom_site_fract_x
_atom_site_fract_y
_atom_site_fract_z
Si Si1 0.595108 0.749070 0.185628
Si Si2 0.539456 0.260225 0.472444
Si Si3 0.122695 0.340919 0.701985
Si Si4 0.626091 0.065521 0.471372
Si Si5 0.522896 0.599475 0.572803
Si Si6 0.232725 0.626458 0.690441
Si Si7 0.903277 0.548485 0.633257
O O1 0.500000 0.759501 0.250000
O O2 0.667852 0.679613 0.206049
O O3 0.747240 0.802330 0.212025
O O4 0.490720 0.754871 0.057922
O O5 0.750000 0.250000 0.500000
O O6 0.422334 0.214172 0.377079
O O7 0.494183 0.329727 0.447122
O O8 0.000000 0.337574 0.750000
O O9 0.050652 0.399202 0.627178
O O10 0.698309 0.101317 0.581435
O O11 0.822013 0.072206 0.481385
O O12 0.582606 0.995275 0.445373
O O13 0.603471 0.594803 0.699794
O O14 0.691648 0.568998 0.575637
O O15 0.034560 0.606472 0.667087
O O16 0.000000 0.516477 0.750000
#
# Coordination Sequence:
#
# PCOD9297995 Si02
#       7
#     8   8   8   8   8   8   8
#     4  12  25  41  63 101 140 176 226 286 347 409
#     4  12  22  40  65  99 135 178 223 275 347 410
#     4  12  24  39  67  97 135 176 222 281 340 413
#     4  12  23  41  66  95 128 173 224 272 342 398
#     4  11  22  40  67  96 126 168 228 281 325 399
#     4  11  23  41  63  93 129 175 221 273 333 410
#     4  10  24  43  63  91 128 172 219 279 338 398
#
# _framework density 23.230048
#
# number of rings (size 3 to 8) (size 9 to 14) (size 15 to 20)
#    0.000    0.571    5.714    3.000    0.000    1.714 
#    0.000    0.000    0.000    0.000    0.000    0.000 
#    0.000    0.000    0.000    0.000    0.000    0.000 
#
# Total GULP energy -155959.347812 kJ/mol
# GULP energy per Si atom -5569.976708 kJ/mol
# Density = 2.317717 g / cm^3
# Si number density = 23.230048 Si / 1000 Ang^3
#
#
#
# Elastic Constant Matrix: (Units=GPa)
#
#
# Indices 1 2 3 4 5 6 
#
# 1 60.7660 14.2580 13.3882 0.0000 -19.4183 0.0000
# 2 14.2580 87.2830 12.3751 0.0000 -3.2804 0.0000
# 3 13.3882 12.3751 77.8620 0.0000 -30.7335 0.0000
# 4 0.0000 0.0000 0.0000 23.0399 0.0000 2.8500
# 5 -19.4183 -3.2804 -30.7335 0.0000 42.1839 0.0000
# 6 0.0000 0.0000 0.0000 2.8500 0.0000 16.4242
#
#
#
# Elastic Compliance Matrix: (Units=1/GPa)
#
#
# Indices 1 2 3 4 5 6 
#
# 1 0.020053 -0.003031 0.000820 0.000000 0.009592 0.000000
# 2 -0.003031 0.012191 -0.002236 0.000000 -0.002076 0.000000
# 3 0.000820 -0.002236 0.018441 0.000000 0.013639 0.000000
# 4 0.000000 0.000000 0.000000 0.044355 0.000000 -0.007697
# 5 0.009592 -0.002076 0.013639 0.000000 0.037897 0.000000
# 6 0.000000 0.000000 0.000000 -0.007697 0.000000 0.062221
#
#
# Mechanical properties :
#
#
# Convention : Reuss Voigt Hill
#
# Bulk Modulus (GPa) = 23.92898 33.99485 28.96192
# Shear Modulus (GPa) = 22.93761 28.72227 25.82994
#
# Velocity S-wave (km/s) = 3.14572 3.52010 3.33816
# Velocity P-wave (km/s) = 4.84946 5.58456 5.22994
#
# Compressibility (1/GPa) = 0.04179032
#
# Stress axis : x y z
#
# Youngs Moduli (GPa) = 49.86909 82.02667 54.22632
#
# Poissons Ratio (x) = 0.24866 -0.04447
# Poissons Ratio (y) = 0.15117 0.12125
# Poissons Ratio (z) = -0.04090 0.18341
#
# Static dielectric constant tensor:
#      x y z
#    x 2.052290 0.000000 0.063800 
#    y 0.000000 1.868330 0.000000 
#    z 0.063800 0.000000 2.120830 
# 
# From -- ./inp_files/137948.got.cif
#   From: 2010.05.17/outbox.cif.g08.bks.cpg/sg15_69_cif.got.tgz:137948.got - 2010.06.03 18:47:42.
