data_PCOD9297178
_publ_section_title
;
Structure prediction by ZEFSAII (Michael W. Deem and Ramdas Pophale) SiO2 
 PCOD9297178
Probable space group: C 2/C
;
_chemical_formula_sum "Si O2"
_cell_formula_units_Z 48
_cell_length_a 15.289259
_cell_length_b 10.343040
_cell_length_c 13.769863
_cell_angle_alpha 90.000000
_cell_angle_beta 61.234559
_cell_angle_gamma 90.000000
_cell_volume 1908.816984
_symmetry_space_group_name_H-M "C 2/C"
_symmetry_group_IT_number 15
_symmetry_cell_setting 'monoclinic'
loop_
_space_group_symop_operation_xyz
x,y,z
-x,y,1/2-z
-x,-y,-z
x,-y,1/2+z
1/2+x,1/2+y,z
1/2-x,1/2+y,1/2-z
1/2-x,1/2-y,-z
1/2+x,1/2-y,1/2+z
loop_
_atom_site_type_symbol
_atom_site_label
_atom_site_fract_x
_atom_site_fract_y
_atom_site_fract_z
Si Si1 0.162619 0.792147 0.618094
Si Si2 0.030992 0.798643 0.514901
Si Si3 0.741914 0.065836 0.945418
Si Si4 0.488053 0.915524 0.873033
Si Si5 0.663980 0.445093 0.907857
Si Si6 0.827980 0.592903 0.715749
O O1 0.250000 0.750000 0.500000
O O2 0.066468 0.763626 0.604249
O O3 0.167854 0.702846 0.707469
O O4 0.193002 0.940031 0.620462
O O5 0.022402 0.699385 0.428949
O O6 0.921963 0.856952 0.587086
O O7 0.108593 0.914845 0.448293
O O8 0.725470 0.139507 0.853868
O O9 0.627717 0.046176 0.044371
O O10 0.803624 0.112639 0.004997
O O11 0.500000 0.887091 0.750000
O O12 0.563472 0.031817 0.858944
O O13 0.761837 0.475880 0.794803
#
# Coordination Sequence:
#
# PCOD9297178 Si02
#       6
#     8   8   8   8   8   8
#     4  11  21  49  77 104 147 200 247 308 369 444
#     4  10  24  46  79 106 151 194 249 310 369 449
#     4  11  25  46  73 109 154 191 254 312 373 450
#     4  12  25  46  72 115 154 193 250 314 379 440
#     4  10  23  50  72 109 148 196 247 305 378 447
#     4  12  25  43  79 110 150 198 254 307 374 446
#
# _framework density 25.146464000000002
#
# number of rings (size 3 to 8) (size 9 to 14) (size 15 to 20)
#    0.000    1.000    5.000    1.500    0.000    4.667 
#    0.000   13.333    0.000    0.000    0.000    0.000 
#    0.000    0.000    0.000    0.000    0.000    0.000 
#
# Total GULP energy -134360.687334 kJ/mol
# GULP energy per Si atom -5598.361972 kJ/mol
# Density = 2.508923 g / cm^3
# Si number density = 25.146464 Si / 1000 Ang^3
#
#
#
# Elastic Constant Matrix: (Units=GPa)
#
#
# Indices 1 2 3 4 5 6 
#
# 1 241.4915 68.0546 80.7039 0.0000 33.2729 0.0000
# 2 68.0546 82.7319 40.1873 0.0000 22.0836 0.0000
# 3 80.7039 40.1873 119.3681 0.0000 31.7527 0.0000
# 4 0.0000 0.0000 0.0000 39.4885 0.0000 -1.6377
# 5 33.2729 22.0836 31.7527 0.0000 64.0877 0.0000
# 6 0.0000 0.0000 0.0000 -1.6377 0.0000 51.1429
#
#
#
# Elastic Compliance Matrix: (Units=1/GPa)
#
#
# Indices 1 2 3 4 5 6 
#
# 1 0.006162 -0.003545 -0.002818 0.000000 -0.000581 0.000000
# 2 -0.003545 0.016994 -0.002599 0.000000 -0.002728 0.000000
# 3 -0.002818 -0.002599 0.012129 0.000000 -0.003651 0.000000
# 4 0.000000 0.000000 0.000000 0.025357 0.000000 0.000812
# 5 -0.000581 -0.002728 -0.003651 0.000000 0.018654 0.000000
# 6 0.000000 0.000000 0.000000 0.000812 0.000000 0.019579
#
#
# Mechanical properties :
#
#
# Convention : Reuss Voigt Hill
#
# Bulk Modulus (GPa) = 57.60067 91.27589 74.43828
# Shear Modulus (GPa) = 40.78814 47.92020 44.35417
#
# Velocity S-wave (km/s) = 4.03180 4.37010 4.20436
# Velocity P-wave (km/s) = 6.68055 7.86386 7.29623
#
# Compressibility (1/GPa) = 0.01736091
#
# Stress axis : x y z
#
# Youngs Moduli (GPa) = 162.29513 58.84569 82.44900
#
# Poissons Ratio (x) = 0.20858 0.23233
# Poissons Ratio (y) = 0.57526 0.21430
# Poissons Ratio (z) = 0.45732 0.15295
#
# Static dielectric constant tensor:
#      x y z
#    x 1.837330 0.000000 0.081900 
#    y 0.000000 1.767610 0.000000 
#    z 0.081900 0.000000 1.935380 
# 
# From -- ./inp_files/152452.got.cif
#   From: 2010.05.17/outbox.cif.g08.bks.cpg/sg15_77_cif.got.tgz:152452.got - 2010.06.03 18:47:42.
