data_PCOD9297348
_publ_section_title
;
Structure prediction by ZEFSAII (Michael W. Deem and Ramdas Pophale) SiO2 
 PCOD9297348
Probable space group: C 2/C
;
_chemical_formula_sum "Si O2"
_cell_formula_units_Z 44
_cell_length_a 24.113099
_cell_length_b 13.059354
_cell_length_c 16.003591
_cell_angle_alpha 90.000000
_cell_angle_beta 159.188075
_cell_angle_gamma 90.000000
_cell_volume 1790.561463
_symmetry_space_group_name_H-M "C 2/C"
_symmetry_group_IT_number 15
_symmetry_cell_setting 'monoclinic'
loop_
_space_group_symop_operation_xyz
x,y,z
-x,y,1/2-z
-x,-y,-z
x,-y,1/2+z
1/2+x,1/2+y,z
1/2-x,1/2+y,1/2-z
1/2-x,1/2-y,-z
1/2+x,1/2-y,1/2+z
loop_
_atom_site_type_symbol
_atom_site_label
_atom_site_fract_x
_atom_site_fract_y
_atom_site_fract_z
Si Si1 0.984660 0.194213 0.380066
Si Si2 0.724713 0.619857 0.020650
Si Si3 0.738389 0.569170 0.844902
Si Si4 0.747169 0.831369 0.677546
Si Si5 0.000000 0.958339 0.750000
Si Si6 0.007857 0.284986 0.870620
O O1 0.095698 0.132774 0.602888
O O2 0.081191 0.287057 0.473760
O O3 0.965166 0.112261 0.279179
O O4 0.822948 0.217802 0.199842
O O5 0.729867 0.575894 0.933155
O O6 0.646966 0.534511 0.968461
O O7 0.614720 0.719360 0.856441
O O8 0.896289 0.660885 0.282606
O O9 0.744937 0.452144 0.825286
O O10 0.893022 0.624951 0.030097
O O11 0.868414 0.793514 0.918187
#
# Coordination Sequence:
#
# PCOD9297348 Si02
#       6
#     8   8   8   8   4   8
#     4  11  25  44  68  98 134 185 230 285 340 422
#     4  11  23  41  69 102 142 169 232 292 342 405
#     4  11  22  46  70  95 137 185 224 279 359 407
#     4  11  23  45  69  96 141 182 225 280 351 411
#     4  12  26  42  66  98 134 184 232 282 350 402
#     4  10  24  39  70 107 131 174 230 288 342 409
#
# _framework density 24.573298000000001
#
# number of rings (size 3 to 8) (size 9 to 14) (size 15 to 20)
#    0.000    1.091    3.636    2.182    5.091    3.636 
#    3.273    3.636    0.000    0.000    0.000    0.000 
#    0.000    0.000    0.000    0.000    0.000    0.000 
#
# Total GULP energy -123218.038583 kJ/mol
# GULP energy per Si atom -5600.819936 kJ/mol
# Density = 2.451737 g / cm^3
# Si number density = 24.573298 Si / 1000 Ang^3
#
#
#
# Elastic Constant Matrix: (Units=GPa)
#
#
# Indices 1 2 3 4 5 6 
#
# 1 104.5099 42.3657 24.4927 0.0000 29.5830 0.0000
# 2 42.3657 140.3697 35.8807 0.0000 17.9558 0.0000
# 3 24.4927 35.8807 57.6358 0.0000 25.4049 0.0000
# 4 0.0000 0.0000 0.0000 29.8505 0.0000 13.9825
# 5 29.5830 17.9558 25.4049 0.0000 44.5223 0.0000
# 6 0.0000 0.0000 0.0000 13.9825 0.0000 45.2815
#
#
#
# Elastic Compliance Matrix: (Units=1/GPa)
#
#
# Indices 1 2 3 4 5 6 
#
# 1 0.012851 -0.002824 -0.000589 0.000000 -0.007064 0.000000
# 2 -0.002824 0.009103 -0.004911 0.000000 0.001008 0.000000
# 3 -0.000589 -0.004911 0.026203 0.000000 -0.012580 0.000000
# 4 0.000000 0.000000 0.000000 0.039165 0.000000 -0.012094
# 5 -0.007064 0.001008 -0.012580 0.000000 0.033926 0.000000
# 6 0.000000 0.000000 0.000000 -0.012094 0.000000 0.025819
#
#
# Mechanical properties :
#
#
# Convention : Reuss Voigt Hill
#
# Bulk Modulus (GPa) = 31.73844 56.44372 44.09108
# Shear Modulus (GPa) = 28.69971 37.24928 32.97450
#
# Velocity S-wave (km/s) = 3.42120 3.89761 3.66715
# Velocity P-wave (km/s) = 5.34322 6.57834 5.99268
#
# Compressibility (1/GPa) = 0.03150753
#
# Stress axis : x y z
#
# Youngs Moduli (GPa) = 77.81523 109.85525 38.16386
#
# Poissons Ratio (x) = 0.31028 0.02249
# Poissons Ratio (y) = 0.21978 0.18742
# Poissons Ratio (z) = 0.04586 0.53948
#
# Static dielectric constant tensor:
#      x y z
#    x 2.079550 0.000000 0.020600 
#    y 0.000000 1.897220 0.000000 
#    z 0.020600 0.000000 1.980040 
# 
# From -- ./inp_files/94977.got.cif
#   From: 2010.05.17/outbox.cif.g08.bks.cpg/sg15_48_cif.got.tgz:94977.got - 2010.06.03 18:47:42.
