data_PCOD9297373
_publ_section_title
;
Structure prediction by ZEFSAII (Michael W. Deem and Ramdas Pophale) SiO2 
 PCOD9297373
Probable space group: C 2/C
;
_chemical_formula_sum "Si O2"
_cell_formula_units_Z 52
_cell_length_a 18.839980
_cell_length_b 11.783534
_cell_length_c 16.071092
_cell_angle_alpha 90.000000
_cell_angle_beta 44.076726
_cell_angle_gamma 90.000000
_cell_volume 2481.841758
_symmetry_space_group_name_H-M "C 2/C"
_symmetry_group_IT_number 15
_symmetry_cell_setting 'monoclinic'
loop_
_space_group_symop_operation_xyz
x,y,z
-x,y,1/2-z
-x,-y,-z
x,-y,1/2+z
1/2+x,1/2+y,z
1/2-x,1/2+y,1/2-z
1/2-x,1/2-y,-z
1/2+x,1/2-y,1/2+z
loop_
_atom_site_type_symbol
_atom_site_label
_atom_site_fract_x
_atom_site_fract_y
_atom_site_fract_z
Si Si1 0.500000 0.092773 0.250000
Si Si2 0.470570 0.374375 0.556775
Si Si3 0.409161 0.779497 0.673659
Si Si4 0.175602 0.431411 0.039597
Si Si5 0.350108 0.679657 0.482890
Si Si6 0.622025 0.001919 0.398544
Si Si7 0.222583 0.725254 0.760825
O O1 0.528117 0.173751 0.302703
O O2 0.597940 0.012471 0.153644
O O3 0.500000 0.500000 0.500000
O O4 0.515567 0.287635 0.450234
O O5 0.538896 0.358043 0.581251
O O6 0.355039 0.332232 0.669466
O O7 0.356983 0.887126 0.672658
O O8 0.304477 0.709411 0.767958
O O9 0.288054 0.415756 0.984166
O O10 0.139523 0.299834 0.072317
O O11 0.167000 0.476813 0.952344
O O12 0.283998 0.710151 0.622054
O O13 0.500000 0.000000 0.500000
O O14 0.655568 0.887620 0.326508
#
# Coordination Sequence:
#
# PCOD9297373 Si02
#       7
#     4   8   8   8   8   8   8
#     4  12  24  40  72  94 134 176 216 282 322 386
#     4  11  24  43  65  94 136 173 213 273 329 396
#     4  11  25  42  66 101 126 170 232 263 328 402
#     4  11  22  39  65  99 130 161 221 277 316 380
#     4  10  24  40  62 102 129 162 228 267 324 399
#     4  12  20  43  68  93 126 174 226 273 317 393
#     4  11  23  41  72  89 130 178 214 273 336 383
#
# _framework density 20.952181
#
# number of rings (size 3 to 8) (size 9 to 14) (size 15 to 20)
#    0.000    0.923    6.154    0.923    8.615    0.000 
#    2.769    1.538    0.000    0.000    0.000    0.000 
#    0.000    0.000    0.000    0.000    0.000    0.000 
#
# Total GULP energy -145016.838258 kJ/mol
# GULP energy per Si atom -5577.570702 kJ/mol
# Density = 2.090449 g / cm^3
# Si number density = 20.952181 Si / 1000 Ang^3
#
#
#
# Elastic Constant Matrix: (Units=GPa)
#
#
# Indices 1 2 3 4 5 6 
#
# 1 139.2917 8.5836 26.9122 0.0000 -9.5743 0.0000
# 2 8.5836 52.6656 7.0574 0.0000 2.0888 0.0000
# 3 26.9122 7.0574 39.3243 0.0000 -19.9170 0.0000
# 4 0.0000 0.0000 0.0000 11.6342 0.0000 1.8424
# 5 -9.5743 2.0888 -19.9170 0.0000 33.1397 0.0000
# 6 0.0000 0.0000 0.0000 1.8424 0.0000 42.7074
#
#
#
# Elastic Compliance Matrix: (Units=1/GPa)
#
#
# Indices 1 2 3 4 5 6 
#
# 1 0.008333 -0.000459 -0.006306 0.000000 -0.001353 0.000000
# 2 -0.000459 0.020022 -0.005729 0.000000 -0.004838 0.000000
# 3 -0.006306 -0.005729 0.043176 0.000000 0.024488 0.000000
# 4 0.000000 0.000000 0.000000 0.086544 0.000000 -0.003734
# 5 -0.001353 -0.004838 0.024488 0.000000 0.044807 0.000000
# 6 0.000000 0.000000 0.000000 -0.003734 0.000000 0.023576
#
#
# Mechanical properties :
#
#
# Convention : Reuss Voigt Hill
#
# Bulk Modulus (GPa) = 21.48587 35.15423 28.32005
# Shear Modulus (GPa) = 18.72934 30.07817 24.40375
#
# Velocity S-wave (km/s) = 2.99307 3.79299 3.41652
# Velocity P-wave (km/s) = 4.71398 5.99976 5.39531
#
# Compressibility (1/GPa) = 0.04654222
#
# Stress axis : x y z
#
# Youngs Moduli (GPa) = 120.00817 49.94450 23.16107
#
# Poissons Ratio (x) = 0.02295 0.14605
# Poissons Ratio (y) = 0.05514 0.13270
# Poissons Ratio (z) = 0.75673 0.28614
#
# Static dielectric constant tensor:
#      x y z
#    x 1.904670 0.000000 -0.062760 
#    y 0.000000 2.006310 0.000000 
#    z -0.062760 0.000000 1.772930 
# 
# From -- ./inp_files/215006.got.cif
#   From: 2010.05.17/outbox.cif.g08.bks.cpg/sg15_108_cif.got.tgz:215006.got - 2010.06.03 18:47:42.
