data_PCOD9297347
_publ_section_title
;
Structure prediction by ZEFSAII (Michael W. Deem and Ramdas Pophale) SiO2 
 PCOD9297347
Probable space group: C 2/C
;
_chemical_formula_sum "Si O2"
_cell_formula_units_Z 40
_cell_length_a 10.821525
_cell_length_b 8.858504
_cell_length_c 18.339057
_cell_angle_alpha 90.000000
_cell_angle_beta 64.707087
_cell_angle_gamma 90.000000
_cell_volume 1589.495594
_symmetry_space_group_name_H-M "C 2/C"
_symmetry_group_IT_number 15
_symmetry_cell_setting 'monoclinic'
loop_
_space_group_symop_operation_xyz
x,y,z
-x,y,1/2-z
-x,-y,-z
x,-y,1/2+z
1/2+x,1/2+y,z
1/2-x,1/2+y,1/2-z
1/2-x,1/2-y,-z
1/2+x,1/2-y,1/2+z
loop_
_atom_site_type_symbol
_atom_site_label
_atom_site_fract_x
_atom_site_fract_y
_atom_site_fract_z
Si Si1 0.991313 0.131402 0.942336
Si Si2 0.402060 0.469961 0.840897
Si Si3 0.212285 0.258447 0.791143
Si Si4 0.412847 0.215714 0.950957
Si Si5 0.065163 0.452014 0.307464
O O1 0.129141 0.138828 0.859966
O O2 0.007331 0.272922 0.992780
O O3 0.878254 0.100878 0.907893
O O4 0.000000 0.000000 0.000000
O O5 0.500000 0.519711 0.750000
O O6 0.287500 0.372093 0.828818
O O7 0.463826 0.343170 0.880214
O O8 0.111800 0.378294 0.780415
O O9 0.305595 0.159690 0.714446
O O10 0.454868 0.063810 0.899014
O O11 0.250000 0.250000 0.000000
O O12 0.000000 0.390593 0.250000
#
# Coordination Sequence:
#
# PCOD9297347 Si02
#       5
#     8   8   8   8   8
#     4  10  24  39  70 103 140 184 233 294 356 423
#     4  11  20  41  69  96 136 187 235 282 359 425
#     4  12  24  44  72 103 139 190 243 293 362 430
#     4  11  20  43  69  98 144 188 231 293 360 423
#     4  12  26  45  73 107 142 192 242 296 358 435
#
# _framework density 25.165215
#
# number of rings (size 3 to 8) (size 9 to 14) (size 15 to 20)
#    0.000    0.800    6.000    1.200    2.800    3.200 
#    0.000    1.000    0.000    0.000    0.000    0.000 
#    0.000    0.000    0.000    0.000    0.000    0.000 
#
# Total GULP energy -111461.707165 kJ/mol
# GULP energy per Si atom -5573.085358 kJ/mol
# Density = 2.510794 g / cm^3
# Si number density = 25.165215 Si / 1000 Ang^3
#
#
#
# Elastic Constant Matrix: (Units=GPa)
#
#
# Indices 1 2 3 4 5 6 
#
# 1 67.3295 39.8785 36.8741 0.0000 10.3075 0.0000
# 2 39.8785 89.1981 43.7977 0.0000 -12.0840 0.0000
# 3 36.8741 43.7977 131.3171 0.0000 6.9638 0.0000
# 4 0.0000 0.0000 0.0000 30.9395 0.0000 -1.9114
# 5 10.3075 -12.0840 6.9638 0.0000 49.7895 0.0000
# 6 0.0000 0.0000 0.0000 -1.9114 0.0000 36.9789
#
#
#
# Elastic Compliance Matrix: (Units=1/GPa)
#
#
# Indices 1 2 3 4 5 6 
#
# 1 0.023383 -0.009971 -0.002877 0.000000 -0.006858 0.000000
# 2 -0.009971 0.018458 -0.003731 0.000000 0.007066 0.000000
# 3 -0.002877 -0.003731 0.009756 0.000000 -0.001675 0.000000
# 4 0.000000 0.000000 0.000000 0.032425 0.000000 0.001676
# 5 -0.006858 0.007066 -0.001675 0.000000 0.023453 0.000000
# 6 0.000000 0.000000 0.000000 0.001676 0.000000 0.027129
#
#
# Mechanical properties :
#
#
# Convention : Reuss Voigt Hill
#
# Bulk Modulus (GPa) = 54.22968 58.77172 56.50070
# Shear Modulus (GPa) = 28.75066 34.69454 31.72260
#
# Velocity S-wave (km/s) = 3.38372 3.71707 3.55431
# Velocity P-wave (km/s) = 6.07144 6.46740 6.27254
#
# Compressibility (1/GPa) = 0.01844009
#
# Stress axis : x y z
#
# Youngs Moduli (GPa) = 42.76534 54.17719 102.49873
#
# Poissons Ratio (x) = 0.54019 0.29488
# Poissons Ratio (y) = 0.42640 0.38243
# Poissons Ratio (z) = 0.12303 0.20214
#
# Static dielectric constant tensor:
#      x y z
#    x 2.141290 0.000000 -0.016960 
#    y 0.000000 2.171540 0.000000 
#    z -0.016960 0.000000 1.965540 
# 
# From -- ./inp_files/235709.got.cif
#   From: 2010.05.17/outbox.cif.g08.bks.cpg/sg15_118_cif.got.tgz:235709.got - 2010.06.03 18:47:42.
