data_PCOD9297182
_publ_section_title
;
Structure prediction by ZEFSAII (Michael W. Deem and Ramdas Pophale) SiO2 
 PCOD9297182
Probable space group: C 2/C
;
_chemical_formula_sum "Si O2"
_cell_formula_units_Z 48
_cell_length_a 7.170137
_cell_length_b 6.740187
_cell_length_c 30.128222
_cell_angle_alpha 90.000000
_cell_angle_beta 98.562858
_cell_angle_gamma 90.000000
_cell_volume 1439.808344
_symmetry_space_group_name_H-M "C 2/C"
_symmetry_group_IT_number 15
_symmetry_cell_setting 'monoclinic'
loop_
_space_group_symop_operation_xyz
x,y,z
-x,y,1/2-z
-x,-y,-z
x,-y,1/2+z
1/2+x,1/2+y,z
1/2-x,1/2+y,1/2-z
1/2-x,1/2-y,-z
1/2+x,1/2-y,1/2+z
loop_
_atom_site_type_symbol
_atom_site_label
_atom_site_fract_x
_atom_site_fract_y
_atom_site_fract_z
Si Si1 0.588799 0.497574 0.893671
Si Si2 0.028537 0.591128 0.299068
Si Si3 0.529617 0.005614 0.894855
Si Si4 0.895972 0.249381 0.034233
Si Si5 0.886489 0.024927 0.202072
Si Si6 0.897650 0.750492 0.034694
O O1 0.807213 0.514867 0.889899
O O2 0.590554 0.502169 0.954520
O O3 0.504655 0.468076 0.840953
O O4 0.552777 0.745960 0.904795
O O5 0.101108 0.491292 0.346728
O O6 0.810693 0.639130 0.303975
O O7 0.000000 0.491587 0.250000
O O8 0.148885 0.787951 0.295273
O O9 0.569605 0.253810 0.908054
O O10 0.605332 0.997376 0.953104
O O11 0.639293 0.243982 0.023226
O O12 0.139473 0.255273 0.023584
O O13 0.000000 0.073409 0.250000
#
# Coordination Sequence:
#
# PCOD9297182 Si02
#       6
#     8   8   8   8   8   8
#     4  11  23  44  68 100 136 186 238 296 362 434
#     4  10  23  50  78 107 144 193 248 309 380 453
#     4  11  23  45  67  97 141 185 235 297 366 431
#     4  12  24  41  64 100 138 185 239 295 355 430
#     4  10  23  50  77 109 146 189 247 313 379 451
#     4  12  22  41  66  92 136 185 235 294 354 430
#
# _framework density 33.337772999999999
#
# number of rings (size 3 to 8) (size 9 to 14) (size 15 to 20)
#    0.000    1.000    5.000    2.000    0.000    0.000 
#   30.000    0.000    0.000    0.000    0.000    0.000 
#    0.000    0.000    0.000    0.000    0.000    0.000 
#
# Total GULP energy -134489.506410 kJ/mol
# GULP energy per Si atom -5603.729434 kJ/mol
# Density = 3.326189 g / cm^3
# Si number density = 33.337773 Si / 1000 Ang^3
#
#
#
# Elastic Constant Matrix: (Units=GPa)
#
#
# Indices 1 2 3 4 5 6 
#
# 1 240.2032 78.6995 62.6320 0.0000 -21.1836 0.0000
# 2 78.6995 368.9881 147.4347 0.0000 -7.0989 0.0000
# 3 62.6320 147.4347 416.1510 0.0000 -20.0944 0.0000
# 4 0.0000 0.0000 0.0000 31.9797 0.0000 -1.8210
# 5 -21.1836 -7.0989 -20.0944 0.0000 45.8526 0.0000
# 6 0.0000 0.0000 0.0000 -1.8210 0.0000 99.5757
#
#
#
# Elastic Compliance Matrix: (Units=1/GPa)
#
#
# Indices 1 2 3 4 5 6 
#
# 1 0.004687 -0.000836 -0.000318 0.000000 0.001897 0.000000
# 2 -0.000836 0.003306 -0.001062 0.000000 -0.000340 0.000000
# 3 -0.000318 -0.001062 0.002873 0.000000 0.000948 0.000000
# 4 0.000000 0.000000 0.000000 0.031302 0.000000 0.000572
# 5 0.001897 -0.000340 0.000948 0.000000 0.023048 0.000000
# 6 0.000000 0.000000 0.000000 0.000572 0.000000 0.010053
#
#
# Mechanical properties :
#
#
# Convention : Reuss Voigt Hill
#
# Bulk Modulus (GPa) = 155.40800 178.09721 166.75260
# Shear Modulus (GPa) = 61.09012 84.58667 72.83840
#
# Velocity S-wave (km/s) = 4.28537 5.04259 4.67932
# Velocity P-wave (km/s) = 8.43820 9.35102 8.90631
#
# Compressibility (1/GPa) = 0.00643468
#
# Stress axis : x y z
#
# Youngs Moduli (GPa) = 213.34515 302.45797 348.09982
#
# Poissons Ratio (x) = 0.25296 0.11054
# Poissons Ratio (y) = 0.17843 0.36964
# Poissons Ratio (z) = 0.06775 0.32117
#
# Static dielectric constant tensor:
#      x y z
#    x 3.411050 0.000000 0.391940 
#    y 0.000000 2.578190 0.000000 
#    z 0.391940 0.000000 2.830800 
# 
# From -- ./inp_files/306637.got.cif
#   From: 2010.05.17/outbox.cif.g08.bks.cpg/sg15_154_cif.got.tgz:306637.got - 2010.06.03 18:47:42.
