data_PCOD9297070
_publ_section_title
;
Structure prediction by ZEFSAII (Michael W. Deem and Ramdas Pophale) SiO2 
 PCOD9297070
Probable space group: C 2/C
;
_chemical_formula_sum "Si O2"
_cell_formula_units_Z 40
_cell_length_a 10.872712
_cell_length_b 10.574375
_cell_length_c 25.416537
_cell_angle_alpha 90.000000
_cell_angle_beta 36.818967
_cell_angle_gamma 90.000000
_cell_volume 1751.237358
_symmetry_space_group_name_H-M "C 2/C"
_symmetry_group_IT_number 15
_symmetry_cell_setting 'monoclinic'
loop_
_space_group_symop_operation_xyz
x,y,z
-x,y,1/2-z
-x,-y,-z
x,-y,1/2+z
1/2+x,1/2+y,z
1/2-x,1/2+y,1/2-z
1/2-x,1/2-y,-z
1/2+x,1/2-y,1/2+z
loop_
_atom_site_type_symbol
_atom_site_label
_atom_site_fract_x
_atom_site_fract_y
_atom_site_fract_z
Si Si1 0.555294 0.775652 0.102966
Si Si2 0.137449 0.386396 0.428983
Si Si3 0.002735 0.516132 0.809426
Si Si4 0.179067 0.848340 0.980491
Si Si5 0.027389 0.987504 0.355784
O O1 0.410959 0.864640 0.115607
O O2 0.607068 0.852879 0.137800
O O3 0.472776 0.638982 0.146019
O O4 0.750000 0.750000 0.000000
O O5 0.084011 0.247593 0.470808
O O6 0.365163 0.425471 0.370578
O O7 0.000000 0.500000 0.500000
O O8 0.876837 0.415689 0.887199
O O9 0.000000 0.475255 0.750000
O O10 0.241392 0.547652 0.735917
O O11 0.250000 0.750000 0.000000
O O12 0.040233 0.945554 0.061582
#
# Coordination Sequence:
#
# PCOD9297070 Si02
#       5
#     8   8   8   8   8
#     4  12  24  47  73 103 151 195 251 308 385 456
#     4  11  23  44  75 108 144 195 253 309 379 464
#     4  12  28  47  72 113 147 195 254 316 386 460
#     4  10  23  47  75 106 150 194 246 309 386 459
#     4  11  26  46  76 107 148 198 249 316 384 456
#
# _framework density 22.840993000000001
#
# number of rings (size 3 to 8) (size 9 to 14) (size 15 to 20)
#    0.000    0.800    4.000    2.400    8.400    2.400 
#    3.600    0.000    0.000    0.000    0.000    0.000 
#    0.000    0.000    0.000    0.000    0.000    0.000 
#
# Total GULP energy -111665.469328 kJ/mol
# GULP energy per Si atom -5583.273466 kJ/mol
# Density = 2.278901 g / cm^3
# Si number density = 22.840993 Si / 1000 Ang^3
#
#
#
# Elastic Constant Matrix: (Units=GPa)
#
#
# Indices 1 2 3 4 5 6 
#
# 1 90.4983 14.8370 49.8422 0.0000 -7.2325 0.0000
# 2 14.8370 105.9243 39.2562 -0.0001 4.6380 0.0000
# 3 49.8422 39.2562 169.2889 -0.0001 0.8216 0.0000
# 4 0.0000 -0.0001 -0.0001 30.2420 0.0000 2.7412
# 5 -7.2325 4.6380 0.8216 0.0000 43.2589 0.0000
# 6 0.0000 0.0000 0.0000 2.7412 0.0000 37.6902
#
#
#
# Elastic Compliance Matrix: (Units=1/GPa)
#
#
# Indices 1 2 3 4 5 6 
#
# 1 0.013448 -0.000565 -0.003840 0.000000 0.002382 0.000000
# 2 -0.000565 0.010401 -0.002240 0.000000 -0.001167 0.000000
# 3 -0.003840 -0.002240 0.007560 0.000000 -0.000545 0.000000
# 4 0.000000 0.000000 0.000000 0.033286 0.000000 -0.002421
# 5 0.002382 -0.001167 -0.000545 0.000000 0.023650 0.000000
# 6 0.000000 0.000000 0.000000 -0.002421 0.000000 0.026708
#
#
# Mechanical properties :
#
#
# Convention : Reuss Voigt Hill
#
# Bulk Modulus (GPa) = 55.19025 63.73138 59.46081
# Shear Modulus (GPa) = 37.20737 39.68995 38.44866
#
# Velocity S-wave (km/s) = 4.04043 4.17305 4.10728
# Velocity P-wave (km/s) = 6.78101 7.15415 6.97008
#
# Compressibility (1/GPa) = 0.01811914
#
# Stress axis : x y z
#
# Youngs Moduli (GPa) = 74.36207 96.14410 132.28112
#
# Poissons Ratio (x) = 0.05431 0.50794
# Poissons Ratio (y) = 0.04200 0.29630
# Poissons Ratio (z) = 0.28554 0.21535
#
# Static dielectric constant tensor:
#      x y z
#    x 1.907830 0.000000 0.215990 
#    y 0.000000 1.847090 0.000000 
#    z 0.215990 0.000000 1.702340 
# 
# From -- ./inp_files/237374.got.cif
#   From: 2010.05.17/outbox.cif.g08.bks.cpg/sg15_119_cif.got.tgz:237374.got - 2010.06.03 18:47:42.
