data_PCOD9297422
_publ_section_title
;
Structure prediction by ZEFSAII (Michael W. Deem and Ramdas Pophale) SiO2 
 PCOD9297422
Probable space group: C 2/C
;
_chemical_formula_sum "Si O2"
_cell_formula_units_Z 32
_cell_length_a 6.382283
_cell_length_b 32.996435
_cell_length_c 8.447559
_cell_angle_alpha 90.000000
_cell_angle_beta 57.471239
_cell_angle_gamma 90.000000
_cell_volume 1499.907726
_symmetry_space_group_name_H-M "C 2/C"
_symmetry_group_IT_number 15
_symmetry_cell_setting 'monoclinic'
loop_
_space_group_symop_operation_xyz
x,y,z
-x,y,1/2-z
-x,-y,-z
x,-y,1/2+z
1/2+x,1/2+y,z
1/2-x,1/2+y,1/2-z
1/2-x,1/2-y,-z
1/2+x,1/2-y,1/2+z
loop_
_atom_site_type_symbol
_atom_site_label
_atom_site_fract_x
_atom_site_fract_y
_atom_site_fract_z
Si Si1 0.000000 0.322255 0.250000
Si Si2 0.511993 0.638800 0.436837
Si Si3 0.781927 0.057420 0.596076
Si Si4 0.750281 0.703533 0.550987
Si Si5 0.500000 0.506629 0.250000
O O1 0.750466 0.346258 0.387000
O O2 0.961600 0.299862 0.098190
O O3 0.500000 0.640157 0.250000
O O4 0.495646 0.592338 0.503435
O O5 0.721654 0.669001 0.425908
O O6 0.500000 0.071086 0.750000
O O7 0.803547 0.035484 0.418086
O O8 0.858633 0.022955 0.688150
O O9 0.500000 0.697496 0.750000
O O10 0.750000 0.750000 0.500000
#
# Coordination Sequence:
#
# PCOD9297422 Si02
#       5
#     4   8   8   8   4
#     4  10  24  44  63  90 128 168 212 273 322 384
#     4  11  24  40  66  94 129 170 222 265 322 391
#     4  11  22  42  65  93 130 173 211 268 325 386
#     4  10  25  42  65  95 126 170 217 272 332 387
#     4  10  24  40  65  96 132 166 218 263 320 396
#
# _framework density 21.334648000000001
#
# number of rings (size 3 to 8) (size 9 to 14) (size 15 to 20)
#    0.000    1.500    2.500    0.750   10.500    2.000 
#    0.000    0.000    0.000    0.000    0.000    0.000 
#    0.000    0.000    0.000    0.000    0.000    0.000 
#
# Total GULP energy -89076.476610 kJ/mol
# GULP energy per Si atom -5567.279788 kJ/mol
# Density = 2.128609 g / cm^3
# Si number density = 21.334648 Si / 1000 Ang^3
#
#
#
# Elastic Constant Matrix: (Units=GPa)
#
#
# Indices 1 2 3 4 5 6 
#
# 1 61.1785 41.9353 24.3025 0.0000 8.7765 0.0000
# 2 41.9353 141.0235 44.4369 0.0000 20.9811 0.0000
# 3 24.3025 44.4369 112.0481 0.0000 8.6356 0.0000
# 4 0.0000 0.0000 0.0000 14.8704 0.0000 -15.7228
# 5 8.7765 20.9811 8.6356 0.0000 29.7009 0.0000
# 6 0.0000 0.0000 0.0000 -15.7228 0.0000 8.4756
#
#
#
# Elastic Compliance Matrix: (Units=1/GPa)
#
#
# Indices 1 2 3 4 5 6 
#
# 1 0.021162 -0.005277 -0.002355 0.000000 -0.001841 0.000000
# 2 -0.005277 0.010182 -0.002516 0.000000 -0.004902 0.000000
# 3 -0.002355 -0.002516 0.010478 0.000000 -0.000573 0.000000
# 4 0.000000 0.000000 0.000000 -0.069947 0.000000 -0.129757
# 5 -0.001841 -0.004902 -0.000573 0.000000 0.037843 0.000000
# 6 0.000000 0.000000 0.000000 -0.129757 0.000000 -0.122723
#
#
# Mechanical properties :
#
#
# Convention : Reuss Voigt Hill
#
# Bulk Modulus (GPa) = 46.45533 59.51104 52.98318
# Shear Modulus (GPa) = -58.45640 24.18105 -17.13767
#
# Velocity S-wave (km/s) = -5.24016 3.37028 -2.83729
# Velocity P-wave (km/s) = 3.84583 6.56503 3.76226
#
# Compressibility (1/GPa) = 0.02152606
#
# Stress axis : x y z
#
# Youngs Moduli (GPa) = 47.25360 98.21039 95.44244
#
# Poissons Ratio (x) = 0.51824 0.22480
# Poissons Ratio (y) = 0.24935 0.24012
# Poissons Ratio (z) = 0.11130 0.24708
#
# Static dielectric constant tensor:
#      x y z
#    x 1.855720 0.000000 0.061350 
#    y 0.000000 1.992810 0.000000 
#    z 0.061350 0.000000 1.815900 
# 
# From -- ./inp_files/20178.got.cif
#   From: 2010.05.17/outbox.cif.g08.bks.cpg/sg15_11_cif.got.tgz:20178.got - 2010.06.03 18:47:42.
