data_PCOD9297747
_publ_section_title
;
Structure prediction by ZEFSAII (Michael W. Deem and Ramdas Pophale) SiO2 
 PCOD9297747
Probable space group: C 2/C
;
_chemical_formula_sum "Si O2"
_cell_formula_units_Z 64
_cell_length_a 16.720908
_cell_length_b 8.766765
_cell_length_c 27.774341
_cell_angle_alpha 90.000000
_cell_angle_beta 135.159282
_cell_angle_gamma 90.000000
_cell_volume 2870.894866
_symmetry_space_group_name_H-M "C 2/C"
_symmetry_group_IT_number 15
_symmetry_cell_setting 'monoclinic'
loop_
_space_group_symop_operation_xyz
x,y,z
-x,y,1/2-z
-x,-y,-z
x,-y,1/2+z
1/2+x,1/2+y,z
1/2-x,1/2+y,1/2-z
1/2-x,1/2-y,-z
1/2+x,1/2-y,1/2+z
loop_
_atom_site_type_symbol
_atom_site_label
_atom_site_fract_x
_atom_site_fract_y
_atom_site_fract_z
Si Si1 0.577211 0.971013 0.122482
Si Si2 0.775313 0.573297 0.896675
Si Si3 0.125546 0.661162 0.901905
Si Si4 0.272464 0.926193 0.227520
Si Si5 0.198688 0.002217 0.965478
Si Si6 0.030958 0.816066 0.132245
Si Si7 0.392497 0.788163 0.732402
Si Si8 0.876375 0.205402 0.198205
O O1 0.605249 0.919244 0.080334
O O2 0.692980 0.936782 0.201863
O O3 0.544590 0.148218 0.115040
O O4 0.481192 0.881505 0.110790
O O5 0.771431 0.574467 0.952711
O O6 0.687470 0.694629 0.837522
O O7 0.721450 0.410805 0.858221
O O8 0.159322 0.833696 0.931057
O O9 0.109545 0.669337 0.838007
O O10 0.221271 0.537149 0.955648
O O11 0.320020 0.078561 0.224783
O O12 0.139820 0.910841 0.161351
O O13 0.338338 0.784897 0.231083
O O14 0.088912 0.104671 0.928131
O O15 0.053546 0.803025 0.199372
O O16 0.500000 0.850908 0.750000
O O17 0.000000 0.126376 0.250000
#
# Coordination Sequence:
#
# PCOD9297747 Si02
#       8
#     8   8   8   8   8   8   8   8
#     4  11  23  38  62  94 125 158 201 257 306 362
#     4  11  22  37  62  93 122 156 202 250 306 363
#     4  10  24  42  66  87 120 163 211 247 304 365
#     4  11  23  36  59  96 130 152 199 256 314 353
#     4  10  24  44  63  86 122 166 206 250 301 366
#     4  11  23  39  60  90 127 161 201 251 306 361
#     4  11  22  36  58  93 126 156 202 255 305 361
#     4  11  21  38  65  91 120 160 201 249 309 367
#
# _framework density 22.2927
#
# number of rings (size 3 to 8) (size 9 to 14) (size 15 to 20)
#    0.000    1.250    5.000    0.750    5.250    1.000 
#    0.000    0.625    0.000    0.000    0.000    0.000 
#    0.000    0.000    0.000    0.000    0.000    0.000 
#
# Total GULP energy -178937.137928 kJ/mol
# GULP energy per Si atom -5591.785560 kJ/mol
# Density = 2.224196 g / cm^3
# Si number density = 22.292700 Si / 1000 Ang^3
#
#
#
# Elastic Constant Matrix: (Units=GPa)
#
#
# Indices 1 2 3 4 5 6 
#
# 1 114.8305 4.3738 5.9912 0.0000 13.1250 0.0000
# 2 4.3738 31.7456 -6.2232 0.0000 1.7739 0.0000
# 3 5.9912 -6.2232 24.1474 0.0000 9.6132 0.0000
# 4 0.0000 0.0000 0.0000 13.7451 0.0000 9.2238
# 5 13.1250 1.7739 9.6132 0.0000 14.3127 0.0000
# 6 0.0000 0.0000 0.0000 9.2238 0.0000 31.6622
#
#
#
# Elastic Compliance Matrix: (Units=1/GPa)
#
#
# Indices 1 2 3 4 5 6 
#
# 1 0.009779 -0.000538 0.001336 0.000000 -0.009798 0.000000
# 2 -0.000538 0.035218 0.014675 0.000000 -0.013728 0.000000
# 3 0.001336 0.014675 0.062891 0.000000 -0.045285 0.000000
# 4 0.000000 0.000000 0.000000 0.090432 0.000000 -0.026345
# 5 -0.009798 -0.013728 -0.045285 0.000000 0.110971 0.000000
# 6 0.000000 0.000000 0.000000 -0.026345 0.000000 0.039258
#
#
# Mechanical properties :
#
#
# Convention : Reuss Voigt Hill
#
# Bulk Modulus (GPa) = 7.20281 19.88970 13.54625
# Shear Modulus (GPa) = 13.74070 23.04943 18.39506
#
# Velocity S-wave (km/s) = 2.48539 3.21899 2.87568
# Velocity P-wave (km/s) = 3.38736 4.77046 4.13712
#
# Compressibility (1/GPa) = 0.13883464
#
# Stress axis : x y z
#
# Youngs Moduli (GPa) = 102.25780 28.39420 15.90050
#
# Poissons Ratio (x) = 0.01528 -0.02124
# Poissons Ratio (y) = 0.05501 -0.23334
# Poissons Ratio (z) = -0.13659 -0.41669
#
# Static dielectric constant tensor:
#      x y z
#    x 1.834590 0.000000 -0.008780 
#    y 0.000000 1.815920 0.000000 
#    z -0.008780 0.000000 1.835650 
# 
# From -- ./inp_files/313157.got.cif
#   From: 2010.05.17/outbox.cif.g08.bks.cpg/sg15_157_cif.got.tgz:313157.got - 2010.06.03 18:47:42.
