data_PCOD9297013
_publ_section_title
;
Structure prediction by ZEFSAII (Michael W. Deem and Ramdas Pophale) SiO2 
 PCOD9297013
Probable space group: C 2/C
;
_chemical_formula_sum "Si O2"
_cell_formula_units_Z 40
_cell_length_a 5.384178
_cell_length_b 23.214536
_cell_length_c 13.476155
_cell_angle_alpha 90.000000
_cell_angle_beta 100.673185
_cell_angle_gamma 90.000000
_cell_volume 1655.259869
_symmetry_space_group_name_H-M "C 2/C"
_symmetry_group_IT_number 15
_symmetry_cell_setting 'monoclinic'
loop_
_space_group_symop_operation_xyz
x,y,z
-x,y,1/2-z
-x,-y,-z
x,-y,1/2+z
1/2+x,1/2+y,z
1/2-x,1/2+y,1/2-z
1/2-x,1/2-y,-z
1/2+x,1/2-y,1/2+z
loop_
_atom_site_type_symbol
_atom_site_label
_atom_site_fract_x
_atom_site_fract_y
_atom_site_fract_z
Si Si1 0.500000 0.371686 0.250000
Si Si2 0.893868 0.933260 0.884471
Si Si3 0.744034 0.040036 0.584829
Si Si4 0.583991 0.731043 0.631832
Si Si5 0.068312 0.200321 0.103608
Si Si6 0.500000 0.000111 0.250000
O O1 0.587114 0.414331 0.342815
O O2 0.336010 0.324258 0.296552
O O3 0.943374 0.866778 0.871833
O O4 0.740247 0.959972 0.782193
O O5 0.719977 0.936923 0.971816
O O6 0.126558 0.977181 0.917865
O O7 0.519488 0.034846 0.648830
O O8 0.338491 0.769274 0.646318
O O9 0.488438 0.707010 0.518322
O O10 0.831378 0.768906 0.636566
#
# Coordination Sequence:
#
# PCOD9297013 Si02
#       6
#     4   8   8   8   8   4
#     4  12  22  49  66 106 141 190 248 296 360 454
#     4  11  24  46  73 103 149 186 243 308 371 437
#     4  11  25  46  70 107 141 192 242 301 374 439
#     4  10  24  44  72 100 141 191 241 297 360 430
#     4  10  23  47  69 104 140 187 243 298 365 426
#     4  12  24  43  68 112 141 190 244 292 386 442
#
# _framework density 24.165391
#
# number of rings (size 3 to 8) (size 9 to 14) (size 15 to 20)
#    0.000    1.200    4.000    0.600    2.800    3.200 
#    7.200    0.000    0.000    0.000    0.000    0.000 
#    0.000    0.000    0.000    0.000    0.000    0.000 
#
# Total GULP energy -111702.032026 kJ/mol
# GULP energy per Si atom -5585.101601 kJ/mol
# Density = 2.411039 g / cm^3
# Si number density = 24.165391 Si / 1000 Ang^3
#
#
#
# Elastic Constant Matrix: (Units=GPa)
#
#
# Indices 1 2 3 4 5 6 
#
# 1 93.1766 40.2207 7.5178 0.0000 -12.0689 0.0000
# 2 40.2207 167.8996 8.8523 0.0000 -12.0837 0.0000
# 3 7.5178 8.8523 103.0446 0.0000 -19.8970 0.0000
# 4 0.0000 0.0000 0.0000 50.9030 0.0000 -7.7177
# 5 -12.0689 -12.0837 -19.8970 0.0000 37.2575 0.0000
# 6 0.0000 0.0000 0.0000 -7.7177 0.0000 21.9987
#
#
#
# Elastic Compliance Matrix: (Units=1/GPa)
#
#
# Indices 1 2 3 4 5 6 
#
# 1 0.012311 -0.002725 -0.000072 0.000000 0.003066 0.000000
# 2 -0.002725 0.006704 -0.000142 0.000000 0.001216 0.000000
# 3 -0.000072 -0.000142 0.010825 0.000000 0.005711 0.000000
# 4 0.000000 0.000000 0.000000 0.020749 0.000000 0.007279
# 5 0.003066 0.001216 0.005711 0.000000 0.031278 0.000000
# 6 0.000000 0.000000 0.000000 0.007279 0.000000 0.048011
#
#
# Mechanical properties :
#
#
# Convention : Reuss Voigt Hill
#
# Bulk Modulus (GPa) = 41.73399 53.03360 47.38379
# Shear Modulus (GPa) = 34.78427 42.53383 38.65905
#
# Velocity S-wave (km/s) = 3.79809 4.19992 4.00405
# Velocity P-wave (km/s) = 6.04497 6.74632 6.40525
#
# Compressibility (1/GPa) = 0.02396128
#
# Stress axis : x y z
#
# Youngs Moduli (GPa) = 81.22538 149.17234 92.38012
#
# Poissons Ratio (x) = 0.40646 0.00666
# Poissons Ratio (y) = 0.22132 0.01315
# Poissons Ratio (z) = 0.00586 0.02124
#
# Static dielectric constant tensor:
#      x y z
#    x 1.981200 0.000000 -0.051390 
#    y 0.000000 1.865580 0.000000 
#    z -0.051390 0.000000 1.993390 
# 
# From -- ./inp_files/129196.got.cif
#   From: 2010.05.17/outbox.cif.g08.bks.cpg/sg15_65_cif.got.tgz:129196.got - 2010.06.03 18:47:42.
