data_PCOD9297823
_publ_section_title
;
Structure prediction by ZEFSAII (Michael W. Deem and Ramdas Pophale) SiO2 
 PCOD9297823
Probable space group: C 2/C
;
_chemical_formula_sum "Si O2"
_cell_formula_units_Z 44
_cell_length_a 7.166651
_cell_length_b 28.054661
_cell_length_c 11.916812
_cell_angle_alpha 90.000000
_cell_angle_beta 54.239391
_cell_angle_gamma 90.000000
_cell_volume 1944.247651
_symmetry_space_group_name_H-M "C 2/C"
_symmetry_group_IT_number 15
_symmetry_cell_setting 'monoclinic'
loop_
_space_group_symop_operation_xyz
x,y,z
-x,y,1/2-z
-x,-y,-z
x,-y,1/2+z
1/2+x,1/2+y,z
1/2-x,1/2+y,1/2-z
1/2-x,1/2-y,-z
1/2+x,1/2-y,1/2+z
loop_
_atom_site_type_symbol
_atom_site_label
_atom_site_fract_x
_atom_site_fract_y
_atom_site_fract_z
Si Si1 0.816193 0.041751 0.713369
Si Si2 0.721184 0.436634 0.754803
Si Si3 0.020074 0.399167 0.034022
Si Si4 0.500000 0.233979 0.250000
Si Si5 0.972642 0.873780 0.997361
Si Si6 0.725811 0.811231 0.468458
O O1 0.579150 0.062756 0.844821
O O2 0.915168 0.081037 0.595501
O O3 0.000000 0.038897 0.750000
O O4 0.778946 0.987777 0.685319
O O5 0.500000 0.437014 0.750000
O O6 0.929197 0.427294 0.598127
O O7 0.684873 0.392102 0.848324
O O8 0.245803 0.371863 0.000176
O O9 0.835254 0.358639 0.076711
O O10 0.478317 0.202560 0.371709
O O11 0.291186 0.269995 0.357050
O O12 0.051794 0.826878 0.035377
#
# Coordination Sequence:
#
# PCOD9297823 Si02
#       6
#     8   8   8   4   8   8
#     4  11  20  37  57  88 126 167 208 248 285 342
#     4   9  21  36  57  88 126 163 212 248 281 346
#     4  11  22  40  62  88 121 165 200 246 303 358
#     4  10  24  42  68  90 118 150 196 268 304 386
#     4  11  22  40  62  88 121 165 200 246 303 358
#     4  11  22  44  64  90 120 154 202 248 324 357
#
# _framework density 22.630863000000002
#
# number of rings (size 3 to 8) (size 9 to 14) (size 15 to 20)
#    0.000    1.455    1.818    3.818    0.000    0.000 
#    6.545    5.455    0.000    0.000    0.000    0.000 
#    0.000    0.000    0.000    0.000    0.000    0.000 
#
# Total GULP energy -122800.004865 kJ/mol
# GULP energy per Si atom -5581.818403 kJ/mol
# Density = 2.257935 g / cm^3
# Si number density = 22.630863 Si / 1000 Ang^3
#
#
#
# Elastic Constant Matrix: (Units=GPa)
#
#
# Indices 1 2 3 4 5 6 
#
# 1 59.3638 9.6376 1.7308 0.0000 -5.9733 0.0000
# 2 9.6376 55.9326 -14.1802 0.0000 -5.7396 0.0000
# 3 1.7308 -14.1802 81.8846 0.0000 -9.7407 0.0000
# 4 0.0000 0.0000 0.0000 32.6818 0.0000 -5.9371
# 5 -5.9733 -5.7396 -9.7407 0.0000 15.1045 0.0000
# 6 0.0000 0.0000 0.0000 -5.9371 0.0000 2.4030
#
#
#
# Elastic Compliance Matrix: (Units=1/GPa)
#
#
# Indices 1 2 3 4 5 6 
#
# 1 0.017860 -0.002476 -0.000085 0.000000 0.006068 0.000000
# 2 -0.002476 0.020536 0.004788 0.000000 0.009912 0.000000
# 3 -0.000085 0.004788 0.014357 0.000000 0.011044 0.000000
# 4 0.000000 0.000000 0.000000 0.055516 0.000000 0.137163
# 5 0.006068 0.009912 0.011044 0.000000 0.079494 0.000000
# 6 0.000000 0.000000 0.000000 0.137163 0.000000 0.755035
#
#
# Mechanical properties :
#
#
# Convention : Reuss Voigt Hill
#
# Bulk Modulus (GPa) = 17.48025 21.28417 19.38221
# Shear Modulus (GPa) = 5.22240 23.37070 14.29655
#
# Velocity S-wave (km/s) = 1.52074 3.21704 2.51615
# Velocity P-wave (km/s) = 3.29004 4.81918 4.12607
#
# Compressibility (1/GPa) = 0.05720743
#
# Stress axis : x y z
#
# Youngs Moduli (GPa) = 55.99004 48.69437 69.65241
#
# Poissons Ratio (x) = 0.12058 0.00589
# Poissons Ratio (y) = 0.13865 -0.33348
# Poissons Ratio (z) = 0.00473 -0.23314
#
# Static dielectric constant tensor:
#      x y z
#    x 1.873390 0.000000 -0.003210 
#    y 0.000000 1.790150 0.000000 
#    z -0.003210 0.000000 1.864740 
# 
# From -- ./inp_files/81072.got.cif
#   From: 2010.05.17/outbox.cif.g08.bks.cpg/sg15_41_cif.got.tgz:81072.got - 2010.06.03 18:47:42.
