data_PCOD9297661
_publ_section_title
;
Structure prediction by ZEFSAII (Michael W. Deem and Ramdas Pophale) SiO2 
 PCOD9297661
Probable space group: C 2/C
;
_chemical_formula_sum "Si O2"
_cell_formula_units_Z 44
_cell_length_a 12.064383
_cell_length_b 8.889582
_cell_length_c 22.989417
_cell_angle_alpha 90.000000
_cell_angle_beta 138.480197
_cell_angle_gamma 90.000000
_cell_volume 1634.363252
_symmetry_space_group_name_H-M "C 2/C"
_symmetry_group_IT_number 15
_symmetry_cell_setting 'monoclinic'
loop_
_space_group_symop_operation_xyz
x,y,z
-x,y,1/2-z
-x,-y,-z
x,-y,1/2+z
1/2+x,1/2+y,z
1/2-x,1/2+y,1/2-z
1/2-x,1/2-y,-z
1/2+x,1/2-y,1/2+z
loop_
_atom_site_type_symbol
_atom_site_label
_atom_site_fract_x
_atom_site_fract_y
_atom_site_fract_z
Si Si1 0.000000 0.550477 0.750000
Si Si2 0.494504 0.416901 0.139446
Si Si3 0.823370 0.592332 0.501119
Si Si4 0.416338 0.743542 0.323324
Si Si5 0.725620 0.224929 0.362058
Si Si6 0.952909 0.689651 0.437695
O O1 0.071475 0.652346 0.727214
O O2 0.854147 0.439978 0.670120
O O3 0.594898 0.566512 0.195550
O O4 0.406647 0.330479 0.157631
O O5 0.577855 0.300429 0.127762
O O6 0.333105 0.490294 0.042734
O O7 0.906432 0.718456 0.574377
O O8 0.973804 0.467099 0.557100
O O9 0.811125 0.650502 0.429136
O O10 0.273785 0.771510 0.315424
O O11 0.897569 0.237541 0.465250
#
# Coordination Sequence:
#
# PCOD9297661 Si02
#       6
#     4   8   8   8   8   8
#     4  12  26  44  60  78 120 168 208 248 286 336
#     4  11  21  37  65  93 121 153 190 243 310 360
#     4   9  18  36  62  94 125 149 186 244 305 362
#     4  11  25  40  61  92 118 155 205 246 292 352
#     4  10  24  42  62  87 119 160 201 243 293 352
#     4   9  18  36  63  94 123 152 189 240 305 365
#
# _framework density 26.921800000000001
#
# number of rings (size 3 to 8) (size 9 to 14) (size 15 to 20)
#    0.000    1.818    0.000    6.000    0.000    8.000 
#    0.000    0.000    0.000    2.182    0.000    0.000 
#    0.000    0.000    0.000    0.000    0.000    0.000 
#
# Total GULP energy -123392.319162 kJ/mol
# GULP energy per Si atom -5608.741780 kJ/mol
# Density = 2.686052 g / cm^3
# Si number density = 26.921800 Si / 1000 Ang^3
#
#
#
# Elastic Constant Matrix: (Units=GPa)
#
#
# Indices 1 2 3 4 5 6 
#
# 1 123.6883 49.3635 32.7089 0.0000 -26.9572 0.0000
# 2 49.3635 177.6220 39.8135 0.0000 -57.2983 0.0000
# 3 32.7089 39.8135 91.8855 0.0000 -27.1430 0.0000
# 4 0.0000 0.0000 0.0000 51.5920 0.0000 -19.6674
# 5 -26.9572 -57.2983 -27.1430 0.0000 44.8761 0.0000
# 6 0.0000 0.0000 0.0000 -19.6674 0.0000 43.1002
#
#
#
# Elastic Compliance Matrix: (Units=1/GPa)
#
#
# Indices 1 2 3 4 5 6 
#
# 1 0.009795 -0.001301 -0.002040 0.000000 0.002989 0.000000
# 2 -0.001301 0.009778 -0.000385 0.000000 0.011470 0.000000
# 3 -0.002040 -0.000385 0.013720 0.000000 0.006581 0.000000
# 4 0.000000 0.000000 0.000000 0.023465 0.000000 0.010707
# 5 0.002989 0.011470 0.006581 0.000000 0.042705 0.000000
# 6 0.000000 0.000000 0.000000 0.010707 0.000000 0.028088
#
#
# Mechanical properties :
#
#
# Convention : Reuss Voigt Hill
#
# Bulk Modulus (GPa) = 38.69846 70.77418 54.73632
# Shear Modulus (GPa) = 34.81500 46.00098 40.40799
#
# Velocity S-wave (km/s) = 3.60000 4.13811 3.87840
# Velocity P-wave (km/s) = 5.62899 7.01269 6.35859
#
# Compressibility (1/GPa) = 0.02584082
#
# Stress axis : x y z
#
# Youngs Moduli (GPa) = 102.09398 102.27192 72.88415
#
# Poissons Ratio (x) = 0.13301 0.14870
# Poissons Ratio (y) = 0.13278 0.02809
# Poissons Ratio (z) = 0.20829 0.03942
#
# Static dielectric constant tensor:
#      x y z
#    x 2.109470 0.000000 0.090430 
#    y 0.000000 2.074140 0.000000 
#    z 0.090430 0.000000 2.144300 
# 
# From -- ./inp_files/236226.got.cif
#   From: 2010.05.17/outbox.cif.g08.bks.cpg/sg15_119_cif.got.tgz:236226.got - 2010.06.03 18:47:42.
