data_PCOD9297749
_publ_section_title
;
Structure prediction by ZEFSAII (Michael W. Deem and Ramdas Pophale) SiO2 
 PCOD9297749
Probable space group: C 2/C
;
_chemical_formula_sum "Si O2"
_cell_formula_units_Z 60
_cell_length_a 17.666253
_cell_length_b 10.777887
_cell_length_c 21.512138
_cell_angle_alpha 90.000000
_cell_angle_beta 42.905904
_cell_angle_gamma 90.000000
_cell_volume 2788.552757
_symmetry_space_group_name_H-M "C 2/C"
_symmetry_group_IT_number 15
_symmetry_cell_setting 'monoclinic'
loop_
_space_group_symop_operation_xyz
x,y,z
-x,y,1/2-z
-x,-y,-z
x,-y,1/2+z
1/2+x,1/2+y,z
1/2-x,1/2+y,1/2-z
1/2-x,1/2-y,-z
1/2+x,1/2-y,1/2+z
loop_
_atom_site_type_symbol
_atom_site_label
_atom_site_fract_x
_atom_site_fract_y
_atom_site_fract_z
Si Si1 0.448459 0.382618 0.343399
Si Si2 0.795666 0.576708 0.542954
Si Si3 0.975590 0.372056 0.651412
Si Si4 0.500000 0.935336 0.250000
Si Si5 0.784531 0.400223 0.666701
Si Si6 0.210661 0.370777 0.059294
Si Si7 0.122289 0.143404 0.939313
Si Si8 0.062320 0.052040 0.370876
O O1 0.500000 0.437301 0.250000
O O2 0.319047 0.353137 0.406128
O O3 0.520512 0.261518 0.317645
O O4 0.472631 0.484014 0.381109
O O5 0.914674 0.639730 0.459072
O O6 0.788333 0.513832 0.615279
O O7 0.801853 0.470025 0.487230
O O8 0.976608 0.473436 0.705840
O O9 0.872585 0.407313 0.669931
O O10 0.598501 0.851291 0.165154
O O11 0.824447 0.275686 0.607915
O O12 0.661956 0.393153 0.770154
O O13 0.295005 0.417062 0.060908
O O14 0.250000 0.250000 0.000000
O O15 0.110084 0.056230 0.886907
O O16 0.002876 0.148157 0.045590
#
# Coordination Sequence:
#
# PCOD9297749 Si02
#       8
#     8   8   8   4   8   8   8   8
#     4  12  22  44  71  98 132 183 236 277 346 419
#     4  11  24  42  67  98 138 176 224 293 336 409
#     4  11  24  45  66 101 136 178 232 282 346 410
#     4  10  24  42  66  92 130 172 210 282 334 394
#     4  12  24  45  68 102 138 180 228 287 353 409
#     4  11  22  41  64  92 129 169 218 269 337 410
#     4  11  24  45  65  98 132 177 229 273 350 410
#     4  11  25  45  69  94 141 181 225 293 342 420
#
# _framework density 21.516537
#
# number of rings (size 3 to 8) (size 9 to 14) (size 15 to 20)
#    0.000    0.800    6.000    1.600    0.000    1.067 
#    8.400    0.000    0.000    0.000    0.000    0.000 
#    0.000    0.000    0.000    0.000    0.000    0.000 
#
# Total GULP energy -167489.057774 kJ/mol
# GULP energy per Si atom -5582.968592 kJ/mol
# Density = 2.146756 g / cm^3
# Si number density = 21.516537 Si / 1000 Ang^3
#
#
#
# Elastic Constant Matrix: (Units=GPa)
#
#
# Indices 1 2 3 4 5 6 
#
# 1 113.0499 15.0065 33.6949 0.0000 2.7439 0.0000
# 2 15.0065 37.8359 26.6085 0.0000 8.3590 0.0000
# 3 33.6949 26.6085 137.9515 0.0000 1.1279 0.0000
# 4 0.0000 0.0000 0.0000 27.4320 0.0000 2.0720
# 5 2.7439 8.3590 1.1279 0.0000 32.6181 0.0000
# 6 0.0000 0.0000 0.0000 2.0720 0.0000 18.8629
#
#
#
# Elastic Compliance Matrix: (Units=1/GPa)
#
#
# Indices 1 2 3 4 5 6 
#
# 1 0.009746 -0.002508 -0.001896 0.000000 -0.000112 0.000000
# 2 -0.002508 0.033249 -0.005734 0.000000 -0.008112 0.000000
# 3 -0.001896 -0.005734 0.008807 0.000000 0.001325 0.000000
# 4 0.000000 0.000000 0.000000 0.036759 0.000000 -0.004038
# 5 -0.000112 -0.008112 0.001325 0.000000 0.032700 0.000000
# 6 0.000000 0.000000 0.000000 -0.004038 0.000000 0.053458
#
#
# Mechanical properties :
#
#
# Convention : Reuss Voigt Hill
#
# Bulk Modulus (GPa) = 31.71885 48.82858 40.27372
# Shear Modulus (GPa) = 24.33039 30.01776 27.17408
#
# Velocity S-wave (km/s) = 3.36635 3.73916 3.55764
# Velocity P-wave (km/s) = 5.46657 6.43308 5.96942
#
# Compressibility (1/GPa) = 0.03152699
#
# Stress axis : x y z
#
# Youngs Moduli (GPa) = 102.60278 30.07583 113.54262
#
# Poissons Ratio (x) = 0.07542 0.21528
# Poissons Ratio (y) = 0.25728 0.65110
# Poissons Ratio (z) = 0.19453 0.17247
#
# Static dielectric constant tensor:
#      x y z
#    x 1.805510 0.000000 -0.036270 
#    y 0.000000 1.761010 0.000000 
#    z -0.036270 0.000000 1.800510 
# 
# From -- ./inp_files/248756.got.cif
#   From: 2010.05.17/outbox.cif.g08.bks.cpg/sg15_125_cif.got.tgz:248756.got - 2010.06.03 18:47:42.
