data_PCOD9297265
_publ_section_title
;
Structure prediction by ZEFSAII (Michael W. Deem and Ramdas Pophale) SiO2 
 PCOD9297265
Probable space group: C 2/C
;
_chemical_formula_sum "Si O2"
_cell_formula_units_Z 52
_cell_length_a 14.596222
_cell_length_b 16.345901
_cell_length_c 28.273898
_cell_angle_alpha 90.000000
_cell_angle_beta 19.753809
_cell_angle_gamma 90.000000
_cell_volume 2279.948808
_symmetry_space_group_name_H-M "C 2/C"
_symmetry_group_IT_number 15
_symmetry_cell_setting 'monoclinic'
loop_
_space_group_symop_operation_xyz
x,y,z
-x,y,1/2-z
-x,-y,-z
x,-y,1/2+z
1/2+x,1/2+y,z
1/2-x,1/2+y,1/2-z
1/2-x,1/2-y,-z
1/2+x,1/2-y,1/2+z
loop_
_atom_site_type_symbol
_atom_site_label
_atom_site_fract_x
_atom_site_fract_y
_atom_site_fract_z
Si Si1 0.403224 0.821215 0.859983
Si Si2 0.710556 0.545577 0.805331
Si Si3 0.486119 0.254012 0.567475
Si Si4 0.422832 0.779335 0.209765
Si Si5 0.995843 0.672393 0.468509
Si Si6 0.134003 0.445185 0.542508
Si Si7 0.000000 0.458295 0.750000
O O1 0.707219 0.801618 0.694790
O O2 0.316145 0.900961 0.872824
O O3 0.420570 0.858339 0.903813
O O4 0.225691 0.741129 0.939581
O O5 0.733661 0.641807 0.803210
O O6 0.426151 0.526561 0.918815
O O7 0.927409 0.512398 0.661834
O O8 0.805078 0.505343 0.808624
O O9 0.463201 0.236184 0.634286
O O10 0.497326 0.179467 0.524773
O O11 0.773981 0.298283 0.418764
O O12 0.278244 0.706134 0.308665
O O13 0.908806 0.584773 0.490146
#
# Coordination Sequence:
#
# PCOD9297265 Si02
#       7
#     8   8   8   8   8   8   4
#     4  11  20  40  64  96 136 169 220 278 332 409
#     4  11  26  41  64  98 143 183 216 282 353 414
#     4  11  24  40  70 103 132 178 231 291 336 398
#     4  11  25  43  66 100 144 173 228 288 346 402
#     4  12  22  43  72  98 130 184 240 275 336 406
#     4  11  25  42  65  96 137 183 223 278 341 411
#     4  10  24  38  62 102 138 174 212 268 358 426
#
# _framework density 22.807531000000001
#
# number of rings (size 3 to 8) (size 9 to 14) (size 15 to 20)
#    0.000    0.923    4.615    1.846    6.462    2.462 
#    0.000    0.769    0.000    0.000    0.000    0.000 
#    0.000    0.000    0.000    0.000    0.000    0.000 
#
# Total GULP energy -145125.955717 kJ/mol
# GULP energy per Si atom -5581.767528 kJ/mol
# Density = 2.275562 g / cm^3
# Si number density = 22.807531 Si / 1000 Ang^3
#
#
#
# Elastic Constant Matrix: (Units=GPa)
#
#
# Indices 1 2 3 4 5 6 
#
# 1 66.9654 -3.2823 29.6605 0.0435 6.7121 -0.0120
# 2 -3.2823 20.9713 5.8538 0.0983 -10.0541 -0.0690
# 3 29.6605 5.8538 130.1766 0.2631 -31.6451 -0.2786
# 4 0.0435 0.0983 0.2631 24.0840 0.0126 6.5718
# 5 6.7121 -10.0541 -31.6451 0.0126 27.9223 0.0506
# 6 -0.0120 -0.0690 -0.2786 6.5718 0.0506 26.9338
#
#
#
# Elastic Compliance Matrix: (Units=1/GPa)
#
#
# Indices 1 2 3 4 5 6 
#
# 1 0.019793 -0.001540 -0.007912 0.000084 -0.014280 -0.000071
# 2 -0.001540 0.058858 0.004068 -0.000358 0.026174 0.000230
# 3 -0.007912 0.004068 0.013970 -0.000210 0.019199 0.000167
# 4 0.000084 -0.000358 -0.000210 0.044488 -0.000388 -0.010857
# 5 -0.014280 0.026174 0.019199 -0.000388 0.070429 0.000222
# 6 -0.000071 0.000230 0.000167 -0.010857 0.000222 0.039779
#
#
# Mechanical properties :
#
#
# Convention : Reuss Voigt Hill
#
# Bulk Modulus (GPa) = 12.21705 31.39749 21.80727
# Shear Modulus (GPa) = 17.52113 28.18010 22.85061
#
# Velocity S-wave (km/s) = 2.77468 3.51887 3.16870
# Velocity P-wave (km/s) = 3.95390 5.50510 4.79267
#
# Compressibility (1/GPa) = 0.08185282
#
# Stress axis : x y z
#
# Youngs Moduli (GPa) = 50.52213 16.98993 71.58412
#
# Poissons Ratio (x) = 0.02617 0.56639
# Poissons Ratio (y) = 0.07781 -0.29121
# Poissons Ratio (z) = 0.39974 -0.06912
#
# Static dielectric constant tensor:
#      x y z
#    x 1.993600 0.000030 0.011620 
#    y 0.000030 1.802900 -0.000010 
#    z 0.011620 -0.000010 1.876960 
# 
# From -- ./inp_files/314312.got.cif
#   From: 2010.05.17/outbox.cif.g08.bks.cpg/sg15_158_cif.got.tgz:314312.got - 2010.06.03 18:47:42.
