data_PCOD9297152
_publ_section_title
;
Structure prediction by ZEFSAII (Michael W. Deem and Ramdas Pophale) SiO2 
 PCOD9297152
Probable space group: C 2/C
;
_chemical_formula_sum "Si O2"
_cell_formula_units_Z 32
_cell_length_a 6.931419
_cell_length_b 13.360076
_cell_length_c 17.377935
_cell_angle_alpha 90.000000
_cell_angle_beta 42.660013
_cell_angle_gamma 90.000000
_cell_volume 1090.517191
_symmetry_space_group_name_H-M "C 2/C"
_symmetry_group_IT_number 15
_symmetry_cell_setting 'monoclinic'
loop_
_space_group_symop_operation_xyz
x,y,z
-x,y,1/2-z
-x,-y,-z
x,-y,1/2+z
1/2+x,1/2+y,z
1/2-x,1/2+y,1/2-z
1/2-x,1/2-y,-z
1/2+x,1/2-y,1/2+z
loop_
_atom_site_type_symbol
_atom_site_label
_atom_site_fract_x
_atom_site_fract_y
_atom_site_fract_z
Si Si1 0.672942 0.550253 0.827046
Si Si2 0.260722 0.121528 0.090895
Si Si3 0.615154 0.208790 0.850308
Si Si4 0.240759 0.347053 0.556390
O O1 0.466875 0.464997 0.854961
O O2 0.692657 0.642178 0.761203
O O3 0.000000 0.521839 0.750000
O O4 0.511171 0.588729 0.950970
O O5 0.452087 0.102769 0.110106
O O6 0.108618 0.229859 0.136351
O O7 0.463851 0.135247 0.956421
O O8 0.263008 0.300233 0.633849
O O9 0.250000 0.250000 0.500000
#
# Coordination Sequence:
#
# PCOD9297152 Si02
#       4
#     8   8   8   8
#     4  12  25  46  83 129 168 219 278 338 427 508
#     4  10  23  50  79 118 167 216 278 344 413 500
#     4  10  24  50  80 116 169 218 270 348 418 486
#     4  10  23  48  81 111 166 214 272 341 405 492
#
# _framework density 29.343872999999999
#
# number of rings (size 3 to 8) (size 9 to 14) (size 15 to 20)
#    0.000    1.500    0.000    5.250    0.000    8.000 
#   18.000   10.000   16.500    0.000    0.000    0.000 
#    0.000    0.000    0.000    0.000    0.000    0.000 
#
# Total GULP energy -89928.578681 kJ/mol
# GULP energy per Si atom -5620.536168 kJ/mol
# Density = 2.927708 g / cm^3
# Si number density = 29.343873 Si / 1000 Ang^3
#
#
#
# Elastic Constant Matrix: (Units=GPa)
#
#
# Indices 1 2 3 4 5 6 
#
# 1 234.2663 92.0239 94.7601 -0.0050 -27.5537 0.0046
# 2 92.0239 176.6122 105.7780 -0.0063 -17.2583 0.0031
# 3 94.7601 105.7780 225.9060 -0.0211 -5.7974 0.0070
# 4 -0.0050 -0.0063 -0.0211 55.1171 0.0045 -9.3432
# 5 -27.5537 -17.2583 -5.7974 0.0045 61.5471 -0.0057
# 6 0.0046 0.0031 0.0070 -9.3432 -0.0057 71.9443
#
#
#
# Elastic Compliance Matrix: (Units=1/GPa)
#
#
# Indices 1 2 3 4 5 6 
#
# 1 0.005876 -0.001982 -0.001487 0.000000 0.001935 0.000000
# 2 -0.001982 0.008757 -0.003236 -0.000001 0.001263 0.000000
# 3 -0.001487 -0.003236 0.006541 0.000002 -0.000957 0.000000
# 4 0.000000 -0.000001 0.000002 0.018552 -0.000001 0.002409
# 5 0.001935 0.001263 -0.000957 -0.000001 0.017378 0.000001
# 6 0.000000 0.000000 0.000000 0.002409 0.000001 0.014213
#
#
# Mechanical properties :
#
#
# Convention : Reuss Voigt Hill
#
# Bulk Modulus (GPa) = 128.81592 135.76760 132.29176
# Shear Modulus (GPa) = 57.26357 60.66988 58.96672
#
# Velocity S-wave (km/s) = 4.42233 4.55196 4.48762
# Velocity P-wave (km/s) = 8.37079 8.60206 8.48721
#
# Compressibility (1/GPa) = 0.00776302
#
# Stress axis : x y z
#
# Youngs Moduli (GPa) = 170.17242 114.19826 152.87497
#
# Poissons Ratio (x) = 0.22635 0.22736
# Poissons Ratio (y) = 0.33730 0.49476
# Poissons Ratio (z) = 0.25308 0.36959
#
# Static dielectric constant tensor:
#      x y z
#    x 2.375170 0.000000 -0.101210 
#    y 0.000000 2.200460 0.000000 
#    z -0.101210 0.000000 2.317480 
# 
# From -- ./inp_files/264079.got.cif
#   From: 2010.05.17/outbox.cif.g08.bks.cpg/sg15_133_cif.got.tgz:264079.got - 2010.06.03 18:47:42.
