data_PCOD9297077
_publ_section_title
;
Structure prediction by ZEFSAII (Michael W. Deem and Ramdas Pophale) SiO2 
 PCOD9297077
Probable space group: C 2/C
;
_chemical_formula_sum "Si O2"
_cell_formula_units_Z 44
_cell_length_a 14.401924
_cell_length_b 5.110696
_cell_length_c 27.993400
_cell_angle_alpha 90.000000
_cell_angle_beta 61.380223
_cell_angle_gamma 90.000000
_cell_volume 1808.675028
_symmetry_space_group_name_H-M "C 2/C"
_symmetry_group_IT_number 15
_symmetry_cell_setting 'monoclinic'
loop_
_space_group_symop_operation_xyz
x,y,z
-x,y,1/2-z
-x,-y,-z
x,-y,1/2+z
1/2+x,1/2+y,z
1/2-x,1/2+y,1/2-z
1/2-x,1/2-y,-z
1/2+x,1/2-y,1/2+z
loop_
_atom_site_type_symbol
_atom_site_label
_atom_site_fract_x
_atom_site_fract_y
_atom_site_fract_z
Si Si1 0.989692 0.155072 0.683895
Si Si2 0.850711 0.651065 0.127067
Si Si3 0.370139 0.136046 0.850778
Si Si4 0.183426 0.499009 0.029749
Si Si5 0.000000 0.500000 0.000000
Si Si6 0.727187 0.336656 0.226136
O O1 0.930571 0.225263 0.647280
O O2 0.051202 0.412036 0.686893
O O3 0.895554 0.080191 0.743687
O O4 0.067506 0.909289 0.658239
O O5 0.741571 0.812809 0.147247
O O6 0.903616 0.603452 0.062543
O O7 0.802441 0.384453 0.162371
O O8 0.341240 0.016102 0.909028
O O9 0.078657 0.491491 0.024869
O O10 0.250000 0.250000 0.000000
O O11 0.250000 0.750000 0.000000
O O12 0.727576 0.046417 0.246826
#
# Coordination Sequence:
#
# PCOD9297077 Si02
#       6
#     8   8   8   8   4   8
#     4  11  25  48  75 105 149 191 239 309 371 426
#     4  11  26  47  76 111 148 194 248 301 369 440
#     4  12  26  46  77 110 143 192 247 303 364 443
#     4  12  27  48  70 107 149 193 248 299 357 439
#     4  12  26  46  80 106 150 204 236 302 380 422
#     4  10  23  47  76 106 145 191 244 303 365 440
#
# _framework density 24.327202
#
# number of rings (size 3 to 8) (size 9 to 14) (size 15 to 20)
#    0.000    0.727    3.636    3.273    0.000    7.273 
#    0.000    5.455    0.000    0.000    0.000    0.000 
#    0.000    0.000    0.000    0.000    0.000    0.000 
#
# Total GULP energy -122643.902935 kJ/mol
# GULP energy per Si atom -5574.722861 kJ/mol
# Density = 2.427183 g / cm^3
# Si number density = 24.327202 Si / 1000 Ang^3
#
#
#
# Elastic Constant Matrix: (Units=GPa)
#
#
# Indices 1 2 3 4 5 6 
#
# 1 153.2549 47.7017 13.2988 -0.0056 -10.3041 -0.0009
# 2 47.7017 124.0791 36.7590 0.0005 -14.5373 -0.0075
# 3 13.2988 36.7590 124.4581 0.0088 6.5006 -0.0015
# 4 -0.0056 0.0005 0.0088 30.6332 -0.0057 -4.2469
# 5 -10.3041 -14.5373 6.5006 -0.0057 45.3968 -0.0001
# 6 -0.0009 -0.0075 -0.0015 -4.2469 -0.0001 28.6970
#
#
#
# Elastic Compliance Matrix: (Units=1/GPa)
#
#
# Indices 1 2 3 4 5 6 
#
# 1 0.007440 -0.002759 -0.000022 0.000002 0.000808 0.000000
# 2 -0.002759 0.010350 -0.002925 0.000001 0.003107 0.000003
# 3 -0.000022 -0.002925 0.009018 -0.000003 -0.002233 -0.000001
# 4 0.000002 0.000001 -0.000003 0.033328 0.000005 0.004932
# 5 0.000808 0.003107 -0.002233 0.000005 0.023526 0.000002
# 6 0.000000 0.000003 -0.000001 0.004932 0.000002 0.035577
#
#
# Mechanical properties :
#
#
# Convention : Reuss Voigt Hill
#
# Bulk Modulus (GPa) = 64.94982 66.36790 65.65886
# Shear Modulus (GPa) = 36.82340 41.21422 39.01881
#
# Velocity S-wave (km/s) = 3.89481 4.12049 4.00924
# Velocity P-wave (km/s) = 6.85438 7.06954 6.96279
#
# Compressibility (1/GPa) = 0.01539650
#
# Stress axis : x y z
#
# Youngs Moduli (GPa) = 134.40626 96.61381 110.89416
#
# Poissons Ratio (x) = 0.26656 0.00248
# Poissons Ratio (y) = 0.37083 0.32431
# Poissons Ratio (z) = 0.00300 0.28255
#
# Static dielectric constant tensor:
#      x y z
#    x 2.019810 0.000010 -0.041230 
#    y 0.000010 1.839050 0.000000 
#    z -0.041230 0.000000 2.021170 
# 
# From -- ./inp_files/294395.got.cif
#   From: 2010.05.17/outbox.cif.g08.bks.cpg/sg15_148_cif.got.tgz:294395.got - 2010.06.03 18:47:42.
