data_PCOD9297743
_publ_section_title
;
Structure prediction by ZEFSAII (Michael W. Deem and Ramdas Pophale) SiO2 
 PCOD9297743
Probable space group: C 2/C
;
_chemical_formula_sum "Si O2"
_cell_formula_units_Z 36
_cell_length_a 11.514758
_cell_length_b 8.791036
_cell_length_c 15.281641
_cell_angle_alpha 90.000000
_cell_angle_beta 75.548890
_cell_angle_gamma 90.000000
_cell_volume 1497.966591
_symmetry_space_group_name_H-M "C 2/C"
_symmetry_group_IT_number 15
_symmetry_cell_setting 'monoclinic'
loop_
_space_group_symop_operation_xyz
x,y,z
-x,y,1/2-z
-x,-y,-z
x,-y,1/2+z
1/2+x,1/2+y,z
1/2-x,1/2+y,1/2-z
1/2-x,1/2-y,-z
1/2+x,1/2-y,1/2+z
loop_
_atom_site_type_symbol
_atom_site_label
_atom_site_fract_x
_atom_site_fract_y
_atom_site_fract_z
Si Si1 0.831541 0.412949 0.413133
Si Si2 0.364357 0.821936 0.025454
Si Si3 0.000000 0.612223 0.250000
Si Si4 0.489741 0.678047 0.149856
Si Si5 0.924148 0.162351 0.621156
O O1 0.850174 0.502684 0.501058
O O2 0.913772 0.511611 0.329088
O O3 0.700339 0.387447 0.399476
O O4 0.888679 0.247903 0.410215
O O5 0.478763 0.743955 0.958586
O O6 0.250000 0.750000 0.000000
O O7 0.383102 0.773774 0.122471
O O8 0.918302 0.723289 0.204954
O O9 0.500000 0.705438 0.250000
O O10 0.478906 0.500282 0.136878
#
# Coordination Sequence:
#
# PCOD9297743 Si02
#       5
#     8   8   4   8   8
#     4  11  25  45  71 102 140 188 234 288 355 417
#     4  11  25  49  71 101 149 185 232 293 350 417
#     4  10  24  42  66 106 144 178 236 296 348 410
#     4  12  25  46  72 105 138 185 236 288 349 417
#     4  11  25  44  71 104 140 190 231 290 354 412
#
# _framework density 24.032577
#
# number of rings (size 3 to 8) (size 9 to 14) (size 15 to 20)
#    0.000    0.889    4.444    1.333    3.111    0.889 
#    8.000    0.000    0.000    0.000    0.000    0.000 
#    0.000    0.000    0.000    0.000    0.000    0.000 
#
# Total GULP energy -100724.879691 kJ/mol
# GULP energy per Si atom -5595.826650 kJ/mol
# Density = 2.397788 g / cm^3
# Si number density = 24.032577 Si / 1000 Ang^3
#
#
#
# Elastic Constant Matrix: (Units=GPa)
#
#
# Indices 1 2 3 4 5 6 
#
# 1 153.4499 75.8223 58.8887 0.0000 30.3562 0.0000
# 2 75.8223 113.5282 29.3531 0.0000 9.1172 0.0000
# 3 58.8887 29.3531 93.9945 0.0000 36.6820 0.0000
# 4 0.0000 0.0000 0.0000 24.0607 0.0000 14.2778
# 5 30.3562 9.1172 36.6820 0.0000 36.8683 0.0000
# 6 0.0000 0.0000 0.0000 14.2778 0.0000 43.2702
#
#
#
# Elastic Compliance Matrix: (Units=1/GPa)
#
#
# Indices 1 2 3 4 5 6 
#
# 1 0.012253 -0.006848 -0.003697 0.000000 -0.004716 0.000000
# 2 -0.006848 0.013432 -0.001321 0.000000 0.003632 0.000000
# 3 -0.003697 -0.001321 0.019703 0.000000 -0.016232 0.000000
# 4 0.000000 0.000000 0.000000 0.051681 0.000000 -0.017053
# 5 -0.004716 0.003632 -0.016232 0.000000 0.046259 0.000000
# 6 0.000000 0.000000 0.000000 -0.017053 0.000000 0.028738
#
#
# Mechanical properties :
#
#
# Convention : Reuss Voigt Hill
#
# Bulk Modulus (GPa) = 46.18206 76.56675 61.37441
# Shear Modulus (GPa) = 24.62851 33.96707 29.29779
#
# Velocity S-wave (km/s) = 3.20472 3.76357 3.49533
# Velocity P-wave (km/s) = 5.74036 7.12844 6.47172
#
# Compressibility (1/GPa) = 0.02165343
#
# Stress axis : x y z
#
# Youngs Moduli (GPa) = 81.61541 74.44748 50.75482
#
# Poissons Ratio (x) = 0.50985 0.18765
# Poissons Ratio (y) = 0.55894 0.06707
# Poissons Ratio (z) = 0.30174 0.09837
#
# Static dielectric constant tensor:
#      x y z
#    x 1.908740 0.000000 0.010460 
#    y 0.000000 1.956990 0.000000 
#    z 0.010460 0.000000 2.141260 
# 
# From -- ./inp_files/194900.got.cif
#   From: 2010.05.17/outbox.cif.g08.bks.cpg/sg15_98_cif.got.tgz:194900.got - 2010.06.03 18:47:42.
