data_PCOD9297097
_publ_section_title
;
Structure prediction by ZEFSAII (Michael W. Deem and Ramdas Pophale) SiO2 
 PCOD9297097
Probable space group: C 2/C
;
_chemical_formula_sum "Si O2"
_cell_formula_units_Z 36
_cell_length_a 9.889830
_cell_length_b 15.075035
_cell_length_c 16.557863
_cell_angle_alpha 90.000000
_cell_angle_beta 146.943793
_cell_angle_gamma 90.000000
_cell_volume 1346.528494
_symmetry_space_group_name_H-M "C 2/C"
_symmetry_group_IT_number 15
_symmetry_cell_setting 'monoclinic'
loop_
_space_group_symop_operation_xyz
x,y,z
-x,y,1/2-z
-x,-y,-z
x,-y,1/2+z
1/2+x,1/2+y,z
1/2-x,1/2+y,1/2-z
1/2-x,1/2-y,-z
1/2+x,1/2-y,1/2+z
loop_
_atom_site_type_symbol
_atom_site_label
_atom_site_fract_x
_atom_site_fract_y
_atom_site_fract_z
Si Si1 0.000000 0.460387 0.750000
Si Si2 0.290821 0.447404 0.711813
Si Si3 0.068384 0.361635 0.095167
Si Si4 0.671712 0.378815 0.030522
Si Si5 0.297039 0.291502 0.938740
O O1 0.812783 0.544372 0.819034
O O2 0.786282 0.533686 0.625832
O O3 0.500000 0.462663 0.750000
O O4 0.085693 0.389867 0.562761
O O5 0.423284 0.401812 0.854175
O O6 0.143294 0.382457 0.871243
O O7 0.873712 0.339867 0.069075
O O8 0.243813 0.281609 0.153858
O O9 0.579439 0.317484 0.056707
O O10 0.250000 0.250000 0.000000
#
# Coordination Sequence:
#
# PCOD9297097 Si02
#       5
#     4   8   8   8   8
#     4  12  30  50  78 110 158 206 252 320 400 452
#     4   9  21  43  83 114 155 200 258 313 392 460
#     4  10  23  47  81 113 151 202 255 318 379 458
#     4  11  25  53  76 109 156 209 252 313 394 466
#     4  12  30  47  73 116 155 198 263 321 373 455
#
# _framework density 26.735415
#
# number of rings (size 3 to 8) (size 9 to 14) (size 15 to 20)
#    0.000    1.333    0.000    2.667   14.000    1.778 
#    6.000    0.000    0.000    0.000    0.000    0.000 
#    0.000    0.000    0.000    0.000    0.000    0.000 
#
# Total GULP energy -100486.100385 kJ/mol
# GULP energy per Si atom -5582.561133 kJ/mol
# Density = 2.667456 g / cm^3
# Si number density = 26.735415 Si / 1000 Ang^3
#
#
#
# Elastic Constant Matrix: (Units=GPa)
#
#
# Indices 1 2 3 4 5 6 
#
# 1 210.6725 68.2458 37.0104 0.0010 -24.8408 -0.0003
# 2 68.2458 163.4031 38.0315 0.0001 -3.1617 -0.0008
# 3 37.0104 38.0315 102.8392 0.0020 0.6507 -0.0008
# 4 0.0010 0.0001 0.0020 -23.3066 0.0010 -23.0352
# 5 -24.8408 -3.1617 0.6507 0.0010 27.6065 -0.0005
# 6 -0.0003 -0.0008 -0.0008 -23.0352 -0.0005 15.4265
#
#
#
# Elastic Compliance Matrix: (Units=1/GPa)
#
#
# Indices 1 2 3 4 5 6 
#
# 1 0.006378 -0.002204 -0.001515 0.000000 0.005522 0.000000
# 2 -0.002204 0.007477 -0.001965 0.000000 -0.001081 0.000000
# 3 -0.001515 -0.001965 0.011008 0.000000 -0.001848 0.000001
# 4 0.000000 0.000000 0.000000 -0.017330 0.000000 -0.025878
# 5 0.005522 -0.001081 -0.001848 0.000000 0.041112 0.000002
# 6 0.000000 0.000000 0.000001 -0.025878 0.000002 0.026182
#
#
# Mechanical properties :
#
#
# Convention : Reuss Voigt Hill
#
# Bulk Modulus (GPa) = 74.10835 84.83226 79.47030
# Shear Modulus (GPa) = 55.13049 26.18710 40.65879
#
# Velocity S-wave (km/s) = 4.54594 3.13308 3.90395
# Velocity P-wave (km/s) = 7.43864 6.69981 7.07887
#
# Compressibility (1/GPa) = 0.01349376
#
# Stress axis : x y z
#
# Youngs Moduli (GPa) = 156.78600 133.74526 90.84681
#
# Poissons Ratio (x) = 0.29482 0.13765
# Poissons Ratio (y) = 0.34561 0.17851
# Poissons Ratio (z) = 0.23755 0.26280
#
# Static dielectric constant tensor:
#      x y z
#    x 2.476680 0.000000 -0.088260 
#    y 0.000000 2.052430 0.000000 
#    z -0.088260 0.000000 2.222330 
# 
# From -- ./inp_files/137037.got.cif
#   From: 2010.05.17/outbox.cif.g08.bks.cpg/sg15_69_cif.got.tgz:137037.got - 2010.06.03 18:47:42.
