data_PCOD9297543
_publ_section_title
;
Structure prediction by ZEFSAII (Michael W. Deem and Ramdas Pophale) SiO2 
 PCOD9297543
Probable space group: C 2/C
;
_chemical_formula_sum "Si O2"
_cell_formula_units_Z 24
_cell_length_a 12.533079
_cell_length_b 19.129420
_cell_length_c 4.979583
_cell_angle_alpha 90.000000
_cell_angle_beta 89.911545
_cell_angle_gamma 90.000000
_cell_volume 1193.856251
_symmetry_space_group_name_H-M "C 2/C"
_symmetry_group_IT_number 15
_symmetry_cell_setting 'monoclinic'
loop_
_space_group_symop_operation_xyz
x,y,z
-x,y,1/2-z
-x,-y,-z
x,-y,1/2+z
1/2+x,1/2+y,z
1/2-x,1/2+y,1/2-z
1/2-x,1/2-y,-z
1/2+x,1/2-y,1/2+z
loop_
_atom_site_type_symbol
_atom_site_label
_atom_site_fract_x
_atom_site_fract_y
_atom_site_fract_z
Si Si1 0.428074 0.712462 0.992255
Si Si2 0.128108 0.457402 0.780029
Si Si3 0.221448 0.313533 0.793164
O O1 0.500000 0.725409 0.250000
O O2 0.324060 0.672748 0.104244
O O3 0.500000 0.681904 0.750000
O O4 0.376002 0.783024 0.879385
O O5 0.159059 0.480058 0.480531
O O6 0.180540 0.387286 0.896601
O O7 0.000000 0.449135 0.750000
O O8 0.250000 0.250000 0.000000
#
# Coordination Sequence:
#
# PCOD9297543 Si02
#       3
#     8   8   8
#     4  11  23  38  60  96 128 160 210 277 320 369
#     4  10  24  41  63  93 132 169 205 263 331 390
#     4  11  24  39  68  97 127 174 219 270 318 377
#
# _framework density 20.102923000000001
#
# number of rings (size 3 to 8) (size 9 to 14) (size 15 to 20)
#    0.000    1.333    3.333    1.000    9.333    1.333 
#    0.000    0.000    0.000    6.000    0.000    0.000 
#    0.000    0.000    0.000    0.000    0.000    0.000 
#
# Total GULP energy -66873.888147 kJ/mol
# GULP energy per Si atom -5572.824012 kJ/mol
# Density = 2.005717 g / cm^3
# Si number density = 20.102923 Si / 1000 Ang^3
#
#
#
# Elastic Constant Matrix: (Units=GPa)
#
#
# Indices 1 2 3 4 5 6 
#
# 1 65.5412 18.0473 37.2321 0.0000 -5.8312 0.0000
# 2 18.0473 87.7992 26.5983 0.0000 11.6120 0.0000
# 3 37.2321 26.5983 124.4836 0.0000 2.5027 0.0000
# 4 0.0000 0.0000 0.0000 23.4752 0.0000 -1.6301
# 5 -5.8312 11.6120 2.5027 0.0000 32.8111 0.0000
# 6 0.0000 0.0000 0.0000 -1.6301 0.0000 0.3694
#
#
#
# Elastic Compliance Matrix: (Units=1/GPa)
#
#
# Indices 1 2 3 4 5 6 
#
# 1 0.019551 -0.003073 -0.005291 0.000000 0.004966 0.000000
# 2 -0.003073 0.013243 -0.001808 0.000000 -0.005095 0.000000
# 3 -0.005291 -0.001808 0.010023 0.000000 -0.001065 0.000000
# 4 0.000000 0.000000 0.000000 0.061418 0.000000 0.271026
# 5 0.004966 -0.005095 -0.001065 0.000000 0.033244 0.000000
# 6 0.000000 0.000000 0.000000 0.271026 0.000000 3.903153
#
#
# Mechanical properties :
#
#
# Convention : Reuss Voigt Hill
#
# Bulk Modulus (GPa) = 44.49603 49.06439 46.78021
# Shear Modulus (GPa) = 1.22896 24.39421 12.81159
#
# Velocity S-wave (km/s) = 0.78273 3.48726 2.52722
# Velocity P-wave (km/s) = 4.79573 6.37764 5.64240
#
# Compressibility (1/GPa) = 0.02247391
#
# Stress axis : x y z
#
# Youngs Moduli (GPa) = 51.14819 75.51265 99.76649
#
# Poissons Ratio (x) = 0.23202 0.52785
# Poissons Ratio (y) = 0.15716 0.18039
# Poissons Ratio (z) = 0.27062 0.13654
#
# Static dielectric constant tensor:
#      x y z
#    x 1.749790 0.000000 -0.036310 
#    y 0.000000 1.704480 0.000000 
#    z -0.036310 0.000000 1.752710 
# 
# From -- ./inp_files/3206.got.cif
#   From: 2010.05.17/outbox.cif.g08.bks.cpg/sg15_2_cif.got.tgz:3206.got - 2010.06.03 18:47:42.
