data_PCOD9297261
_publ_section_title
;
Structure prediction by ZEFSAII (Michael W. Deem and Ramdas Pophale) SiO2 
 PCOD9297261
Probable space group: C 2/C
;
_chemical_formula_sum "Si O2"
_cell_formula_units_Z 60
_cell_length_a 28.813930
_cell_length_b 5.111366
_cell_length_c 18.233359
_cell_angle_alpha 90.000000
_cell_angle_beta 112.610582
_cell_angle_gamma 90.000000
_cell_volume 2478.981951
_symmetry_space_group_name_H-M "C 2/C"
_symmetry_group_IT_number 15
_symmetry_cell_setting 'monoclinic'
loop_
_space_group_symop_operation_xyz
x,y,z
-x,y,1/2-z
-x,-y,-z
x,-y,1/2+z
1/2+x,1/2+y,z
1/2-x,1/2+y,1/2-z
1/2-x,1/2-y,-z
1/2+x,1/2-y,1/2+z
loop_
_atom_site_type_symbol
_atom_site_label
_atom_site_fract_x
_atom_site_fract_y
_atom_site_fract_z
Si Si1 0.500000 0.954546 0.250000
Si Si2 0.350301 0.731621 0.947848
Si Si3 0.626931 0.775355 0.959399
Si Si4 0.219775 0.005612 0.716578
Si Si5 0.948638 0.053614 0.924579
Si Si6 0.119668 0.748829 0.716231
Si Si7 0.487632 0.959353 0.582406
Si Si8 0.897322 0.746908 0.212227
O O1 0.506179 0.847460 0.340740
O O2 0.450755 0.130009 0.222731
O O3 0.305108 0.629461 0.870947
O O4 0.404153 0.703627 0.939299
O O5 0.359315 0.522376 0.016983
O O6 0.342893 0.022804 0.971860
O O7 0.568593 0.840584 0.945458
O O8 0.635526 0.815367 0.879250
O O9 0.243244 0.258164 0.771541
O O10 0.173150 0.869864 0.729272
O O11 0.919259 0.806426 0.873423
O O12 0.971061 0.237710 0.875710
O O13 0.000000 0.000000 0.000000
O O14 0.101053 0.945051 0.769311
O O15 0.122970 0.445619 0.736881
O O16 0.500000 0.000000 0.500000
#
# Coordination Sequence:
#
# PCOD9297261 Si02
#       8
#     4   8   8   8   8   8   8   8
#     4  10  24  38  60  98 142 202 246 286 326 424
#     4  11  23  39  66  98 128 172 220 283 346 419
#     4  11  23  39  63  94 137 181 225 274 336 416
#     4  11  24  45  74 103 130 166 224 307 374 422
#     4  11  22  35  61  95 136 177 230 278 338 414
#     4  11  25  43  69  96 136 180 232 287 357 419
#     4  11  21  37  62  90 145 187 240 284 341 399
#     4  11  24  42  62  95 141 191 229 282 341 415
#
# _framework density 24.203482999999999
#
# number of rings (size 3 to 8) (size 9 to 14) (size 15 to 20)
#    0.000    1.067    4.000    2.400    1.867    3.733 
#    0.000    0.000    0.000   16.000    0.000    0.000 
#    0.000    0.000    0.000    0.000    0.000    0.000 
#
# Total GULP energy -167258.499800 kJ/mol
# GULP energy per Si atom -5575.283327 kJ/mol
# Density = 2.414839 g / cm^3
# Si number density = 24.203483 Si / 1000 Ang^3
#
#
#
# Elastic Constant Matrix: (Units=GPa)
#
#
# Indices 1 2 3 4 5 6 
#
# 1 58.5016 13.7286 33.6627 0.0000 21.1111 0.0001
# 2 13.7286 90.3028 12.6854 -0.0008 2.9565 0.0000
# 3 33.6627 12.6854 119.1196 0.0000 -0.4078 0.0001
# 4 0.0000 -0.0008 0.0000 38.4638 0.0000 3.7634
# 5 21.1111 2.9565 -0.4078 0.0000 30.2001 0.0000
# 6 0.0001 0.0000 0.0001 3.7634 0.0000 25.0713
#
#
#
# Elastic Compliance Matrix: (Units=1/GPa)
#
#
# Indices 1 2 3 4 5 6 
#
# 1 0.029993 -0.002718 -0.008258 0.000000 -0.020812 0.000000
# 2 -0.002718 0.011526 -0.000457 0.000000 0.000766 0.000000
# 3 -0.008258 -0.000457 0.010798 0.000000 0.005963 0.000000
# 4 0.000000 0.000000 0.000000 0.026386 0.000000 -0.003961
# 5 -0.020812 0.000766 0.005963 0.000000 0.047666 0.000000
# 6 0.000000 0.000000 0.000000 -0.003961 0.000000 0.040481
#
#
# Mechanical properties :
#
#
# Convention : Reuss Voigt Hill
#
# Bulk Modulus (GPa) = 33.95408 43.11972 38.53690
# Shear Modulus (GPa) = 25.05849 32.60353 28.83101
#
# Velocity S-wave (km/s) = 3.22114 3.67421 3.45511
# Velocity P-wave (km/s) = 5.28142 5.98782 5.64568
#
# Compressibility (1/GPa) = 0.02945154
#
# Stress axis : x y z
#
# Youngs Moduli (GPa) = 33.34068 86.75881 92.61340
#
# Poissons Ratio (x) = 0.23585 0.76478
# Poissons Ratio (y) = 0.09063 0.04229
# Poissons Ratio (z) = 0.27532 0.03962
#
# Static dielectric constant tensor:
#      x y z
#    x 1.953390 0.000000 -0.058190 
#    y 0.000000 2.134610 0.000000 
#    z -0.058190 0.000000 2.089250 
# 
# From -- ./inp_files/223928.got.cif
#   From: 2010.05.17/outbox.cif.g08.bks.cpg/sg15_112_cif.got.tgz:223928.got - 2010.06.03 18:47:42.
