data_PCOD9297954
_publ_section_title
;
Structure prediction by ZEFSAII (Michael W. Deem and Ramdas Pophale) SiO2 
 PCOD9297954
Probable space group: C 2/C
;
_chemical_formula_sum "Si O2"
_cell_formula_units_Z 60
_cell_length_a 24.465586
_cell_length_b 17.566707
_cell_length_c 10.585259
_cell_angle_alpha 90.000000
_cell_angle_beta 147.246838
_cell_angle_gamma 90.000000
_cell_volume 2461.282702
_symmetry_space_group_name_H-M "C 2/C"
_symmetry_group_IT_number 15
_symmetry_cell_setting 'monoclinic'
loop_
_space_group_symop_operation_xyz
x,y,z
-x,y,1/2-z
-x,-y,-z
x,-y,1/2+z
1/2+x,1/2+y,z
1/2-x,1/2+y,1/2-z
1/2-x,1/2-y,-z
1/2+x,1/2-y,1/2+z
loop_
_atom_site_type_symbol
_atom_site_label
_atom_site_fract_x
_atom_site_fract_y
_atom_site_fract_z
Si Si1 0.000000 0.670402 0.250000
Si Si2 0.433959 0.569427 0.822187
Si Si3 0.830758 0.315168 0.677656
Si Si4 0.041988 0.290341 0.193050
Si Si5 0.584923 0.937498 0.140095
Si Si6 0.727036 0.044262 0.545742
Si Si7 0.103065 0.195993 0.106304
Si Si8 0.730513 0.414839 0.699042
O O1 0.049898 0.608698 0.448524
O O2 0.080216 0.739545 0.455944
O O3 0.340436 0.573817 0.739032
O O4 0.372404 0.560413 0.572659
O O5 0.500000 0.500000 0.000000
O O6 0.507360 0.640205 0.943498
O O7 0.750000 0.250000 0.500000
O O8 0.835087 0.377348 0.574725
O O9 0.797645 0.364864 0.734210
O O10 0.941373 0.283786 0.911064
O O11 0.000000 0.274122 0.250000
O O12 0.079120 0.375922 0.243170
O O13 0.119999 0.234730 0.276350
O O14 0.687146 0.986874 0.358050
O O15 0.500000 0.000000 0.000000
O O16 0.720512 0.990819 0.652531
O O17 0.192850 0.141997 0.234802
#
# Coordination Sequence:
#
# PCOD9297954 Si02
#       8
#     4   8   8   8   8   8   8   8
#     4  10  24  42  74 100 134 200 244 286 368 432
#     4  11  22  41  70  99 142 180 232 292 355 419
#     4  11  25  46  71 105 148 192 235 302 369 439
#     4  11  24  46  70 102 145 189 240 303 371 424
#     4  11  24  42  71 100 142 188 244 299 360 436
#     4  11  24  43  67 110 136 183 248 290 363 425
#     4  11  22  46  73 104 138 197 243 286 369 447
#     4  11  23  43  75 101 149 186 242 302 352 443
#
# _framework density 24.377534000000001
#
# number of rings (size 3 to 8) (size 9 to 14) (size 15 to 20)
#    0.000    1.067    4.000    2.400    2.800    2.133 
#    4.800    6.000    0.000    0.000    0.000    0.000 
#    0.000    0.000    0.000    0.000    0.000    0.000 
#
# Total GULP energy -167376.739041 kJ/mol
# GULP energy per Si atom -5579.224635 kJ/mol
# Density = 2.432205 g / cm^3
# Si number density = 24.377534 Si / 1000 Ang^3
#
#
#
# Elastic Constant Matrix: (Units=GPa)
#
#
# Indices 1 2 3 4 5 6 
#
# 1 106.2712 38.1925 9.7317 0.0000 -14.0739 0.0000
# 2 38.1925 160.8029 39.0921 0.0000 -13.2075 0.0000
# 3 9.7317 39.0921 48.1319 0.0000 5.3021 0.0000
# 4 0.0000 0.0000 0.0000 32.5630 0.0000 -4.5613
# 5 -14.0739 -13.2075 5.3021 0.0000 38.0281 0.0000
# 6 0.0000 0.0000 0.0000 -4.5613 0.0000 48.4102
#
#
#
# Elastic Compliance Matrix: (Units=1/GPa)
#
#
# Indices 1 2 3 4 5 6 
#
# 1 0.010670 -0.002049 -0.000863 0.000000 0.003358 0.000000
# 2 -0.002049 0.008667 -0.006981 0.000000 0.003225 0.000000
# 3 -0.000863 -0.006981 0.027343 0.000000 -0.006556 0.000000
# 4 0.000000 0.000000 0.000000 0.031120 0.000000 0.002932
# 5 0.003358 0.003225 -0.006556 0.000000 0.029573 0.000000
# 6 0.000000 0.000000 0.000000 0.002932 0.000000 0.020933
#
#
# Mechanical properties :
#
#
# Convention : Reuss Voigt Hill
#
# Bulk Modulus (GPa) = 37.18209 54.35985 45.77097
# Shear Modulus (GPa) = 31.83570 39.01290 35.42430
#
# Velocity S-wave (km/s) = 3.61771 4.00479 3.81616
# Velocity P-wave (km/s) = 5.72155 6.61302 6.18337
#
# Compressibility (1/GPa) = 0.02689467
#
# Stress axis : x y z
#
# Youngs Moduli (GPa) = 93.72201 115.37666 36.57307
#
# Poissons Ratio (x) = 0.23635 0.03158
# Poissons Ratio (y) = 0.19199 0.25530
# Poissons Ratio (z) = 0.08092 0.80539
#
# Static dielectric constant tensor:
#      x y z
#    x 2.222710 0.000000 -0.032070 
#    y 0.000000 1.904360 0.000000 
#    z -0.032070 0.000000 1.992850 
# 
# From -- ./inp_files/127240.got.cif
#   From: 2010.05.17/outbox.cif.g08.bks.cpg/sg15_64_cif.got.tgz:127240.got - 2010.06.03 18:47:42.
