data_PCOD9297555
_publ_section_title
;
Structure prediction by ZEFSAII (Michael W. Deem and Ramdas Pophale) SiO2 
 PCOD9297555
Probable space group: C 2/C
;
_chemical_formula_sum "Si O2"
_cell_formula_units_Z 64
_cell_length_a 23.891481
_cell_length_b 17.002698
_cell_length_c 15.516523
_cell_angle_alpha 90.000000
_cell_angle_beta 152.953549
_cell_angle_gamma 90.000000
_cell_volume 2866.107106
_symmetry_space_group_name_H-M "C 2/C"
_symmetry_group_IT_number 15
_symmetry_cell_setting 'monoclinic'
loop_
_space_group_symop_operation_xyz
x,y,z
-x,y,1/2-z
-x,-y,-z
x,-y,1/2+z
1/2+x,1/2+y,z
1/2-x,1/2+y,1/2-z
1/2-x,1/2-y,-z
1/2+x,1/2-y,1/2+z
loop_
_atom_site_type_symbol
_atom_site_label
_atom_site_fract_x
_atom_site_fract_y
_atom_site_fract_z
Si Si1 0.879483 0.861504 0.877666
Si Si2 0.654752 0.801454 0.107532
Si Si3 0.931462 0.164927 0.000019
Si Si4 0.688268 0.948218 0.717517
Si Si5 0.728465 0.907084 0.520599
Si Si6 0.535063 0.166567 0.626899
Si Si7 0.380779 0.953769 0.533784
Si Si8 0.369172 0.461553 0.562004
O O1 0.898563 0.785963 0.963546
O O2 0.819604 0.927548 0.854134
O O3 0.769535 0.850136 0.655252
O O4 0.000324 0.876224 0.987264
O O5 0.800226 0.798715 0.295752
O O6 0.617314 0.830010 0.152826
O O7 0.617938 0.861321 0.981923
O O8 0.894192 0.100999 0.020337
O O9 0.009745 0.244466 0.124812
O O10 0.591089 0.877114 0.577527
O O11 0.623685 0.012384 0.568883
O O12 0.742755 0.988166 0.877597
O O13 0.608659 0.878207 0.303971
O O14 0.840023 0.910747 0.606766
O O15 0.718351 0.993738 0.550389
O O16 0.500000 0.974801 0.750000
O O17 0.500000 0.505695 0.750000
#
# Coordination Sequence:
#
# PCOD9297555 Si02
#       8
#     8   8   8   8   8   8   8   8
#     4  10  24  41  64  93 129 176 221 267 328 394
#     4  11  23  42  64  96 131 176 213 279 334 385
#     4  11  22  41  65  92 134 171 217 269 337 390
#     4  11  23  42  66  94 138 173 218 270 330 396
#     4  11  23  40  64 101 132 168 220 274 329 398
#     4  11  23  40  68  97 134 173 217 278 336 385
#     4  11  23  39  64  96 127 170 219 266 327 388
#     4  12  25  43  66 101 137 176 215 270 337 401
#
# _framework density 22.329940000000001
#
# number of rings (size 3 to 8) (size 9 to 14) (size 15 to 20)
#    0.000    1.000    6.250    0.000    1.750    5.500 
#    0.000    0.625    0.000    2.250    0.000    0.000 
#    0.000    0.000    0.000    0.000    0.000    0.000 
#
# Total GULP energy -178259.422550 kJ/mol
# GULP energy per Si atom -5570.606955 kJ/mol
# Density = 2.227912 g / cm^3
# Si number density = 22.329940 Si / 1000 Ang^3
#
#
#
# Elastic Constant Matrix: (Units=GPa)
#
#
# Indices 1 2 3 4 5 6 
#
# 1 49.2069 18.5038 -1.0863 0.0000 17.2854 0.0000
# 2 18.5038 71.5053 14.3840 0.0000 -2.6501 0.0000
# 3 -1.0863 14.3840 65.3527 0.0000 5.2732 0.0000
# 4 0.0000 0.0000 0.0000 36.0305 0.0000 -1.3055
# 5 17.2854 -2.6501 5.2732 0.0000 21.2689 0.0000
# 6 0.0000 0.0000 0.0000 -1.3055 0.0000 21.3259
#
#
#
# Elastic Compliance Matrix: (Units=1/GPa)
#
#
# Indices 1 2 3 4 5 6 
#
# 1 0.036224 -0.011738 0.005795 0.000000 -0.032339 0.000000
# 2 -0.011738 0.018587 -0.005350 0.000000 0.013182 0.000000
# 3 0.005795 -0.005350 0.017356 0.000000 -0.009679 0.000000
# 4 0.000000 0.000000 0.000000 0.027816 0.000000 0.001703
# 5 -0.032339 0.013182 -0.009679 0.000000 0.077341 0.000000
# 6 0.000000 0.000000 0.000000 0.001703 0.000000 0.046996
#
#
# Mechanical properties :
#
#
# Convention : Reuss Voigt Hill
#
# Bulk Modulus (GPa) = 20.16852 27.74086 23.95469
# Shear Modulus (GPa) = 18.98007 26.00929 22.49468
#
# Velocity S-wave (km/s) = 2.91861 3.41658 3.17736
# Velocity P-wave (km/s) = 4.51767 5.29284 4.92054
#
# Compressibility (1/GPa) = 0.04958222
#
# Stress axis : x y z
#
# Youngs Moduli (GPa) = 27.60569 53.80031 57.61558
#
# Poissons Ratio (x) = 0.63152 -0.33389
# Poissons Ratio (y) = 0.32404 0.30823
# Poissons Ratio (z) = -0.15998 0.28782
#
# Static dielectric constant tensor:
#      x y z
#    x 1.820060 0.000000 0.022610 
#    y 0.000000 1.912390 0.000000 
#    z 0.022610 0.000000 1.861120 
# 
# From -- ./inp_files/174262.got.cif
#   From: 2010.05.17/outbox.cif.g08.bks.cpg/sg15_88_cif.got.tgz:174262.got - 2010.06.03 18:47:42.
