data_PCOD9297505
_publ_section_title
;
Structure prediction by ZEFSAII (Michael W. Deem and Ramdas Pophale) SiO2 
 PCOD9297505
Probable space group: C 2/C
;
_chemical_formula_sum "Si O2"
_cell_formula_units_Z 44
_cell_length_a 19.121044
_cell_length_b 4.967157
_cell_length_c 20.262280
_cell_angle_alpha 90.000000
_cell_angle_beta 71.306218
_cell_angle_gamma 90.000000
_cell_volume 1822.930673
_symmetry_space_group_name_H-M "C 2/C"
_symmetry_group_IT_number 15
_symmetry_cell_setting 'monoclinic'
loop_
_space_group_symop_operation_xyz
x,y,z
-x,y,1/2-z
-x,-y,-z
x,-y,1/2+z
1/2+x,1/2+y,z
1/2-x,1/2+y,1/2-z
1/2-x,1/2-y,-z
1/2+x,1/2-y,1/2+z
loop_
_atom_site_type_symbol
_atom_site_label
_atom_site_fract_x
_atom_site_fract_y
_atom_site_fract_z
Si Si1 0.500000 0.112009 0.750000
Si Si2 0.627914 0.224265 0.141426
Si Si3 0.252342 0.224200 0.705707
Si Si4 0.881259 0.522202 0.984976
Si Si5 0.373304 0.503549 0.077732
Si Si6 0.508288 0.610697 0.116901
O O1 0.526894 0.283933 0.804424
O O2 0.431775 0.941020 0.797950
O O3 0.689431 0.335198 0.171050
O O4 0.579588 0.449003 0.119695
O O5 0.659701 0.043093 0.071809
O O6 0.224337 0.447478 0.766644
O O7 0.316859 0.378472 0.647714
O O8 0.887987 0.248330 0.023198
O O9 0.847844 0.746578 0.043559
O O10 0.959358 0.646593 0.936848
O O11 0.449280 0.444422 0.093392
#
# Coordination Sequence:
#
# PCOD9297505 Si02
#       6
#     4   8   8   8   8   8
#     4  10  24  40  72 104 142 188 238 296 356 412
#     4  11  26  45  73 107 143 187 243 300 351 429
#     4  12  30  50  72 103 147 188 241 295 363 430
#     4  11  25  45  72 107 142 183 240 292 352 427
#     4  12  26  45  73 103 143 191 229 293 363 422
#     4  11  24  43  72 104 145 183 241 293 353 425
#
# _framework density 24.136958
#
# number of rings (size 3 to 8) (size 9 to 14) (size 15 to 20)
#    0.000    0.727    1.818    3.818   15.273    1.455 
#    0.000    0.000    0.000    0.000    0.000    0.000 
#    0.000    0.000    0.000    0.000    0.000    0.000 
#
# Total GULP energy -123231.996359 kJ/mol
# GULP energy per Si atom -5601.454380 kJ/mol
# Density = 2.408202 g / cm^3
# Si number density = 24.136958 Si / 1000 Ang^3
#
#
#
# Elastic Constant Matrix: (Units=GPa)
#
#
# Indices 1 2 3 4 5 6 
#
# 1 77.6954 20.7357 29.7587 0.0155 19.3209 -0.0097
# 2 20.7357 106.0986 30.4235 -0.0048 19.5690 -0.0223
# 3 29.7587 30.4235 113.8011 0.0145 13.9063 0.0035
# 4 0.0155 -0.0048 0.0145 117.1522 0.0172 20.7178
# 5 19.3209 19.5690 13.9063 0.0172 22.0918 -0.0042
# 6 -0.0097 -0.0223 0.0035 20.7178 -0.0042 21.5728
#
#
#
# Elastic Compliance Matrix: (Units=1/GPa)
#
#
# Indices 1 2 3 4 5 6 
#
# 1 0.017287 -0.000119 -0.002875 -0.000001 -0.013204 0.000007
# 2 -0.000119 0.011677 -0.001993 0.000000 -0.008985 0.000010
# 3 -0.002875 -0.001993 0.010345 0.000000 -0.002232 -0.000006
# 4 -0.000001 0.000000 0.000000 0.010282 -0.000009 -0.009875
# 5 -0.013204 -0.008985 -0.002232 -0.000009 0.066178 0.000007
# 6 0.000007 0.000010 -0.000006 -0.009875 0.000007 0.055838
#
#
# Mechanical properties :
#
#
# Convention : Reuss Voigt Hill
#
# Bulk Modulus (GPa) = 34.08852 51.04787 42.56820
# Shear Modulus (GPa) = 26.12891 46.60849 36.36870
#
# Velocity S-wave (km/s) = 3.29375 4.39908 3.88592
# Velocity P-wave (km/s) = 5.34964 6.85549 6.14884
#
# Compressibility (1/GPa) = 0.02933539
#
# Stress axis : x y z
#
# Youngs Moduli (GPa) = 57.84611 85.63772 96.66868
#
# Poissons Ratio (x) = 0.01017 0.27796
# Poissons Ratio (y) = 0.00687 0.19263
# Poissons Ratio (z) = 0.16633 0.17065
#
# Static dielectric constant tensor:
#      x y z
#    x 1.908740 -0.000010 -0.030340 
#    y -0.000010 1.948980 0.000000 
#    z -0.030340 0.000000 1.983500 
# 
# From -- ./inp_files/212879.got.cif
#   From: 2010.05.17/outbox.cif.g08.bks.cpg/sg15_107_cif.got.tgz:212879.got - 2010.06.03 18:47:42.
