data_PCOD9297381
_publ_section_title
;
Structure prediction by ZEFSAII (Michael W. Deem and Ramdas Pophale) SiO2 
 PCOD9297381
Probable space group: C 2/C
;
_chemical_formula_sum "Si O2"
_cell_formula_units_Z 40
_cell_length_a 13.694831
_cell_length_b 23.662452
_cell_length_c 9.093732
_cell_angle_alpha 90.000000
_cell_angle_beta 42.285767
_cell_angle_gamma 90.000000
_cell_volume 1982.727913
_symmetry_space_group_name_H-M "C 2/C"
_symmetry_group_IT_number 15
_symmetry_cell_setting 'monoclinic'
loop_
_space_group_symop_operation_xyz
x,y,z
-x,y,1/2-z
-x,-y,-z
x,-y,1/2+z
1/2+x,1/2+y,z
1/2-x,1/2+y,1/2-z
1/2-x,1/2-y,-z
1/2+x,1/2-y,1/2+z
loop_
_atom_site_type_symbol
_atom_site_label
_atom_site_fract_x
_atom_site_fract_y
_atom_site_fract_z
Si Si1 0.176466 0.128668 0.232560
Si Si2 0.178271 0.272917 0.734060
Si Si3 0.846622 0.156854 0.581678
Si Si4 0.429499 0.950597 0.482537
Si Si5 0.942377 0.639188 0.463246
O O1 0.230438 0.176609 0.288988
O O2 0.001913 0.128399 0.435104
O O3 0.202888 0.146865 0.031929
O O4 0.260232 0.068868 0.166009
O O5 0.250000 0.250000 0.500000
O O6 0.152518 0.223128 0.879613
O O7 0.019652 0.299981 0.880906
O O8 0.728313 0.135784 0.830698
O O9 0.500000 0.962425 0.250000
O O10 0.497813 0.892813 0.464283
O O11 0.500000 0.000000 0.500000
O O12 0.000000 0.611505 0.250000
#
# Coordination Sequence:
#
# PCOD9297381 Si02
#       5
#     8   8   8   8   8
#     4  10  24  40  62  95 130 174 220 264 332 390
#     4  11  22  36  60  95 140 181 220 258 316 392
#     4  11  21  39  62  90 140 172 213 269 314 396
#     4  11  23  45  71  91 121 163 224 279 340 403
#     4  11  22  39  63  95 130 175 224 262 321 388
#
# _framework density 20.174225
#
# number of rings (size 3 to 8) (size 9 to 14) (size 15 to 20)
#    0.000    1.200    4.000    2.400    0.000    1.600 
#    0.000    1.000    0.000    0.000    0.000    0.000 
#    0.000    0.000    0.000    0.000    0.000    0.000 
#
# Total GULP energy -111353.650657 kJ/mol
# GULP energy per Si atom -5567.682533 kJ/mol
# Density = 2.012831 g / cm^3
# Si number density = 20.174225 Si / 1000 Ang^3
#
#
#
# Elastic Constant Matrix: (Units=GPa)
#
#
# Indices 1 2 3 4 5 6 
#
# 1 104.2933 37.0380 64.2228 0.0000 2.6541 0.0000
# 2 37.0380 69.8422 45.5002 0.0000 2.9570 0.0000
# 3 64.2228 45.5002 167.0095 0.0000 -7.0905 0.0000
# 4 0.0000 0.0000 0.0000 -18.2351 0.0000 2.3425
# 5 2.6541 2.9570 -7.0905 0.0000 40.5056 0.0000
# 6 0.0000 0.0000 0.0000 2.3425 0.0000 48.3425
#
#
#
# Elastic Compliance Matrix: (Units=1/GPa)
#
#
# Indices 1 2 3 4 5 6 
#
# 1 0.013774 -0.004576 -0.004105 0.000000 -0.001287 0.000000
# 2 -0.004576 0.019110 -0.003519 0.000000 -0.001711 0.000000
# 3 -0.004105 -0.003519 0.008611 0.000000 0.002033 0.000000
# 4 0.000000 0.000000 0.000000 -0.054500 0.000000 0.002641
# 5 -0.001287 -0.001711 0.002033 0.000000 0.025253 0.000000
# 6 0.000000 0.000000 0.000000 0.002641 0.000000 0.020558
#
#
# Mechanical properties :
#
#
# Convention : Reuss Voigt Hill
#
# Bulk Modulus (GPa) = 58.49595 70.51858 64.50727
# Shear Modulus (GPa) = 79.48703 27.08154 53.28428
#
# Velocity S-wave (km/s) = 6.28377 3.66783 5.14484
# Velocity P-wave (km/s) = 9.03914 7.27791 8.20591
#
# Compressibility (1/GPa) = 0.01709520
#
# Stress axis : x y z
#
# Youngs Moduli (GPa) = 72.60216 52.32924 116.12736
#
# Poissons Ratio (x) = 0.23945 0.47666
# Poissons Ratio (y) = 0.33221 0.40869
# Poissons Ratio (z) = 0.29800 0.18416
#
# Static dielectric constant tensor:
#      x y z
#    x 1.779200 0.000000 -0.027810 
#    y 0.000000 1.788210 0.000000 
#    z -0.027810 0.000000 1.760670 
# 
# From -- ./inp_files/41923.got.cif
#   From: 2010.05.17/outbox.cif.g08.bks.cpg/sg15_21_cif.got.tgz:41923.got - 2010.06.03 18:47:42.
