data_PCOD9297302
_publ_section_title
;
Structure prediction by ZEFSAII (Michael W. Deem and Ramdas Pophale) SiO2 
 PCOD9297302
Probable space group: C 2/C
;
_chemical_formula_sum "Si O2"
_cell_formula_units_Z 36
_cell_length_a 22.514952
_cell_length_b 8.004208
_cell_length_c 14.392878
_cell_angle_alpha 90.000000
_cell_angle_beta 32.009706
_cell_angle_gamma 90.000000
_cell_volume 1374.878935
_symmetry_space_group_name_H-M "C 2/C"
_symmetry_group_IT_number 15
_symmetry_cell_setting 'monoclinic'
loop_
_space_group_symop_operation_xyz
x,y,z
-x,y,1/2-z
-x,-y,-z
x,-y,1/2+z
1/2+x,1/2+y,z
1/2-x,1/2+y,1/2-z
1/2-x,1/2-y,-z
1/2+x,1/2-y,1/2+z
loop_
_atom_site_type_symbol
_atom_site_label
_atom_site_fract_x
_atom_site_fract_y
_atom_site_fract_z
Si Si1 0.500000 0.500000 0.500000
Si Si2 0.980241 0.690981 0.386370
Si Si3 0.757361 0.911915 0.222966
Si Si4 0.714977 0.918509 0.599193
Si Si5 0.687183 0.379089 0.692247
O O1 0.494690 0.371368 0.413226
O O2 0.442292 0.338981 0.642825
O O3 0.082871 0.579980 0.286555
O O4 0.000000 0.702929 0.250000
O O5 0.862143 0.605999 0.567796
O O6 0.760648 0.745394 0.156094
O O7 0.764630 0.055298 0.135255
O O8 0.840806 0.960129 0.197334
O O9 0.750000 0.750000 0.500000
O O10 0.754784 0.062512 0.476833
#
# Coordination Sequence:
#
# PCOD9297302 Si02
#       5
#     4   8   8   8   8
#     4  10  24  38  68 100 138 172 222 286 332 400
#     4  11  23  44  68 102 134 179 228 276 346 399
#     4  11  25  42  70  96 139 176 227 281 339 404
#     4  12  23  43  70  96 135 179 224 282 337 405
#     4  11  23  43  64 102 132 181 226 278 342 402
#
# _framework density 26.184123
#
# number of rings (size 3 to 8) (size 9 to 14) (size 15 to 20)
#    0.000    0.889    4.444    2.667    3.111    0.000 
#    0.000    0.000    0.000    0.000    0.000    0.000 
#    0.000    0.000    0.000    0.000    0.000    0.000 
#
# Total GULP energy -100413.570910 kJ/mol
# GULP energy per Si atom -5578.531717 kJ/mol
# Density = 2.612453 g / cm^3
# Si number density = 26.184123 Si / 1000 Ang^3
#
#
#
# Elastic Constant Matrix: (Units=GPa)
#
#
# Indices 1 2 3 4 5 6 
#
# 1 156.0558 34.1155 68.9073 -0.0001 16.0997 0.0000
# 2 34.1155 92.9403 38.9072 0.0006 6.9561 -0.0002
# 3 68.9073 38.9072 137.6587 0.0006 15.0717 -0.0003
# 4 -0.0001 0.0006 0.0006 35.5822 -0.0002 11.3774
# 5 16.0997 6.9561 15.0717 -0.0002 56.4934 0.0001
# 6 0.0000 -0.0002 -0.0003 11.3774 0.0001 46.9145
#
#
#
# Elastic Compliance Matrix: (Units=1/GPa)
#
#
# Indices 1 2 3 4 5 6 
#
# 1 0.008492 -0.001476 -0.003697 0.000000 -0.001252 0.000000
# 2 -0.001476 0.012480 -0.002746 0.000000 -0.000383 0.000000
# 3 -0.003697 -0.002746 0.010032 0.000000 -0.001285 0.000000
# 4 0.000000 0.000000 0.000000 0.030466 0.000000 -0.007389
# 5 -0.001252 -0.000383 -0.001285 0.000000 0.018448 0.000000
# 6 0.000000 0.000000 0.000000 -0.007389 0.000000 0.023107
#
#
# Mechanical properties :
#
#
# Convention : Reuss Voigt Hill
#
# Bulk Modulus (GPa) = 65.93918 74.50165 70.22042
# Shear Modulus (GPa) = 40.34921 44.11302 42.23112
#
# Velocity S-wave (km/s) = 3.92979 4.10899 4.02039
# Velocity P-wave (km/s) = 6.76968 7.14328 6.95899
#
# Compressibility (1/GPa) = 0.01516549
#
# Stress axis : x y z
#
# Youngs Moduli (GPa) = 117.75717 80.12952 99.68482
#
# Poissons Ratio (x) = 0.11827 0.36849
# Poissons Ratio (y) = 0.17381 0.27378
# Poissons Ratio (z) = 0.43530 0.22007
#
# Static dielectric constant tensor:
#      x y z
#    x 2.311470 0.000000 -0.226760 
#    y 0.000000 2.287200 0.000000 
#    z -0.226760 0.000000 2.270310 
# 
# From -- ./inp_files/150168.got.cif
#   From: 2010.05.17/outbox.cif.g08.bks.cpg/sg15_76_cif.got.tgz:150168.got - 2010.06.03 18:47:42.
