data_PCOD9297184
_publ_section_title
;
Structure prediction by ZEFSAII (Michael W. Deem and Ramdas Pophale) SiO2 
 PCOD9297184
Probable space group: C 2/C
;
_chemical_formula_sum "Si O2"
_cell_formula_units_Z 36
_cell_length_a 21.793096
_cell_length_b 10.375821
_cell_length_c 16.559405
_cell_angle_alpha 90.000000
_cell_angle_beta 23.019404
_cell_angle_gamma 90.000000
_cell_volume 1464.233968
_symmetry_space_group_name_H-M "C 2/C"
_symmetry_group_IT_number 15
_symmetry_cell_setting 'monoclinic'
loop_
_space_group_symop_operation_xyz
x,y,z
-x,y,1/2-z
-x,-y,-z
x,-y,1/2+z
1/2+x,1/2+y,z
1/2-x,1/2+y,1/2-z
1/2-x,1/2-y,-z
1/2+x,1/2-y,1/2+z
loop_
_atom_site_type_symbol
_atom_site_label
_atom_site_fract_x
_atom_site_fract_y
_atom_site_fract_z
Si Si1 0.095773 0.827227 0.407695
Si Si2 0.000000 0.481471 0.250000
Si Si3 0.847937 0.677462 0.314546
Si Si4 0.181639 0.470222 0.260405
Si Si5 0.253165 0.688397 0.358255
O O1 0.078961 0.778512 0.336995
O O2 0.293991 0.840573 0.323221
O O3 0.159001 0.709413 0.387958
O O4 0.073544 0.129742 0.356644
O O5 0.038721 0.578212 0.276786
O O6 0.856191 0.389174 0.448779
O O7 0.750000 0.750000 0.500000
O O8 0.747061 0.585844 0.377828
O O9 0.274027 0.433491 0.229831
O O10 0.000000 0.500000 0.500000
#
# Coordination Sequence:
#
# PCOD9297184 Si02
#       5
#     8   4   8   8   8
#     4  10  24  49  86 117 162 229 279 331 430 509
#     4  12  30  50  86 128 172 214 286 372 406 518
#     4  12  28  50  83 123 176 212 274 360 430 485
#     4  10  23  50  88 111 166 219 283 340 403 519
#     4  10  24  49  88 120 159 227 289 337 430 491
#
# _framework density 24.586234000000001
#
# number of rings (size 3 to 8) (size 9 to 14) (size 15 to 20)
#    1.333    0.000    2.222    1.333    6.222    3.556 
#    4.000    2.222    4.889    0.000    0.000    0.000 
#    0.000    0.000    0.000    0.000    0.000    0.000 
#
# Total GULP energy -100576.664951 kJ/mol
# GULP energy per Si atom -5587.592497 kJ/mol
# Density = 2.453027 g / cm^3
# Si number density = 24.586234 Si / 1000 Ang^3
#
#
#
# Elastic Constant Matrix: (Units=GPa)
#
#
# Indices 1 2 3 4 5 6 
#
# 1 127.2657 53.5817 77.7378 0.0000 -2.4854 0.0000
# 2 53.5817 133.2451 80.6137 0.0000 -5.7917 0.0000
# 3 77.7378 80.6137 202.3802 0.0000 -14.9349 0.0000
# 4 0.0000 0.0000 0.0000 48.4188 0.0000 4.6160
# 5 -2.4854 -5.7917 -14.9349 0.0000 46.0748 0.0000
# 6 0.0000 0.0000 0.0000 4.6160 0.0000 66.1110
#
#
#
# Elastic Compliance Matrix: (Units=1/GPa)
#
#
# Indices 1 2 3 4 5 6 
#
# 1 0.010856 -0.002426 -0.003261 0.000000 -0.000776 0.000000
# 2 -0.002426 0.010430 -0.003212 0.000000 0.000139 0.000000
# 3 -0.003261 -0.003212 0.007613 0.000000 0.001888 0.000000
# 4 0.000000 0.000000 0.000000 0.020792 0.000000 -0.001452
# 5 -0.000776 0.000139 0.001888 0.000000 0.022291 0.000000
# 6 0.000000 0.000000 0.000000 -0.001452 0.000000 0.015227
#
#
# Mechanical properties :
#
#
# Convention : Reuss Voigt Hill
#
# Bulk Modulus (GPa) = 90.09326 98.52862 94.31094
# Shear Modulus (GPa) = 45.99495 48.85144 47.42319
#
# Velocity S-wave (km/s) = 4.32992 4.46235 4.39663
# Velocity P-wave (km/s) = 7.85627 8.16773 8.01351
#
# Compressibility (1/GPa) = 0.01109961
#
# Stress axis : x y z
#
# Youngs Moduli (GPa) = 92.11747 95.87508 131.36188
#
# Poissons Ratio (x) = 0.23264 0.42832
# Poissons Ratio (y) = 0.22352 0.42198
# Poissons Ratio (z) = 0.30036 0.30799
#
# Static dielectric constant tensor:
#      x y z
#    x 2.003010 0.000000 0.033130 
#    y 0.000000 2.118870 0.000000 
#    z 0.033130 0.000000 1.895150 
# 
# From -- ./inp_files/173065.got.cif
#   From: 2010.05.17/outbox.cif.g08.bks.cpg/sg15_87_cif.got.tgz:173065.got - 2010.06.03 18:47:42.
