data_PCOD9297129
_publ_section_title
;
Structure prediction by ZEFSAII (Michael W. Deem and Ramdas Pophale) SiO2 
 PCOD9297129
Probable space group: C 2/C
;
_chemical_formula_sum "Si O2"
_cell_formula_units_Z 32
_cell_length_a 11.055834
_cell_length_b 14.367458
_cell_length_c 8.289077
_cell_angle_alpha 90.000000
_cell_angle_beta 92.994616
_cell_angle_gamma 90.000000
_cell_volume 1314.874075
_symmetry_space_group_name_H-M "C 2/C"
_symmetry_group_IT_number 15
_symmetry_cell_setting 'monoclinic'
loop_
_space_group_symop_operation_xyz
x,y,z
-x,y,1/2-z
-x,-y,-z
x,-y,1/2+z
1/2+x,1/2+y,z
1/2-x,1/2+y,1/2-z
1/2-x,1/2-y,-z
1/2+x,1/2-y,1/2+z
loop_
_atom_site_type_symbol
_atom_site_label
_atom_site_fract_x
_atom_site_fract_y
_atom_site_fract_z
Si Si1 0.401364 0.422259 0.535961
Si Si2 0.623960 0.224910 0.905613
Si Si3 0.898504 0.618455 0.917078
Si Si4 0.226494 0.474561 0.803156
O O1 0.500000 0.500000 0.500000
O O2 0.450335 0.318419 0.550348
O O3 0.333308 0.435443 0.700066
O O4 0.293763 0.441578 0.401998
O O5 0.538153 0.141818 0.962958
O O6 0.638107 0.198642 0.716726
O O7 0.750000 0.250000 0.000000
O O8 0.873012 0.523664 0.815868
O O9 0.824163 0.600808 0.074952
#
# Coordination Sequence:
#
# PCOD9297129 Si02
#       4
#     8   8   8   8
#     4  11  24  45  73 104 153 201 252 319 383 461
#     4  11  24  46  71 111 153 194 258 316 387 454
#     4  10  24  46  81 107 154 199 257 323 380 464
#     4  10  23  48  73 110 148 205 257 306 400 458
#
# _framework density 24.336933999999999
#
# number of rings (size 3 to 8) (size 9 to 14) (size 15 to 20)
#    0.000    1.500    2.500    0.750    7.000    5.000 
#    4.500    0.000   11.000    0.000    0.000    0.000 
#    0.000    0.000    0.000    0.000    0.000    0.000 
#
# Total GULP energy -89299.163538 kJ/mol
# GULP energy per Si atom -5581.197721 kJ/mol
# Density = 2.428154 g / cm^3
# Si number density = 24.336934 Si / 1000 Ang^3
#
#
#
# Elastic Constant Matrix: (Units=GPa)
#
#
# Indices 1 2 3 4 5 6 
#
# 1 161.8432 61.8428 63.3155 0.0000 -2.7430 0.0000
# 2 61.8428 124.2750 46.7070 0.0000 1.6366 0.0000
# 3 63.3155 46.7070 107.9984 0.0000 -17.7445 0.0000
# 4 0.0000 0.0000 0.0000 39.4482 0.0000 10.4469
# 5 -2.7430 1.6366 -17.7445 0.0000 54.6671 0.0000
# 6 0.0000 0.0000 0.0000 10.4469 0.0000 52.8662
#
#
#
# Elastic Compliance Matrix: (Units=1/GPa)
#
#
# Indices 1 2 3 4 5 6 
#
# 1 0.008857 -0.002861 -0.004086 0.000000 -0.000796 0.000000
# 2 -0.002861 0.010690 -0.003192 0.000000 -0.001500 0.000000
# 3 -0.004086 -0.003192 0.013751 0.000000 0.004354 0.000000
# 4 0.000000 0.000000 0.000000 0.026750 0.000000 -0.005286
# 5 -0.000796 -0.001500 0.004354 0.000000 0.019711 0.000000
# 6 0.000000 0.000000 0.000000 -0.005286 0.000000 0.019960
#
#
# Mechanical properties :
#
#
# Convention : Reuss Voigt Hill
#
# Bulk Modulus (GPa) = 76.81073 81.98303 79.39688
# Shear Modulus (GPa) = 40.21321 44.21304 42.21312
#
# Velocity S-wave (km/s) = 4.06932 4.26691 4.16929
# Velocity P-wave (km/s) = 7.32865 7.61808 7.47477
#
# Compressibility (1/GPa) = 0.01301901
#
# Stress axis : x y z
#
# Youngs Moduli (GPa) = 112.90213 93.54481 72.72356
#
# Poissons Ratio (x) = 0.26768 0.29715
# Poissons Ratio (y) = 0.32307 0.23214
# Poissons Ratio (z) = 0.46131 0.29860
#
# Static dielectric constant tensor:
#      x y z
#    x 2.031650 0.000000 0.079050 
#    y 0.000000 2.034870 0.000000 
#    z 0.079050 0.000000 1.987950 
# 
# From -- ./inp_files/27660.got.cif
#   From: 2010.05.17/outbox.cif.g08.bks.cpg/sg15_14_cif.got.tgz:27660.got - 2010.06.03 18:47:42.
