data_PCOD9297121
_publ_section_title
;
Structure prediction by ZEFSAII (Michael W. Deem and Ramdas Pophale) SiO2 
 PCOD9297121
Probable space group: C 2/C
;
_chemical_formula_sum "Si O2"
_cell_formula_units_Z 60
_cell_length_a 13.193905
_cell_length_b 24.772895
_cell_length_c 8.218316
_cell_angle_alpha 90.000000
_cell_angle_beta 94.382240
_cell_angle_gamma 90.000000
_cell_volume 2678.313589
_symmetry_space_group_name_H-M "C 2/C"
_symmetry_group_IT_number 15
_symmetry_cell_setting 'monoclinic'
loop_
_space_group_symop_operation_xyz
x,y,z
-x,y,1/2-z
-x,-y,-z
x,-y,1/2+z
1/2+x,1/2+y,z
1/2-x,1/2+y,1/2-z
1/2-x,1/2-y,-z
1/2+x,1/2-y,1/2+z
loop_
_atom_site_type_symbol
_atom_site_label
_atom_site_fract_x
_atom_site_fract_y
_atom_site_fract_z
Si Si1 0.609598 0.879813 0.803261
Si Si2 0.000000 0.137039 0.250000
Si Si3 0.115748 0.989376 0.065910
Si Si4 0.744957 0.315078 0.277779
Si Si5 0.575124 0.622458 0.617304
Si Si6 0.731149 0.972154 0.701436
Si Si7 0.391532 0.916669 0.327916
Si Si8 0.697798 0.695531 0.146546
O O1 0.500000 0.856712 0.750000
O O2 0.647662 0.926031 0.685892
O O3 0.696351 0.835061 0.808820
O O4 0.599763 0.910268 0.975489
O O5 0.899463 0.169583 0.283666
O O6 0.030451 0.111991 0.431105
O O7 0.111479 0.937081 0.182521
O O8 0.180772 0.037946 0.151667
O O9 0.195527 0.971985 0.941321
O O10 0.000000 0.000000 0.000000
O O11 0.663926 0.333264 0.132256
O O12 0.828662 0.362462 0.278235
O O13 0.690030 0.311968 0.449198
O O14 0.793599 0.256055 0.283505
O O15 0.500000 0.640497 0.750000
O O16 0.672319 0.028776 0.715732
O O17 0.500000 0.918543 0.250000
#
# Coordination Sequence:
#
# PCOD9297121 Si02
#       8
#     8   4   8   8   8   8   8   8
#     4  11  26  45  69  98 143 183 238 303 357 423
#     4  12  26  42  76 112 142 188 244 294 370 452
#     4  12  27  41  69 103 144 189 234 290 364 439
#     4  10  23  48  72 101 147 189 237 305 365 428
#     4  12  25  45  72 103 147 188 238 299 367 426
#     4  12  24  45  68 101 141 184 238 292 359 436
#     4  11  25  43  70  99 133 184 239 292 359 430
#     4  10  24  47  72 108 142 188 245 300 366 442
#
# _framework density 22.402156000000002
#
# number of rings (size 3 to 8) (size 9 to 14) (size 15 to 20)
#    0.000    0.800    4.000    2.400    6.533    3.200 
#    2.400    0.000    0.000    0.000    0.000    0.000 
#    0.000    0.000    0.000    0.000    0.000    0.000 
#
# Total GULP energy -167383.645382 kJ/mol
# GULP energy per Si atom -5579.454846 kJ/mol
# Density = 2.235117 g / cm^3
# Si number density = 22.402156 Si / 1000 Ang^3
#
#
#
# Elastic Constant Matrix: (Units=GPa)
#
#
# Indices 1 2 3 4 5 6 
#
# 1 135.7133 34.3748 33.5816 0.0000 -8.1582 0.0000
# 2 34.3748 102.0081 4.7025 0.0000 5.4269 0.0000
# 3 33.5816 4.7025 51.5811 0.0000 -2.5228 0.0000
# 4 0.0000 0.0000 0.0000 21.5456 0.0000 -0.1439
# 5 -8.1582 5.4269 -2.5228 0.0000 41.1933 0.0000
# 6 0.0000 0.0000 0.0000 -0.1439 0.0000 -9.2389
#
#
#
# Elastic Compliance Matrix: (Units=1/GPa)
#
#
# Indices 1 2 3 4 5 6 
#
# 1 0.009754 -0.003117 -0.005969 0.000000 0.001977 0.000000
# 2 -0.003117 0.010917 0.000936 0.000000 -0.001998 0.000000
# 3 -0.005969 0.000936 0.023194 0.000000 0.000115 0.000000
# 4 0.000000 0.000000 0.000000 0.046408 0.000000 -0.000723
# 5 0.001977 -0.001998 0.000115 0.000000 0.024938 0.000000
# 6 0.000000 0.000000 0.000000 -0.000723 0.000000 -0.108227
#
#
# Mechanical properties :
#
#
# Convention : Reuss Voigt Hill
#
# Bulk Modulus (GPa) = 36.27913 48.29115 42.28514
# Shear Modulus (GPa) = 153.98274 25.14292 89.56283
#
# Velocity S-wave (km/s) = 8.29969 3.35377 6.32980
# Velocity P-wave (km/s) = 10.39597 6.04982 8.50519
#
# Compressibility (1/GPa) = 0.02756406
#
# Stress axis : x y z
#
# Youngs Moduli (GPa) = 102.52351 91.60363 43.11550
#
# Poissons Ratio (x) = 0.28551 0.25737
# Poissons Ratio (y) = 0.31955 -0.04037
# Poissons Ratio (z) = 0.61200 -0.08576
#
# Static dielectric constant tensor:
#      x y z
#    x 1.832870 0.000000 0.102530 
#    y 0.000000 1.827450 0.000000 
#    z 0.102530 0.000000 2.441210 
# 
# From -- ./inp_files/34301.got.cif
#   From: 2010.05.17/outbox.cif.g08.bks.cpg/sg15_18_cif.got.tgz:34301.got - 2010.06.03 18:47:42.
