data_PCOD9297853
_publ_section_title
;
Structure prediction by ZEFSAII (Michael W. Deem and Ramdas Pophale) SiO2 
 PCOD9297853
Probable space group: C 2/C
;
_chemical_formula_sum "Si O2"
_cell_formula_units_Z 48
_cell_length_a 13.564610
_cell_length_b 11.914054
_cell_length_c 14.846264
_cell_angle_alpha 90.000000
_cell_angle_beta 118.083640
_cell_angle_gamma 90.000000
_cell_volume 2116.807155
_symmetry_space_group_name_H-M "C 2/C"
_symmetry_group_IT_number 15
_symmetry_cell_setting 'monoclinic'
loop_
_space_group_symop_operation_xyz
x,y,z
-x,y,1/2-z
-x,-y,-z
x,-y,1/2+z
1/2+x,1/2+y,z
1/2-x,1/2+y,1/2-z
1/2-x,1/2-y,-z
1/2+x,1/2-y,1/2+z
loop_
_atom_site_type_symbol
_atom_site_label
_atom_site_fract_x
_atom_site_fract_y
_atom_site_fract_z
Si Si1 0.582636 0.728543 0.913912
Si Si2 0.612250 0.514700 0.488695
Si Si3 0.318123 0.065000 0.700334
Si Si4 0.868333 0.330924 0.759482
Si Si5 0.159884 0.716512 0.640314
Si Si6 0.434573 0.730941 0.140442
O O1 0.451343 0.765173 0.862059
O O2 0.617249 0.777738 0.833170
O O3 0.605793 0.596218 0.925068
O O4 0.648260 0.778215 0.028104
O O5 0.500000 0.500000 0.500000
O O6 0.717428 0.514529 0.599943
O O7 0.622261 0.631990 0.439795
O O8 0.284646 0.112675 0.783955
O O9 0.369133 0.166200 0.660806
O O10 0.396858 0.961245 0.761505
O O11 0.735926 0.314644 0.717455
O O12 0.032328 0.720417 0.619224
O O13 0.500000 0.671582 0.250000
#
# Coordination Sequence:
#
# PCOD9297853 Si02
#       6
#     8   8   8   8   8   8
#     4  11  25  42  72  98 142 181 234 289 359 417
#     4  12  22  45  70 100 138 183 236 296 346 429
#     4  11  25  45  70  99 147 183 234 299 348 423
#     4  11  25  46  68 104 142 183 235 297 354 425
#     4  11  23  45  68 103 135 183 236 280 359 421
#     4  10  24  42  69 100 141 180 234 288 357 417
#
# _framework density 22.675661000000002
#
# number of rings (size 3 to 8) (size 9 to 14) (size 15 to 20)
#    0.000    1.000    3.333    2.000    9.333    0.667 
#    3.000    0.000    0.000    0.000    0.000    0.000 
#    0.000    0.000    0.000    0.000    0.000    0.000 
#
# Total GULP energy -133824.019814 kJ/mol
# GULP energy per Si atom -5576.000826 kJ/mol
# Density = 2.262405 g / cm^3
# Si number density = 22.675661 Si / 1000 Ang^3
#
#
#
# Elastic Constant Matrix: (Units=GPa)
#
#
# Indices 1 2 3 4 5 6 
#
# 1 51.6249 12.0643 6.2399 0.0000 6.7890 0.0000
# 2 12.0643 146.8812 38.5270 0.0000 7.6890 0.0000
# 3 6.2399 38.5270 101.0928 0.0000 22.7454 0.0000
# 4 0.0000 0.0000 0.0000 48.9153 0.0000 -6.7167
# 5 6.7890 7.6890 22.7454 0.0000 37.2850 0.0000
# 6 0.0000 0.0000 0.0000 -6.7167 0.0000 31.8546
#
#
#
# Elastic Compliance Matrix: (Units=1/GPa)
#
#
# Indices 1 2 3 4 5 6 
#
# 1 0.020160 -0.001502 0.000098 0.000000 -0.003421 0.000000
# 2 -0.001502 0.007678 -0.002943 0.000000 0.000485 0.000000
# 3 0.000098 -0.002943 0.012605 0.000000 -0.007100 0.000000
# 4 0.000000 0.000000 0.000000 0.021053 0.000000 0.004439
# 5 -0.003421 0.000485 -0.007100 0.000000 0.031675 0.000000
# 6 0.000000 0.000000 0.000000 0.004439 0.000000 0.032329
#
#
# Mechanical properties :
#
#
# Convention : Reuss Voigt Hill
#
# Bulk Modulus (GPa) = 31.49787 45.91792 38.70789
# Shear Modulus (GPa) = 34.53608 39.79549 37.16578
#
# Velocity S-wave (km/s) = 3.90686 4.19380 4.05287
# Velocity P-wave (km/s) = 5.85424 6.61396 6.24566
#
# Compressibility (1/GPa) = 0.03174817
#
# Stress axis : x y z
#
# Youngs Moduli (GPa) = 49.60417 130.24099 79.33439
#
# Poissons Ratio (x) = 0.19568 -0.00776
# Poissons Ratio (y) = 0.07453 0.23345
# Poissons Ratio (z) = -0.00485 0.38325
#
# Static dielectric constant tensor:
#      x y z
#    x 2.012430 0.000000 0.021750 
#    y 0.000000 1.893710 0.000000 
#    z 0.021750 0.000000 1.816650 
# 
# From -- ./inp_files/152734.got.cif
#   From: 2010.05.17/outbox.cif.g08.bks.cpg/sg15_77_cif.got.tgz:152734.got - 2010.06.03 18:47:42.
