data_PCOD9297859
_publ_section_title
;
Structure prediction by ZEFSAII (Michael W. Deem and Ramdas Pophale) SiO2 
 PCOD9297859
Probable space group: C 2/C
;
_chemical_formula_sum "Si O2"
_cell_formula_units_Z 40
_cell_length_a 20.229302
_cell_length_b 18.034036
_cell_length_c 12.546326
_cell_angle_alpha 90.000000
_cell_angle_beta 157.908050
_cell_angle_gamma 90.000000
_cell_volume 1721.420217
_symmetry_space_group_name_H-M "C 2/C"
_symmetry_group_IT_number 15
_symmetry_cell_setting 'monoclinic'
loop_
_space_group_symop_operation_xyz
x,y,z
-x,y,1/2-z
-x,-y,-z
x,-y,1/2+z
1/2+x,1/2+y,z
1/2-x,1/2+y,1/2-z
1/2-x,1/2-y,-z
1/2+x,1/2-y,1/2+z
loop_
_atom_site_type_symbol
_atom_site_label
_atom_site_fract_x
_atom_site_fract_y
_atom_site_fract_z
Si Si1 0.936779 0.813613 0.996052
Si Si2 0.237272 0.880883 0.585584
Si Si3 0.590054 0.851497 0.997806
Si Si4 0.806840 0.539190 0.700813
Si Si5 0.627387 0.678372 0.336742
O O1 0.856250 0.733195 0.905146
O O2 0.112847 0.829115 0.327163
O O3 0.799106 0.869243 0.844324
O O4 0.970747 0.826520 0.923350
O O5 0.432382 0.858115 0.847727
O O6 0.197709 0.966878 0.504895
O O7 0.500000 0.862578 0.750000
O O8 0.717071 0.918459 0.221435
O O9 0.751375 0.606175 0.539995
O O10 0.000000 0.500000 0.000000
O O11 0.500000 0.685389 0.250000
O O12 0.750000 0.750000 0.500000
#
# Coordination Sequence:
#
# PCOD9297859 Si02
#       5
#     8   8   8   8   8
#     4  11  24  42  73  99 143 183 243 297 367 433
#     4  10  24  42  69 106 140 181 239 307 369 431
#     4  11  22  40  72 102 137 189 241 292 359 451
#     4  10  25  48  69 108 149 190 248 304 385 440
#     4  12  29  47  78 111 151 202 254 312 375 449
#
# _framework density 23.236626000000001
#
# number of rings (size 3 to 8) (size 9 to 14) (size 15 to 20)
#    0.000    1.200    4.000    0.600    8.400    4.000 
#    0.000    1.000    0.000    0.000    0.000    0.000 
#    0.000    0.000    0.000    0.000    0.000    0.000 
#
# Total GULP energy -111484.553428 kJ/mol
# GULP energy per Si atom -5574.227671 kJ/mol
# Density = 2.318374 g / cm^3
# Si number density = 23.236626 Si / 1000 Ang^3
#
#
#
# Elastic Constant Matrix: (Units=GPa)
#
#
# Indices 1 2 3 4 5 6 
#
# 1 127.4184 22.6563 25.3547 0.0000 -17.7084 0.0000
# 2 22.6563 167.6748 21.4464 0.0000 -9.0087 0.0000
# 3 25.3547 21.4464 54.9120 0.0000 -12.4165 0.0000
# 4 0.0000 0.0000 0.0000 33.3579 0.0000 -12.6193
# 5 -17.7084 -9.0087 -12.4165 0.0000 50.7367 0.0000
# 6 0.0000 0.0000 0.0000 -12.6193 0.0000 29.8759
#
#
#
# Elastic Compliance Matrix: (Units=1/GPa)
#
#
# Indices 1 2 3 4 5 6 
#
# 1 0.008940 -0.000659 -0.003378 0.000000 0.002177 0.000000
# 2 -0.000659 0.006340 -0.002085 0.000000 0.000386 0.000000
# 3 -0.003378 -0.002085 0.021420 0.000000 0.003693 0.000000
# 4 0.000000 0.000000 0.000000 0.035679 0.000000 0.015071
# 5 0.002177 0.000386 0.003693 0.000000 0.021441 0.000000
# 6 0.000000 0.000000 0.000000 0.015071 0.000000 0.039837
#
#
# Mechanical properties :
#
#
# Convention : Reuss Voigt Hill
#
# Bulk Modulus (GPa) = 40.88957 54.32444 47.60701
# Shear Modulus (GPa) = 32.45595 41.49730 36.97663
#
# Velocity S-wave (km/s) = 3.74138 4.23053 3.99345
# Velocity P-wave (km/s) = 6.02487 6.87697 6.46497
#
# Compressibility (1/GPa) = 0.02445611
#
# Stress axis : x y z
#
# Youngs Moduli (GPa) = 111.85575 157.72030 46.68513
#
# Poissons Ratio (x) = 0.10393 0.15772
# Poissons Ratio (y) = 0.07371 0.09733
# Poissons Ratio (z) = 0.37790 0.32882
#
# Static dielectric constant tensor:
#      x y z
#    x 1.883780 0.000000 0.047800 
#    y 0.000000 1.948430 0.000000 
#    z 0.047800 0.000000 2.036500 
# 
# From -- ./inp_files/106897.got.cif
#   From: 2010.05.17/outbox.cif.g08.bks.cpg/sg15_54_cif.got.tgz:106897.got - 2010.06.03 18:47:42.
