data_PCOD9297413
_publ_section_title
;
Structure prediction by ZEFSAII (Michael W. Deem and Ramdas Pophale) SiO2 
 PCOD9297413
Probable space group: C 2/C
;
_chemical_formula_sum "Si O2"
_cell_formula_units_Z 40
_cell_length_a 22.482844
_cell_length_b 8.886277
_cell_length_c 9.577101
_cell_angle_alpha 90.000000
_cell_angle_beta 117.655370
_cell_angle_gamma 90.000000
_cell_volume 1694.802088
_symmetry_space_group_name_H-M "C 2/C"
_symmetry_group_IT_number 15
_symmetry_cell_setting 'monoclinic'
loop_
_space_group_symop_operation_xyz
x,y,z
-x,y,1/2-z
-x,-y,-z
x,-y,1/2+z
1/2+x,1/2+y,z
1/2-x,1/2+y,1/2-z
1/2-x,1/2-y,-z
1/2+x,1/2-y,1/2+z
loop_
_atom_site_type_symbol
_atom_site_label
_atom_site_fract_x
_atom_site_fract_y
_atom_site_fract_z
Si Si1 0.473372 0.270266 0.869268
Si Si2 0.661122 0.859908 0.315877
Si Si3 0.416606 0.597262 0.818450
Si Si4 0.677928 0.814529 0.879700
Si Si5 0.692738 0.679888 0.617022
O O1 0.500000 0.209352 0.750000
O O2 0.408132 0.173247 0.837472
O O3 0.450598 0.442691 0.816423
O O4 0.531047 0.291729 0.047175
O O5 0.670596 0.726266 0.439298
O O6 0.729267 0.859618 0.300961
O O7 0.661335 0.016641 0.400533
O O8 0.379350 0.690104 0.656393
O O9 0.356967 0.560485 0.865397
O O10 0.680946 0.815283 0.712881
O O11 0.750000 0.750000 0.000000
#
# Coordination Sequence:
#
# PCOD9297413 Si02
#       5
#     8   8   8   8   8
#     4  11  21  43  65  92 130 170 212 256 323 390
#     4  11  23  39  70  91 130 174 205 278 314 379
#     4   9  23  41  62  92 128 166 216 260 311 390
#     4  10  24  40  64  96 128 159 217 273 313 373
#     4   9  23  40  62  99 122 168 221 253 330 374
#
# _framework density 23.601575
#
# number of rings (size 3 to 8) (size 9 to 14) (size 15 to 20)
#    1.200    0.800    2.000    0.000   11.200    0.800 
#    3.600    1.000    0.000    0.000    0.000    0.000 
#    0.000    0.000    0.000    0.000    0.000    0.000 
#
# Total GULP energy -111561.905778 kJ/mol
# GULP energy per Si atom -5578.095289 kJ/mol
# Density = 2.354786 g / cm^3
# Si number density = 23.601575 Si / 1000 Ang^3
#
#
#
# Elastic Constant Matrix: (Units=GPa)
#
#
# Indices 1 2 3 4 5 6 
#
# 1 99.0289 10.5904 28.7299 0.0000 25.2192 0.0000
# 2 10.5904 52.9369 12.8287 0.0000 17.2987 0.0000
# 3 28.7299 12.8287 83.2592 0.0000 41.3512 0.0000
# 4 0.0000 0.0000 0.0000 23.5508 0.0000 -0.0848
# 5 25.2192 17.2987 41.3512 0.0000 47.4382 0.0000
# 6 0.0000 0.0000 0.0000 -0.0848 0.0000 21.0947
#
#
#
# Elastic Compliance Matrix: (Units=1/GPa)
#
#
# Indices 1 2 3 4 5 6 
#
# 1 0.011821 -0.000436 -0.001710 0.000000 -0.004635 0.000000
# 2 -0.000436 0.021511 0.001088 0.000000 -0.008561 0.000000
# 3 -0.001710 0.001088 0.021476 0.000000 -0.018208 0.000000
# 4 0.000000 0.000000 0.000000 0.042462 0.000000 0.000171
# 5 -0.004635 -0.008561 -0.018208 0.000000 0.042538 0.000000
# 6 0.000000 0.000000 0.000000 0.000171 0.000000 0.047406
#
#
# Mechanical properties :
#
#
# Convention : Reuss Voigt Hill
#
# Bulk Modulus (GPa) = 18.97805 37.72479 28.35142
# Shear Modulus (GPa) = 24.16681 30.62180 27.39430
#
# Velocity S-wave (km/s) = 3.20339 3.60592 3.41060
# Velocity P-wave (km/s) = 4.66270 5.77543 5.24863
#
# Compressibility (1/GPa) = 0.05269245
#
# Stress axis : x y z
#
# Youngs Moduli (GPa) = 84.59444 46.48677 46.56274
#
# Poissons Ratio (x) = 0.02026 0.07962
# Poissons Ratio (y) = 0.03688 -0.05064
# Poissons Ratio (z) = 0.14465 -0.05056
#
# Static dielectric constant tensor:
#      x y z
#    x 1.973530 0.000000 -0.067600 
#    y 0.000000 1.929210 0.000000 
#    z -0.067600 0.000000 2.000960 
# 
# From -- ./inp_files/115901.got.cif
#   From: 2010.05.17/outbox.cif.g08.bks.cpg/sg15_58_cif.got.tgz:115901.got - 2010.06.03 18:47:42.
