data_PCOD9297889
_publ_section_title
;
Structure prediction by ZEFSAII (Michael W. Deem and Ramdas Pophale) SiO2 
 PCOD9297889
Probable space group: C 2/C
;
_chemical_formula_sum "Si O2"
_cell_formula_units_Z 44
_cell_length_a 18.398314
_cell_length_b 16.463836
_cell_length_c 16.034365
_cell_angle_alpha 90.000000
_cell_angle_beta 156.329973
_cell_angle_gamma 90.000000
_cell_volume 1949.900854
_symmetry_space_group_name_H-M "C 2/C"
_symmetry_group_IT_number 15
_symmetry_cell_setting 'monoclinic'
loop_
_space_group_symop_operation_xyz
x,y,z
-x,y,1/2-z
-x,-y,-z
x,-y,1/2+z
1/2+x,1/2+y,z
1/2-x,1/2+y,1/2-z
1/2-x,1/2-y,-z
1/2+x,1/2-y,1/2+z
loop_
_atom_site_type_symbol
_atom_site_label
_atom_site_fract_x
_atom_site_fract_y
_atom_site_fract_z
Si Si1 0.058251 0.003631 0.156947
Si Si2 0.336079 0.680969 0.741631
Si Si3 0.972575 0.332473 0.960733
Si Si4 0.500000 0.673840 0.750000
Si Si5 0.442227 0.076994 0.599527
Si Si6 0.726938 0.942581 0.872653
O O1 0.100767 0.908890 0.213431
O O2 0.228383 0.057534 0.362095
O O3 0.872844 0.014905 0.012353
O O4 0.000000 0.000000 0.000000
O O5 0.138687 0.664511 0.571032
O O6 0.411349 0.722936 0.734832
O O7 0.418333 0.737959 0.900317
O O8 0.003009 0.368919 0.084195
O O9 0.817419 0.389220 0.756110
O O10 0.328033 0.619351 0.539951
O O11 0.500000 0.112166 0.750000
O O12 0.545421 0.989987 0.704637
#
# Coordination Sequence:
#
# PCOD9297889 Si02
#       6
#     8   8   8   4   8   8
#     4  11  21  41  73 100 134 178 228 286 343 408
#     4  11  24  42  65  99 139 176 225 276 357 412
#     4  12  25  42  68  97 140 188 220 283 344 421
#     4  10  24  42  70 108 134 176 214 298 352 424
#     4  12  25  45  70 103 137 184 239 282 333 402
#     4  11  22  41  67 105 138 169 227 279 359 407
#
# _framework density 22.565249000000001
#
# number of rings (size 3 to 8) (size 9 to 14) (size 15 to 20)
#    0.000    0.727    3.636    6.000    0.000    2.909 
#    0.000    0.909    0.000    0.000    0.000    0.000 
#    0.000    0.000    0.000    0.000    0.000    0.000 
#
# Total GULP energy -122533.526157 kJ/mol
# GULP energy per Si atom -5569.705734 kJ/mol
# Density = 2.251389 g / cm^3
# Si number density = 22.565249 Si / 1000 Ang^3
#
#
#
# Elastic Constant Matrix: (Units=GPa)
#
#
# Indices 1 2 3 4 5 6 
#
# 1 128.1469 40.0699 72.3374 -0.0031 -22.7853 -0.0009
# 2 40.0699 37.4406 11.0879 0.0183 -10.1137 0.0070
# 3 72.3374 11.0879 116.3890 0.0093 -12.9470 0.0052
# 4 -0.0031 0.0183 0.0093 -1.7648 0.0036 -16.3318
# 5 -22.7853 -10.1137 -12.9470 0.0036 54.2260 0.0016
# 6 -0.0009 0.0070 0.0052 -16.3318 0.0016 21.2052
#
#
#
# Elastic Compliance Matrix: (Units=1/GPa)
#
#
# Indices 1 2 3 4 5 6 
#
# 1 0.019208 -0.016901 -0.010048 -0.000041 0.002520 -0.000023
# 2 -0.016901 0.043532 0.006647 0.000083 0.002605 0.000047
# 3 -0.010048 0.006647 0.014250 0.000027 0.000420 0.000015
# 4 -0.000041 0.000083 0.000027 -0.069719 0.000011 -0.053696
# 5 0.002520 0.002605 0.000420 0.000011 0.020086 0.000006
# 6 -0.000023 0.000047 0.000015 -0.053696 0.000006 0.005803
#
#
# Mechanical properties :
#
#
# Convention : Reuss Voigt Hill
#
# Bulk Modulus (GPa) = 27.48282 58.77411 43.12846
# Shear Modulus (GPa) = 58.21309 25.29869 41.75589
#
# Velocity S-wave (km/s) = 5.08465 3.35197 4.30635
# Velocity P-wave (km/s) = 6.83208 6.40966 6.62424
#
# Compressibility (1/GPa) = 0.03638637
#
# Stress axis : x y z
#
# Youngs Moduli (GPa) = 52.06165 22.97185 70.17456
#
# Poissons Ratio (x) = 0.38824 0.70509
# Poissons Ratio (y) = 0.87987 -0.46642
# Poissons Ratio (z) = 0.52310 -0.15268
#
# Static dielectric constant tensor:
#      x y z
#    x 1.750590 -0.000050 0.025820 
#    y -0.000050 2.657950 0.000040 
#    z 0.025820 0.000040 1.938200 
# 
# From -- ./inp_files/216207.got.cif
#   From: 2010.05.17/outbox.cif.g08.bks.cpg/sg15_109_cif.got.tgz:216207.got - 2010.06.03 18:47:42.
