data_PCOD9297167
_publ_section_title
;
Structure prediction by ZEFSAII (Michael W. Deem and Ramdas Pophale) SiO2 
 PCOD9297167
Probable space group: C 2/C
;
_chemical_formula_sum "Si O2"
_cell_formula_units_Z 52
_cell_length_a 27.507678
_cell_length_b 16.387584
_cell_length_c 13.550617
_cell_angle_alpha 90.000000
_cell_angle_beta 21.628840
_cell_angle_gamma 90.000000
_cell_volume 2251.512908
_symmetry_space_group_name_H-M "C 2/C"
_symmetry_group_IT_number 15
_symmetry_cell_setting 'monoclinic'
loop_
_space_group_symop_operation_xyz
x,y,z
-x,y,1/2-z
-x,-y,-z
x,-y,1/2+z
1/2+x,1/2+y,z
1/2-x,1/2+y,1/2-z
1/2-x,1/2-y,-z
1/2+x,1/2-y,1/2+z
loop_
_atom_site_type_symbol
_atom_site_label
_atom_site_fract_x
_atom_site_fract_y
_atom_site_fract_z
Si Si1 0.679257 0.829672 0.087895
Si Si2 0.233676 0.251001 0.691152
Si Si3 0.921737 0.410205 0.584814
Si Si4 0.000000 0.742335 0.750000
Si Si5 0.721217 0.086003 0.954819
Si Si6 0.000000 0.165570 0.750000
Si Si7 0.911763 0.951605 0.587881
Si Si8 0.000000 0.477499 0.750000
O O1 0.557621 0.872867 0.374684
O O2 0.595195 0.806981 0.147075
O O3 0.750000 0.750000 0.000000
O O4 0.797946 0.891876 0.844417
O O5 0.165348 0.335037 0.789456
O O6 0.253280 0.180958 0.573780
O O7 0.369349 0.278720 0.486522
O O8 0.114728 0.209475 0.978313
O O9 0.953923 0.466683 0.429693
O O10 0.836538 0.449337 0.833577
O O11 0.831095 0.028489 0.699960
O O12 0.610834 0.080984 0.081244
O O13 0.010701 0.105146 0.635430
O O14 0.000000 0.000000 0.500000
#
# Coordination Sequence:
#
# PCOD9297167 Si02
#       8
#     8   8   8   4   8   4   8   4
#     4  11  25  45  77 107 148 205 255 309 380 463
#     4  11  24  44  79 104 143 195 255 303 374 449
#     4  11  24  48  74 104 147 200 247 312 371 463
#     4  10  23  49  75 106 147 198 260 305 364 461
#     4  12  27  44  71 113 141 189 246 319 376 446
#     4  12  25  51  74 106 152 202 240 316 383 455
#     4  12  28  47  68 112 155 192 246 315 391 441
#     4  12  24  46  73 102 149 194 252 299 391 446
#
# _framework density 23.095582
#
# number of rings (size 3 to 8) (size 9 to 14) (size 15 to 20)
#    0.000    0.615    3.077    5.077    6.462    1.846 
#    0.000    0.000    0.000    0.000    0.000    0.000 
#    0.000    0.000    0.000    0.000    0.000    0.000 
#
# Total GULP energy -144945.866489 kJ/mol
# GULP energy per Si atom -5574.841019 kJ/mol
# Density = 2.304302 g / cm^3
# Si number density = 23.095582 Si / 1000 Ang^3
#
#
#
# Elastic Constant Matrix: (Units=GPa)
#
#
# Indices 1 2 3 4 5 6 
#
# 1 57.2495 28.3120 42.3026 0.0000 -6.8234 0.0000
# 2 28.3120 136.0187 37.3265 0.0000 -3.6494 0.0000
# 3 42.3026 37.3265 129.9464 0.0000 -14.5359 0.0000
# 4 0.0000 0.0000 0.0000 4.0237 0.0000 2.2929
# 5 -6.8234 -3.6494 -14.5359 0.0000 36.1349 0.0000
# 6 0.0000 0.0000 0.0000 2.2929 0.0000 35.2805
#
#
#
# Elastic Compliance Matrix: (Units=1/GPa)
#
#
# Indices 1 2 3 4 5 6 
#
# 1 0.024237 -0.003132 -0.006821 0.000000 0.001517 0.000000
# 2 -0.003132 0.008386 -0.001425 0.000000 -0.000318 0.000000
# 3 -0.006821 -0.001425 0.010644 0.000000 0.002850 0.000000
# 4 0.000000 0.000000 0.000000 0.258085 0.000000 -0.016773
# 5 0.001517 -0.000318 0.002850 0.000000 0.029075 0.000000
# 6 0.000000 0.000000 0.000000 -0.016773 0.000000 0.029434
#
#
# Mechanical properties :
#
#
# Convention : Reuss Voigt Hill
#
# Bulk Modulus (GPa) = 48.75273 59.89965 54.32619
# Shear Modulus (GPa) = 12.83846 29.43939 21.13893
#
# Velocity S-wave (km/s) = 2.36028 3.57413 3.02864
# Velocity P-wave (km/s) = 5.34629 6.55930 5.98361
#
# Compressibility (1/GPa) = 0.02051167
#
# Stress axis : x y z
#
# Youngs Moduli (GPa) = 41.25886 119.24059 93.95030
#
# Poissons Ratio (x) = 0.37352 0.64081
# Poissons Ratio (y) = 0.12924 0.13386
# Poissons Ratio (z) = 0.28141 0.16989
#
# Static dielectric constant tensor:
#      x y z
#    x 1.942470 0.000000 0.103940 
#    y 0.000000 1.860370 0.000000 
#    z 0.103940 0.000000 1.953590 
# 
# From -- ./inp_files/182864.got.cif
#   From: 2010.05.17/outbox.cif.g08.bks.cpg/sg15_92_cif.got.tgz:182864.got - 2010.06.03 18:47:42.
