data_PCOD9297953
_publ_section_title
;
Structure prediction by ZEFSAII (Michael W. Deem and Ramdas Pophale) SiO2 
 PCOD9297953
Probable space group: C 2/C
;
_chemical_formula_sum "Si O2"
_cell_formula_units_Z 48
_cell_length_a 20.266414
_cell_length_b 11.027427
_cell_length_c 24.088816
_cell_angle_alpha 90.000000
_cell_angle_beta 22.605542
_cell_angle_gamma 90.000000
_cell_volume 2069.343359
_symmetry_space_group_name_H-M "C 2/C"
_symmetry_group_IT_number 15
_symmetry_cell_setting 'monoclinic'
loop_
_space_group_symop_operation_xyz
x,y,z
-x,y,1/2-z
-x,-y,-z
x,-y,1/2+z
1/2+x,1/2+y,z
1/2-x,1/2+y,1/2-z
1/2-x,1/2-y,-z
1/2+x,1/2-y,1/2+z
loop_
_atom_site_type_symbol
_atom_site_label
_atom_site_fract_x
_atom_site_fract_y
_atom_site_fract_z
Si Si1 0.351967 0.837343 0.272072
Si Si2 0.836714 0.145262 0.768552
Si Si3 0.500000 0.000000 0.500000
Si Si4 0.000000 0.061032 0.750000
Si Si5 0.242413 0.813807 0.751476
Si Si6 0.054322 0.011472 0.021515
Si Si7 0.253938 0.156944 0.048010
O O1 0.247013 0.799135 0.298653
O O2 0.328703 0.727732 0.334748
O O3 0.251459 0.952093 0.374887
O O4 0.543067 0.867231 0.103522
O O5 0.756072 0.264800 0.803178
O O6 0.986753 0.097634 0.610954
O O7 0.683554 0.047811 0.884224
O O8 0.920221 0.142527 0.763680
O O9 0.608360 0.092971 0.376437
O O10 0.149326 0.965156 0.616544
O O11 0.060693 0.870540 0.873996
O O12 0.000000 0.000000 0.000000
O O13 0.250000 0.250000 0.000000
#
# Coordination Sequence:
#
# PCOD9297953 Si02
#       7
#     8   8   4   4   8   8   8
#     4  12  22  39  67 102 136 185 237 305 359 418
#     4  11  25  43  68 104 145 186 238 301 357 437
#     4  10  24  42  74 100 132 192 244 290 358 420
#     4  12  26  44  66 104 152 194 236 294 372 448
#     4  11  23  41  70 103 137 181 242 296 357 417
#     4  11  22  38  66 104 136 172 232 304 356 415
#     4  12  23  39  66 100 146 189 238 296 371 429
#
# _framework density 23.195762999999999
#
# number of rings (size 3 to 8) (size 9 to 14) (size 15 to 20)
#    0.000    0.667    5.000    4.000    2.333    0.000 
#    0.000    0.833    0.000    0.000    0.000    0.000 
#    0.000    0.000    0.000    0.000    0.000    0.000 
#
# Total GULP energy -133700.284612 kJ/mol
# GULP energy per Si atom -5570.845192 kJ/mol
# Density = 2.314297 g / cm^3
# Si number density = 23.195763 Si / 1000 Ang^3
#
#
#
# Elastic Constant Matrix: (Units=GPa)
#
#
# Indices 1 2 3 4 5 6 
#
# 1 119.4748 12.9794 10.9583 -0.0014 -12.2215 0.0003
# 2 12.9794 23.3352 9.5307 -0.0033 -5.2452 -0.0001
# 3 10.9583 9.5307 118.9964 -0.0062 2.2499 0.0011
# 4 -0.0014 -0.0033 -0.0062 26.1035 -0.0002 1.9766
# 5 -12.2215 -5.2452 2.2499 -0.0002 17.9416 -0.0005
# 6 0.0003 -0.0001 0.0011 1.9766 -0.0005 34.1407
#
#
#
# Elastic Compliance Matrix: (Units=1/GPa)
#
#
# Indices 1 2 3 4 5 6 
#
# 1 0.009388 -0.003739 -0.000667 0.000000 0.005386 0.000000
# 2 -0.003739 0.049274 -0.003835 0.000005 0.012339 0.000000
# 3 -0.000667 -0.003835 0.008823 0.000002 -0.002682 0.000000
# 4 0.000000 0.000005 0.000002 0.038478 0.000002 -0.002228
# 5 0.005386 0.012339 -0.002682 0.000002 0.063349 0.000001
# 6 0.000000 0.000000 0.000000 -0.002228 0.000001 0.029420
#
#
# Mechanical properties :
#
#
# Convention : Reuss Voigt Hill
#
# Bulk Modulus (GPa) = 19.60702 36.52702 28.06702
# Shear Modulus (GPa) = 21.53187 30.85969 26.19578
#
# Velocity S-wave (km/s) = 3.05005 3.65142 3.36420
# Velocity P-wave (km/s) = 4.56891 5.79298 5.21697
#
# Compressibility (1/GPa) = 0.05100214
#
# Stress axis : x y z
#
# Youngs Moduli (GPa) = 106.51626 20.29486 113.34099
#
# Poissons Ratio (x) = 0.07588 0.07559
# Poissons Ratio (y) = 0.39826 0.43471
# Poissons Ratio (z) = 0.07104 0.07784
#
# Static dielectric constant tensor:
#      x y z
#    x 1.968850 0.000000 0.045580 
#    y 0.000000 2.040290 0.000000 
#    z 0.045580 0.000000 1.966090 
# 
# From -- ./inp_files/283551.got.cif
#   From: 2010.05.17/outbox.cif.g08.bks.cpg/sg15_142_cif.got.tgz:283551.got - 2010.06.03 18:47:42.
