data_PCOD9297064
_publ_section_title
;
Structure prediction by ZEFSAII (Michael W. Deem and Ramdas Pophale) SiO2 
 PCOD9297064
Probable space group: C 2/C
;
_chemical_formula_sum "Si O2"
_cell_formula_units_Z 52
_cell_length_a 5.316622
_cell_length_b 26.696450
_cell_length_c 18.099277
_cell_angle_alpha 90.000000
_cell_angle_beta 61.092126
_cell_angle_gamma 90.000000
_cell_volume 2248.827410
_symmetry_space_group_name_H-M "C 2/C"
_symmetry_group_IT_number 15
_symmetry_cell_setting 'monoclinic'
loop_
_space_group_symop_operation_xyz
x,y,z
-x,y,1/2-z
-x,-y,-z
x,-y,1/2+z
1/2+x,1/2+y,z
1/2-x,1/2+y,1/2-z
1/2-x,1/2-y,-z
1/2+x,1/2-y,1/2+z
loop_
_atom_site_type_symbol
_atom_site_label
_atom_site_fract_x
_atom_site_fract_y
_atom_site_fract_z
Si Si1 0.060336 0.287380 0.129417
Si Si2 0.762523 0.118600 0.837491
Si Si3 0.123422 0.839066 0.018997
Si Si4 0.301522 0.569419 0.095785
Si Si5 0.385876 0.026916 0.944100
Si Si6 0.500000 0.134835 0.250000
Si Si7 0.463770 0.222546 0.367752
O O1 0.308857 0.315768 0.043415
O O2 0.265434 0.257822 0.156275
O O3 0.888881 0.335380 0.182397
O O4 0.812570 0.250463 0.131078
O O5 0.880369 0.143811 0.895991
O O6 0.557513 0.073746 0.889291
O O7 0.000000 0.097469 0.750000
O O8 0.243896 0.886550 0.957192
O O9 0.353191 0.797518 0.962498
O O10 0.124821 0.517825 0.114558
O O11 0.245227 0.598046 0.181150
O O12 0.598707 0.549738 0.020080
O O13 0.500000 0.000000 0.000000
O O14 0.565260 0.174649 0.305687
#
# Coordination Sequence:
#
# PCOD9297064 Si02
#       7
#     8   8   8   8   8   4   8
#     4  12  25  47  70 109 151 201 249 303 362 444
#     4  12  28  44  71 109 146 194 251 308 372 448
#     4  11  23  45  72 107 147 195 252 303 368 443
#     4  10  23  47  74 107 143 189 245 317 375 449
#     4  11  23  46  77 102 142 189 247 309 380 447
#     4  10  26  50  70 112 144 192 252 306 376 442
#     4  11  27  43  76 108 151 200 248 304 366 436
#
# _framework density 23.123163000000002
#
# number of rings (size 3 to 8) (size 9 to 14) (size 15 to 20)
#    0.000    0.923    4.615    0.923    3.231    3.692 
#    2.769    0.000    0.000    0.000    0.000    0.000 
#    0.000    0.000    0.000    0.000    0.000    0.000 
#
# Total GULP energy -144908.530006 kJ/mol
# GULP energy per Si atom -5573.405000 kJ/mol
# Density = 2.307053 g / cm^3
# Si number density = 23.123163 Si / 1000 Ang^3
#
#
#
# Elastic Constant Matrix: (Units=GPa)
#
#
# Indices 1 2 3 4 5 6 
#
# 1 94.4881 61.6661 24.3426 0.0000 -2.8981 0.0000
# 2 61.6661 188.6612 52.8351 0.0000 -2.2813 0.0000
# 3 24.3426 52.8351 96.8128 0.0000 7.5795 0.0000
# 4 0.0000 0.0000 0.0000 17.6614 0.0000 -6.5051
# 5 -2.8981 -2.2813 7.5795 0.0000 21.0448 0.0000
# 6 0.0000 0.0000 0.0000 -6.5051 0.0000 7.0024
#
#
#
# Elastic Compliance Matrix: (Units=1/GPa)
#
#
# Indices 1 2 3 4 5 6 
#
# 1 0.013639 -0.004051 -0.001370 0.000000 0.001932 0.000000
# 2 -0.004051 0.007540 -0.003207 0.000000 0.001414 0.000000
# 3 -0.001370 -0.003207 0.012828 0.000000 -0.005156 0.000000
# 4 0.000000 0.000000 0.000000 0.086072 0.000000 0.079959
# 5 0.001932 0.001414 -0.005156 0.000000 0.049794 0.000000
# 6 0.000000 0.000000 0.000000 0.079959 0.000000 0.217089
#
#
# Mechanical properties :
#
#
# Convention : Reuss Voigt Hill
#
# Bulk Modulus (GPa) = 59.69866 73.07219 66.38542
# Shear Modulus (GPa) = 12.20104 25.21628 18.70866
#
# Velocity S-wave (km/s) = 2.29957 3.30589 2.84753
# Velocity P-wave (km/s) = 5.73798 6.80013 6.29151
#
# Compressibility (1/GPa) = 0.01675079
#
# Stress axis : x y z
#
# Youngs Moduli (GPa) = 73.31652 132.62737 77.95736
#
# Poissons Ratio (x) = 0.53730 0.10679
# Poissons Ratio (y) = 0.29702 0.25001
# Poissons Ratio (z) = 0.10043 0.42533
#
# Static dielectric constant tensor:
#      x y z
#    x 1.995910 0.000000 -0.076880 
#    y 0.000000 2.436610 0.000000 
#    z -0.076880 0.000000 2.019890 
# 
# From -- ./inp_files/228588.got.cif
#   From: 2010.05.17/outbox.cif.g08.bks.cpg/sg15_115_cif.got.tgz:228588.got - 2010.06.03 18:47:42.
