data_PCOD9297343
_publ_section_title
;
Structure prediction by ZEFSAII (Michael W. Deem and Ramdas Pophale) SiO2 
 PCOD9297343
Probable space group: C 2/C
;
_chemical_formula_sum "Si O2"
_cell_formula_units_Z 64
_cell_length_a 23.895758
_cell_length_b 19.408144
_cell_length_c 17.073683
_cell_angle_alpha 90.000000
_cell_angle_beta 159.659917
_cell_angle_gamma 90.000000
_cell_volume 2752.335822
_symmetry_space_group_name_H-M "C 2/C"
_symmetry_group_IT_number 15
_symmetry_cell_setting 'monoclinic'
loop_
_space_group_symop_operation_xyz
x,y,z
-x,y,1/2-z
-x,-y,-z
x,-y,1/2+z
1/2+x,1/2+y,z
1/2-x,1/2+y,1/2-z
1/2-x,1/2-y,-z
1/2+x,1/2-y,1/2+z
loop_
_atom_site_type_symbol
_atom_site_label
_atom_site_fract_x
_atom_site_fract_y
_atom_site_fract_z
Si Si1 0.961132 0.276211 0.072559
Si Si2 0.764096 0.507282 0.427322
Si Si3 0.543054 0.975717 0.674644
Si Si4 0.696789 0.660542 0.333824
Si Si5 0.934098 0.230357 0.749098
Si Si6 0.284627 0.186875 0.821127
Si Si7 0.058997 0.110178 0.632464
Si Si8 0.894510 0.395817 0.339824
O O1 0.849714 0.298471 0.999192
O O2 0.836095 0.250443 0.842192
O O3 0.038530 0.343878 0.136693
O O4 0.092666 0.214432 0.248756
O O5 0.848163 0.462995 0.606793
O O6 0.752851 0.586634 0.440534
O O7 0.593600 0.470088 0.189824
O O8 0.877002 0.503999 0.497478
O O9 0.631353 0.033294 0.738374
O O10 0.501626 0.917121 0.557035
O O11 0.580964 0.633823 0.110610
O O12 0.750000 0.250000 0.500000
O O13 0.962677 0.153569 0.817790
O O14 0.000000 0.238814 0.750000
O O15 0.039640 0.281071 0.941563
O O16 0.225990 0.138959 0.813935
O O17 0.255509 0.145206 0.702431
#
# Coordination Sequence:
#
# PCOD9297343 Si02
#       8
#     8   8   8   8   8   8   8   8
#     4  11  21  39  69  98 125 169 227 280 333 393
#     4  11  23  44  63  98 139 178 225 280 347 405
#     4  10  24  39  68  95 134 178 223 278 331 414
#     4  11  23  42  70  96 132 173 228 280 338 408
#     4  12  25  37  60  98 140 172 220 274 335 407
#     4  11  21  38  63  93 128 169 220 271 327 403
#     4  11  23  40  65  95 134 184 215 271 342 405
#     4  11  21  40  67  99 124 177 227 267 331 415
#
# _framework density 23.252977999999999
#
# number of rings (size 3 to 8) (size 9 to 14) (size 15 to 20)
#    0.000    1.000    6.250    1.125    1.750    0.000 
#    0.000    0.625    2.750    0.000    0.000    0.000 
#    0.000    0.000    0.000    0.000    0.000    0.000 
#
# Total GULP energy -178636.135930 kJ/mol
# GULP energy per Si atom -5582.379248 kJ/mol
# Density = 2.320005 g / cm^3
# Si number density = 23.252978 Si / 1000 Ang^3
#
#
#
# Elastic Constant Matrix: (Units=GPa)
#
#
# Indices 1 2 3 4 5 6 
#
# 1 60.4572 14.5987 22.2178 0.0000 11.8325 0.0000
# 2 14.5987 100.0498 12.7838 0.0000 6.5869 0.0000
# 3 22.2178 12.7838 72.5520 0.0000 -0.1355 0.0000
# 4 0.0000 0.0000 0.0000 21.1961 0.0000 2.7435
# 5 11.8325 6.5869 -0.1355 0.0000 32.8805 0.0000
# 6 0.0000 0.0000 0.0000 2.7435 0.0000 21.7195
#
#
#
# Elastic Compliance Matrix: (Units=1/GPa)
#
#
# Indices 1 2 3 4 5 6 
#
# 1 0.020554 -0.001768 -0.005996 0.000000 -0.007067 0.000000
# 2 -0.001768 0.010518 -0.001315 0.000000 -0.001476 0.000000
# 3 -0.005996 -0.001315 0.015856 0.000000 0.002487 0.000000
# 4 0.000000 0.000000 0.000000 0.047963 0.000000 -0.006058
# 5 -0.007067 -0.001476 0.002487 0.000000 0.033262 0.000000
# 6 0.000000 0.000000 0.000000 -0.006058 0.000000 0.046807
#
#
# Mechanical properties :
#
#
# Convention : Reuss Voigt Hill
#
# Bulk Modulus (GPa) = 34.75726 36.91772 35.83749
# Shear Modulus (GPa) = 24.66609 27.38981 26.02795
#
# Velocity S-wave (km/s) = 3.26048 3.43579 3.34928
# Velocity P-wave (km/s) = 5.39946 5.62588 5.51383
#
# Compressibility (1/GPa) = 0.02877097
#
# Stress axis : x y z
#
# Youngs Moduli (GPa) = 48.65177 95.07377 63.06866
#
# Poissons Ratio (x) = 0.16806 0.37817
# Poissons Ratio (y) = 0.08600 0.08292
# Poissons Ratio (z) = 0.29172 0.12500
#
# Static dielectric constant tensor:
#      x y z
#    x 1.840560 0.000000 0.027780 
#    y 0.000000 1.945340 0.000000 
#    z 0.027780 0.000000 1.917320 
# 
# From -- ./inp_files/220307.got.cif
#   From: 2010.05.17/outbox.cif.g08.bks.cpg/sg15_111_cif.got.tgz:220307.got - 2010.06.03 18:47:42.
