data_PCOD9297669
_publ_section_title
;
Structure prediction by ZEFSAII (Michael W. Deem and Ramdas Pophale) SiO2 
 PCOD9297669
Probable space group: C 2/C
;
_chemical_formula_sum "Si O2"
_cell_formula_units_Z 64
_cell_length_a 12.639506
_cell_length_b 33.529313
_cell_length_c 18.944074
_cell_angle_alpha 90.000000
_cell_angle_beta 158.047392
_cell_angle_gamma 90.000000
_cell_volume 3001.327451
_symmetry_space_group_name_H-M "C 2/C"
_symmetry_group_IT_number 15
_symmetry_cell_setting 'monoclinic'
loop_
_space_group_symop_operation_xyz
x,y,z
-x,y,1/2-z
-x,-y,-z
x,-y,1/2+z
1/2+x,1/2+y,z
1/2-x,1/2+y,1/2-z
1/2-x,1/2-y,-z
1/2+x,1/2-y,1/2+z
loop_
_atom_site_type_symbol
_atom_site_label
_atom_site_fract_x
_atom_site_fract_y
_atom_site_fract_z
Si Si1 0.581016 0.623619 0.095478
Si Si2 0.710999 0.251724 0.211327
Si Si3 0.717343 0.913731 0.253066
Si Si4 0.104641 0.323346 0.940079
Si Si5 0.826141 0.207541 0.950354
Si Si6 0.824311 0.014833 0.713026
Si Si7 0.253353 0.167495 0.809122
Si Si8 0.580961 0.432122 0.883048
O O1 0.578687 0.599572 0.167048
O O2 0.877157 0.646305 0.266788
O O3 0.461251 0.594917 0.960945
O O4 0.363825 0.660544 0.966073
O O5 0.504239 0.222522 0.127615
O O6 0.562259 0.269382 0.050165
O O7 0.839106 0.291532 0.325287
O O8 0.978467 0.222464 0.365058
O O9 0.811066 0.947105 0.255156
O O10 0.660325 0.871971 0.178179
O O11 0.417098 0.926842 0.099799
O O12 0.137914 0.333072 0.043779
O O13 0.411616 0.329305 0.097469
O O14 0.500000 0.217429 0.750000
O O15 0.000000 0.024167 0.750000
O O16 0.500000 0.000000 0.500000
O O17 0.984668 0.976550 0.844119
O O18 0.500000 0.427536 0.750000
#
# Coordination Sequence:
#
# PCOD9297669 Si02
#       8
#     8   8   8   8   8   8   8   8
#     4  11  25  43  68 102 144 177 236 294 359 406
#     4  11  21  41  61  91 133 173 233 282 345 407
#     4  12  24  43  71 107 139 184 227 298 344 423
#     4  10  24  42  62  96 133 186 234 290 338 424
#     4  11  22  40  59  93 133 179 224 284 341 413
#     4  11  24  46  76 108 141 187 236 282 351 436
#     4  11  23  41  67  93 130 185 239 279 355 413
#     4  11  23  46  74 100 138 183 233 279 360 420
#
# _framework density 21.323898
#
# number of rings (size 3 to 8) (size 9 to 14) (size 15 to 20)
#    0.000    1.000    5.000    2.625    1.750    1.000 
#    0.000    0.000    0.000    0.000    0.000    0.000 
#    0.000    0.000    0.000    0.000    0.000    0.000 
#
# Total GULP energy -178776.900677 kJ/mol
# GULP energy per Si atom -5586.778146 kJ/mol
# Density = 2.127536 g / cm^3
# Si number density = 21.323898 Si / 1000 Ang^3
#
#
#
# Elastic Constant Matrix: (Units=GPa)
#
#
# Indices 1 2 3 4 5 6 
#
# 1 34.9462 37.6680 6.7715 0.0019 0.9646 0.0004
# 2 37.6680 147.7656 34.4102 0.0017 -0.4570 -0.0008
# 3 6.7715 34.4102 78.2914 -0.0098 5.2148 0.0116
# 4 0.0019 0.0017 -0.0098 44.1079 -0.0017 -3.6799
# 5 0.9646 -0.4570 5.2148 -0.0017 33.2274 0.0041
# 6 0.0004 -0.0008 0.0116 -3.6799 0.0041 23.8702
#
#
#
# Elastic Compliance Matrix: (Units=1/GPa)
#
#
# Indices 1 2 3 4 5 6 
#
# 1 0.039618 -0.010393 0.001240 -0.000001 -0.001488 -0.000002
# 2 -0.010393 0.010278 -0.003687 -0.000001 0.001022 0.000002
# 3 0.001240 -0.003687 0.014443 0.000003 -0.002353 -0.000006
# 4 -0.000001 -0.000001 0.000003 0.022967 0.000000 0.003541
# 5 -0.001488 0.001022 -0.002353 0.000000 0.030522 -0.000004
# 6 -0.000002 0.000002 -0.000006 0.003541 -0.000004 0.042439
#
#
# Mechanical properties :
#
#
# Convention : Reuss Voigt Hill
#
# Bulk Modulus (GPa) = 25.86589 46.52249 36.19419
# Shear Modulus (GPa) = 25.14670 32.38469 28.76570
#
# Velocity S-wave (km/s) = 3.43778 3.90128 3.67684
# Velocity P-wave (km/s) = 5.28338 6.49290 5.91912
#
# Compressibility (1/GPa) = 0.03866095
#
# Stress axis : x y z
#
# Youngs Moduli (GPa) = 25.24084 97.29089 69.23947
#
# Poissons Ratio (x) = 1.01113 -0.08588
# Poissons Ratio (y) = 0.26232 0.25526
# Poissons Ratio (z) = -0.03131 0.35868
#
# Static dielectric constant tensor:
#      x y z
#    x 1.827030 0.000000 -0.028850 
#    y 0.000000 1.733550 0.000000 
#    z -0.028850 0.000000 1.806530 
# 
# From -- ./inp_files/246013.got.cif
#   From: 2010.05.17/outbox.cif.g08.bks.cpg/sg15_124_cif.got.tgz:246013.got - 2010.06.03 18:47:42.
