data_PCOD9297494
_publ_section_title
;
Structure prediction by ZEFSAII (Michael W. Deem and Ramdas Pophale) SiO2 
 PCOD9297494
Probable space group: C 2/C
;
_chemical_formula_sum "Si O2"
_cell_formula_units_Z 56
_cell_length_a 25.102166
_cell_length_b 11.650698
_cell_length_c 9.327854
_cell_angle_alpha 90.000000
_cell_angle_beta 73.138344
_cell_angle_gamma 90.000000
_cell_volume 2610.720698
_symmetry_space_group_name_H-M "C 2/C"
_symmetry_group_IT_number 15
_symmetry_cell_setting 'monoclinic'
loop_
_space_group_symop_operation_xyz
x,y,z
-x,y,1/2-z
-x,-y,-z
x,-y,1/2+z
1/2+x,1/2+y,z
1/2-x,1/2+y,1/2-z
1/2-x,1/2-y,-z
1/2+x,1/2-y,1/2+z
loop_
_atom_site_type_symbol
_atom_site_label
_atom_site_fract_x
_atom_site_fract_y
_atom_site_fract_z
Si Si1 0.840133 0.057807 0.458227
Si Si2 0.196396 0.441502 0.830431
Si Si3 0.754538 0.385693 0.014511
Si Si4 0.932214 0.621385 0.048236
Si Si5 0.000000 0.504473 0.750000
Si Si6 0.750000 0.750000 0.000000
Si Si7 0.011633 0.164456 0.897598
Si Si8 0.583286 0.556864 0.361681
O O1 0.798848 0.161991 0.525078
O O2 0.882310 0.098547 0.301303
O O3 0.804727 0.948795 0.427077
O O4 0.874591 0.004712 0.562109
O O5 0.217216 0.432668 0.652287
O O6 0.131905 0.411078 0.891297
O O7 0.230709 0.352295 0.902008
O O8 0.209040 0.568911 0.881174
O O9 0.750000 0.250000 0.000000
O O10 0.965006 0.563795 0.156545
O O11 0.945308 0.755636 0.053075
O O12 0.957468 0.577822 0.879181
O O13 0.000000 0.213199 0.750000
O O14 0.039375 0.040874 0.851070
O O15 0.954087 0.151153 0.028658
#
# Coordination Sequence:
#
# PCOD9297494 Si02
#       8
#     8   8   8   8   4   4   8   8
#     4  11  23  44  66  99 138 182 229 296 353 424
#     4  11  25  46  71 102 145 189 239 300 364 425
#     4  11  27  45  72 105 144 188 249 293 360 445
#     4  11  23  45  72  98 141 185 228 294 352 416
#     4  10  24  44  66 102 136 172 244 282 330 430
#     4  10  24  40  70  96 136 178 232 292 350 424
#     4  11  23  42  68 100 138 176 232 288 351 424
#     4  11  24  42  68  99 134 178 231 282 357 421
#
# _framework density 21.450015
#
# number of rings (size 3 to 8) (size 9 to 14) (size 15 to 20)
#    0.000    1.143    2.143    3.429    8.000    2.286 
#    5.143    0.000    0.000    0.000    0.000    0.000 
#    0.000    0.000    0.000    0.000    0.000    0.000 
#
# Total GULP energy -156066.585095 kJ/mol
# GULP energy per Si atom -5573.806611 kJ/mol
# Density = 2.140119 g / cm^3
# Si number density = 21.450015 Si / 1000 Ang^3
#
#
#
# Elastic Constant Matrix: (Units=GPa)
#
#
# Indices 1 2 3 4 5 6 
#
# 1 82.7255 4.8087 24.9651 0.0000 0.0438 0.0000
# 2 4.8087 92.7426 26.0809 0.0000 -6.8840 0.0000
# 3 24.9651 26.0809 121.5352 0.0000 -9.1666 0.0000
# 4 0.0000 0.0000 0.0000 0.8244 0.0000 4.1718
# 5 0.0438 -6.8840 -9.1666 0.0000 29.8273 0.0000
# 6 0.0000 0.0000 0.0000 4.1718 0.0000 33.7086
#
#
#
# Elastic Compliance Matrix: (Units=1/GPa)
#
#
# Indices 1 2 3 4 5 6 
#
# 1 0.012908 0.000033 -0.002723 0.000000 -0.000848 0.000000
# 2 0.000033 0.011585 -0.002346 0.000000 0.001953 0.000000
# 3 -0.002723 -0.002346 0.009470 0.000000 0.002373 0.000000
# 4 0.000000 0.000000 0.000000 3.246038 0.000000 -0.401732
# 5 -0.000848 0.001953 0.002373 0.000000 0.034708 0.000000
# 6 0.000000 0.000000 0.000000 -0.401732 0.000000 0.079385
#
#
# Mechanical properties :
#
#
# Convention : Reuss Voigt Hill
#
# Bulk Modulus (GPa) = 41.85252 45.41253 43.63252
# Shear Modulus (GPa) = 1.46536 28.94864 15.20700
#
# Velocity S-wave (km/s) = 0.82743 3.67766 2.66550
# Velocity P-wave (km/s) = 4.52403 6.26505 5.46432
#
# Compressibility (1/GPa) = 0.02389343
#
# Stress axis : x y z
#
# Youngs Moduli (GPa) = 77.46934 86.31542 105.59996
#
# Poissons Ratio (x) = -0.00288 0.28752
# Poissons Ratio (y) = -0.00259 0.24771
# Poissons Ratio (z) = 0.21092 0.20247
#
# Static dielectric constant tensor:
#      x y z
#    x 1.773340 0.000000 0.008780 
#    y 0.000000 1.814210 0.000000 
#    z 0.008780 0.000000 1.768660 
# 
# From -- ./inp_files/65465.got.cif
#   From: 2010.05.17/outbox.cif.g08.bks.cpg/sg15_33_cif.got.tgz:65465.got - 2010.06.03 18:47:42.
