data_PCOD9297921
_publ_section_title
;
Structure prediction by ZEFSAII (Michael W. Deem and Ramdas Pophale) SiO2 
 PCOD9297921
Probable space group: C 2/C
;
_chemical_formula_sum "Si O2"
_cell_formula_units_Z 44
_cell_length_a 25.321537
_cell_length_b 15.133422
_cell_length_c 9.949247
_cell_angle_alpha 90.000000
_cell_angle_beta 26.724650
_cell_angle_gamma 90.000000
_cell_volume 1714.523728
_symmetry_space_group_name_H-M "C 2/C"
_symmetry_group_IT_number 15
_symmetry_cell_setting 'monoclinic'
loop_
_space_group_symop_operation_xyz
x,y,z
-x,y,1/2-z
-x,-y,-z
x,-y,1/2+z
1/2+x,1/2+y,z
1/2-x,1/2+y,1/2-z
1/2-x,1/2-y,-z
1/2+x,1/2-y,1/2+z
loop_
_atom_site_type_symbol
_atom_site_label
_atom_site_fract_x
_atom_site_fract_y
_atom_site_fract_z
Si Si1 0.373210 0.467868 0.480704
Si Si2 0.285537 0.019874 0.898948
Si Si3 0.247275 0.663005 0.917775
Si Si4 0.147943 0.774125 0.930085
Si Si5 0.095942 0.309021 0.286518
Si Si6 0.500000 0.715762 0.250000
O O1 0.500000 0.492306 0.250000
O O2 0.302016 0.522735 0.530307
O O3 0.294158 0.465083 0.790892
O O4 0.378701 0.364013 0.428118
O O5 0.309400 0.916184 0.867584
O O6 0.388211 0.091940 0.686745
O O7 0.163275 0.687503 0.985234
O O8 0.381750 0.658701 0.553264
O O9 0.250000 0.750000 0.000000
O O10 0.073261 0.753549 0.966657
O O11 0.277148 0.787940 0.569198
O O12 0.016467 0.278985 0.342647
#
# Coordination Sequence:
#
# PCOD9297921 Si02
#       6
#     8   8   8   8   8   4
#     4  11  23  37  62  97 134 171 229 286 344 422
#     4  11  23  40  65  95 140 177 221 287 364 396
#     4  11  22  41  68  96 136 180 230 289 344 414
#     4   9  19  38  61  88 133 181 214 268 357 401
#     4   9  20  40  65  91 132 182 221 276 337 425
#     4  10  24  42  72 102 132 186 244 274 348 428
#
# _framework density 25.663101999999999
#
# number of rings (size 3 to 8) (size 9 to 14) (size 15 to 20)
#    0.000    1.818    1.818    1.636    3.818    1.455 
#    0.000    0.909    2.000    0.000    0.000    0.000 
#    0.000    0.000    0.000    0.000    0.000    0.000 
#
# Total GULP energy -122782.015748 kJ/mol
# GULP energy per Si atom -5581.000716 kJ/mol
# Density = 2.560469 g / cm^3
# Si number density = 25.663102 Si / 1000 Ang^3
#
#
#
# Elastic Constant Matrix: (Units=GPa)
#
#
# Indices 1 2 3 4 5 6 
#
# 1 205.1525 46.7232 3.7781 0.0000 -16.4191 0.0000
# 2 46.7232 130.3653 -0.6000 0.0000 -16.8085 0.0000
# 3 3.7781 -0.6000 61.7429 0.0000 -20.8194 0.0000
# 4 0.0000 0.0000 0.0000 -10.2989 0.0000 169.1917
# 5 -16.4191 -16.8085 -20.8194 0.0000 35.1834 0.0000
# 6 0.0000 0.0000 0.0000 169.1917 0.0000 -424.6447
#
#
#
# Elastic Compliance Matrix: (Units=1/GPa)
#
#
# Indices 1 2 3 4 5 6 
#
# 1 0.005406 -0.001693 0.000288 0.000000 0.001884 0.000000
# 2 -0.001693 0.008858 0.001687 0.000000 0.004440 0.000000
# 3 0.000288 0.001687 0.020628 0.000000 0.013147 0.000000
# 4 0.000000 0.000000 0.000000 0.017509 0.000000 0.006976
# 5 0.001884 0.004440 0.013147 0.000000 0.039202 0.000000
# 6 0.000000 0.000000 0.000000 0.006976 0.000000 0.000425
#
#
# Mechanical properties :
#
#
# Convention : Reuss Voigt Hill
#
# Bulk Modulus (GPa) = 28.20494 55.22923 41.71709
# Shear Modulus (GPa) = 48.41110 -56.79473 -4.19181
#
# Velocity S-wave (km/s) = 4.34799 -4.70945 -1.27943
# Velocity P-wave (km/s) = 6.01839 2.82919 3.75611
#
# Compressibility (1/GPa) = 0.03545478
#
# Stress axis : x y z
#
# Youngs Moduli (GPa) = 184.99625 112.89551 48.47792
#
# Poissons Ratio (x) = 0.19114 -0.01397
# Poissons Ratio (y) = 0.31321 -0.08177
# Poissons Ratio (z) = -0.05330 -0.19042
#
# Static dielectric constant tensor:
#      x y z
#    x 2.025560 0.000000 -0.048150 
#    y 0.000000 2.270790 0.000000 
#    z -0.048150 0.000000 2.092540 
# 
# From -- ./inp_files/123241.got.cif
#   From: 2010.05.17/outbox.cif.g08.bks.cpg/sg15_62_cif.got.tgz:123241.got - 2010.06.03 18:47:42.
