data_PCOD9297983
_publ_section_title
;
Structure prediction by ZEFSAII (Michael W. Deem and Ramdas Pophale) SiO2 
 PCOD9297983
Probable space group: C 2/C
;
_chemical_formula_sum "Si O2"
_cell_formula_units_Z 28
_cell_length_a 13.631603
_cell_length_b 13.510763
_cell_length_c 8.579781
_cell_angle_alpha 90.000000
_cell_angle_beta 136.432993
_cell_angle_gamma 90.000000
_cell_volume 1089.054978
_symmetry_space_group_name_H-M "C 2/C"
_symmetry_group_IT_number 15
_symmetry_cell_setting 'monoclinic'
loop_
_space_group_symop_operation_xyz
x,y,z
-x,y,1/2-z
-x,-y,-z
x,-y,1/2+z
1/2+x,1/2+y,z
1/2-x,1/2+y,1/2-z
1/2-x,1/2-y,-z
1/2+x,1/2-y,1/2+z
loop_
_atom_site_type_symbol
_atom_site_label
_atom_site_fract_x
_atom_site_fract_y
_atom_site_fract_z
Si Si1 0.227297 0.179228 0.123900
Si Si2 0.048624 0.807681 0.983221
Si Si3 0.294473 0.042430 0.757418
Si Si4 0.500000 0.954029 0.250000
O O1 0.353119 0.211960 0.384300
O O2 0.245844 0.062049 0.128015
O O3 0.250000 0.250000 0.000000
O O4 0.078227 0.196406 0.038589
O O5 0.155994 0.897765 0.145900
O O6 0.000000 0.821457 0.750000
O O7 0.384758 0.098429 0.727998
O O8 0.404711 0.020752 0.023214
#
# Coordination Sequence:
#
# PCOD9297983 Si02
#       4
#     8   8   8   4
#     4  12  28  47  80 119 163 204 268 326 399 473
#     4  12  28  50  78 117 162 210 260 327 403 474
#     4  11  25  47  78 112 164 204 264 322 402 466
#     4  10  24  42  80 108 150 208 268 312 396 460
#
# _framework density 25.710363000000001
#
# number of rings (size 3 to 8) (size 9 to 14) (size 15 to 20)
#    0.000    0.571    0.000    6.000   14.000    2.286 
#    0.000    0.000    0.000    0.000    0.000    0.000 
#    0.000    0.000    0.000    0.000    0.000    0.000 
#
# Total GULP energy -78515.177473 kJ/mol
# GULP energy per Si atom -5608.226962 kJ/mol
# Density = 2.565184 g / cm^3
# Si number density = 25.710363 Si / 1000 Ang^3
#
#
#
# Elastic Constant Matrix: (Units=GPa)
#
#
# Indices 1 2 3 4 5 6 
#
# 1 263.5426 59.3629 81.9117 0.0000 28.4784 0.0000
# 2 59.3629 130.5483 18.5363 0.0000 10.0096 0.0000
# 3 81.9117 18.5363 131.3170 0.0000 -2.2414 0.0000
# 4 0.0000 0.0000 0.0000 43.6426 0.0000 7.4730
# 5 28.4784 10.0096 -2.2414 0.0000 54.6566 0.0000
# 6 0.0000 0.0000 0.0000 7.4730 0.0000 46.7121
#
#
#
# Elastic Compliance Matrix: (Units=1/GPa)
#
#
# Indices 1 2 3 4 5 6 
#
# 1 0.005494 -0.001838 -0.003213 0.000000 -0.002658 0.000000
# 2 -0.001838 0.008553 -0.000071 0.000000 -0.000611 0.000000
# 3 -0.003213 -0.000071 0.009665 0.000000 0.002084 0.000000
# 4 0.000000 0.000000 0.000000 0.023559 0.000000 -0.003769
# 5 -0.002658 -0.000611 0.002084 0.000000 0.019878 0.000000
# 6 0.000000 0.000000 0.000000 -0.003769 0.000000 0.022011
#
#
# Mechanical properties :
#
#
# Convention : Reuss Voigt Hill
#
# Bulk Modulus (GPa) = 74.25398 93.89219 84.07308
# Shear Modulus (GPa) = 48.12579 53.37537 50.75058
#
# Velocity S-wave (km/s) = 4.33118 4.56129 4.44772
# Velocity P-wave (km/s) = 7.34546 8.02115 7.69073
#
# Compressibility (1/GPa) = 0.01346729
#
# Stress axis : x y z
#
# Youngs Moduli (GPa) = 182.00190 116.91917 103.46603
#
# Poissons Ratio (x) = 0.21495 0.33245
# Poissons Ratio (y) = 0.33459 0.00734
# Poissons Ratio (z) = 0.58480 0.00830
#
# Static dielectric constant tensor:
#      x y z
#    x 2.019400 0.000000 -0.036360 
#    y 0.000000 2.109630 0.000000 
#    z -0.036360 0.000000 2.029170 
# 
# From -- ./inp_files/27769.got.cif
#   From: 2010.05.17/outbox.cif.g08.bks.cpg/sg15_14_cif.got.tgz:27769.got - 2010.06.03 18:47:42.
