data_PCOD9297982
_publ_section_title
;
Structure prediction by ZEFSAII (Michael W. Deem and Ramdas Pophale) SiO2 
 PCOD9297982
Probable space group: C 2/C
;
_chemical_formula_sum "Si O2"
_cell_formula_units_Z 44
_cell_length_a 16.674110
_cell_length_b 8.218989
_cell_length_c 16.228958
_cell_angle_alpha 90.000000
_cell_angle_beta 129.968559
_cell_angle_gamma 90.000000
_cell_volume 1704.533441
_symmetry_space_group_name_H-M "C 2/C"
_symmetry_group_IT_number 15
_symmetry_cell_setting 'monoclinic'
loop_
_space_group_symop_operation_xyz
x,y,z
-x,y,1/2-z
-x,-y,-z
x,-y,1/2+z
1/2+x,1/2+y,z
1/2-x,1/2+y,1/2-z
1/2-x,1/2-y,-z
1/2+x,1/2-y,1/2+z
loop_
_atom_site_type_symbol
_atom_site_label
_atom_site_fract_x
_atom_site_fract_y
_atom_site_fract_z
Si Si1 0.685413 0.886958 0.377923
Si Si2 0.863034 0.366496 0.980243
Si Si3 0.290333 0.874395 0.755304
Si Si4 0.944583 0.177709 0.451419
Si Si5 0.983633 0.183831 0.831644
Si Si6 0.000000 0.866919 0.750000
O O1 0.797809 0.801564 0.448927
O O2 0.663381 0.961020 0.453480
O O3 0.600368 0.745050 0.314536
O O4 0.678526 0.002588 0.296019
O O5 0.818857 0.435461 0.865527
O O6 0.981786 0.308715 0.046147
O O7 0.168980 0.835752 0.663220
O O8 0.367959 0.722819 0.789207
O O9 0.998732 0.007395 0.324618
O O10 0.940659 0.237134 0.544640
O O11 0.000000 0.000000 0.500000
O O12 0.000000 0.255830 0.750000
#
# Coordination Sequence:
#
# PCOD9297982 Si02
#       6
#     8   8   8   8   8   4
#     4  11  24  45  78 110 144 196 250 305 366 444
#     4  10  25  44  71 113 148 188 249 300 379 436
#     4  11  25  45  78 107 151 192 248 307 363 443
#     4  11  21  44  71 106 146 191 239 303 374 439
#     4   9  24  45  70 105 143 193 242 302 373 438
#     4  10  24  42  80 100 146 194 240 310 366 430
#
# _framework density 25.813514000000001
#
# number of rings (size 3 to 8) (size 9 to 14) (size 15 to 20)
#    0.545    1.091    1.818    1.091    8.909    0.727 
#    0.000    2.727    0.000    0.000    0.000    0.000 
#    0.000    0.000    0.000    0.000    0.000    0.000 
#
# Total GULP energy -123278.927494 kJ/mol
# GULP energy per Si atom -5603.587613 kJ/mol
# Density = 2.575476 g / cm^3
# Si number density = 25.813514 Si / 1000 Ang^3
#
#
#
# Elastic Constant Matrix: (Units=GPa)
#
#
# Indices 1 2 3 4 5 6 
#
# 1 135.2967 48.5754 86.5980 0.0000 -1.6027 0.0000
# 2 48.5754 60.4274 35.8411 0.0000 -3.8909 0.0000
# 3 86.5980 35.8411 216.8985 0.0000 -39.8339 0.0000
# 4 0.0000 0.0000 0.0000 37.0037 0.0000 -4.9574
# 5 -1.6027 -3.8909 -39.8339 0.0000 61.0282 0.0000
# 6 0.0000 0.0000 0.0000 -4.9574 0.0000 37.2521
#
#
#
# Elastic Compliance Matrix: (Units=1/GPa)
#
#
# Indices 1 2 3 4 5 6 
#
# 1 0.013121 -0.008096 -0.004468 0.000000 -0.003088 0.000000
# 2 -0.008096 0.023388 -0.000452 0.000000 0.000984 0.000000
# 3 -0.004468 -0.000452 0.007319 0.000000 0.004631 0.000000
# 4 0.000000 0.000000 0.000000 0.027515 0.000000 0.003662
# 5 -0.003088 0.000984 0.004631 0.000000 0.019390 0.000000
# 6 0.000000 0.000000 0.000000 0.003662 0.000000 0.027331
#
#
# Mechanical properties :
#
#
# Convention : Reuss Voigt Hill
#
# Bulk Modulus (GPa) = 56.18855 83.85018 70.01937
# Shear Modulus (GPa) = 33.32668 43.16400 38.24534
#
# Velocity S-wave (km/s) = 3.59702 4.09363 3.85333
# Velocity P-wave (km/s) = 6.25026 7.40927 6.85431
#
# Compressibility (1/GPa) = 0.01779722
#
# Stress axis : x y z
#
# Youngs Moduli (GPa) = 76.21272 42.75631 136.62180
#
# Poissons Ratio (x) = 0.34617 0.61042
# Poissons Ratio (y) = 0.61705 0.06169
# Poissons Ratio (z) = 0.34051 0.01931
#
# Static dielectric constant tensor:
#      x y z
#    x 2.024020 0.000000 -0.061040 
#    y 0.000000 2.061810 0.000000 
#    z -0.061040 0.000000 2.109590 
# 
# From -- ./inp_files/103876.got.cif
#   From: 2010.05.17/outbox.cif.g08.bks.cpg/sg15_52_cif.got.tgz:103876.got - 2010.06.03 18:47:42.
