data_PCOD9297822
_publ_section_title
;
Structure prediction by ZEFSAII (Michael W. Deem and Ramdas Pophale) SiO2 
 PCOD9297822
Probable space group: C 2/C
;
_chemical_formula_sum "Si O2"
_cell_formula_units_Z 44
_cell_length_a 22.988897
_cell_length_b 13.727106
_cell_length_c 9.046873
_cell_angle_alpha 90.000000
_cell_angle_beta 140.152537
_cell_angle_gamma 90.000000
_cell_volume 1829.285372
_symmetry_space_group_name_H-M "C 2/C"
_symmetry_group_IT_number 15
_symmetry_cell_setting 'monoclinic'
loop_
_space_group_symop_operation_xyz
x,y,z
-x,y,1/2-z
-x,-y,-z
x,-y,1/2+z
1/2+x,1/2+y,z
1/2-x,1/2+y,1/2-z
1/2-x,1/2-y,-z
1/2+x,1/2-y,1/2+z
loop_
_atom_site_type_symbol
_atom_site_label
_atom_site_fract_x
_atom_site_fract_y
_atom_site_fract_z
Si Si1 0.070328 0.764565 0.063864
Si Si2 0.854607 0.196012 0.463697
Si Si3 0.500000 0.546117 0.750000
Si Si4 0.659895 0.907460 0.583446
Si Si5 0.108754 0.127845 0.354432
Si Si6 0.683508 0.110697 0.791557
O O1 0.105895 0.777475 0.298127
O O2 0.090497 0.657655 0.041625
O O3 0.121773 0.840058 0.052859
O O4 0.965536 0.794097 0.842319
O O5 0.923780 0.115764 0.533434
O O6 0.756922 0.146579 0.293189
O O7 0.848953 0.293000 0.355959
O O8 0.557302 0.475351 0.755889
O O9 0.642953 0.904708 0.375030
O O10 0.666147 0.016016 0.658092
O O11 0.207405 0.123937 0.477407
#
# Coordination Sequence:
#
# PCOD9297822 Si02
#       6
#     8   8   4   8   8   8
#     4  10  24  43  70 104 149 193 233 294 362 429
#     4  12  25  42  73 107 150 189 239 293 369 429
#     4  10  24  42  68 114 146 178 234 308 350 432
#     4  12  26  46  71 105 148 189 242 299 358 431
#     4  10  24  44  75 111 146 187 242 302 367 416
#     4  12  27  45  75 108 143 193 245 296 363 435
#
# _framework density 24.053108000000002
#
# number of rings (size 3 to 8) (size 9 to 14) (size 15 to 20)
#    0.000    1.091    3.636    2.182    5.091    4.364 
#    0.000    1.818    0.000   10.909    0.000    0.000 
#    0.000    0.000    0.000    0.000    0.000    0.000 
#
# Total GULP energy -123347.211081 kJ/mol
# GULP energy per Si atom -5606.691413 kJ/mol
# Density = 2.399836 g / cm^3
# Si number density = 24.053108 Si / 1000 Ang^3
#
#
#
# Elastic Constant Matrix: (Units=GPa)
#
#
# Indices 1 2 3 4 5 6 
#
# 1 109.9361 69.2196 47.6068 0.0000 -9.5576 0.0000
# 2 69.2196 230.3351 86.0918 0.0000 2.8206 0.0000
# 3 47.6068 86.0918 132.3641 0.0000 -19.9474 0.0000
# 4 0.0000 0.0000 0.0000 45.7726 0.0000 5.9983
# 5 -9.5576 2.8206 -19.9474 0.0000 38.4324 0.0000
# 6 0.0000 0.0000 0.0000 5.9983 0.0000 45.1861
#
#
#
# Elastic Compliance Matrix: (Units=1/GPa)
#
#
# Indices 1 2 3 4 5 6 
#
# 1 0.011989 -0.002818 -0.002168 0.000000 0.002063 0.000000
# 2 -0.002818 0.006640 -0.003780 0.000000 -0.003150 0.000000
# 3 -0.002168 -0.003780 0.011666 0.000000 0.005793 0.000000
# 4 0.000000 0.000000 0.000000 0.022234 0.000000 -0.002951
# 5 0.002063 -0.003150 0.005793 0.000000 0.029771 0.000000
# 6 0.000000 0.000000 0.000000 -0.002951 0.000000 0.022523
#
#
# Mechanical properties :
#
#
# Convention : Reuss Voigt Hill
#
# Bulk Modulus (GPa) = 78.35206 97.60796 87.98001
# Shear Modulus (GPa) = 39.49219 43.85937 41.67578
#
# Velocity S-wave (km/s) = 4.05640 4.27481 4.16704
# Velocity P-wave (km/s) = 7.38813 8.06434 7.73363
#
# Compressibility (1/GPa) = 0.01276291
#
# Stress axis : x y z
#
# Youngs Moduli (GPa) = 83.41285 150.61281 85.71689
#
# Poissons Ratio (x) = 0.42436 0.18587
# Poissons Ratio (y) = 0.23502 0.32399
# Poissons Ratio (z) = 0.18088 0.56928
#
# Static dielectric constant tensor:
#      x y z
#    x 1.939710 0.000000 -0.037970 
#    y 0.000000 1.887220 0.000000 
#    z -0.037970 0.000000 1.941880 
# 
# From -- ./inp_files/66938.got.cif
#   From: 2010.05.17/outbox.cif.g08.bks.cpg/sg15_34_cif.got.tgz:66938.got - 2010.06.03 18:47:42.
