data_PCOD9297811
_publ_section_title
;
Structure prediction by ZEFSAII (Michael W. Deem and Ramdas Pophale) SiO2 
 PCOD9297811
Probable space group: C 2/C
;
_chemical_formula_sum "Si O2"
_cell_formula_units_Z 56
_cell_length_a 8.336553
_cell_length_b 15.237598
_cell_length_c 27.369637
_cell_angle_alpha 90.000000
_cell_angle_beta 45.162667
_cell_angle_gamma 90.000000
_cell_volume 2465.395322
_symmetry_space_group_name_H-M "C 2/C"
_symmetry_group_IT_number 15
_symmetry_cell_setting 'monoclinic'
loop_
_space_group_symop_operation_xyz
x,y,z
-x,y,1/2-z
-x,-y,-z
x,-y,1/2+z
1/2+x,1/2+y,z
1/2-x,1/2+y,1/2-z
1/2-x,1/2-y,-z
1/2+x,1/2-y,1/2+z
loop_
_atom_site_type_symbol
_atom_site_label
_atom_site_fract_x
_atom_site_fract_y
_atom_site_fract_z
Si Si1 0.614893 0.803831 0.276202
Si Si2 0.065218 0.026769 0.789553
Si Si3 0.366187 0.870719 0.733290
Si Si4 0.044341 0.249411 0.084324
Si Si5 0.785361 0.954626 0.493664
Si Si6 0.823254 0.076792 0.095445
Si Si7 0.614745 0.909855 0.431752
O O1 0.500000 0.830914 0.250000
O O2 0.792988 0.882945 0.247939
O O3 0.737255 0.711029 0.238368
O O4 0.455734 0.781315 0.358390
O O5 0.000000 0.993098 0.750000
O O6 0.830638 0.036888 0.867818
O O7 0.210002 0.950711 0.783236
O O8 0.500000 0.830238 0.750000
O O9 0.557442 0.919823 0.661339
O O10 0.942878 0.153393 0.100075
O O11 0.872737 0.318021 0.097438
O O12 0.250000 0.250000 0.000000
O O13 0.617218 0.040018 0.533180
O O14 0.033497 0.989235 0.425244
O O15 0.833035 0.909210 0.534808
O O16 0.650982 0.899814 0.481896
#
# Coordination Sequence:
#
# PCOD9297811 Si02
#       7
#     8   8   8   8   8   8   8
#     4  12  28  48  68 105 147 187 247 302 355 441
#     4  12  24  43  72 100 138 186 237 294 361 426
#     4  12  24  43  72 100 138 186 237 294 361 426
#     4  12  25  44  73  99 142 186 231 297 358 417
#     4  10  24  42  68 102 142 178 234 296 338 450
#     4  11  23  43  68  99 138 183 233 286 360 419
#     4  11  23  43  68  99 138 183 233 286 360 419
#
# _framework density 22.714409
#
# number of rings (size 3 to 8) (size 9 to 14) (size 15 to 20)
#    0.000    0.571    4.286    3.857    0.000    2.857 
#    0.000    0.000    0.000    0.000    0.000    0.000 
#    0.000    0.000    0.000    0.000    0.000    0.000 
#
# Total GULP energy -156232.523387 kJ/mol
# GULP energy per Si atom -5579.732978 kJ/mol
# Density = 2.266271 g / cm^3
# Si number density = 22.714409 Si / 1000 Ang^3
#
#
#
# Elastic Constant Matrix: (Units=GPa)
#
#
# Indices 1 2 3 4 5 6 
#
# 1 58.8452 5.2034 31.2498 -0.0007 16.0078 0.0006
# 2 5.2034 68.7095 13.7430 0.0001 -8.5949 -0.0001
# 3 31.2498 13.7430 99.6386 -0.0016 -6.0176 0.0019
# 4 -0.0007 0.0001 -0.0016 23.5602 0.0009 7.2141
# 5 16.0078 -8.5949 -6.0176 0.0009 49.8980 -0.0012
# 6 0.0006 -0.0001 0.0019 7.2141 -0.0012 22.5524
#
#
#
# Elastic Compliance Matrix: (Units=1/GPa)
#
#
# Indices 1 2 3 4 5 6 
#
# 1 0.023601 -0.001331 -0.007746 0.000001 -0.008735 -0.000001
# 2 -0.001331 0.015320 -0.001522 0.000000 0.002882 0.000001
# 3 -0.007746 -0.001522 0.012904 0.000001 0.003779 -0.000001
# 4 0.000001 0.000000 0.000001 0.047053 -0.000001 -0.015051
# 5 -0.008735 0.002882 0.003779 -0.000001 0.023795 0.000002
# 6 -0.000001 0.000001 -0.000001 -0.015051 0.000002 0.049156
#
#
# Mechanical properties :
#
#
# Convention : Reuss Voigt Hill
#
# Bulk Modulus (GPa) = 32.64990 36.39841 34.52416
# Shear Modulus (GPa) = 24.60208 31.00193 27.80200
#
# Velocity S-wave (km/s) = 3.29463 3.69841 3.50234
# Velocity P-wave (km/s) = 5.37383 5.85634 5.62027
#
# Compressibility (1/GPa) = 0.03062796
#
# Stress axis : x y z
#
# Youngs Moduli (GPa) = 42.37088 65.27557 77.49656
#
# Poissons Ratio (x) = 0.08686 0.60029
# Poissons Ratio (y) = 0.05638 0.11792
# Poissons Ratio (z) = 0.32821 0.09933
#
# Static dielectric constant tensor:
#      x y z
#    x 1.828890 0.000000 0.007900 
#    y 0.000000 1.803040 0.000000 
#    z 0.007900 0.000000 1.993840 
# 
# From -- ./inp_files/289383.got.cif
#   From: 2010.05.17/outbox.cif.g08.bks.cpg/sg15_145_cif.got.tgz:289383.got - 2010.06.03 18:47:42.
