data_PCOD9297552
_publ_section_title
;
Structure prediction by ZEFSAII (Michael W. Deem and Ramdas Pophale) SiO2 
 PCOD9297552
Probable space group: C 2/C
;
_chemical_formula_sum "Si O2"
_cell_formula_units_Z 48
_cell_length_a 28.589162
_cell_length_b 8.766811
_cell_length_c 15.168545
_cell_angle_alpha 90.000000
_cell_angle_beta 146.801434
_cell_angle_gamma 90.000000
_cell_volume 2081.635350
_symmetry_space_group_name_H-M "C 2/C"
_symmetry_group_IT_number 15
_symmetry_cell_setting 'monoclinic'
loop_
_space_group_symop_operation_xyz
x,y,z
-x,y,1/2-z
-x,-y,-z
x,-y,1/2+z
1/2+x,1/2+y,z
1/2-x,1/2+y,1/2-z
1/2-x,1/2-y,-z
1/2+x,1/2-y,1/2+z
loop_
_atom_site_type_symbol
_atom_site_label
_atom_site_fract_x
_atom_site_fract_y
_atom_site_fract_z
Si Si1 0.029878 0.648550 0.657921
Si Si2 0.324497 0.675575 0.059351
Si Si3 0.645450 0.717691 0.657296
Si Si4 0.265405 0.968216 0.250774
Si Si5 0.056777 0.920376 0.165915
Si Si6 0.443064 0.169142 0.010227
O O1 0.945239 0.753152 0.534077
O O2 0.001233 0.475908 0.623545
O O3 0.105110 0.692905 0.841894
O O4 0.061795 0.669365 0.605876
O O5 0.381788 0.542688 0.193542
O O6 0.250000 0.750000 0.000000
O O7 0.281761 0.606397 0.906551
O O8 0.696233 0.562069 0.717574
O O9 0.616610 0.706709 0.713095
O O10 0.703511 0.862123 0.723223
O O11 0.350399 0.868941 0.401108
O O12 0.987763 0.824009 0.111848
O O13 0.000000 0.000000 0.000000
#
# Coordination Sequence:
#
# PCOD9297552 Si02
#       6
#     8   8   8   8   8   8
#     4   9  18  38  59  87 119 165 202 244 310 373
#     4  12  23  37  65  98 122 160 214 271 296 362
#     4  10  24  41  64  91 127 171 201 254 324 384
#     4  11  24  40  64  97 128 159 211 265 314 365
#     4  11  21  40  66  89 121 172 214 250 311 383
#     4   9  18  38  62  81 120 167 206 240 307 381
#
# _framework density 23.058793000000001
#
# number of rings (size 3 to 8) (size 9 to 14) (size 15 to 20)
#    0.000    1.667    5.000    1.000    4.667    1.333 
#    0.000    0.000    0.000    0.000    0.000    0.000 
#    0.000    0.000    0.000    0.000    0.000    0.000 
#
# Total GULP energy -134074.974193 kJ/mol
# GULP energy per Si atom -5586.457258 kJ/mol
# Density = 2.300631 g / cm^3
# Si number density = 23.058793 Si / 1000 Ang^3
#
#
#
# Elastic Constant Matrix: (Units=GPa)
#
#
# Indices 1 2 3 4 5 6 
#
# 1 33.6566 -3.4902 8.5493 0.0000 12.8282 0.0000
# 2 -3.4902 89.4261 43.3112 0.0000 15.7061 0.0000
# 3 8.5493 43.3112 104.5919 0.0000 17.1447 0.0000
# 4 0.0000 0.0000 0.0000 46.1603 0.0000 16.4253
# 5 12.8282 15.7061 17.1447 0.0000 26.8428 0.0000
# 6 0.0000 0.0000 0.0000 16.4253 0.0000 33.3082
#
#
#
# Elastic Compliance Matrix: (Units=1/GPa)
#
#
# Indices 1 2 3 4 5 6 
#
# 1 0.038886 0.006322 -0.002395 0.000000 -0.020754 0.000000
# 2 0.006322 0.015646 -0.005585 0.000000 -0.008609 0.000000
# 3 -0.002395 -0.005585 0.012673 0.000000 -0.003682 0.000000
# 4 0.000000 0.000000 0.000000 0.026274 0.000000 -0.012957
# 5 -0.020754 -0.008609 -0.003682 0.000000 0.054561 0.000000
# 6 0.000000 0.000000 0.000000 -0.012957 0.000000 0.036412
#
#
# Mechanical properties :
#
#
# Convention : Reuss Voigt Hill
#
# Bulk Modulus (GPa) = 15.65158 36.04615 25.84887
# Shear Modulus (GPa) = 23.91626 33.21588 28.56607
#
# Velocity S-wave (km/s) = 3.22403 3.79949 3.52353
# Velocity P-wave (km/s) = 4.54550 5.90884 5.27143
#
# Compressibility (1/GPa) = 0.06389132
#
# Stress axis : x y z
#
# Youngs Moduli (GPa) = 25.71616 63.91423 78.90899
#
# Poissons Ratio (x) = -0.40410 0.18897
# Poissons Ratio (y) = -0.16259 0.44067
# Poissons Ratio (z) = 0.06158 0.35693
#
# Static dielectric constant tensor:
#      x y z
#    x 1.929190 0.000000 0.010980 
#    y 0.000000 1.930480 0.000000 
#    z 0.010980 0.000000 1.838060 
# 
# From -- ./inp_files/224684.got.cif
#   From: 2010.05.17/outbox.cif.g08.bks.cpg/sg15_113_cif.got.tgz:224684.got - 2010.06.03 18:47:42.
