data_PCOD9297611
_publ_section_title
;
Structure prediction by ZEFSAII (Michael W. Deem and Ramdas Pophale) SiO2 
 PCOD9297611
Probable space group: C 2/C
;
_chemical_formula_sum "Si O2"
_cell_formula_units_Z 60
_cell_length_a 9.601811
_cell_length_b 23.149581
_cell_length_c 13.707765
_cell_angle_alpha 90.000000
_cell_angle_beta 73.972774
_cell_angle_gamma 90.000000
_cell_volume 2928.500799
_symmetry_space_group_name_H-M "C 2/C"
_symmetry_group_IT_number 15
_symmetry_cell_setting 'monoclinic'
loop_
_space_group_symop_operation_xyz
x,y,z
-x,y,1/2-z
-x,-y,-z
x,-y,1/2+z
1/2+x,1/2+y,z
1/2-x,1/2+y,1/2-z
1/2-x,1/2-y,-z
1/2+x,1/2-y,1/2+z
loop_
_atom_site_type_symbol
_atom_site_label
_atom_site_fract_x
_atom_site_fract_y
_atom_site_fract_z
Si Si1 0.916575 0.555653 0.913996
Si Si2 0.199920 0.634649 0.871928
Si Si3 0.398454 0.371830 0.517031
Si Si4 0.904576 0.441749 0.642253
Si Si5 0.271730 0.735789 0.110529
Si Si6 0.392251 0.538741 0.189026
Si Si7 0.141404 0.088318 0.839449
Si Si8 0.000000 0.666059 0.250000
O O1 0.790960 0.576302 0.867263
O O2 0.055637 0.597665 0.884275
O O3 0.971716 0.491209 0.876444
O O4 0.862937 0.557889 0.036270
O O5 0.182132 0.702816 0.855373
O O6 0.319600 0.612360 0.773377
O O7 0.262297 0.625674 0.968983
O O8 0.388146 0.315168 0.585772
O O9 0.396060 0.425438 0.589621
O O10 0.539447 0.371090 0.422650
O O11 0.767071 0.460400 0.732867
O O12 0.954169 0.379233 0.673162
O O13 0.130083 0.707051 0.187372
O O14 0.250000 0.750000 0.000000
O O15 0.500000 0.562929 0.250000
O O16 0.435657 0.473399 0.156434
#
# Coordination Sequence:
#
# PCOD9297611 Si02
#       8
#     8   8   8   8   8   8   8   4
#     4  11  25  42  67 100 140 174 219 280 341 411
#     4  11  24  44  67 100 132 175 230 277 336 396
#     4  11  24  44  66  98 132 175 231 275 331 403
#     4  11  23  39  69  98 136 171 223 275 341 394
#     4  10  24  41  68  98 133 172 231 284 322 399
#     4  12  24  41  63 101 141 174 220 276 350 409
#     4  12  25  41  68  95 137 178 215 273 349 409
#     4  12  22  44  74 104 130 182 236 282 336 406
#
# _framework density 20.488298
#
# number of rings (size 3 to 8) (size 9 to 14) (size 15 to 20)
#    0.000    0.800    2.667    5.200    7.467    0.000 
#    0.000    2.000    0.000    0.000    0.000    0.000 
#    0.000    0.000    0.000    0.000    0.000    0.000 
#
# Total GULP energy -167790.620230 kJ/mol
# GULP energy per Si atom -5593.020674 kJ/mol
# Density = 2.044167 g / cm^3
# Si number density = 20.488298 Si / 1000 Ang^3
#
#
#
# Elastic Constant Matrix: (Units=GPa)
#
#
# Indices 1 2 3 4 5 6 
#
# 1 67.6194 10.3633 17.5912 0.0000 8.1698 0.0000
# 2 10.3633 112.7278 25.6689 0.0000 -0.3959 0.0000
# 3 17.5912 25.6689 97.8552 0.0000 3.5614 0.0000
# 4 0.0000 0.0000 0.0000 37.5351 0.0000 2.9682
# 5 8.1698 -0.3959 3.5614 0.0000 28.0948 0.0000
# 6 0.0000 0.0000 0.0000 2.9682 0.0000 4.6336
#
#
#
# Elastic Compliance Matrix: (Units=1/GPa)
#
#
# Indices 1 2 3 4 5 6 
#
# 1 0.016109 -0.000929 -0.002493 0.000000 -0.004381 0.000000
# 2 -0.000929 0.009494 -0.002349 0.000000 0.000702 0.000000
# 3 -0.002493 -0.002349 0.011310 0.000000 -0.000742 0.000000
# 4 0.000000 0.000000 0.000000 0.028063 0.000000 -0.017977
# 5 -0.004381 0.000702 -0.000742 0.000000 0.036972 0.000000
# 6 0.000000 0.000000 0.000000 -0.017977 0.000000 0.227331
#
#
# Mechanical properties :
#
#
# Convention : Reuss Voigt Hill
#
# Bulk Modulus (GPa) = 39.41325 42.82770 41.12048
# Shear Modulus (GPa) = 14.31526 29.02462 21.66994
#
# Velocity S-wave (km/s) = 2.64617 3.76792 3.25572
# Velocity P-wave (km/s) = 5.34930 6.31494 5.85207
#
# Compressibility (1/GPa) = 0.02537218
#
# Stress axis : x y z
#
# Youngs Moduli (GPa) = 62.07763 105.33375 88.41372
#
# Poissons Ratio (x) = 0.09782 0.22040
# Poissons Ratio (y) = 0.05765 0.20768
# Poissons Ratio (z) = 0.15475 0.24742
#
# Static dielectric constant tensor:
#      x y z
#    x 1.729150 0.000000 0.006010 
#    y 0.000000 1.779670 0.000000 
#    z 0.006010 0.000000 1.735610 
# 
# From -- ./inp_files/137797.got.cif
#   From: 2010.05.17/outbox.cif.g08.bks.cpg/sg15_69_cif.got.tgz:137797.got - 2010.06.03 18:47:42.
