data_PCOD9297432
_publ_section_title
;
Structure prediction by ZEFSAII (Michael W. Deem and Ramdas Pophale) SiO2 
 PCOD9297432
Probable space group: C 2/C
;
_chemical_formula_sum "Si O2"
_cell_formula_units_Z 36
_cell_length_a 14.806425
_cell_length_b 17.312626
_cell_length_c 7.754185
_cell_angle_alpha 90.000000
_cell_angle_beta 46.523613
_cell_angle_gamma 90.000000
_cell_volume 1442.385349
_symmetry_space_group_name_H-M "C 2/C"
_symmetry_group_IT_number 15
_symmetry_cell_setting 'monoclinic'
loop_
_space_group_symop_operation_xyz
x,y,z
-x,y,1/2-z
-x,-y,-z
x,-y,1/2+z
1/2+x,1/2+y,z
1/2-x,1/2+y,1/2-z
1/2-x,1/2-y,-z
1/2+x,1/2-y,1/2+z
loop_
_atom_site_type_symbol
_atom_site_label
_atom_site_fract_x
_atom_site_fract_y
_atom_site_fract_z
Si Si1 0.500000 0.500000 0.500000
Si Si2 0.540306 0.210403 0.502222
Si Si3 0.711836 0.804080 0.321086
Si Si4 0.117734 0.567805 0.206835
Si Si5 0.193930 0.069752 0.013462
O O1 0.406434 0.552242 0.504326
O O2 0.381374 0.444362 0.712751
O O3 0.500000 0.225770 0.750000
O O4 0.423235 0.233347 0.534124
O O5 0.668984 0.253437 0.290688
O O6 0.567431 0.120049 0.429506
O O7 0.692203 0.871539 0.487510
O O8 0.746520 0.847610 0.096709
O O9 0.201780 0.495768 0.139872
O O10 0.000000 0.542420 0.250000
#
# Coordination Sequence:
#
# PCOD9297432 Si02
#       5
#     4   8   8   8   8
#     4  10  24  40  66 104 138 176 212 288 340 402
#     4  11  26  43  67  99 137 187 221 282 332 411
#     4  11  25  46  69  99 141 179 230 273 343 405
#     4  10  24  46  70 100 133 178 226 284 344 401
#     4  11  23  44  70 103 135 174 227 282 340 402
#
# _framework density 24.958655
#
# number of rings (size 3 to 8) (size 9 to 14) (size 15 to 20)
#    0.000    1.333    2.222    1.333    6.222    6.222 
#    0.000    0.000    0.000    0.000    0.000    0.000 
#    0.000    0.000    0.000    0.000    0.000    0.000 
#
# Total GULP energy -100269.573337 kJ/mol
# GULP energy per Si atom -5570.531852 kJ/mol
# Density = 2.490185 g / cm^3
# Si number density = 24.958655 Si / 1000 Ang^3
#
#
#
# Elastic Constant Matrix: (Units=GPa)
#
#
# Indices 1 2 3 4 5 6 
#
# 1 109.5490 57.4609 35.5716 0.0000 -59.9954 0.0000
# 2 57.4609 69.0103 37.4278 0.0000 -36.1726 0.0000
# 3 35.5716 37.4278 118.3224 0.0000 -32.6325 0.0000
# 4 0.0000 0.0000 0.0000 33.8552 0.0000 -2.8572
# 5 -59.9954 -36.1726 -32.6325 0.0000 57.2982 0.0000
# 6 0.0000 0.0000 0.0000 -2.8572 0.0000 32.1508
#
#
#
# Elastic Compliance Matrix: (Units=1/GPa)
#
#
# Indices 1 2 3 4 5 6 
#
# 1 0.026267 -0.011728 0.001609 0.000000 0.021016 0.000000
# 2 -0.011728 0.028312 -0.004612 0.000000 0.002967 0.000000
# 3 0.001609 -0.004612 0.010782 0.000000 0.004914 0.000000
# 4 0.000000 0.000000 0.000000 0.029761 0.000000 0.002645
# 5 0.021016 0.002967 0.004914 0.000000 0.044130 0.000000
# 6 0.000000 0.000000 0.000000 0.002645 0.000000 0.031338
#
#
# Mechanical properties :
#
#
# Convention : Reuss Voigt Hill
#
# Bulk Modulus (GPa) = 27.85511 61.97805 44.91658
# Shear Modulus (GPa) = 23.58303 35.75561 29.66932
#
# Velocity S-wave (km/s) = 3.07723 3.78907 3.45155
# Velocity P-wave (km/s) = 4.87960 6.63543 5.82406
#
# Compressibility (1/GPa) = 0.03590005
#
# Stress axis : x y z
#
# Youngs Moduli (GPa) = 38.07070 35.32055 92.74975
#
# Poissons Ratio (x) = 0.41424 -0.14924
# Poissons Ratio (y) = 0.44649 0.42772
# Poissons Ratio (z) = -0.06126 0.16288
#
# Static dielectric constant tensor:
#      x y z
#    x 1.973540 0.000000 0.049910 
#    y 0.000000 1.916400 0.000000 
#    z 0.049910 0.000000 2.158880 
# 
# From -- ./inp_files/41191.got.cif
#   From: 2010.05.17/outbox.cif.g08.bks.cpg/sg15_21_cif.got.tgz:41191.got - 2010.06.03 18:47:42.
