data_PCOD9297421
_publ_section_title
;
Structure prediction by ZEFSAII (Michael W. Deem and Ramdas Pophale) SiO2 
 PCOD9297421
Probable space group: C 2/C
;
_chemical_formula_sum "Si O2"
_cell_formula_units_Z 60
_cell_length_a 16.451684
_cell_length_b 12.280152
_cell_length_c 11.513345
_cell_angle_alpha 90.000000
_cell_angle_beta 72.231899
_cell_angle_gamma 90.000000
_cell_volume 2215.078636
_symmetry_space_group_name_H-M "C 2/C"
_symmetry_group_IT_number 15
_symmetry_cell_setting 'monoclinic'
loop_
_space_group_symop_operation_xyz
x,y,z
-x,y,1/2-z
-x,-y,-z
x,-y,1/2+z
1/2+x,1/2+y,z
1/2-x,1/2+y,1/2-z
1/2-x,1/2-y,-z
1/2+x,1/2-y,1/2+z
loop_
_atom_site_type_symbol
_atom_site_label
_atom_site_fract_x
_atom_site_fract_y
_atom_site_fract_z
Si Si1 0.596955 0.170186 0.709445
Si Si2 0.846746 0.175139 0.134822
Si Si3 0.371009 0.012127 0.465375
Si Si4 0.806758 0.081386 0.926103
Si Si5 0.927947 0.043661 0.683138
Si Si6 0.129412 0.849545 0.506179
Si Si7 0.161807 0.333495 0.825268
Si Si8 0.000000 0.365832 0.750000
O O1 0.500000 0.131701 0.750000
O O2 0.624915 0.212092 0.821639
O O3 0.650027 0.072623 0.630728
O O4 0.598080 0.274704 0.624225
O O5 0.749583 0.148224 0.217935
O O6 0.851305 0.162753 0.995364
O O7 0.905958 0.080213 0.161834
O O8 0.293290 0.093172 0.518059
O O9 0.368726 0.935530 0.581013
O O10 0.454223 0.071422 0.378668
O O11 0.828775 0.958295 0.960721
O O12 0.842471 0.088577 0.782283
O O13 0.939505 0.106991 0.557535
O O14 0.000000 0.050981 0.750000
O O15 0.182975 0.763468 0.406636
O O16 0.081368 0.309239 0.776356
#
# Coordination Sequence:
#
# PCOD9297421 Si02
#       8
#     8   8   8   8   8   8   8   4
#     4  11  22  39  67 102 134 169 226 273 326 398
#     4  11  22  38  64  94 130 172 215 277 326 390
#     4  11  22  43  68  99 128 174 227 277 332 393
#     4  11  22  41  68  95 133 173 227 271 328 401
#     4  11  24  40  65  95 134 174 223 265 331 398
#     4  10  24  40  65  96 130 181 212 273 331 391
#     4  11  23  43  66  93 132 173 223 277 335 392
#     4  12  24  42  68  98 130 174 226 278 340 390
#
# _framework density 27.087074999999999
#
# number of rings (size 3 to 8) (size 9 to 14) (size 15 to 20)
#    0.000    1.067    4.667    1.600    2.800    3.200 
#    0.000    0.667    0.000    0.000    0.000    0.000 
#    0.000    0.000    0.000    0.000    0.000    0.000 
#
# Total GULP energy -168119.465538 kJ/mol
# GULP energy per Si atom -5603.982185 kJ/mol
# Density = 2.702542 g / cm^3
# Si number density = 27.087075 Si / 1000 Ang^3
#
#
#
# Elastic Constant Matrix: (Units=GPa)
#
#
# Indices 1 2 3 4 5 6 
#
# 1 103.8958 16.3830 30.6501 0.0000 -11.0700 0.0000
# 2 16.3830 55.8154 14.8220 0.0000 1.9314 0.0000
# 3 30.6501 14.8220 110.8256 0.0000 -6.5688 0.0000
# 4 0.0000 0.0000 0.0000 35.0768 0.0000 4.6335
# 5 -11.0700 1.9314 -6.5688 0.0000 49.6636 0.0000
# 6 0.0000 0.0000 0.0000 4.6335 0.0000 23.7533
#
#
#
# Elastic Compliance Matrix: (Units=1/GPa)
#
#
# Indices 1 2 3 4 5 6 
#
# 1 0.011035 -0.002634 -0.002568 0.000000 0.002222 0.000000
# 2 -0.002634 0.019260 -0.001942 0.000000 -0.001593 0.000000
# 3 -0.002568 -0.001942 0.010042 0.000000 0.000831 0.000000
# 4 0.000000 0.000000 0.000000 0.029263 0.000000 -0.005708
# 5 0.002222 -0.001593 0.000831 0.000000 0.020803 0.000000
# 6 0.000000 0.000000 0.000000 -0.005708 0.000000 0.043213
#
#
# Mechanical properties :
#
#
# Convention : Reuss Voigt Hill
#
# Bulk Modulus (GPa) = 38.38772 43.80521 41.09647
# Shear Modulus (GPa) = 31.93130 35.61085 33.77108
#
# Velocity S-wave (km/s) = 3.43715 3.62979 3.53478
# Velocity P-wave (km/s) = 5.47309 5.81156 5.64486
#
# Compressibility (1/GPa) = 0.02605000
#
# Stress axis : x y z
#
# Youngs Moduli (GPa) = 90.62339 51.92075 99.57861
#
# Poissons Ratio (x) = 0.13676 0.25569
# Poissons Ratio (y) = 0.23870 0.19337
# Poissons Ratio (z) = 0.23270 0.10082
#
# Static dielectric constant tensor:
#      x y z
#    x 2.116470 0.000000 0.003770 
#    y 0.000000 2.115190 0.000000 
#    z 0.003770 0.000000 2.049160 
# 
# From -- ./inp_files/105352.got.cif
#   From: 2010.05.17/outbox.cif.g08.bks.cpg/sg15_53_cif.got.tgz:105352.got - 2010.06.03 18:47:42.
