data_PCOD9297068
_publ_section_title
;
Structure prediction by ZEFSAII (Michael W. Deem and Ramdas Pophale) SiO2 
 PCOD9297068
Probable space group: C 2/C
;
_chemical_formula_sum "Si O2"
_cell_formula_units_Z 36
_cell_length_a 5.148851
_cell_length_b 18.452378
_cell_length_c 15.020301
_cell_angle_alpha 90.000000
_cell_angle_beta 92.068851
_cell_angle_gamma 90.000000
_cell_volume 1426.126740
_symmetry_space_group_name_H-M "C 2/C"
_symmetry_group_IT_number 15
_symmetry_cell_setting 'monoclinic'
loop_
_space_group_symop_operation_xyz
x,y,z
-x,y,1/2-z
-x,-y,-z
x,-y,1/2+z
1/2+x,1/2+y,z
1/2-x,1/2+y,1/2-z
1/2-x,1/2-y,-z
1/2+x,1/2-y,1/2+z
loop_
_atom_site_type_symbol
_atom_site_label
_atom_site_fract_x
_atom_site_fract_y
_atom_site_fract_z
Si Si1 0.496027 0.393158 0.592010
Si Si2 0.299850 0.983837 0.178615
Si Si3 0.500000 0.348088 0.250000
Si Si4 0.510556 0.099802 0.523862
Si Si5 0.169732 0.262913 0.102181
O O1 0.569250 0.461164 0.653426
O O2 0.201846 0.393726 0.555882
O O3 0.564216 0.314404 0.632917
O O4 0.695654 0.402011 0.509898
O O5 0.500000 0.018092 0.250000
O O6 0.444517 0.965520 0.088279
O O7 0.206431 0.907308 0.216958
O O8 0.379723 0.297221 0.171686
O O9 0.470348 0.172016 0.583214
O O10 0.250000 0.250000 0.000000
#
# Coordination Sequence:
#
# PCOD9297068 Si02
#       5
#     8   8   4   8   8
#     4  11  26  44  77 101 143 185 250 295 364 429
#     4  12  26  43  69 105 146 188 239 301 367 429
#     4  12  26  48  70 106 152 194 246 302 372 438
#     4  11  23  48  72 107 136 193 236 303 363 440
#     4  10  23  47  75 104 143 192 242 300 365 432
#
# _framework density 25.243200000000002
#
# number of rings (size 3 to 8) (size 9 to 14) (size 15 to 20)
#    0.000    0.889    2.222    4.667    4.667    1.778 
#    0.000    2.222    0.000    0.000    0.000    0.000 
#    0.000    0.000    0.000    0.000    0.000    0.000 
#
# Total GULP energy -100768.739476 kJ/mol
# GULP energy per Si atom -5598.263304 kJ/mol
# Density = 2.518575 g / cm^3
# Si number density = 25.243200 Si / 1000 Ang^3
#
#
#
# Elastic Constant Matrix: (Units=GPa)
#
#
# Indices 1 2 3 4 5 6 
#
# 1 61.3717 9.7961 21.5395 0.0000 6.3267 0.0000
# 2 9.7961 145.1052 48.8222 0.0000 26.2094 0.0000
# 3 21.5395 48.8222 138.6436 0.0000 35.3316 0.0000
# 4 0.0000 0.0000 0.0000 44.8901 0.0000 19.6214
# 5 6.3267 26.2094 35.3316 0.0000 57.1610 0.0000
# 6 0.0000 0.0000 0.0000 19.6214 0.0000 24.6697
#
#
#
# Elastic Compliance Matrix: (Units=1/GPa)
#
#
# Indices 1 2 3 4 5 6 
#
# 1 0.017247 -0.000274 -0.002526 0.000000 -0.000222 0.000000
# 2 -0.000274 0.008070 -0.002213 0.000000 -0.002302 0.000000
# 3 -0.002526 -0.002213 0.009561 0.000000 -0.004615 0.000000
# 4 0.000000 0.000000 0.000000 0.034149 0.000000 -0.027161
# 5 -0.000222 -0.002302 -0.004615 0.000000 0.021427 0.000000
# 6 0.000000 0.000000 0.000000 -0.027161 0.000000 0.062138
#
#
# Mechanical properties :
#
#
# Convention : Reuss Voigt Hill
#
# Bulk Modulus (GPa) = 40.23863 56.15956 48.19910
# Shear Modulus (GPa) = 29.25635 43.00834 36.13235
#
# Velocity S-wave (km/s) = 3.40807 4.13214 3.78745
# Velocity P-wave (km/s) = 5.60906 6.71281 6.18560
#
# Compressibility (1/GPa) = 0.02485174
#
# Stress axis : x y z
#
# Youngs Moduli (GPa) = 57.97947 123.90984 104.59667
#
# Poissons Ratio (x) = 0.03399 0.26426
# Poissons Ratio (y) = 0.01590 0.23143
# Poissons Ratio (z) = 0.14648 0.27416
#
# Static dielectric constant tensor:
#      x y z
#    x 2.059620 0.000000 -0.260000 
#    y 0.000000 2.071440 0.000000 
#    z -0.260000 0.000000 2.534770 
# 
# From -- ./inp_files/128728.got.cif
#   From: 2010.05.17/outbox.cif.g08.bks.cpg/sg15_65_cif.got.tgz:128728.got - 2010.06.03 18:47:42.
