data_PCOD9297602
_publ_section_title
;
Structure prediction by ZEFSAII (Michael W. Deem and Ramdas Pophale) SiO2 
 PCOD9297602
Probable space group: C 2/C
;
_chemical_formula_sum "Si O2"
_cell_formula_units_Z 40
_cell_length_a 16.845683
_cell_length_b 18.471484
_cell_length_c 4.888980
_cell_angle_alpha 90.000000
_cell_angle_beta 92.946263
_cell_angle_gamma 90.000000
_cell_volume 1519.267453
_symmetry_space_group_name_H-M "C 2/C"
_symmetry_group_IT_number 15
_symmetry_cell_setting 'monoclinic'
loop_
_space_group_symop_operation_xyz
x,y,z
-x,y,1/2-z
-x,-y,-z
x,-y,1/2+z
1/2+x,1/2+y,z
1/2-x,1/2+y,1/2-z
1/2-x,1/2-y,-z
1/2+x,1/2-y,1/2+z
loop_
_atom_site_type_symbol
_atom_site_label
_atom_site_fract_x
_atom_site_fract_y
_atom_site_fract_z
Si Si1 0.371474 0.210607 0.032640
Si Si2 0.182639 0.044543 0.065457
Si Si3 0.126386 0.546172 0.441358
Si Si4 0.000000 0.197058 0.250000
Si Si5 0.750000 0.250000 0.000000
Si Si6 0.643635 0.344256 0.111577
O O1 0.394922 0.129296 0.109372
O O2 0.448050 0.253142 0.939077
O O3 0.306730 0.216448 0.783122
O O4 0.341146 0.256613 0.294263
O O5 0.277248 0.046595 0.049856
O O6 0.147205 0.110573 0.886603
O O7 0.157925 0.974882 0.868968
O O8 0.099683 0.486098 0.222594
O O9 0.060770 0.152725 0.445986
O O10 0.781569 0.162821 0.075055
#
# Coordination Sequence:
#
# PCOD9297602 Si02
#       6
#     8   8   8   4   4   8
#     4  10  25  45  72 106 145 195 247 315 358 454
#     4  10  24  41  68 108 147 185 240 310 372 432
#     4  10  24  42  71 111 152 190 244 313 376 437
#     4  12  26  44  74 102 154 192 256 298 388 424
#     4   8  24  40  72 104 136 182 262 300 362 416
#     4  10  25  44  71 105 143 192 242 310 354 447
#
# _framework density 26.328481
#
# number of rings (size 3 to 8) (size 9 to 14) (size 15 to 20)
#    1.200    0.800    0.000    0.600   16.800    1.600 
#    0.000    2.000    0.000    0.000    0.000    0.000 
#    0.000    0.000    0.000    0.000    0.000    0.000 
#
# Total GULP energy -111759.124904 kJ/mol
# GULP energy per Si atom -5587.956245 kJ/mol
# Density = 2.626856 g / cm^3
# Si number density = 26.328481 Si / 1000 Ang^3
#
#
#
# Elastic Constant Matrix: (Units=GPa)
#
#
# Indices 1 2 3 4 5 6 
#
# 1 101.9675 -4.5852 15.1719 0.0000 -0.3494 0.0000
# 2 -4.5852 81.7315 -44.6856 0.0000 -13.5686 0.0000
# 3 15.1719 -44.6856 76.7226 0.0000 -0.5630 0.0000
# 4 0.0000 0.0000 0.0000 36.2075 0.0000 -5.8147
# 5 -0.3494 -13.5686 -0.5630 0.0000 30.8697 0.0000
# 6 0.0000 0.0000 0.0000 -5.8147 0.0000 21.8747
#
#
#
# Elastic Compliance Matrix: (Units=1/GPa)
#
#
# Indices 1 2 3 4 5 6 
#
# 1 0.010140 -0.000850 -0.002502 0.000000 -0.000304 0.000000
# 2 -0.000850 0.020294 0.012055 0.000000 0.009130 0.000000
# 3 -0.002502 0.012055 0.020591 0.000000 0.005646 0.000000
# 4 0.000000 0.000000 0.000000 0.028850 0.000000 0.007669
# 5 -0.000304 0.009130 0.005646 0.000000 0.036507 0.000000
# 6 0.000000 0.000000 0.000000 0.007669 0.000000 0.047753
#
#
# Mechanical properties :
#
#
# Convention : Reuss Voigt Hill
#
# Bulk Modulus (GPa) = 14.61320 21.35820 17.98570
# Shear Modulus (GPa) = 29.49136 37.42510 33.45823
#
# Velocity S-wave (km/s) = 3.35047 3.77433 3.56870
# Velocity P-wave (km/s) = 4.53099 5.20806 4.88128
#
# Compressibility (1/GPa) = 0.06843130
#
# Stress axis : x y z
#
# Youngs Moduli (GPa) = 98.61808 49.27521 48.56385
#
# Poissons Ratio (x) = 0.04188 0.12153
# Poissons Ratio (y) = 0.08381 -0.58544
# Poissons Ratio (z) = 0.24678 -0.59401
#
# Static dielectric constant tensor:
#      x y z
#    x 2.100260 0.000000 -0.050030 
#    y 0.000000 2.362620 0.000000 
#    z -0.050030 0.000000 2.091020 
# 
# From -- ./inp_files/9914.got.cif
#   From: 2010.05.17/outbox.cif.g08.bks.cpg/sg15_5_cif.got.tgz:9914.got - 2010.06.03 18:47:42.
