data_PCOD9297860
_publ_section_title
;
Structure prediction by ZEFSAII (Michael W. Deem and Ramdas Pophale) SiO2 
 PCOD9297860
Probable space group: C 2/C
;
_chemical_formula_sum "Si O2"
_cell_formula_units_Z 60
_cell_length_a 13.447798
_cell_length_b 25.961524
_cell_length_c 14.520650
_cell_angle_alpha 90.000000
_cell_angle_beta 29.920133
_cell_angle_gamma 90.000000
_cell_volume 2528.641026
_symmetry_space_group_name_H-M "C 2/C"
_symmetry_group_IT_number 15
_symmetry_cell_setting 'monoclinic'
loop_
_space_group_symop_operation_xyz
x,y,z
-x,y,1/2-z
-x,-y,-z
x,-y,1/2+z
1/2+x,1/2+y,z
1/2-x,1/2+y,1/2-z
1/2-x,1/2-y,-z
1/2+x,1/2-y,1/2+z
loop_
_atom_site_type_symbol
_atom_site_label
_atom_site_fract_x
_atom_site_fract_y
_atom_site_fract_z
Si Si1 0.578885 0.205485 0.392569
Si Si2 0.413635 0.600171 0.232321
Si Si3 0.555154 0.682873 0.527161
Si Si4 0.741343 0.002428 0.297347
Si Si5 0.819936 0.359116 0.962230
Si Si6 0.500000 0.552562 0.750000
Si Si7 0.205430 0.902339 0.344602
Si Si8 0.569863 0.835497 0.089731
O O1 0.565524 0.264505 0.373348
O O2 0.789676 0.184399 0.183656
O O3 0.416624 0.168406 0.473177
O O4 0.539732 0.206292 0.533700
O O5 0.500000 0.569503 0.250000
O O6 0.291476 0.562986 0.261364
O O7 0.286907 0.643951 0.384989
O O8 0.602528 0.615203 0.020994
O O9 0.685423 0.681196 0.514512
O O10 0.417471 0.632115 0.629692
O O11 0.795193 0.963526 0.170710
O O12 0.887028 0.978595 0.259152
O O13 0.500000 0.000000 0.500000
O O14 0.000000 0.372908 0.750000
O O15 0.682473 0.409075 0.079121
O O16 0.430034 0.883371 0.172758
O O17 0.500000 0.821362 0.250000
#
# Coordination Sequence:
#
# PCOD9297860 Si02
#       8
#     8   8   8   8   8   4   8   8
#     4  11  24  43  69 108 147 195 253 300 369 459
#     4  12  25  47  70  99 137 191 243 302 380 451
#     4  11  23  43  71 106 149 194 239 306 378 450
#     4  12  26  45  73 107 146 190 246 308 382 458
#     4  10  24  42  69 106 148 194 240 297 375 457
#     4  12  24  44  70 104 150 192 236 312 364 442
#     4  12  24  45  72 101 141 186 238 305 377 441
#     4  12  25  45  72 101 142 195 251 314 366 437
#
# _framework density 23.728159999999999
#
# number of rings (size 3 to 8) (size 9 to 14) (size 15 to 20)
#    0.000    0.533    6.000    2.400    1.867    0.000 
#    2.400    4.000    0.000    0.000    0.000    0.000 
#    0.000    0.000    0.000    0.000    0.000    0.000 
#
# Total GULP energy -167317.550184 kJ/mol
# GULP energy per Si atom -5577.251673 kJ/mol
# Density = 2.367415 g / cm^3
# Si number density = 23.728160 Si / 1000 Ang^3
#
#
#
# Elastic Constant Matrix: (Units=GPa)
#
#
# Indices 1 2 3 4 5 6 
#
# 1 67.4519 1.5622 28.3559 -0.0087 6.6331 -0.0008
# 2 1.5622 49.9554 15.1631 0.0057 -0.5442 0.0007
# 3 28.3559 15.1631 118.4287 -0.0241 5.5245 -0.0086
# 4 -0.0087 0.0057 -0.0241 22.4414 0.0187 -12.9715
# 5 6.6331 -0.5442 5.5245 0.0187 29.9152 0.0067
# 6 -0.0008 0.0007 -0.0086 -12.9715 0.0067 5.2750
#
#
#
# Elastic Compliance Matrix: (Units=1/GPa)
#
#
# Indices 1 2 3 4 5 6 
#
# 1 0.016767 0.000645 -0.003958 -0.000011 -0.002975 -0.000026
# 2 0.000645 0.020875 -0.002863 0.000032 0.000765 0.000071
# 3 -0.003958 -0.002863 0.009804 -0.000048 -0.000985 -0.000102
# 4 -0.000011 0.000032 -0.000048 -0.105750 0.000136 -0.260046
# 5 -0.002975 0.000765 -0.000985 0.000136 0.034283 0.000289
# 6 -0.000026 0.000071 -0.000102 -0.260046 0.000289 -0.449894
#
#
# Mechanical properties :
#
#
# Convention : Reuss Voigt Hill
#
# Bulk Modulus (GPa) = 28.49546 36.22204 32.35875
# Shear Modulus (GPa) = -11.11448 24.24330 6.56441
#
# Velocity S-wave (km/s) = -2.16662 3.19989 1.66509
# Velocity P-wave (km/s) = 2.40337 5.38061 4.16696
#
# Compressibility (1/GPa) = 0.03509330
#
# Stress axis : x y z
#
# Youngs Moduli (GPa) = 59.64072 47.90421 101.99771
#
# Poissons Ratio (x) = -0.03089 0.40375
# Poissons Ratio (y) = -0.03845 0.29200
# Poissons Ratio (z) = 0.23608 0.13714
#
# Static dielectric constant tensor:
#      x y z
#    x 2.076680 -0.000020 -0.033180 
#    y -0.000020 1.899140 0.000010 
#    z -0.033180 0.000010 1.977750 
# 
# From -- ./inp_files/157321.got.cif
#   From: 2010.05.17/outbox.cif.g08.bks.cpg/sg15_79_cif.got.tgz:157321.got - 2010.06.03 18:47:42.
