data_PCOD9297399
_publ_section_title
;
Structure prediction by ZEFSAII (Michael W. Deem and Ramdas Pophale) SiO2 
 PCOD9297399
Probable space group: C 2/C
;
_chemical_formula_sum "Si O2"
_cell_formula_units_Z 48
_cell_length_a 21.827566
_cell_length_b 10.577185
_cell_length_c 9.898216
_cell_angle_alpha 90.000000
_cell_angle_beta 65.943609
_cell_angle_gamma 90.000000
_cell_volume 2086.757297
_symmetry_space_group_name_H-M "C 2/C"
_symmetry_group_IT_number 15
_symmetry_cell_setting 'monoclinic'
loop_
_space_group_symop_operation_xyz
x,y,z
-x,y,1/2-z
-x,-y,-z
x,-y,1/2+z
1/2+x,1/2+y,z
1/2-x,1/2+y,1/2-z
1/2-x,1/2-y,-z
1/2+x,1/2-y,1/2+z
loop_
_atom_site_type_symbol
_atom_site_label
_atom_site_fract_x
_atom_site_fract_y
_atom_site_fract_z
Si Si1 0.000000 0.804758 0.250000
Si Si2 0.000000 0.789324 0.750000
Si Si3 0.406088 0.885749 0.977930
Si Si4 0.399233 0.487257 0.893937
Si Si5 0.066895 0.545938 0.770236
Si Si6 0.808396 0.036098 0.229389
Si Si7 0.236516 0.725686 0.853950
O O1 0.965596 0.714103 0.392306
O O2 0.938108 0.899919 0.279294
O O3 0.054475 0.696310 0.769815
O O4 0.044710 0.882795 0.619881
O O5 0.382727 0.966661 0.867354
O O6 0.426170 0.981534 0.079567
O O7 0.341192 0.813215 0.088828
O O8 0.344500 0.435517 0.838526
O O9 0.362450 0.534253 0.060006
O O10 0.000000 0.504602 0.750000
O O11 0.755336 0.145043 0.237534
O O12 0.778042 0.895460 0.267775
O O13 0.250000 0.750000 0.000000
#
# Coordination Sequence:
#
# PCOD9297399 Si02
#       7
#     4   4   8   8   8   8   8
#     4  11  23  42  74 100 151 175 236 300 378 435
#     4   9  23  38  66 108 145 169 246 286 376 445
#     4  12  24  44  71 101 146 192 236 302 371 438
#     4  11  25  43  73 105 138 190 233 306 366 444
#     4  10  24  40  64 103 142 179 234 286 371 442
#     4  12  26  50  74 105 147 195 253 299 373 431
#     4  12  28  52  73 108 149 197 257 307 370 434
#
# _framework density 23.002195
#
# number of rings (size 3 to 8) (size 9 to 14) (size 15 to 20)
#    0.500    0.333    4.167    1.500    4.667    3.333 
#    0.000    0.000    0.000    0.000    0.000    0.000 
#    0.000    0.000    0.000    0.000    0.000    0.000 
#
# Total GULP energy -133771.678412 kJ/mol
# GULP energy per Si atom -5573.819934 kJ/mol
# Density = 2.294984 g / cm^3
# Si number density = 23.002195 Si / 1000 Ang^3
#
#
#
# Elastic Constant Matrix: (Units=GPa)
#
#
# Indices 1 2 3 4 5 6 
#
# 1 46.2519 20.3644 13.6731 0.0000 0.2101 0.0000
# 2 20.3644 129.1752 20.3990 0.0000 -4.1777 0.0000
# 3 13.6731 20.3990 79.1991 0.0000 8.4404 0.0000
# 4 0.0000 0.0000 0.0000 39.0242 0.0000 -6.2445
# 5 0.2101 -4.1777 8.4404 0.0000 36.8397 0.0000
# 6 0.0000 0.0000 0.0000 -6.2445 0.0000 34.0232
#
#
#
# Elastic Compliance Matrix: (Units=1/GPa)
#
#
# Indices 1 2 3 4 5 6 
#
# 1 0.024040 -0.003254 -0.003340 0.000000 0.000259 0.000000
# 2 -0.003254 0.008584 -0.001799 0.000000 0.001404 0.000000
# 3 -0.003340 -0.001799 0.014029 0.000000 -0.003399 0.000000
# 4 0.000000 0.000000 0.000000 0.026400 0.000000 0.004845
# 5 0.000259 0.001404 -0.003399 0.000000 0.028081 0.000000
# 6 0.000000 0.000000 0.000000 0.004845 0.000000 0.030281
#
#
# Mechanical properties :
#
#
# Convention : Reuss Voigt Hill
#
# Bulk Modulus (GPa) = 33.48185 40.38879 36.93532
# Shear Modulus (GPa) = 31.61451 35.32343 33.46897
#
# Velocity S-wave (km/s) = 3.71133 3.92299 3.81863
# Velocity P-wave (km/s) = 5.74046 6.17387 5.96110
#
# Compressibility (1/GPa) = 0.02986693
#
# Stress axis : x y z
#
# Youngs Moduli (GPa) = 41.59808 116.49732 71.28335
#
# Poissons Ratio (x) = 0.37909 0.23807
# Poissons Ratio (y) = 0.13536 0.12822
# Poissons Ratio (z) = 0.13893 0.20955
#
# Static dielectric constant tensor:
#      x y z
#    x 1.938710 0.000000 -0.077520 
#    y 0.000000 1.948390 0.000000 
#    z -0.077520 0.000000 2.035320 
# 
# From -- ./inp_files/60858.got.cif
#   From: 2010.05.17/outbox.cif.g08.bks.cpg/sg15_31_cif.got.tgz:60858.got - 2010.06.03 18:47:42.
