data_PCOD9297206
_publ_section_title
;
Structure prediction by ZEFSAII (Michael W. Deem and Ramdas Pophale) SiO2 
 PCOD9297206
Probable space group: C 2/C
;
_chemical_formula_sum "Si O2"
_cell_formula_units_Z 52
_cell_length_a 12.034780
_cell_length_b 30.633585
_cell_length_c 8.872158
_cell_angle_alpha 90.000000
_cell_angle_beta 123.670105
_cell_angle_gamma 90.000000
_cell_volume 2722.172633
_symmetry_space_group_name_H-M "C 2/C"
_symmetry_group_IT_number 15
_symmetry_cell_setting 'monoclinic'
loop_
_space_group_symop_operation_xyz
x,y,z
-x,y,1/2-z
-x,-y,-z
x,-y,1/2+z
1/2+x,1/2+y,z
1/2-x,1/2+y,1/2-z
1/2-x,1/2-y,-z
1/2+x,1/2-y,1/2+z
loop_
_atom_site_type_symbol
_atom_site_label
_atom_site_fract_x
_atom_site_fract_y
_atom_site_fract_z
Si Si1 0.407943 0.575722 0.943679
Si Si2 0.685540 0.020298 0.638831
Si Si3 0.098429 0.824814 0.045273
Si Si4 0.856731 0.257763 0.712147
Si Si5 0.292499 0.327878 0.700861
Si Si6 0.193096 0.072463 0.285073
Si Si7 0.500000 0.999577 0.750000
O O1 0.323777 0.544647 0.771872
O O2 0.384258 0.625988 0.881772
O O3 0.565294 0.566747 0.078761
O O4 0.356182 0.570767 0.077531
O O5 0.606019 0.028314 0.425608
O O6 0.711359 0.968340 0.663957
O O7 0.584789 0.029116 0.699697
O O8 0.127588 0.787379 0.185403
O O9 0.189835 0.819842 0.964702
O O10 0.943403 0.822491 0.877996
O O11 0.750000 0.250000 0.500000
O O12 0.802853 0.294544 0.785742
O O13 0.000000 0.269589 0.750000
O O14 0.253580 0.378542 0.696517
#
# Coordination Sequence:
#
# PCOD9297206 Si02
#       7
#     8   8   8   8   8   8   4
#     4   9  18  35  63  89 110 145 197 254 291 339
#     4  11  19  40  55  83 116 160 195 238 288 351
#     4   9  19  39  65  87 114 158 200 246 298 357
#     4  12  23  40  61  89 129 158 190 248 314 361
#     4   9  19  39  64  88 116 156 205 244 294 362
#     4   9  18  35  62  90 113 144 196 252 294 341
#     4  10  24  34  56  72 118 172 192 224 292 346
#
# _framework density 19.102388000000001
#
# number of rings (size 3 to 8) (size 9 to 14) (size 15 to 20)
#    0.000    2.154    3.077    2.769    0.000    0.000 
#    4.154    1.538    0.000    0.000    0.000    0.000 
#    0.000    0.000    0.000    0.000    0.000    0.000 
#
# Total GULP energy -145080.177627 kJ/mol
# GULP energy per Si atom -5580.006832 kJ/mol
# Density = 1.905891 g / cm^3
# Si number density = 19.102388 Si / 1000 Ang^3
#
#
#
# Elastic Constant Matrix: (Units=GPa)
#
#
# Indices 1 2 3 4 5 6 
#
# 1 76.9368 41.8284 9.7970 0.0000 2.4833 0.0000
# 2 41.8284 102.9338 44.8515 0.0000 3.6010 0.0000
# 3 9.7970 44.8515 95.6674 0.0000 8.3450 0.0000
# 4 0.0000 0.0000 0.0000 20.7404 0.0000 5.9769
# 5 2.4833 3.6010 8.3450 0.0000 18.7979 0.0000
# 6 0.0000 0.0000 0.0000 5.9769 0.0000 13.2826
#
#
#
# Elastic Compliance Matrix: (Units=1/GPa)
#
#
# Indices 1 2 3 4 5 6 
#
# 1 0.016997 -0.007733 0.002030 0.000000 -0.001665 0.000000
# 2 -0.007733 0.015728 -0.006666 0.000000 0.000968 0.000000
# 3 0.002030 -0.006666 0.013817 0.000000 -0.005125 0.000000
# 4 0.000000 0.000000 0.000000 0.055399 0.000000 -0.024928
# 5 -0.001665 0.000968 -0.005125 0.000000 0.055507 0.000000
# 6 0.000000 0.000000 0.000000 -0.024928 0.000000 0.086503
#
#
# Mechanical properties :
#
#
# Convention : Reuss Voigt Hill
#
# Bulk Modulus (GPa) = 45.86307 52.05465 48.95886
# Shear Modulus (GPa) = 18.11857 22.50160 20.31009
#
# Velocity S-wave (km/s) = 3.08311 3.43585 3.26425
# Velocity P-wave (km/s) = 6.06096 6.56122 6.31604
#
# Compressibility (1/GPa) = 0.02180404
#
# Stress axis : x y z
#
# Youngs Moduli (GPa) = 58.83261 63.57889 72.37222
#
# Poissons Ratio (x) = 0.49169 -0.14694
# Poissons Ratio (y) = 0.45498 0.48247
# Poissons Ratio (z) = -0.11945 0.42384
#
# Static dielectric constant tensor:
#      x y z
#    x 1.682940 0.000000 -0.009600 
#    y 0.000000 1.639200 0.000000 
#    z -0.009600 0.000000 1.675420 
# 
# From -- ./inp_files/35352.got.cif
#   From: 2010.05.17/outbox.cif.g08.bks.cpg/sg15_18_cif.got.tgz:35352.got - 2010.06.03 18:47:42.
