data_PCOD9297680
_publ_section_title
;
Structure prediction by ZEFSAII (Michael W. Deem and Ramdas Pophale) SiO2 
 PCOD9297680
Probable space group: C 2/C
;
_chemical_formula_sum "Si O2"
_cell_formula_units_Z 36
_cell_length_a 7.597634
_cell_length_b 23.708759
_cell_length_c 15.198010
_cell_angle_alpha 90.000000
_cell_angle_beta 35.471052
_cell_angle_gamma 90.000000
_cell_volume 1588.620528
_symmetry_space_group_name_H-M "C 2/C"
_symmetry_group_IT_number 15
_symmetry_cell_setting 'monoclinic'
loop_
_space_group_symop_operation_xyz
x,y,z
-x,y,1/2-z
-x,-y,-z
x,-y,1/2+z
1/2+x,1/2+y,z
1/2-x,1/2+y,1/2-z
1/2-x,1/2-y,-z
1/2+x,1/2-y,1/2+z
loop_
_atom_site_type_symbol
_atom_site_label
_atom_site_fract_x
_atom_site_fract_y
_atom_site_fract_z
Si Si1 0.318316 0.766308 0.570516
Si Si2 0.167069 0.153309 0.433308
Si Si3 0.000000 0.970229 0.250000
Si Si4 0.576275 0.888238 0.501164
Si Si5 0.708712 0.445674 0.801918
O O1 0.250000 0.750000 0.500000
O O2 0.529452 0.713970 0.510291
O O3 0.467989 0.827364 0.514594
O O4 0.000000 0.767971 0.750000
O O5 0.500000 0.162450 0.250000
O O6 0.176385 0.124380 0.524278
O O7 0.030904 0.105168 0.423912
O O8 0.707369 0.930106 0.376298
O O9 0.978063 0.003257 0.164924
O O10 0.328492 0.918632 0.662265
O O11 0.000000 0.458952 0.750000
#
# Coordination Sequence:
#
# PCOD9297680 Si02
#       5
#     8   8   4   8   8
#     4  12  26  42  69 105 140 180 232 302 355 422
#     4   9  21  44  71  92 138 183 226 289 352 422
#     4  12  24  40  74  96 144 186 232 286 340 438
#     4  10  24  42  63  99 134 183 228 281 358 414
#     4   9  22  45  66  99 137 185 229 291 350 413
#
# _framework density 22.661171
#
# number of rings (size 3 to 8) (size 9 to 14) (size 15 to 20)
#    0.000    2.222    0.000    4.000    9.333    3.556 
#    4.000    0.000    0.000    0.000    0.000    0.000 
#    0.000    0.000    0.000    0.000    0.000    0.000 
#
# Total GULP energy -100297.352533 kJ/mol
# GULP energy per Si atom -5572.075141 kJ/mol
# Density = 2.260959 g / cm^3
# Si number density = 22.661171 Si / 1000 Ang^3
#
#
#
# Elastic Constant Matrix: (Units=GPa)
#
#
# Indices 1 2 3 4 5 6 
#
# 1 62.1816 51.7709 28.4247 0.0000 8.4794 0.0000
# 2 51.7709 154.4365 59.2083 0.0000 -10.8136 0.0000
# 3 28.4247 59.2083 52.0764 0.0000 11.9511 -0.0001
# 4 0.0000 0.0000 0.0000 38.2016 0.0000 30.0350
# 5 8.4794 -10.8136 11.9511 0.0000 17.7439 0.0000
# 6 0.0000 0.0000 -0.0001 30.0350 0.0000 133.4466
#
#
#
# Elastic Compliance Matrix: (Units=1/GPa)
#
#
# Indices 1 2 3 4 5 6 
#
# 1 0.028083 -0.013403 0.005754 0.000000 -0.025464 0.000000
# 2 -0.013403 0.027482 -0.034589 0.000000 0.046450 0.000000
# 3 0.005754 -0.034589 0.071984 0.000000 -0.072313 0.000000
# 4 0.000000 0.000000 0.000000 0.031805 0.000000 -0.007158
# 5 -0.025464 0.046450 -0.072313 0.000000 0.145539 0.000000
# 6 0.000000 0.000000 0.000000 -0.007158 0.000000 0.009105
#
#
# Mechanical properties :
#
#
# Convention : Reuss Voigt Hill
#
# Bulk Modulus (GPa) = 23.21745 60.83357 42.02551
# Shear Modulus (GPa) = 12.11147 46.49780 29.30464
#
# Velocity S-wave (km/s) = 2.31435 4.53467 3.59996
# Velocity P-wave (km/s) = 4.17245 7.37026 5.98874
#
# Compressibility (1/GPa) = 0.04307105
#
# Stress axis : x y z
#
# Youngs Moduli (GPa) = 35.60854 36.38800 13.89205
#
# Poissons Ratio (x) = 0.48771 -0.07993
# Poissons Ratio (y) = 0.47726 0.48052
# Poissons Ratio (z) = -0.20488 1.25864
#
# Static dielectric constant tensor:
#      x y z
#    x 1.860840 0.000000 -0.031390 
#    y 0.000000 1.572910 0.000000 
#    z -0.031390 0.000000 1.833570 
# 
# From -- ./inp_files/77998.got.cif
#   From: 2010.05.17/outbox.cif.g08.bks.cpg/sg15_39_cif.got.tgz:77998.got - 2010.06.03 18:47:42.
