data_PCOD9297898
_publ_section_title
;
Structure prediction by ZEFSAII (Michael W. Deem and Ramdas Pophale) SiO2 
 PCOD9297898
Probable space group: C 2/C
;
_chemical_formula_sum "Si O2"
_cell_formula_units_Z 52
_cell_length_a 22.147627
_cell_length_b 11.463253
_cell_length_c 8.505267
_cell_angle_alpha 90.000000
_cell_angle_beta 93.944078
_cell_angle_gamma 90.000000
_cell_volume 2154.235868
_symmetry_space_group_name_H-M "C 2/C"
_symmetry_group_IT_number 15
_symmetry_cell_setting 'monoclinic'
loop_
_space_group_symop_operation_xyz
x,y,z
-x,y,1/2-z
-x,-y,-z
x,-y,1/2+z
1/2+x,1/2+y,z
1/2-x,1/2+y,1/2-z
1/2-x,1/2-y,-z
1/2+x,1/2-y,1/2+z
loop_
_atom_site_type_symbol
_atom_site_label
_atom_site_fract_x
_atom_site_fract_y
_atom_site_fract_z
Si Si1 0.747421 0.460369 0.059970
Si Si2 0.567278 0.631795 0.707971
Si Si3 0.000000 0.463219 0.250000
Si Si4 0.338691 0.056757 0.817053
Si Si5 0.413014 0.873119 0.617912
Si Si6 0.161785 0.080788 0.274823
Si Si7 0.441697 0.726064 0.152205
O O1 0.791556 0.387881 0.183061
O O2 0.713860 0.560941 0.155252
O O3 0.792068 0.509042 0.937848
O O4 0.694237 0.404703 0.949173
O O5 0.500000 0.594324 0.750000
O O6 0.583684 0.743585 0.816908
O O7 0.617838 0.532941 0.750036
O O8 0.563835 0.676392 0.525788
O O9 0.021523 0.566021 0.376022
O O10 0.885971 0.381705 0.440330
O O11 0.373535 0.951354 0.733464
O O12 0.547174 0.864342 0.327503
O O13 0.116283 0.186963 0.259998
O O14 0.500000 0.673718 0.250000
#
# Coordination Sequence:
#
# PCOD9297898 Si02
#       7
#     8   8   4   8   8   8   8
#     4   9  20  42  69  93 126 176 222 278 321 386
#     4  12  26  39  66 106 135 173 220 272 338 398
#     4  10  24  42  70  96 132 178 220 258 346 396
#     4   9  21  41  69  93 130 173 223 274 325 380
#     4  11  22  43  70  97 138 172 219 277 327 402
#     4  11  21  42  71  92 138 169 220 276 334 391
#     4  10  25  42  63  98 137 173 215 263 340 403
#
# _framework density 24.138487999999999
#
# number of rings (size 3 to 8) (size 9 to 14) (size 15 to 20)
#    0.462    1.231    2.308    1.385    4.308    2.462 
#    0.000    7.692   13.538    0.000    0.000    0.000 
#    0.000    0.000    0.000    0.000    0.000    0.000 
#
# Total GULP energy -144850.913203 kJ/mol
# GULP energy per Si atom -5571.188969 kJ/mol
# Density = 2.408355 g / cm^3
# Si number density = 24.138488 Si / 1000 Ang^3
#
#
#
# Elastic Constant Matrix: (Units=GPa)
#
#
# Indices 1 2 3 4 5 6 
#
# 1 104.5151 32.7577 72.5052 0.0000 29.3554 0.0000
# 2 32.7577 113.5217 51.0442 0.0000 20.8540 0.0000
# 3 72.5052 51.0442 154.0385 0.0000 19.2718 0.0000
# 4 0.0000 0.0000 0.0000 7.7325 0.0000 -50.7558
# 5 29.3554 20.8540 19.2718 0.0000 71.3398 0.0000
# 6 0.0000 0.0000 0.0000 -50.7558 0.0000 -59.4536
#
#
#
# Elastic Compliance Matrix: (Units=1/GPa)
#
#
# Indices 1 2 3 4 5 6 
#
# 1 0.015575 -0.000745 -0.006531 0.000000 -0.004427 0.000000
# 2 -0.000745 0.010723 -0.002949 0.000000 -0.002032 0.000000
# 3 -0.006531 -0.002949 0.010452 0.000000 0.000726 0.000000
# 4 0.000000 0.000000 0.000000 0.019584 0.000000 -0.016719
# 5 -0.004427 -0.002032 0.000726 0.000000 0.016237 0.000000
# 6 0.000000 0.000000 0.000000 -0.016719 0.000000 -0.002547
#
#
# Mechanical properties :
#
#
# Convention : Reuss Voigt Hill
#
# Bulk Modulus (GPa) = 61.34021 76.07661 68.70841
# Shear Modulus (GPa) = 52.13465 18.30829 35.22147
#
# Velocity S-wave (km/s) = 4.65242 2.75702 3.82402
# Velocity P-wave (km/s) = 7.37068 6.45910 6.92990
#
# Compressibility (1/GPa) = 0.01630252
#
# Stress axis : x y z
#
# Youngs Moduli (GPa) = 64.20419 93.25960 95.67484
#
# Poissons Ratio (x) = 0.06945 0.62481
# Poissons Ratio (y) = 0.04781 0.28210
# Poissons Ratio (z) = 0.41929 0.27498
#
# Static dielectric constant tensor:
#      x y z
#    x 2.100220 0.000000 -0.010660 
#    y 0.000000 1.868830 0.000000 
#    z -0.010660 0.000000 1.956560 
# 
# From -- ./inp_files/55311.got.cif
#   From: 2010.05.17/outbox.cif.g08.bks.cpg/sg15_28_cif.got.tgz:55311.got - 2010.06.03 18:47:42.
