data_PCOD9297641
_publ_section_title
;
Structure prediction by ZEFSAII (Michael W. Deem and Ramdas Pophale) SiO2 
 PCOD9297641
Probable space group: C 2/C
;
_chemical_formula_sum "Si O2"
_cell_formula_units_Z 40
_cell_length_a 18.049183
_cell_length_b 5.221676
_cell_length_c 19.781180
_cell_angle_alpha 90.000000
_cell_angle_beta 58.539872
_cell_angle_gamma 90.000000
_cell_volume 1590.268693
_symmetry_space_group_name_H-M "C 2/C"
_symmetry_group_IT_number 15
_symmetry_cell_setting 'monoclinic'
loop_
_space_group_symop_operation_xyz
x,y,z
-x,y,1/2-z
-x,-y,-z
x,-y,1/2+z
1/2+x,1/2+y,z
1/2-x,1/2+y,1/2-z
1/2-x,1/2-y,-z
1/2+x,1/2-y,1/2+z
loop_
_atom_site_type_symbol
_atom_site_label
_atom_site_fract_x
_atom_site_fract_y
_atom_site_fract_z
Si Si1 0.655495 0.370404 0.999671
Si Si2 0.377509 0.288485 0.094059
Si Si3 0.512450 0.021426 0.115742
Si Si4 0.213905 0.008074 0.615394
Si Si5 0.569828 0.489519 0.796378
O O1 0.606880 0.108650 0.045121
O O2 0.684469 0.525462 0.051818
O O3 0.592674 0.541400 0.983760
O O4 0.737621 0.283416 0.915605
O O5 0.443904 0.069885 0.087158
O O6 0.372490 0.466588 0.162998
O O7 0.287190 0.171282 0.112777
O O8 0.488012 0.255773 0.177013
O O9 0.489517 0.757603 0.162387
O O10 0.132340 0.983990 0.703060
#
# Coordination Sequence:
#
# PCOD9297641 Si02
#       5
#     8   8   8   8   8
#     4  11  25  47  71 110 153 198 244 315 382 452
#     4  10  24  41  76 104 148 193 253 307 368 458
#     4  10  25  46  77 102 148 195 256 301 374 457
#     4  11  26  44  74 109 154 191 251 315 384 449
#     4  10  26  45  74 109 143 199 251 311 372 452
#
# _framework density 25.152982999999999
#
# number of rings (size 3 to 8) (size 9 to 14) (size 15 to 20)
#    1.200    0.400    0.000    2.400   11.200    2.400 
#    0.000    2.000    0.000    0.000    0.000    0.000 
#    0.000    0.000    0.000    0.000    0.000    0.000 
#
# Total GULP energy -111830.736573 kJ/mol
# GULP energy per Si atom -5591.536829 kJ/mol
# Density = 2.509573 g / cm^3
# Si number density = 25.152983 Si / 1000 Ang^3
#
#
#
# Elastic Constant Matrix: (Units=GPa)
#
#
# Indices 1 2 3 4 5 6 
#
# 1 128.2669 34.0749 40.4043 0.0048 30.3645 -0.0185
# 2 34.0749 130.0866 64.2576 0.0208 4.3814 -0.0232
# 3 40.4043 64.2576 136.5413 0.0076 2.2186 0.0012
# 4 0.0048 0.0208 0.0076 18.4434 0.0002 -12.4642
# 5 30.3645 4.3814 2.2186 0.0002 41.5086 0.0023
# 6 -0.0185 -0.0232 0.0012 -12.4642 0.0023 39.1300
#
#
#
# Elastic Compliance Matrix: (Units=1/GPa)
#
#
# Indices 1 2 3 4 5 6 
#
# 1 0.010705 -0.001362 -0.002404 0.000004 -0.007558 0.000006
# 2 -0.001362 0.010216 -0.004407 -0.000007 0.000154 0.000003
# 3 -0.002404 -0.004407 0.010082 -0.000002 0.001685 -0.000005
# 4 0.000004 -0.000007 -0.000002 0.069093 -0.000003 0.022008
# 5 -0.007558 0.000154 0.001685 -0.000003 0.029514 -0.000006
# 6 0.000006 0.000003 -0.000005 0.022008 -0.000006 0.032566
#
#
# Mechanical properties :
#
#
# Convention : Reuss Voigt Hill
#
# Bulk Modulus (GPa) = 68.23037 74.70758 71.46898
# Shear Modulus (GPa) = 27.26176 36.89362 32.07769
#
# Velocity S-wave (km/s) = 3.29574 3.83400 3.57501
# Velocity P-wave (km/s) = 6.45504 7.02603 6.74658
#
# Compressibility (1/GPa) = 0.01465623
#
# Stress axis : x y z
#
# Youngs Moduli (GPa) = 93.41801 97.88870 99.18915
#
# Poissons Ratio (x) = 0.13332 0.23844
# Poissons Ratio (y) = 0.12723 0.43713
# Poissons Ratio (z) = 0.22456 0.43140
#
# Static dielectric constant tensor:
#      x y z
#    x 2.013670 0.000000 -0.007360 
#    y 0.000000 2.017330 -0.000010 
#    z -0.007360 -0.000010 2.003580 
# 
# From -- ./inp_files/253799.got.cif
#   From: 2010.05.17/outbox.cif.g08.bks.cpg/sg15_127_cif.got.tgz:253799.got - 2010.06.03 18:47:42.
