data_PCOD9297697
_publ_section_title
;
Structure prediction by ZEFSAII (Michael W. Deem and Ramdas Pophale) SiO2 
 PCOD9297697
Probable space group: C 2/C
;
_chemical_formula_sum "Si O2"
_cell_formula_units_Z 56
_cell_length_a 23.092362
_cell_length_b 9.759422
_cell_length_c 12.758497
_cell_angle_alpha 90.000000
_cell_angle_beta 108.056378
_cell_angle_gamma 90.000000
_cell_volume 2733.752623
_symmetry_space_group_name_H-M "C 2/C"
_symmetry_group_IT_number 15
_symmetry_cell_setting 'monoclinic'
loop_
_space_group_symop_operation_xyz
x,y,z
-x,y,1/2-z
-x,-y,-z
x,-y,1/2+z
1/2+x,1/2+y,z
1/2-x,1/2+y,1/2-z
1/2-x,1/2-y,-z
1/2+x,1/2-y,1/2+z
loop_
_atom_site_type_symbol
_atom_site_label
_atom_site_fract_x
_atom_site_fract_y
_atom_site_fract_z
Si Si1 0.140280 0.643003 0.335961
Si Si2 0.914662 0.276796 0.482197
Si Si3 0.033924 0.808700 0.164403
Si Si4 0.869185 0.025479 0.907405
Si Si5 0.304149 0.649547 0.065430
Si Si6 0.153384 0.645869 0.739745
Si Si7 0.273955 0.390468 0.177276
O O1 0.120202 0.644002 0.445085
O O2 0.082975 0.700454 0.236454
O O3 0.157188 0.493585 0.306469
O O4 0.193300 0.753648 0.345677
O O5 0.906652 0.346421 0.365269
O O6 0.982885 0.255619 0.561288
O O7 0.882952 0.127845 0.452172
O O8 0.071588 0.919503 0.120199
O O9 0.000000 0.864704 0.250000
O O10 0.814236 0.046268 0.794710
O O11 0.849855 0.115114 0.996820
O O12 0.339168 0.726202 0.178811
O O13 0.275188 0.507437 0.089871
O O14 0.250000 0.750000 0.000000
O O15 0.209052 0.645082 0.688927
#
# Coordination Sequence:
#
# PCOD9297697 Si02
#       7
#     8   8   8   8   8   8   8
#     4  10  24  42  64  93 130 175 211 271 336 388
#     4  11  23  43  65  94 128 171 224 273 324 393
#     4   9  22  44  69  94 129 174 219 271 329 389
#     4  11  22  42  70  97 130 173 219 272 326 383
#     4  12  25  42  65 102 138 170 219 273 323 395
#     4  12  26  38  65 100 132 173 221 267 330 395
#     4  11  23  42  64  95 135 172 220 263 327 398
#
# _framework density 20.484663000000001
#
# number of rings (size 3 to 8) (size 9 to 14) (size 15 to 20)
#    0.000    1.143    4.286    1.286    4.000    1.143 
#    0.000    3.571    0.000    0.000    0.000    0.000 
#    0.000    0.000    0.000    0.000    0.000    0.000 
#
# Total GULP energy -156609.362925 kJ/mol
# GULP energy per Si atom -5593.191533 kJ/mol
# Density = 2.043804 g / cm^3
# Si number density = 20.484663 Si / 1000 Ang^3
#
#
#
# Elastic Constant Matrix: (Units=GPa)
#
#
# Indices 1 2 3 4 5 6 
#
# 1 85.2574 18.3721 22.0907 0.0000 -15.4447 0.0000
# 2 18.3721 94.5892 19.7210 0.0000 -15.9460 0.0000
# 3 22.0907 19.7210 86.8379 0.0000 -4.1380 0.0000
# 4 0.0000 0.0000 0.0000 30.4314 0.0000 -6.6822
# 5 -15.4447 -15.9460 -4.1380 0.0000 26.3713 0.0000
# 6 0.0000 0.0000 0.0000 -6.6822 0.0000 0.6377
#
#
#
# Elastic Compliance Matrix: (Units=1/GPa)
#
#
# Indices 1 2 3 4 5 6 
#
# 1 0.014005 -0.000877 -0.003021 0.000000 0.007198 0.000000
# 2 -0.000877 0.012324 -0.002262 0.000000 0.006583 0.000000
# 3 -0.003021 -0.002262 0.012744 0.000000 -0.001137 0.000000
# 4 0.000000 0.000000 0.000000 -0.025259 0.000000 -0.264681
# 5 0.007198 0.006583 -0.001137 0.000000 0.045938 0.000000
# 6 0.000000 0.000000 0.000000 -0.264681 0.000000 -1.205377
#
#
# Mechanical properties :
#
#
# Convention : Reuss Voigt Hill
#
# Bulk Modulus (GPa) = 37.37861 43.00577 40.19219
# Shear Modulus (GPa) = -4.44686 25.25480 10.40397
#
# Velocity S-wave (km/s) = -1.47497 3.51503 2.25609
# Velocity P-wave (km/s) = 3.92250 6.12483 5.14294
#
# Compressibility (1/GPa) = 0.02675327
#
# Stress axis : x y z
#
# Youngs Moduli (GPa) = 71.40449 81.14389 78.47079
#
# Poissons Ratio (x) = 0.07116 0.23702
# Poissons Ratio (y) = 0.06262 0.17750
# Poissons Ratio (z) = 0.21568 0.18354
#
# Static dielectric constant tensor:
#      x y z
#    x 1.699140 0.000000 0.054230 
#    y 0.000000 1.695640 0.000000 
#    z 0.054230 0.000000 1.625600 
# 
# From -- ./inp_files/171990.got.cif
#   From: 2010.05.17/outbox.cif.g08.bks.cpg/sg15_86_cif.got.tgz:171990.got - 2010.06.03 18:47:42.
