data_PCOD9297470
_publ_section_title
;
Structure prediction by ZEFSAII (Michael W. Deem and Ramdas Pophale) SiO2 
 PCOD9297470
Probable space group: C 2/C
;
_chemical_formula_sum "Si O2"
_cell_formula_units_Z 60
_cell_length_a 6.674424
_cell_length_b 18.061290
_cell_length_c 25.621250
_cell_angle_alpha 90.000000
_cell_angle_beta 104.631966
_cell_angle_gamma 90.000000
_cell_volume 2988.440014
_symmetry_space_group_name_H-M "C 2/C"
_symmetry_group_IT_number 15
_symmetry_cell_setting 'monoclinic'
loop_
_space_group_symop_operation_xyz
x,y,z
-x,y,1/2-z
-x,-y,-z
x,-y,1/2+z
1/2+x,1/2+y,z
1/2-x,1/2+y,1/2-z
1/2-x,1/2-y,-z
1/2+x,1/2-y,1/2+z
loop_
_atom_site_type_symbol
_atom_site_label
_atom_site_fract_x
_atom_site_fract_y
_atom_site_fract_z
Si Si1 0.870992 0.407171 0.901219
Si Si2 0.970953 0.815590 0.888033
Si Si3 0.768128 0.164292 0.483005
Si Si4 0.000000 0.151931 0.750000
Si Si5 0.896153 0.403224 0.691323
Si Si6 0.741480 0.436898 0.177358
Si Si7 0.119727 0.341076 0.158165
Si Si8 0.342665 0.440603 0.085795
O O1 0.683871 0.350418 0.884257
O O2 0.777411 0.480944 0.922058
O O3 0.053732 0.368607 0.946032
O O4 0.954582 0.420553 0.848088
O O5 0.927767 0.834789 0.945428
O O6 0.784371 0.851990 0.843168
O O7 0.972920 0.728510 0.878157
O O8 0.750000 0.250000 0.500000
O O9 0.832416 0.108715 0.533245
O O10 0.887352 0.103222 0.786336
O O11 0.804014 0.188559 0.708050
O O12 0.805502 0.482682 0.701189
O O13 0.000000 0.370529 0.750000
O O14 0.582188 0.449513 0.118811
O O15 0.939812 0.387346 0.175112
O O16 0.227563 0.394228 0.123334
#
# Coordination Sequence:
#
# PCOD9297470 Si02
#       8
#     8   8   8   4   8   8   8   8
#     4  11  25  45  67  99 133 172 225 268 332 395
#     4  11  26  44  65  99 133 176 218 272 336 393
#     4  11  25  45  69  98 132 173 223 279 329 394
#     4  10  24  40  68  98 130 174 226 270 328 394
#     4  11  24  43  69  97 137 172 220 269 322 398
#     4  11  23  41  70  99 129 174 226 269 329 395
#     4  11  23  42  67  95 136 172 221 270 331 395
#     4  11  23  44  69  98 133 172 221 278 326 389
#
# _framework density 20.077363999999999
#
# number of rings (size 3 to 8) (size 9 to 14) (size 15 to 20)
#    0.000    1.067    4.000    1.600    4.667    3.733 
#    2.400    0.000    0.000    0.000    0.000    0.000 
#    0.000    0.000    0.000    0.000    0.000    0.000 
#
# Total GULP energy -167591.580163 kJ/mol
# GULP energy per Si atom -5586.386005 kJ/mol
# Density = 2.003167 g / cm^3
# Si number density = 20.077364 Si / 1000 Ang^3
#
#
#
# Elastic Constant Matrix: (Units=GPa)
#
#
# Indices 1 2 3 4 5 6 
#
# 1 27.4329 2.3745 1.7191 0.0000 8.4074 0.0000
# 2 2.3745 68.4398 -8.9109 0.0000 10.6627 0.0000
# 3 1.7191 -8.9109 81.9049 0.0000 16.8608 0.0000
# 4 0.0000 0.0000 0.0000 25.1048 0.0000 8.9254
# 5 8.4074 10.6627 16.8608 0.0000 19.6264 0.0000
# 6 0.0000 0.0000 0.0000 8.9254 0.0000 16.4563
#
#
#
# Elastic Compliance Matrix: (Units=1/GPa)
#
#
# Indices 1 2 3 4 5 6 
#
# 1 0.043198 0.002741 0.004261 0.000000 -0.023655 0.000000
# 2 0.002741 0.017474 0.004907 0.000000 -0.014884 0.000000
# 3 0.004261 0.004907 0.016496 0.000000 -0.018663 0.000000
# 4 0.000000 0.000000 0.000000 0.049349 0.000000 -0.026765
# 5 -0.023655 -0.014884 -0.018663 0.000000 0.085204 0.000000
# 6 0.000000 0.000000 0.000000 -0.026765 0.000000 0.075283
#
#
# Mechanical properties :
#
#
# Convention : Reuss Voigt Hill
#
# Bulk Modulus (GPa) = 9.90224 18.68255 14.29240
# Shear Modulus (GPa) = 16.84377 24.41051 20.62714
#
# Velocity S-wave (km/s) = 2.89959 3.49065 3.20876
# Velocity P-wave (km/s) = 4.01907 5.05684 4.56753
#
# Compressibility (1/GPa) = 0.10098724
#
# Stress axis : x y z
#
# Youngs Moduli (GPa) = 23.14938 57.22763 60.62216
#
# Poissons Ratio (x) = -0.15688 -0.25831
# Poissons Ratio (y) = -0.06346 -0.29750
# Poissons Ratio (z) = -0.09864 -0.28084
#
# Static dielectric constant tensor:
#      x y z
#    x 1.693060 0.000000 0.028440 
#    y 0.000000 1.676160 0.000000 
#    z 0.028440 0.000000 1.723360 
# 
# From -- ./inp_files/286084.got.cif
#   From: 2010.05.17/outbox.cif.g08.bks.cpg/sg15_144_cif.got.tgz:286084.got - 2010.06.03 18:47:42.
