data_PCOD9297551
_publ_section_title
;
Structure prediction by ZEFSAII (Michael W. Deem and Ramdas Pophale) SiO2 
 PCOD9297551
Probable space group: C 2/C
;
_chemical_formula_sum "Si O2"
_cell_formula_units_Z 64
_cell_length_a 18.363364
_cell_length_b 18.128652
_cell_length_c 13.888292
_cell_angle_alpha 90.000000
_cell_angle_beta 141.507804
_cell_angle_gamma 90.000000
_cell_volume 2877.675272
_symmetry_space_group_name_H-M "C 2/C"
_symmetry_group_IT_number 15
_symmetry_cell_setting 'monoclinic'
loop_
_space_group_symop_operation_xyz
x,y,z
-x,y,1/2-z
-x,-y,-z
x,-y,1/2+z
1/2+x,1/2+y,z
1/2-x,1/2+y,1/2-z
1/2-x,1/2-y,-z
1/2+x,1/2-y,1/2+z
loop_
_atom_site_type_symbol
_atom_site_label
_atom_site_fract_x
_atom_site_fract_y
_atom_site_fract_z
Si Si1 0.635042 0.494399 0.402996
Si Si2 0.552093 0.923252 0.515961
Si Si3 0.845915 0.693535 0.826151
Si Si4 0.298278 0.121648 0.507095
Si Si5 0.036274 0.155271 0.081732
Si Si6 0.287569 0.551159 0.315260
Si Si7 0.183472 0.096978 0.763700
Si Si8 0.358285 0.283771 0.546292
O O1 0.500000 0.521515 0.250000
O O2 0.740327 0.555160 0.510306
O O3 0.643466 0.455641 0.514833
O O4 0.662538 0.437272 0.346103
O O5 0.450142 0.862987 0.407730
O O6 0.622769 0.923833 0.487875
O O7 0.664335 0.907347 0.700537
O O8 0.500000 0.000000 0.500000
O O9 0.902160 0.772999 0.898465
O O10 0.777671 0.661550 0.847640
O O11 0.748916 0.701214 0.640978
O O12 0.377660 0.197541 0.587880
O O13 0.182246 0.174036 0.400050
O O14 0.135743 0.092496 0.186529
O O15 0.937104 0.124152 0.907672
O O16 0.965353 0.180170 0.101932
O O17 0.270379 0.469131 0.257161
#
# Coordination Sequence:
#
# PCOD9297551 Si02
#       8
#     8   8   8   8   8   8   8   8
#     4  12  25  43  71 104 139 178 237 296 343 406
#     4  12  24  45  66  95 138 192 231 274 343 423
#     4  11  23  43  68  98 138 190 229 279 352 421
#     4  11  23  42  65 106 142 178 225 283 352 437
#     4  11  23  41  72  95 138 183 227 286 348 412
#     4  12  25  44  72 103 134 184 238 285 354 411
#     4  11  24  45  69 103 136 179 240 290 343 416
#     4  10  24  41  64 108 144 176 224 282 364 421
#
# _framework density 22.240174
#
# number of rings (size 3 to 8) (size 9 to 14) (size 15 to 20)
#    0.000    0.750    5.000    2.625    3.500    0.500 
#    0.000    2.500    2.750    0.000    0.000    0.000 
#    0.000    0.000    0.000    0.000    0.000    0.000 
#
# Total GULP energy -178301.346468 kJ/mol
# GULP energy per Si atom -5571.917077 kJ/mol
# Density = 2.218955 g / cm^3
# Si number density = 22.240174 Si / 1000 Ang^3
#
#
#
# Elastic Constant Matrix: (Units=GPa)
#
#
# Indices 1 2 3 4 5 6 
#
# 1 128.3584 50.7580 28.4011 0.0000 10.3031 0.0000
# 2 50.7580 91.4115 21.5412 0.0000 15.3776 0.0000
# 3 28.4011 21.5412 97.6001 0.0000 26.7273 0.0000
# 4 0.0000 0.0000 0.0000 27.9352 0.0000 11.4299
# 5 10.3031 15.3776 26.7273 0.0000 40.4743 0.0000
# 6 0.0000 0.0000 0.0000 11.4299 0.0000 53.8512
#
#
#
# Elastic Compliance Matrix: (Units=1/GPa)
#
#
# Indices 1 2 3 4 5 6 
#
# 1 0.010301 -0.005370 -0.002018 0.000000 0.000751 0.000000
# 2 -0.005370 0.014712 -0.000645 0.000000 -0.003797 0.000000
# 3 -0.002018 -0.000645 0.013145 0.000000 -0.007922 0.000000
# 4 0.000000 0.000000 0.000000 0.039202 0.000000 -0.008321
# 5 0.000751 -0.003797 -0.007922 0.000000 0.031190 0.000000
# 6 0.000000 0.000000 0.000000 -0.008321 0.000000 0.020336
#
#
# Mechanical properties :
#
#
# Convention : Reuss Voigt Hill
#
# Bulk Modulus (GPa) = 45.26528 57.64119 51.45324
# Shear Modulus (GPa) = 32.82707 38.89679 35.86193
#
# Velocity S-wave (km/s) = 3.84608 4.18657 4.01993
# Velocity P-wave (km/s) = 6.33405 7.02451 6.68820
#
# Compressibility (1/GPa) = 0.02209199
#
# Stress axis : x y z
#
# Youngs Moduli (GPa) = 97.08240 67.97088 76.07708
#
# Poissons Ratio (x) = 0.36503 0.15350
# Poissons Ratio (y) = 0.52137 0.04904
# Poissons Ratio (z) = 0.19588 0.04381
#
# Static dielectric constant tensor:
#      x y z
#    x 1.834550 0.000000 -0.000770 
#    y 0.000000 1.836300 0.000000 
#    z -0.000770 0.000000 1.939600 
# 
# From -- ./inp_files/163284.got.cif
#   From: 2010.05.17/outbox.cif.g08.bks.cpg/sg15_82_cif.got.tgz:163284.got - 2010.06.03 18:47:42.
