data_PCOD9297439
_publ_section_title
;
Structure prediction by ZEFSAII (Michael W. Deem and Ramdas Pophale) SiO2 
 PCOD9297439
Probable space group: C 2/C
;
_chemical_formula_sum "Si O2"
_cell_formula_units_Z 60
_cell_length_a 6.805616
_cell_length_b 17.641605
_cell_length_c 25.539406
_cell_angle_alpha 90.000000
_cell_angle_beta 83.876717
_cell_angle_gamma 90.000000
_cell_volume 3048.817598
_symmetry_space_group_name_H-M "C 2/C"
_symmetry_group_IT_number 15
_symmetry_cell_setting 'monoclinic'
loop_
_space_group_symop_operation_xyz
x,y,z
-x,y,1/2-z
-x,-y,-z
x,-y,1/2+z
1/2+x,1/2+y,z
1/2-x,1/2+y,1/2-z
1/2-x,1/2-y,-z
1/2+x,1/2-y,1/2+z
loop_
_atom_site_type_symbol
_atom_site_label
_atom_site_fract_x
_atom_site_fract_y
_atom_site_fract_z
Si Si1 0.673049 0.651593 0.707947
Si Si2 0.493846 0.442125 0.383919
Si Si3 0.103385 0.175637 0.052542
Si Si4 0.946430 0.205619 0.560314
Si Si5 0.740316 0.211817 0.132498
Si Si6 0.000000 0.449810 0.250000
Si Si7 0.136759 0.524065 0.447098
Si Si8 0.362116 0.953603 0.853134
O O1 0.500000 0.681654 0.750000
O O2 0.585340 0.592315 0.668129
O O3 0.767418 0.721378 0.673626
O O4 0.822139 0.604885 0.739168
O O5 0.602326 0.372712 0.409411
O O6 0.306355 0.464660 0.425058
O O7 0.645647 0.510642 0.370933
O O8 0.252532 0.244190 0.059104
O O9 0.239199 0.100861 0.045751
O O10 0.941960 0.180767 0.102166
O O11 0.990983 0.186545 0.000617
O O12 0.105610 0.250767 0.590534
O O13 0.640601 0.136091 0.157806
O O14 0.053116 0.500781 0.198507
O O15 0.000000 0.500000 0.500000
O O16 0.995400 0.534893 0.400972
#
# Coordination Sequence:
#
# PCOD9297439 Si02
#       8
#     8   8   8   8   8   4   8   8
#     4  11  25  46  68  99 131 176 228 284 341 413
#     4  11  24  44  70  98 137 181 228 277 345 405
#     4  11  23  42  64  99 139 183 223 277 332 404
#     4  10  24  40  66  96 139 181 225 269 330 408
#     4  11  25  42  68  95 137 177 224 275 344 402
#     4  12  26  46  74  98 134 174 232 286 344 404
#     4  12  26  42  69 104 141 180 232 279 343 409
#     4  12  25  45  70 102 135 180 225 287 338 407
#
# _framework density 19.679760999999999
#
# number of rings (size 3 to 8) (size 9 to 14) (size 15 to 20)
#    0.000    0.800    5.333    1.200    4.667    5.333 
#    0.000    1.333    0.000    0.000    0.000    0.000 
#    0.000    0.000    0.000    0.000    0.000    0.000 
#
# Total GULP energy -167622.366060 kJ/mol
# GULP energy per Si atom -5587.412202 kJ/mol
# Density = 1.963497 g / cm^3
# Si number density = 19.679761 Si / 1000 Ang^3
#
#
#
# Elastic Constant Matrix: (Units=GPa)
#
#
# Indices 1 2 3 4 5 6 
#
# 1 32.5395 13.5756 9.9148 0.0000 -9.6881 0.0000
# 2 13.5756 110.6644 25.5122 0.0000 7.3769 0.0000
# 3 9.9148 25.5122 72.2809 0.0000 -2.4967 0.0000
# 4 0.0000 0.0000 0.0000 24.3463 0.0000 -0.0534
# 5 -9.6881 7.3769 -2.4967 0.0000 31.0763 0.0000
# 6 0.0000 0.0000 0.0000 -0.0534 0.0000 24.7459
#
#
#
# Elastic Compliance Matrix: (Units=1/GPa)
#
#
# Indices 1 2 3 4 5 6 
#
# 1 0.037351 -0.004719 -0.003025 0.000000 0.012521 0.000000
# 2 -0.004719 0.010651 -0.003259 0.000000 -0.004261 0.000000
# 3 -0.003025 -0.003259 0.015437 0.000000 0.001071 0.000000
# 4 0.000000 0.000000 0.000000 0.041074 0.000000 0.000089
# 5 0.012521 -0.004261 0.001071 0.000000 0.037180 0.000000
# 6 0.000000 0.000000 0.000000 0.000089 0.000000 0.040411
#
#
# Mechanical properties :
#
#
# Convention : Reuss Voigt Hill
#
# Bulk Modulus (GPa) = 24.13623 34.83221 29.48422
# Shear Modulus (GPa) = 22.94410 27.13253 25.03832
#
# Velocity S-wave (km/s) = 3.41819 3.71712 3.57078
# Velocity P-wave (km/s) = 5.27919 6.01336 5.65820
#
# Compressibility (1/GPa) = 0.04143149
#
# Stress axis : x y z
#
# Youngs Moduli (GPa) = 26.77335 93.89097 64.77862
#
# Poissons Ratio (x) = 0.44309 0.19597
# Poissons Ratio (y) = 0.12635 0.21112
# Poissons Ratio (z) = 0.08099 0.30600
#
# Static dielectric constant tensor:
#      x y z
#    x 1.673240 0.000000 -0.007270 
#    y 0.000000 1.675380 0.000000 
#    z -0.007270 0.000000 1.702460 
# 
# From -- ./inp_files/286061.got.cif
#   From: 2010.05.17/outbox.cif.g08.bks.cpg/sg15_144_cif.got.tgz:286061.got - 2010.06.03 18:47:42.
