data_PCOD9297231
_publ_section_title
;
Structure prediction by ZEFSAII (Michael W. Deem and Ramdas Pophale) SiO2 
 PCOD9297231
Probable space group: C 2/C
;
_chemical_formula_sum "Si O2"
_cell_formula_units_Z 48
_cell_length_a 8.002997
_cell_length_b 28.985228
_cell_length_c 12.618540
_cell_angle_alpha 90.000000
_cell_angle_beta 129.547838
_cell_angle_gamma 90.000000
_cell_volume 2257.071806
_symmetry_space_group_name_H-M "C 2/C"
_symmetry_group_IT_number 15
_symmetry_cell_setting 'monoclinic'
loop_
_space_group_symop_operation_xyz
x,y,z
-x,y,1/2-z
-x,-y,-z
x,-y,1/2+z
1/2+x,1/2+y,z
1/2-x,1/2+y,1/2-z
1/2-x,1/2-y,-z
1/2+x,1/2-y,1/2+z
loop_
_atom_site_type_symbol
_atom_site_label
_atom_site_fract_x
_atom_site_fract_y
_atom_site_fract_z
Si Si1 0.500000 0.907764 0.750000
Si Si2 0.834383 0.794145 0.098279
Si Si3 0.194335 0.602847 0.911184
Si Si4 0.396293 0.805048 0.018226
Si Si5 0.386102 0.611229 0.534394
Si Si6 0.983241 0.446718 0.522302
Si Si7 0.500000 0.264192 0.750000
O O1 0.297465 0.878927 0.628001
O O2 0.566194 0.938191 0.675493
O O3 0.619054 0.819677 0.054011
O O4 0.960648 0.838332 0.102013
O O5 0.000000 0.774456 0.250000
O O6 0.750000 0.750000 0.000000
O O7 0.210008 0.656285 0.951696
O O8 0.412614 0.587151 0.941476
O O9 0.000000 0.597528 0.750000
O O10 0.127318 0.578345 0.992643
O O11 0.480829 0.765591 0.134037
O O12 0.223629 0.791962 0.857115
O O13 0.256917 0.577782 0.564815
O O14 0.000000 0.500000 0.500000
#
# Coordination Sequence:
#
# PCOD9297231 Si02
#       7
#     4   8   8   8   8   8   4
#     4   8  22  48  69 102 142 170 239 284 362 418
#     4  12  26  41  67  97 144 193 242 294 354 421
#     4  12  25  42  72 101 143 185 229 290 361 422
#     4  11  22  43  60  97 136 183 239 292 350 416
#     4  10  25  44  68 104 141 183 238 292 354 424
#     4  10  24  48  75 104 138 178 229 297 358 433
#     4  10  24  36  65  94 132 180 245 292 336 422
#
# _framework density 21.266493000000001
#
# number of rings (size 3 to 8) (size 9 to 14) (size 15 to 20)
#    1.000    0.333    2.500    2.000    7.000    4.000 
#    0.000    1.667    0.000    0.000    0.000    0.000 
#    0.000    0.000    0.000    0.000    0.000    0.000 
#
# Total GULP energy -133667.955617 kJ/mol
# GULP energy per Si atom -5569.498151 kJ/mol
# Density = 2.121809 g / cm^3
# Si number density = 21.266493 Si / 1000 Ang^3
#
#
#
# Elastic Constant Matrix: (Units=GPa)
#
#
# Indices 1 2 3 4 5 6 
#
# 1 139.4023 35.4424 17.9739 0.0000 8.7604 0.0000
# 2 35.4424 64.2717 20.4840 0.0000 -3.5022 0.0000
# 3 17.9739 20.4840 139.2921 0.0000 -2.5724 0.0000
# 4 0.0000 0.0000 0.0000 23.1810 0.0000 -17.0507
# 5 8.7604 -3.5022 -2.5724 0.0000 35.8297 0.0000
# 6 0.0000 0.0000 0.0000 -17.0507 0.0000 38.7949
#
#
#
# Elastic Compliance Matrix: (Units=1/GPa)
#
#
# Indices 1 2 3 4 5 6 
#
# 1 0.008601 -0.004738 -0.000461 0.000000 -0.002599 0.000000
# 2 -0.004738 0.019007 -0.002131 0.000000 0.002863 0.000000
# 3 -0.000461 -0.002131 0.007560 0.000000 0.000447 0.000000
# 4 0.000000 0.000000 0.000000 0.063747 0.000000 0.028017
# 5 -0.002599 0.002863 0.000447 0.000000 0.028857 0.000000
# 6 0.000000 0.000000 0.000000 0.028017 0.000000 0.038090
#
#
# Mechanical properties :
#
#
# Convention : Reuss Voigt Hill
#
# Bulk Modulus (GPa) = 48.76006 54.52962 51.64484
# Shear Modulus (GPa) = 26.68703 37.49886 32.09295
#
# Velocity S-wave (km/s) = 3.54628 4.20370 3.88891
# Velocity P-wave (km/s) = 6.30445 7.01842 6.67099
#
# Compressibility (1/GPa) = 0.02050859
#
# Stress axis : x y z
#
# Youngs Moduli (GPa) = 116.26878 52.61332 132.27025
#
# Poissons Ratio (x) = 0.24926 0.06099
# Poissons Ratio (y) = 0.55083 0.28185
# Poissons Ratio (z) = 0.05361 0.11211
#
# Static dielectric constant tensor:
#      x y z
#    x 1.914590 0.000000 -0.007600 
#    y 0.000000 1.850360 0.000000 
#    z -0.007600 0.000000 1.800880 
# 
# From -- ./inp_files/139111.got.cif
#   From: 2010.05.17/outbox.cif.g08.bks.cpg/sg15_70_cif.got.tgz:139111.got - 2010.06.03 18:47:42.
