data_PCOD9297627
_publ_section_title
;
Structure prediction by ZEFSAII (Michael W. Deem and Ramdas Pophale) SiO2 
 PCOD9297627
Probable space group: C 2/C
;
_chemical_formula_sum "Si O2"
_cell_formula_units_Z 60
_cell_length_a 17.322316
_cell_length_b 17.800658
_cell_length_c 18.384990
_cell_angle_alpha 90.000000
_cell_angle_beta 150.142101
_cell_angle_gamma 90.000000
_cell_volume 2822.308303
_symmetry_space_group_name_H-M "C 2/C"
_symmetry_group_IT_number 15
_symmetry_cell_setting 'monoclinic'
loop_
_space_group_symop_operation_xyz
x,y,z
-x,y,1/2-z
-x,-y,-z
x,-y,1/2+z
1/2+x,1/2+y,z
1/2-x,1/2+y,1/2-z
1/2-x,1/2-y,-z
1/2+x,1/2-y,1/2+z
loop_
_atom_site_type_symbol
_atom_site_label
_atom_site_fract_x
_atom_site_fract_y
_atom_site_fract_z
Si Si1 0.992886 0.838653 0.889035
Si Si2 0.353068 0.962711 0.339921
Si Si3 0.288371 0.432634 0.124724
Si Si4 0.523831 0.675967 0.641554
Si Si5 0.702792 0.593795 0.140424
Si Si6 0.015031 0.665178 0.348368
Si Si7 0.000000 0.938188 0.750000
Si Si8 0.721767 0.191780 0.778137
O O1 0.900716 0.886574 0.874302
O O2 0.890152 0.762449 0.801230
O O3 0.000720 0.885335 0.821217
O O4 0.164688 0.821855 0.060591
O O5 0.234433 0.956453 0.310010
O O6 0.380185 0.880608 0.328589
O O7 0.500000 0.000000 0.500000
O O8 0.275343 0.012608 0.213723
O O9 0.393047 0.358561 0.220629
O O10 0.357494 0.502782 0.138504
O O11 0.129211 0.401572 0.963345
O O12 0.408337 0.612009 0.517572
O O13 0.433109 0.752932 0.582002
O O14 0.654115 0.696458 0.687249
O O15 0.850372 0.647532 0.250883
O O16 0.000000 0.667065 0.250000
#
# Coordination Sequence:
#
# PCOD9297627 Si02
#       8
#     8   8   8   8   8   8   4   8
#     4  11  25  46  73 101 141 184 237 294 354 422
#     4  11  23  43  75 105 133 181 243 288 357 420
#     4  11  26  43  66 101 143 185 231 295 355 418
#     4  10  24  41  70 102 142 178 231 284 358 432
#     4  11  23  42  72 101 136 179 231 292 353 417
#     4  12  26  42  66 106 142 188 229 286 357 437
#     4  12  28  46  70 100 144 184 242 298 356 412
#     4  10  25  42  73 104 133 181 238 291 348 417
#
# _framework density 21.259193
#
# number of rings (size 3 to 8) (size 9 to 14) (size 15 to 20)
#    0.000    1.067    4.000    0.800   12.133    3.200 
#    0.000    0.000    1.467    0.000    0.000    0.000 
#    0.000    0.000    0.000    0.000    0.000    0.000 
#
# Total GULP energy -167597.142454 kJ/mol
# GULP energy per Si atom -5586.571415 kJ/mol
# Density = 2.121081 g / cm^3
# Si number density = 21.259193 Si / 1000 Ang^3
#
#
#
# Elastic Constant Matrix: (Units=GPa)
#
#
# Indices 1 2 3 4 5 6 
#
# 1 51.0436 9.6025 15.0702 0.0012 -2.8823 0.0008
# 2 9.6025 101.7718 36.6548 0.0078 6.5009 0.0048
# 3 15.0702 36.6548 108.2396 0.0053 9.8125 0.0027
# 4 0.0012 0.0078 0.0053 39.4754 0.0008 4.6094
# 5 -2.8823 6.5009 9.8125 0.0008 21.4054 -0.0011
# 6 0.0008 0.0048 0.0027 4.6094 -0.0011 38.6849
#
#
#
# Elastic Compliance Matrix: (Units=1/GPa)
#
#
# Indices 1 2 3 4 5 6 
#
# 1 0.020935 -0.001215 -0.002913 0.000000 0.004524 0.000000
# 2 -0.001215 0.011323 -0.003484 -0.000002 -0.002006 -0.000001
# 3 -0.002913 -0.003484 0.011230 -0.000001 -0.004483 0.000000
# 4 0.000000 -0.000002 -0.000001 0.025690 0.000000 -0.003061
# 5 0.004524 -0.002006 -0.004483 0.000000 0.049990 0.000002
# 6 0.000000 -0.000001 0.000000 -0.003061 0.000002 0.026215
#
#
# Mechanical properties :
#
#
# Convention : Reuss Voigt Hill
#
# Bulk Modulus (GPa) = 35.37938 42.63444 39.00691
# Shear Modulus (GPa) = 29.40668 33.22830 31.31749
#
# Velocity S-wave (km/s) = 3.72324 3.95778 3.84230
# Velocity P-wave (km/s) = 5.92970 6.40183 6.17029
#
# Compressibility (1/GPa) = 0.02826505
#
# Stress axis : x y z
#
# Youngs Moduli (GPa) = 47.76627 88.31322 89.04336
#
# Poissons Ratio (x) = 0.10729 0.25943
# Poissons Ratio (y) = 0.05803 0.31019
# Poissons Ratio (z) = 0.13917 0.30765
#
# Static dielectric constant tensor:
#      x y z
#    x 1.785690 0.000000 0.037460 
#    y 0.000000 1.798720 -0.000010 
#    z 0.037460 -0.000010 1.786850 
# 
# From -- ./inp_files/211782.got.cif
#   From: 2010.05.17/outbox.cif.g08.bks.cpg/sg15_106_cif.got.tgz:211782.got - 2010.06.03 18:47:42.
