data_PCOD9297553
_publ_section_title
;
Structure prediction by ZEFSAII (Michael W. Deem and Ramdas Pophale) SiO2 
 PCOD9297553
Probable space group: C 2/C
;
_chemical_formula_sum "Si O2"
_cell_formula_units_Z 64
_cell_length_a 18.786441
_cell_length_b 12.109787
_cell_length_c 14.715191
_cell_angle_alpha 90.000000
_cell_angle_beta 74.910213
_cell_angle_gamma 90.000000
_cell_volume 3232.271017
_symmetry_space_group_name_H-M "C 2/C"
_symmetry_group_IT_number 15
_symmetry_cell_setting 'monoclinic'
loop_
_space_group_symop_operation_xyz
x,y,z
-x,y,1/2-z
-x,-y,-z
x,-y,1/2+z
1/2+x,1/2+y,z
1/2-x,1/2+y,1/2-z
1/2-x,1/2-y,-z
1/2+x,1/2-y,1/2+z
loop_
_atom_site_type_symbol
_atom_site_label
_atom_site_fract_x
_atom_site_fract_y
_atom_site_fract_z
Si Si1 0.774115 0.520391 0.685357
Si Si2 0.628202 0.339227 0.191443
Si Si3 0.349265 0.252198 0.680480
Si Si4 0.154211 0.213049 0.112014
Si Si5 0.500728 0.644465 0.403071
Si Si6 0.513904 0.388329 0.380717
Si Si7 0.784638 0.424521 0.496677
Si Si8 0.272241 0.123430 0.367429
O O1 0.692417 0.568551 0.685650
O O2 0.824406 0.627514 0.679351
O O3 0.805372 0.446341 0.593624
O O4 0.776352 0.454827 0.778150
O O5 0.577777 0.333408 0.298842
O O6 0.567394 0.367737 0.134909
O O7 0.669571 0.223946 0.156744
O O8 0.323801 0.291726 0.789389
O O9 0.435036 0.272009 0.643048
O O10 0.307667 0.320331 0.615803
O O11 0.205760 0.136746 0.031696
O O12 0.071874 0.171592 0.128608
O O13 0.164415 0.338316 0.073665
O O14 0.526716 0.520095 0.373130
O O15 0.483637 0.648643 0.516024
O O16 0.779932 0.542656 0.449876
#
# Coordination Sequence:
#
# PCOD9297553 Si02
#       8
#     8   8   8   8   8   8   8   8
#     4  11  23  41  67  94 127 167 210 265 317 377
#     4  10  24  41  64  91 130 160 210 256 324 369
#     4  11  24  41  64  96 129 164 213 261 321 376
#     4  11  24  42  65  95 129 165 215 263 311 389
#     4  11  25  39  67  90 128 161 216 257 318 365
#     4  10  24  42  62  94 124 167 205 265 312 379
#     4  11  25  41  68  94 126 170 216 257 324 374
#     4  11  24  41  67  93 130 165 210 265 316 380
#
# _framework density 19.800318999999998
#
# number of rings (size 3 to 8) (size 9 to 14) (size 15 to 20)
#    0.000    1.250    2.500    1.875   14.000    1.000 
#    0.000    3.125    0.000    0.000    0.000    0.000 
#    0.000    0.000    0.000    0.000    0.000    0.000 
#
# Total GULP energy -178860.034654 kJ/mol
# GULP energy per Si atom -5589.376083 kJ/mol
# Density = 1.975525 g / cm^3
# Si number density = 19.800319 Si / 1000 Ang^3
#
#
#
# Elastic Constant Matrix: (Units=GPa)
#
#
# Indices 1 2 3 4 5 6 
#
# 1 48.6117 9.8671 3.4877 0.0000 -2.4147 0.0000
# 2 9.8671 44.3207 -6.4822 0.0000 -2.7705 0.0000
# 3 3.4877 -6.4822 38.8157 0.0000 0.0784 0.0000
# 4 0.0000 0.0000 0.0000 38.5026 0.0000 7.0269
# 5 -2.4147 -2.7705 0.0784 0.0000 20.2974 0.0000
# 6 0.0000 0.0000 0.0000 7.0269 0.0000 17.2396
#
#
#
# Elastic Compliance Matrix: (Units=1/GPa)
#
#
# Indices 1 2 3 4 5 6 
#
# 1 0.021920 -0.005176 -0.002838 0.000000 0.001912 0.000000
# 2 -0.005176 0.024552 0.004560 0.000000 0.002718 0.000000
# 3 -0.002838 0.004560 0.026779 0.000000 0.000181 0.000000
# 4 0.000000 0.000000 0.000000 0.028060 0.000000 -0.011437
# 5 0.001912 0.002718 0.000181 0.000000 0.049865 0.000000
# 6 0.000000 0.000000 0.000000 -0.011437 0.000000 0.062668
#
#
# Mechanical properties :
#
#
# Convention : Reuss Voigt Hill
#
# Bulk Modulus (GPa) = 15.07304 16.16592 15.61948
# Shear Modulus (GPa) = 20.58753 23.53296 22.06024
#
# Velocity S-wave (km/s) = 3.22802 3.45122 3.34149
# Velocity P-wave (km/s) = 4.63924 4.90545 4.77420
#
# Compressibility (1/GPa) = 0.06634361
#
# Stress axis : x y z
#
# Youngs Moduli (GPa) = 45.61982 40.73014 37.34291
#
# Poissons Ratio (x) = 0.21080 0.10597
# Poissons Ratio (y) = 0.23611 -0.17027
# Poissons Ratio (z) = 0.12946 -0.18572
#
# Static dielectric constant tensor:
#      x y z
#    x 1.671790 0.000000 -0.003150 
#    y 0.000000 1.683250 0.000000 
#    z -0.003150 0.000000 1.702800 
# 
# From -- ./inp_files/161358.got.cif
#   From: 2010.05.17/outbox.cif.g08.bks.cpg/sg15_81_cif.got.tgz:161358.got - 2010.06.03 18:47:42.
