data_PCOD9297234
_publ_section_title
;
Structure prediction by ZEFSAII (Michael W. Deem and Ramdas Pophale) SiO2 
 PCOD9297234
Probable space group: C 2/C
;
_chemical_formula_sum "Si O2"
_cell_formula_units_Z 52
_cell_length_a 14.831393
_cell_length_b 16.227196
_cell_length_c 14.074530
_cell_angle_alpha 90.000000
_cell_angle_beta 39.642314
_cell_angle_gamma 90.000000
_cell_volume 2161.101378
_symmetry_space_group_name_H-M "C 2/C"
_symmetry_group_IT_number 15
_symmetry_cell_setting 'monoclinic'
loop_
_space_group_symop_operation_xyz
x,y,z
-x,y,1/2-z
-x,-y,-z
x,-y,1/2+z
1/2+x,1/2+y,z
1/2-x,1/2+y,1/2-z
1/2-x,1/2-y,-z
1/2+x,1/2-y,1/2+z
loop_
_atom_site_type_symbol
_atom_site_label
_atom_site_fract_x
_atom_site_fract_y
_atom_site_fract_z
Si Si1 0.000000 0.838165 0.750000
Si Si2 0.628890 0.793987 0.838209
Si Si3 0.397469 0.523246 0.445584
Si Si4 0.804592 0.558415 0.509727
Si Si5 0.000000 0.425761 0.250000
Si Si6 0.500000 0.809970 0.750000
Si Si7 0.893402 0.294552 0.189064
Si Si8 0.718682 0.525735 0.262377
O O1 0.118587 0.895477 0.605644
O O2 0.062412 0.782841 0.781743
O O3 0.590301 0.770409 0.761170
O O4 0.733750 0.723763 0.790541
O O5 0.704820 0.885034 0.785228
O O6 0.493232 0.796507 0.016163
O O7 0.348159 0.448705 0.417150
O O8 0.560782 0.530864 0.345604
O O9 0.307506 0.511931 0.613148
O O10 0.890232 0.636088 0.402140
O O11 0.798318 0.536229 0.625948
O O12 0.891368 0.483253 0.393133
O O13 0.074121 0.369985 0.268721
#
# Coordination Sequence:
#
# PCOD9297234 Si02
#       8
#     4   8   8   8   4   4   8   8
#     4  11  22  41  68 113 140 177 234 294 364 431
#     4  12  25  49  66 103 139 197 243 295 344 423
#     4  11  21  37  68 105 142 179 218 299 355 432
#     4  11  21  42  67 105 142 176 230 302 360 424
#     4  10  24  36  70 110 134 182 232 292 370 422
#     4  11  28  45  70  91 140 189 252 294 344 405
#     4  11  26  42  74  99 148 189 235 295 349 430
#     4  11  22  39  69 103 145 177 232 287 370 417
#
# _framework density 24.061806000000001
#
# number of rings (size 3 to 8) (size 9 to 14) (size 15 to 20)
#    0.000    0.923    6.154    0.000    2.154    3.692 
#    0.000    0.000    0.000    0.000    0.000    0.000 
#    0.000    0.000    0.000    0.000    0.000    0.000 
#
# Total GULP energy -145479.530444 kJ/mol
# GULP energy per Si atom -5595.366556 kJ/mol
# Density = 2.400704 g / cm^3
# Si number density = 24.061806 Si / 1000 Ang^3
#
#
#
# Elastic Constant Matrix: (Units=GPa)
#
#
# Indices 1 2 3 4 5 6 
#
# 1 128.4618 14.7205 20.2364 -0.0002 24.6890 0.0002
# 2 14.7205 19.2426 10.6907 -0.0002 2.9956 0.0002
# 3 20.2364 10.6907 111.9260 -0.0003 37.2702 0.0004
# 4 -0.0002 -0.0002 -0.0003 -44.7861 0.0003 26.7831
# 5 24.6890 2.9956 37.2702 0.0003 55.9313 -0.0003
# 6 0.0002 0.0002 0.0004 26.7831 -0.0003 9.0701
#
#
#
# Elastic Compliance Matrix: (Units=1/GPa)
#
#
# Indices 1 2 3 4 5 6 
#
# 1 0.009251 -0.006613 0.000258 0.000000 -0.003902 0.000000
# 2 -0.006613 0.059630 -0.005666 0.000000 0.003501 0.000000
# 3 0.000258 -0.005666 0.012037 0.000000 -0.007831 0.000000
# 4 0.000000 0.000000 0.000000 -0.008073 0.000000 0.023838
# 5 -0.003902 0.003501 -0.007831 0.000000 0.024632 0.000000
# 6 0.000000 0.000000 0.000000 0.023838 0.000000 0.039861
#
#
# Mechanical properties :
#
#
# Convention : Reuss Voigt Hill
#
# Bulk Modulus (GPa) = 17.58204 38.99174 28.28689
# Shear Modulus (GPa) = 27.72554 18.30859 23.01707
#
# Velocity S-wave (km/s) = 3.39818 2.76143 3.09622
# Velocity P-wave (km/s) = 4.76652 5.13881 4.95616
#
# Compressibility (1/GPa) = 0.05687623
#
# Stress axis : x y z
#
# Youngs Moduli (GPa) = 108.09155 16.77013 83.07939
#
# Poissons Ratio (x) = 0.11091 -0.02145
# Poissons Ratio (y) = 0.71485 0.47070
# Poissons Ratio (z) = -0.02791 0.09501
#
# Static dielectric constant tensor:
#      x y z
#    x 2.006060 0.000000 -0.097840 
#    y 0.000000 1.928650 0.000000 
#    z -0.097840 0.000000 1.955080 
# 
# From -- ./inp_files/155459.got.cif
#   From: 2010.05.17/outbox.cif.g08.bks.cpg/sg15_78_cif.got.tgz:155459.got - 2010.06.03 18:47:42.
