data_PCOD9297846
_publ_section_title
;
Structure prediction by ZEFSAII (Michael W. Deem and Ramdas Pophale) SiO2 
 PCOD9297846
Probable space group: C 2/C
;
_chemical_formula_sum "Si O2"
_cell_formula_units_Z 48
_cell_length_a 24.769672
_cell_length_b 9.189263
_cell_length_c 10.578526
_cell_angle_alpha 90.000000
_cell_angle_beta 110.750679
_cell_angle_gamma 90.000000
_cell_volume 2251.637921
_symmetry_space_group_name_H-M "C 2/C"
_symmetry_group_IT_number 15
_symmetry_cell_setting 'monoclinic'
loop_
_space_group_symop_operation_xyz
x,y,z
-x,y,1/2-z
-x,-y,-z
x,-y,1/2+z
1/2+x,1/2+y,z
1/2-x,1/2+y,1/2-z
1/2-x,1/2-y,-z
1/2+x,1/2-y,1/2+z
loop_
_atom_site_type_symbol
_atom_site_label
_atom_site_fract_x
_atom_site_fract_y
_atom_site_fract_z
Si Si1 0.720258 0.014010 0.185195
Si Si2 0.307690 0.840933 0.085668
Si Si3 0.000000 0.002670 0.750000
Si Si4 0.919729 0.749628 0.287119
Si Si5 0.000000 0.497554 0.250000
Si Si6 0.706281 0.718116 0.850946
Si Si7 0.421960 0.254038 0.577721
O O1 0.695484 0.912889 0.278124
O O2 0.780479 0.941351 0.193410
O O3 0.723116 0.168252 0.255766
O O4 0.687823 0.038976 0.024500
O O5 0.366088 0.748989 0.120843
O O6 0.250000 0.750000 0.000000
O O7 0.959265 0.111090 0.794003
O O8 0.960616 0.895446 0.634741
O O9 0.956255 0.605508 0.285923
O O10 0.859617 0.760865 0.163175
O O11 0.901732 0.749859 0.417540
O O12 0.961413 0.388106 0.134890
O O13 0.750000 0.750000 0.000000
#
# Coordination Sequence:
#
# PCOD9297846 Si02
#       7
#     8   8   4   8   4   8   8
#     4  12  24  43  66 102 137 177 225 271 346 406
#     4  12  25  43  70 104 138 180 222 286 344 409
#     4  10  26  42  68  98 128 178 234 276 338 396
#     4  11  23  45  67  95 136 178 224 284 332 409
#     4  10  24  42  68  98 128 174 234 278 332 394
#     4  12  26  41  68 102 138 178 226 278 344 406
#     4  11  23  44  69  95 136 174 228 277 343 399
#
# _framework density 21.317813999999998
#
# number of rings (size 3 to 8) (size 9 to 14) (size 15 to 20)
#    0.000    0.667    5.000    2.000    2.333    1.333 
#    0.000    0.000    0.000    0.000    0.000    0.000 
#    0.000    0.000    0.000    0.000    0.000    0.000 
#
# Total GULP energy -134058.445007 kJ/mol
# GULP energy per Si atom -5585.768542 kJ/mol
# Density = 2.126929 g / cm^3
# Si number density = 21.317814 Si / 1000 Ang^3
#
#
#
# Elastic Constant Matrix: (Units=GPa)
#
#
# Indices 1 2 3 4 5 6 
#
# 1 120.0935 48.8200 43.5052 0.0000 15.6780 0.0000
# 2 48.8200 119.3988 15.5144 0.0000 11.7652 0.0000
# 3 43.5052 15.5144 86.6712 0.0000 2.9999 0.0000
# 4 0.0000 0.0000 0.0000 22.0316 0.0000 -3.9418
# 5 15.6780 11.7652 2.9999 0.0000 40.0842 0.0000
# 6 0.0000 0.0000 0.0000 -3.9418 0.0000 21.6802
#
#
#
# Elastic Compliance Matrix: (Units=1/GPa)
#
#
# Indices 1 2 3 4 5 6 
#
# 1 0.012325 -0.004025 -0.005354 0.000000 -0.003239 0.000000
# 2 -0.004025 0.010127 0.000257 0.000000 -0.001417 0.000000
# 3 -0.005354 0.000257 0.014146 0.000000 0.000960 0.000000
# 4 0.000000 0.000000 0.000000 0.046916 0.000000 0.008530
# 5 -0.003239 -0.001417 0.000960 0.000000 0.026558 0.000000
# 6 0.000000 0.000000 0.000000 0.008530 0.000000 0.047676
#
#
# Mechanical properties :
#
#
# Convention : Reuss Voigt Hill
#
# Bulk Modulus (GPa) = 54.48417 60.20473 57.34445
# Shear Modulus (GPa) = 27.45559 31.31412 29.38486
#
# Velocity S-wave (km/s) = 3.59265 3.83680 3.71673
# Velocity P-wave (km/s) = 6.54393 6.92322 6.73624
#
# Compressibility (1/GPa) = 0.01835395
#
# Stress axis : x y z
#
# Youngs Moduli (GPa) = 81.13286 98.74297 70.68965
#
# Poissons Ratio (x) = 0.39742 0.37849
# Poissons Ratio (y) = 0.32654 -0.01813
# Poissons Ratio (z) = 0.43441 -0.02533
#
# Static dielectric constant tensor:
#      x y z
#    x 1.766290 0.000000 -0.014110 
#    y 0.000000 1.796440 0.000000 
#    z -0.014110 0.000000 1.763890 
# 
# From -- ./inp_files/121657.got.cif
#   From: 2010.05.17/outbox.cif.g08.bks.cpg/sg15_61_cif.got.tgz:121657.got - 2010.06.03 18:47:42.
