data_PCOD9297131
_publ_section_title
;
Structure prediction by ZEFSAII (Michael W. Deem and Ramdas Pophale) SiO2 
 PCOD9297131
Probable space group: C 2/C
;
_chemical_formula_sum "Si O2"
_cell_formula_units_Z 48
_cell_length_a 9.048756
_cell_length_b 27.170562
_cell_length_c 16.865874
_cell_angle_alpha 90.000000
_cell_angle_beta 27.808034
_cell_angle_gamma 90.000000
_cell_volume 1934.451891
_symmetry_space_group_name_H-M "C 2/C"
_symmetry_group_IT_number 15
_symmetry_cell_setting 'monoclinic'
loop_
_space_group_symop_operation_xyz
x,y,z
-x,y,1/2-z
-x,-y,-z
x,-y,1/2+z
1/2+x,1/2+y,z
1/2-x,1/2+y,1/2-z
1/2-x,1/2-y,-z
1/2+x,1/2-y,1/2+z
loop_
_atom_site_type_symbol
_atom_site_label
_atom_site_fract_x
_atom_site_fract_y
_atom_site_fract_z
Si Si1 0.817582 0.998941 0.901779
Si Si2 0.226894 0.610561 0.481246
Si Si3 0.375292 0.353594 0.573390
Si Si4 0.788786 0.942637 0.163167
Si Si5 0.637530 0.191500 0.919368
Si Si6 0.722785 0.267036 0.317715
O O1 0.000000 0.030535 0.750000
O O2 0.964399 0.021777 0.910978
O O3 0.500000 0.000000 0.000000
O O4 0.882614 0.940877 0.882685
O O5 0.461580 0.646767 0.417745
O O6 0.926247 0.592330 0.677502
O O7 0.082766 0.644022 0.481472
O O8 0.487625 0.407572 0.493526
O O9 0.547888 0.315883 0.432852
O O10 0.000000 0.346909 0.750000
O O11 0.500000 0.967145 0.250000
O O12 0.640639 0.223858 0.835399
O O13 0.000000 0.175497 0.750000
O O14 0.526926 0.223607 0.046500
O O15 0.000000 0.257412 0.250000
#
# Coordination Sequence:
#
# PCOD9297131 Si02
#       6
#     8   8   8   8   8   8
#     4  12  27  45  70 105 145 188 249 309 372 444
#     4  11  25  47  70 104 143 198 238 302 373 439
#     4  11  24  43  76 105 144 186 253 300 359 449
#     4  10  23  48  73  97 144 199 243 300 376 438
#     4  12  27  47  78 107 152 198 246 303 375 445
#     4  12  24  50  75 111 148 196 245 308 369 448
#
# _framework density 24.813229
#
# number of rings (size 3 to 8) (size 9 to 14) (size 15 to 20)
#    0.000    0.667    5.000    2.000    4.667    4.000 
#    0.000    0.000    0.000    0.000    0.000    0.000 
#    0.000    0.000    0.000    0.000    0.000    0.000 
#
# Total GULP energy -133874.780830 kJ/mol
# GULP energy per Si atom -5578.115868 kJ/mol
# Density = 2.475675 g / cm^3
# Si number density = 24.813229 Si / 1000 Ang^3
#
#
#
# Elastic Constant Matrix: (Units=GPa)
#
#
# Indices 1 2 3 4 5 6 
#
# 1 102.9161 37.7476 10.0239 -0.0001 -30.5022 0.0000
# 2 37.7476 90.0974 -0.3462 0.0000 -12.7043 0.0000
# 3 10.0239 -0.3462 70.5497 0.0000 -15.1561 -0.0001
# 4 -0.0001 0.0000 0.0000 16.0361 0.0000 -6.8030
# 5 -30.5022 -12.7043 -15.1561 0.0000 49.1419 0.0000
# 6 0.0000 0.0000 -0.0001 -6.8030 0.0000 39.9543
#
#
#
# Elastic Compliance Matrix: (Units=1/GPa)
#
#
# Indices 1 2 3 4 5 6 
#
# 1 0.013579 -0.004692 -0.000431 0.000000 0.007082 0.000000
# 2 -0.004692 0.013177 0.000897 0.000000 0.000771 0.000000
# 3 -0.000431 0.000897 0.015242 0.000000 0.004665 0.000000
# 4 0.000000 0.000000 0.000000 0.067214 0.000000 0.011444
# 5 0.007082 0.000771 0.004665 0.000000 0.026383 0.000000
# 6 0.000000 0.000000 0.000000 0.011444 0.000000 0.026977
#
#
# Mechanical properties :
#
#
# Convention : Reuss Voigt Hill
#
# Bulk Modulus (GPa) = 29.80965 39.82375 34.81670
# Shear Modulus (GPa) = 27.44140 35.43566 31.43853
#
# Velocity S-wave (km/s) = 3.32914 3.78311 3.56337
# Velocity P-wave (km/s) = 5.17854 5.93016 5.56705
#
# Compressibility (1/GPa) = 0.03354618
#
# Stress axis : x y z
#
# Youngs Moduli (GPa) = 73.64549 75.88978 65.60694
#
# Poissons Ratio (x) = 0.35607 0.02827
# Poissons Ratio (y) = 0.34554 -0.05884
# Poissons Ratio (z) = 0.03173 -0.06807
#
# Static dielectric constant tensor:
#      x y z
#    x 1.965030 0.000000 0.079000 
#    y 0.000000 1.908240 0.000000 
#    z 0.079000 0.000000 2.018510 
# 
# From -- ./inp_files/194151.got.cif
#   From: 2010.05.17/outbox.cif.g08.bks.cpg/sg15_98_cif.got.tgz:194151.got - 2010.06.03 18:47:42.
