data_PCOD9297483
_publ_section_title
;
Structure prediction by ZEFSAII (Michael W. Deem and Ramdas Pophale) SiO2 
 PCOD9297483
Probable space group: C 2/C
;
_chemical_formula_sum "Si O2"
_cell_formula_units_Z 48
_cell_length_a 13.242491
_cell_length_b 8.488525
_cell_length_c 18.333424
_cell_angle_alpha 90.000000
_cell_angle_beta 89.662284
_cell_angle_gamma 90.000000
_cell_volume 2060.810018
_symmetry_space_group_name_H-M "C 2/C"
_symmetry_group_IT_number 15
_symmetry_cell_setting 'monoclinic'
loop_
_space_group_symop_operation_xyz
x,y,z
-x,y,1/2-z
-x,-y,-z
x,-y,1/2+z
1/2+x,1/2+y,z
1/2-x,1/2+y,1/2-z
1/2-x,1/2-y,-z
1/2+x,1/2-y,1/2+z
loop_
_atom_site_type_symbol
_atom_site_label
_atom_site_fract_x
_atom_site_fract_y
_atom_site_fract_z
Si Si1 0.589928 0.616085 0.483150
Si Si2 0.500000 0.811632 0.750000
Si Si3 0.694783 0.337472 0.837458
Si Si4 0.708056 0.021240 0.292689
Si Si5 0.419060 0.845275 0.893183
Si Si6 0.729965 0.908676 0.955602
Si Si7 0.000000 0.500000 0.000000
O O1 0.500000 0.500000 0.500000
O O2 0.610803 0.632763 0.398087
O O3 0.558631 0.779018 0.524320
O O4 0.690059 0.543481 0.520306
O O5 0.396592 0.906964 0.736793
O O6 0.473523 0.743135 0.830340
O O7 0.706404 0.453584 0.769140
O O8 0.801512 0.349437 0.879714
O O9 0.691764 0.161256 0.807971
O O10 0.737742 0.105301 0.368124
O O11 0.466497 0.013355 0.908626
O O12 0.616363 0.953310 0.974503
O O13 0.750000 0.750000 0.000000
#
# Coordination Sequence:
#
# PCOD9297483 Si02
#       7
#     8   4   8   8   8   8   4
#     4  12  26  45  69 105 147 190 240 308 371 445
#     4  10  24  40  70 104 136 192 240 300 380 436
#     4  11  25  46  71 100 146 191 242 303 382 433
#     4  11  25  47  72 104 148 190 250 312 370 460
#     4  11  22  42  69  99 139 186 241 293 376 438
#     4  12  26  45  74 111 143 195 256 303 377 447
#     4  12  22  42  74  98 144 190 238 312 362 466
#
# _framework density 23.291813000000001
#
# number of rings (size 3 to 8) (size 9 to 14) (size 15 to 20)
#    0.000    0.667    5.000    2.500    2.333    1.333 
#    3.000    0.000    0.000    0.000    0.000    0.000 
#    0.000    0.000    0.000    0.000    0.000    0.000 
#
# Total GULP energy -133771.828511 kJ/mol
# GULP energy per Si atom -5573.826188 kJ/mol
# Density = 2.323880 g / cm^3
# Si number density = 23.291813 Si / 1000 Ang^3
#
#
#
# Elastic Constant Matrix: (Units=GPa)
#
#
# Indices 1 2 3 4 5 6 
#
# 1 107.6653 18.8106 36.1725 0.0000 -27.2936 0.0000
# 2 18.8106 58.3774 52.4003 0.0000 -7.9843 0.0000
# 3 36.1725 52.4003 188.9731 0.0000 -55.3525 0.0000
# 4 0.0000 0.0000 0.0000 40.1740 0.0000 -3.3448
# 5 -27.2936 -7.9843 -55.3525 0.0000 48.8182 0.0000
# 6 0.0000 0.0000 0.0000 -3.3448 0.0000 22.6796
#
#
#
# Elastic Compliance Matrix: (Units=1/GPa)
#
#
# Indices 1 2 3 4 5 6 
#
# 1 0.011305 -0.003364 0.000687 0.000000 0.006550 0.000000
# 2 -0.003364 0.024707 -0.008346 0.000000 -0.007303 0.000000
# 3 0.000687 -0.008346 0.010761 0.000000 0.011221 0.000000
# 4 0.000000 0.000000 0.000000 0.025201 0.000000 0.003717
# 5 0.006550 -0.007303 0.011221 0.000000 0.035674 0.000000
# 6 0.000000 0.000000 0.000000 0.003717 0.000000 0.044641
#
#
# Mechanical properties :
#
#
# Convention : Reuss Voigt Hill
#
# Bulk Modulus (GPa) = 40.44097 63.30918 51.87507
# Shear Modulus (GPa) = 27.38564 38.84318 33.11441
#
# Velocity S-wave (km/s) = 3.43266 4.08815 3.77466
# Velocity P-wave (km/s) = 5.75424 7.03732 6.42787
#
# Compressibility (1/GPa) = 0.02472740
#
# Stress axis : x y z
#
# Youngs Moduli (GPa) = 88.45456 40.47495 92.92591
#
# Poissons Ratio (x) = 0.13615 -0.06386
# Poissons Ratio (y) = 0.29755 0.77558
# Poissons Ratio (z) = -0.06079 0.33781
#
# Static dielectric constant tensor:
#      x y z
#    x 1.700360 0.000000 -0.091620 
#    y 0.000000 2.214070 0.000000 
#    z -0.091620 0.000000 1.984440 
# 
# From -- ./inp_files/203034.got.cif
#   From: 2010.05.17/outbox.cif.g08.bks.cpg/sg15_102_cif.got.tgz:203034.got - 2010.06.03 18:47:42.
