data_PCOD9297528
_publ_section_title
;
Structure prediction by ZEFSAII (Michael W. Deem and Ramdas Pophale) SiO2 
 PCOD9297528
Probable space group: C 2/C
;
_chemical_formula_sum "Si O2"
_cell_formula_units_Z 56
_cell_length_a 16.723601
_cell_length_b 21.930639
_cell_length_c 8.741598
_cell_angle_alpha 90.000000
_cell_angle_beta 59.309494
_cell_angle_gamma 90.000000
_cell_volume 2757.010865
_symmetry_space_group_name_H-M "C 2/C"
_symmetry_group_IT_number 15
_symmetry_cell_setting 'monoclinic'
loop_
_space_group_symop_operation_xyz
x,y,z
-x,y,1/2-z
-x,-y,-z
x,-y,1/2+z
1/2+x,1/2+y,z
1/2-x,1/2+y,1/2-z
1/2-x,1/2-y,-z
1/2+x,1/2-y,1/2+z
loop_
_atom_site_type_symbol
_atom_site_label
_atom_site_fract_x
_atom_site_fract_y
_atom_site_fract_z
Si Si1 0.734706 0.298064 0.379177
Si Si2 0.290646 0.492939 0.382745
Si Si3 0.581809 0.221165 0.970673
Si Si4 0.253339 0.086549 0.312994
Si Si5 0.953124 0.862679 0.466290
Si Si6 0.879058 0.918258 0.019838
Si Si7 0.876687 0.704901 0.211895
O O1 0.750000 0.250000 0.500000
O O2 0.836426 0.307497 0.208332
O O3 0.682271 0.360157 0.472924
O O4 0.670459 0.264407 0.315572
O O5 0.236127 0.544985 0.345277
O O6 0.226177 0.454954 0.559873
O O7 0.333607 0.447719 0.216039
O O8 0.369594 0.528858 0.402915
O O9 0.569384 0.293755 0.959694
O O10 0.479401 0.194602 0.044590
O O11 0.610054 0.214165 0.120406
O O12 0.144568 0.102837 0.440945
O O13 0.310774 0.147897 0.248579
O O14 0.000000 0.861241 0.250000
O O15 0.021411 0.894256 0.521709
#
# Coordination Sequence:
#
# PCOD9297528 Si02
#       7
#     8   8   8   8   8   8   8
#     4  12  24  40  65  97 132 165 199 269 338 370
#     4  10  24  41  61  87 123 178 210 254 304 372
#     4  11  23  39  65  98 126 164 209 256 326 385
#     4  11  23  40  64  89 128 165 215 259 313 378
#     4  12  21  36  63  97 126 167 207 258 314 387
#     4  11  23  41  60  89 130 164 212 252 307 378
#     4  11  22  41  67  93 124 167 213 260 316 379
#
# _framework density 20.311854
#
# number of rings (size 3 to 8) (size 9 to 14) (size 15 to 20)
#    0.000    0.857    5.714    2.143    0.000    4.571 
#    0.000    0.000    0.000   15.429    0.000    0.000 
#    0.000    0.000    0.000    0.000    0.000    0.000 
#
# Total GULP energy -156631.129811 kJ/mol
# GULP energy per Si atom -5593.968922 kJ/mol
# Density = 2.026562 g / cm^3
# Si number density = 20.311854 Si / 1000 Ang^3
#
#
#
# Elastic Constant Matrix: (Units=GPa)
#
#
# Indices 1 2 3 4 5 6 
#
# 1 61.0173 22.8289 19.3117 0.0000 -13.0750 0.0000
# 2 22.8289 89.7511 -3.4601 0.0000 -0.6700 0.0000
# 3 19.3117 -3.4601 41.6406 0.0000 -8.1983 0.0000
# 4 0.0000 0.0000 0.0000 28.6309 0.0000 10.5491
# 5 -13.0750 -0.6700 -8.1983 0.0000 29.6660 0.0000
# 6 0.0000 0.0000 0.0000 10.5491 0.0000 26.9916
#
#
#
# Elastic Compliance Matrix: (Units=1/GPa)
#
#
# Indices 1 2 3 4 5 6 
#
# 1 0.023496 -0.006304 -0.009951 0.000000 0.007463 0.000000
# 2 -0.006304 0.012877 0.003706 0.000000 -0.001464 0.000000
# 3 -0.009951 0.003706 0.029707 0.000000 0.003907 0.000000
# 4 0.000000 0.000000 0.000000 0.040803 0.000000 -0.015947
# 5 0.007463 -0.001464 0.003907 0.000000 0.038045 0.000000
# 6 0.000000 0.000000 0.000000 -0.015947 0.000000 0.043281
#
#
# Mechanical properties :
#
#
# Convention : Reuss Voigt Hill
#
# Bulk Modulus (GPa) = 24.40159 29.97444 27.18801
# Shear Modulus (GPa) = 22.02928 27.30628 24.66778
#
# Velocity S-wave (km/s) = 3.29683 3.67052 3.48868
# Velocity P-wave (km/s) = 5.15089 5.72300 5.44447
#
# Compressibility (1/GPa) = 0.04098094
#
# Stress axis : x y z
#
# Youngs Moduli (GPa) = 42.55978 77.65525 33.66160
#
# Poissons Ratio (x) = 0.48957 0.33498
# Poissons Ratio (y) = 0.26831 -0.12474
# Poissons Ratio (z) = 0.42353 -0.28776
#
# Static dielectric constant tensor:
#      x y z
#    x 1.717620 0.000000 0.024460 
#    y 0.000000 1.697980 0.000000 
#    z 0.024460 0.000000 1.749380 
# 
# From -- ./inp_files/50109.got.cif
#   From: 2010.05.17/outbox.cif.g08.bks.cpg/sg15_26_cif.got.tgz:50109.got - 2010.06.03 18:47:42.
