data_PCOD9297144
_publ_section_title
;
Structure prediction by ZEFSAII (Michael W. Deem and Ramdas Pophale) SiO2 
 PCOD9297144
Probable space group: C 2/C
;
_chemical_formula_sum "Si O2"
_cell_formula_units_Z 32
_cell_length_a 6.357627
_cell_length_b 18.126543
_cell_length_c 12.744632
_cell_angle_alpha 90.000000
_cell_angle_beta 123.029630
_cell_angle_gamma 90.000000
_cell_volume 1231.353639
_symmetry_space_group_name_H-M "C 2/C"
_symmetry_group_IT_number 15
_symmetry_cell_setting 'monoclinic'
loop_
_space_group_symop_operation_xyz
x,y,z
-x,y,1/2-z
-x,-y,-z
x,-y,1/2+z
1/2+x,1/2+y,z
1/2-x,1/2+y,1/2-z
1/2-x,1/2-y,-z
1/2+x,1/2-y,1/2+z
loop_
_atom_site_type_symbol
_atom_site_label
_atom_site_fract_x
_atom_site_fract_y
_atom_site_fract_z
Si Si1 0.500000 0.425682 0.250000
Si Si2 0.392987 0.178634 0.439483
Si Si3 0.045370 0.045547 0.408466
Si Si4 0.758886 0.285786 0.272897
Si Si5 0.000000 0.388305 0.750000
O O1 0.653069 0.481132 0.363300
O O2 0.682965 0.371441 0.235005
O O3 0.233905 0.241963 0.334677
O O4 0.561782 0.213390 0.577045
O O5 0.544522 0.141352 0.384275
O O6 0.216946 0.117548 0.445946
O O7 0.766574 0.072400 0.301136
O O8 0.000000 0.000000 0.500000
O O9 0.500000 0.253445 0.250000
#
# Coordination Sequence:
#
# PCOD9297144 Si02
#       5
#     4   8   8   8   4
#     4  10  23  48  76 123 158 214 282 332 423 480
#     4  12  25  52  83 121 171 222 282 338 429 496
#     4  12  28  48  82 121 167 222 279 348 416 500
#     4  10  25  45  85 120 168 218 275 351 412 502
#     4  12  25  48  82 115 170 212 278 352 407 498
#
# _framework density 25.987659000000001
#
# number of rings (size 3 to 8) (size 9 to 14) (size 15 to 20)
#    0.750    0.000    3.750    2.250    3.500    2.000 
#    0.000   16.250    0.000    0.000    0.000    0.000 
#    0.000    0.000    0.000    0.000    0.000    0.000 
#
# Total GULP energy -89125.434754 kJ/mol
# GULP energy per Si atom -5570.339672 kJ/mol
# Density = 2.592851 g / cm^3
# Si number density = 25.987659 Si / 1000 Ang^3
#
#
#
# Elastic Constant Matrix: (Units=GPa)
#
#
# Indices 1 2 3 4 5 6 
#
# 1 74.3002 37.0553 81.2841 0.0000 5.8125 0.0000
# 2 37.0553 82.3768 111.1295 0.0000 -12.7114 0.0000
# 3 81.2841 111.1295 223.0854 0.0000 6.9703 0.0000
# 4 0.0000 0.0000 0.0000 38.3313 0.0000 3.2619
# 5 5.8125 -12.7114 6.9703 0.0000 58.8859 0.0000
# 6 0.0000 0.0000 0.0000 3.2619 0.0000 -8.4095
#
#
#
# Elastic Compliance Matrix: (Units=1/GPa)
#
#
# Indices 1 2 3 4 5 6 
#
# 1 0.022616 0.002540 -0.009489 0.000000 -0.000561 0.000000
# 2 0.002540 0.044624 -0.023535 0.000000 0.012168 0.000000
# 3 -0.009489 -0.023535 0.019867 0.000000 -0.006495 0.000000
# 4 0.000000 0.000000 0.000000 0.025255 0.000000 0.009796
# 5 -0.000561 0.012168 -0.006495 0.000000 0.020433 0.000000
# 6 0.000000 0.000000 0.000000 0.009796 0.000000 -0.115113
#
#
# Mechanical properties :
#
#
# Convention : Reuss Voigt Hill
#
# Bulk Modulus (GPa) = 38.25467 93.18892 65.72180
# Shear Modulus (GPa) = 57.23329 27.78109 42.50719
#
# Velocity S-wave (km/s) = 4.69799 3.27312 4.04873
# Velocity P-wave (km/s) = 6.64683 7.08669 6.87028
#
# Compressibility (1/GPa) = 0.02614060
#
# Stress axis : x y z
#
# Youngs Moduli (GPa) = 44.21608 22.40937 50.33509
#
# Poissons Ratio (x) = -0.05693 0.47761
# Poissons Ratio (y) = -0.11233 1.18465
# Poissons Ratio (z) = 0.41955 0.52741
#
# Static dielectric constant tensor:
#      x y z
#    x 2.419330 0.000000 0.167730 
#    y 0.000000 1.950540 0.000000 
#    z 0.167730 0.000000 2.368200 
# 
# From -- ./inp_files/128524.got.cif
#   From: 2010.05.17/outbox.cif.g08.bks.cpg/sg15_65_cif.got.tgz:128524.got - 2010.06.03 18:47:42.
